0
                    3D
 Structure written by MMmdl.
160169  0  0  1  0            999 V2000
  -30.6450  -14.6372   20.5452 C   0  0  0  0  0  0
  -30.4402  -12.3966   19.4662 C   0  0  0  0  0  0
  -29.5141  -12.5045   18.2348 C   0  0  0  0  0  0
  -28.0351  -12.3477   18.6420 C   0  0  0  0  0  0
  -27.6564  -13.2202   19.8690 C   0  0  2  0  0  0
  -28.6982  -13.0749   21.0020 C   0  0  0  0  0  0
  -25.2570  -13.8189   20.5717 C   0  0  0  0  0  0
  -24.1836  -13.0447   20.9211 C   0  0  0  0  0  0
  -24.6399  -11.6917   20.8733 C   0  0  0  0  0  0
  -23.9077  -10.4302   21.0391 C   0  0  0  0  0  0
  -24.3625   -9.4214   21.9168 C   0  0  0  0  0  0
  -23.6293   -8.2252   22.0744 C   0  0  0  0  0  0
  -22.4265   -8.0294   21.3543 C   0  0  0  0  0  0
  -21.9898   -9.0273   20.4655 C   0  0  0  0  0  0
  -22.7231  -10.2154   20.3061 C   0  0  0  0  0  0
  -21.6862   -6.0740   22.5277 C   0  0  0  0  0  0
  -21.4029   -6.5650   23.8207 C   0  0  0  0  0  0
  -21.3651   -5.6799   24.9166 C   0  0  0  0  0  0
  -21.6042   -4.3065   24.7211 C   0  0  0  0  0  0
  -21.8822   -3.8150   23.4338 C   0  0  0  0  0  0
  -21.9194   -4.6969   22.3396 C   0  0  0  0  0  0
  -22.7858  -13.5237   21.1851 C   0  0  0  0  0  0
  -22.1661   -4.2156   21.0968 F   0  0  0  0  0  0
  -21.5612   -3.4547   25.7725 F   0  0  0  0  0  0
  -30.0185  -13.4201   20.4456 N   0  0  0  0  0  0
  -26.3001  -12.9378   20.3342 N   0  0  0  0  0  0
  -25.9338  -11.6528   20.5770 N   0  0  0  0  0  0
  -22.0503  -12.8249   22.0421 N   0  0  0  0  0  0
  -25.4305  -15.1908   20.4174 N   0  0  0  0  0  0
  -31.7905  -14.7930   20.1146 O   0  0  0  0  0  0
  -21.6643   -6.8883   21.4238 O   0  0  0  0  0  0
  -22.3542  -14.5525   20.6663 O   0  0  0  0  0  0
  -24.6240  -31.8604   23.2011 C   0  0  0  0  0  0
  -25.9096  -32.4773   23.8346 C   0  0  1  0  0  0
  -27.2394  -27.3203   20.1304 C   0  0  0  0  0  0
  -25.5913  -33.8574   24.2267 N   0  0  0  0  0  0
  -23.4186  -30.4803   21.5435 C   0  0  2  0  0  0
  -24.8698  -28.9350   20.1131 C   0  0  0  0  0  0
  -22.7466  -29.4616   22.4938 C   0  0  0  0  0  0
  -18.0287  -28.1378   22.8483 C   0  0  0  0  0  0
  -24.1492  -36.7302   23.2646 C   0  0  0  0  0  0
  -25.9594  -30.7928   21.3723 C   0  0  0  0  0  0
  -26.0369  -29.4196   20.7154 C   0  0  0  0  0  0
  -27.2211  -28.6258   20.7121 C   0  0  0  0  0  0
  -26.0435  -26.8855   19.5082 C   0  0  0  0  0  0
  -24.8753  -27.6723   19.5012 C   0  0  0  0  0  0
  -23.6345  -29.8116   20.1602 C   0  0  0  0  0  0
  -25.4124  -36.3078   24.0320 C   0  0  1  0  0  0
  -20.5881  -28.3685   23.1280 C   0  0  2  0  0  0
  -20.6777  -26.9409   22.5415 C   0  0  0  0  0  0
  -19.5759  -26.6374   21.5212 C   0  0  0  0  0  0
  -18.1933  -26.7920   22.1624 C   0  0  0  0  0  0
  -19.1540  -28.8850   23.2871 C   0  0  0  0  0  0
  -18.9467  -30.1452   23.8886 C   0  0  0  0  0  0
  -17.6470  -30.6585   24.0563 C   0  0  0  0  0  0
  -25.9044  -34.9441   23.5088 C   0  0  0  0  0  0
  -16.5359  -29.9087   23.6329 C   0  0  0  0  0  0
  -16.7274  -28.6503   23.0350 C   0  0  0  0  0  0
  -26.4498  -31.6587   25.0710 C   0  0  0  0  0  0
  -25.3760  -31.3772   26.1475 C   0  0  0  0  0  0
  -27.0328  -30.2999   24.6171 C   0  0  0  0  0  0
  -27.6062  -32.4347   25.7443 C   0  0  0  0  0  0
  -27.5558  -37.1833   24.8486 C   0  0  0  0  0  0
  -21.4182  -29.3030   22.3669 N   0  0  0  0  0  0
  -26.4325  -37.3747   23.9345 N   0  0  0  0  0  0
  -24.6853  -31.0621   22.0950 N   0  0  0  0  0  0
  -23.4195  -28.8174   23.3025 O   0  0  0  0  0  0
  -28.3796  -26.4976   20.2055 O   0  0  0  0  0  0
  -26.5622  -34.8909   22.4658 O   0  0  0  0  0  0
  -23.5407  -32.1392   23.7350 O   0  0  0  0  0  0
  -31.1936  -19.3166   20.9842 C   0  0  0  0  0  0
  -28.7981  -17.9148   21.0360 C   0  0  0  0  0  0
  -30.0005  -20.0902   21.0583 C   0  0  0  0  0  0
  -29.9887  -17.1375   20.9673 C   0  0  0  0  0  0
  -31.2007  -17.8860   20.9510 C   0  0  0  0  0  0
  -28.7946  -19.3417   21.0875 C   0  0  0  0  0  0
  -28.4422  -23.2496   18.1488 C   0  0  0  0  0  0
  -28.5100  -24.7563   18.4755 C   0  0  0  0  0  0
  -29.4558  -22.4305   18.9693 C   0  0  0  0  0  0
  -29.2739  -24.0871   20.7960 C   0  0  0  0  0  0
  -28.2867  -25.0332   19.9757 C   0  0  1  0  0  0
  -30.0551  -21.6578   21.2723 C   0  0  0  0  0  0
  -29.8677  -15.6717   20.9980 N   0  0  0  0  0  0
  -29.2168  -22.6016   20.4229 N   0  3  2  0  0  0
  -32.3965  -17.2551   20.9637 F   0  0  0  0  0  0
  -27.2829  -20.1658   21.2300 Cl  0  0  0  0  0  0
  -31.4820  -12.5168   19.1653 H   0  0  0  0  0  0
  -30.3750  -11.4040   19.9142 H   0  0  0  0  0  0
  -29.7774  -11.7433   17.4984 H   0  0  0  0  0  0
  -29.6601  -13.4703   17.7480 H   0  0  0  0  0  0
  -27.8678  -11.2954   18.8718 H   0  0  0  0  0  0
  -27.3854  -12.5809   17.7979 H   0  0  0  0  0  0
  -27.6737  -14.2562   19.5311 H   0  0  0  0  0  0
  -28.7080  -12.0542   21.3852 H   0  0  0  0  0  0
  -28.4374  -13.7047   21.8538 H   0  0  0  0  0  0
  -25.2774   -9.5681   22.4739 H   0  0  0  0  0  0
  -24.0000   -7.4651   22.7465 H   0  0  0  0  0  0
  -21.0822   -8.8810   19.8978 H   0  0  0  0  0  0
  -22.3684  -10.9702   19.6189 H   0  0  0  0  0  0
  -21.2047   -7.6162   23.9716 H   0  0  0  0  0  0
  -21.1460   -6.0524   25.9064 H   0  0  0  0  0  0
  -22.0604   -2.7609   23.2839 H   0  0  0  0  0  0
  -22.4131  -11.9933   22.4836 H   0  0  0  0  0  0
  -21.1121  -13.1295   22.2611 H   0  0  0  0  0  0
  -24.6665  -15.8471   20.5386 H   0  0  0  0  0  0
  -26.2738  -15.6268   20.0678 H   0  0  0  0  0  0
  -26.7159  -32.5451   23.1090 H   0  0  0  0  0  0
  -25.0040  -33.9716   25.0399 H   0  0  0  0  0  0
  -22.7104  -31.2986   21.3983 H   0  0  0  0  0  0
  -23.3681  -35.9725   23.3466 H   0  0  0  0  0  0
  -24.3540  -36.8757   22.2027 H   0  0  0  0  0  0
  -23.7368  -37.6604   23.6566 H   0  0  0  0  0  0
  -26.0945  -31.5583   20.6071 H   0  0  0  0  0  0
  -26.8376  -30.8394   22.0045 H   0  0  0  0  0  0
  -28.1140  -28.9985   21.1951 H   0  0  0  0  0  0
  -25.9740  -25.9205   19.0323 H   0  0  0  0  0  0
  -23.9799  -27.2909   19.0303 H   0  0  0  0  0  0
  -23.7486  -30.5872   19.4023 H   0  0  0  0  0  0
  -22.7571  -29.2369   19.8576 H   0  0  0  0  0  0
  -25.1333  -36.1949   25.0827 H   0  0  0  0  0  0
  -20.9970  -28.3272   24.1402 H   0  0  0  0  0  0
  -20.5661  -26.2303   23.3617 H   0  0  0  0  0  0
  -21.6644  -26.7426   22.1218 H   0  0  0  0  0  0
  -19.6919  -25.6283   21.1235 H   0  0  0  0  0  0
  -19.6693  -27.3187   20.6741 H   0  0  0  0  0  0
  -17.4200  -26.6647   21.4031 H   0  0  0  0  0  0
  -18.0351  -26.0062   22.9028 H   0  0  0  0  0  0
  -19.7945  -30.7266   24.2243 H   0  0  0  0  0  0
  -17.5027  -31.6259   24.5176 H   0  0  0  0  0  0
  -15.5359  -30.2994   23.7648 H   0  0  0  0  0  0
  -15.8674  -28.0819   22.7075 H   0  0  0  0  0  0
  -24.5848  -30.7215   25.7827 H   0  0  0  0  0  0
  -24.9086  -32.2979   26.4973 H   0  0  0  0  0  0
  -25.8098  -30.8871   27.0195 H   0  0  0  0  0  0
  -26.2889  -29.6740   24.1222 H   0  0  0  0  0  0
  -27.4044  -29.7268   25.4673 H   0  0  0  0  0  0
  -27.8763  -30.4266   23.9380 H   0  0  0  0  0  0
  -27.2650  -33.3624   26.2052 H   0  0  0  0  0  0
  -28.3829  -32.6957   25.0239 H   0  0  0  0  0  0
  -28.0785  -31.8482   26.5327 H   0  0  0  0  0  0
  -28.2732  -37.9964   24.7295 H   0  0  0  0  0  0
  -28.0891  -36.2496   24.6624 H   0  0  0  0  0  0
  -27.2240  -37.1872   25.8886 H   0  0  0  0  0  0
  -20.9365  -29.8745   21.6871 H   0  0  0  0  0  0
  -26.0215  -38.2855   24.1224 H   0  0  0  0  0  0
  -32.1494  -19.8208   21.0096 H   0  0  0  0  0  0
  -27.8453  -17.4090   21.0806 H   0  0  0  0  0  0
  -28.6388  -23.1000   17.0867 H   0  0  0  0  0  0
  -27.4340  -22.8708   18.3296 H   0  0  0  0  0  0
  -27.7779  -25.2909   17.8728 H   0  0  0  0  0  0
  -29.4837  -25.1492   18.1794 H   0  0  0  0  0  0
  -30.4741  -22.7408   18.7263 H   0  0  0  0  0  0
  -29.3787  -21.3778   18.6956 H   0  0  0  0  0  0
  -29.0590  -24.1933   21.8590 H   0  0  0  0  0  0
  -30.2972  -24.4415   20.6579 H   0  0  0  0  0  0
  -27.2871  -24.7000   20.2573 H   0  0  0  0  0  0
  -31.0969  -21.9738   21.1907 H   0  0  0  0  0  0
  -29.7861  -21.8324   22.3156 H   0  0  0  0  0  0
  -28.9611  -15.3416   21.2904 H   0  0  0  0  0  0
  -28.2677  -22.2954   20.5912 H   0  0  0  0  0  0
  1 25  1  0  0  0
  1 30  2  0  0  0
  1 83  1  0  0  0
  2  3  1  0  0  0
  2 25  1  0  0  0
  2 87  1  0  0  0
  2 88  1  0  0  0
  3  4  1  0  0  0
  3 89  1  0  0  0
  3 90  1  0  0  0
  4  5  1  0  0  0
  4 91  1  0  0  0
  4 92  1  0  0  0
  5  6  1  0  0  0
  5 26  1  0  0  0
  5 93  1  0  0  0
  6 25  1  0  0  0
  6 94  1  0  0  0
  6 95  1  0  0  0
  7  8  2  0  0  0
  7 26  1  0  0  0
  7 29  1  0  0  0
  8  9  1  0  0  0
  8 22  1  0  0  0
  9 10  1  0  0  0
  9 27  2  0  0  0
 10 11  2  0  0  0
 10 15  1  0  0  0
 11 12  1  0  0  0
 11 96  1  0  0  0
 12 13  2  0  0  0
 12 97  1  0  0  0
 13 14  1  0  0  0
 13 31  1  0  0  0
 14 15  2  0  0  0
 14 98  1  0  0  0
 15 99  1  0  0  0
 16 17  2  0  0  0
 16 21  1  0  0  0
 16 31  1  0  0  0
 17 18  1  0  0  0
 17100  1  0  0  0
 18 19  2  0  0  0
 18101  1  0  0  0
 19 20  1  0  0  0
 19 24  1  0  0  0
 20 21  2  0  0  0
 20102  1  0  0  0
 21 23  1  0  0  0
 22 28  1  0  0  0
 22 32  2  0  0  0
 26 27  1  0  0  0
 28103  1  0  0  0
 28104  1  0  0  0
 29105  1  0  0  0
 29106  1  0  0  0
 33 34  1  0  0  0
 33 66  1  0  0  0
 33 70  2  0  0  0
 34 36  1  0  0  0
 34 59  1  0  0  0
 34107  1  0  0  0
 35 44  2  0  0  0
 35 45  1  0  0  0
 35 68  1  0  0  0
 36 56  1  0  0  0
 36108  1  0  0  0
 37 39  1  0  0  0
 37 47  1  0  0  0
 37 66  1  0  0  0
 37109  1  0  0  0
 38 43  2  0  0  0
 38 46  1  0  0  0
 38 47  1  0  0  0
 39 64  1  0  0  0
 39 67  2  0  0  0
 40 52  1  0  0  0
 40 53  2  0  0  0
 40 58  1  0  0  0
 41110  1  0  0  0
 41111  1  0  0  0
 41112  1  0  0  0
 41 48  1  0  0  0
 42 43  1  0  0  0
 42 66  1  0  0  0
 42113  1  0  0  0
 42114  1  0  0  0
 43 44  1  0  0  0
 44115  1  0  0  0
 45 46  2  0  0  0
 45116  1  0  0  0
 46117  1  0  0  0
 47118  1  0  0  0
 47119  1  0  0  0
 48 56  1  0  0  0
 48 65  1  0  0  0
 48120  1  0  0  0
 49 50  1  0  0  0
 49 53  1  0  0  0
 49 64  1  0  0  0
 49121  1  0  0  0
 50 51  1  0  0  0
 50122  1  0  0  0
 50123  1  0  0  0
 51 52  1  0  0  0
 51124  1  0  0  0
 51125  1  0  0  0
 52126  1  0  0  0
 52127  1  0  0  0
 53 54  1  0  0  0
 54 55  2  0  0  0
 54128  1  0  0  0
 55 57  1  0  0  0
 55129  1  0  0  0
 56 69  2  0  0  0
 57 58  2  0  0  0
 57130  1  0  0  0
 58131  1  0  0  0
 59 60  1  0  0  0
 59 61  1  0  0  0
 59 62  1  0  0  0
 60132  1  0  0  0
 60133  1  0  0  0
 60134  1  0  0  0
 61135  1  0  0  0
 61136  1  0  0  0
 61137  1  0  0  0
 62138  1  0  0  0
 62139  1  0  0  0
 62140  1  0  0  0
 63 65  1  0  0  0
 63141  1  0  0  0
 63142  1  0  0  0
 63143  1  0  0  0
 64144  1  0  0  0
 65145  1  0  0  0
 68 81  1  0  0  0
 71 73  2  0  0  0
 71 75  1  0  0  0
 71146  1  0  0  0
 72 74  1  0  0  0
 72 76  2  0  0  0
 72147  1  0  0  0
 73 76  1  0  0  0
 73 82  1  0  0  0
 74 75  2  0  0  0
 74 83  1  0  0  0
 75 85  1  0  0  0
 76 86  1  0  0  0
 77 78  1  0  0  0
 77 79  1  0  0  0
 77148  1  0  0  0
 77149  1  0  0  0
 78 81  1  0  0  0
 78150  1  0  0  0
 78151  1  0  0  0
 79 84  1  0  0  0
 79152  1  0  0  0
 79153  1  0  0  0
 80 81  1  0  0  0
 80 84  1  0  0  0
 80154  1  0  0  0
 80155  1  0  0  0
 81156  1  0  0  0
 82157  1  0  0  0
 82158  1  0  0  0
 82 84  1  0  0  0
 83159  1  0  0  0
 84160  1  0  0  0
M  CHG  1  84   1
M  ISO  4   1 100  68 101  81 101  83 100
M  END
> <chiral flag>
0

> <version>
0

> <s_m_source_file>
/data/baiqing/PycharmProjects/Reinvent-master-3.2/result/LINK_invent/BTK/process_docking_weight1_custom_product_contain_oxygen_bond_distance_aromatic_linkinvent_7_9_3/rearranged_h_0034.sdf

> <i_m_source_file_index>
1

> <r_mmod_Potential_Energy-OPLS-2005>
-68.7484436035156

> <r_mmod_Stretch_Energy-OPLS-2005>
85.8321075439453

> <r_mmod_Bend_Energy-OPLS-2005>
146.774475097656

> <r_mmod_Torsional_Energy-OPLS-2005>
230.765869140625

> <r_mmod_Improper_Torsional_Energy-OPLS-2005>
4.65275526046753

> <r_mmod_Van_der_Waal_Energy-OPLS-2005>
143.576263427734

> <r_mmod_Electrostatic_Energy-OPLS-2005>
-282.47607421875

> <r_mmod_Solvation_Energy-OPLS-2005>
-444.158996582031

> <b_mmod_Minimization_Converged-OPLS-2005>
0

> <r_mmod_RMS_Derivative-OPLS-2005>
2.55436611175537

$$$$
1
                    3D
 Structure written by MMmdl.
155163  0  0  1  0            999 V2000
  -30.6358  -14.7343   20.4744 C   0  0  0  0  0  0
  -30.4232  -12.4478   19.4875 C   0  0  0  0  0  0
  -29.5078  -12.5139   18.2460 C   0  0  0  0  0  0
  -28.0355  -12.3366   18.6636 C   0  0  0  0  0  0
  -27.6404  -13.2382   19.8631 C   0  0  2  0  0  0
  -28.6863  -13.1803   20.9993 C   0  0  0  0  0  0
  -25.2482  -13.8196   20.5717 C   0  0  0  0  0  0
  -24.1786  -13.0432   20.9234 C   0  0  0  0  0  0
  -24.6399  -11.6913   20.8770 C   0  0  0  0  0  0
  -23.9073  -10.4287   21.0410 C   0  0  0  0  0  0
  -24.3606   -9.4191   21.9194 C   0  0  0  0  0  0
  -23.6279   -8.2228   22.0755 C   0  0  0  0  0  0
  -22.4268   -8.0276   21.3542 C   0  0  0  0  0  0
  -21.9902   -9.0241   20.4643 C   0  0  0  0  0  0
  -22.7236  -10.2122   20.3064 C   0  0  0  0  0  0
  -21.6855   -6.0725   22.5274 C   0  0  0  0  0  0
  -21.4007   -6.5634   23.8198 C   0  0  0  0  0  0
  -21.3673   -5.6802   24.9166 C   0  0  0  0  0  0
  -21.6052   -4.3060   24.7221 C   0  0  0  0  0  0
  -21.8810   -3.8135   23.4339 C   0  0  0  0  0  0
  -21.9182   -4.6953   22.3389 C   0  0  0  0  0  0
  -22.7816  -13.5204   21.1894 C   0  0  0  0  0  0
  -22.1663   -4.2137   21.0966 F   0  0  0  0  0  0
  -21.5628   -3.4542   25.7727 F   0  0  0  0  0  0
  -29.9904  -13.5185   20.4167 N   0  0  0  0  0  0
  -26.2937  -12.9439   20.3366 N   0  0  0  0  0  0
  -25.9335  -11.6565   20.5811 N   0  0  0  0  0  0
  -22.0472  -12.8180   22.0458 N   0  0  0  0  0  0
  -25.4074  -15.1903   20.4002 N   0  0  0  0  0  0
  -31.8184  -14.8168   20.1337 O   0  0  0  0  0  0
  -21.6650   -6.8862   21.4239 O   0  0  0  0  0  0
  -22.3498  -14.5516   20.6763 O   0  0  0  0  0  0
  -24.6307  -31.8543   23.1937 C   0  0  0  0  0  0
  -25.9138  -32.4750   23.8294 C   0  0  1  0  0  0
  -27.2356  -27.2701   20.1417 C   0  0  0  0  0  0
  -25.5941  -33.8541   24.2234 N   0  0  0  0  0  0
  -23.4289  -30.4723   21.5354 C   0  0  2  0  0  0
  -24.8773  -28.9055   20.1185 C   0  0  0  0  0  0
  -22.7505  -29.4615   22.4910 C   0  0  0  0  0  0
  -18.0303  -28.1372   22.8483 C   0  0  0  0  0  0
  -24.1494  -36.7285   23.2639 C   0  0  0  0  0  0
  -25.9708  -30.7697   21.3687 C   0  0  0  0  0  0
  -26.0474  -29.3887   20.7192 C   0  0  0  0  0  0
  -27.2307  -28.5860   20.7098 C   0  0  0  0  0  0
  -26.0419  -26.8376   19.5287 C   0  0  0  0  0  0
  -24.8790  -27.6370   19.5116 C   0  0  0  0  0  0
  -23.6479  -29.7913   20.1572 C   0  0  0  0  0  0
  -25.4124  -36.3058   24.0319 C   0  0  1  0  0  0
  -20.5899  -28.3747   23.1317 C   0  0  2  0  0  0
  -20.6818  -26.9465   22.5457 C   0  0  0  0  0  0
  -19.5837  -26.6456   21.5213 C   0  0  0  0  0  0
  -18.2010  -26.7908   22.1634 C   0  0  0  0  0  0
  -19.1542  -28.8874   23.2888 C   0  0  0  0  0  0
  -18.9434  -30.1478   23.8899 C   0  0  0  0  0  0
  -17.6431  -30.6593   24.0539 C   0  0  0  0  0  0
  -25.9070  -34.9431   23.5087 C   0  0  0  0  0  0
  -16.5333  -29.9065   23.6290 C   0  0  0  0  0  0
  -16.7285  -28.6468   23.0347 C   0  0  0  0  0  0
  -26.4496  -31.6576   25.0688 C   0  0  0  0  0  0
  -25.3726  -31.3725   26.1416 C   0  0  0  0  0  0
  -27.0350  -30.2991   24.6175 C   0  0  0  0  0  0
  -27.6050  -32.4306   25.7471 C   0  0  0  0  0  0
  -27.5573  -37.1799   24.8465 C   0  0  0  0  0  0
  -21.4216  -29.3100   22.3690 N   0  0  0  0  0  0
  -26.4301  -37.3754   23.9393 N   0  0  0  0  0  0
  -24.6956  -31.0515   22.0899 N   0  0  0  0  0  0
  -23.4214  -28.8157   23.3001 O   0  0  0  0  0  0
  -28.3673  -26.4300   20.1085 O   0  0  0  0  0  0
  -26.5639  -34.8912   22.4646 O   0  0  0  0  0  0
  -23.5456  -32.1357   23.7254 O   0  0  0  0  0  0
  -27.7411  -20.9859   21.1713 C   0  0  0  0  0  0
  -27.3511  -19.7044   21.6149 C   0  0  0  0  0  0
  -29.8123  -19.9941   20.3455 C   0  0  0  0  0  0
  -29.4105  -18.6438   20.7588 C   0  0  0  0  0  0
  -28.9864  -21.1876   20.5455 C   0  0  0  0  0  0
  -28.1595  -18.5626   21.4317 C   0  0  0  0  0  0
  -31.1732  -20.1519   19.6726 C   0  0  0  0  0  0
  -30.3446  -17.3430   20.5461 C   0  0  0  0  0  0
  -28.5477  -23.7145   19.7341 C   0  0  0  0  0  0
  -28.3268  -25.0309   20.6525 C   0  0  0  0  0  0
  -29.3868  -22.5441   20.2309 N   0  0  0  0  0  0
  -29.9014  -15.8846   20.7095 N   0  0  0  0  0  0
  -27.5703  -17.0860   22.1106 Cl  0  0  0  0  0  0
  -31.4671  -12.5534   19.1938 H   0  0  0  0  0  0
  -30.3454  -11.4701   19.9656 H   0  0  0  0  0  0
  -29.7857  -11.7452   17.5240 H   0  0  0  0  0  0
  -29.6400  -13.4715   17.7387 H   0  0  0  0  0  0
  -27.8978  -11.2887   18.9328 H   0  0  0  0  0  0
  -27.3721  -12.5211   17.8187 H   0  0  0  0  0  0
  -27.6316  -14.2608   19.4841 H   0  0  0  0  0  0
  -28.7170  -12.1886   21.4521 H   0  0  0  0  0  0
  -28.4274  -13.8731   21.8025 H   0  0  0  0  0  0
  -25.2728   -9.5686   22.4797 H   0  0  0  0  0  0
  -23.9987   -7.4620   22.7457 H   0  0  0  0  0  0
  -21.0833   -8.8732   19.8946 H   0  0  0  0  0  0
  -22.3652  -10.9655   19.6186 H   0  0  0  0  0  0
  -21.2013   -7.6143   23.9696 H   0  0  0  0  0  0
  -21.1524   -6.0535   25.9072 H   0  0  0  0  0  0
  -22.0582   -2.7596   23.2836 H   0  0  0  0  0  0
  -22.4098  -11.9835   22.4817 H   0  0  0  0  0  0
  -21.1088  -13.1172   22.2689 H   0  0  0  0  0  0
  -24.6505  -15.8439   20.5625 H   0  0  0  0  0  0
  -26.2719  -15.6406   20.1329 H   0  0  0  0  0  0
  -26.7203  -32.5411   23.1034 H   0  0  0  0  0  0
  -25.0062  -33.9658   25.0363 H   0  0  0  0  0  0
  -22.7262  -31.2956   21.3807 H   0  0  0  0  0  0
  -23.3738  -35.9636   23.3310 H   0  0  0  0  0  0
  -24.3577  -36.8899   22.2051 H   0  0  0  0  0  0
  -23.7275  -37.6498   23.6661 H   0  0  0  0  0  0
  -26.1044  -31.5261   20.5946 H   0  0  0  0  0  0
  -26.8504  -30.8279   21.9983 H   0  0  0  0  0  0
  -28.1348  -28.9585   21.1714 H   0  0  0  0  0  0
  -26.0085  -25.8632   19.0620 H   0  0  0  0  0  0
  -23.9824  -27.2591   19.0387 H   0  0  0  0  0  0
  -23.7737  -30.5600   19.3931 H   0  0  0  0  0  0
  -22.7677  -29.2203   19.8571 H   0  0  0  0  0  0
  -25.1297  -36.1892   25.0813 H   0  0  0  0  0  0
  -21.0002  -28.3367   24.1438 H   0  0  0  0  0  0
  -20.5670  -26.2379   23.3681 H   0  0  0  0  0  0
  -21.6718  -26.7503   22.1311 H   0  0  0  0  0  0
  -19.7033  -25.6392   21.1194 H   0  0  0  0  0  0
  -19.6753  -27.3346   20.6804 H   0  0  0  0  0  0
  -17.4283  -26.6625   21.4048 H   0  0  0  0  0  0
  -18.0476  -26.0059   22.9054 H   0  0  0  0  0  0
  -19.7906  -30.7309   24.2279 H   0  0  0  0  0  0
  -17.4956  -31.6270   24.5112 H   0  0  0  0  0  0
  -15.5321  -30.2956   23.7588 H   0  0  0  0  0  0
  -15.8695  -28.0774   22.7067 H   0  0  0  0  0  0
  -24.5894  -30.7079   25.7728 H   0  0  0  0  0  0
  -24.8938  -32.2913   26.4824 H   0  0  0  0  0  0
  -25.8057  -30.8902   27.0195 H   0  0  0  0  0  0
  -26.2944  -29.6722   24.1188 H   0  0  0  0  0  0
  -27.4019  -29.7239   25.4685 H   0  0  0  0  0  0
  -27.8818  -30.4230   23.9420 H   0  0  0  0  0  0
  -27.2650  -33.3590   26.2058 H   0  0  0  0  0  0
  -28.3874  -32.6888   25.0326 H   0  0  0  0  0  0
  -28.0717  -31.8437   26.5389 H   0  0  0  0  0  0
  -28.2592  -38.0083   24.7473 H   0  0  0  0  0  0
  -28.1064  -36.2612   24.6338 H   0  0  0  0  0  0
  -27.2296  -37.1512   25.8869 H   0  0  0  0  0  0
  -20.9389  -29.8870   21.6946 H   0  0  0  0  0  0
  -26.0169  -38.2825   24.1372 H   0  0  0  0  0  0
  -27.0891  -21.8228   21.3776 H   0  0  0  0  0  0
  -26.4143  -19.5999   22.1434 H   0  0  0  0  0  0
  -31.1505  -19.7235   18.6707 H   0  0  0  0  0  0
  -31.9465  -19.6432   20.2437 H   0  0  0  0  0  0
  -31.4938  -21.1890   19.5739 H   0  0  0  0  0  0
  -31.2044  -17.4683   21.2076 H   0  0  0  0  0  0
  -30.7523  -17.4065   19.5379 H   0  0  0  0  0  0
  -29.0669  -24.0580   18.8374 H   0  0  0  0  0  0
  -27.5829  -23.3596   19.3670 H   0  0  0  0  0  0
  -27.4100  -24.8942   21.2286 H   0  0  0  0  0  0
  -29.1203  -25.0206   21.4014 H   0  0  0  0  0  0
  -30.3574  -22.6277   19.9407 H   0  0  0  0  0  0
  -28.9401  -15.7544   20.9884 H   0  0  0  0  0  0
  1 25  1  0  0  0
  1 30  2  0  0  0
  1 82  1  0  0  0
  2  3  1  0  0  0
  2 25  1  0  0  0
  2 84  1  0  0  0
  2 85  1  0  0  0
  3  4  1  0  0  0
  3 86  1  0  0  0
  3 87  1  0  0  0
  4  5  1  0  0  0
  4 88  1  0  0  0
  4 89  1  0  0  0
  5  6  1  0  0  0
  5 26  1  0  0  0
  5 90  1  0  0  0
  6 25  1  0  0  0
  6 91  1  0  0  0
  6 92  1  0  0  0
  7  8  2  0  0  0
  7 26  1  0  0  0
  7 29  1  0  0  0
  8  9  1  0  0  0
  8 22  1  0  0  0
  9 10  1  0  0  0
  9 27  2  0  0  0
 10 11  2  0  0  0
 10 15  1  0  0  0
 11 12  1  0  0  0
 11 93  1  0  0  0
 12 13  2  0  0  0
 12 94  1  0  0  0
 13 14  1  0  0  0
 13 31  1  0  0  0
 14 15  2  0  0  0
 14 95  1  0  0  0
 15 96  1  0  0  0
 16 17  2  0  0  0
 16 21  1  0  0  0
 16 31  1  0  0  0
 17 18  1  0  0  0
 17 97  1  0  0  0
 18 19  2  0  0  0
 18 98  1  0  0  0
 19 20  1  0  0  0
 19 24  1  0  0  0
 20 21  2  0  0  0
 20 99  1  0  0  0
 21 23  1  0  0  0
 22 28  1  0  0  0
 22 32  2  0  0  0
 26 27  1  0  0  0
 28100  1  0  0  0
 28101  1  0  0  0
 29102  1  0  0  0
 29103  1  0  0  0
 33 34  1  0  0  0
 33 66  1  0  0  0
 33 70  2  0  0  0
 34 36  1  0  0  0
 34 59  1  0  0  0
 34104  1  0  0  0
 35 44  2  0  0  0
 35 45  1  0  0  0
 35 68  1  0  0  0
 36 56  1  0  0  0
 36105  1  0  0  0
 37 39  1  0  0  0
 37 47  1  0  0  0
 37 66  1  0  0  0
 37106  1  0  0  0
 38 43  2  0  0  0
 38 46  1  0  0  0
 38 47  1  0  0  0
 39 64  1  0  0  0
 39 67  2  0  0  0
 40 52  1  0  0  0
 40 53  2  0  0  0
 40 58  1  0  0  0
 41107  1  0  0  0
 41108  1  0  0  0
 41109  1  0  0  0
 41 48  1  0  0  0
 42 43  1  0  0  0
 42 66  1  0  0  0
 42110  1  0  0  0
 42111  1  0  0  0
 43 44  1  0  0  0
 44112  1  0  0  0
 45 46  2  0  0  0
 45113  1  0  0  0
 46114  1  0  0  0
 47115  1  0  0  0
 47116  1  0  0  0
 48 56  1  0  0  0
 48 65  1  0  0  0
 48117  1  0  0  0
 49 50  1  0  0  0
 49 53  1  0  0  0
 49 64  1  0  0  0
 49118  1  0  0  0
 50 51  1  0  0  0
 50119  1  0  0  0
 50120  1  0  0  0
 51 52  1  0  0  0
 51121  1  0  0  0
 51122  1  0  0  0
 52123  1  0  0  0
 52124  1  0  0  0
 53 54  1  0  0  0
 54 55  2  0  0  0
 54125  1  0  0  0
 55 57  1  0  0  0
 55126  1  0  0  0
 56 69  2  0  0  0
 57 58  2  0  0  0
 57127  1  0  0  0
 58128  1  0  0  0
 59 60  1  0  0  0
 59 61  1  0  0  0
 59 62  1  0  0  0
 60129  1  0  0  0
 60130  1  0  0  0
 60131  1  0  0  0
 61132  1  0  0  0
 61133  1  0  0  0
 61134  1  0  0  0
 62135  1  0  0  0
 62136  1  0  0  0
 62137  1  0  0  0
 63 65  1  0  0  0
 63138  1  0  0  0
 63139  1  0  0  0
 63140  1  0  0  0
 64141  1  0  0  0
 65142  1  0  0  0
 68 80  1  0  0  0
 71 72  2  0  0  0
 71 75  1  0  0  0
 71143  1  0  0  0
 72 76  1  0  0  0
 72144  1  0  0  0
 73 74  1  0  0  0
 73 75  2  0  0  0
 73 77  1  0  0  0
 74 76  2  0  0  0
 74 78  1  0  0  0
 75 81  1  0  0  0
 76 83  1  0  0  0
 77145  1  0  0  0
 77146  1  0  0  0
 77147  1  0  0  0
 78 82  1  0  0  0
 78148  1  0  0  0
 78149  1  0  0  0
 79 80  1  0  0  0
 79 81  1  0  0  0
 79150  1  0  0  0
 79151  1  0  0  0
 80152  1  0  0  0
 80153  1  0  0  0
 81154  1  0  0  0
 82155  1  0  0  0
M  ISO  4   1 100  68 101  80 101  82 100
M  END
> <chiral flag>
0

> <version>
0

> <s_m_source_file>
/data/baiqing/PycharmProjects/Reinvent-master-3.2/result/LINK_invent/BTK/process_docking_weight1_custom_product_contain_oxygen_bond_distance_aromatic_linkinvent_7_9_3/rearranged_h_0034.sdf

> <i_m_source_file_index>
2

> <r_mmod_Potential_Energy-OPLS-2005>
107.661956787109

> <r_mmod_Stretch_Energy-OPLS-2005>
126.69140625

> <r_mmod_Bend_Energy-OPLS-2005>
186.917541503906

> <r_mmod_Torsional_Energy-OPLS-2005>
222.290786743164

> <r_mmod_Improper_Torsional_Energy-OPLS-2005>
6.63241910934448

> <r_mmod_Van_der_Waal_Energy-OPLS-2005>
134.812759399414

> <r_mmod_Electrostatic_Energy-OPLS-2005>
-436.349243164062

> <r_mmod_Solvation_Energy-OPLS-2005>
-209.248153686523

> <b_mmod_Minimization_Converged-OPLS-2005>
0

> <r_mmod_RMS_Derivative-OPLS-2005>
4.10856103897095

$$$$
2
                    3D
 Structure written by MMmdl.
169178  0  0  1  0            999 V2000
  -30.6078  -14.6940   20.5301 C   0  0  0  0  0  0
  -30.4914  -12.4435   19.4919 C   0  0  0  0  0  0
  -29.5591  -12.5165   18.2671 C   0  0  0  0  0  0
  -28.0844  -12.3179   18.6749 C   0  0  0  0  0  0
  -27.6712  -13.2155   19.8760 C   0  0  2  0  0  0
  -28.7087  -13.1116   21.0203 C   0  0  0  0  0  0
  -25.2565  -13.8312   20.5750 C   0  0  0  0  0  0
  -24.1793  -13.0550   20.9182 C   0  0  0  0  0  0
  -24.6327  -11.6986   20.8696 C   0  0  0  0  0  0
  -23.9029  -10.4347   21.0421 C   0  0  0  0  0  0
  -24.3630   -9.4242   21.9172 C   0  0  0  0  0  0
  -23.6307   -8.2273   22.0749 C   0  0  0  0  0  0
  -22.4262   -8.0309   21.3601 C   0  0  0  0  0  0
  -21.9898   -9.0238   20.4674 C   0  0  0  0  0  0
  -22.7206  -10.2142   20.3083 C   0  0  0  0  0  0
  -21.6841   -6.0684   22.5294 C   0  0  0  0  0  0
  -21.3987   -6.5573   23.8238 C   0  0  0  0  0  0
  -21.3692   -5.6768   24.9193 C   0  0  0  0  0  0
  -21.6065   -4.3015   24.7271 C   0  0  0  0  0  0
  -21.8827   -3.8088   23.4368 C   0  0  0  0  0  0
  -21.9194   -4.6903   22.3430 C   0  0  0  0  0  0
  -22.7785  -13.5356   21.1784 C   0  0  0  0  0  0
  -22.1634   -4.2103   21.0985 F   0  0  0  0  0  0
  -21.5695   -3.4500   25.7758 F   0  0  0  0  0  0
  -30.0300  -13.4556   20.4642 N   0  0  0  0  0  0
  -26.3032  -12.9452   20.3339 N   0  0  0  0  0  0
  -25.9272  -11.6614   20.5754 N   0  0  0  0  0  0
  -22.0337  -12.8467   22.0412 N   0  0  0  0  0  0
  -25.4231  -15.2079   20.4397 N   0  0  0  0  0  0
  -31.7722  -14.8807   20.1598 O   0  0  0  0  0  0
  -21.6671   -6.8838   21.4258 O   0  0  0  0  0  0
  -22.3447  -14.5564   20.6459 O   0  0  0  0  0  0
  -24.6152  -31.8561   23.1947 C   0  0  0  0  0  0
  -25.9035  -32.4753   23.8236 C   0  0  1  0  0  0
  -27.2090  -27.3464   20.1030 C   0  0  0  0  0  0
  -25.5829  -33.8549   24.2153 N   0  0  0  0  0  0
  -23.4051  -30.4773   21.5385 C   0  0  2  0  0  0
  -24.8452  -28.9291   20.1021 C   0  0  0  0  0  0
  -22.7467  -29.4529   22.4894 C   0  0  0  0  0  0
  -18.0270  -28.1417   22.8477 C   0  0  0  0  0  0
  -24.1505  -36.7350   23.2632 C   0  0  0  0  0  0
  -25.9380  -30.8022   21.3461 C   0  0  0  0  0  0
  -26.0079  -29.4270   20.6970 C   0  0  0  0  0  0
  -27.1929  -28.6441   20.6871 C   0  0  0  0  0  0
  -26.0270  -26.8763   19.4949 C   0  0  0  0  0  0
  -24.8511  -27.6600   19.4923 C   0  0  0  0  0  0
  -23.6171  -29.8175   20.1502 C   0  0  0  0  0  0
  -25.4115  -36.3041   24.0290 C   0  0  1  0  0  0
  -20.5869  -28.3632   23.1359 C   0  0  2  0  0  0
  -20.6725  -26.9333   22.5493 C   0  0  0  0  0  0
  -19.5719  -26.6369   21.5259 C   0  0  0  0  0  0
  -18.1891  -26.7980   22.1599 C   0  0  0  0  0  0
  -19.1529  -28.8843   23.2922 C   0  0  0  0  0  0
  -18.9442  -30.1456   23.8924 C   0  0  0  0  0  0
  -17.6435  -30.6588   24.0571 C   0  0  0  0  0  0
  -25.9041  -34.9423   23.5031 C   0  0  0  0  0  0
  -16.5320  -29.9112   23.6317 C   0  0  0  0  0  0
  -16.7259  -28.6553   23.0301 C   0  0  0  0  0  0
  -26.4414  -31.6546   25.0595 C   0  0  0  0  0  0
  -25.3703  -31.3777   26.1403 C   0  0  0  0  0  0
  -27.0145  -30.2926   24.5995 C   0  0  0  0  0  0
  -27.5935  -32.4305   25.7385 C   0  0  0  0  0  0
  -27.5594  -37.1813   24.8441 C   0  0  0  0  0  0
  -21.4178  -29.2967   22.3750 N   0  0  0  0  0  0
  -26.4296  -37.3734   23.9378 N   0  0  0  0  0  0
  -24.6721  -31.0642   22.0869 N   0  0  0  0  0  0
  -23.4250  -28.8060   23.2927 O   0  0  0  0  0  0
  -28.3703  -26.5936   20.2062 O   0  0  0  0  0  0
  -26.5681  -34.8913   22.4651 O   0  0  0  0  0  0
  -23.5349  -32.1306   23.7365 O   0  0  0  0  0  0
  -29.7475  -19.4279   21.7953 C   0  0  0  0  0  0
  -30.0746  -18.0338   21.8054 C   0  0  0  0  0  0
  -28.8813  -19.1854   19.5737 C   0  0  0  0  0  0
  -29.0623  -20.0264   20.7005 C   0  0  0  0  0  0
  -29.2452  -17.8019   19.5536 C   0  0  0  0  0  0
  -29.7878  -17.1724   20.7082 C   0  0  0  0  0  0
  -31.1105  -24.2787   19.2908 C   0  0  0  0  0  0
  -30.1933  -25.4059   19.8002 C   0  0  0  0  0  0
  -30.4867  -23.4169   18.1871 C   0  0  0  0  0  0
  -28.1390  -23.9588   20.3083 C   0  0  0  0  0  0
  -28.6649  -25.2878   19.6101 C   0  0  1  0  0  0
  -29.3931  -22.4267   18.6736 C   0  0  2  0  0  0
  -29.0004  -17.0297   18.2626 C   0  0  0  0  0  0
  -28.2218  -22.2617   17.6719 C   0  0  0  0  0  0
  -28.3736  -21.4522   20.7884 C   0  0  0  0  0  0
  -29.7586  -15.7185   20.8806 N   0  0  0  0  0  0
  -28.9456  -22.6762   20.0824 N   0  3  2  0  0  0
  -31.5153  -12.6399   19.1770 H   0  0  0  0  0  0
  -30.5208  -11.4474   19.9345 H   0  0  0  0  0  0
  -29.8718  -11.7568   17.5528 H   0  0  0  0  0  0
  -29.6853  -13.4822   17.7725 H   0  0  0  0  0  0
  -27.9667  -11.2679   18.9522 H   0  0  0  0  0  0
  -27.4382  -12.4972   17.8159 H   0  0  0  0  0  0
  -27.6907  -14.2448   19.5227 H   0  0  0  0  0  0
  -28.7342  -12.1164   21.4644 H   0  0  0  0  0  0
  -28.4305  -13.7858   21.8345 H   0  0  0  0  0  0
  -25.2804   -9.5693   22.4696 H   0  0  0  0  0  0
  -24.0080   -7.4670   22.7392 H   0  0  0  0  0  0
  -21.0896   -8.8682   19.8916 H   0  0  0  0  0  0
  -22.3678  -10.9651   19.6171 H   0  0  0  0  0  0
  -21.1880   -7.6062   23.9763 H   0  0  0  0  0  0
  -21.1547   -6.0422   25.9126 H   0  0  0  0  0  0
  -22.0569   -2.7541   23.2894 H   0  0  0  0  0  0
  -22.3805  -12.0261   22.5135 H   0  0  0  0  0  0
  -21.0866  -13.1422   22.2279 H   0  0  0  0  0  0
  -24.6752  -15.8584   20.6596 H   0  0  0  0  0  0
  -26.2836  -15.6812   20.1947 H   0  0  0  0  0  0
  -26.7102  -32.5403   23.0980 H   0  0  0  0  0  0
  -24.9744  -33.9645   25.0132 H   0  0  0  0  0  0
  -22.6877  -31.2896   21.4049 H   0  0  0  0  0  0
  -23.3705  -35.9741   23.3234 H   0  0  0  0  0  0
  -24.3623  -36.9077   22.2064 H   0  0  0  0  0  0
  -23.7370  -37.6567   23.6748 H   0  0  0  0  0  0
  -26.0413  -31.5547   20.5617 H   0  0  0  0  0  0
  -26.8330  -30.8694   21.9544 H   0  0  0  0  0  0
  -28.0930  -29.0261   21.1472 H   0  0  0  0  0  0
  -25.9858  -25.8899   19.0591 H   0  0  0  0  0  0
  -23.9517  -27.2651   19.0370 H   0  0  0  0  0  0
  -23.7525  -30.6003   19.4023 H   0  0  0  0  0  0
  -22.7325  -29.2599   19.8413 H   0  0  0  0  0  0
  -25.1332  -36.1818   25.0789 H   0  0  0  0  0  0
  -20.9959  -28.3200   24.1470 H   0  0  0  0  0  0
  -20.5570  -26.2211   23.3677 H   0  0  0  0  0  0
  -21.6598  -26.7313   22.1292 H   0  0  0  0  0  0
  -19.6806  -25.6285   21.1270 H   0  0  0  0  0  0
  -19.6754  -27.3208   20.6826 H   0  0  0  0  0  0
  -17.4198  -26.6829   21.3952 H   0  0  0  0  0  0
  -18.0139  -26.0132   22.8971 H   0  0  0  0  0  0
  -19.7913  -30.7295   24.2291 H   0  0  0  0  0  0
  -17.4974  -31.6265   24.5167 H   0  0  0  0  0  0
  -15.5324  -30.3008   23.7608 H   0  0  0  0  0  0
  -15.8668  -28.0906   22.6919 H   0  0  0  0  0  0
  -24.5825  -30.7130   25.7852 H   0  0  0  0  0  0
  -24.8964  -32.3007   26.4754 H   0  0  0  0  0  0
  -25.8076  -30.9052   27.0215 H   0  0  0  0  0  0
  -26.2621  -29.6775   24.1053 H   0  0  0  0  0  0
  -27.3839  -29.7076   25.4427 H   0  0  0  0  0  0
  -27.8504  -30.4115   23.9106 H   0  0  0  0  0  0
  -27.2382  -33.3450   26.2147 H   0  0  0  0  0  0
  -28.3636  -32.7180   25.0217 H   0  0  0  0  0  0
  -28.0747  -31.8401   26.5192 H   0  0  0  0  0  0
  -28.2583  -38.0119   24.7394 H   0  0  0  0  0  0
  -28.1120  -36.2655   24.6326 H   0  0  0  0  0  0
  -27.2352  -37.1537   25.8858 H   0  0  0  0  0  0
  -20.9277  -29.8776   21.7094 H   0  0  0  0  0  0
  -26.0149  -38.2784   24.1434 H   0  0  0  0  0  0
  -29.9835  -20.0096   22.6768 H   0  0  0  0  0  0
  -30.5068  -17.6139   22.7004 H   0  0  0  0  0  0
  -28.3874  -19.6030   18.7092 H   0  0  0  0  0  0
  -31.4341  -23.6404   20.1154 H   0  0  0  0  0  0
  -32.0244  -24.7426   18.9173 H   0  0  0  0  0  0
  -30.5165  -26.3481   19.3466 H   0  0  0  0  0  0
  -30.3758  -25.5153   20.8697 H   0  0  0  0  0  0
  -31.2920  -22.8445   17.7178 H   0  0  0  0  0  0
  -30.1147  -24.0722   17.4016 H   0  0  0  0  0  0
  -27.0981  -23.7869   20.0253 H   0  0  0  0  0  0
  -28.1142  -24.1443   21.3814 H   0  0  0  0  0  0
  -28.3903  -25.2912   18.5502 H   0  0  0  0  0  0
  -29.9055  -21.4643   18.7009 H   0  0  0  0  0  0
  -29.4571  -16.0374   18.2558 H   0  0  0  0  0  0
  -29.4433  -17.5805   17.4378 H   0  0  0  0  0  0
  -27.9369  -16.9333   18.0426 H   0  0  0  0  0  0
  -27.7513  -23.2018   17.3887 H   0  0  0  0  0  0
  -27.4355  -21.6253   18.0750 H   0  0  0  0  0  0
  -28.5594  -21.7952   16.7443 H   0  0  0  0  0  0
  -28.2155  -21.7074   21.8377 H   0  0  0  0  0  0
  -27.3561  -21.3189   20.4246 H   0  0  0  0  0  0
  -28.8402  -15.3722   21.1151 H   0  0  0  0  0  0
  -29.8138  -22.8497   20.5731 H   0  0  0  0  0  0
  1 25  1  0  0  0
  1 30  2  0  0  0
  1 86  1  0  0  0
  2  3  1  0  0  0
  2 25  1  0  0  0
  2 88  1  0  0  0
  2 89  1  0  0  0
  3  4  1  0  0  0
  3 90  1  0  0  0
  3 91  1  0  0  0
  4  5  1  0  0  0
  4 92  1  0  0  0
  4 93  1  0  0  0
  5  6  1  0  0  0
  5 26  1  0  0  0
  5 94  1  0  0  0
  6 25  1  0  0  0
  6 95  1  0  0  0
  6 96  1  0  0  0
  7  8  2  0  0  0
  7 26  1  0  0  0
  7 29  1  0  0  0
  8  9  1  0  0  0
  8 22  1  0  0  0
  9 10  1  0  0  0
  9 27  2  0  0  0
 10 11  2  0  0  0
 10 15  1  0  0  0
 11 12  1  0  0  0
 11 97  1  0  0  0
 12 13  2  0  0  0
 12 98  1  0  0  0
 13 14  1  0  0  0
 13 31  1  0  0  0
 14 15  2  0  0  0
 14 99  1  0  0  0
 15100  1  0  0  0
 16 17  2  0  0  0
 16 21  1  0  0  0
 16 31  1  0  0  0
 17 18  1  0  0  0
 17101  1  0  0  0
 18 19  2  0  0  0
 18102  1  0  0  0
 19 20  1  0  0  0
 19 24  1  0  0  0
 20 21  2  0  0  0
 20103  1  0  0  0
 21 23  1  0  0  0
 22 28  1  0  0  0
 22 32  2  0  0  0
 26 27  1  0  0  0
 28104  1  0  0  0
 28105  1  0  0  0
 29106  1  0  0  0
 29107  1  0  0  0
 33 34  1  0  0  0
 33 66  1  0  0  0
 33 70  2  0  0  0
 34 36  1  0  0  0
 34 59  1  0  0  0
 34108  1  0  0  0
 35 44  2  0  0  0
 35 45  1  0  0  0
 35 68  1  0  0  0
 36 56  1  0  0  0
 36109  1  0  0  0
 37 39  1  0  0  0
 37 47  1  0  0  0
 37 66  1  0  0  0
 37110  1  0  0  0
 38 43  2  0  0  0
 38 46  1  0  0  0
 38 47  1  0  0  0
 39 64  1  0  0  0
 39 67  2  0  0  0
 40 52  1  0  0  0
 40 53  2  0  0  0
 40 58  1  0  0  0
 41111  1  0  0  0
 41112  1  0  0  0
 41113  1  0  0  0
 41 48  1  0  0  0
 42 43  1  0  0  0
 42 66  1  0  0  0
 42114  1  0  0  0
 42115  1  0  0  0
 43 44  1  0  0  0
 44116  1  0  0  0
 45 46  2  0  0  0
 45117  1  0  0  0
 46118  1  0  0  0
 47119  1  0  0  0
 47120  1  0  0  0
 48 56  1  0  0  0
 48 65  1  0  0  0
 48121  1  0  0  0
 49 50  1  0  0  0
 49 53  1  0  0  0
 49 64  1  0  0  0
 49122  1  0  0  0
 50 51  1  0  0  0
 50123  1  0  0  0
 50124  1  0  0  0
 51 52  1  0  0  0
 51125  1  0  0  0
 51126  1  0  0  0
 52127  1  0  0  0
 52128  1  0  0  0
 53 54  1  0  0  0
 54 55  2  0  0  0
 54129  1  0  0  0
 55 57  1  0  0  0
 55130  1  0  0  0
 56 69  2  0  0  0
 57 58  2  0  0  0
 57131  1  0  0  0
 58132  1  0  0  0
 59 60  1  0  0  0
 59 61  1  0  0  0
 59 62  1  0  0  0
 60133  1  0  0  0
 60134  1  0  0  0
 60135  1  0  0  0
 61136  1  0  0  0
 61137  1  0  0  0
 61138  1  0  0  0
 62139  1  0  0  0
 62140  1  0  0  0
 62141  1  0  0  0
 63 65  1  0  0  0
 63142  1  0  0  0
 63143  1  0  0  0
 63144  1  0  0  0
 64145  1  0  0  0
 65146  1  0  0  0
 68 81  1  0  0  0
 71 72  2  0  0  0
 71 74  1  0  0  0
 71147  1  0  0  0
 72 76  1  0  0  0
 72148  1  0  0  0
 73 74  2  0  0  0
 73 75  1  0  0  0
 73149  1  0  0  0
 74 85  1  0  0  0
 75 76  2  0  0  0
 75 83  1  0  0  0
 76 86  1  0  0  0
 77 78  1  0  0  0
 77 79  1  0  0  0
 77150  1  0  0  0
 77151  1  0  0  0
 78 81  1  0  0  0
 78152  1  0  0  0
 78153  1  0  0  0
 79 82  1  0  0  0
 79154  1  0  0  0
 79155  1  0  0  0
 80 81  1  0  0  0
 80 87  1  0  0  0
 80156  1  0  0  0
 80157  1  0  0  0
 81158  1  0  0  0
 82 84  1  0  0  0
 82 87  1  0  0  0
 82159  1  0  0  0
 83160  1  0  0  0
 83161  1  0  0  0
 83162  1  0  0  0
 84163  1  0  0  0
 84164  1  0  0  0
 84165  1  0  0  0
 85166  1  0  0  0
 85167  1  0  0  0
 85 87  1  0  0  0
 86168  1  0  0  0
 87169  1  0  0  0
M  CHG  1  87   1
M  ISO  4   1 100  68 101  81 101  86 100
M  END
> <chiral flag>
0

> <version>
0

> <s_m_source_file>
/data/baiqing/PycharmProjects/Reinvent-master-3.2/result/LINK_invent/BTK/process_docking_weight1_custom_product_contain_oxygen_bond_distance_aromatic_linkinvent_7_9_3/rearranged_h_0034.sdf

> <i_m_source_file_index>
3

> <r_mmod_Potential_Energy-OPLS-2005>
103.248695373535

> <r_mmod_Stretch_Energy-OPLS-2005>
81.6345977783203

> <r_mmod_Bend_Energy-OPLS-2005>
197.499954223633

> <r_mmod_Torsional_Energy-OPLS-2005>
308.298553466797

> <r_mmod_Improper_Torsional_Energy-OPLS-2005>
7.17336130142212

> <r_mmod_Van_der_Waal_Energy-OPLS-2005>
137.913146972656

> <r_mmod_Electrostatic_Energy-OPLS-2005>
-270.383514404297

> <r_mmod_Solvation_Energy-OPLS-2005>
-417.088195800781

> <b_mmod_Minimization_Converged-OPLS-2005>
0

> <r_mmod_RMS_Derivative-OPLS-2005>
10.4034948348999

$$$$
3
                    3D
 Structure written by MMmdl.
161170  0  0  1  0            999 V2000
  -30.5748  -14.6797   20.4146 C   0  0  0  0  0  0
  -30.4398  -12.4018   19.4306 C   0  0  0  0  0  0
  -29.5060  -12.5213   18.2053 C   0  0  0  0  0  0
  -28.0235  -12.3730   18.6089 C   0  0  0  0  0  0
  -27.6472  -13.2209   19.8558 C   0  0  2  0  0  0
  -28.7044  -13.0817   20.9741 C   0  0  0  0  0  0
  -25.2549  -13.8168   20.5733 C   0  0  0  0  0  0
  -24.1831  -13.0407   20.9178 C   0  0  0  0  0  0
  -24.6441  -11.6892   20.8727 C   0  0  0  0  0  0
  -23.9115  -10.4277   21.0399 C   0  0  0  0  0  0
  -24.3668   -9.4208   21.9187 C   0  0  0  0  0  0
  -23.6315   -8.2260   22.0768 C   0  0  0  0  0  0
  -22.4293   -8.0295   21.3554 C   0  0  0  0  0  0
  -21.9936   -9.0267   20.4661 C   0  0  0  0  0  0
  -22.7279  -10.2124   20.3050 C   0  0  0  0  0  0
  -21.6877   -6.0749   22.5268 C   0  0  0  0  0  0
  -21.4044   -6.5656   23.8207 C   0  0  0  0  0  0
  -21.3648   -5.6800   24.9153 C   0  0  0  0  0  0
  -21.6051   -4.3058   24.7208 C   0  0  0  0  0  0
  -21.8829   -3.8162   23.4335 C   0  0  0  0  0  0
  -21.9207   -4.6988   22.3388 C   0  0  0  0  0  0
  -22.7844  -13.5195   21.1838 C   0  0  0  0  0  0
  -22.1663   -4.2178   21.0972 F   0  0  0  0  0  0
  -21.5600   -3.4537   25.7722 F   0  0  0  0  0  0
  -30.0113  -13.4307   20.3961 N   0  0  0  0  0  0
  -26.2978  -12.9337   20.3314 N   0  0  0  0  0  0
  -25.9350  -11.6475   20.5722 N   0  0  0  0  0  0
  -22.0491  -12.8172   22.0387 N   0  0  0  0  0  0
  -25.4213  -15.1921   20.4288 N   0  0  0  0  0  0
  -31.7680  -14.8566   20.1459 O   0  0  0  0  0  0
  -21.6646   -6.8895   21.4248 O   0  0  0  0  0  0
  -22.3519  -14.5507   20.6686 O   0  0  0  0  0  0
  -24.6244  -31.8549   23.1968 C   0  0  0  0  0  0
  -25.9082  -32.4751   23.8324 C   0  0  1  0  0  0
  -27.2495  -27.3085   20.1389 C   0  0  0  0  0  0
  -25.5885  -33.8552   24.2263 N   0  0  0  0  0  0
  -23.4203  -30.4704   21.5378 C   0  0  2  0  0  0
  -24.8727  -28.9079   20.1096 C   0  0  0  0  0  0
  -22.7454  -29.4610   22.4951 C   0  0  0  0  0  0
  -18.0264  -28.1390   22.8490 C   0  0  0  0  0  0
  -24.1483  -36.7302   23.2645 C   0  0  0  0  0  0
  -25.9541  -30.7838   21.3648 C   0  0  0  0  0  0
  -26.0300  -29.4050   20.7173 C   0  0  0  0  0  0
  -27.2116  -28.6127   20.7265 C   0  0  0  0  0  0
  -26.0751  -26.8543   19.5041 C   0  0  0  0  0  0
  -24.8967  -27.6396   19.4942 C   0  0  0  0  0  0
  -23.6353  -29.7861   20.1579 C   0  0  0  0  0  0
  -25.4099  -36.3075   24.0334 C   0  0  1  0  0  0
  -20.5875  -28.3682   23.1306 C   0  0  2  0  0  0
  -20.6767  -26.9411   22.5422 C   0  0  0  0  0  0
  -19.5748  -26.6386   21.5229 C   0  0  0  0  0  0
  -18.1915  -26.7930   22.1630 C   0  0  0  0  0  0
  -19.1528  -28.8849   23.2891 C   0  0  0  0  0  0
  -18.9453  -30.1453   23.8899 C   0  0  0  0  0  0
  -17.6454  -30.6588   24.0566 C   0  0  0  0  0  0
  -25.9033  -34.9435   23.5112 C   0  0  0  0  0  0
  -16.5339  -29.9088   23.6330 C   0  0  0  0  0  0
  -16.7256  -28.6512   23.0345 C   0  0  0  0  0  0
  -26.4457  -31.6562   25.0703 C   0  0  0  0  0  0
  -25.3697  -31.3686   26.1433 C   0  0  0  0  0  0
  -27.0310  -30.2992   24.6160 C   0  0  0  0  0  0
  -27.6006  -32.4290   25.7486 C   0  0  0  0  0  0
  -27.5580  -37.1804   24.8451 C   0  0  0  0  0  0
  -21.4171  -29.3026   22.3691 N   0  0  0  0  0  0
  -26.4272  -37.3776   23.9420 N   0  0  0  0  0  0
  -24.6853  -31.0553   22.0910 N   0  0  0  0  0  0
  -23.4166  -28.8174   23.3064 O   0  0  0  0  0  0
  -28.4184  -26.5419   20.2554 O   0  0  0  0  0  0
  -26.5643  -34.8911   22.4713 O   0  0  0  0  0  0
  -23.5400  -32.1361   23.7289 O   0  0  0  0  0  0
  -30.2012  -19.5136   20.8567 C   0  0  0  0  0  0
  -30.3776  -18.0977   21.0170 C   0  0  0  0  0  0
  -28.6556  -19.1027   19.0792 C   0  0  0  0  0  0
  -29.3181  -20.0704   19.8829 C   0  0  0  0  0  0
  -28.8373  -17.6937   19.2117 C   0  0  0  0  0  0
  -29.6941  -17.1425   20.2114 C   0  0  0  0  0  0
  -30.4004  -23.5186   20.6204 C   0  0  0  0  0  0
  -31.5328  -23.0515   21.1778 C   0  0  0  0  0  0
  -30.1747  -24.9322   20.0884 C   0  0  0  0  0  0
  -28.0593  -23.8460   20.3773 C   0  0  0  0  0  0
  -28.6838  -25.1634   19.7685 C   0  0  1  0  0  0
  -28.0948  -16.8053   18.2221 C   0  0  0  0  0  0
  -29.1361  -21.6140   19.5170 C   0  0  0  0  0  0
  -29.6663  -15.7066   20.5098 N   0  0  0  0  0  0
  -29.1172  -22.7573   20.5305 N   0  3  1  0  0  0
  -31.4778  -12.5384   19.1242 H   0  0  0  0  0  0
  -30.3758  -11.4050   19.8712 H   0  0  0  0  0  0
  -29.7605  -11.7765   17.4508 H   0  0  0  0  0  0
  -29.6602  -13.4921   17.7317 H   0  0  0  0  0  0
  -27.8267  -11.3155   18.7893 H   0  0  0  0  0  0
  -27.3904  -12.6577   17.7690 H   0  0  0  0  0  0
  -27.6436  -14.2548   19.5191 H   0  0  0  0  0  0
  -28.7219  -12.0608   21.3570 H   0  0  0  0  0  0
  -28.4621  -13.7202   21.8254 H   0  0  0  0  0  0
  -25.2832   -9.5677   22.4742 H   0  0  0  0  0  0
  -24.0016   -7.4673   22.7515 H   0  0  0  0  0  0
  -21.0852   -8.8802   19.8980 H   0  0  0  0  0  0
  -22.3763  -10.9659   19.6159 H   0  0  0  0  0  0
  -21.2043   -7.6172   23.9714 H   0  0  0  0  0  0
  -21.1449   -6.0527   25.9054 H   0  0  0  0  0  0
  -22.0619   -2.7633   23.2827 H   0  0  0  0  0  0
  -22.4090  -11.9827   22.4787 H   0  0  0  0  0  0
  -21.1139  -13.1228   22.2618 H   0  0  0  0  0  0
  -24.6549  -15.8407   20.5776 H   0  0  0  0  0  0
  -26.2830  -15.6575   20.1837 H   0  0  0  0  0  0
  -26.7158  -32.5422   23.1076 H   0  0  0  0  0  0
  -24.9939  -33.9695   25.0340 H   0  0  0  0  0  0
  -22.7134  -31.2884   21.3855 H   0  0  0  0  0  0
  -23.3749  -35.9633   23.3265 H   0  0  0  0  0  0
  -24.3579  -36.8962   22.2068 H   0  0  0  0  0  0
  -23.7217  -37.6482   23.6693 H   0  0  0  0  0  0
  -26.0739  -31.5367   20.5862 H   0  0  0  0  0  0
  -26.8375  -30.8490   21.9872 H   0  0  0  0  0  0
  -28.0966  -28.9851   21.2237 H   0  0  0  0  0  0
  -26.0509  -25.8784   19.0418 H   0  0  0  0  0  0
  -24.0050  -27.2520   19.0227 H   0  0  0  0  0  0
  -23.7437  -30.5518   19.3891 H   0  0  0  0  0  0
  -22.7589  -29.2029   19.8691 H   0  0  0  0  0  0
  -25.1283  -36.1935   25.0825 H   0  0  0  0  0  0
  -20.9949  -28.3267   24.1444 H   0  0  0  0  0  0
  -20.5676  -26.2303   23.3633 H   0  0  0  0  0  0
  -21.6644  -26.7446   22.1227 H   0  0  0  0  0  0
  -19.6907  -25.6295   21.1263 H   0  0  0  0  0  0
  -19.6690  -27.3212   20.6771 H   0  0  0  0  0  0
  -17.4198  -26.6684   21.4020 H   0  0  0  0  0  0
  -18.0293  -26.0062   22.9019 H   0  0  0  0  0  0
  -19.7919  -30.7276   24.2280 H   0  0  0  0  0  0
  -17.4993  -31.6274   24.5166 H   0  0  0  0  0  0
  -15.5341  -30.2995   23.7635 H   0  0  0  0  0  0
  -15.8663  -28.0828   22.7061 H   0  0  0  0  0  0
  -24.5852  -30.7073   25.7745 H   0  0  0  0  0  0
  -24.8917  -32.2849   26.4901 H   0  0  0  0  0  0
  -25.8014  -30.8813   27.0184 H   0  0  0  0  0  0
  -26.2909  -29.6745   24.1159 H   0  0  0  0  0  0
  -27.3975  -29.7239   25.4665 H   0  0  0  0  0  0
  -27.8767  -30.4276   23.9411 H   0  0  0  0  0  0
  -27.2599  -33.3548   26.2129 H   0  0  0  0  0  0
  -28.3788  -32.6918   25.0319 H   0  0  0  0  0  0
  -28.0715  -31.8387   26.5349 H   0  0  0  0  0  0
  -28.2563  -38.0136   24.7539 H   0  0  0  0  0  0
  -28.1109  -36.2669   24.6213 H   0  0  0  0  0  0
  -27.2313  -37.1371   25.8854 H   0  0  0  0  0  0
  -20.9352  -29.8717   21.6869 H   0  0  0  0  0  0
  -26.0155  -38.2849   24.1437 H   0  0  0  0  0  0
  -30.7720  -20.1555   21.5084 H   0  0  0  0  0  0
  -31.0293  -17.7448   21.8036 H   0  0  0  0  0  0
  -27.9968  -19.4556   18.2974 H   0  0  0  0  0  0
  -32.4122  -23.6754   21.2522 H   0  0  0  0  0  0
  -31.6154  -22.0612   21.5897 H   0  0  0  0  0  0
  -30.8015  -25.1209   19.2183 H   0  0  0  0  0  0
  -30.5104  -25.6159   20.8699 H   0  0  0  0  0  0
  -27.1852  -23.5103   19.8191 H   0  0  0  0  0  0
  -27.7001  -24.0740   21.3818 H   0  0  0  0  0  0
  -28.5519  -25.1456   18.6860 H   0  0  0  0  0  0
  -28.0324  -17.2963   17.2493 H   0  0  0  0  0  0
  -27.0730  -16.6107   18.5492 H   0  0  0  0  0  0
  -28.6039  -15.8567   18.0568 H   0  0  0  0  0  0
  -28.2054  -21.6838   18.9575 H   0  0  0  0  0  0
  -29.9018  -21.8443   18.7752 H   0  0  0  0  0  0
  -28.7342  -15.3365   20.6057 H   0  0  0  0  0  0
  -28.9230  -22.3131   21.4157 H   0  0  0  0  0  0
  1 25  1  0  0  0
  1 30  2  0  0  0
  1 84  1  0  0  0
  2  3  1  0  0  0
  2 25  1  0  0  0
  2 86  1  0  0  0
  2 87  1  0  0  0
  3  4  1  0  0  0
  3 88  1  0  0  0
  3 89  1  0  0  0
  4  5  1  0  0  0
  4 90  1  0  0  0
  4 91  1  0  0  0
  5  6  1  0  0  0
  5 26  1  0  0  0
  5 92  1  0  0  0
  6 25  1  0  0  0
  6 93  1  0  0  0
  6 94  1  0  0  0
  7  8  2  0  0  0
  7 26  1  0  0  0
  7 29  1  0  0  0
  8  9  1  0  0  0
  8 22  1  0  0  0
  9 10  1  0  0  0
  9 27  2  0  0  0
 10 11  2  0  0  0
 10 15  1  0  0  0
 11 12  1  0  0  0
 11 95  1  0  0  0
 12 13  2  0  0  0
 12 96  1  0  0  0
 13 14  1  0  0  0
 13 31  1  0  0  0
 14 15  2  0  0  0
 14 97  1  0  0  0
 15 98  1  0  0  0
 16 17  2  0  0  0
 16 21  1  0  0  0
 16 31  1  0  0  0
 17 18  1  0  0  0
 17 99  1  0  0  0
 18 19  2  0  0  0
 18100  1  0  0  0
 19 20  1  0  0  0
 19 24  1  0  0  0
 20 21  2  0  0  0
 20101  1  0  0  0
 21 23  1  0  0  0
 22 28  1  0  0  0
 22 32  2  0  0  0
 26 27  1  0  0  0
 28102  1  0  0  0
 28103  1  0  0  0
 29104  1  0  0  0
 29105  1  0  0  0
 33 34  1  0  0  0
 33 66  1  0  0  0
 33 70  2  0  0  0
 34 36  1  0  0  0
 34 59  1  0  0  0
 34106  1  0  0  0
 35 44  2  0  0  0
 35 45  1  0  0  0
 35 68  1  0  0  0
 36 56  1  0  0  0
 36107  1  0  0  0
 37 39  1  0  0  0
 37 47  1  0  0  0
 37 66  1  0  0  0
 37108  1  0  0  0
 38 43  2  0  0  0
 38 46  1  0  0  0
 38 47  1  0  0  0
 39 64  1  0  0  0
 39 67  2  0  0  0
 40 52  1  0  0  0
 40 53  2  0  0  0
 40 58  1  0  0  0
 41109  1  0  0  0
 41110  1  0  0  0
 41111  1  0  0  0
 41 48  1  0  0  0
 42 43  1  0  0  0
 42 66  1  0  0  0
 42112  1  0  0  0
 42113  1  0  0  0
 43 44  1  0  0  0
 44114  1  0  0  0
 45 46  2  0  0  0
 45115  1  0  0  0
 46116  1  0  0  0
 47117  1  0  0  0
 47118  1  0  0  0
 48 56  1  0  0  0
 48 65  1  0  0  0
 48119  1  0  0  0
 49 50  1  0  0  0
 49 53  1  0  0  0
 49 64  1  0  0  0
 49120  1  0  0  0
 50 51  1  0  0  0
 50121  1  0  0  0
 50122  1  0  0  0
 51 52  1  0  0  0
 51123  1  0  0  0
 51124  1  0  0  0
 52125  1  0  0  0
 52126  1  0  0  0
 53 54  1  0  0  0
 54 55  2  0  0  0
 54127  1  0  0  0
 55 57  1  0  0  0
 55128  1  0  0  0
 56 69  2  0  0  0
 57 58  2  0  0  0
 57129  1  0  0  0
 58130  1  0  0  0
 59 60  1  0  0  0
 59 61  1  0  0  0
 59 62  1  0  0  0
 60131  1  0  0  0
 60132  1  0  0  0
 60133  1  0  0  0
 61134  1  0  0  0
 61135  1  0  0  0
 61136  1  0  0  0
 62137  1  0  0  0
 62138  1  0  0  0
 62139  1  0  0  0
 63 65  1  0  0  0
 63140  1  0  0  0
 63141  1  0  0  0
 63142  1  0  0  0
 64143  1  0  0  0
 65144  1  0  0  0
 68 81  1  0  0  0
 71 72  2  0  0  0
 71 74  1  0  0  0
 71145  1  0  0  0
 72 76  1  0  0  0
 72146  1  0  0  0
 73 74  2  0  0  0
 73 75  1  0  0  0
 73147  1  0  0  0
 74 83  1  0  0  0
 75 76  2  0  0  0
 75 82  1  0  0  0
 76 84  1  0  0  0
 77 78  2  0  0  0
 77 79  1  0  0  0
 77 85  1  0  0  0
 78148  1  0  0  0
 78149  1  0  0  0
 79 81  1  0  0  0
 79150  1  0  0  0
 79151  1  0  0  0
 80 81  1  0  0  0
 80 85  1  0  0  0
 80152  1  0  0  0
 80153  1  0  0  0
 81154  1  0  0  0
 82155  1  0  0  0
 82156  1  0  0  0
 82157  1  0  0  0
 83158  1  0  0  0
 83159  1  0  0  0
 83 85  1  0  0  0
 84160  1  0  0  0
 85161  1  0  0  0
M  CHG  1  85   1
M  ISO  4   1 100  68 101  81 101  84 100
M  END
> <chiral flag>
0

> <version>
0

> <s_m_source_file>
/data/baiqing/PycharmProjects/Reinvent-master-3.2/result/LINK_invent/BTK/process_docking_weight1_custom_product_contain_oxygen_bond_distance_aromatic_linkinvent_7_9_3/rearranged_h_0034.sdf

> <i_m_source_file_index>
4

> <r_mmod_Potential_Energy-OPLS-2005>
58.9778709411621

> <r_mmod_Stretch_Energy-OPLS-2005>
87.585334777832

> <r_mmod_Bend_Energy-OPLS-2005>
219.697814941406

> <r_mmod_Torsional_Energy-OPLS-2005>
276.078247070312

> <r_mmod_Improper_Torsional_Energy-OPLS-2005>
8.17183303833008

> <r_mmod_Van_der_Waal_Energy-OPLS-2005>
125.410385131836

> <r_mmod_Electrostatic_Energy-OPLS-2005>
-281.486358642578

> <r_mmod_Solvation_Energy-OPLS-2005>
-437.519653320312

> <b_mmod_Minimization_Converged-OPLS-2005>
0

> <r_mmod_RMS_Derivative-OPLS-2005>
4.58619260787964

$$$$
4
                    3D
 Structure written by MMmdl.
170179  0  0  1  0            999 V2000
  -30.5475  -14.6730   20.5800 C   0  0  0  0  0  0
  -30.4551  -12.4385   19.4535 C   0  0  0  0  0  0
  -29.5190  -12.5233   18.2212 C   0  0  0  0  0  0
  -28.0386  -12.3415   18.6154 C   0  0  0  0  0  0
  -27.6537  -13.1882   19.8586 C   0  0  2  0  0  0
  -28.6890  -13.0010   20.9889 C   0  0  0  0  0  0
  -25.2402  -13.7757   20.5242 C   0  0  0  0  0  0
  -24.1739  -13.0133   20.9153 C   0  0  0  0  0  0
  -24.6377  -11.6688   20.8796 C   0  0  0  0  0  0
  -23.9016  -10.4104   21.0445 C   0  0  0  0  0  0
  -24.3566   -9.4044   21.9226 C   0  0  0  0  0  0
  -23.6235   -8.2099   22.0767 C   0  0  0  0  0  0
  -22.4228   -8.0150   21.3532 C   0  0  0  0  0  0
  -21.9852   -9.0131   20.4656 C   0  0  0  0  0  0
  -22.7187  -10.2008   20.3071 C   0  0  0  0  0  0
  -21.6768   -6.0652   22.5300 C   0  0  0  0  0  0
  -21.3970   -6.5586   23.8225 C   0  0  0  0  0  0
  -21.3650   -5.6756   24.9199 C   0  0  0  0  0  0
  -21.6039   -4.3019   24.7260 C   0  0  0  0  0  0
  -21.8808   -3.8095   23.4387 C   0  0  0  0  0  0
  -21.9205   -4.6902   22.3434 C   0  0  0  0  0  0
  -22.7800  -13.5075   21.1839 C   0  0  0  0  0  0
  -22.1653   -4.2085   21.1005 F   0  0  0  0  0  0
  -21.5652   -3.4512   25.7786 F   0  0  0  0  0  0
  -29.9962  -13.4246   20.4591 N   0  0  0  0  0  0
  -26.2937  -12.9032   20.3192 N   0  0  0  0  0  0
  -25.9309  -11.6229   20.5760 N   0  0  0  0  0  0
  -22.0445  -12.8133   22.0470 N   0  0  0  0  0  0
  -25.3894  -15.1224   20.2837 N   0  0  0  0  0  0
  -31.6907  -14.8939   20.1558 O   0  0  0  0  0  0
  -21.6546   -6.8791   21.4242 O   0  0  0  0  0  0
  -22.3515  -14.5370   20.6703 O   0  0  0  0  0  0
  -24.6099  -31.8638   23.1894 C   0  0  0  0  0  0
  -25.8943  -32.4812   23.8272 C   0  0  1  0  0  0
  -27.2773  -27.3163   20.1680 C   0  0  0  0  0  0
  -25.5814  -33.8606   24.2238 N   0  0  0  0  0  0
  -23.4143  -30.4733   21.5169 C   0  0  2  0  0  0
  -24.8949  -28.9256   20.0883 C   0  0  0  0  0  0
  -22.7456  -29.4524   22.4719 C   0  0  0  0  0  0
  -18.0374  -28.1328   22.8462 C   0  0  0  0  0  0
  -24.1532  -36.7205   23.2689 C   0  0  0  0  0  0
  -25.9499  -30.7950   21.3680 C   0  0  0  0  0  0
  -26.0384  -29.4120   20.7314 C   0  0  0  0  0  0
  -27.2132  -28.6108   20.7784 C   0  0  0  0  0  0
  -26.1083  -26.8611   19.5233 C   0  0  0  0  0  0
  -24.9332  -27.6573   19.4746 C   0  0  0  0  0  0
  -23.6443  -29.7909   20.1339 C   0  0  0  0  0  0
  -25.4131  -36.3052   24.0399 C   0  0  1  0  0  0
  -20.5952  -28.3608   23.1266 C   0  0  2  0  0  0
  -20.6799  -26.9301   22.5380 C   0  0  0  0  0  0
  -19.5794  -26.6288   21.5152 C   0  0  0  0  0  0
  -18.1979  -26.7877   22.1561 C   0  0  0  0  0  0
  -19.1628  -28.8778   23.2925 C   0  0  0  0  0  0
  -18.9529  -30.1396   23.8868 C   0  0  0  0  0  0
  -17.6526  -30.6519   24.0505 C   0  0  0  0  0  0
  -25.9018  -34.9453   23.5136 C   0  0  0  0  0  0
  -16.5416  -29.8994   23.6292 C   0  0  0  0  0  0
  -16.7367  -28.6436   23.0301 C   0  0  0  0  0  0
  -26.4359  -31.6542   25.0589 C   0  0  0  0  0  0
  -25.3716  -31.3670   26.1404 C   0  0  0  0  0  0
  -27.0257  -30.3045   24.5865 C   0  0  0  0  0  0
  -27.5925  -32.4276   25.7322 C   0  0  0  0  0  0
  -27.5606  -37.1762   24.8511 C   0  0  0  0  0  0
  -21.4170  -29.2989   22.3629 N   0  0  0  0  0  0
  -26.4308  -37.3695   23.9492 N   0  0  0  0  0  0
  -24.6708  -31.0652   22.0773 N   0  0  0  0  0  0
  -23.4324  -28.8058   23.2670 O   0  0  0  0  0  0
  -28.4484  -26.5584   20.3208 O   0  0  0  0  0  0
  -26.5627  -34.8908   22.4735 O   0  0  0  0  0  0
  -23.5259  -32.1293   23.7279 O   0  0  0  0  0  0
  -30.7398  -17.9607   20.5565 C   0  0  0  0  0  0
  -30.6649  -19.4025   20.5063 C   0  0  0  0  0  0
  -28.6738  -19.3194   21.8510 C   0  0  0  0  0  0
  -29.6091  -20.1427   21.1391 C   0  0  0  0  0  0
  -28.6329  -17.8896   21.6940 C   0  0  0  0  0  0
  -29.7131  -17.1445   21.1113 C   0  0  0  0  0  0
  -30.7739  -23.7231   20.2820 C   0  0  0  0  0  0
  -32.0010  -23.3196   20.6713 C   0  0  0  0  0  0
  -30.3705  -25.1798   20.0347 C   0  0  0  0  0  0
  -28.3836  -23.8401   20.2869 C   0  0  0  0  0  0
  -28.8424  -25.2538   19.7304 C   0  0  1  0  0  0
  -31.8043  -20.0834   19.7747 C   0  0  0  0  0  0
  -27.7260  -19.9885   22.8712 C   0  0  0  0  0  0
  -26.1092  -17.7378   21.3498 C   0  0  0  0  0  0
  -27.3413  -17.1849   22.1245 C   0  0  0  0  0  0
  -29.4524  -21.7349   21.2885 C   0  0  0  0  0  0
  -29.7214  -15.6562   21.0924 N   0  0  0  0  0  0
  -29.5409  -22.8397   20.2295 N   0  3  2  0  0  0
  -31.4894  -12.6224   19.1533 H   0  0  0  0  0  0
  -30.4474  -11.4265   19.8698 H   0  0  0  0  0  0
  -29.8042  -11.7755   17.4778 H   0  0  0  0  0  0
  -29.6529  -13.4937   17.7359 H   0  0  0  0  0  0
  -27.8789  -11.2818   18.8220 H   0  0  0  0  0  0
  -27.3907  -12.5804   17.7724 H   0  0  0  0  0  0
  -27.6818  -14.2320   19.5467 H   0  0  0  0  0  0
  -28.7265  -11.9443   21.2656 H   0  0  0  0  0  0
  -28.4070  -13.5317   21.8961 H   0  0  0  0  0  0
  -25.2685   -9.5436   22.4834 H   0  0  0  0  0  0
  -23.9880   -7.4411   22.7450 H   0  0  0  0  0  0
  -21.0776   -8.8626   19.8948 H   0  0  0  0  0  0
  -22.3655  -10.9543   19.6180 H   0  0  0  0  0  0
  -21.1918   -7.6088   23.9714 H   0  0  0  0  0  0
  -21.1471   -6.0486   25.9099 H   0  0  0  0  0  0
  -22.0621   -2.7550   23.2913 H   0  0  0  0  0  0
  -22.3972  -11.9792   22.4880 H   0  0  0  0  0  0
  -21.1085  -13.1226   22.2671 H   0  0  0  0  0  0
  -24.6034  -15.7585   20.3286 H   0  0  0  0  0  0
  -26.2196  -15.5494   19.8970 H   0  0  0  0  0  0
  -26.6988  -32.5457   23.1026 H   0  0  0  0  0  0
  -25.0026  -33.9688   25.0409 H   0  0  0  0  0  0
  -22.7023  -31.2893   21.3551 H   0  0  0  0  0  0
  -23.3861  -35.9469   23.3285 H   0  0  0  0  0  0
  -24.3631  -36.8755   22.2107 H   0  0  0  0  0  0
  -23.7213  -37.6387   23.6660 H   0  0  0  0  0  0
  -26.1083  -31.5566   20.6045 H   0  0  0  0  0  0
  -26.8164  -30.8419   22.0063 H   0  0  0  0  0  0
  -28.0655  -28.9920   21.3258 H   0  0  0  0  0  0
  -26.0946  -25.8638   19.1041 H   0  0  0  0  0  0
  -24.0581  -27.2819   18.9538 H   0  0  0  0  0  0
  -23.7588  -30.5525   19.3630 H   0  0  0  0  0  0
  -22.7818  -29.1981   19.8219 H   0  0  0  0  0  0
  -25.1338  -36.1861   25.0867 H   0  0  0  0  0  0
  -21.0129  -28.3070   24.1350 H   0  0  0  0  0  0
  -20.5546  -26.2175   23.3590 H   0  0  0  0  0  0
  -21.6707  -26.7158   22.1261 H   0  0  0  0  0  0
  -19.6947  -25.6199   21.1175 H   0  0  0  0  0  0
  -19.6764  -27.3093   20.6728 H   0  0  0  0  0  0
  -17.4254  -26.6660   21.3930 H   0  0  0  0  0  0
  -18.0362  -25.9995   22.8954 H   0  0  0  0  0  0
  -19.8043  -30.7224   24.2121 H   0  0  0  0  0  0
  -17.5134  -31.6187   24.5136 H   0  0  0  0  0  0
  -15.5439  -30.2919   23.7650 H   0  0  0  0  0  0
  -15.8776  -28.0778   22.6967 H   0  0  0  0  0  0
  -24.5899  -30.6972   25.7778 H   0  0  0  0  0  0
  -24.8974  -32.2863   26.4817 H   0  0  0  0  0  0
  -25.8171  -30.8905   27.0145 H   0  0  0  0  0  0
  -26.2783  -29.6762   24.1032 H   0  0  0  0  0  0
  -27.4317  -29.7222   25.4123 H   0  0  0  0  0  0
  -27.8411  -30.4461   23.8819 H   0  0  0  0  0  0
  -27.2535  -33.3595   26.1813 H   0  0  0  0  0  0
  -28.3775  -32.6704   25.0188 H   0  0  0  0  0  0
  -28.0545  -31.8495   26.5315 H   0  0  0  0  0  0
  -28.2578  -38.0082   24.7571 H   0  0  0  0  0  0
  -28.1143  -36.2640   24.6314 H   0  0  0  0  0  0
  -27.2376  -37.1320   25.8905 H   0  0  0  0  0  0
  -20.9315  -29.8922   21.7047 H   0  0  0  0  0  0
  -26.0228  -38.2761   24.1456 H   0  0  0  0  0  0
  -31.6025  -17.4626   20.1315 H   0  0  0  0  0  0
  -32.8243  -24.0174   20.7230 H   0  0  0  0  0  0
  -32.2075  -22.3202   20.9986 H   0  0  0  0  0  0
  -30.9926  -25.7241   19.3096 H   0  0  0  0  0  0
  -30.6175  -25.6394   20.9949 H   0  0  0  0  0  0
  -27.5082  -23.4679   19.7399 H   0  0  0  0  0  0
  -28.0397  -23.9377   21.3232 H   0  0  0  0  0  0
  -28.6474  -25.2785   18.6511 H   0  0  0  0  0  0
  -32.1999  -19.4177   19.0005 H   0  0  0  0  0  0
  -32.6119  -20.3096   20.4715 H   0  0  0  0  0  0
  -31.4881  -20.9994   19.2784 H   0  0  0  0  0  0
  -28.1955  -20.8388   23.3645 H   0  0  0  0  0  0
  -27.4378  -19.3344   23.6930 H   0  0  0  0  0  0
  -26.8242  -20.3779   22.4025 H   0  0  0  0  0  0
  -25.1946  -17.2535   21.7010 H   0  0  0  0  0  0
  -26.2121  -17.5719   20.2715 H   0  0  0  0  0  0
  -25.9274  -18.8015   21.4511 H   0  0  0  0  0  0
  -27.1935  -17.2679   23.2025 H   0  0  0  0  0  0
  -27.4077  -16.1118   21.9463 H   0  0  0  0  0  0
  -29.8734  -22.0873   22.2368 H   0  0  0  0  0  0
  -28.3739  -21.7728   21.4151 H   0  0  0  0  0  0
  -28.8723  -15.2569   21.4638 H   0  0  0  0  0  0
  -29.5101  -22.3742   19.3302 H   0  0  0  0  0  0
  1 25  1  0  0  0
  1 30  2  0  0  0
  1 87  1  0  0  0
  2  3  1  0  0  0
  2 25  1  0  0  0
  2 89  1  0  0  0
  2 90  1  0  0  0
  3  4  1  0  0  0
  3 91  1  0  0  0
  3 92  1  0  0  0
  4  5  1  0  0  0
  4 93  1  0  0  0
  4 94  1  0  0  0
  5  6  1  0  0  0
  5 26  1  0  0  0
  5 95  1  0  0  0
  6 25  1  0  0  0
  6 96  1  0  0  0
  6 97  1  0  0  0
  7  8  2  0  0  0
  7 26  1  0  0  0
  7 29  1  0  0  0
  8  9  1  0  0  0
  8 22  1  0  0  0
  9 10  1  0  0  0
  9 27  2  0  0  0
 10 11  2  0  0  0
 10 15  1  0  0  0
 11 12  1  0  0  0
 11 98  1  0  0  0
 12 13  2  0  0  0
 12 99  1  0  0  0
 13 14  1  0  0  0
 13 31  1  0  0  0
 14 15  2  0  0  0
 14100  1  0  0  0
 15101  1  0  0  0
 16 17  2  0  0  0
 16 21  1  0  0  0
 16 31  1  0  0  0
 17 18  1  0  0  0
 17102  1  0  0  0
 18 19  2  0  0  0
 18103  1  0  0  0
 19 20  1  0  0  0
 19 24  1  0  0  0
 20 21  2  0  0  0
 20104  1  0  0  0
 21 23  1  0  0  0
 22 28  1  0  0  0
 22 32  2  0  0  0
 26 27  1  0  0  0
 28105  1  0  0  0
 28106  1  0  0  0
 29107  1  0  0  0
 29108  1  0  0  0
 33 34  1  0  0  0
 33 66  1  0  0  0
 33 70  2  0  0  0
 34 36  1  0  0  0
 34 59  1  0  0  0
 34109  1  0  0  0
 35 44  2  0  0  0
 35 45  1  0  0  0
 35 68  1  0  0  0
 36 56  1  0  0  0
 36110  1  0  0  0
 37 39  1  0  0  0
 37 47  1  0  0  0
 37 66  1  0  0  0
 37111  1  0  0  0
 38 43  2  0  0  0
 38 46  1  0  0  0
 38 47  1  0  0  0
 39 64  1  0  0  0
 39 67  2  0  0  0
 40 52  1  0  0  0
 40 53  2  0  0  0
 40 58  1  0  0  0
 41112  1  0  0  0
 41113  1  0  0  0
 41114  1  0  0  0
 41 48  1  0  0  0
 42 43  1  0  0  0
 42 66  1  0  0  0
 42115  1  0  0  0
 42116  1  0  0  0
 43 44  1  0  0  0
 44117  1  0  0  0
 45 46  2  0  0  0
 45118  1  0  0  0
 46119  1  0  0  0
 47120  1  0  0  0
 47121  1  0  0  0
 48 56  1  0  0  0
 48 65  1  0  0  0
 48122  1  0  0  0
 49 50  1  0  0  0
 49 53  1  0  0  0
 49 64  1  0  0  0
 49123  1  0  0  0
 50 51  1  0  0  0
 50124  1  0  0  0
 50125  1  0  0  0
 51 52  1  0  0  0
 51126  1  0  0  0
 51127  1  0  0  0
 52128  1  0  0  0
 52129  1  0  0  0
 53 54  1  0  0  0
 54 55  2  0  0  0
 54130  1  0  0  0
 55 57  1  0  0  0
 55131  1  0  0  0
 56 69  2  0  0  0
 57 58  2  0  0  0
 57132  1  0  0  0
 58133  1  0  0  0
 59 60  1  0  0  0
 59 61  1  0  0  0
 59 62  1  0  0  0
 60134  1  0  0  0
 60135  1  0  0  0
 60136  1  0  0  0
 61137  1  0  0  0
 61138  1  0  0  0
 61139  1  0  0  0
 62140  1  0  0  0
 62141  1  0  0  0
 62142  1  0  0  0
 63 65  1  0  0  0
 63143  1  0  0  0
 63144  1  0  0  0
 63145  1  0  0  0
 64146  1  0  0  0
 65147  1  0  0  0
 68 81  1  0  0  0
 71 72  2  0  0  0
 71 76  1  0  0  0
 71148  1  0  0  0
 72 74  1  0  0  0
 72 82  1  0  0  0
 73 74  2  0  0  0
 73 75  1  0  0  0
 73 83  1  0  0  0
 74 86  1  0  0  0
 75 76  2  0  0  0
 75 85  1  0  0  0
 76 87  1  0  0  0
 77 78  2  0  0  0
 77 79  1  0  0  0
 77 88  1  0  0  0
 78149  1  0  0  0
 78150  1  0  0  0
 79 81  1  0  0  0
 79151  1  0  0  0
 79152  1  0  0  0
 80 81  1  0  0  0
 80 88  1  0  0  0
 80153  1  0  0  0
 80154  1  0  0  0
 81155  1  0  0  0
 82156  1  0  0  0
 82157  1  0  0  0
 82158  1  0  0  0
 83159  1  0  0  0
 83160  1  0  0  0
 83161  1  0  0  0
 84 85  1  0  0  0
 84162  1  0  0  0
 84163  1  0  0  0
 84164  1  0  0  0
 85165  1  0  0  0
 85166  1  0  0  0
 86167  1  0  0  0
 86168  1  0  0  0
 86 88  1  0  0  0
 87169  1  0  0  0
 88170  1  0  0  0
M  CHG  1  88   1
M  ISO  4   1 100  68 101  81 101  87 100
M  END
> <chiral flag>
0

> <version>
0

> <s_m_source_file>
/data/baiqing/PycharmProjects/Reinvent-master-3.2/result/LINK_invent/BTK/process_docking_weight1_custom_product_contain_oxygen_bond_distance_aromatic_linkinvent_7_9_3/rearranged_h_0034.sdf

> <i_m_source_file_index>
5

> <r_mmod_Potential_Energy-OPLS-2005>
187.274658203125

> <r_mmod_Stretch_Energy-OPLS-2005>
113.97484588623

> <r_mmod_Bend_Energy-OPLS-2005>
274.936218261719

> <r_mmod_Torsional_Energy-OPLS-2005>
257.231353759766

> <r_mmod_Improper_Torsional_Energy-OPLS-2005>
4.6246280670166

> <r_mmod_Van_der_Waal_Energy-OPLS-2005>
171.396530151367

> <r_mmod_Electrostatic_Energy-OPLS-2005>
-284.440612792969

> <r_mmod_Solvation_Energy-OPLS-2005>
-416.304992675781

> <b_mmod_Minimization_Converged-OPLS-2005>
0

> <r_mmod_RMS_Derivative-OPLS-2005>
16.1402587890625

$$$$
5
                    3D
 Structure written by MMmdl.
166175  0  0  1  0            999 V2000
  -30.5561  -14.7746   20.4456 C   0  0  0  0  0  0
  -30.4570  -12.4757   19.4377 C   0  0  0  0  0  0
  -29.5139  -12.5173   18.2152 C   0  0  0  0  0  0
  -28.0397  -12.3256   18.6354 C   0  0  0  0  0  0
  -27.6446  -13.2153   19.8417 C   0  0  2  0  0  0
  -28.7065  -13.0985   20.9524 C   0  0  0  0  0  0
  -25.2511  -13.8116   20.5579 C   0  0  0  0  0  0
  -24.1826  -13.0380   20.9197 C   0  0  0  0  0  0
  -24.6420  -11.6880   20.8744 C   0  0  0  0  0  0
  -23.9089  -10.4268   21.0393 C   0  0  0  0  0  0
  -24.3642   -9.4192   21.9182 C   0  0  0  0  0  0
  -23.6319   -8.2228   22.0753 C   0  0  0  0  0  0
  -22.4302   -8.0272   21.3547 C   0  0  0  0  0  0
  -21.9940   -9.0245   20.4651 C   0  0  0  0  0  0
  -22.7254  -10.2116   20.3033 C   0  0  0  0  0  0
  -21.6867   -6.0727   22.5285 C   0  0  0  0  0  0
  -21.4029   -6.5636   23.8215 C   0  0  0  0  0  0
  -21.3654   -5.6796   24.9182 C   0  0  0  0  0  0
  -21.6031   -4.3063   24.7234 C   0  0  0  0  0  0
  -21.8819   -3.8145   23.4366 C   0  0  0  0  0  0
  -21.9198   -4.6955   22.3423 C   0  0  0  0  0  0
  -22.7828  -13.5149   21.1884 C   0  0  0  0  0  0
  -22.1669   -4.2132   21.1007 F   0  0  0  0  0  0
  -21.5643   -3.4571   25.7769 F   0  0  0  0  0  0
  -29.9882  -13.5181   20.3723 N   0  0  0  0  0  0
  -26.2950  -12.9308   20.3229 N   0  0  0  0  0  0
  -25.9329  -11.6467   20.5723 N   0  0  0  0  0  0
  -22.0495  -12.8143   22.0465 N   0  0  0  0  0  0
  -25.4034  -15.1840   20.3823 N   0  0  0  0  0  0
  -31.7685  -14.9185   20.2588 O   0  0  0  0  0  0
  -21.6651   -6.8872   21.4242 O   0  0  0  0  0  0
  -22.3487  -14.5419   20.6694 O   0  0  0  0  0  0
  -24.6325  -31.8549   23.1992 C   0  0  0  0  0  0
  -25.9148  -32.4753   23.8339 C   0  0  1  0  0  0
  -27.2247  -27.2625   20.1085 C   0  0  0  0  0  0
  -25.5959  -33.8553   24.2271 N   0  0  0  0  0  0
  -23.4292  -30.4799   21.5440 C   0  0  2  0  0  0
  -24.8758  -28.9307   20.1139 C   0  0  0  0  0  0
  -22.7504  -29.4608   22.4907 C   0  0  0  0  0  0
  -18.0299  -28.1392   22.8485 C   0  0  0  0  0  0
  -24.1499  -36.7277   23.2639 C   0  0  0  0  0  0
  -25.9779  -30.7683   21.3804 C   0  0  0  0  0  0
  -26.0509  -29.3915   20.7208 C   0  0  0  0  0  0
  -27.2251  -28.5705   20.7086 C   0  0  0  0  0  0
  -26.0126  -26.8701   19.4880 C   0  0  0  0  0  0
  -24.8623  -27.6773   19.4913 C   0  0  0  0  0  0
  -23.6486  -29.8178   20.1590 C   0  0  0  0  0  0
  -25.4122  -36.3058   24.0322 C   0  0  1  0  0  0
  -20.5906  -28.3710   23.1263 C   0  0  2  0  0  0
  -20.6798  -26.9428   22.5405 C   0  0  0  0  0  0
  -19.5774  -26.6390   21.5213 C   0  0  0  0  0  0
  -18.1948  -26.7934   22.1623 C   0  0  0  0  0  0
  -19.1552  -28.8861   23.2872 C   0  0  0  0  0  0
  -18.9472  -30.1466   23.8888 C   0  0  0  0  0  0
  -17.6470  -30.6591   24.0563 C   0  0  0  0  0  0
  -25.9057  -34.9435   23.5086 C   0  0  0  0  0  0
  -16.5362  -29.9092   23.6334 C   0  0  0  0  0  0
  -16.7281  -28.6511   23.0344 C   0  0  0  0  0  0
  -26.4525  -31.6569   25.0723 C   0  0  0  0  0  0
  -25.3745  -31.3726   26.1438 C   0  0  0  0  0  0
  -27.0372  -30.2984   24.6219 C   0  0  0  0  0  0
  -27.6081  -32.4309   25.7500 C   0  0  0  0  0  0
  -27.5587  -37.1797   24.8469 C   0  0  0  0  0  0
  -21.4211  -29.3053   22.3646 N   0  0  0  0  0  0
  -26.4295  -37.3763   23.9410 N   0  0  0  0  0  0
  -24.6992  -31.0518   22.0969 N   0  0  0  0  0  0
  -23.4198  -28.8136   23.2996 O   0  0  0  0  0  0
  -28.3353  -26.3785   20.1494 O   0  0  0  0  0  0
  -26.5608  -34.8908   22.4650 O   0  0  0  0  0  0
  -23.5467  -32.1367   23.7281 O   0  0  0  0  0  0
  -28.3451  -18.5383   22.5965 C   0  0  0  0  0  0
  -29.8557  -18.4941   20.2663 C   0  0  0  0  0  0
  -28.6887  -19.7654   22.0076 C   0  0  0  0  0  0
  -28.7419  -17.2982   22.0633 C   0  0  0  0  0  0
  -29.4530  -19.7965   20.8138 C   0  0  0  0  0  0
  -29.5301  -17.2085   20.8877 C   0  0  0  0  0  0
  -27.9268  -23.3950   17.7728 C   0  0  0  0  0  0
  -28.2839  -24.8188   18.2353 C   0  0  0  0  0  0
  -28.8954  -22.3388   18.3430 C   0  0  0  0  0  0
  -29.1635  -23.7720   20.3626 C   0  0  0  0  0  0
  -28.1895  -24.9239   19.7687 C   0  0  1  0  0  0
  -28.2222  -21.0281   22.7222 C   0  0  0  0  0  0
  -28.2273  -16.0672   22.7766 C   0  0  0  0  0  0
  -29.9405  -21.2259   20.2908 C   0  0  0  0  0  0
  -29.6716  -15.8409   20.3057 N   0  0  0  0  0  0
  -28.9601  -22.3280   19.8315 N   0  3  2  0  0  0
  -31.4874  -12.6437   19.1242 H   0  0  0  0  0  0
  -30.4412  -11.4912   19.9071 H   0  0  0  0  0  0
  -29.8080  -11.7584   17.4896 H   0  0  0  0  0  0
  -29.6253  -13.4768   17.7070 H   0  0  0  0  0  0
  -27.9164  -11.2744   18.8996 H   0  0  0  0  0  0
  -27.3758  -12.5123   17.7908 H   0  0  0  0  0  0
  -27.6360  -14.2419   19.4761 H   0  0  0  0  0  0
  -28.7662  -12.0714   21.3150 H   0  0  0  0  0  0
  -28.4402  -13.6832   21.8226 H   0  0  0  0  0  0
  -25.2778   -9.5689   22.4782 H   0  0  0  0  0  0
  -24.0034   -7.4618   22.7494 H   0  0  0  0  0  0
  -21.0852   -8.8716   19.8981 H   0  0  0  0  0  0
  -22.3665  -10.9648   19.6168 H   0  0  0  0  0  0
  -21.2007   -7.6153   23.9711 H   0  0  0  0  0  0
  -21.1501   -6.0547   25.9081 H   0  0  0  0  0  0
  -22.0594   -2.7603   23.2867 H   0  0  0  0  0  0
  -22.4121  -11.9803   22.4861 H   0  0  0  0  0  0
  -21.1070  -13.1103   22.2562 H   0  0  0  0  0  0
  -24.6084  -15.8068   20.4601 H   0  0  0  0  0  0
  -26.2078  -15.6314   19.9640 H   0  0  0  0  0  0
  -26.7215  -32.5401   23.1084 H   0  0  0  0  0  0
  -25.0158  -33.9705   25.0448 H   0  0  0  0  0  0
  -22.7268  -31.3016   21.3966 H   0  0  0  0  0  0
  -23.3758  -35.9614   23.3285 H   0  0  0  0  0  0
  -24.3593  -36.8906   22.2057 H   0  0  0  0  0  0
  -23.7248  -37.6477   23.6662 H   0  0  0  0  0  0
  -26.1173  -31.5308   20.6122 H   0  0  0  0  0  0
  -26.8533  -30.8164   22.0147 H   0  0  0  0  0  0
  -28.1258  -28.9214   21.1948 H   0  0  0  0  0  0
  -25.8987  -25.9169   18.9965 H   0  0  0  0  0  0
  -23.9608  -27.3165   19.0140 H   0  0  0  0  0  0
  -23.7796  -30.5953   19.4051 H   0  0  0  0  0  0
  -22.7682  -29.2536   19.8474 H   0  0  0  0  0  0
  -25.1310  -36.1906   25.0812 H   0  0  0  0  0  0
  -21.0003  -28.3287   24.1379 H   0  0  0  0  0  0
  -20.5709  -26.2315   23.3606 H   0  0  0  0  0  0
  -21.6659  -26.7457   22.1178 H   0  0  0  0  0  0
  -19.6933  -25.6292   21.1256 H   0  0  0  0  0  0
  -19.6716  -27.3187   20.6727 H   0  0  0  0  0  0
  -17.4222  -26.6669   21.4029 H   0  0  0  0  0  0
  -18.0364  -26.0082   22.9021 H   0  0  0  0  0  0
  -19.7937  -30.7291   24.2256 H   0  0  0  0  0  0
  -17.5012  -31.6265   24.5170 H   0  0  0  0  0  0
  -15.5359  -30.2988   23.7654 H   0  0  0  0  0  0
  -15.8681  -28.0826   22.7065 H   0  0  0  0  0  0
  -24.5949  -30.7045   25.7777 H   0  0  0  0  0  0
  -24.8903  -32.2887   26.4824 H   0  0  0  0  0  0
  -25.8053  -30.8948   27.0239 H   0  0  0  0  0  0
  -26.2955  -29.6728   24.1248 H   0  0  0  0  0  0
  -27.4056  -29.7268   25.4745 H   0  0  0  0  0  0
  -27.8834  -30.4263   23.9465 H   0  0  0  0  0  0
  -27.2711  -33.3640   26.2035 H   0  0  0  0  0  0
  -28.3921  -32.6809   25.0337 H   0  0  0  0  0  0
  -28.0715  -31.8447   26.5453 H   0  0  0  0  0  0
  -28.2588  -38.0110   24.7504 H   0  0  0  0  0  0
  -28.1094  -36.2630   24.6299 H   0  0  0  0  0  0
  -27.2292  -37.1435   25.8869 H   0  0  0  0  0  0
  -20.9396  -29.8804   21.6878 H   0  0  0  0  0  0
  -26.0168  -38.2837   24.1405 H   0  0  0  0  0  0
  -27.7498  -18.5470   23.4994 H   0  0  0  0  0  0
  -30.4191  -18.4849   19.3450 H   0  0  0  0  0  0
  -27.9663  -23.3526   16.6843 H   0  0  0  0  0  0
  -26.8966  -23.1568   18.0438 H   0  0  0  0  0  0
  -27.6290  -25.5312   17.7373 H   0  0  0  0  0  0
  -29.2946  -25.0827   17.9156 H   0  0  0  0  0  0
  -29.8930  -22.5380   17.9460 H   0  0  0  0  0  0
  -28.6117  -21.3497   17.9811 H   0  0  0  0  0  0
  -29.0613  -23.7594   21.4464 H   0  0  0  0  0  0
  -30.1955  -24.0614   20.1658 H   0  0  0  0  0  0
  -27.1950  -24.6068   20.0829 H   0  0  0  0  0  0
  -27.7342  -20.7841   23.6679 H   0  0  0  0  0  0
  -27.4925  -21.5695   22.1235 H   0  0  0  0  0  0
  -29.0559  -21.6866   22.9614 H   0  0  0  0  0  0
  -29.0468  -15.3888   23.0168 H   0  0  0  0  0  0
  -27.4928  -15.5726   22.1427 H   0  0  0  0  0  0
  -27.7213  -16.3143   23.7097 H   0  0  0  0  0  0
  -30.6871  -21.0572   19.5143 H   0  0  0  0  0  0
  -30.5269  -21.6440   21.1102 H   0  0  0  0  0  0
  -28.7664  -15.4470   20.1121 H   0  0  0  0  0  0
  -28.0521  -22.0309   20.1554 H   0  0  0  0  0  0
  1 25  1  0  0  0
  1 30  2  0  0  0
  1 85  1  0  0  0
  2  3  1  0  0  0
  2 25  1  0  0  0
  2 87  1  0  0  0
  2 88  1  0  0  0
  3  4  1  0  0  0
  3 89  1  0  0  0
  3 90  1  0  0  0
  4  5  1  0  0  0
  4 91  1  0  0  0
  4 92  1  0  0  0
  5  6  1  0  0  0
  5 26  1  0  0  0
  5 93  1  0  0  0
  6 25  1  0  0  0
  6 94  1  0  0  0
  6 95  1  0  0  0
  7  8  2  0  0  0
  7 26  1  0  0  0
  7 29  1  0  0  0
  8  9  1  0  0  0
  8 22  1  0  0  0
  9 10  1  0  0  0
  9 27  2  0  0  0
 10 11  2  0  0  0
 10 15  1  0  0  0
 11 12  1  0  0  0
 11 96  1  0  0  0
 12 13  2  0  0  0
 12 97  1  0  0  0
 13 14  1  0  0  0
 13 31  1  0  0  0
 14 15  2  0  0  0
 14 98  1  0  0  0
 15 99  1  0  0  0
 16 17  2  0  0  0
 16 21  1  0  0  0
 16 31  1  0  0  0
 17 18  1  0  0  0
 17100  1  0  0  0
 18 19  2  0  0  0
 18101  1  0  0  0
 19 20  1  0  0  0
 19 24  1  0  0  0
 20 21  2  0  0  0
 20102  1  0  0  0
 21 23  1  0  0  0
 22 28  1  0  0  0
 22 32  2  0  0  0
 26 27  1  0  0  0
 28103  1  0  0  0
 28104  1  0  0  0
 29105  1  0  0  0
 29106  1  0  0  0
 33 34  1  0  0  0
 33 66  1  0  0  0
 33 70  2  0  0  0
 34 36  1  0  0  0
 34 59  1  0  0  0
 34107  1  0  0  0
 35 44  2  0  0  0
 35 45  1  0  0  0
 35 68  1  0  0  0
 36 56  1  0  0  0
 36108  1  0  0  0
 37 39  1  0  0  0
 37 47  1  0  0  0
 37 66  1  0  0  0
 37109  1  0  0  0
 38 43  2  0  0  0
 38 46  1  0  0  0
 38 47  1  0  0  0
 39 64  1  0  0  0
 39 67  2  0  0  0
 40 52  1  0  0  0
 40 53  2  0  0  0
 40 58  1  0  0  0
 41110  1  0  0  0
 41111  1  0  0  0
 41112  1  0  0  0
 41 48  1  0  0  0
 42 43  1  0  0  0
 42 66  1  0  0  0
 42113  1  0  0  0
 42114  1  0  0  0
 43 44  1  0  0  0
 44115  1  0  0  0
 45 46  2  0  0  0
 45116  1  0  0  0
 46117  1  0  0  0
 47118  1  0  0  0
 47119  1  0  0  0
 48 56  1  0  0  0
 48 65  1  0  0  0
 48120  1  0  0  0
 49 50  1  0  0  0
 49 53  1  0  0  0
 49 64  1  0  0  0
 49121  1  0  0  0
 50 51  1  0  0  0
 50122  1  0  0  0
 50123  1  0  0  0
 51 52  1  0  0  0
 51124  1  0  0  0
 51125  1  0  0  0
 52126  1  0  0  0
 52127  1  0  0  0
 53 54  1  0  0  0
 54 55  2  0  0  0
 54128  1  0  0  0
 55 57  1  0  0  0
 55129  1  0  0  0
 56 69  2  0  0  0
 57 58  2  0  0  0
 57130  1  0  0  0
 58131  1  0  0  0
 59 60  1  0  0  0
 59 61  1  0  0  0
 59 62  1  0  0  0
 60132  1  0  0  0
 60133  1  0  0  0
 60134  1  0  0  0
 61135  1  0  0  0
 61136  1  0  0  0
 61137  1  0  0  0
 62138  1  0  0  0
 62139  1  0  0  0
 62140  1  0  0  0
 63 65  1  0  0  0
 63141  1  0  0  0
 63142  1  0  0  0
 63143  1  0  0  0
 64144  1  0  0  0
 65145  1  0  0  0
 68 81  1  0  0  0
 71 73  2  0  0  0
 71 74  1  0  0  0
 71146  1  0  0  0
 72 75  2  0  0  0
 72 76  1  0  0  0
 72147  1  0  0  0
 73 75  1  0  0  0
 73 82  1  0  0  0
 74 76  2  0  0  0
 74 83  1  0  0  0
 75 84  1  0  0  0
 76 85  1  0  0  0
 77 78  1  0  0  0
 77 79  1  0  0  0
 77148  1  0  0  0
 77149  1  0  0  0
 78 81  1  0  0  0
 78150  1  0  0  0
 78151  1  0  0  0
 79 86  1  0  0  0
 79152  1  0  0  0
 79153  1  0  0  0
 80 81  1  0  0  0
 80 86  1  0  0  0
 80154  1  0  0  0
 80155  1  0  0  0
 81156  1  0  0  0
 82157  1  0  0  0
 82158  1  0  0  0
 82159  1  0  0  0
 83160  1  0  0  0
 83161  1  0  0  0
 83162  1  0  0  0
 84163  1  0  0  0
 84164  1  0  0  0
 84 86  1  0  0  0
 85165  1  0  0  0
 86166  1  0  0  0
M  CHG  1  86   1
M  ISO  4   1 100  68 101  81 101  85 100
M  END
> <chiral flag>
0

> <version>
0

> <s_m_source_file>
/data/baiqing/PycharmProjects/Reinvent-master-3.2/result/LINK_invent/BTK/process_docking_weight1_custom_product_contain_oxygen_bond_distance_aromatic_linkinvent_7_9_3/rearranged_h_0034.sdf

> <i_m_source_file_index>
6

> <r_mmod_Potential_Energy-OPLS-2005>
164.38166809082

> <r_mmod_Stretch_Energy-OPLS-2005>
135.39176940918

> <r_mmod_Bend_Energy-OPLS-2005>
192.719482421875

> <r_mmod_Torsional_Energy-OPLS-2005>
279.718353271484

> <r_mmod_Improper_Torsional_Energy-OPLS-2005>
17.603099822998

> <r_mmod_Van_der_Waal_Energy-OPLS-2005>
146.592529296875

> <r_mmod_Electrostatic_Energy-OPLS-2005>
-276.07373046875

> <r_mmod_Solvation_Energy-OPLS-2005>
-425.560516357422

> <b_mmod_Minimization_Converged-OPLS-2005>
0

> <r_mmod_RMS_Derivative-OPLS-2005>
3.99549102783203

$$$$
6
                    3D
 Structure written by MMmdl.
166175  0  0  1  0            999 V2000
  -30.7716  -14.6005   20.5390 C   0  0  0  0  0  0
  -30.4006  -12.3793   19.4906 C   0  0  0  0  0  0
  -29.4952  -12.4803   18.2503 C   0  0  0  0  0  0
  -28.0259  -12.3139   18.6701 C   0  0  0  0  0  0
  -27.6484  -13.2277   19.8663 C   0  0  2  0  0  0
  -28.6923  -13.1663   21.0051 C   0  0  0  0  0  0
  -25.2555  -13.8194   20.5776 C   0  0  0  0  0  0
  -24.1831  -13.0406   20.9273 C   0  0  0  0  0  0
  -24.6423  -11.6909   20.8808 C   0  0  0  0  0  0
  -23.9136  -10.4261   21.0424 C   0  0  0  0  0  0
  -24.3656   -9.4171   21.9186 C   0  0  0  0  0  0
  -23.6293   -8.2241   22.0753 C   0  0  0  0  0  0
  -22.4271   -8.0285   21.3565 C   0  0  0  0  0  0
  -21.9932   -9.0280   20.4663 C   0  0  0  0  0  0
  -22.7313  -10.2147   20.3061 C   0  0  0  0  0  0
  -21.6830   -6.0743   22.5275 C   0  0  0  0  0  0
  -21.4001   -6.5653   23.8219 C   0  0  0  0  0  0
  -21.3640   -5.6800   24.9177 C   0  0  0  0  0  0
  -21.6050   -4.3068   24.7212 C   0  0  0  0  0  0
  -21.8816   -3.8158   23.4331 C   0  0  0  0  0  0
  -21.9193   -4.6973   22.3394 C   0  0  0  0  0  0
  -22.7848  -13.5186   21.1894 C   0  0  0  0  0  0
  -22.1656   -4.2178   21.0965 F   0  0  0  0  0  0
  -21.5653   -3.4538   25.7718 F   0  0  0  0  0  0
  -30.0112  -13.4575   20.4336 N   0  0  0  0  0  0
  -26.2982  -12.9385   20.3420 N   0  0  0  0  0  0
  -25.9374  -11.6543   20.5873 N   0  0  0  0  0  0
  -22.0468  -12.8168   22.0426 N   0  0  0  0  0  0
  -25.4218  -15.1880   20.4138 N   0  0  0  0  0  0
  -31.9032  -14.6267   20.0599 O   0  0  0  0  0  0
  -21.6634   -6.8875   21.4225 O   0  0  0  0  0  0
  -22.3544  -14.5475   20.6706 O   0  0  0  0  0  0
  -24.6154  -31.8652   23.2063 C   0  0  0  0  0  0
  -25.9012  -32.4821   23.8439 C   0  0  1  0  0  0
  -27.2487  -27.3917   20.1392 C   0  0  0  0  0  0
  -25.5822  -33.8633   24.2326 N   0  0  0  0  0  0
  -23.4087  -30.4840   21.5464 C   0  0  2  0  0  0
  -24.8586  -28.9315   20.1282 C   0  0  0  0  0  0
  -22.7418  -29.4652   22.4973 C   0  0  0  0  0  0
  -18.0308  -28.1357   22.8500 C   0  0  0  0  0  0
  -24.1474  -36.7344   23.2639 C   0  0  0  0  0  0
  -25.9361  -30.8289   21.3557 C   0  0  0  0  0  0
  -26.0175  -29.4499   20.7193 C   0  0  0  0  0  0
  -27.2174  -28.6930   20.7067 C   0  0  0  0  0  0
  -26.0700  -26.8896   19.5467 C   0  0  0  0  0  0
  -24.8810  -27.6540   19.5363 C   0  0  0  0  0  0
  -23.6206  -29.8037   20.1684 C   0  0  0  0  0  0
  -25.4082  -36.3112   24.0335 C   0  0  1  0  0  0
  -20.5884  -28.3697   23.1335 C   0  0  2  0  0  0
  -20.6803  -26.9428   22.5481 C   0  0  0  0  0  0
  -19.5813  -26.6358   21.5304 C   0  0  0  0  0  0
  -18.1975  -26.7895   22.1719 C   0  0  0  0  0  0
  -19.1551  -28.8854   23.2879 C   0  0  0  0  0  0
  -18.9438  -30.1447   23.8861 C   0  0  0  0  0  0
  -17.6415  -30.6539   24.0544 C   0  0  0  0  0  0
  -25.8979  -34.9460   23.5121 C   0  0  0  0  0  0
  -16.5317  -29.9034   23.6258 C   0  0  0  0  0  0
  -16.7286  -28.6496   23.0279 C   0  0  0  0  0  0
  -26.4426  -31.6613   25.0772 C   0  0  0  0  0  0
  -25.3768  -31.3691   26.1590 C   0  0  0  0  0  0
  -27.0214  -30.3049   24.6093 C   0  0  0  0  0  0
  -27.5991  -32.4354   25.7543 C   0  0  0  0  0  0
  -27.5574  -37.1823   24.8457 C   0  0  0  0  0  0
  -21.4154  -29.3085   22.3711 N   0  0  0  0  0  0
  -26.4278  -37.3774   23.9392 N   0  0  0  0  0  0
  -24.6720  -31.0758   22.0939 N   0  0  0  0  0  0
  -23.4179  -28.8218   23.3059 O   0  0  0  0  0  0
  -28.4447  -26.6958   20.0507 O   0  0  0  0  0  0
  -26.5595  -34.8900   22.4708 O   0  0  0  0  0  0
  -23.5323  -32.1388   23.7435 O   0  0  0  0  0  0
  -29.1034  -18.9431   18.3316 C   0  0  0  0  0  0
  -29.2485  -17.8348   19.1756 C   0  0  0  0  0  0
  -28.7523  -20.2073   18.8369 C   0  0  0  0  0  0
  -29.0928  -17.9400   20.5650 C   0  0  0  0  0  0
  -28.7665  -19.2513   21.1025 C   0  0  0  0  0  0
  -28.5448  -20.3896   20.2296 C   0  0  0  0  0  0
  -27.8994  -25.0636   21.9760 C   0  0  0  0  0  0
  -28.3669  -23.6224   22.2612 C   0  0  0  0  0  0
  -28.6180  -24.0889   19.9365 C   0  0  0  0  0  0
  -28.6841  -25.4236   20.7241 C   0  0  1  0  0  0
  -28.5289  -21.3221   17.8278 C   0  0  0  0  0  0
  -28.5960  -19.4634   22.6034 C   0  0  0  0  0  0
  -29.1517  -16.5632   21.3257 C   0  0  0  0  0  0
  -27.8570  -21.7195   20.7007 C   0  0  0  0  0  0
  -30.3902  -15.7358   21.2009 N   0  0  0  0  0  0
  -28.6788  -22.9706   20.9538 N   0  3  2  0  0  0
  -31.4480  -12.4114   19.1946 H   0  0  0  0  0  0
  -30.2775  -11.4086   19.9754 H   0  0  0  0  0  0
  -29.7643  -11.7143   17.5216 H   0  0  0  0  0  0
  -29.6341  -13.4423   17.7573 H   0  0  0  0  0  0
  -27.8824  -11.2650   18.9388 H   0  0  0  0  0  0
  -27.3628  -12.5067   17.8244 H   0  0  0  0  0  0
  -27.6476  -14.2447   19.4774 H   0  0  0  0  0  0
  -28.6885  -12.1797   21.4692 H   0  0  0  0  0  0
  -28.4464  -13.8717   21.8004 H   0  0  0  0  0  0
  -25.2796   -9.5613   22.4771 H   0  0  0  0  0  0
  -24.0004   -7.4601   22.7458 H   0  0  0  0  0  0
  -21.0874   -8.8836   19.8928 H   0  0  0  0  0  0
  -22.3803  -10.9717   19.6182 H   0  0  0  0  0  0
  -21.1980   -7.6164   23.9724 H   0  0  0  0  0  0
  -21.1463   -6.0529   25.9096 H   0  0  0  0  0  0
  -22.0601   -2.7626   23.2824 H   0  0  0  0  0  0
  -22.4071  -11.9825   22.4838 H   0  0  0  0  0  0
  -21.1102  -13.1184   22.2659 H   0  0  0  0  0  0
  -24.6435  -15.8328   20.4986 H   0  0  0  0  0  0
  -26.2540  -15.6211   20.0329 H   0  0  0  0  0  0
  -26.7124  -32.5507   23.1269 H   0  0  0  0  0  0
  -24.9954  -33.9803   25.0463 H   0  0  0  0  0  0
  -22.6954  -31.2988   21.4038 H   0  0  0  0  0  0
  -23.3706  -35.9712   23.3294 H   0  0  0  0  0  0
  -24.3572  -36.8955   22.2053 H   0  0  0  0  0  0
  -23.7270  -37.6555   23.6671 H   0  0  0  0  0  0
  -26.0307  -31.5866   20.5771 H   0  0  0  0  0  0
  -26.8292  -30.8985   21.9673 H   0  0  0  0  0  0
  -28.1181  -29.1078   21.1338 H   0  0  0  0  0  0
  -26.0709  -25.9177   19.0729 H   0  0  0  0  0  0
  -23.9882  -27.2533   19.0733 H   0  0  0  0  0  0
  -23.7284  -30.5673   19.3973 H   0  0  0  0  0  0
  -22.7449  -29.2226   19.8786 H   0  0  0  0  0  0
  -25.1265  -36.1973   25.0833 H   0  0  0  0  0  0
  -20.9929  -28.3290   24.1505 H   0  0  0  0  0  0
  -20.5839  -26.2325   23.3691 H   0  0  0  0  0  0
  -21.6626  -26.7507   22.1127 H   0  0  0  0  0  0
  -19.6936  -25.6205   21.1494 H   0  0  0  0  0  0
  -19.6795  -27.3074   20.6733 H   0  0  0  0  0  0
  -17.4287  -26.6608   21.4076 H   0  0  0  0  0  0
  -18.0345  -26.0098   22.9147 H   0  0  0  0  0  0
  -19.7919  -30.7298   24.2192 H   0  0  0  0  0  0
  -17.4953  -31.6170   24.5203 H   0  0  0  0  0  0
  -15.5294  -30.2890   23.7582 H   0  0  0  0  0  0
  -15.8733  -28.0766   22.6939 H   0  0  0  0  0  0
  -24.5941  -30.6970   25.8039 H   0  0  0  0  0  0
  -24.8983  -32.2817   26.5138 H   0  0  0  0  0  0
  -25.8232  -30.8892   27.0311 H   0  0  0  0  0  0
  -26.2704  -29.6893   24.1108 H   0  0  0  0  0  0
  -27.3907  -29.7178   25.4512 H   0  0  0  0  0  0
  -27.8582  -30.4353   23.9236 H   0  0  0  0  0  0
  -27.2557  -33.3623   26.2164 H   0  0  0  0  0  0
  -28.3793  -32.6976   25.0390 H   0  0  0  0  0  0
  -28.0692  -31.8497   26.5452 H   0  0  0  0  0  0
  -28.2592  -38.0122   24.7471 H   0  0  0  0  0  0
  -28.1062  -36.2635   24.6310 H   0  0  0  0  0  0
  -27.2295  -37.1518   25.8865 H   0  0  0  0  0  0
  -20.9366  -29.8850   21.6915 H   0  0  0  0  0  0
  -26.0164  -38.2839   24.1403 H   0  0  0  0  0  0
  -29.2140  -18.7907   17.2677 H   0  0  0  0  0  0
  -29.4459  -16.8709   18.7328 H   0  0  0  0  0  0
  -28.0924  -25.7328   22.8149 H   0  0  0  0  0  0
  -26.8301  -25.0786   21.7673 H   0  0  0  0  0  0
  -27.6320  -23.0952   22.8710 H   0  0  0  0  0  0
  -29.2867  -23.6510   22.8488 H   0  0  0  0  0  0
  -29.4487  -24.0356   19.2303 H   0  0  0  0  0  0
  -27.6959  -24.0650   19.3540 H   0  0  0  0  0  0
  -29.7265  -25.5212   21.0363 H   0  0  0  0  0  0
  -29.0539  -22.2303   18.1075 H   0  0  0  0  0  0
  -27.4665  -21.5542   17.7356 H   0  0  0  0  0  0
  -28.9187  -21.0488   16.8449 H   0  0  0  0  0  0
  -29.0608  -20.4029   22.8982 H   0  0  0  0  0  0
  -29.0969  -18.6989   23.1892 H   0  0  0  0  0  0
  -27.5447  -19.5001   22.8939 H   0  0  0  0  0  0
  -28.9726  -16.6910   22.3924 H   0  0  0  0  0  0
  -28.3246  -15.9749   20.9307 H   0  0  0  0  0  0
  -27.2797  -21.4677   21.5852 H   0  0  0  0  0  0
  -27.0676  -21.9673   19.9914 H   0  0  0  0  0  0
  -31.2141  -16.3026   21.3546 H   0  0  0  0  0  0
  -29.6433  -22.6807   21.0271 H   0  0  0  0  0  0
  1 25  1  0  0  0
  1 30  2  0  0  0
  1 85  1  0  0  0
  2  3  1  0  0  0
  2 25  1  0  0  0
  2 87  1  0  0  0
  2 88  1  0  0  0
  3  4  1  0  0  0
  3 89  1  0  0  0
  3 90  1  0  0  0
  4  5  1  0  0  0
  4 91  1  0  0  0
  4 92  1  0  0  0
  5  6  1  0  0  0
  5 26  1  0  0  0
  5 93  1  0  0  0
  6 25  1  0  0  0
  6 94  1  0  0  0
  6 95  1  0  0  0
  7  8  2  0  0  0
  7 26  1  0  0  0
  7 29  1  0  0  0
  8  9  1  0  0  0
  8 22  1  0  0  0
  9 10  1  0  0  0
  9 27  2  0  0  0
 10 11  2  0  0  0
 10 15  1  0  0  0
 11 12  1  0  0  0
 11 96  1  0  0  0
 12 13  2  0  0  0
 12 97  1  0  0  0
 13 14  1  0  0  0
 13 31  1  0  0  0
 14 15  2  0  0  0
 14 98  1  0  0  0
 15 99  1  0  0  0
 16 17  2  0  0  0
 16 21  1  0  0  0
 16 31  1  0  0  0
 17 18  1  0  0  0
 17100  1  0  0  0
 18 19  2  0  0  0
 18101  1  0  0  0
 19 20  1  0  0  0
 19 24  1  0  0  0
 20 21  2  0  0  0
 20102  1  0  0  0
 21 23  1  0  0  0
 22 28  1  0  0  0
 22 32  2  0  0  0
 26 27  1  0  0  0
 28103  1  0  0  0
 28104  1  0  0  0
 29105  1  0  0  0
 29106  1  0  0  0
 33 34  1  0  0  0
 33 66  1  0  0  0
 33 70  2  0  0  0
 34 36  1  0  0  0
 34 59  1  0  0  0
 34107  1  0  0  0
 35 44  2  0  0  0
 35 45  1  0  0  0
 35 68  1  0  0  0
 36 56  1  0  0  0
 36108  1  0  0  0
 37 39  1  0  0  0
 37 47  1  0  0  0
 37 66  1  0  0  0
 37109  1  0  0  0
 38 43  2  0  0  0
 38 46  1  0  0  0
 38 47  1  0  0  0
 39 64  1  0  0  0
 39 67  2  0  0  0
 40 52  1  0  0  0
 40 53  2  0  0  0
 40 58  1  0  0  0
 41110  1  0  0  0
 41111  1  0  0  0
 41112  1  0  0  0
 41 48  1  0  0  0
 42 43  1  0  0  0
 42 66  1  0  0  0
 42113  1  0  0  0
 42114  1  0  0  0
 43 44  1  0  0  0
 44115  1  0  0  0
 45 46  2  0  0  0
 45116  1  0  0  0
 46117  1  0  0  0
 47118  1  0  0  0
 47119  1  0  0  0
 48 56  1  0  0  0
 48 65  1  0  0  0
 48120  1  0  0  0
 49 50  1  0  0  0
 49 53  1  0  0  0
 49 64  1  0  0  0
 49121  1  0  0  0
 50 51  1  0  0  0
 50122  1  0  0  0
 50123  1  0  0  0
 51 52  1  0  0  0
 51124  1  0  0  0
 51125  1  0  0  0
 52126  1  0  0  0
 52127  1  0  0  0
 53 54  1  0  0  0
 54 55  2  0  0  0
 54128  1  0  0  0
 55 57  1  0  0  0
 55129  1  0  0  0
 56 69  2  0  0  0
 57 58  2  0  0  0
 57130  1  0  0  0
 58131  1  0  0  0
 59 60  1  0  0  0
 59 61  1  0  0  0
 59 62  1  0  0  0
 60132  1  0  0  0
 60133  1  0  0  0
 60134  1  0  0  0
 61135  1  0  0  0
 61136  1  0  0  0
 61137  1  0  0  0
 62138  1  0  0  0
 62139  1  0  0  0
 62140  1  0  0  0
 63 65  1  0  0  0
 63141  1  0  0  0
 63142  1  0  0  0
 63143  1  0  0  0
 64144  1  0  0  0
 65145  1  0  0  0
 68 80  1  0  0  0
 71 72  2  0  0  0
 71 73  1  0  0  0
 71146  1  0  0  0
 72 74  1  0  0  0
 72147  1  0  0  0
 73 76  2  0  0  0
 73 81  1  0  0  0
 74 75  2  0  0  0
 74 83  1  0  0  0
 75 76  1  0  0  0
 75 82  1  0  0  0
 76 84  1  0  0  0
 77 78  1  0  0  0
 77 80  1  0  0  0
 77148  1  0  0  0
 77149  1  0  0  0
 78 86  1  0  0  0
 78150  1  0  0  0
 78151  1  0  0  0
 79 80  1  0  0  0
 79 86  1  0  0  0
 79152  1  0  0  0
 79153  1  0  0  0
 80154  1  0  0  0
 81155  1  0  0  0
 81156  1  0  0  0
 81157  1  0  0  0
 82158  1  0  0  0
 82159  1  0  0  0
 82160  1  0  0  0
 83 85  1  0  0  0
 83161  1  0  0  0
 83162  1  0  0  0
 84163  1  0  0  0
 84164  1  0  0  0
 84 86  1  0  0  0
 85165  1  0  0  0
 86166  1  0  0  0
M  CHG  1  86   1
M  ISO  4   1 100  68 101  80 101  85 100
M  END
> <chiral flag>
0

> <version>
0

> <s_m_source_file>
/data/baiqing/PycharmProjects/Reinvent-master-3.2/result/LINK_invent/BTK/process_docking_weight1_custom_product_contain_oxygen_bond_distance_aromatic_linkinvent_7_9_3/rearranged_h_0034.sdf

> <i_m_source_file_index>
7

> <r_mmod_Potential_Energy-OPLS-2005>
43.9677886962891

> <r_mmod_Stretch_Energy-OPLS-2005>
72.85498046875

> <r_mmod_Bend_Energy-OPLS-2005>
229.731063842773

> <r_mmod_Torsional_Energy-OPLS-2005>
323.313201904297

> <r_mmod_Improper_Torsional_Energy-OPLS-2005>
5.98915958404541

> <r_mmod_Van_der_Waal_Energy-OPLS-2005>
135.626937866211

> <r_mmod_Electrostatic_Energy-OPLS-2005>
-328.718383789062

> <r_mmod_Solvation_Energy-OPLS-2005>
-429.169403076172

> <b_mmod_Minimization_Converged-OPLS-2005>
0

> <r_mmod_RMS_Derivative-OPLS-2005>
8.10239028930664

$$$$
7
                    3D
 Structure written by MMmdl.
167176  0  0  1  0            999 V2000
  -30.5935  -14.6638   20.5786 C   0  0  0  0  0  0
  -30.4479  -12.4269   19.4622 C   0  0  0  0  0  0
  -29.5146  -12.5405   18.2355 C   0  0  0  0  0  0
  -28.0385  -12.3606   18.6412 C   0  0  0  0  0  0
  -27.6582  -13.2164   19.8768 C   0  0  2  0  0  0
  -28.6957  -13.0395   21.0074 C   0  0  0  0  0  0
  -25.2504  -13.8112   20.5517 C   0  0  0  0  0  0
  -24.1800  -13.0401   20.9107 C   0  0  0  0  0  0
  -24.6384  -11.6883   20.8710 C   0  0  0  0  0  0
  -23.9043  -10.4280   21.0394 C   0  0  0  0  0  0
  -24.3591   -9.4204   21.9177 C   0  0  0  0  0  0
  -23.6273   -8.2236   22.0746 C   0  0  0  0  0  0
  -22.4264   -8.0271   21.3531 C   0  0  0  0  0  0
  -21.9886   -9.0242   20.4637 C   0  0  0  0  0  0
  -22.7211  -10.2124   20.3049 C   0  0  0  0  0  0
  -21.6859   -6.0724   22.5278 C   0  0  0  0  0  0
  -21.4024   -6.5626   23.8216 C   0  0  0  0  0  0
  -21.3660   -5.6770   24.9175 C   0  0  0  0  0  0
  -21.6034   -4.3035   24.7228 C   0  0  0  0  0  0
  -21.8823   -3.8133   23.4350 C   0  0  0  0  0  0
  -21.9205   -4.6952   22.3404 C   0  0  0  0  0  0
  -22.7832  -13.5218   21.1791 C   0  0  0  0  0  0
  -22.1670   -4.2133   21.0988 F   0  0  0  0  0  0
  -21.5612   -3.4519   25.7742 F   0  0  0  0  0  0
  -30.0166  -13.4191   20.4727 N   0  0  0  0  0  0
  -26.2997  -12.9329   20.3336 N   0  0  0  0  0  0
  -25.9335  -11.6482   20.5784 N   0  0  0  0  0  0
  -22.0483  -12.8256   22.0380 N   0  0  0  0  0  0
  -25.4099  -15.1789   20.3697 N   0  0  0  0  0  0
  -31.6669  -14.9201   20.0212 O   0  0  0  0  0  0
  -21.6628   -6.8867   21.4241 O   0  0  0  0  0  0
  -22.3524  -14.5533   20.6657 O   0  0  0  0  0  0
  -24.6255  -31.8575   23.1990 C   0  0  0  0  0  0
  -25.9097  -32.4765   23.8328 C   0  0  1  0  0  0
  -27.2315  -27.3101   20.1304 C   0  0  0  0  0  0
  -25.5906  -33.8565   24.2262 N   0  0  0  0  0  0
  -23.4203  -30.4780   21.5419 C   0  0  2  0  0  0
  -24.8683  -28.9245   20.1140 C   0  0  0  0  0  0
  -22.7476  -29.4604   22.4935 C   0  0  0  0  0  0
  -18.0292  -28.1380   22.8498 C   0  0  0  0  0  0
  -24.1486  -36.7293   23.2644 C   0  0  0  0  0  0
  -25.9597  -30.7878   21.3681 C   0  0  0  0  0  0
  -26.0354  -29.4120   20.7152 C   0  0  0  0  0  0
  -27.2190  -28.6174   20.7093 C   0  0  0  0  0  0
  -26.0435  -26.8695   19.5071 C   0  0  0  0  0  0
  -24.8750  -27.6598   19.5007 C   0  0  0  0  0  0
  -23.6352  -29.8060   20.1595 C   0  0  0  0  0  0
  -25.4111  -36.3073   24.0331 C   0  0  1  0  0  0
  -20.5894  -28.3672   23.1301 C   0  0  2  0  0  0
  -20.6781  -26.9390   22.5431 C   0  0  0  0  0  0
  -19.5752  -26.6371   21.5233 C   0  0  0  0  0  0
  -18.1929  -26.7924   22.1636 C   0  0  0  0  0  0
  -19.1545  -28.8843   23.2897 C   0  0  0  0  0  0
  -18.9462  -30.1452   23.8902 C   0  0  0  0  0  0
  -17.6459  -30.6582   24.0563 C   0  0  0  0  0  0
  -25.9049  -34.9446   23.5101 C   0  0  0  0  0  0
  -16.5352  -29.9081   23.6328 C   0  0  0  0  0  0
  -16.7278  -28.6501   23.0347 C   0  0  0  0  0  0
  -26.4483  -31.6576   25.0704 C   0  0  0  0  0  0
  -25.3721  -31.3716   26.1435 C   0  0  0  0  0  0
  -27.0326  -30.2998   24.6151 C   0  0  0  0  0  0
  -27.6038  -32.4320   25.7477 C   0  0  0  0  0  0
  -27.5579  -37.1798   24.8463 C   0  0  0  0  0  0
  -21.4191  -29.3024   22.3690 N   0  0  0  0  0  0
  -26.4287  -37.3768   23.9408 N   0  0  0  0  0  0
  -24.6872  -31.0585   22.0933 N   0  0  0  0  0  0
  -23.4203  -28.8147   23.3013 O   0  0  0  0  0  0
  -28.3729  -26.4941   20.1641 O   0  0  0  0  0  0
  -26.5625  -34.8919   22.4677 O   0  0  0  0  0  0
  -23.5423  -32.1369   23.7324 O   0  0  0  0  0  0
  -27.9424  -16.7914   21.7206 C   0  0  0  0  0  0
  -29.7261  -18.1341   20.7740 C   0  0  0  0  0  0
  -27.1063  -17.9212   21.7833 C   0  0  0  0  0  0
  -28.8914  -19.3304   20.8396 C   0  0  0  0  0  0
  -27.5627  -19.1835   21.3370 C   0  0  0  0  0  0
  -29.2545  -16.8370   21.2128 C   0  0  0  0  0  0
  -29.8335  -23.2520   21.7245 C   0  0  0  0  0  0
  -29.2623  -24.4291   21.2691 C   0  0  0  0  0  0
  -30.7108  -23.3585   22.9667 C   0  0  0  0  0  0
  -30.5751  -22.0682   23.7750 C   0  0  0  0  0  0
  -29.8147  -21.1050   22.8744 C   0  0  0  0  0  0
  -25.7080  -17.7507   22.3654 C   0  0  0  0  0  0
  -26.5874  -20.3653   21.4082 C   0  0  0  0  0  0
  -29.3598  -20.7919   20.4161 C   0  0  0  0  0  0
  -28.2785  -25.0068   20.2170 C   0  0  0  0  0  0
  -29.9596  -15.5583   21.4015 N   0  0  0  0  0  0
  -29.8640  -21.7000   21.5225 N   0  3  2  0  0  0
  -31.4864  -12.5777   19.1622 H   0  0  0  0  0  0
  -30.4066  -11.4223   19.8854 H   0  0  0  0  0  0
  -29.7899  -11.8011   17.4824 H   0  0  0  0  0  0
  -29.6450  -13.5186   17.7692 H   0  0  0  0  0  0
  -27.8798  -11.3044   18.8648 H   0  0  0  0  0  0
  -27.3837  -12.5972   17.8014 H   0  0  0  0  0  0
  -27.6887  -14.2589   19.5597 H   0  0  0  0  0  0
  -28.7125  -12.0022   21.3449 H   0  0  0  0  0  0
  -28.4099  -13.6211   21.8839 H   0  0  0  0  0  0
  -25.2721   -9.5687   22.4768 H   0  0  0  0  0  0
  -23.9979   -7.4624   22.7464 H   0  0  0  0  0  0
  -21.0814   -8.8761   19.8943 H   0  0  0  0  0  0
  -22.3651  -10.9666   19.6172 H   0  0  0  0  0  0
  -21.2025   -7.6130   23.9720 H   0  0  0  0  0  0
  -21.1466   -6.0495   25.9074 H   0  0  0  0  0  0
  -22.0605   -2.7595   23.2859 H   0  0  0  0  0  0
  -22.4082  -11.9933   22.4797 H   0  0  0  0  0  0
  -21.1111  -13.1321   22.2573 H   0  0  0  0  0  0
  -24.6364  -15.8249   20.4806 H   0  0  0  0  0  0
  -26.2679  -15.6345   20.0870 H   0  0  0  0  0  0
  -26.7164  -32.5434   23.1079 H   0  0  0  0  0  0
  -25.0019  -33.9699   25.0381 H   0  0  0  0  0  0
  -22.7138  -31.2976   21.3962 H   0  0  0  0  0  0
  -23.3744  -35.9630   23.3304 H   0  0  0  0  0  0
  -24.3577  -36.8917   22.2060 H   0  0  0  0  0  0
  -23.7246  -37.6497   23.6670 H   0  0  0  0  0  0
  -26.0892  -31.5477   20.5962 H   0  0  0  0  0  0
  -26.8410  -30.8405   21.9962 H   0  0  0  0  0  0
  -28.1172  -28.9913   21.1812 H   0  0  0  0  0  0
  -26.0075  -25.9039   19.0243 H   0  0  0  0  0  0
  -23.9804  -27.2804   19.0268 H   0  0  0  0  0  0
  -23.7518  -30.5787   19.3984 H   0  0  0  0  0  0
  -22.7557  -29.2329   19.8609 H   0  0  0  0  0  0
  -25.1293  -36.1926   25.0823 H   0  0  0  0  0  0
  -20.9997  -28.3244   24.1416 H   0  0  0  0  0  0
  -20.5687  -26.2269   23.3626 H   0  0  0  0  0  0
  -21.6646  -26.7416   22.1214 H   0  0  0  0  0  0
  -19.6903  -25.6282   21.1253 H   0  0  0  0  0  0
  -19.6697  -27.3192   20.6772 H   0  0  0  0  0  0
  -17.4205  -26.6691   21.4027 H   0  0  0  0  0  0
  -18.0307  -26.0066   22.9028 H   0  0  0  0  0  0
  -19.7934  -30.7277   24.2263 H   0  0  0  0  0  0
  -17.5009  -31.6261   24.5165 H   0  0  0  0  0  0
  -15.5350  -30.2978   23.7648 H   0  0  0  0  0  0
  -15.8684  -28.0826   22.7046 H   0  0  0  0  0  0
  -24.5887  -30.7071   25.7767 H   0  0  0  0  0  0
  -24.8919  -32.2884   26.4865 H   0  0  0  0  0  0
  -25.8048  -30.8889   27.0207 H   0  0  0  0  0  0
  -26.2893  -29.6755   24.1174 H   0  0  0  0  0  0
  -27.4024  -29.7248   25.4651 H   0  0  0  0  0  0
  -27.8761  -30.4286   23.9367 H   0  0  0  0  0  0
  -27.2634  -33.3615   26.2052 H   0  0  0  0  0  0
  -28.3843  -32.6890   25.0305 H   0  0  0  0  0  0
  -28.0708  -31.8449   26.5394 H   0  0  0  0  0  0
  -28.2594  -38.0096   24.7503 H   0  0  0  0  0  0
  -28.1073  -36.2627   24.6290 H   0  0  0  0  0  0
  -27.2299  -37.1454   25.8866 H   0  0  0  0  0  0
  -20.9361  -29.8740   21.6905 H   0  0  0  0  0  0
  -26.0171  -38.2842   24.1406 H   0  0  0  0  0  0
  -27.5548  -15.8564   22.1004 H   0  0  0  0  0  0
  -30.7439  -18.2248   20.4207 H   0  0  0  0  0  0
  -29.5795  -25.2721   21.8648 H   0  0  0  0  0  0
  -30.4401  -24.2145   23.5868 H   0  0  0  0  0  0
  -31.7453  -23.5076   22.6528 H   0  0  0  0  0  0
  -30.0351  -22.2316   24.7089 H   0  0  0  0  0  0
  -31.5591  -21.6748   24.0328 H   0  0  0  0  0  0
  -28.7789  -21.0243   23.2042 H   0  0  0  0  0  0
  -30.2670  -20.1136   22.9190 H   0  0  0  0  0  0
  -25.5206  -16.7195   22.6641 H   0  0  0  0  0  0
  -24.9472  -18.0276   21.6345 H   0  0  0  0  0  0
  -25.5749  -18.3649   23.2558 H   0  0  0  0  0  0
  -25.8788  -20.3072   20.5810 H   0  0  0  0  0  0
  -27.0541  -21.3469   21.3772 H   0  0  0  0  0  0
  -26.0126  -20.3612   22.3333 H   0  0  0  0  0  0
  -28.5804  -21.2976   19.8478 H   0  0  0  0  0  0
  -30.1785  -20.6809   19.7060 H   0  0  0  0  0  0
  -27.2758  -24.6913   20.5091 H   0  0  0  0  0  0
  -28.4846  -24.5773   19.2365 H   0  0  0  0  0  0
  -29.4372  -14.9932   22.0536 H   0  0  0  0  0  0
  -30.8404  -21.5452   21.3241 H   0  0  0  0  0  0
  1 25  1  0  0  0
  1 30  2  0  0  0
  1 86  1  0  0  0
  2  3  1  0  0  0
  2 25  1  0  0  0
  2 88  1  0  0  0
  2 89  1  0  0  0
  3  4  1  0  0  0
  3 90  1  0  0  0
  3 91  1  0  0  0
  4  5  1  0  0  0
  4 92  1  0  0  0
  4 93  1  0  0  0
  5  6  1  0  0  0
  5 26  1  0  0  0
  5 94  1  0  0  0
  6 25  1  0  0  0
  6 95  1  0  0  0
  6 96  1  0  0  0
  7  8  2  0  0  0
  7 26  1  0  0  0
  7 29  1  0  0  0
  8  9  1  0  0  0
  8 22  1  0  0  0
  9 10  1  0  0  0
  9 27  2  0  0  0
 10 11  2  0  0  0
 10 15  1  0  0  0
 11 12  1  0  0  0
 11 97  1  0  0  0
 12 13  2  0  0  0
 12 98  1  0  0  0
 13 14  1  0  0  0
 13 31  1  0  0  0
 14 15  2  0  0  0
 14 99  1  0  0  0
 15100  1  0  0  0
 16 17  2  0  0  0
 16 21  1  0  0  0
 16 31  1  0  0  0
 17 18  1  0  0  0
 17101  1  0  0  0
 18 19  2  0  0  0
 18102  1  0  0  0
 19 20  1  0  0  0
 19 24  1  0  0  0
 20 21  2  0  0  0
 20103  1  0  0  0
 21 23  1  0  0  0
 22 28  1  0  0  0
 22 32  2  0  0  0
 26 27  1  0  0  0
 28104  1  0  0  0
 28105  1  0  0  0
 29106  1  0  0  0
 29107  1  0  0  0
 33 34  1  0  0  0
 33 66  1  0  0  0
 33 70  2  0  0  0
 34 36  1  0  0  0
 34 59  1  0  0  0
 34108  1  0  0  0
 35 44  2  0  0  0
 35 45  1  0  0  0
 35 68  1  0  0  0
 36 56  1  0  0  0
 36109  1  0  0  0
 37 39  1  0  0  0
 37 47  1  0  0  0
 37 66  1  0  0  0
 37110  1  0  0  0
 38 43  2  0  0  0
 38 46  1  0  0  0
 38 47  1  0  0  0
 39 64  1  0  0  0
 39 67  2  0  0  0
 40 52  1  0  0  0
 40 53  2  0  0  0
 40 58  1  0  0  0
 41111  1  0  0  0
 41112  1  0  0  0
 41113  1  0  0  0
 41 48  1  0  0  0
 42 43  1  0  0  0
 42 66  1  0  0  0
 42114  1  0  0  0
 42115  1  0  0  0
 43 44  1  0  0  0
 44116  1  0  0  0
 45 46  2  0  0  0
 45117  1  0  0  0
 46118  1  0  0  0
 47119  1  0  0  0
 47120  1  0  0  0
 48 56  1  0  0  0
 48 65  1  0  0  0
 48121  1  0  0  0
 49 50  1  0  0  0
 49 53  1  0  0  0
 49 64  1  0  0  0
 49122  1  0  0  0
 50 51  1  0  0  0
 50123  1  0  0  0
 50124  1  0  0  0
 51 52  1  0  0  0
 51125  1  0  0  0
 51126  1  0  0  0
 52127  1  0  0  0
 52128  1  0  0  0
 53 54  1  0  0  0
 54 55  2  0  0  0
 54129  1  0  0  0
 55 57  1  0  0  0
 55130  1  0  0  0
 56 69  2  0  0  0
 57 58  2  0  0  0
 57131  1  0  0  0
 58132  1  0  0  0
 59 60  1  0  0  0
 59 61  1  0  0  0
 59 62  1  0  0  0
 60133  1  0  0  0
 60134  1  0  0  0
 60135  1  0  0  0
 61136  1  0  0  0
 61137  1  0  0  0
 61138  1  0  0  0
 62139  1  0  0  0
 62140  1  0  0  0
 62141  1  0  0  0
 63 65  1  0  0  0
 63142  1  0  0  0
 63143  1  0  0  0
 63144  1  0  0  0
 64145  1  0  0  0
 65146  1  0  0  0
 68 85  1  0  0  0
 71 73  2  0  0  0
 71 76  1  0  0  0
 71147  1  0  0  0
 72 74  1  0  0  0
 72 76  2  0  0  0
 72148  1  0  0  0
 73 75  1  0  0  0
 73 82  1  0  0  0
 74 75  2  0  0  0
 74 84  1  0  0  0
 75 83  1  0  0  0
 76 86  1  0  0  0
 77 78  2  0  0  0
 77 79  1  0  0  0
 77 87  1  0  0  0
 78 85  1  0  0  0
 78149  1  0  0  0
 79 80  1  0  0  0
 79150  1  0  0  0
 79151  1  0  0  0
 80 81  1  0  0  0
 80152  1  0  0  0
 80153  1  0  0  0
 81 87  1  0  0  0
 81154  1  0  0  0
 81155  1  0  0  0
 82156  1  0  0  0
 82157  1  0  0  0
 82158  1  0  0  0
 83159  1  0  0  0
 83160  1  0  0  0
 83161  1  0  0  0
 84162  1  0  0  0
 84163  1  0  0  0
 84 87  1  0  0  0
 85164  1  0  0  0
 85165  1  0  0  0
 86166  1  0  0  0
 87167  1  0  0  0
M  CHG  1  87   1
M  ISO  4   1 100  68 101  85 101  86 100
M  END
> <chiral flag>
0

> <version>
0

> <s_m_source_file>
/data/baiqing/PycharmProjects/Reinvent-master-3.2/result/LINK_invent/BTK/process_docking_weight1_custom_product_contain_oxygen_bond_distance_aromatic_linkinvent_7_9_3/rearranged_h_0034.sdf

> <i_m_source_file_index>
8

> <r_mmod_Potential_Energy-OPLS-2005>
183.340255737305

> <r_mmod_Stretch_Energy-OPLS-2005>
101.774642944336

> <r_mmod_Bend_Energy-OPLS-2005>
326.936737060547

> <r_mmod_Torsional_Energy-OPLS-2005>
279.15625

> <r_mmod_Improper_Torsional_Energy-OPLS-2005>
7.28448104858398

> <r_mmod_Van_der_Waal_Energy-OPLS-2005>
140.086822509766

> <r_mmod_Electrostatic_Energy-OPLS-2005>
-296.788299560547

> <r_mmod_Solvation_Energy-OPLS-2005>
-430.070129394531

> <b_mmod_Minimization_Converged-OPLS-2005>
0

> <r_mmod_RMS_Derivative-OPLS-2005>
1.67083156108856

$$$$
8
                    3D
 Structure written by MMmdl.
170179  0  0  1  0            999 V2000
  -30.6299  -14.6577   20.4905 C   0  0  0  0  0  0
  -30.4358  -12.3999   19.4533 C   0  0  0  0  0  0
  -29.5010  -12.4964   18.2263 C   0  0  0  0  0  0
  -28.0227  -12.3436   18.6391 C   0  0  0  0  0  0
  -27.6510  -13.2175   19.8670 C   0  0  2  0  0  0
  -28.7024  -13.0866   20.9928 C   0  0  0  0  0  0
  -25.2550  -13.8202   20.5737 C   0  0  0  0  0  0
  -24.1815  -13.0451   20.9218 C   0  0  0  0  0  0
  -24.6393  -11.6932   20.8798 C   0  0  0  0  0  0
  -23.9058  -10.4303   21.0436 C   0  0  0  0  0  0
  -24.3601   -9.4203   21.9196 C   0  0  0  0  0  0
  -23.6280   -8.2233   22.0754 C   0  0  0  0  0  0
  -22.4274   -8.0276   21.3536 C   0  0  0  0  0  0
  -21.9903   -9.0257   20.4647 C   0  0  0  0  0  0
  -22.7236  -10.2137   20.3075 C   0  0  0  0  0  0
  -21.6828   -6.0746   22.5282 C   0  0  0  0  0  0
  -21.4003   -6.5645   23.8218 C   0  0  0  0  0  0
  -21.3661   -5.6791   24.9173 C   0  0  0  0  0  0
  -21.6038   -4.3053   24.7211 C   0  0  0  0  0  0
  -21.8813   -3.8156   23.4329 C   0  0  0  0  0  0
  -21.9179   -4.6980   22.3393 C   0  0  0  0  0  0
  -22.7840  -13.5258   21.1827 C   0  0  0  0  0  0
  -22.1660   -4.2184   21.0968 F   0  0  0  0  0  0
  -21.5618   -3.4515   25.7707 F   0  0  0  0  0  0
  -30.0143  -13.4329   20.4217 N   0  0  0  0  0  0
  -26.2989  -12.9381   20.3402 N   0  0  0  0  0  0
  -25.9326  -11.6547   20.5844 N   0  0  0  0  0  0
  -22.0453  -12.8293   22.0399 N   0  0  0  0  0  0
  -25.4228  -15.1917   20.4154 N   0  0  0  0  0  0
  -31.8000  -14.8091   20.1277 O   0  0  0  0  0  0
  -21.6628   -6.8886   21.4247 O   0  0  0  0  0  0
  -22.3542  -14.5545   20.6630 O   0  0  0  0  0  0
  -24.6285  -31.8626   23.2053 C   0  0  0  0  0  0
  -25.9135  -32.4800   23.8400 C   0  0  1  0  0  0
  -27.2196  -27.3080   20.1170 C   0  0  0  0  0  0
  -25.5969  -33.8598   24.2331 N   0  0  0  0  0  0
  -23.4216  -30.4861   21.5500 C   0  0  2  0  0  0
  -24.8668  -28.9415   20.1163 C   0  0  0  0  0  0
  -22.7489  -29.4625   22.4959 C   0  0  0  0  0  0
  -18.0323  -28.1347   22.8480 C   0  0  0  0  0  0
  -24.1484  -36.7273   23.2638 C   0  0  0  0  0  0
  -25.9640  -30.7866   21.3806 C   0  0  0  0  0  0
  -26.0366  -29.4103   20.7274 C   0  0  0  0  0  0
  -27.2163  -28.6045   20.7225 C   0  0  0  0  0  0
  -26.0356  -26.9147   19.4572 C   0  0  0  0  0  0
  -24.8685  -27.6961   19.4727 C   0  0  0  0  0  0
  -23.6372  -29.8261   20.1636 C   0  0  0  0  0  0
  -25.4104  -36.3090   24.0339 C   0  0  1  0  0  0
  -20.5922  -28.3653   23.1277 C   0  0  2  0  0  0
  -20.6834  -26.9395   22.5331 C   0  0  0  0  0  0
  -19.5811  -26.6402   21.5132 C   0  0  0  0  0  0
  -18.1978  -26.7949   22.1515 C   0  0  0  0  0  0
  -19.1571  -28.8804   23.2914 C   0  0  0  0  0  0
  -18.9485  -30.1393   23.8946 C   0  0  0  0  0  0
  -17.6487  -30.6544   24.0586 C   0  0  0  0  0  0
  -25.9036  -34.9463   23.5111 C   0  0  0  0  0  0
  -16.5375  -29.9052   23.6319 C   0  0  0  0  0  0
  -16.7312  -28.6471   23.0338 C   0  0  0  0  0  0
  -26.4511  -31.6609   25.0772 C   0  0  0  0  0  0
  -25.3755  -31.3755   26.1513 C   0  0  0  0  0  0
  -27.0357  -30.3046   24.6213 C   0  0  0  0  0  0
  -27.6075  -32.4326   25.7549 C   0  0  0  0  0  0
  -27.5575  -37.1797   24.8469 C   0  0  0  0  0  0
  -21.4204  -29.3048   22.3686 N   0  0  0  0  0  0
  -26.4294  -37.3777   23.9409 N   0  0  0  0  0  0
  -24.6908  -31.0610   22.1023 N   0  0  0  0  0  0
  -23.4203  -28.8159   23.3049 O   0  0  0  0  0  0
  -28.3389  -26.4575   20.1008 O   0  0  0  0  0  0
  -26.5574  -34.8915   22.4666 O   0  0  0  0  0  0
  -23.5436  -32.1422   23.7366 O   0  0  0  0  0  0
  -30.5062  -19.4603   21.2601 C   0  0  0  0  0  0
  -30.5533  -18.0460   21.4399 C   0  0  0  0  0  0
  -29.7930  -20.0790   20.1969 C   0  0  0  0  0  0
  -29.1323  -19.1832   19.2950 C   0  0  0  0  0  0
  -29.2195  -17.7516   19.4480 C   0  0  0  0  0  0
  -29.9277  -17.1514   20.5335 C   0  0  0  0  0  0
  -27.5436  -22.6904   20.5033 C   0  0  0  0  0  0
  -26.6758  -21.7372   20.9209 C   0  0  0  0  0  0
  -27.1831  -24.0955   20.0109 C   0  0  0  0  0  0
  -29.4671  -24.1125   20.5124 C   0  0  0  0  0  0
  -28.2211  -25.0586   20.6115 C   0  0  2  0  0  0
  -28.3001  -19.7536   18.1464 C   0  0  0  0  0  0
  -28.5370  -16.8401   18.4300 C   0  0  0  0  0  0
  -27.0727  -20.4837   21.6783 C   0  0  0  0  0  0
  -25.1722  -21.8544   20.7335 C   0  0  0  0  0  0
  -29.8766  -21.6499   19.9645 C   0  0  0  0  0  0
  -29.8223  -15.7180   20.8181 N   0  0  0  0  0  0
  -29.0285  -22.6741   20.7198 N   0  3  1  0  0  0
  -31.4769  -12.5167   19.1478 H   0  0  0  0  0  0
  -30.3695  -11.4093   19.9064 H   0  0  0  0  0  0
  -29.7603  -11.7295   17.4951 H   0  0  0  0  0  0
  -29.6431  -13.4564   17.7266 H   0  0  0  0  0  0
  -27.8460  -11.2906   18.8659 H   0  0  0  0  0  0
  -27.3699  -12.5852   17.7988 H   0  0  0  0  0  0
  -27.6619  -14.2482   19.5172 H   0  0  0  0  0  0
  -28.7221  -12.0681   21.3857 H   0  0  0  0  0  0
  -28.4528  -13.7239   21.8418 H   0  0  0  0  0  0
  -25.2739   -9.5668   22.4782 H   0  0  0  0  0  0
  -23.9976   -7.4619   22.7472 H   0  0  0  0  0  0
  -21.0834   -8.8793   19.8937 H   0  0  0  0  0  0
  -22.3713  -10.9681   19.6188 H   0  0  0  0  0  0
  -21.2014   -7.6154   23.9729 H   0  0  0  0  0  0
  -21.1485   -6.0524   25.9076 H   0  0  0  0  0  0
  -22.0592   -2.7622   23.2822 H   0  0  0  0  0  0
  -22.4037  -11.9974   22.4865 H   0  0  0  0  0  0
  -21.1047  -13.1325   22.2511 H   0  0  0  0  0  0
  -24.6513  -15.8440   20.5086 H   0  0  0  0  0  0
  -26.2771  -15.6331   20.1059 H   0  0  0  0  0  0
  -26.7201  -32.5462   23.1149 H   0  0  0  0  0  0
  -25.0250  -33.9755   25.0562 H   0  0  0  0  0  0
  -22.7153  -31.3078   21.4101 H   0  0  0  0  0  0
  -23.3765  -35.9590   23.3310 H   0  0  0  0  0  0
  -24.3578  -36.8872   22.2054 H   0  0  0  0  0  0
  -23.7211  -37.6468   23.6635 H   0  0  0  0  0  0
  -26.0851  -31.5461   20.6067 H   0  0  0  0  0  0
  -26.8474  -30.8414   22.0041 H   0  0  0  0  0  0
  -28.1140  -28.9647   21.2046 H   0  0  0  0  0  0
  -25.9913  -25.9992   18.8934 H   0  0  0  0  0  0
  -23.9809  -27.3396   18.9679 H   0  0  0  0  0  0
  -23.7634  -30.6067   19.4125 H   0  0  0  0  0  0
  -22.7556  -29.2616   19.8570 H   0  0  0  0  0  0
  -25.1279  -36.1962   25.0835 H   0  0  0  0  0  0
  -21.0023  -28.3156   24.1389 H   0  0  0  0  0  0
  -20.5824  -26.2199   23.3467 H   0  0  0  0  0  0
  -21.6691  -26.7484   22.1081 H   0  0  0  0  0  0
  -19.6963  -25.6333   21.1124 H   0  0  0  0  0  0
  -19.6804  -27.3230   20.6682 H   0  0  0  0  0  0
  -17.4315  -26.6877   21.3828 H   0  0  0  0  0  0
  -18.0264  -25.9993   22.8782 H   0  0  0  0  0  0
  -19.7977  -30.7173   24.2360 H   0  0  0  0  0  0
  -17.5048  -31.6210   24.5216 H   0  0  0  0  0  0
  -15.5373  -30.2945   23.7625 H   0  0  0  0  0  0
  -15.8726  -28.0794   22.6993 H   0  0  0  0  0  0
  -24.5921  -30.7101   25.7874 H   0  0  0  0  0  0
  -24.8958  -32.2926   26.4955 H   0  0  0  0  0  0
  -25.8099  -30.8956   27.0296 H   0  0  0  0  0  0
  -26.2952  -29.6802   24.1210 H   0  0  0  0  0  0
  -27.4041  -29.7298   25.4720 H   0  0  0  0  0  0
  -27.8817  -30.4355   23.9455 H   0  0  0  0  0  0
  -27.2705  -33.3620   26.2160 H   0  0  0  0  0  0
  -28.3893  -32.6903   25.0386 H   0  0  0  0  0  0
  -28.0746  -31.8442   26.5456 H   0  0  0  0  0  0
  -28.2599  -38.0089   24.7511 H   0  0  0  0  0  0
  -28.1060  -36.2620   24.6302 H   0  0  0  0  0  0
  -27.2290  -37.1459   25.8871 H   0  0  0  0  0  0
  -20.9385  -29.8712   21.6842 H   0  0  0  0  0  0
  -26.0182  -38.2856   24.1410 H   0  0  0  0  0  0
  -31.0310  -20.0842   21.9705 H   0  0  0  0  0  0
  -31.0703  -17.6472   22.3022 H   0  0  0  0  0  0
  -26.1855  -24.3706   20.3474 H   0  0  0  0  0  0
  -27.2047  -24.1047   18.9205 H   0  0  0  0  0  0
  -30.2440  -24.3912   21.2236 H   0  0  0  0  0  0
  -29.8935  -24.2135   19.5135 H   0  0  0  0  0  0
  -27.9852  -25.1615   21.6715 H   0  0  0  0  0  0
  -27.9554  -20.7688   18.3306 H   0  0  0  0  0  0
  -27.3896  -19.1740   17.9980 H   0  0  0  0  0  0
  -28.8646  -19.7518   17.2121 H   0  0  0  0  0  0
  -27.4965  -16.6739   18.7042 H   0  0  0  0  0  0
  -29.0284  -15.8725   18.3536 H   0  0  0  0  0  0
  -28.5656  -17.2541   17.4225 H   0  0  0  0  0  0
  -28.0525  -20.5621   22.1443 H   0  0  0  0  0  0
  -27.0551  -19.6163   21.0173 H   0  0  0  0  0  0
  -26.3674  -20.2904   22.4865 H   0  0  0  0  0  0
  -24.8862  -22.6017   19.9944 H   0  0  0  0  0  0
  -24.6987  -22.1157   21.6810 H   0  0  0  0  0  0
  -24.7647  -20.8968   20.4034 H   0  0  0  0  0  0
  -29.7833  -21.8573   18.8997 H   0  0  0  0  0  0
  -30.9115  -21.9104   20.1821 H   0  0  0  0  0  0
  -28.8911  -15.4243   21.0648 H   0  0  0  0  0  0
  -29.1886  -22.4820   21.6979 H   0  0  0  0  0  0
  1 25  1  0  0  0
  1 30  2  0  0  0
  1 87  1  0  0  0
  2  3  1  0  0  0
  2 25  1  0  0  0
  2 89  1  0  0  0
  2 90  1  0  0  0
  3  4  1  0  0  0
  3 91  1  0  0  0
  3 92  1  0  0  0
  4  5  1  0  0  0
  4 93  1  0  0  0
  4 94  1  0  0  0
  5  6  1  0  0  0
  5 26  1  0  0  0
  5 95  1  0  0  0
  6 25  1  0  0  0
  6 96  1  0  0  0
  6 97  1  0  0  0
  7  8  2  0  0  0
  7 26  1  0  0  0
  7 29  1  0  0  0
  8  9  1  0  0  0
  8 22  1  0  0  0
  9 10  1  0  0  0
  9 27  2  0  0  0
 10 11  2  0  0  0
 10 15  1  0  0  0
 11 12  1  0  0  0
 11 98  1  0  0  0
 12 13  2  0  0  0
 12 99  1  0  0  0
 13 14  1  0  0  0
 13 31  1  0  0  0
 14 15  2  0  0  0
 14100  1  0  0  0
 15101  1  0  0  0
 16 17  2  0  0  0
 16 21  1  0  0  0
 16 31  1  0  0  0
 17 18  1  0  0  0
 17102  1  0  0  0
 18 19  2  0  0  0
 18103  1  0  0  0
 19 20  1  0  0  0
 19 24  1  0  0  0
 20 21  2  0  0  0
 20104  1  0  0  0
 21 23  1  0  0  0
 22 28  1  0  0  0
 22 32  2  0  0  0
 26 27  1  0  0  0
 28105  1  0  0  0
 28106  1  0  0  0
 29107  1  0  0  0
 29108  1  0  0  0
 33 34  1  0  0  0
 33 66  1  0  0  0
 33 70  2  0  0  0
 34 36  1  0  0  0
 34 59  1  0  0  0
 34109  1  0  0  0
 35 44  2  0  0  0
 35 45  1  0  0  0
 35 68  1  0  0  0
 36 56  1  0  0  0
 36110  1  0  0  0
 37 39  1  0  0  0
 37 47  1  0  0  0
 37 66  1  0  0  0
 37111  1  0  0  0
 38 43  2  0  0  0
 38 46  1  0  0  0
 38 47  1  0  0  0
 39 64  1  0  0  0
 39 67  2  0  0  0
 40 52  1  0  0  0
 40 53  2  0  0  0
 40 58  1  0  0  0
 41112  1  0  0  0
 41113  1  0  0  0
 41114  1  0  0  0
 41 48  1  0  0  0
 42 43  1  0  0  0
 42 66  1  0  0  0
 42115  1  0  0  0
 42116  1  0  0  0
 43 44  1  0  0  0
 44117  1  0  0  0
 45 46  2  0  0  0
 45118  1  0  0  0
 46119  1  0  0  0
 47120  1  0  0  0
 47121  1  0  0  0
 48 56  1  0  0  0
 48 65  1  0  0  0
 48122  1  0  0  0
 49 50  1  0  0  0
 49 53  1  0  0  0
 49 64  1  0  0  0
 49123  1  0  0  0
 50 51  1  0  0  0
 50124  1  0  0  0
 50125  1  0  0  0
 51 52  1  0  0  0
 51126  1  0  0  0
 51127  1  0  0  0
 52128  1  0  0  0
 52129  1  0  0  0
 53 54  1  0  0  0
 54 55  2  0  0  0
 54130  1  0  0  0
 55 57  1  0  0  0
 55131  1  0  0  0
 56 69  2  0  0  0
 57 58  2  0  0  0
 57132  1  0  0  0
 58133  1  0  0  0
 59 60  1  0  0  0
 59 61  1  0  0  0
 59 62  1  0  0  0
 60134  1  0  0  0
 60135  1  0  0  0
 60136  1  0  0  0
 61137  1  0  0  0
 61138  1  0  0  0
 61139  1  0  0  0
 62140  1  0  0  0
 62141  1  0  0  0
 62142  1  0  0  0
 63 65  1  0  0  0
 63143  1  0  0  0
 63144  1  0  0  0
 63145  1  0  0  0
 64146  1  0  0  0
 65147  1  0  0  0
 68 81  1  0  0  0
 71 72  2  0  0  0
 71 73  1  0  0  0
 71148  1  0  0  0
 72 76  1  0  0  0
 72149  1  0  0  0
 73 74  2  0  0  0
 73 86  1  0  0  0
 74 75  1  0  0  0
 74 82  1  0  0  0
 75 76  2  0  0  0
 75 83  1  0  0  0
 76 87  1  0  0  0
 77 78  2  0  0  0
 77 79  1  0  0  0
 77 88  1  0  0  0
 78 84  1  0  0  0
 78 85  1  0  0  0
 79 81  1  0  0  0
 79150  1  0  0  0
 79151  1  0  0  0
 80 81  1  0  0  0
 80 88  1  0  0  0
 80152  1  0  0  0
 80153  1  0  0  0
 81154  1  0  0  0
 82155  1  0  0  0
 82156  1  0  0  0
 82157  1  0  0  0
 83158  1  0  0  0
 83159  1  0  0  0
 83160  1  0  0  0
 84161  1  0  0  0
 84162  1  0  0  0
 84163  1  0  0  0
 85164  1  0  0  0
 85165  1  0  0  0
 85166  1  0  0  0
 86167  1  0  0  0
 86168  1  0  0  0
 86 88  1  0  0  0
 87169  1  0  0  0
 88170  1  0  0  0
M  CHG  1  88   1
M  ISO  4   1 100  68 101  81 101  87 100
M  END
> <chiral flag>
0

> <version>
0

> <s_m_source_file>
/data/baiqing/PycharmProjects/Reinvent-master-3.2/result/LINK_invent/BTK/process_docking_weight1_custom_product_contain_oxygen_bond_distance_aromatic_linkinvent_7_9_3/rearranged_h_0034.sdf

> <i_m_source_file_index>
9

> <r_mmod_Potential_Energy-OPLS-2005>
2.62690567970276

> <r_mmod_Stretch_Energy-OPLS-2005>
88.5071792602539

> <r_mmod_Bend_Energy-OPLS-2005>
187.092422485352

> <r_mmod_Torsional_Energy-OPLS-2005>
281.157470703125

> <r_mmod_Improper_Torsional_Energy-OPLS-2005>
6.64124488830566

> <r_mmod_Van_der_Waal_Energy-OPLS-2005>
139.075668334961

> <r_mmod_Electrostatic_Energy-OPLS-2005>
-325.293426513672

> <r_mmod_Solvation_Energy-OPLS-2005>
-426.798858642578

> <b_mmod_Minimization_Converged-OPLS-2005>
0

> <r_mmod_RMS_Derivative-OPLS-2005>
3.13973116874695

$$$$
9
                    3D
 Structure written by MMmdl.
166175  0  0  1  0            999 V2000
  -30.5263  -14.7707   20.6275 C   0  0  0  0  0  0
  -30.4608  -12.5067   19.4940 C   0  0  0  0  0  0
  -29.5257  -12.5574   18.2606 C   0  0  0  0  0  0
  -28.0482  -12.3358   18.6507 C   0  0  0  0  0  0
  -27.6374  -13.2200   19.8591 C   0  0  2  0  0  0
  -28.6643  -13.1158   21.0048 C   0  0  0  0  0  0
  -25.2450  -13.8202   20.5661 C   0  0  0  0  0  0
  -24.1742  -13.0444   20.9167 C   0  0  0  0  0  0
  -24.6328  -11.6906   20.8693 C   0  0  0  0  0  0
  -23.9041  -10.4279   21.0368 C   0  0  0  0  0  0
  -24.3631   -9.4213   21.9161 C   0  0  0  0  0  0
  -23.6292   -8.2247   22.0753 C   0  0  0  0  0  0
  -22.4264   -8.0265   21.3554 C   0  0  0  0  0  0
  -21.9880   -9.0224   20.4665 C   0  0  0  0  0  0
  -22.7197  -10.2106   20.3050 C   0  0  0  0  0  0
  -21.6856   -6.0736   22.5267 C   0  0  0  0  0  0
  -21.3979   -6.5642   23.8200 C   0  0  0  0  0  0
  -21.3649   -5.6819   24.9164 C   0  0  0  0  0  0
  -21.6040   -4.3064   24.7208 C   0  0  0  0  0  0
  -21.8817   -3.8146   23.4327 C   0  0  0  0  0  0
  -21.9189   -4.6968   22.3391 C   0  0  0  0  0  0
  -22.7751  -13.5159   21.1856 C   0  0  0  0  0  0
  -22.1653   -4.2154   21.0963 F   0  0  0  0  0  0
  -21.5678   -3.4563   25.7728 F   0  0  0  0  0  0
  -29.9692  -13.5193   20.4614 N   0  0  0  0  0  0
  -26.2839  -12.9355   20.3216 N   0  0  0  0  0  0
  -25.9222  -11.6501   20.5637 N   0  0  0  0  0  0
  -22.0476  -12.8107   22.0440 N   0  0  0  0  0  0
  -25.4298  -15.1900   20.4051 N   0  0  0  0  0  0
  -31.6959  -14.9750   20.2842 O   0  0  0  0  0  0
  -21.6624   -6.8853   21.4221 O   0  0  0  0  0  0
  -22.3415  -14.5486   20.6702 O   0  0  0  0  0  0
  -24.6358  -31.8516   23.2019 C   0  0  0  0  0  0
  -25.9138  -32.4761   23.8392 C   0  0  1  0  0  0
  -27.2281  -27.2486   20.1405 C   0  0  0  0  0  0
  -25.5865  -33.8549   24.2274 N   0  0  0  0  0  0
  -23.4341  -30.4744   21.5431 C   0  0  2  0  0  0
  -24.8825  -28.9065   20.1200 C   0  0  0  0  0  0
  -22.7552  -29.4622   22.4954 C   0  0  0  0  0  0
  -18.0357  -28.1434   22.8444 C   0  0  0  0  0  0
  -24.1470  -36.7285   23.2657 C   0  0  0  0  0  0
  -25.9807  -30.7637   21.3777 C   0  0  0  0  0  0
  -26.0559  -29.3846   20.7126 C   0  0  0  0  0  0
  -27.2368  -28.5772   20.6932 C   0  0  0  0  0  0
  -26.0320  -26.8317   19.5203 C   0  0  0  0  0  0
  -24.8731  -27.6332   19.5185 C   0  0  0  0  0  0
  -23.6533  -29.8005   20.1642 C   0  0  0  0  0  0
  -25.4109  -36.3062   24.0351 C   0  0  1  0  0  0
  -20.5933  -28.3791   23.1270 C   0  0  2  0  0  0
  -20.6843  -26.9444   22.5588 C   0  0  0  0  0  0
  -19.5854  -26.6295   21.5379 C   0  0  0  0  0  0
  -18.2036  -26.7923   22.1695 C   0  0  0  0  0  0
  -19.1579  -28.8944   23.2813 C   0  0  0  0  0  0
  -18.9491  -30.1522   23.8841 C   0  0  0  0  0  0
  -17.6478  -30.6615   24.0500 C   0  0  0  0  0  0
  -25.9055  -34.9435   23.5147 C   0  0  0  0  0  0
  -16.5384  -29.9101   23.6255 C   0  0  0  0  0  0
  -16.7317  -28.6514   23.0326 C   0  0  0  0  0  0
  -26.4453  -31.6596   25.0816 C   0  0  0  0  0  0
  -25.3705  -31.3741   26.1607 C   0  0  0  0  0  0
  -27.0297  -30.3015   24.6292 C   0  0  0  0  0  0
  -27.5966  -32.4405   25.7544 C   0  0  0  0  0  0
  -27.5579  -37.1793   24.8482 C   0  0  0  0  0  0
  -21.4262  -29.3095   22.3641 N   0  0  0  0  0  0
  -26.4284  -37.3768   23.9425 N   0  0  0  0  0  0
  -24.7016  -31.0456   22.0973 N   0  0  0  0  0  0
  -23.4225  -28.8215   23.3116 O   0  0  0  0  0  0
  -28.3285  -26.3583   20.1641 O   0  0  0  0  0  0
  -26.5639  -34.8884   22.4719 O   0  0  0  0  0  0
  -23.5479  -32.1343   23.7286 O   0  0  0  0  0  0
  -30.1067  -18.4140   19.4198 C   0  0  0  0  0  0
  -29.5962  -18.5377   20.7081 C   0  0  0  0  0  0
  -29.1321  -19.8766   21.1203 C   0  0  0  0  0  0
  -29.6205  -20.7766   18.9099 C   0  0  0  0  0  0
  -29.2336  -21.0824   20.2598 C   0  0  0  0  0  0
  -30.1019  -19.4929   18.5340 C   0  0  0  0  0  0
  -29.6461  -23.1899   21.7469 C   0  0  0  0  0  0
  -30.6199  -22.8177   22.6132 C   0  0  0  0  0  0
  -29.2159  -24.6694   21.7793 C   0  0  0  0  0  0
  -28.3896  -23.6002   19.8591 C   0  0  0  0  0  0
  -28.1717  -24.9428   20.6969 C   0  0  2  0  0  0
  -28.5435  -20.0063   22.5222 C   0  0  0  0  0  0
  -29.5801  -21.8085   17.7903 C   0  0  0  0  0  0
  -31.4176  -21.5343   22.7417 C   0  0  0  0  0  0
  -29.7250  -17.2240   21.5993 C   0  0  0  0  0  0
  -29.0198  -22.4941   20.6950 N   0  0  0  0  0  0
  -29.6639  -15.7757   21.0710 N   0  0  0  0  0  0
  -30.7810  -19.1954   16.9704 Cl  0  0  0  0  0  0
  -31.4912  -12.7028   19.1879 H   0  0  0  0  0  0
  -30.4690  -11.5174   19.9557 H   0  0  0  0  0  0
  -29.8390  -11.8421   17.4963 H   0  0  0  0  0  0
  -29.6194  -13.5449   17.8039 H   0  0  0  0  0  0
  -27.8950  -11.2783   18.8830 H   0  0  0  0  0  0
  -27.4130  -12.5590   17.7912 H   0  0  0  0  0  0
  -27.6450  -14.2460   19.4878 H   0  0  0  0  0  0
  -28.7140  -12.1012   21.3961 H   0  0  0  0  0  0
  -28.3580  -13.7421   21.8488 H   0  0  0  0  0  0
  -25.2787   -9.5669   22.4714 H   0  0  0  0  0  0
  -24.0022   -7.4634   22.7437 H   0  0  0  0  0  0
  -21.0839   -8.8668   19.8971 H   0  0  0  0  0  0
  -22.3621  -10.9610   19.6153 H   0  0  0  0  0  0
  -21.1926   -7.6147   23.9664 H   0  0  0  0  0  0
  -21.1506   -6.0568   25.9078 H   0  0  0  0  0  0
  -22.0615   -2.7600   23.2813 H   0  0  0  0  0  0
  -22.4153  -11.9765   22.4780 H   0  0  0  0  0  0
  -21.1126  -13.1112   22.2788 H   0  0  0  0  0  0
  -24.6743  -15.8588   20.4940 H   0  0  0  0  0  0
  -26.2834  -15.6069   20.0640 H   0  0  0  0  0  0
  -26.7195  -32.5379   23.1120 H   0  0  0  0  0  0
  -24.9878  -33.9640   25.0317 H   0  0  0  0  0  0
  -22.7333  -31.2992   21.4004 H   0  0  0  0  0  0
  -23.3719  -35.9619   23.3319 H   0  0  0  0  0  0
  -24.3547  -36.8931   22.2072 H   0  0  0  0  0  0
  -23.7246  -37.6493   23.6677 H   0  0  0  0  0  0
  -26.1205  -31.5248   20.6110 H   0  0  0  0  0  0
  -26.8581  -30.8056   22.0116 H   0  0  0  0  0  0
  -28.1441  -28.9561   21.1377 H   0  0  0  0  0  0
  -25.9897  -25.8614   19.0487 H   0  0  0  0  0  0
  -23.9696  -27.2525   19.0619 H   0  0  0  0  0  0
  -23.7774  -30.5796   19.4120 H   0  0  0  0  0  0
  -22.7673  -29.2404   19.8691 H   0  0  0  0  0  0
  -25.1256  -36.1883   25.0837 H   0  0  0  0  0  0
  -21.0022  -28.3493   24.1401 H   0  0  0  0  0  0
  -20.5641  -26.2476   23.3917 H   0  0  0  0  0  0
  -21.6741  -26.7382   22.1485 H   0  0  0  0  0  0
  -19.6975  -25.6169   21.1554 H   0  0  0  0  0  0
  -19.6730  -27.2983   20.6804 H   0  0  0  0  0  0
  -17.4399  -26.6693   21.4025 H   0  0  0  0  0  0
  -18.0346  -26.0092   22.9106 H   0  0  0  0  0  0
  -19.7953  -30.7392   24.2146 H   0  0  0  0  0  0
  -17.5050  -31.6261   24.5151 H   0  0  0  0  0  0
  -15.5415  -30.3066   23.7596 H   0  0  0  0  0  0
  -15.8748  -28.0774   22.7172 H   0  0  0  0  0  0
  -24.5848  -30.7082   25.8032 H   0  0  0  0  0  0
  -24.8933  -32.2908   26.5094 H   0  0  0  0  0  0
  -25.8115  -30.8931   27.0368 H   0  0  0  0  0  0
  -26.2873  -29.6827   24.1255 H   0  0  0  0  0  0
  -27.3913  -29.7238   25.4815 H   0  0  0  0  0  0
  -27.8775  -30.4343   23.9579 H   0  0  0  0  0  0
  -27.2487  -33.3705   26.2065 H   0  0  0  0  0  0
  -28.3727  -32.7038   25.0341 H   0  0  0  0  0  0
  -28.0688  -31.8648   26.5522 H   0  0  0  0  0  0
  -28.2592  -38.0084   24.7495 H   0  0  0  0  0  0
  -28.1055  -36.2620   24.6290 H   0  0  0  0  0  0
  -27.2303  -37.1463   25.8885 H   0  0  0  0  0  0
  -20.9519  -29.8657   21.6657 H   0  0  0  0  0  0
  -26.0153  -38.2830   24.1388 H   0  0  0  0  0  0
  -30.5228  -17.4715   19.1028 H   0  0  0  0  0  0
  -30.9185  -23.5739   23.3273 H   0  0  0  0  0  0
  -30.0955  -25.2864   21.5772 H   0  0  0  0  0  0
  -28.8405  -24.9666   22.7563 H   0  0  0  0  0  0
  -29.0675  -23.8677   19.0502 H   0  0  0  0  0  0
  -27.4391  -23.2838   19.4150 H   0  0  0  0  0  0
  -27.1998  -24.8764   21.1904 H   0  0  0  0  0  0
  -27.4986  -19.6914   22.5645 H   0  0  0  0  0  0
  -28.5641  -21.0301   22.8735 H   0  0  0  0  0  0
  -29.1102  -19.4286   23.2550 H   0  0  0  0  0  0
  -28.6280  -22.3285   17.7946 H   0  0  0  0  0  0
  -29.5590  -21.3907   16.7831 H   0  0  0  0  0  0
  -30.4252  -22.4920   17.8700 H   0  0  0  0  0  0
  -31.1569  -20.9917   23.6565 H   0  0  0  0  0  0
  -32.4813  -21.7836   22.7849 H   0  0  0  0  0  0
  -31.2905  -20.8775   21.8885 H   0  0  0  0  0  0
  -30.5914  -17.3616   22.2448 H   0  0  0  0  0  0
  -28.8801  -17.2660   22.2842 H   0  0  0  0  0  0
  -28.7647  -15.3692   21.2716 H   0  0  0  0  0  0
  1 25  1  0  0  0
  1 30  2  0  0  0
  1 87  1  0  0  0
  2  3  1  0  0  0
  2 25  1  0  0  0
  2 89  1  0  0  0
  2 90  1  0  0  0
  3  4  1  0  0  0
  3 91  1  0  0  0
  3 92  1  0  0  0
  4  5  1  0  0  0
  4 93  1  0  0  0
  4 94  1  0  0  0
  5  6  1  0  0  0
  5 26  1  0  0  0
  5 95  1  0  0  0
  6 25  1  0  0  0
  6 96  1  0  0  0
  6 97  1  0  0  0
  7  8  2  0  0  0
  7 26  1  0  0  0
  7 29  1  0  0  0
  8  9  1  0  0  0
  8 22  1  0  0  0
  9 10  1  0  0  0
  9 27  2  0  0  0
 10 11  2  0  0  0
 10 15  1  0  0  0
 11 12  1  0  0  0
 11 98  1  0  0  0
 12 13  2  0  0  0
 12 99  1  0  0  0
 13 14  1  0  0  0
 13 31  1  0  0  0
 14 15  2  0  0  0
 14100  1  0  0  0
 15101  1  0  0  0
 16 17  2  0  0  0
 16 21  1  0  0  0
 16 31  1  0  0  0
 17 18  1  0  0  0
 17102  1  0  0  0
 18 19  2  0  0  0
 18103  1  0  0  0
 19 20  1  0  0  0
 19 24  1  0  0  0
 20 21  2  0  0  0
 20104  1  0  0  0
 21 23  1  0  0  0
 22 28  1  0  0  0
 22 32  2  0  0  0
 26 27  1  0  0  0
 28105  1  0  0  0
 28106  1  0  0  0
 29107  1  0  0  0
 29108  1  0  0  0
 33 34  1  0  0  0
 33 66  1  0  0  0
 33 70  2  0  0  0
 34 36  1  0  0  0
 34 59  1  0  0  0
 34109  1  0  0  0
 35 44  2  0  0  0
 35 45  1  0  0  0
 35 68  1  0  0  0
 36 56  1  0  0  0
 36110  1  0  0  0
 37 39  1  0  0  0
 37 47  1  0  0  0
 37 66  1  0  0  0
 37111  1  0  0  0
 38 43  2  0  0  0
 38 46  1  0  0  0
 38 47  1  0  0  0
 39 64  1  0  0  0
 39 67  2  0  0  0
 40 52  1  0  0  0
 40 53  2  0  0  0
 40 58  1  0  0  0
 41112  1  0  0  0
 41113  1  0  0  0
 41114  1  0  0  0
 41 48  1  0  0  0
 42 43  1  0  0  0
 42 66  1  0  0  0
 42115  1  0  0  0
 42116  1  0  0  0
 43 44  1  0  0  0
 44117  1  0  0  0
 45 46  2  0  0  0
 45118  1  0  0  0
 46119  1  0  0  0
 47120  1  0  0  0
 47121  1  0  0  0
 48 56  1  0  0  0
 48 65  1  0  0  0
 48122  1  0  0  0
 49 50  1  0  0  0
 49 53  1  0  0  0
 49 64  1  0  0  0
 49123  1  0  0  0
 50 51  1  0  0  0
 50124  1  0  0  0
 50125  1  0  0  0
 51 52  1  0  0  0
 51126  1  0  0  0
 51127  1  0  0  0
 52128  1  0  0  0
 52129  1  0  0  0
 53 54  1  0  0  0
 54 55  2  0  0  0
 54130  1  0  0  0
 55 57  1  0  0  0
 55131  1  0  0  0
 56 69  2  0  0  0
 57 58  2  0  0  0
 57132  1  0  0  0
 58133  1  0  0  0
 59 60  1  0  0  0
 59 61  1  0  0  0
 59 62  1  0  0  0
 60134  1  0  0  0
 60135  1  0  0  0
 60136  1  0  0  0
 61137  1  0  0  0
 61138  1  0  0  0
 61139  1  0  0  0
 62140  1  0  0  0
 62141  1  0  0  0
 62142  1  0  0  0
 63 65  1  0  0  0
 63143  1  0  0  0
 63144  1  0  0  0
 63145  1  0  0  0
 64146  1  0  0  0
 65147  1  0  0  0
 68 81  1  0  0  0
 71 72  2  0  0  0
 71 76  1  0  0  0
 71148  1  0  0  0
 72 73  1  0  0  0
 72 85  1  0  0  0
 73 75  2  0  0  0
 73 82  1  0  0  0
 74 75  1  0  0  0
 74 76  2  0  0  0
 74 83  1  0  0  0
 75 86  1  0  0  0
 76 88  1  0  0  0
 77 78  2  0  0  0
 77 79  1  0  0  0
 77 86  1  0  0  0
 78 84  1  0  0  0
 78149  1  0  0  0
 79 81  1  0  0  0
 79150  1  0  0  0
 79151  1  0  0  0
 80 81  1  0  0  0
 80 86  1  0  0  0
 80152  1  0  0  0
 80153  1  0  0  0
 81154  1  0  0  0
 82155  1  0  0  0
 82156  1  0  0  0
 82157  1  0  0  0
 83158  1  0  0  0
 83159  1  0  0  0
 83160  1  0  0  0
 84161  1  0  0  0
 84162  1  0  0  0
 84163  1  0  0  0
 85 87  1  0  0  0
 85164  1  0  0  0
 85165  1  0  0  0
 87166  1  0  0  0
M  ISO  4   1 100  68 101  81 101  87 100
M  END
> <chiral flag>
0

> <version>
0

> <s_m_source_file>
/data/baiqing/PycharmProjects/Reinvent-master-3.2/result/LINK_invent/BTK/process_docking_weight1_custom_product_contain_oxygen_bond_distance_aromatic_linkinvent_7_9_3/rearranged_h_0034.sdf

> <i_m_source_file_index>
10

> <r_mmod_Potential_Energy-OPLS-2005>
287.431396484375

> <r_mmod_Stretch_Energy-OPLS-2005>
158.226974487305

> <r_mmod_Bend_Energy-OPLS-2005>
268.331024169922

> <r_mmod_Torsional_Energy-OPLS-2005>
262.221099853516

> <r_mmod_Improper_Torsional_Energy-OPLS-2005>
4.81028509140015

> <r_mmod_Van_der_Waal_Energy-OPLS-2005>
154.576522827148

> <r_mmod_Electrostatic_Energy-OPLS-2005>
-454.801239013672

> <r_mmod_Solvation_Energy-OPLS-2005>
-208.514083862305

> <b_mmod_Minimization_Converged-OPLS-2005>
0

> <r_mmod_RMS_Derivative-OPLS-2005>
10.6371145248413

$$$$
10
                    3D
 Structure written by MMmdl.
159167  0  0  1  0            999 V2000
  -30.6367  -14.6261   20.4900 C   0  0  0  0  0  0
  -30.4329  -12.3794   19.4437 C   0  0  0  0  0  0
  -29.5018  -12.4940   18.2135 C   0  0  0  0  0  0
  -28.0289  -12.3499   18.6314 C   0  0  0  0  0  0
  -27.6585  -13.2197   19.8609 C   0  0  2  0  0  0
  -28.7056  -13.0700   20.9902 C   0  0  0  0  0  0
  -25.2607  -13.8120   20.5616 C   0  0  0  0  0  0
  -24.1859  -13.0417   20.9113 C   0  0  0  0  0  0
  -24.6435  -11.6883   20.8724 C   0  0  0  0  0  0
  -23.9081  -10.4283   21.0377 C   0  0  0  0  0  0
  -24.3604   -9.4211   21.9177 C   0  0  0  0  0  0
  -23.6254   -8.2279   22.0793 C   0  0  0  0  0  0
  -22.4255   -8.0281   21.3559 C   0  0  0  0  0  0
  -21.9880   -9.0279   20.4686 C   0  0  0  0  0  0
  -22.7244  -10.2136   20.3049 C   0  0  0  0  0  0
  -21.6880   -6.0686   22.5234 C   0  0  0  0  0  0
  -21.4054   -6.5610   23.8153 C   0  0  0  0  0  0
  -21.3662   -5.6761   24.9123 C   0  0  0  0  0  0
  -21.6044   -4.3017   24.7184 C   0  0  0  0  0  0
  -21.8830   -3.8096   23.4314 C   0  0  0  0  0  0
  -21.9210   -4.6916   22.3369 C   0  0  0  0  0  0
  -22.7895  -13.5241   21.1735 C   0  0  0  0  0  0
  -22.1692   -4.2105   21.0951 F   0  0  0  0  0  0
  -21.5614   -3.4514   25.7706 F   0  0  0  0  0  0
  -30.0240  -13.4018   20.4290 N   0  0  0  0  0  0
  -26.3043  -12.9340   20.3292 N   0  0  0  0  0  0
  -25.9360  -11.6483   20.5709 N   0  0  0  0  0  0
  -22.0505  -12.8313   22.0314 N   0  0  0  0  0  0
  -25.4271  -15.1829   20.3997 N   0  0  0  0  0  0
  -31.7847  -14.7903   20.0716 O   0  0  0  0  0  0
  -21.6659   -6.8854   21.4211 O   0  0  0  0  0  0
  -22.3636  -14.5562   20.6554 O   0  0  0  0  0  0
  -24.6246  -31.8605   23.2101 C   0  0  0  0  0  0
  -25.9120  -32.4821   23.8378 C   0  0  1  0  0  0
  -27.2204  -27.3310   20.1259 C   0  0  0  0  0  0
  -25.5972  -33.8622   24.2329 N   0  0  0  0  0  0
  -23.4149  -30.4837   21.5484 C   0  0  2  0  0  0
  -24.8644  -28.9374   20.1164 C   0  0  0  0  0  0
  -22.7448  -29.4608   22.4980 C   0  0  0  0  0  0
  -18.0312  -28.1236   22.8495 C   0  0  0  0  0  0
  -24.1483  -36.7256   23.2618 C   0  0  0  0  0  0
  -25.9533  -30.7968   21.3771 C   0  0  0  0  0  0
  -26.0331  -29.4219   20.7226 C   0  0  0  0  0  0
  -27.2159  -28.6292   20.7175 C   0  0  0  0  0  0
  -26.0366  -26.9012   19.4893 C   0  0  0  0  0  0
  -24.8663  -27.6793   19.4977 C   0  0  0  0  0  0
  -23.6324  -29.8172   20.1648 C   0  0  0  0  0  0
  -25.4120  -36.3094   24.0318 C   0  0  1  0  0  0
  -20.5890  -28.3624   23.1315 C   0  0  2  0  0  0
  -20.6856  -26.9350   22.5377 C   0  0  0  0  0  0
  -19.5837  -26.6311   21.5190 C   0  0  0  0  0  0
  -18.2011  -26.7816   22.1541 C   0  0  0  0  0  0
  -19.1530  -28.8743   23.2913 C   0  0  0  0  0  0
  -18.9431  -30.1355   23.8899 C   0  0  0  0  0  0
  -17.6419  -30.6478   24.0484 C   0  0  0  0  0  0
  -25.9051  -34.9464   23.5105 C   0  0  0  0  0  0
  -16.5338  -29.8937   23.6259 C   0  0  0  0  0  0
  -16.7297  -28.6330   23.0339 C   0  0  0  0  0  0
  -26.4531  -31.6656   25.0721 C   0  0  0  0  0  0
  -25.3736  -31.3803   26.1413 C   0  0  0  0  0  0
  -27.0331  -30.3095   24.6135 C   0  0  0  0  0  0
  -27.6112  -32.4355   25.7497 C   0  0  0  0  0  0
  -27.5595  -37.1774   24.8460 C   0  0  0  0  0  0
  -21.4159  -29.3045   22.3762 N   0  0  0  0  0  0
  -26.4299  -37.3771   23.9412 N   0  0  0  0  0  0
  -24.6823  -31.0611   22.1060 N   0  0  0  0  0  0
  -23.4194  -28.8140   23.3029 O   0  0  0  0  0  0
  -28.3353  -26.4864   20.1321 O   0  0  0  0  0  0
  -26.5567  -34.8905   22.4631 O   0  0  0  0  0  0
  -23.5428  -32.1429   23.7444 O   0  0  0  0  0  0
  -29.7850  -19.0153   19.0042 C   0  0  0  0  0  0
  -29.4835  -18.0479   21.5864 C   0  0  0  0  0  0
  -29.9658  -17.6242   19.2563 C   0  0  0  0  0  0
  -29.4031  -19.9527   19.9996 C   0  0  0  0  0  0
  -29.8372  -17.0992   20.5781 C   0  0  0  0  0  0
  -29.2551  -19.4321   21.3114 C   0  0  0  0  0  0
  -30.2236  -16.7412   18.0390 C   0  0  0  0  0  0
  -28.3623  -25.1167   22.1290 C   0  0  0  0  0  0
  -29.0617  -21.4184   19.5398 C   0  0  0  0  0  0
  -29.0150  -23.9735   19.8747 C   0  0  0  0  0  0
  -28.1448  -25.0920   20.6051 C   0  0  1  0  0  0
  -29.8625  -15.6710   20.9181 N   0  0  0  0  0  0
  -29.0223  -22.5825   20.5016 N   0  3  0  0  0  0
  -28.8725  -20.2552   22.3195 F   0  0  0  0  0  0
  -31.4782  -12.4849   19.1405 H   0  0  0  0  0  0
  -30.3545  -11.3851   19.8863 H   0  0  0  0  0  0
  -29.7493  -11.7174   17.4901 H   0  0  0  0  0  0
  -29.6598  -13.4409   17.7010 H   0  0  0  0  0  0
  -27.8618  -11.3002   18.8674 H   0  0  0  0  0  0
  -27.3777  -12.5772   17.7881 H   0  0  0  0  0  0
  -27.6730  -14.2595   19.5253 H   0  0  0  0  0  0
  -28.7069  -12.0501   21.3755 H   0  0  0  0  0  0
  -28.4567  -13.7048   21.8430 H   0  0  0  0  0  0
  -25.2759   -9.5670   22.4727 H   0  0  0  0  0  0
  -23.9926   -7.4706   22.7562 H   0  0  0  0  0  0
  -21.0755   -8.8815   19.9045 H   0  0  0  0  0  0
  -22.3689  -10.9662   19.6134 H   0  0  0  0  0  0
  -21.2074   -7.6123   23.9630 H   0  0  0  0  0  0
  -21.1484   -6.0509   25.9024 H   0  0  0  0  0  0
  -22.0603   -2.7563   23.2815 H   0  0  0  0  0  0
  -22.4123  -12.0022   22.4781 H   0  0  0  0  0  0
  -21.1161  -13.1452   22.2509 H   0  0  0  0  0  0
  -24.6368  -15.8136   20.4583 H   0  0  0  0  0  0
  -26.2464  -15.6132   19.9946 H   0  0  0  0  0  0
  -26.7163  -32.5488   23.1107 H   0  0  0  0  0  0
  -25.0287  -33.9770   25.0597 H   0  0  0  0  0  0
  -22.7070  -31.3030   21.4085 H   0  0  0  0  0  0
  -23.3754  -35.9561   23.3275 H   0  0  0  0  0  0
  -24.3619  -36.8876   22.2039 H   0  0  0  0  0  0
  -23.7187  -37.6431   23.6647 H   0  0  0  0  0  0
  -26.0723  -31.5617   20.6082 H   0  0  0  0  0  0
  -26.8434  -30.8531   21.9967 H   0  0  0  0  0  0
  -28.1118  -28.9940   21.1967 H   0  0  0  0  0  0
  -26.0076  -25.9510   18.9755 H   0  0  0  0  0  0
  -23.9695  -27.3096   19.0189 H   0  0  0  0  0  0
  -23.7583  -30.5899   19.4044 H   0  0  0  0  0  0
  -22.7568  -29.2449   19.8612 H   0  0  0  0  0  0
  -25.1287  -36.1923   25.0799 H   0  0  0  0  0  0
  -20.9920  -28.3091   24.1454 H   0  0  0  0  0  0
  -20.5846  -26.2149   23.3523 H   0  0  0  0  0  0
  -21.6701  -26.7422   22.1120 H   0  0  0  0  0  0
  -19.6993  -25.6261   21.1133 H   0  0  0  0  0  0
  -19.6806  -27.3171   20.6763 H   0  0  0  0  0  0
  -17.4371  -26.6681   21.3827 H   0  0  0  0  0  0
  -18.0324  -25.9856   22.8809 H   0  0  0  0  0  0
  -19.7899  -30.7169   24.2265 H   0  0  0  0  0  0
  -17.4933  -31.6176   24.5016 H   0  0  0  0  0  0
  -15.5325  -30.2801   23.7509 H   0  0  0  0  0  0
  -15.8720  -28.0607   22.6979 H   0  0  0  0  0  0
  -24.5902  -30.7196   25.7665 H   0  0  0  0  0  0
  -24.8928  -32.2990   26.4821 H   0  0  0  0  0  0
  -25.8013  -30.8949   27.0195 H   0  0  0  0  0  0
  -26.2877  -29.6899   24.1133 H   0  0  0  0  0  0
  -27.4007  -29.7331   25.4621 H   0  0  0  0  0  0
  -27.8776  -30.4413   23.9366 H   0  0  0  0  0  0
  -27.2795  -33.3643   26.2159 H   0  0  0  0  0  0
  -28.3928  -32.6950   25.0338 H   0  0  0  0  0  0
  -28.0784  -31.8403   26.5363 H   0  0  0  0  0  0
  -28.2557  -38.0121   24.7571 H   0  0  0  0  0  0
  -28.1152  -36.2652   24.6220 H   0  0  0  0  0  0
  -27.2327  -37.1333   25.8861 H   0  0  0  0  0  0
  -20.9313  -29.8816   21.7022 H   0  0  0  0  0  0
  -26.0174  -38.2803   24.1498 H   0  0  0  0  0  0
  -29.8813  -19.3663   17.9857 H   0  0  0  0  0  0
  -29.3367  -17.7095   22.6006 H   0  0  0  0  0  0
  -29.7857  -15.7507   18.1370 H   0  0  0  0  0  0
  -31.2942  -16.6474   17.8545 H   0  0  0  0  0  0
  -29.7761  -17.1875   17.1496 H   0  0  0  0  0  0
  -28.1410  -24.1495   22.5774 H   0  0  0  0  0  0
  -27.6858  -25.8301   22.6061 H   0  0  0  0  0  0
  -29.3885  -25.3858   22.3970 H   0  0  0  0  0  0
  -28.0835  -21.3650   19.0553 H   0  0  0  0  0  0
  -29.7648  -21.6723   18.7404 H   0  0  0  0  0  0
  -30.0566  -24.2982   19.7895 H   0  0  0  0  0  0
  -28.6574  -23.8844   18.8439 H   0  0  0  0  0  0
  -27.1074  -24.7856   20.4630 H   0  0  0  0  0  0
  -29.0659  -15.3667   21.4528 H   0  0  0  0  0  0
  -29.8179  -22.5177   21.1205 H   0  0  0  0  0  0
  -28.1927  -22.4802   21.0662 H   0  0  0  0  0  0
  1 25  1  0  0  0
  1 30  2  0  0  0
  1 82  1  0  0  0
  2  3  1  0  0  0
  2 25  1  0  0  0
  2 85  1  0  0  0
  2 86  1  0  0  0
  3  4  1  0  0  0
  3 87  1  0  0  0
  3 88  1  0  0  0
  4  5  1  0  0  0
  4 89  1  0  0  0
  4 90  1  0  0  0
  5  6  1  0  0  0
  5 26  1  0  0  0
  5 91  1  0  0  0
  6 25  1  0  0  0
  6 92  1  0  0  0
  6 93  1  0  0  0
  7  8  2  0  0  0
  7 26  1  0  0  0
  7 29  1  0  0  0
  8  9  1  0  0  0
  8 22  1  0  0  0
  9 10  1  0  0  0
  9 27  2  0  0  0
 10 11  2  0  0  0
 10 15  1  0  0  0
 11 12  1  0  0  0
 11 94  1  0  0  0
 12 13  2  0  0  0
 12 95  1  0  0  0
 13 14  1  0  0  0
 13 31  1  0  0  0
 14 15  2  0  0  0
 14 96  1  0  0  0
 15 97  1  0  0  0
 16 17  2  0  0  0
 16 21  1  0  0  0
 16 31  1  0  0  0
 17 18  1  0  0  0
 17 98  1  0  0  0
 18 19  2  0  0  0
 18 99  1  0  0  0
 19 20  1  0  0  0
 19 24  1  0  0  0
 20 21  2  0  0  0
 20100  1  0  0  0
 21 23  1  0  0  0
 22 28  1  0  0  0
 22 32  2  0  0  0
 26 27  1  0  0  0
 28101  1  0  0  0
 28102  1  0  0  0
 29103  1  0  0  0
 29104  1  0  0  0
 33 34  1  0  0  0
 33 66  1  0  0  0
 33 70  2  0  0  0
 34 36  1  0  0  0
 34 59  1  0  0  0
 34105  1  0  0  0
 35 44  2  0  0  0
 35 45  1  0  0  0
 35 68  1  0  0  0
 36 56  1  0  0  0
 36106  1  0  0  0
 37 39  1  0  0  0
 37 47  1  0  0  0
 37 66  1  0  0  0
 37107  1  0  0  0
 38 43  2  0  0  0
 38 46  1  0  0  0
 38 47  1  0  0  0
 39 64  1  0  0  0
 39 67  2  0  0  0
 40 52  1  0  0  0
 40 53  2  0  0  0
 40 58  1  0  0  0
 41108  1  0  0  0
 41109  1  0  0  0
 41110  1  0  0  0
 41 48  1  0  0  0
 42 43  1  0  0  0
 42 66  1  0  0  0
 42111  1  0  0  0
 42112  1  0  0  0
 43 44  1  0  0  0
 44113  1  0  0  0
 45 46  2  0  0  0
 45114  1  0  0  0
 46115  1  0  0  0
 47116  1  0  0  0
 47117  1  0  0  0
 48 56  1  0  0  0
 48 65  1  0  0  0
 48118  1  0  0  0
 49 50  1  0  0  0
 49 53  1  0  0  0
 49 64  1  0  0  0
 49119  1  0  0  0
 50 51  1  0  0  0
 50120  1  0  0  0
 50121  1  0  0  0
 51 52  1  0  0  0
 51122  1  0  0  0
 51123  1  0  0  0
 52124  1  0  0  0
 52125  1  0  0  0
 53 54  1  0  0  0
 54 55  2  0  0  0
 54126  1  0  0  0
 55 57  1  0  0  0
 55127  1  0  0  0
 56 69  2  0  0  0
 57 58  2  0  0  0
 57128  1  0  0  0
 58129  1  0  0  0
 59 60  1  0  0  0
 59 61  1  0  0  0
 59 62  1  0  0  0
 60130  1  0  0  0
 60131  1  0  0  0
 60132  1  0  0  0
 61133  1  0  0  0
 61134  1  0  0  0
 61135  1  0  0  0
 62136  1  0  0  0
 62137  1  0  0  0
 62138  1  0  0  0
 63 65  1  0  0  0
 63139  1  0  0  0
 63140  1  0  0  0
 63141  1  0  0  0
 64142  1  0  0  0
 65143  1  0  0  0
 68 81  1  0  0  0
 71 73  2  0  0  0
 71 74  1  0  0  0
 71144  1  0  0  0
 72 75  2  0  0  0
 72 76  1  0  0  0
 72145  1  0  0  0
 73 75  1  0  0  0
 73 77  1  0  0  0
 74 76  2  0  0  0
 74 79  1  0  0  0
 75 82  1  0  0  0
 76 84  1  0  0  0
 77146  1  0  0  0
 77147  1  0  0  0
 77148  1  0  0  0
 78149  1  0  0  0
 78150  1  0  0  0
 78151  1  0  0  0
 78 81  1  0  0  0
 79 83  1  0  0  0
 79152  1  0  0  0
 79153  1  0  0  0
 80 81  1  0  0  0
 80 83  1  0  0  0
 80154  1  0  0  0
 80155  1  0  0  0
 81156  1  0  0  0
 82157  1  0  0  0
 83158  1  0  0  0
 83159  1  0  0  0
M  CHG  1  83   1
M  ISO  4   1 100  68 101  81 101  82 100
M  END
> <chiral flag>
0

> <version>
0

> <s_m_source_file>
/data/baiqing/PycharmProjects/Reinvent-master-3.2/result/LINK_invent/BTK/process_docking_weight1_custom_product_contain_oxygen_bond_distance_aromatic_linkinvent_7_9_3/rearranged_h_0034.sdf

> <i_m_source_file_index>
11

> <r_mmod_Potential_Energy-OPLS-2005>
-105.112327575684

> <r_mmod_Stretch_Energy-OPLS-2005>
77.1598663330078

> <r_mmod_Bend_Energy-OPLS-2005>
137.90071105957

> <r_mmod_Torsional_Energy-OPLS-2005>
260.041046142578

> <r_mmod_Improper_Torsional_Energy-OPLS-2005>
5.35348701477051

> <r_mmod_Van_der_Waal_Energy-OPLS-2005>
140.536041259766

> <r_mmod_Electrostatic_Energy-OPLS-2005>
-331.348876953125

> <r_mmod_Solvation_Energy-OPLS-2005>
-438.038726806641

> <b_mmod_Minimization_Converged-OPLS-2005>
0

> <r_mmod_RMS_Derivative-OPLS-2005>
6.54502868652344

$$$$
11
                    3D
 Structure written by MMmdl.
167176  0  0  1  0            999 V2000
  -30.6078  -14.7301   20.4099 C   0  0  0  0  0  0
  -30.4306  -12.4362   19.4724 C   0  0  0  0  0  0
  -29.5097  -12.4871   18.2349 C   0  0  0  0  0  0
  -28.0345  -12.3173   18.6495 C   0  0  0  0  0  0
  -27.6364  -13.2288   19.8418 C   0  0  2  0  0  0
  -28.6812  -13.1767   20.9763 C   0  0  0  0  0  0
  -25.2479  -13.8205   20.5639 C   0  0  0  0  0  0
  -24.1781  -13.0449   20.9224 C   0  0  0  0  0  0
  -24.6383  -11.6930   20.8781 C   0  0  0  0  0  0
  -23.9067  -10.4300   21.0428 C   0  0  0  0  0  0
  -24.3622   -9.4210   21.9198 C   0  0  0  0  0  0
  -23.6287   -8.2241   22.0764 C   0  0  0  0  0  0
  -22.4272   -8.0279   21.3546 C   0  0  0  0  0  0
  -21.9919   -9.0258   20.4653 C   0  0  0  0  0  0
  -22.7248  -10.2137   20.3062 C   0  0  0  0  0  0
  -21.6847   -6.0727   22.5281 C   0  0  0  0  0  0
  -21.4016   -6.5631   23.8217 C   0  0  0  0  0  0
  -21.3655   -5.6783   24.9176 C   0  0  0  0  0  0
  -21.6044   -4.3050   24.7226 C   0  0  0  0  0  0
  -21.8819   -3.8142   23.4350 C   0  0  0  0  0  0
  -21.9194   -4.6954   22.3404 C   0  0  0  0  0  0
  -22.7813  -13.5223   21.1894 C   0  0  0  0  0  0
  -22.1656   -4.2149   21.0975 F   0  0  0  0  0  0
  -21.5630   -3.4534   25.7740 F   0  0  0  0  0  0
  -29.9828  -13.5085   20.3861 N   0  0  0  0  0  0
  -26.2902  -12.9399   20.3245 N   0  0  0  0  0  0
  -25.9305  -11.6559   20.5764 N   0  0  0  0  0  0
  -22.0460  -12.8194   22.0453 N   0  0  0  0  0  0
  -25.4153  -15.1905   20.3916 N   0  0  0  0  0  0
  -31.8302  -14.7758   20.2681 O   0  0  0  0  0  0
  -21.6632   -6.8873   21.4239 O   0  0  0  0  0  0
  -22.3489  -14.5524   20.6740 O   0  0  0  0  0  0
  -24.6244  -31.8534   23.1949 C   0  0  0  0  0  0
  -25.9076  -32.4733   23.8303 C   0  0  1  0  0  0
  -27.2350  -27.2589   20.1491 C   0  0  0  0  0  0
  -25.5900  -33.8540   24.2214 N   0  0  0  0  0  0
  -23.4202  -30.4669   21.5402 C   0  0  2  0  0  0
  -24.8727  -28.8950   20.1305 C   0  0  0  0  0  0
  -22.7446  -29.4545   22.4949 C   0  0  0  0  0  0
  -18.0265  -28.1336   22.8430 C   0  0  0  0  0  0
  -24.1504  -36.7256   23.2642 C   0  0  0  0  0  0
  -25.9632  -30.7644   21.3743 C   0  0  0  0  0  0
  -26.0416  -29.3796   20.7291 C   0  0  0  0  0  0
  -27.2258  -28.5755   20.7207 C   0  0  0  0  0  0
  -26.0418  -26.8199   19.5466 C   0  0  0  0  0  0
  -24.8753  -27.6194   19.5348 C   0  0  0  0  0  0
  -23.6413  -29.7864   20.1628 C   0  0  0  0  0  0
  -25.4123  -36.3037   24.0333 C   0  0  1  0  0  0
  -20.5862  -28.3602   23.1275 C   0  0  2  0  0  0
  -20.6750  -26.9316   22.5408 C   0  0  0  0  0  0
  -19.5761  -26.6322   21.5167 C   0  0  0  0  0  0
  -18.1913  -26.7851   22.1572 C   0  0  0  0  0  0
  -19.1527  -28.8785   23.2816 C   0  0  0  0  0  0
  -18.9478  -30.1377   23.8849 C   0  0  0  0  0  0
  -17.6492  -30.6533   24.0522 C   0  0  0  0  0  0
  -25.9074  -34.9423   23.5069 C   0  0  0  0  0  0
  -16.5372  -29.9025   23.6335 C   0  0  0  0  0  0
  -16.7265  -28.6449   23.0338 C   0  0  0  0  0  0
  -26.4479  -31.6556   25.0680 C   0  0  0  0  0  0
  -25.3713  -31.3729   26.1415 C   0  0  0  0  0  0
  -27.0324  -30.2994   24.6108 C   0  0  0  0  0  0
  -27.5999  -32.4307   25.7485 C   0  0  0  0  0  0
  -27.5571  -37.1754   24.8465 C   0  0  0  0  0  0
  -21.4173  -29.2971   22.3706 N   0  0  0  0  0  0
  -26.4287  -37.3741   23.9431 N   0  0  0  0  0  0
  -24.6867  -31.0465   22.0935 N   0  0  0  0  0  0
  -23.4161  -28.8101   23.3043 O   0  0  0  0  0  0
  -28.4068  -26.4891   20.0114 O   0  0  0  0  0  0
  -26.5644  -34.8910   22.4650 O   0  0  0  0  0  0
  -23.5400  -32.1414   23.7225 O   0  0  0  0  0  0
  -30.3708  -20.0187   19.0163 C   0  0  0  0  0  0
  -31.1659  -18.9723   18.5277 C   0  0  0  0  0  0
  -29.3281  -19.7887   19.9301 C   0  0  0  0  0  0
  -30.9768  -17.6292   18.9181 C   0  0  0  0  0  0
  -29.1836  -18.4009   20.3950 C   0  0  0  0  0  0
  -30.0251  -17.2877   19.9318 C   0  0  0  0  0  0
  -28.8507  -22.5690   22.1694 C   0  0  0  0  0  0
  -28.3035  -21.7221   23.0602 C   0  0  0  0  0  0
  -29.5292  -23.8706   22.5832 C   0  0  0  0  0  0
  -28.7943  -25.1215   22.0609 C   0  0  0  0  0  0
  -28.1143  -23.6763   20.0453 C   0  0  0  0  0  0
  -28.6977  -25.1052   20.5341 C   0  0  1  0  0  0
  -31.7835  -16.6166   18.1160 C   0  0  0  0  0  0
  -28.0504  -18.0704   21.3512 C   0  0  0  0  0  0
  -28.3279  -21.0332   20.1504 C   0  0  0  0  0  0
  -29.8082  -15.8705   20.3775 N   0  0  0  0  0  0
  -28.7943  -22.4234   20.6612 N   0  3  2  0  0  0
  -31.4742  -12.5564   19.1744 H   0  0  0  0  0  0
  -30.3683  -11.4653   19.9648 H   0  0  0  0  0  0
  -29.7900  -11.7075   17.5259 H   0  0  0  0  0  0
  -29.6386  -13.4374   17.7150 H   0  0  0  0  0  0
  -27.8903  -11.2713   18.9227 H   0  0  0  0  0  0
  -27.3774  -12.5011   17.7988 H   0  0  0  0  0  0
  -27.6282  -14.2447   19.4485 H   0  0  0  0  0  0
  -28.7103  -12.1890   21.4370 H   0  0  0  0  0  0
  -28.4255  -13.8813   21.7706 H   0  0  0  0  0  0
  -25.2768   -9.5676   22.4778 H   0  0  0  0  0  0
  -24.0003   -7.4625   22.7480 H   0  0  0  0  0  0
  -21.0859   -8.8771   19.8944 H   0  0  0  0  0  0
  -22.3719  -10.9671   19.6166 H   0  0  0  0  0  0
  -21.2004   -7.6141   23.9724 H   0  0  0  0  0  0
  -21.1473   -6.0508   25.9079 H   0  0  0  0  0  0
  -22.0602   -2.7605   23.2848 H   0  0  0  0  0  0
  -22.4080  -11.9826   22.4784 H   0  0  0  0  0  0
  -21.1084  -13.1203   22.2701 H   0  0  0  0  0  0
  -24.6273  -15.8273   20.4368 H   0  0  0  0  0  0
  -26.2220  -15.5988   19.9401 H   0  0  0  0  0  0
  -26.7095  -32.5410   23.0999 H   0  0  0  0  0  0
  -25.0042  -33.9716   25.0357 H   0  0  0  0  0  0
  -22.7141  -31.2860   21.3847 H   0  0  0  0  0  0
  -23.3775  -35.9572   23.3299 H   0  0  0  0  0  0
  -24.3588  -36.8917   22.2055 H   0  0  0  0  0  0
  -23.7262  -37.6448   23.6700 H   0  0  0  0  0  0
  -26.0937  -31.5199   20.5980 H   0  0  0  0  0  0
  -26.8426  -30.8215   22.0028 H   0  0  0  0  0  0
  -28.1356  -28.9542   21.1657 H   0  0  0  0  0  0
  -26.0218  -25.8535   19.0613 H   0  0  0  0  0  0
  -23.9810  -27.2338   19.0648 H   0  0  0  0  0  0
  -23.7688  -30.5622   19.4074 H   0  0  0  0  0  0
  -22.7595  -29.2209   19.8549 H   0  0  0  0  0  0
  -25.1292  -36.1859   25.0822 H   0  0  0  0  0  0
  -20.9900  -28.3165   24.1424 H   0  0  0  0  0  0
  -20.5590  -26.2203   23.3609 H   0  0  0  0  0  0
  -21.6626  -26.7319   22.1240 H   0  0  0  0  0  0
  -19.6951  -25.6226   21.1197 H   0  0  0  0  0  0
  -19.6751  -27.3129   20.6686 H   0  0  0  0  0  0
  -17.4188  -26.6578   21.3964 H   0  0  0  0  0  0
  -18.0311  -26.0014   22.9002 H   0  0  0  0  0  0
  -19.7998  -30.7129   24.2239 H   0  0  0  0  0  0
  -17.5099  -31.6246   24.5056 H   0  0  0  0  0  0
  -15.5369  -30.2927   23.7690 H   0  0  0  0  0  0
  -15.8663  -28.0750   22.7096 H   0  0  0  0  0  0
  -24.5934  -30.7002   25.7790 H   0  0  0  0  0  0
  -24.8848  -32.2913   26.4722 H   0  0  0  0  0  0
  -25.8044  -30.9038   27.0261 H   0  0  0  0  0  0
  -26.2868  -29.6743   24.1173 H   0  0  0  0  0  0
  -27.4116  -29.7230   25.4552 H   0  0  0  0  0  0
  -27.8711  -30.4321   23.9258 H   0  0  0  0  0  0
  -27.2577  -33.3664   26.1923 H   0  0  0  0  0  0
  -28.3885  -32.6779   25.0362 H   0  0  0  0  0  0
  -28.0561  -31.8527   26.5537 H   0  0  0  0  0  0
  -28.2501  -38.0111   24.7506 H   0  0  0  0  0  0
  -28.1124  -36.2631   24.6258 H   0  0  0  0  0  0
  -27.2281  -37.1332   25.8857 H   0  0  0  0  0  0
  -20.9325  -29.8756   21.6992 H   0  0  0  0  0  0
  -26.0162  -38.2800   24.1493 H   0  0  0  0  0  0
  -30.5182  -21.0054   18.5976 H   0  0  0  0  0  0
  -31.9018  -19.2076   17.7699 H   0  0  0  0  0  0
  -28.3737  -21.9395   24.1168 H   0  0  0  0  0  0
  -27.7665  -20.8267   22.8040 H   0  0  0  0  0  0
  -30.5679  -23.8596   22.2526 H   0  0  0  0  0  0
  -29.5691  -23.9185   23.6729 H   0  0  0  0  0  0
  -29.3430  -26.0070   22.3871 H   0  0  0  0  0  0
  -27.7960  -25.1958   22.4925 H   0  0  0  0  0  0
  -28.1873  -23.6205   18.9594 H   0  0  0  0  0  0
  -27.0517  -23.6305   20.2808 H   0  0  0  0  0  0
  -29.7367  -25.0379   20.2053 H   0  0  0  0  0  0
  -32.0493  -17.0054   17.1319 H   0  0  0  0  0  0
  -31.2259  -15.6987   17.9297 H   0  0  0  0  0  0
  -32.7190  -16.3907   18.6271 H   0  0  0  0  0  0
  -27.9622  -18.8279   22.1235 H   0  0  0  0  0  0
  -28.2017  -17.1241   21.8685 H   0  0  0  0  0  0
  -27.1068  -18.0085   20.8090 H   0  0  0  0  0  0
  -27.4414  -20.7154   20.6950 H   0  0  0  0  0  0
  -27.9293  -21.2178   19.1515 H   0  0  0  0  0  0
  -28.8574  -15.6691   20.6422 H   0  0  0  0  0  0
  -29.7454  -22.4754   20.3254 H   0  0  0  0  0  0
  1 25  1  0  0  0
  1 30  2  0  0  0
  1 86  1  0  0  0
  2  3  1  0  0  0
  2 25  1  0  0  0
  2 88  1  0  0  0
  2 89  1  0  0  0
  3  4  1  0  0  0
  3 90  1  0  0  0
  3 91  1  0  0  0
  4  5  1  0  0  0
  4 92  1  0  0  0
  4 93  1  0  0  0
  5  6  1  0  0  0
  5 26  1  0  0  0
  5 94  1  0  0  0
  6 25  1  0  0  0
  6 95  1  0  0  0
  6 96  1  0  0  0
  7  8  2  0  0  0
  7 26  1  0  0  0
  7 29  1  0  0  0
  8  9  1  0  0  0
  8 22  1  0  0  0
  9 10  1  0  0  0
  9 27  2  0  0  0
 10 11  2  0  0  0
 10 15  1  0  0  0
 11 12  1  0  0  0
 11 97  1  0  0  0
 12 13  2  0  0  0
 12 98  1  0  0  0
 13 14  1  0  0  0
 13 31  1  0  0  0
 14 15  2  0  0  0
 14 99  1  0  0  0
 15100  1  0  0  0
 16 17  2  0  0  0
 16 21  1  0  0  0
 16 31  1  0  0  0
 17 18  1  0  0  0
 17101  1  0  0  0
 18 19  2  0  0  0
 18102  1  0  0  0
 19 20  1  0  0  0
 19 24  1  0  0  0
 20 21  2  0  0  0
 20103  1  0  0  0
 21 23  1  0  0  0
 22 28  1  0  0  0
 22 32  2  0  0  0
 26 27  1  0  0  0
 28104  1  0  0  0
 28105  1  0  0  0
 29106  1  0  0  0
 29107  1  0  0  0
 33 34  1  0  0  0
 33 66  1  0  0  0
 33 70  2  0  0  0
 34 36  1  0  0  0
 34 59  1  0  0  0
 34108  1  0  0  0
 35 44  2  0  0  0
 35 45  1  0  0  0
 35 68  1  0  0  0
 36 56  1  0  0  0
 36109  1  0  0  0
 37 39  1  0  0  0
 37 47  1  0  0  0
 37 66  1  0  0  0
 37110  1  0  0  0
 38 43  2  0  0  0
 38 46  1  0  0  0
 38 47  1  0  0  0
 39 64  1  0  0  0
 39 67  2  0  0  0
 40 52  1  0  0  0
 40 53  2  0  0  0
 40 58  1  0  0  0
 41111  1  0  0  0
 41112  1  0  0  0
 41113  1  0  0  0
 41 48  1  0  0  0
 42 43  1  0  0  0
 42 66  1  0  0  0
 42114  1  0  0  0
 42115  1  0  0  0
 43 44  1  0  0  0
 44116  1  0  0  0
 45 46  2  0  0  0
 45117  1  0  0  0
 46118  1  0  0  0
 47119  1  0  0  0
 47120  1  0  0  0
 48 56  1  0  0  0
 48 65  1  0  0  0
 48121  1  0  0  0
 49 50  1  0  0  0
 49 53  1  0  0  0
 49 64  1  0  0  0
 49122  1  0  0  0
 50 51  1  0  0  0
 50123  1  0  0  0
 50124  1  0  0  0
 51 52  1  0  0  0
 51125  1  0  0  0
 51126  1  0  0  0
 52127  1  0  0  0
 52128  1  0  0  0
 53 54  1  0  0  0
 54 55  2  0  0  0
 54129  1  0  0  0
 55 57  1  0  0  0
 55130  1  0  0  0
 56 69  2  0  0  0
 57 58  2  0  0  0
 57131  1  0  0  0
 58132  1  0  0  0
 59 60  1  0  0  0
 59 61  1  0  0  0
 59 62  1  0  0  0
 60133  1  0  0  0
 60134  1  0  0  0
 60135  1  0  0  0
 61136  1  0  0  0
 61137  1  0  0  0
 61138  1  0  0  0
 62139  1  0  0  0
 62140  1  0  0  0
 62141  1  0  0  0
 63 65  1  0  0  0
 63142  1  0  0  0
 63143  1  0  0  0
 63144  1  0  0  0
 64145  1  0  0  0
 65146  1  0  0  0
 68 82  1  0  0  0
 71 72  2  0  0  0
 71 73  1  0  0  0
 71147  1  0  0  0
 72 74  1  0  0  0
 72148  1  0  0  0
 73 75  2  0  0  0
 73 85  1  0  0  0
 74 76  2  0  0  0
 74 83  1  0  0  0
 75 76  1  0  0  0
 75 84  1  0  0  0
 76 86  1  0  0  0
 77 78  2  0  0  0
 77 79  1  0  0  0
 77 87  1  0  0  0
 78149  1  0  0  0
 78150  1  0  0  0
 79 80  1  0  0  0
 79151  1  0  0  0
 79152  1  0  0  0
 80 82  1  0  0  0
 80153  1  0  0  0
 80154  1  0  0  0
 81 82  1  0  0  0
 81 87  1  0  0  0
 81155  1  0  0  0
 81156  1  0  0  0
 82157  1  0  0  0
 83158  1  0  0  0
 83159  1  0  0  0
 83160  1  0  0  0
 84161  1  0  0  0
 84162  1  0  0  0
 84163  1  0  0  0
 85164  1  0  0  0
 85165  1  0  0  0
 85 87  1  0  0  0
 86166  1  0  0  0
 87167  1  0  0  0
M  CHG  1  87   1
M  ISO  4   1 100  68 101  82 101  86 100
M  END
> <chiral flag>
0

> <version>
0

> <s_m_source_file>
/data/baiqing/PycharmProjects/Reinvent-master-3.2/result/LINK_invent/BTK/process_docking_weight1_custom_product_contain_oxygen_bond_distance_aromatic_linkinvent_7_9_3/rearranged_h_0034.sdf

> <i_m_source_file_index>
12

> <r_mmod_Potential_Energy-OPLS-2005>
142.099426269531

> <r_mmod_Stretch_Energy-OPLS-2005>
142.598129272461

> <r_mmod_Bend_Energy-OPLS-2005>
231.956039428711

> <r_mmod_Torsional_Energy-OPLS-2005>
266.443542480469

> <r_mmod_Improper_Torsional_Energy-OPLS-2005>
8.41058540344238

> <r_mmod_Van_der_Waal_Energy-OPLS-2005>
143.371246337891

> <r_mmod_Electrostatic_Energy-OPLS-2005>
-304.886779785156

> <r_mmod_Solvation_Energy-OPLS-2005>
-425.029815673828

> <b_mmod_Minimization_Converged-OPLS-2005>
0

> <r_mmod_RMS_Derivative-OPLS-2005>
3.67766666412354

$$$$
12
                    3D
 Structure written by MMmdl.
160169  0  0  1  0            999 V2000
  -30.6737  -14.6387   20.5026 C   0  0  0  0  0  0
  -30.4223  -12.3991   19.4549 C   0  0  0  0  0  0
  -29.5002  -12.4985   18.2225 C   0  0  0  0  0  0
  -28.0254  -12.3384   18.6384 C   0  0  0  0  0  0
  -27.6455  -13.2273   19.8537 C   0  0  2  0  0  0
  -28.6915  -13.1269   20.9856 C   0  0  0  0  0  0
  -25.2523  -13.8196   20.5698 C   0  0  0  0  0  0
  -24.1807  -13.0443   20.9208 C   0  0  0  0  0  0
  -24.6393  -11.6919   20.8753 C   0  0  0  0  0  0
  -23.9068  -10.4296   21.0410 C   0  0  0  0  0  0
  -24.3621   -9.4211   21.9186 C   0  0  0  0  0  0
  -23.6296   -8.2246   22.0753 C   0  0  0  0  0  0
  -22.4279   -8.0281   21.3542 C   0  0  0  0  0  0
  -21.9913   -9.0256   20.4647 C   0  0  0  0  0  0
  -22.7242  -10.2136   20.3058 C   0  0  0  0  0  0
  -21.6853   -6.0737   22.5279 C   0  0  0  0  0  0
  -21.4015   -6.5640   23.8213 C   0  0  0  0  0  0
  -21.3659   -5.6793   24.9176 C   0  0  0  0  0  0
  -21.6044   -4.3055   24.7226 C   0  0  0  0  0  0
  -21.8817   -3.8147   23.4347 C   0  0  0  0  0  0
  -21.9193   -4.6965   22.3403 C   0  0  0  0  0  0
  -22.7829  -13.5229   21.1863 C   0  0  0  0  0  0
  -22.1660   -4.2149   21.0981 F   0  0  0  0  0  0
  -21.5629   -3.4539   25.7740 F   0  0  0  0  0  0
  -30.0011  -13.4487   20.4052 N   0  0  0  0  0  0
  -26.2953  -12.9399   20.3303 N   0  0  0  0  0  0
  -25.9323  -11.6542   20.5765 N   0  0  0  0  0  0
  -22.0475  -12.8222   22.0421 N   0  0  0  0  0  0
  -25.4209  -15.1919   20.4112 N   0  0  0  0  0  0
  -31.8536  -14.7203   20.1555 O   0  0  0  0  0  0
  -21.6640   -6.8880   21.4240 O   0  0  0  0  0  0
  -22.3513  -14.5531   20.6703 O   0  0  0  0  0  0
  -24.6275  -31.8607   23.2045 C   0  0  0  0  0  0
  -25.9123  -32.4782   23.8366 C   0  0  1  0  0  0
  -27.2133  -27.3100   20.1093 C   0  0  0  0  0  0
  -25.5941  -33.8583   24.2290 N   0  0  0  0  0  0
  -23.4201  -30.4881   21.5476 C   0  0  2  0  0  0
  -24.8636  -28.9502   20.1081 C   0  0  0  0  0  0
  -22.7482  -29.4633   22.4929 C   0  0  0  0  0  0
  -18.0288  -28.1387   22.8487 C   0  0  0  0  0  0
  -24.1489  -36.7292   23.2637 C   0  0  0  0  0  0
  -25.9643  -30.7879   21.3792 C   0  0  0  0  0  0
  -26.0351  -29.4171   20.7169 C   0  0  0  0  0  0
  -27.2121  -28.6083   20.7109 C   0  0  0  0  0  0
  -26.0176  -26.9124   19.4633 C   0  0  0  0  0  0
  -24.8576  -27.7031   19.4724 C   0  0  0  0  0  0
  -23.6340  -29.8313   20.1604 C   0  0  0  0  0  0
  -25.4115  -36.3086   24.0329 C   0  0  1  0  0  0
  -20.5890  -28.3695   23.1276 C   0  0  2  0  0  0
  -20.6778  -26.9418   22.5406 C   0  0  0  0  0  0
  -19.5752  -26.6388   21.5210 C   0  0  0  0  0  0
  -18.1933  -26.7931   22.1625 C   0  0  0  0  0  0
  -19.1541  -28.8857   23.2878 C   0  0  0  0  0  0
  -18.9464  -30.1457   23.8898 C   0  0  0  0  0  0
  -17.6464  -30.6589   24.0564 C   0  0  0  0  0  0
  -25.9055  -34.9455   23.5106 C   0  0  0  0  0  0
  -16.5355  -29.9089   23.6330 C   0  0  0  0  0  0
  -16.7275  -28.6505   23.0353 C   0  0  0  0  0  0
  -26.4502  -31.6590   25.0737 C   0  0  0  0  0  0
  -25.3731  -31.3732   26.1460 C   0  0  0  0  0  0
  -27.0345  -30.3011   24.6201 C   0  0  0  0  0  0
  -27.6062  -32.4327   25.7509 C   0  0  0  0  0  0
  -27.5578  -37.1806   24.8467 C   0  0  0  0  0  0
  -21.4195  -29.3050   22.3672 N   0  0  0  0  0  0
  -26.4293  -37.3781   23.9406 N   0  0  0  0  0  0
  -24.6895  -31.0620   22.1001 N   0  0  0  0  0  0
  -23.4204  -28.8164   23.3003 O   0  0  0  0  0  0
  -28.3180  -26.4378   20.1787 O   0  0  0  0  0  0
  -26.5617  -34.8921   22.4669 O   0  0  0  0  0  0
  -23.5438  -32.1408   23.7373 O   0  0  0  0  0  0
  -28.9953  -19.1847   21.4673 C   0  0  0  0  0  0
  -30.1502  -20.5855   19.3582 C   0  0  0  0  0  0
  -28.6074  -20.5405   21.2021 C   0  0  0  0  0  0
  -29.9706  -18.4980   20.6942 C   0  0  0  0  0  0
  -29.1873  -21.2895   20.1314 C   0  0  0  0  0  0
  -30.5322  -19.2404   19.6235 C   0  0  0  0  0  0
  -28.4941  -23.0744   18.4795 C   0  0  0  0  0  0
  -28.2908  -22.3059   17.3958 C   0  0  0  0  0  0
  -28.3169  -24.5861   18.4700 C   0  0  0  0  0  0
  -28.9121  -23.8317   20.6478 C   0  0  0  0  0  0
  -28.1007  -24.9839   19.9357 C   0  0  1  0  0  0
  -27.5242  -21.1536   22.0726 C   0  0  0  0  0  0
  -30.5864  -17.1157   21.1351 C   0  0  0  0  0  0
  -28.8033  -22.6348   19.7655 N   0  0  0  0  0  0
  -29.9731  -15.7709   20.8364 N   0  0  0  0  0  0
  -31.4901  -18.6736   18.8510 F   0  0  0  0  0  0
  -31.4653  -12.5016   19.1512 H   0  0  0  0  0  0
  -30.3428  -11.4153   19.9199 H   0  0  0  0  0  0
  -29.7672  -11.7362   17.4891 H   0  0  0  0  0  0
  -29.6426  -13.4620   17.7301 H   0  0  0  0  0  0
  -27.8685  -11.2880   18.8867 H   0  0  0  0  0  0
  -27.3687  -12.5511   17.7940 H   0  0  0  0  0  0
  -27.6524  -14.2561   19.4925 H   0  0  0  0  0  0
  -28.7051  -12.1236   21.4138 H   0  0  0  0  0  0
  -28.4409  -13.8029   21.8045 H   0  0  0  0  0  0
  -25.2766   -9.5688   22.4760 H   0  0  0  0  0  0
  -24.0004   -7.4639   22.7473 H   0  0  0  0  0  0
  -21.0843   -8.8779   19.8956 H   0  0  0  0  0  0
  -22.3700  -10.9676   19.6168 H   0  0  0  0  0  0
  -21.2006   -7.6149   23.9717 H   0  0  0  0  0  0
  -21.1483   -6.0524   25.9080 H   0  0  0  0  0  0
  -22.0596   -2.7607   23.2848 H   0  0  0  0  0  0
  -22.4092  -11.9888   22.4815 H   0  0  0  0  0  0
  -21.1089  -13.1241   22.2619 H   0  0  0  0  0  0
  -24.6506  -15.8429   20.5194 H   0  0  0  0  0  0
  -26.2663  -15.6338   20.0730 H   0  0  0  0  0  0
  -26.7189  -32.5445   23.1110 H   0  0  0  0  0  0
  -25.0099  -33.9731   25.0442 H   0  0  0  0  0  0
  -22.7138  -31.3092   21.4086 H   0  0  0  0  0  0
  -23.3753  -35.9623   23.3306 H   0  0  0  0  0  0
  -24.3580  -36.8908   22.2050 H   0  0  0  0  0  0
  -23.7242  -37.6498   23.6652 H   0  0  0  0  0  0
  -26.1008  -31.5532   20.6139 H   0  0  0  0  0  0
  -26.8432  -30.8311   22.0108 H   0  0  0  0  0  0
  -28.1072  -28.9595   21.2051 H   0  0  0  0  0  0
  -25.9316  -25.9692   18.9492 H   0  0  0  0  0  0
  -23.9625  -27.3422   18.9843 H   0  0  0  0  0  0
  -23.7555  -30.6114   19.4079 H   0  0  0  0  0  0
  -22.7527  -29.2645   19.8547 H   0  0  0  0  0  0
  -25.1296  -36.1940   25.0822 H   0  0  0  0  0  0
  -20.9981  -28.3270   24.1396 H   0  0  0  0  0  0
  -20.5683  -26.2305   23.3606 H   0  0  0  0  0  0
  -21.6647  -26.7451   22.1194 H   0  0  0  0  0  0
  -19.6916  -25.6299   21.1241 H   0  0  0  0  0  0
  -19.6686  -27.3197   20.6737 H   0  0  0  0  0  0
  -17.4201  -26.6674   21.4029 H   0  0  0  0  0  0
  -18.0338  -26.0073   22.9023 H   0  0  0  0  0  0
  -19.7940  -30.7271   24.2271 H   0  0  0  0  0  0
  -17.5020  -31.6270   24.5165 H   0  0  0  0  0  0
  -15.5356  -30.2993   23.7655 H   0  0  0  0  0  0
  -15.8674  -28.0826   22.7070 H   0  0  0  0  0  0
  -24.5908  -30.7078   25.7791 H   0  0  0  0  0  0
  -24.8917  -32.2899   26.4876 H   0  0  0  0  0  0
  -25.8053  -30.8919   27.0240 H   0  0  0  0  0  0
  -26.2923  -29.6765   24.1214 H   0  0  0  0  0  0
  -27.4024  -29.7266   25.4713 H   0  0  0  0  0  0
  -27.8803  -30.4296   23.9442 H   0  0  0  0  0  0
  -27.2669  -33.3625   26.2088 H   0  0  0  0  0  0
  -28.3872  -32.6892   25.0338 H   0  0  0  0  0  0
  -28.0727  -31.8450   26.5426 H   0  0  0  0  0  0
  -28.2605  -38.0094   24.7506 H   0  0  0  0  0  0
  -28.1066  -36.2627   24.6305 H   0  0  0  0  0  0
  -27.2294  -37.1471   25.8871 H   0  0  0  0  0  0
  -20.9370  -29.8787   21.6896 H   0  0  0  0  0  0
  -26.0176  -38.2858   24.1401 H   0  0  0  0  0  0
  -28.5585  -18.6702   22.3117 H   0  0  0  0  0  0
  -30.6260  -21.0904   18.5311 H   0  0  0  0  0  0
  -28.0233  -22.7488   16.4463 H   0  0  0  0  0  0
  -28.3743  -21.2291   17.4238 H   0  0  0  0  0  0
  -27.4857  -24.8831   17.8314 H   0  0  0  0  0  0
  -29.2225  -25.0453   18.0715 H   0  0  0  0  0  0
  -28.5384  -23.6484   21.6542 H   0  0  0  0  0  0
  -29.9640  -24.1061   20.7340 H   0  0  0  0  0  0
  -27.0776  -24.7330   20.2156 H   0  0  0  0  0  0
  -27.9669  -21.7417   22.8762 H   0  0  0  0  0  0
  -26.9004  -20.3824   22.5250 H   0  0  0  0  0  0
  -26.8670  -21.7990   21.4888 H   0  0  0  0  0  0
  -31.6192  -17.1192   20.7844 H   0  0  0  0  0  0
  -30.6825  -17.1598   22.2205 H   0  0  0  0  0  0
  -28.9911  -15.6595   21.0366 H   0  0  0  0  0  0
  1 25  1  0  0  0
  1 30  2  0  0  0
  1 85  1  0  0  0
  2  3  1  0  0  0
  2 25  1  0  0  0
  2 87  1  0  0  0
  2 88  1  0  0  0
  3  4  1  0  0  0
  3 89  1  0  0  0
  3 90  1  0  0  0
  4  5  1  0  0  0
  4 91  1  0  0  0
  4 92  1  0  0  0
  5  6  1  0  0  0
  5 26  1  0  0  0
  5 93  1  0  0  0
  6 25  1  0  0  0
  6 94  1  0  0  0
  6 95  1  0  0  0
  7  8  2  0  0  0
  7 26  1  0  0  0
  7 29  1  0  0  0
  8  9  1  0  0  0
  8 22  1  0  0  0
  9 10  1  0  0  0
  9 27  2  0  0  0
 10 11  2  0  0  0
 10 15  1  0  0  0
 11 12  1  0  0  0
 11 96  1  0  0  0
 12 13  2  0  0  0
 12 97  1  0  0  0
 13 14  1  0  0  0
 13 31  1  0  0  0
 14 15  2  0  0  0
 14 98  1  0  0  0
 15 99  1  0  0  0
 16 17  2  0  0  0
 16 21  1  0  0  0
 16 31  1  0  0  0
 17 18  1  0  0  0
 17100  1  0  0  0
 18 19  2  0  0  0
 18101  1  0  0  0
 19 20  1  0  0  0
 19 24  1  0  0  0
 20 21  2  0  0  0
 20102  1  0  0  0
 21 23  1  0  0  0
 22 28  1  0  0  0
 22 32  2  0  0  0
 26 27  1  0  0  0
 28103  1  0  0  0
 28104  1  0  0  0
 29105  1  0  0  0
 29106  1  0  0  0
 33 34  1  0  0  0
 33 66  1  0  0  0
 33 70  2  0  0  0
 34 36  1  0  0  0
 34 59  1  0  0  0
 34107  1  0  0  0
 35 44  2  0  0  0
 35 45  1  0  0  0
 35 68  1  0  0  0
 36 56  1  0  0  0
 36108  1  0  0  0
 37 39  1  0  0  0
 37 47  1  0  0  0
 37 66  1  0  0  0
 37109  1  0  0  0
 38 43  2  0  0  0
 38 46  1  0  0  0
 38 47  1  0  0  0
 39 64  1  0  0  0
 39 67  2  0  0  0
 40 52  1  0  0  0
 40 53  2  0  0  0
 40 58  1  0  0  0
 41110  1  0  0  0
 41111  1  0  0  0
 41112  1  0  0  0
 41 48  1  0  0  0
 42 43  1  0  0  0
 42 66  1  0  0  0
 42113  1  0  0  0
 42114  1  0  0  0
 43 44  1  0  0  0
 44115  1  0  0  0
 45 46  2  0  0  0
 45116  1  0  0  0
 46117  1  0  0  0
 47118  1  0  0  0
 47119  1  0  0  0
 48 56  1  0  0  0
 48 65  1  0  0  0
 48120  1  0  0  0
 49 50  1  0  0  0
 49 53  1  0  0  0
 49 64  1  0  0  0
 49121  1  0  0  0
 50 51  1  0  0  0
 50122  1  0  0  0
 50123  1  0  0  0
 51 52  1  0  0  0
 51124  1  0  0  0
 51125  1  0  0  0
 52126  1  0  0  0
 52127  1  0  0  0
 53 54  1  0  0  0
 54 55  2  0  0  0
 54128  1  0  0  0
 55 57  1  0  0  0
 55129  1  0  0  0
 56 69  2  0  0  0
 57 58  2  0  0  0
 57130  1  0  0  0
 58131  1  0  0  0
 59 60  1  0  0  0
 59 61  1  0  0  0
 59 62  1  0  0  0
 60132  1  0  0  0
 60133  1  0  0  0
 60134  1  0  0  0
 61135  1  0  0  0
 61136  1  0  0  0
 61137  1  0  0  0
 62138  1  0  0  0
 62139  1  0  0  0
 62140  1  0  0  0
 63 65  1  0  0  0
 63141  1  0  0  0
 63142  1  0  0  0
 63143  1  0  0  0
 64144  1  0  0  0
 65145  1  0  0  0
 68 81  1  0  0  0
 71 73  2  0  0  0
 71 74  1  0  0  0
 71146  1  0  0  0
 72 75  2  0  0  0
 72 76  1  0  0  0
 72147  1  0  0  0
 73 75  1  0  0  0
 73 82  1  0  0  0
 74 76  2  0  0  0
 74 83  1  0  0  0
 75 84  1  0  0  0
 76 86  1  0  0  0
 77 78  2  0  0  0
 77 79  1  0  0  0
 77 84  1  0  0  0
 78148  1  0  0  0
 78149  1  0  0  0
 79 81  1  0  0  0
 79150  1  0  0  0
 79151  1  0  0  0
 80 81  1  0  0  0
 80 84  1  0  0  0
 80152  1  0  0  0
 80153  1  0  0  0
 81154  1  0  0  0
 82155  1  0  0  0
 82156  1  0  0  0
 82157  1  0  0  0
 83 85  1  0  0  0
 83158  1  0  0  0
 83159  1  0  0  0
 85160  1  0  0  0
M  ISO  4   1 100  68 101  81 101  85 100
M  END
> <chiral flag>
0

> <version>
0

> <s_m_source_file>
/data/baiqing/PycharmProjects/Reinvent-master-3.2/result/LINK_invent/BTK/process_docking_weight1_custom_product_contain_oxygen_bond_distance_aromatic_linkinvent_7_9_3/rearranged_h_0034.sdf

> <i_m_source_file_index>
13

> <r_mmod_Potential_Energy-OPLS-2005>
98.1294784545898

> <r_mmod_Stretch_Energy-OPLS-2005>
80.225830078125

> <r_mmod_Bend_Energy-OPLS-2005>
190.746780395508

> <r_mmod_Torsional_Energy-OPLS-2005>
237.6328125

> <r_mmod_Improper_Torsional_Energy-OPLS-2005>
5.39553117752075

> <r_mmod_Van_der_Waal_Energy-OPLS-2005>
150.751205444336

> <r_mmod_Electrostatic_Energy-OPLS-2005>
-415.664642333984

> <r_mmod_Solvation_Energy-OPLS-2005>
-205.557525634766

> <b_mmod_Minimization_Converged-OPLS-2005>
0

> <r_mmod_RMS_Derivative-OPLS-2005>
0.517469763755798

$$$$
13
                    3D
 Structure written by MMmdl.
160168  0  0  1  0            999 V2000
  -30.7854  -14.4835   20.6024 C   0  0  0  0  0  0
  -30.4115  -12.3240   19.4564 C   0  0  0  0  0  0
  -29.4977  -12.5114   18.2281 C   0  0  0  0  0  0
  -28.0313  -12.3286   18.6537 C   0  0  0  0  0  0
  -27.6678  -13.2092   19.8763 C   0  0  2  0  0  0
  -28.7090  -13.0665   21.0149 C   0  0  0  0  0  0
  -25.2659  -13.8160   20.5650 C   0  0  0  0  0  0
  -24.1891  -13.0432   20.9166 C   0  0  0  0  0  0
  -24.6443  -11.6894   20.8718 C   0  0  0  0  0  0
  -23.9100  -10.4266   21.0402 C   0  0  0  0  0  0
  -24.3626   -9.4177   21.9191 C   0  0  0  0  0  0
  -23.6280   -8.2232   22.0800 C   0  0  0  0  0  0
  -22.4262   -8.0289   21.3597 C   0  0  0  0  0  0
  -21.9902   -9.0255   20.4686 C   0  0  0  0  0  0
  -22.7264  -10.2113   20.3071 C   0  0  0  0  0  0
  -21.6845   -6.0741   22.5277 C   0  0  0  0  0  0
  -21.4019   -6.5657   23.8211 C   0  0  0  0  0  0
  -21.3669   -5.6814   24.9174 C   0  0  0  0  0  0
  -21.6029   -4.3074   24.7209 C   0  0  0  0  0  0
  -21.8826   -3.8165   23.4334 C   0  0  0  0  0  0
  -21.9193   -4.6975   22.3388 C   0  0  0  0  0  0
  -22.7918  -13.5261   21.1783 C   0  0  0  0  0  0
  -22.1667   -4.2173   21.0962 F   0  0  0  0  0  0
  -21.5617   -3.4547   25.7715 F   0  0  0  0  0  0
  -30.0482  -13.3409   20.4652 N   0  0  0  0  0  0
  -26.3077  -12.9330   20.3382 N   0  0  0  0  0  0
  -25.9380  -11.6484   20.5775 N   0  0  0  0  0  0
  -22.0551  -12.8268   22.0341 N   0  0  0  0  0  0
  -25.4438  -15.1844   20.4087 N   0  0  0  0  0  0
  -31.8323  -14.6383   19.9685 O   0  0  0  0  0  0
  -21.6666   -6.8865   21.4241 O   0  0  0  0  0  0
  -22.3596  -14.5555   20.6623 O   0  0  0  0  0  0
  -24.6188  -31.8657   23.2068 C   0  0  0  0  0  0
  -25.9075  -32.4801   23.8382 C   0  0  1  0  0  0
  -27.2349  -27.3778   20.0999 C   0  0  0  0  0  0
  -25.5921  -33.8599   24.2317 N   0  0  0  0  0  0
  -23.4049  -30.4940   21.5452 C   0  0  2  0  0  0
  -24.8536  -28.9524   20.1185 C   0  0  0  0  0  0
  -22.7406  -29.4655   22.4908 C   0  0  0  0  0  0
  -18.0270  -28.1366   22.8522 C   0  0  0  0  0  0
  -24.1467  -36.7261   23.2644 C   0  0  0  0  0  0
  -25.9429  -30.8159   21.3686 C   0  0  0  0  0  0
  -26.0177  -29.4462   20.7159 C   0  0  0  0  0  0
  -27.2044  -28.6661   20.7052 C   0  0  0  0  0  0
  -26.0403  -26.9199   19.4903 C   0  0  0  0  0  0
  -24.8637  -27.6906   19.5052 C   0  0  0  0  0  0
  -23.6217  -29.8303   20.1612 C   0  0  0  0  0  0
  -25.4086  -36.3079   24.0349 C   0  0  1  0  0  0
  -20.5878  -28.3650   23.1301 C   0  0  2  0  0  0
  -20.6756  -26.9385   22.5412 C   0  0  0  0  0  0
  -19.5732  -26.6399   21.5191 C   0  0  0  0  0  0
  -18.1913  -26.7927   22.1622 C   0  0  0  0  0  0
  -19.1532  -28.8814   23.2919 C   0  0  0  0  0  0
  -18.9467  -30.1427   23.8942 C   0  0  0  0  0  0
  -17.6470  -30.6591   24.0578 C   0  0  0  0  0  0
  -25.9042  -34.9461   23.5115 C   0  0  0  0  0  0
  -16.5353  -29.9115   23.6326 C   0  0  0  0  0  0
  -16.7259  -28.6506   23.0384 C   0  0  0  0  0  0
  -26.4504  -31.6553   25.0693 C   0  0  0  0  0  0
  -25.3794  -31.3689   26.1452 C   0  0  0  0  0  0
  -27.0318  -30.2984   24.6071 C   0  0  0  0  0  0
  -27.6043  -32.4274   25.7488 C   0  0  0  0  0  0
  -27.5563  -37.1783   24.8498 C   0  0  0  0  0  0
  -21.4131  -29.3030   22.3672 N   0  0  0  0  0  0
  -26.4259  -37.3780   23.9442 N   0  0  0  0  0  0
  -24.6737  -31.0761   22.0967 N   0  0  0  0  0  0
  -23.4171  -28.8224   23.2963 O   0  0  0  0  0  0
  -28.4086  -26.6254   20.1657 O   0  0  0  0  0  0
  -26.5598  -34.8947   22.4687 O   0  0  0  0  0  0
  -23.5372  -32.1407   23.7458 O   0  0  0  0  0  0
  -29.9945  -17.9166   21.3871 C   0  0  0  0  0  0
  -32.7222  -18.4151   21.6070 C   0  0  0  0  0  0
  -30.4383  -19.2759   21.3454 C   0  0  0  0  0  0
  -31.8501  -19.5011   21.3702 C   0  0  0  0  0  0
  -32.2532  -17.0941   21.7440 C   0  0  0  0  0  0
  -30.8752  -16.8078   21.5139 C   0  0  0  0  0  0
  -29.3858  -20.3877   21.4120 C   0  0  0  0  0  0
  -32.4947  -20.8580   21.1268 C   0  0  0  0  0  0
  -33.2829  -16.0443   22.1482 C   0  0  0  0  0  0
  -29.1601  -24.1685   20.5236 C   0  0  0  0  0  0
  -28.6173  -22.7302   20.9153 C   0  0  0  0  0  0
  -28.5208  -25.2840   19.5958 C   0  0  0  0  0  0
  -30.3386  -15.4631   21.4303 N   0  0  0  0  0  0
  -29.5923  -21.6025   20.8468 N   0  0  0  0  0  0
  -28.3209  -20.1441   21.9874 O   0  0  0  0  0  0
  -31.4645  -12.3641   19.1715 H   0  0  0  0  0  0
  -30.2775  -11.3253   19.8780 H   0  0  0  0  0  0
  -29.7546  -11.7867   17.4559 H   0  0  0  0  0  0
  -29.6432  -13.4999   17.7857 H   0  0  0  0  0  0
  -27.8973  -11.2782   18.9096 H   0  0  0  0  0  0
  -27.3592  -12.5274   17.8190 H   0  0  0  0  0  0
  -27.7003  -14.2409   19.5309 H   0  0  0  0  0  0
  -28.6819  -12.0598   21.4382 H   0  0  0  0  0  0
  -28.4631  -13.7376   21.8351 H   0  0  0  0  0  0
  -25.2759   -9.5654   22.4772 H   0  0  0  0  0  0
  -23.9995   -7.4632   22.7524 H   0  0  0  0  0  0
  -21.0857   -8.8789   19.8958 H   0  0  0  0  0  0
  -22.3764  -10.9662   19.6177 H   0  0  0  0  0  0
  -21.2045   -7.6168   23.9717 H   0  0  0  0  0  0
  -21.1479   -6.0542   25.9076 H   0  0  0  0  0  0
  -22.0596   -2.7624   23.2823 H   0  0  0  0  0  0
  -22.4193  -11.9926   22.4687 H   0  0  0  0  0  0
  -21.1188  -13.1334   22.2588 H   0  0  0  0  0  0
  -24.6787  -15.8408   20.5175 H   0  0  0  0  0  0
  -26.3119  -15.6197   20.1191 H   0  0  0  0  0  0
  -26.7160  -32.5510   23.1144 H   0  0  0  0  0  0
  -25.0154  -33.9766   25.0514 H   0  0  0  0  0  0
  -22.6891  -31.3065   21.4088 H   0  0  0  0  0  0
  -23.3745  -35.9583   23.3329 H   0  0  0  0  0  0
  -24.3562  -36.8830   22.2055 H   0  0  0  0  0  0
  -23.7200  -37.6462   23.6632 H   0  0  0  0  0  0
  -26.0684  -31.5781   20.5985 H   0  0  0  0  0  0
  -26.8233  -30.8659   21.9954 H   0  0  0  0  0  0
  -28.0986  -29.0472   21.1813 H   0  0  0  0  0  0
  -25.9584  -25.9659   18.9983 H   0  0  0  0  0  0
  -23.9641  -27.2992   19.0500 H   0  0  0  0  0  0
  -23.7563  -30.6089   19.4103 H   0  0  0  0  0  0
  -22.7387  -29.2707   19.8488 H   0  0  0  0  0  0
  -25.1254  -36.1927   25.0836 H   0  0  0  0  0  0
  -20.9992  -28.3246   24.1397 H   0  0  0  0  0  0
  -20.5614  -26.2256   23.3592 H   0  0  0  0  0  0
  -21.6633  -26.7405   22.1216 H   0  0  0  0  0  0
  -19.6887  -25.6317   21.1188 H   0  0  0  0  0  0
  -19.6690  -27.3225   20.6743 H   0  0  0  0  0  0
  -17.4178  -26.6673   21.4033 H   0  0  0  0  0  0
  -18.0361  -26.0015   22.8991 H   0  0  0  0  0  0
  -19.7953  -30.7230   24.2315 H   0  0  0  0  0  0
  -17.5053  -31.6285   24.5170 H   0  0  0  0  0  0
  -15.5372  -30.3071   23.7608 H   0  0  0  0  0  0
  -15.8643  -28.0852   22.7110 H   0  0  0  0  0  0
  -24.5976  -30.6971   25.7877 H   0  0  0  0  0  0
  -24.8980  -32.2856   26.4867 H   0  0  0  0  0  0
  -25.8196  -30.8951   27.0227 H   0  0  0  0  0  0
  -26.2845  -29.6714   24.1164 H   0  0  0  0  0  0
  -27.4120  -29.7231   25.4521 H   0  0  0  0  0  0
  -27.8693  -30.4269   23.9197 H   0  0  0  0  0  0
  -27.2613  -33.3562   26.2068 H   0  0  0  0  0  0
  -28.3893  -32.6815   25.0352 H   0  0  0  0  0  0
  -28.0652  -31.8378   26.5420 H   0  0  0  0  0  0
  -28.2612  -38.0054   24.7496 H   0  0  0  0  0  0
  -28.1013  -36.2572   24.6354 H   0  0  0  0  0  0
  -27.2297  -37.1486   25.8915 H   0  0  0  0  0  0
  -20.9229  -29.8729   21.6922 H   0  0  0  0  0  0
  -26.0135  -38.2857   24.1446 H   0  0  0  0  0  0
  -28.9337  -17.7177   21.3400 H   0  0  0  0  0  0
  -33.7900  -18.5889   21.6896 H   0  0  0  0  0  0
  -32.2920  -21.1765   20.1021 H   0  0  0  0  0  0
  -33.5812  -20.8116   21.2280 H   0  0  0  0  0  0
  -32.1441  -21.6184   21.8214 H   0  0  0  0  0  0
  -32.8398  -15.1032   22.4703 H   0  0  0  0  0  0
  -33.8834  -16.3976   22.9872 H   0  0  0  0  0  0
  -33.9677  -15.8511   21.3204 H   0  0  0  0  0  0
  -29.3485  -23.6770   19.5655 H   0  0  0  0  0  0
  -28.2764  -24.4729   21.0857 H   0  0  0  0  0  0
  -27.7551  -22.4772   20.2912 H   0  0  0  0  0  0
  -28.2329  -22.7327   21.9421 H   0  0  0  0  0  0
  -27.6051  -24.8812   19.1699 H   0  0  0  0  0  0
  -29.1675  -25.4439   18.7292 H   0  0  0  0  0  0
  -29.4260  -15.3043   21.8338 H   0  0  0  0  0  0
  -30.4493  -21.7451   20.3306 H   0  0  0  0  0  0
  1 25  1  0  0  0
  1 30  2  0  0  0
  1 83  1  0  0  0
  2  3  1  0  0  0
  2 25  1  0  0  0
  2 86  1  0  0  0
  2 87  1  0  0  0
  3  4  1  0  0  0
  3 88  1  0  0  0
  3 89  1  0  0  0
  4  5  1  0  0  0
  4 90  1  0  0  0
  4 91  1  0  0  0
  5  6  1  0  0  0
  5 26  1  0  0  0
  5 92  1  0  0  0
  6 25  1  0  0  0
  6 93  1  0  0  0
  6 94  1  0  0  0
  7  8  2  0  0  0
  7 26  1  0  0  0
  7 29  1  0  0  0
  8  9  1  0  0  0
  8 22  1  0  0  0
  9 10  1  0  0  0
  9 27  2  0  0  0
 10 11  2  0  0  0
 10 15  1  0  0  0
 11 12  1  0  0  0
 11 95  1  0  0  0
 12 13  2  0  0  0
 12 96  1  0  0  0
 13 14  1  0  0  0
 13 31  1  0  0  0
 14 15  2  0  0  0
 14 97  1  0  0  0
 15 98  1  0  0  0
 16 17  2  0  0  0
 16 21  1  0  0  0
 16 31  1  0  0  0
 17 18  1  0  0  0
 17 99  1  0  0  0
 18 19  2  0  0  0
 18100  1  0  0  0
 19 20  1  0  0  0
 19 24  1  0  0  0
 20 21  2  0  0  0
 20101  1  0  0  0
 21 23  1  0  0  0
 22 28  1  0  0  0
 22 32  2  0  0  0
 26 27  1  0  0  0
 28102  1  0  0  0
 28103  1  0  0  0
 29104  1  0  0  0
 29105  1  0  0  0
 33 34  1  0  0  0
 33 66  1  0  0  0
 33 70  2  0  0  0
 34 36  1  0  0  0
 34 59  1  0  0  0
 34106  1  0  0  0
 35 44  2  0  0  0
 35 45  1  0  0  0
 35 68  1  0  0  0
 36 56  1  0  0  0
 36107  1  0  0  0
 37 39  1  0  0  0
 37 47  1  0  0  0
 37 66  1  0  0  0
 37108  1  0  0  0
 38 43  2  0  0  0
 38 46  1  0  0  0
 38 47  1  0  0  0
 39 64  1  0  0  0
 39 67  2  0  0  0
 40 52  1  0  0  0
 40 53  2  0  0  0
 40 58  1  0  0  0
 41109  1  0  0  0
 41110  1  0  0  0
 41111  1  0  0  0
 41 48  1  0  0  0
 42 43  1  0  0  0
 42 66  1  0  0  0
 42112  1  0  0  0
 42113  1  0  0  0
 43 44  1  0  0  0
 44114  1  0  0  0
 45 46  2  0  0  0
 45115  1  0  0  0
 46116  1  0  0  0
 47117  1  0  0  0
 47118  1  0  0  0
 48 56  1  0  0  0
 48 65  1  0  0  0
 48119  1  0  0  0
 49 50  1  0  0  0
 49 53  1  0  0  0
 49 64  1  0  0  0
 49120  1  0  0  0
 50 51  1  0  0  0
 50121  1  0  0  0
 50122  1  0  0  0
 51 52  1  0  0  0
 51123  1  0  0  0
 51124  1  0  0  0
 52125  1  0  0  0
 52126  1  0  0  0
 53 54  1  0  0  0
 54 55  2  0  0  0
 54127  1  0  0  0
 55 57  1  0  0  0
 55128  1  0  0  0
 56 69  2  0  0  0
 57 58  2  0  0  0
 57129  1  0  0  0
 58130  1  0  0  0
 59 60  1  0  0  0
 59 61  1  0  0  0
 59 62  1  0  0  0
 60131  1  0  0  0
 60132  1  0  0  0
 60133  1  0  0  0
 61134  1  0  0  0
 61135  1  0  0  0
 61136  1  0  0  0
 62137  1  0  0  0
 62138  1  0  0  0
 62139  1  0  0  0
 63 65  1  0  0  0
 63140  1  0  0  0
 63141  1  0  0  0
 63142  1  0  0  0
 64143  1  0  0  0
 65144  1  0  0  0
 68 82  1  0  0  0
 71 73  2  0  0  0
 71 76  1  0  0  0
 71145  1  0  0  0
 72 74  2  0  0  0
 72 75  1  0  0  0
 72146  1  0  0  0
 73 74  1  0  0  0
 73 77  1  0  0  0
 74 78  1  0  0  0
 75 76  2  0  0  0
 75 79  1  0  0  0
 76 83  1  0  0  0
 77 84  1  0  0  0
 77 85  2  0  0  0
 78147  1  0  0  0
 78148  1  0  0  0
 78149  1  0  0  0
 79150  1  0  0  0
 79151  1  0  0  0
 79152  1  0  0  0
 80 81  1  0  0  0
 80 82  1  0  0  0
 80153  1  0  0  0
 80154  1  0  0  0
 81 84  1  0  0  0
 81155  1  0  0  0
 81156  1  0  0  0
 82157  1  0  0  0
 82158  1  0  0  0
 83159  1  0  0  0
 84160  1  0  0  0
M  ISO  4   1 100  68 101  82 101  83 100
M  END
> <chiral flag>
0

> <version>
0

> <s_m_source_file>
/data/baiqing/PycharmProjects/Reinvent-master-3.2/result/LINK_invent/BTK/process_docking_weight1_custom_product_contain_oxygen_bond_distance_aromatic_linkinvent_7_9_3/rearranged_h_0034.sdf

> <i_m_source_file_index>
14

> <r_mmod_Potential_Energy-OPLS-2005>
215.266372680664

> <r_mmod_Stretch_Energy-OPLS-2005>
63.2543907165527

> <r_mmod_Bend_Energy-OPLS-2005>
361.956390380859

> <r_mmod_Torsional_Energy-OPLS-2005>
245.070510864258

> <r_mmod_Improper_Torsional_Energy-OPLS-2005>
2.78087258338928

> <r_mmod_Van_der_Waal_Energy-OPLS-2005>
178.776000976562

> <r_mmod_Electrostatic_Energy-OPLS-2005>
-430.680145263672

> <r_mmod_Solvation_Energy-OPLS-2005>
-227.637481689453

> <b_mmod_Minimization_Converged-OPLS-2005>
0

> <r_mmod_RMS_Derivative-OPLS-2005>
5.37878942489624

$$$$
14
                    3D
 Structure written by MMmdl.
163172  0  0  1  0            999 V2000
  -30.6680  -14.6288   20.5062 C   0  0  0  0  0  0
  -30.4216  -12.3932   19.4495 C   0  0  0  0  0  0
  -29.4972  -12.5012   18.2194 C   0  0  0  0  0  0
  -28.0216  -12.3445   18.6351 C   0  0  0  0  0  0
  -27.6457  -13.2251   19.8575 C   0  0  2  0  0  0
  -28.6919  -13.1117   20.9874 C   0  0  0  0  0  0
  -25.2525  -13.8201   20.5700 C   0  0  0  0  0  0
  -24.1811  -13.0448   20.9206 C   0  0  0  0  0  0
  -24.6394  -11.6923   20.8757 C   0  0  0  0  0  0
  -23.9070  -10.4297   21.0416 C   0  0  0  0  0  0
  -24.3622   -9.4212   21.9191 C   0  0  0  0  0  0
  -23.6295   -8.2246   22.0759 C   0  0  0  0  0  0
  -22.4276   -8.0282   21.3549 C   0  0  0  0  0  0
  -21.9914   -9.0259   20.4647 C   0  0  0  0  0  0
  -22.7244  -10.2137   20.3061 C   0  0  0  0  0  0
  -21.6853   -6.0742   22.5279 C   0  0  0  0  0  0
  -21.4014   -6.5646   23.8215 C   0  0  0  0  0  0
  -21.3659   -5.6795   24.9175 C   0  0  0  0  0  0
  -21.6039   -4.3058   24.7225 C   0  0  0  0  0  0
  -21.8819   -3.8150   23.4345 C   0  0  0  0  0  0
  -21.9194   -4.6967   22.3402 C   0  0  0  0  0  0
  -22.7833  -13.5229   21.1860 C   0  0  0  0  0  0
  -22.1658   -4.2153   21.0980 F   0  0  0  0  0  0
  -21.5629   -3.4538   25.7741 F   0  0  0  0  0  0
  -30.0005  -13.4372   20.4059 N   0  0  0  0  0  0
  -26.2954  -12.9392   20.3318 N   0  0  0  0  0  0
  -25.9320  -11.6538   20.5774 N   0  0  0  0  0  0
  -22.0480  -12.8218   22.0418 N   0  0  0  0  0  0
  -25.4227  -15.1925   20.4105 N   0  0  0  0  0  0
  -31.8464  -14.7186   20.1562 O   0  0  0  0  0  0
  -21.6642   -6.8880   21.4241 O   0  0  0  0  0  0
  -22.3515  -14.5538   20.6714 O   0  0  0  0  0  0
  -24.6269  -31.8598   23.2029 C   0  0  0  0  0  0
  -25.9120  -32.4779   23.8356 C   0  0  1  0  0  0
  -27.2135  -27.3052   20.1122 C   0  0  0  0  0  0
  -25.5943  -33.8584   24.2278 N   0  0  0  0  0  0
  -23.4200  -30.4872   21.5466 C   0  0  2  0  0  0
  -24.8641  -28.9469   20.1081 C   0  0  0  0  0  0
  -22.7483  -29.4625   22.4930 C   0  0  0  0  0  0
  -18.0288  -28.1381   22.8487 C   0  0  0  0  0  0
  -24.1486  -36.7284   23.2640 C   0  0  0  0  0  0
  -25.9645  -30.7868   21.3777 C   0  0  0  0  0  0
  -26.0356  -29.4147   20.7169 C   0  0  0  0  0  0
  -27.2125  -28.6046   20.7119 C   0  0  0  0  0  0
  -26.0198  -26.9084   19.4632 C   0  0  0  0  0  0
  -24.8594  -27.6993   19.4724 C   0  0  0  0  0  0
  -23.6350  -29.8285   20.1603 C   0  0  0  0  0  0
  -25.4112  -36.3074   24.0330 C   0  0  1  0  0  0
  -20.5895  -28.3688   23.1275 C   0  0  2  0  0  0
  -20.6777  -26.9412   22.5403 C   0  0  0  0  0  0
  -19.5752  -26.6374   21.5214 C   0  0  0  0  0  0
  -18.1928  -26.7922   22.1617 C   0  0  0  0  0  0
  -19.1546  -28.8852   23.2876 C   0  0  0  0  0  0
  -18.9472  -30.1462   23.8882 C   0  0  0  0  0  0
  -17.6472  -30.6583   24.0578 C   0  0  0  0  0  0
  -25.9056  -34.9451   23.5098 C   0  0  0  0  0  0
  -16.5362  -29.9088   23.6334 C   0  0  0  0  0  0
  -16.7277  -28.6504   23.0348 C   0  0  0  0  0  0
  -26.4496  -31.6590   25.0732 C   0  0  0  0  0  0
  -25.3733  -31.3749   26.1469 C   0  0  0  0  0  0
  -27.0342  -30.3010   24.6186 C   0  0  0  0  0  0
  -27.6055  -32.4337   25.7499 C   0  0  0  0  0  0
  -27.5578  -37.1791   24.8469 C   0  0  0  0  0  0
  -21.4195  -29.3048   22.3674 N   0  0  0  0  0  0
  -26.4281  -37.3777   23.9426 N   0  0  0  0  0  0
  -24.6898  -31.0606   22.0992 N   0  0  0  0  0  0
  -23.4211  -28.8161   23.2998 O   0  0  0  0  0  0
  -28.3146  -26.4282   20.1876 O   0  0  0  0  0  0
  -26.5617  -34.8925   22.4660 O   0  0  0  0  0  0
  -23.5423  -32.1401   23.7345 O   0  0  0  0  0  0
  -30.3589  -20.7011   19.6714 C   0  0  0  0  0  0
  -28.7456  -19.0496   21.2700 C   0  0  0  0  0  0
  -28.3646  -20.4164   20.9923 C   0  0  0  0  0  0
  -29.9546  -18.4904   20.7461 C   0  0  0  0  0  0
  -29.1796  -21.2814   20.1959 C   0  0  0  0  0  0
  -30.7363  -19.3577   19.9342 C   0  0  0  0  0  0
  -28.5142  -23.0427   18.5271 C   0  0  0  0  0  0
  -28.3586  -22.2465   17.4564 C   0  0  0  0  0  0
  -28.3080  -24.5515   18.4995 C   0  0  0  0  0  0
  -28.8968  -23.8239   20.6976 C   0  0  0  0  0  0
  -28.0924  -24.9704   19.9622 C   0  0  1  0  0  0
  -27.8444  -18.1868   22.1509 C   0  0  0  0  0  0
  -27.0412  -20.9492   21.5323 C   0  0  0  0  0  0
  -30.5631  -17.0943   21.1769 C   0  0  0  0  0  0
  -28.8137  -22.6250   19.8179 N   0  0  0  0  0  0
  -29.9596  -15.7522   20.8499 N   0  0  0  0  0  0
  -31.9028  -18.9105   19.4080 F   0  0  0  0  0  0
  -31.4651  -12.4973   19.1462 H   0  0  0  0  0  0
  -30.3422  -11.4053   19.9061 H   0  0  0  0  0  0
  -29.7612  -11.7424   17.4816 H   0  0  0  0  0  0
  -29.6413  -13.4662   17.7305 H   0  0  0  0  0  0
  -27.8569  -11.2923   18.8712 H   0  0  0  0  0  0
  -27.3663  -12.5705   17.7936 H   0  0  0  0  0  0
  -27.6559  -14.2569   19.5057 H   0  0  0  0  0  0
  -28.7047  -12.1026   21.4026 H   0  0  0  0  0  0
  -28.4442  -13.7771   21.8158 H   0  0  0  0  0  0
  -25.2770   -9.5689   22.4760 H   0  0  0  0  0  0
  -24.0008   -7.4637   22.7474 H   0  0  0  0  0  0
  -21.0850   -8.8768   19.8951 H   0  0  0  0  0  0
  -22.3702  -10.9673   19.6167 H   0  0  0  0  0  0
  -21.2005   -7.6155   23.9718 H   0  0  0  0  0  0
  -21.1479   -6.0527   25.9079 H   0  0  0  0  0  0
  -22.0601   -2.7610   23.2843 H   0  0  0  0  0  0
  -22.4096  -11.9874   22.4794 H   0  0  0  0  0  0
  -21.1097  -13.1233   22.2626 H   0  0  0  0  0  0
  -24.6523  -15.8434   20.5140 H   0  0  0  0  0  0
  -26.2638  -15.6291   20.0566 H   0  0  0  0  0  0
  -26.7192  -32.5438   23.1104 H   0  0  0  0  0  0
  -25.0151  -33.9748   25.0461 H   0  0  0  0  0  0
  -22.7146  -31.3084   21.4052 H   0  0  0  0  0  0
  -23.3750  -35.9614   23.3291 H   0  0  0  0  0  0
  -24.3573  -36.8901   22.2054 H   0  0  0  0  0  0
  -23.7223  -37.6479   23.6662 H   0  0  0  0  0  0
  -26.0990  -31.5500   20.6103 H   0  0  0  0  0  0
  -26.8440  -30.8313   22.0076 H   0  0  0  0  0  0
  -28.1068  -28.9565   21.2084 H   0  0  0  0  0  0
  -25.9358  -25.9659   18.9477 H   0  0  0  0  0  0
  -23.9652  -27.3361   18.9846 H   0  0  0  0  0  0
  -23.7606  -30.6093   19.4100 H   0  0  0  0  0  0
  -22.7529  -29.2642   19.8509 H   0  0  0  0  0  0
  -25.1285  -36.1904   25.0817 H   0  0  0  0  0  0
  -21.0004  -28.3248   24.1389 H   0  0  0  0  0  0
  -20.5669  -26.2309   23.3611 H   0  0  0  0  0  0
  -21.6646  -26.7426   22.1204 H   0  0  0  0  0  0
  -19.6931  -25.6282   21.1245 H   0  0  0  0  0  0
  -19.6688  -27.3191   20.6751 H   0  0  0  0  0  0
  -17.4207  -26.6680   21.4011 H   0  0  0  0  0  0
  -18.0323  -26.0054   22.9002 H   0  0  0  0  0  0
  -19.7957  -30.7290   24.2214 H   0  0  0  0  0  0
  -17.5031  -31.6261   24.5193 H   0  0  0  0  0  0
  -15.5366  -30.3001   23.7652 H   0  0  0  0  0  0
  -15.8672  -28.0838   22.7054 H   0  0  0  0  0  0
  -24.5933  -30.7052   25.7823 H   0  0  0  0  0  0
  -24.8908  -32.2927   26.4847 H   0  0  0  0  0  0
  -25.8072  -30.8987   27.0272 H   0  0  0  0  0  0
  -26.2922  -29.6759   24.1204 H   0  0  0  0  0  0
  -27.4033  -29.7255   25.4681 H   0  0  0  0  0  0
  -27.8791  -30.4290   23.9419 H   0  0  0  0  0  0
  -27.2666  -33.3670   26.2010 H   0  0  0  0  0  0
  -28.3902  -32.6831   25.0348 H   0  0  0  0  0  0
  -28.0680  -31.8502   26.5466 H   0  0  0  0  0  0
  -28.2579  -38.0107   24.7526 H   0  0  0  0  0  0
  -28.1074  -36.2628   24.6253 H   0  0  0  0  0  0
  -27.2306  -37.1401   25.8876 H   0  0  0  0  0  0
  -20.9362  -29.8811   21.6929 H   0  0  0  0  0  0
  -26.0142  -38.2837   24.1449 H   0  0  0  0  0  0
  -31.0003  -21.2996   19.0410 H   0  0  0  0  0  0
  -28.0961  -22.6541   16.4904 H   0  0  0  0  0  0
  -28.4808  -21.1744   17.5186 H   0  0  0  0  0  0
  -27.4677  -24.8212   17.8595 H   0  0  0  0  0  0
  -29.2025  -25.0204   18.0878 H   0  0  0  0  0  0
  -28.5012  -23.6238   21.6944 H   0  0  0  0  0  0
  -29.9444  -24.1071   20.8073 H   0  0  0  0  0  0
  -27.0661  -24.7286   20.2396 H   0  0  0  0  0  0
  -27.4658  -18.7488   23.0044 H   0  0  0  0  0  0
  -28.3460  -17.3127   22.5610 H   0  0  0  0  0  0
  -26.9898  -17.8330   21.5735 H   0  0  0  0  0  0
  -26.2477  -20.2089   21.4330 H   0  0  0  0  0  0
  -26.6959  -21.8337   20.9984 H   0  0  0  0  0  0
  -27.1421  -21.2134   22.5848 H   0  0  0  0  0  0
  -30.6380  -17.1250   22.2641 H   0  0  0  0  0  0
  -31.6056  -17.0856   20.8600 H   0  0  0  0  0  0
  -28.9780  -15.6297   21.0424 H   0  0  0  0  0  0
  1 25  1  0  0  0
  1 30  2  0  0  0
  1 86  1  0  0  0
  2  3  1  0  0  0
  2 25  1  0  0  0
  2 88  1  0  0  0
  2 89  1  0  0  0
  3  4  1  0  0  0
  3 90  1  0  0  0
  3 91  1  0  0  0
  4  5  1  0  0  0
  4 92  1  0  0  0
  4 93  1  0  0  0
  5  6  1  0  0  0
  5 26  1  0  0  0
  5 94  1  0  0  0
  6 25  1  0  0  0
  6 95  1  0  0  0
  6 96  1  0  0  0
  7  8  2  0  0  0
  7 26  1  0  0  0
  7 29  1  0  0  0
  8  9  1  0  0  0
  8 22  1  0  0  0
  9 10  1  0  0  0
  9 27  2  0  0  0
 10 11  2  0  0  0
 10 15  1  0  0  0
 11 12  1  0  0  0
 11 97  1  0  0  0
 12 13  2  0  0  0
 12 98  1  0  0  0
 13 14  1  0  0  0
 13 31  1  0  0  0
 14 15  2  0  0  0
 14 99  1  0  0  0
 15100  1  0  0  0
 16 17  2  0  0  0
 16 21  1  0  0  0
 16 31  1  0  0  0
 17 18  1  0  0  0
 17101  1  0  0  0
 18 19  2  0  0  0
 18102  1  0  0  0
 19 20  1  0  0  0
 19 24  1  0  0  0
 20 21  2  0  0  0
 20103  1  0  0  0
 21 23  1  0  0  0
 22 28  1  0  0  0
 22 32  2  0  0  0
 26 27  1  0  0  0
 28104  1  0  0  0
 28105  1  0  0  0
 29106  1  0  0  0
 29107  1  0  0  0
 33 34  1  0  0  0
 33 66  1  0  0  0
 33 70  2  0  0  0
 34 36  1  0  0  0
 34 59  1  0  0  0
 34108  1  0  0  0
 35 44  2  0  0  0
 35 45  1  0  0  0
 35 68  1  0  0  0
 36 56  1  0  0  0
 36109  1  0  0  0
 37 39  1  0  0  0
 37 47  1  0  0  0
 37 66  1  0  0  0
 37110  1  0  0  0
 38 43  2  0  0  0
 38 46  1  0  0  0
 38 47  1  0  0  0
 39 64  1  0  0  0
 39 67  2  0  0  0
 40 52  1  0  0  0
 40 53  2  0  0  0
 40 58  1  0  0  0
 41111  1  0  0  0
 41112  1  0  0  0
 41113  1  0  0  0
 41 48  1  0  0  0
 42 43  1  0  0  0
 42 66  1  0  0  0
 42114  1  0  0  0
 42115  1  0  0  0
 43 44  1  0  0  0
 44116  1  0  0  0
 45 46  2  0  0  0
 45117  1  0  0  0
 46118  1  0  0  0
 47119  1  0  0  0
 47120  1  0  0  0
 48 56  1  0  0  0
 48 65  1  0  0  0
 48121  1  0  0  0
 49 50  1  0  0  0
 49 53  1  0  0  0
 49 64  1  0  0  0
 49122  1  0  0  0
 50 51  1  0  0  0
 50123  1  0  0  0
 50124  1  0  0  0
 51 52  1  0  0  0
 51125  1  0  0  0
 51126  1  0  0  0
 52127  1  0  0  0
 52128  1  0  0  0
 53 54  1  0  0  0
 54 55  2  0  0  0
 54129  1  0  0  0
 55 57  1  0  0  0
 55130  1  0  0  0
 56 69  2  0  0  0
 57 58  2  0  0  0
 57131  1  0  0  0
 58132  1  0  0  0
 59 60  1  0  0  0
 59 61  1  0  0  0
 59 62  1  0  0  0
 60133  1  0  0  0
 60134  1  0  0  0
 60135  1  0  0  0
 61136  1  0  0  0
 61137  1  0  0  0
 61138  1  0  0  0
 62139  1  0  0  0
 62140  1  0  0  0
 62141  1  0  0  0
 63 65  1  0  0  0
 63142  1  0  0  0
 63143  1  0  0  0
 63144  1  0  0  0
 64145  1  0  0  0
 65146  1  0  0  0
 68 81  1  0  0  0
 71 75  2  0  0  0
 71 76  1  0  0  0
 71147  1  0  0  0
 72 73  2  0  0  0
 72 74  1  0  0  0
 72 82  1  0  0  0
 73 75  1  0  0  0
 73 83  1  0  0  0
 74 76  2  0  0  0
 74 84  1  0  0  0
 75 85  1  0  0  0
 76 87  1  0  0  0
 77 78  2  0  0  0
 77 79  1  0  0  0
 77 85  1  0  0  0
 78148  1  0  0  0
 78149  1  0  0  0
 79 81  1  0  0  0
 79150  1  0  0  0
 79151  1  0  0  0
 80 81  1  0  0  0
 80 85  1  0  0  0
 80152  1  0  0  0
 80153  1  0  0  0
 81154  1  0  0  0
 82155  1  0  0  0
 82156  1  0  0  0
 82157  1  0  0  0
 83158  1  0  0  0
 83159  1  0  0  0
 83160  1  0  0  0
 84 86  1  0  0  0
 84161  1  0  0  0
 84162  1  0  0  0
 86163  1  0  0  0
M  ISO  4   1 100  68 101  81 101  86 100
M  END
> <chiral flag>
0

> <version>
0

> <s_m_source_file>
/data/baiqing/PycharmProjects/Reinvent-master-3.2/result/LINK_invent/BTK/process_docking_weight1_custom_product_contain_oxygen_bond_distance_aromatic_linkinvent_7_9_3/rearranged_h_0034.sdf

> <i_m_source_file_index>
15

> <r_mmod_Potential_Energy-OPLS-2005>
118.835624694824

> <r_mmod_Stretch_Energy-OPLS-2005>
84.1640014648438

> <r_mmod_Bend_Energy-OPLS-2005>
190.273834228516

> <r_mmod_Torsional_Energy-OPLS-2005>
248.698303222656

> <r_mmod_Improper_Torsional_Energy-OPLS-2005>
5.16423606872559

> <r_mmod_Van_der_Waal_Energy-OPLS-2005>
152.028762817383

> <r_mmod_Electrostatic_Energy-OPLS-2005>
-411.293151855469

> <r_mmod_Solvation_Energy-OPLS-2005>
-204.049072265625

> <b_mmod_Minimization_Converged-OPLS-2005>
0

> <r_mmod_RMS_Derivative-OPLS-2005>
1.5950939655304

$$$$
15
                    3D
 Structure written by MMmdl.
156164  0  0  1  0            999 V2000
  -30.5935  -14.6804   20.4992 C   0  0  0  0  0  0
  -30.4432  -12.4178   19.4606 C   0  0  0  0  0  0
  -29.5125  -12.5161   18.2296 C   0  0  0  0  0  0
  -28.0355  -12.3478   18.6396 C   0  0  0  0  0  0
  -27.6525  -13.2183   19.8655 C   0  0  2  0  0  0
  -28.6958  -13.0778   20.9968 C   0  0  0  0  0  0
  -25.2555  -13.8179   20.5699 C   0  0  0  0  0  0
  -24.1822  -13.0446   20.9201 C   0  0  0  0  0  0
  -24.6389  -11.6915   20.8743 C   0  0  0  0  0  0
  -23.9061  -10.4295   21.0414 C   0  0  0  0  0  0
  -24.3617   -9.4209   21.9186 C   0  0  0  0  0  0
  -23.6290   -8.2248   22.0758 C   0  0  0  0  0  0
  -22.4269   -8.0288   21.3553 C   0  0  0  0  0  0
  -21.9902   -9.0260   20.4656 C   0  0  0  0  0  0
  -22.7234  -10.2138   20.3062 C   0  0  0  0  0  0
  -21.6847   -6.0741   22.5284 C   0  0  0  0  0  0
  -21.4014   -6.5644   23.8219 C   0  0  0  0  0  0
  -21.3656   -5.6794   24.9178 C   0  0  0  0  0  0
  -21.6042   -4.3056   24.7224 C   0  0  0  0  0  0
  -21.8815   -3.8151   23.4342 C   0  0  0  0  0  0
  -21.9192   -4.6972   22.3402 C   0  0  0  0  0  0
  -22.7844  -13.5245   21.1850 C   0  0  0  0  0  0
  -22.1659   -4.2165   21.0977 F   0  0  0  0  0  0
  -21.5623   -3.4535   25.7733 F   0  0  0  0  0  0
  -30.0088  -13.4384   20.4387 N   0  0  0  0  0  0
  -26.2978  -12.9357   20.3320 N   0  0  0  0  0  0
  -25.9320  -11.6513   20.5756 N   0  0  0  0  0  0
  -22.0468  -12.8255   22.0407 N   0  0  0  0  0  0
  -25.4267  -15.1901   20.4128 N   0  0  0  0  0  0
  -31.7424  -14.8622   20.0826 O   0  0  0  0  0  0
  -21.6633   -6.8885   21.4247 O   0  0  0  0  0  0
  -22.3539  -14.5547   20.6680 O   0  0  0  0  0  0
  -24.6259  -31.8575   23.1987 C   0  0  0  0  0  0
  -25.9107  -32.4760   23.8324 C   0  0  1  0  0  0
  -27.2313  -27.3042   20.1215 C   0  0  0  0  0  0
  -25.5921  -33.8563   24.2257 N   0  0  0  0  0  0
  -23.4206  -30.4779   21.5399 C   0  0  2  0  0  0
  -24.8677  -28.9223   20.1097 C   0  0  0  0  0  0
  -22.7472  -29.4613   22.4920 C   0  0  0  0  0  0
  -18.0290  -28.1386   22.8485 C   0  0  0  0  0  0
  -24.1486  -36.7278   23.2642 C   0  0  0  0  0  0
  -25.9600  -30.7822   21.3720 C   0  0  0  0  0  0
  -26.0332  -29.4070   20.7156 C   0  0  0  0  0  0
  -27.2123  -28.6069   20.7126 C   0  0  0  0  0  0
  -26.0429  -26.8647   19.4993 C   0  0  0  0  0  0
  -24.8756  -27.6582   19.4947 C   0  0  0  0  0  0
  -23.6360  -29.8048   20.1568 C   0  0  0  0  0  0
  -25.4116  -36.3074   24.0331 C   0  0  1  0  0  0
  -20.5889  -28.3689   23.1282 C   0  0  2  0  0  0
  -20.6775  -26.9407   22.5416 C   0  0  0  0  0  0
  -19.5753  -26.6382   21.5212 C   0  0  0  0  0  0
  -18.1933  -26.7931   22.1619 C   0  0  0  0  0  0
  -19.1543  -28.8853   23.2879 C   0  0  0  0  0  0
  -18.9465  -30.1451   23.8900 C   0  0  0  0  0  0
  -17.6467  -30.6587   24.0560 C   0  0  0  0  0  0
  -25.9053  -34.9446   23.5100 C   0  0  0  0  0  0
  -16.5358  -29.9085   23.6327 C   0  0  0  0  0  0
  -16.7278  -28.6501   23.0355 C   0  0  0  0  0  0
  -26.4494  -31.6591   25.0707 C   0  0  0  0  0  0
  -25.3729  -31.3751   26.1439 C   0  0  0  0  0  0
  -27.0346  -30.3015   24.6180 C   0  0  0  0  0  0
  -27.6041  -32.4349   25.7481 C   0  0  0  0  0  0
  -27.5582  -37.1798   24.8468 C   0  0  0  0  0  0
  -21.4185  -29.3042   22.3670 N   0  0  0  0  0  0
  -26.4294  -37.3768   23.9408 N   0  0  0  0  0  0
  -24.6873  -31.0573   22.0935 N   0  0  0  0  0  0
  -23.4192  -28.8170   23.3016 O   0  0  0  0  0  0
  -28.3809  -26.5016   20.1915 O   0  0  0  0  0  0
  -26.5615  -34.8919   22.4665 O   0  0  0  0  0  0
  -23.5422  -32.1386   23.7309 O   0  0  0  0  0  0
  -30.1427  -18.1722   21.4867 C   0  0  0  0  0  0
  -29.0432  -17.5899   19.4493 C   0  0  0  0  0  0
  -29.1470  -20.0232   20.1031 C   0  0  0  0  0  0
  -29.8777  -19.5702   21.2561 C   0  0  0  0  0  0
  -29.7369  -17.1377   20.5970 C   0  0  0  0  0  0
  -28.7595  -18.9682   19.2095 C   0  0  0  0  0  0
  -28.7692  -21.4897   19.7783 C   0  0  0  0  0  0
  -30.3834  -20.5535   22.3037 C   0  0  0  0  0  0
  -27.9025  -23.8945   20.5959 C   0  0  0  0  0  0
  -28.4711  -25.0963   19.7148 C   0  0  0  0  0  0
  -28.5499  -21.8330   18.5115 N   0  0  0  0  0  0
  -29.7963  -15.7091   20.9440 N   0  0  0  0  0  0
  -28.6030  -22.5255   20.6675 N   0  3  0  0  0  0
  -28.0789  -19.2569   18.0716 F   0  0  0  0  0  0
  -31.4834  -12.5531   19.1589 H   0  0  0  0  0  0
  -30.3882  -11.4228   19.9046 H   0  0  0  0  0  0
  -29.7835  -11.7618   17.4896 H   0  0  0  0  0  0
  -29.6495  -13.4828   17.7428 H   0  0  0  0  0  0
  -27.8760  -11.2941   18.8719 H   0  0  0  0  0  0
  -27.3812  -12.5759   17.7972 H   0  0  0  0  0  0
  -27.6692  -14.2528   19.5239 H   0  0  0  0  0  0
  -28.7169  -12.0531   21.3711 H   0  0  0  0  0  0
  -28.4305  -13.6982   21.8540 H   0  0  0  0  0  0
  -25.2768   -9.5677   22.4756 H   0  0  0  0  0  0
  -24.0002   -7.4629   22.7468 H   0  0  0  0  0  0
  -21.0834   -8.8778   19.8958 H   0  0  0  0  0  0
  -22.3696  -10.9678   19.6166 H   0  0  0  0  0  0
  -21.2009   -7.6152   23.9727 H   0  0  0  0  0  0
  -21.1479   -6.0521   25.9082 H   0  0  0  0  0  0
  -22.0597   -2.7614   23.2835 H   0  0  0  0  0  0
  -22.4062  -11.9929   22.4837 H   0  0  0  0  0  0
  -21.1087  -13.1293   22.2587 H   0  0  0  0  0  0
  -24.6554  -15.8401   20.5198 H   0  0  0  0  0  0
  -26.2692  -15.6314   20.0697 H   0  0  0  0  0  0
  -26.7172  -32.5416   23.1065 H   0  0  0  0  0  0
  -25.0095  -33.9699   25.0422 H   0  0  0  0  0  0
  -22.7158  -31.2988   21.3922 H   0  0  0  0  0  0
  -23.3755  -35.9604   23.3308 H   0  0  0  0  0  0
  -24.3575  -36.8892   22.2055 H   0  0  0  0  0  0
  -23.7234  -37.6481   23.6660 H   0  0  0  0  0  0
  -26.0972  -31.5462   20.6053 H   0  0  0  0  0  0
  -26.8379  -30.8280   22.0055 H   0  0  0  0  0  0
  -28.1076  -28.9735   21.1953 H   0  0  0  0  0  0
  -25.9915  -25.8945   19.0287 H   0  0  0  0  0  0
  -23.9799  -27.2805   19.0208 H   0  0  0  0  0  0
  -23.7556  -30.5769   19.3957 H   0  0  0  0  0  0
  -22.7553  -29.2338   19.8558 H   0  0  0  0  0  0
  -25.1299  -36.1925   25.0825 H   0  0  0  0  0  0
  -20.9984  -28.3270   24.1400 H   0  0  0  0  0  0
  -20.5672  -26.2294   23.3617 H   0  0  0  0  0  0
  -21.6644  -26.7431   22.1211 H   0  0  0  0  0  0
  -19.6909  -25.6292   21.1243 H   0  0  0  0  0  0
  -19.6697  -27.3186   20.6737 H   0  0  0  0  0  0
  -17.4204  -26.6682   21.4022 H   0  0  0  0  0  0
  -18.0325  -26.0078   22.9018 H   0  0  0  0  0  0
  -19.7946  -30.7263   24.2274 H   0  0  0  0  0  0
  -17.5027  -31.6271   24.5153 H   0  0  0  0  0  0
  -15.5358  -30.2987   23.7657 H   0  0  0  0  0  0
  -15.8677  -28.0816   22.7075 H   0  0  0  0  0  0
  -24.5881  -30.7121   25.7780 H   0  0  0  0  0  0
  -24.8948  -32.2929   26.4876 H   0  0  0  0  0  0
  -25.8053  -30.8924   27.0210 H   0  0  0  0  0  0
  -26.2925  -29.6763   24.1197 H   0  0  0  0  0  0
  -27.4036  -29.7281   25.4695 H   0  0  0  0  0  0
  -27.8798  -30.4308   23.9413 H   0  0  0  0  0  0
  -27.2627  -33.3644   26.2058 H   0  0  0  0  0  0
  -28.3845  -32.6932   25.0308 H   0  0  0  0  0  0
  -28.0717  -31.8485   26.5404 H   0  0  0  0  0  0
  -28.2605  -38.0090   24.7508 H   0  0  0  0  0  0
  -28.1073  -36.2621   24.6302 H   0  0  0  0  0  0
  -27.2299  -37.1456   25.8872 H   0  0  0  0  0  0
  -20.9363  -29.8754   21.6873 H   0  0  0  0  0  0
  -26.0177  -38.2848   24.1404 H   0  0  0  0  0  0
  -30.6477  -17.8802   22.3973 H   0  0  0  0  0  0
  -28.6738  -16.8665   18.7378 H   0  0  0  0  0  0
  -31.0530  -20.0682   23.0156 H   0  0  0  0  0  0
  -29.5524  -20.9699   22.8742 H   0  0  0  0  0  0
  -30.9435  -21.3686   21.8434 H   0  0  0  0  0  0
  -26.8557  -23.7347   20.3326 H   0  0  0  0  0  0
  -27.8755  -24.2547   21.6250 H   0  0  0  0  0  0
  -28.0397  -25.0387   18.7157 H   0  0  0  0  0  0
  -29.5341  -24.9070   19.5599 H   0  0  0  0  0  0
  -28.5402  -21.0899   17.8229 H   0  0  0  0  0  0
  -28.3312  -22.7674   18.2176 H   0  0  0  0  0  0
  -28.9423  -15.3618   21.3522 H   0  0  0  0  0  0
  -28.8564  -22.2748   21.6142 H   0  0  0  0  0  0
  1 25  1  0  0  0
  1 30  2  0  0  0
  1 82  1  0  0  0
  2  3  1  0  0  0
  2 25  1  0  0  0
  2 85  1  0  0  0
  2 86  1  0  0  0
  3  4  1  0  0  0
  3 87  1  0  0  0
  3 88  1  0  0  0
  4  5  1  0  0  0
  4 89  1  0  0  0
  4 90  1  0  0  0
  5  6  1  0  0  0
  5 26  1  0  0  0
  5 91  1  0  0  0
  6 25  1  0  0  0
  6 92  1  0  0  0
  6 93  1  0  0  0
  7  8  2  0  0  0
  7 26  1  0  0  0
  7 29  1  0  0  0
  8  9  1  0  0  0
  8 22  1  0  0  0
  9 10  1  0  0  0
  9 27  2  0  0  0
 10 11  2  0  0  0
 10 15  1  0  0  0
 11 12  1  0  0  0
 11 94  1  0  0  0
 12 13  2  0  0  0
 12 95  1  0  0  0
 13 14  1  0  0  0
 13 31  1  0  0  0
 14 15  2  0  0  0
 14 96  1  0  0  0
 15 97  1  0  0  0
 16 17  2  0  0  0
 16 21  1  0  0  0
 16 31  1  0  0  0
 17 18  1  0  0  0
 17 98  1  0  0  0
 18 19  2  0  0  0
 18 99  1  0  0  0
 19 20  1  0  0  0
 19 24  1  0  0  0
 20 21  2  0  0  0
 20100  1  0  0  0
 21 23  1  0  0  0
 22 28  1  0  0  0
 22 32  2  0  0  0
 26 27  1  0  0  0
 28101  1  0  0  0
 28102  1  0  0  0
 29103  1  0  0  0
 29104  1  0  0  0
 33 34  1  0  0  0
 33 66  1  0  0  0
 33 70  2  0  0  0
 34 36  1  0  0  0
 34 59  1  0  0  0
 34105  1  0  0  0
 35 44  2  0  0  0
 35 45  1  0  0  0
 35 68  1  0  0  0
 36 56  1  0  0  0
 36106  1  0  0  0
 37 39  1  0  0  0
 37 47  1  0  0  0
 37 66  1  0  0  0
 37107  1  0  0  0
 38 43  2  0  0  0
 38 46  1  0  0  0
 38 47  1  0  0  0
 39 64  1  0  0  0
 39 67  2  0  0  0
 40 52  1  0  0  0
 40 53  2  0  0  0
 40 58  1  0  0  0
 41108  1  0  0  0
 41109  1  0  0  0
 41110  1  0  0  0
 41 48  1  0  0  0
 42 43  1  0  0  0
 42 66  1  0  0  0
 42111  1  0  0  0
 42112  1  0  0  0
 43 44  1  0  0  0
 44113  1  0  0  0
 45 46  2  0  0  0
 45114  1  0  0  0
 46115  1  0  0  0
 47116  1  0  0  0
 47117  1  0  0  0
 48 56  1  0  0  0
 48 65  1  0  0  0
 48118  1  0  0  0
 49 50  1  0  0  0
 49 53  1  0  0  0
 49 64  1  0  0  0
 49119  1  0  0  0
 50 51  1  0  0  0
 50120  1  0  0  0
 50121  1  0  0  0
 51 52  1  0  0  0
 51122  1  0  0  0
 51123  1  0  0  0
 52124  1  0  0  0
 52125  1  0  0  0
 53 54  1  0  0  0
 54 55  2  0  0  0
 54126  1  0  0  0
 55 57  1  0  0  0
 55127  1  0  0  0
 56 69  2  0  0  0
 57 58  2  0  0  0
 57128  1  0  0  0
 58129  1  0  0  0
 59 60  1  0  0  0
 59 61  1  0  0  0
 59 62  1  0  0  0
 60130  1  0  0  0
 60131  1  0  0  0
 60132  1  0  0  0
 61133  1  0  0  0
 61134  1  0  0  0
 61135  1  0  0  0
 62136  1  0  0  0
 62137  1  0  0  0
 62138  1  0  0  0
 63 65  1  0  0  0
 63139  1  0  0  0
 63140  1  0  0  0
 63141  1  0  0  0
 64142  1  0  0  0
 65143  1  0  0  0
 68 80  1  0  0  0
 71 74  2  0  0  0
 71 75  1  0  0  0
 71144  1  0  0  0
 72 75  2  0  0  0
 72 76  1  0  0  0
 72145  1  0  0  0
 73 74  1  0  0  0
 73 76  2  0  0  0
 73 77  1  0  0  0
 74 78  1  0  0  0
 75 82  1  0  0  0
 76 84  1  0  0  0
 77 81  1  0  0  0
 77 83  2  0  0  0
 78146  1  0  0  0
 78147  1  0  0  0
 78148  1  0  0  0
 79 80  1  0  0  0
 79 83  1  0  0  0
 79149  1  0  0  0
 79150  1  0  0  0
 80151  1  0  0  0
 80152  1  0  0  0
 81153  1  0  0  0
 81154  1  0  0  0
 82155  1  0  0  0
 83156  1  0  0  0
M  CHG  1  83   1
M  ISO  4   1 100  68 101  80 101  82 100
M  END
> <chiral flag>
0

> <version>
0

> <s_m_source_file>
/data/baiqing/PycharmProjects/Reinvent-master-3.2/result/LINK_invent/BTK/process_docking_weight1_custom_product_contain_oxygen_bond_distance_aromatic_linkinvent_7_9_3/rearranged_h_0034.sdf

> <i_m_source_file_index>
16

> <r_mmod_Potential_Energy-OPLS-2005>
-3.66916728019714

> <r_mmod_Stretch_Energy-OPLS-2005>
97.53955078125

> <r_mmod_Bend_Energy-OPLS-2005>
174.409606933594

> <r_mmod_Torsional_Energy-OPLS-2005>
241.199798583984

> <r_mmod_Improper_Torsional_Energy-OPLS-2005>
5.7155933380127

> <r_mmod_Van_der_Waal_Energy-OPLS-2005>
142.298187255859

> <r_mmod_Electrostatic_Energy-OPLS-2005>
-304.804901123047

> <r_mmod_Solvation_Energy-OPLS-2005>
-416.923034667969

> <b_mmod_Minimization_Converged-OPLS-2005>
0

> <r_mmod_RMS_Derivative-OPLS-2005>
1.32364678382874

$$$$
16
                    3D
 Structure written by MMmdl.
151159  0  0  1  0            999 V2000
  -30.3039  -15.6140   20.3207 C   0  0  0  0  0  0
  -30.4264  -13.0467   19.5712 C   0  0  0  0  0  0
  -29.5579  -12.6594   18.3387 C   0  0  0  0  0  0
  -28.1251  -12.3090   18.7654 C   0  0  0  0  0  0
  -27.5984  -13.3126   19.8158 C   0  0  2  0  0  0
  -28.6063  -13.6321   20.9448 C   0  0  0  0  0  0
  -25.2330  -13.8304   20.5788 C   0  0  0  0  0  0
  -24.1716  -13.0445   20.9265 C   0  0  0  0  0  0
  -24.6420  -11.6956   20.8742 C   0  0  0  0  0  0
  -23.9124  -10.4300   21.0386 C   0  0  0  0  0  0
  -24.3658   -9.4214   21.9172 C   0  0  0  0  0  0
  -23.6318   -8.2255   22.0751 C   0  0  0  0  0  0
  -22.4297   -8.0292   21.3544 C   0  0  0  0  0  0
  -21.9943   -9.0266   20.4643 C   0  0  0  0  0  0
  -22.7287  -10.2138   20.3044 C   0  0  0  0  0  0
  -21.6862   -6.0744   22.5279 C   0  0  0  0  0  0
  -21.4021   -6.5644   23.8213 C   0  0  0  0  0  0
  -21.3661   -5.6795   24.9174 C   0  0  0  0  0  0
  -21.6044   -4.3058   24.7223 C   0  0  0  0  0  0
  -21.8818   -3.8151   23.4343 C   0  0  0  0  0  0
  -21.9195   -4.6970   22.3401 C   0  0  0  0  0  0
  -22.7728  -13.5169   21.1914 C   0  0  0  0  0  0
  -22.1662   -4.2155   21.0978 F   0  0  0  0  0  0
  -21.5627   -3.4540   25.7735 F   0  0  0  0  0  0
  -29.8078  -14.2344   20.3234 N   0  0  0  0  0  0
  -26.2777  -12.9643   20.3213 N   0  0  0  0  0  0
  -25.9368  -11.6708   20.5676 N   0  0  0  0  0  0
  -22.0401  -12.8140   22.0469 N   0  0  0  0  0  0
  -25.3946  -15.2049   20.4283 N   0  0  0  0  0  0
  -31.5208  -15.5329   20.0625 O   0  0  0  0  0  0
  -21.6653   -6.8892   21.4243 O   0  0  0  0  0  0
  -22.3395  -14.5467   20.6757 O   0  0  0  0  0  0
  -24.6831  -31.7991   23.1511 C   0  0  0  0  0  0
  -25.9413  -32.4461   23.8057 C   0  0  1  0  0  0
  -27.2273  -26.7038   20.2118 C   0  0  0  0  0  0
  -25.5993  -33.8288   24.1943 N   0  0  0  0  0  0
  -23.5095  -30.4002   21.5041 C   0  0  2  0  0  0
  -24.9683  -28.7421   20.1124 C   0  0  0  0  0  0
  -22.7764  -29.4307   22.4703 C   0  0  0  0  0  0
  -18.0338  -28.1421   22.8455 C   0  0  0  0  0  0
  -24.1495  -36.7151   23.2652 C   0  0  0  0  0  0
  -26.0890  -30.5311   21.4168 C   0  0  0  0  0  0
  -26.1540  -29.0967   20.7656 C   0  0  0  0  0  0
  -27.2651  -28.1029   20.7875 C   0  0  0  0  0  0
  -26.0141  -26.5611   19.4912 C   0  0  0  0  0  0
  -24.9375  -27.5006   19.4519 C   0  0  0  0  0  0
  -23.7633  -29.6964   20.1386 C   0  0  0  0  0  0
  -25.4145  -36.2892   24.0281 C   0  0  1  0  0  0
  -20.5973  -28.3779   23.1142 C   0  0  2  0  0  0
  -20.6802  -26.9438   22.5406 C   0  0  0  0  0  0
  -19.5780  -26.6369   21.5217 C   0  0  0  0  0  0
  -18.1962  -26.7949   22.1619 C   0  0  0  0  0  0
  -19.1605  -28.8925   23.2779 C   0  0  0  0  0  0
  -18.9510  -30.1509   23.8825 C   0  0  0  0  0  0
  -17.6500  -30.6604   24.0550 C   0  0  0  0  0  0
  -25.9126  -34.9282   23.4951 C   0  0  0  0  0  0
  -16.5390  -29.9086   23.6350 C   0  0  0  0  0  0
  -16.7318  -28.6508   23.0367 C   0  0  0  0  0  0
  -26.4594  -31.6501   25.0683 C   0  0  0  0  0  0
  -25.3660  -31.3820   26.1298 C   0  0  0  0  0  0
  -27.0529  -30.2839   24.6589 C   0  0  0  0  0  0
  -27.6040  -32.4366   25.7500 C   0  0  0  0  0  0
  -27.5565  -37.1729   24.8464 C   0  0  0  0  0  0
  -21.4411  -29.3023   22.3458 N   0  0  0  0  0  0
  -26.4269  -37.3655   23.9411 N   0  0  0  0  0  0
  -24.7838  -30.9435   22.0764 N   0  0  0  0  0  0
  -23.4208  -28.7912   23.3051 O   0  0  0  0  0  0
  -28.1849  -25.4867   20.3421 O   0  0  0  0  0  0
  -26.5769  -34.8862   22.4570 O   0  0  0  0  0  0
  -23.5851  -32.1067   23.6465 O   0  0  0  0  0  0
  -30.0796  -19.9374   21.7926 C   0  0  0  0  0  0
  -30.5771  -18.4276   21.3140 C   0  0  0  0  0  0
  -29.0162  -18.6875   19.5830 C   0  0  0  0  0  0
  -30.0533  -21.3694   20.9491 C   0  0  0  0  0  0
  -28.2259  -20.3301   19.8084 C   0  0  0  0  0  0
  -29.6022  -17.3411   20.6044 C   0  0  1  0  0  0
  -28.6284  -21.9499   20.4683 C   0  0  2  0  0  0
  -28.1344  -23.7705   19.9466 C   0  0  0  0  0  0
  -31.4333  -13.2773   19.2228 H   0  0  0  0  0  0
  -30.5529  -12.1894   20.2346 H   0  0  0  0  0  0
  -30.0068  -11.8232   17.8012 H   0  0  0  0  0  0
  -29.5348  -13.4977   17.6410 H   0  0  0  0  0  0
  -28.1402  -11.3062   19.1942 H   0  0  0  0  0  0
  -27.4625  -12.2660   17.9000 H   0  0  0  0  0  0
  -27.4688  -14.2401   19.2563 H   0  0  0  0  0  0
  -28.8409  -12.7472   21.5382 H   0  0  0  0  0  0
  -28.1734  -14.3568   21.6358 H   0  0  0  0  0  0
  -25.2798   -9.5689   22.4755 H   0  0  0  0  0  0
  -24.0019   -7.4650   22.7478 H   0  0  0  0  0  0
  -21.0872   -8.8793   19.8951 H   0  0  0  0  0  0
  -22.3743  -10.9677   19.6154 H   0  0  0  0  0  0
  -21.2017   -7.6153   23.9718 H   0  0  0  0  0  0
  -21.1483   -6.0525   25.9077 H   0  0  0  0  0  0
  -22.0594   -2.7613   23.2842 H   0  0  0  0  0  0
  -22.4050  -11.9815   22.4858 H   0  0  0  0  0  0
  -21.1008  -13.1130   22.2675 H   0  0  0  0  0  0
  -24.6280  -15.8567   20.5553 H   0  0  0  0  0  0
  -26.2490  -15.6533   20.1228 H   0  0  0  0  0  0
  -26.7494  -32.4932   23.0768 H   0  0  0  0  0  0
  -25.0049  -33.9326   25.0035 H   0  0  0  0  0  0
  -22.8348  -31.2375   21.3141 H   0  0  0  0  0  0
  -23.3779  -35.9456   23.3254 H   0  0  0  0  0  0
  -24.3565  -36.8875   22.2079 H   0  0  0  0  0  0
  -23.7230  -37.6303   23.6770 H   0  0  0  0  0  0
  -26.2938  -31.2566   20.6284 H   0  0  0  0  0  0
  -26.9394  -30.5974   22.0831 H   0  0  0  0  0  0
  -28.1517  -28.3752   21.3425 H   0  0  0  0  0  0
  -25.8503  -25.6202   18.9856 H   0  0  0  0  0  0
  -24.0429  -27.2217   18.9121 H   0  0  0  0  0  0
  -23.9362  -30.4566   19.3761 H   0  0  0  0  0  0
  -22.8685  -29.1615   19.8158 H   0  0  0  0  0  0
  -25.1354  -36.1652   25.0771 H   0  0  0  0  0  0
  -21.0057  -28.3408   24.1268 H   0  0  0  0  0  0
  -20.5663  -26.2404   23.3669 H   0  0  0  0  0  0
  -21.6664  -26.7377   22.1226 H   0  0  0  0  0  0
  -19.6935  -25.6261   21.1294 H   0  0  0  0  0  0
  -19.6725  -27.3139   20.6716 H   0  0  0  0  0  0
  -17.4232  -26.6693   21.4021 H   0  0  0  0  0  0
  -18.0349  -26.0109   22.9031 H   0  0  0  0  0  0
  -19.7986  -30.7343   24.2162 H   0  0  0  0  0  0
  -17.5051  -31.6276   24.5166 H   0  0  0  0  0  0
  -15.5387  -30.2965   23.7716 H   0  0  0  0  0  0
  -15.8719  -28.0802   22.7124 H   0  0  0  0  0  0
  -24.5871  -30.7142   25.7599 H   0  0  0  0  0  0
  -24.8820  -32.3042   26.4522 H   0  0  0  0  0  0
  -25.7836  -30.9117   27.0209 H   0  0  0  0  0  0
  -26.3247  -29.6447   24.1586 H   0  0  0  0  0  0
  -27.3957  -29.7292   25.5334 H   0  0  0  0  0  0
  -27.9227  -30.3962   24.0115 H   0  0  0  0  0  0
  -27.2579  -33.3739   26.1868 H   0  0  0  0  0  0
  -28.3957  -32.6813   25.0405 H   0  0  0  0  0  0
  -28.0593  -31.8638   26.5589 H   0  0  0  0  0  0
  -28.2541  -38.0063   24.7525 H   0  0  0  0  0  0
  -28.1101  -36.2586   24.6274 H   0  0  0  0  0  0
  -27.2282  -37.1343   25.8866 H   0  0  0  0  0  0
  -20.9716  -29.8676   21.6521 H   0  0  0  0  0  0
  -26.0094  -38.2700   24.1433 H   0  0  0  0  0  0
  -30.7638  -20.1608   22.6124 H   0  0  0  0  0  0
  -29.1268  -19.8256   22.3121 H   0  0  0  0  0  0
  -30.9602  -17.9297   22.2058 H   0  0  0  0  0  0
  -31.4612  -18.5529   20.6873 H   0  0  0  0  0  0
  -29.8435  -18.8896   18.9007 H   0  0  0  0  0  0
  -28.3028  -18.1763   18.9360 H   0  0  0  0  0  0
  -30.7263  -21.2936   20.0941 H   0  0  0  0  0  0
  -30.5002  -22.1341   21.5861 H   0  0  0  0  0  0
  -27.2711  -20.0922   20.2785 H   0  0  0  0  0  0
  -27.9314  -20.5786   18.7883 H   0  0  0  0  0  0
  -28.7840  -17.1355   21.2949 H   0  0  0  0  0  0
  -28.0774  -21.9390   21.4095 H   0  0  0  0  0  0
  -27.0609  -23.6537   19.7991 H   0  0  0  0  0  0
  -28.5218  -23.8115   18.9287 H   0  0  0  0  0  0
  1 25  1  0  0  0
  1 30  2  0  0  0
  1 76  1  0  0  0
  2  3  1  0  0  0
  2 25  1  0  0  0
  2 79  1  0  0  0
  2 80  1  0  0  0
  3  4  1  0  0  0
  3 81  1  0  0  0
  3 82  1  0  0  0
  4  5  1  0  0  0
  4 83  1  0  0  0
  4 84  1  0  0  0
  5  6  1  0  0  0
  5 26  1  0  0  0
  5 85  1  0  0  0
  6 25  1  0  0  0
  6 86  1  0  0  0
  6 87  1  0  0  0
  7  8  2  0  0  0
  7 26  1  0  0  0
  7 29  1  0  0  0
  8  9  1  0  0  0
  8 22  1  0  0  0
  9 10  1  0  0  0
  9 27  2  0  0  0
 10 11  2  0  0  0
 10 15  1  0  0  0
 11 12  1  0  0  0
 11 88  1  0  0  0
 12 13  2  0  0  0
 12 89  1  0  0  0
 13 14  1  0  0  0
 13 31  1  0  0  0
 14 15  2  0  0  0
 14 90  1  0  0  0
 15 91  1  0  0  0
 16 17  2  0  0  0
 16 21  1  0  0  0
 16 31  1  0  0  0
 17 18  1  0  0  0
 17 92  1  0  0  0
 18 19  2  0  0  0
 18 93  1  0  0  0
 19 20  1  0  0  0
 19 24  1  0  0  0
 20 21  2  0  0  0
 20 94  1  0  0  0
 21 23  1  0  0  0
 22 28  1  0  0  0
 22 32  2  0  0  0
 26 27  1  0  0  0
 28 95  1  0  0  0
 28 96  1  0  0  0
 29 97  1  0  0  0
 29 98  1  0  0  0
 33 34  1  0  0  0
 33 66  1  0  0  0
 33 70  2  0  0  0
 34 36  1  0  0  0
 34 59  1  0  0  0
 34 99  1  0  0  0
 35 44  2  0  0  0
 35 45  1  0  0  0
 35 68  1  0  0  0
 36 56  1  0  0  0
 36100  1  0  0  0
 37 39  1  0  0  0
 37 47  1  0  0  0
 37 66  1  0  0  0
 37101  1  0  0  0
 38 43  2  0  0  0
 38 46  1  0  0  0
 38 47  1  0  0  0
 39 64  1  0  0  0
 39 67  2  0  0  0
 40 52  1  0  0  0
 40 53  2  0  0  0
 40 58  1  0  0  0
 41102  1  0  0  0
 41103  1  0  0  0
 41104  1  0  0  0
 41 48  1  0  0  0
 42 43  1  0  0  0
 42 66  1  0  0  0
 42105  1  0  0  0
 42106  1  0  0  0
 43 44  1  0  0  0
 44107  1  0  0  0
 45 46  2  0  0  0
 45108  1  0  0  0
 46109  1  0  0  0
 47110  1  0  0  0
 47111  1  0  0  0
 48 56  1  0  0  0
 48 65  1  0  0  0
 48112  1  0  0  0
 49 50  1  0  0  0
 49 53  1  0  0  0
 49 64  1  0  0  0
 49113  1  0  0  0
 50 51  1  0  0  0
 50114  1  0  0  0
 50115  1  0  0  0
 51 52  1  0  0  0
 51116  1  0  0  0
 51117  1  0  0  0
 52118  1  0  0  0
 52119  1  0  0  0
 53 54  1  0  0  0
 54 55  2  0  0  0
 54120  1  0  0  0
 55 57  1  0  0  0
 55121  1  0  0  0
 56 69  2  0  0  0
 57 58  2  0  0  0
 57122  1  0  0  0
 58123  1  0  0  0
 59 60  1  0  0  0
 59 61  1  0  0  0
 59 62  1  0  0  0
 60124  1  0  0  0
 60125  1  0  0  0
 60126  1  0  0  0
 61127  1  0  0  0
 61128  1  0  0  0
 61129  1  0  0  0
 62130  1  0  0  0
 62131  1  0  0  0
 62132  1  0  0  0
 63 65  1  0  0  0
 63133  1  0  0  0
 63134  1  0  0  0
 63135  1  0  0  0
 64136  1  0  0  0
 65137  1  0  0  0
 68 78  1  0  0  0
 71 72  1  0  0  0
 71 74  1  0  0  0
 71138  1  0  0  0
 71139  1  0  0  0
 72 76  1  0  0  0
 72140  1  0  0  0
 72141  1  0  0  0
 73 75  1  0  0  0
 73 76  1  0  0  0
 73142  1  0  0  0
 73143  1  0  0  0
 74 77  1  0  0  0
 74144  1  0  0  0
 74145  1  0  0  0
 75 77  1  0  0  0
 75146  1  0  0  0
 75147  1  0  0  0
 76148  1  0  0  0
 77 78  1  0  0  0
 77149  1  0  0  0
 78150  1  0  0  0
 78151  1  0  0  0
M  ISO  4   1 100  68 101  76 100  78 101
M  END
> <chiral flag>
0

> <version>
0

> <s_m_source_file>
/data/baiqing/PycharmProjects/Reinvent-master-3.2/result/LINK_invent/BTK/process_docking_weight1_custom_product_contain_oxygen_bond_distance_aromatic_linkinvent_7_9_3/rearranged_h_0034.sdf

> <i_m_source_file_index>
17

> <r_mmod_Potential_Energy-OPLS-2005>
2606.537109375

> <r_mmod_Stretch_Energy-OPLS-2005>
1066.66198730469

> <r_mmod_Bend_Energy-OPLS-2005>
782.686645507812

> <r_mmod_Torsional_Energy-OPLS-2005>
231.682861328125

> <r_mmod_Improper_Torsional_Energy-OPLS-2005>
1.51012778282166

> <r_mmod_Van_der_Waal_Energy-OPLS-2005>
123.388488769531

> <r_mmod_Electrostatic_Energy-OPLS-2005>
-286.956939697266

> <r_mmod_Solvation_Energy-OPLS-2005>
-189.516723632812

> <b_mmod_Minimization_Converged-OPLS-2005>
1

> <r_mmod_RMS_Derivative-OPLS-2005>
0.034098494797945

$$$$
17
                    3D
 Structure written by MMmdl.
160168  0  0  1  0            999 V2000
  -29.4799  -16.0004   20.3319 C   0  0  0  0  0  0
  -30.2539  -13.4360   19.5499 C   0  0  0  0  0  0
  -29.5007  -12.7417   18.3649 C   0  0  0  0  0  0
  -28.1125  -12.2489   18.7950 C   0  0  0  0  0  0
  -27.4935  -13.2609   19.7788 C   0  0  2  0  0  0
  -28.4009  -13.6496   20.9401 C   0  0  0  0  0  0
  -25.1942  -13.8069   20.5767 C   0  0  0  0  0  0
  -24.1387  -13.0275   20.9349 C   0  0  0  0  0  0
  -24.6055  -11.6771   20.8775 C   0  0  0  0  0  0
  -23.8869  -10.4174   21.0471 C   0  0  0  0  0  0
  -24.3525   -9.4123   21.9216 C   0  0  0  0  0  0
  -23.6240   -8.2142   22.0761 C   0  0  0  0  0  0
  -22.4223   -8.0192   21.3546 C   0  0  0  0  0  0
  -21.9821   -9.0136   20.4649 C   0  0  0  0  0  0
  -22.7101  -10.2020   20.3071 C   0  0  0  0  0  0
  -21.6826   -6.0709   22.5288 C   0  0  0  0  0  0
  -21.3997   -6.5628   23.8217 C   0  0  0  0  0  0
  -21.3641   -5.6787   24.9182 C   0  0  0  0  0  0
  -21.6040   -4.3049   24.7235 C   0  0  0  0  0  0
  -21.8820   -3.8134   23.4358 C   0  0  0  0  0  0
  -21.9184   -4.6946   22.3414 C   0  0  0  0  0  0
  -22.7467  -13.5087   21.2018 C   0  0  0  0  0  0
  -22.1659   -4.2144   21.0990 F   0  0  0  0  0  0
  -21.5624   -3.4530   25.7747 F   0  0  0  0  0  0
  -29.3799  -14.5067   20.2882 N   0  0  0  0  0  0
  -26.2051  -12.9204   20.2822 N   0  0  0  0  0  0
  -25.8874  -11.6354   20.5447 N   0  0  0  0  0  0
  -22.0153  -12.8096   22.0601 N   0  0  0  0  0  0
  -25.3782  -15.1826   20.4417 N   0  0  0  0  0  0
  -30.7338  -16.1198   20.1561 O   0  0  0  0  0  0
  -21.6581   -6.8824   21.4244 O   0  0  0  0  0  0
  -22.3192  -14.5387   20.6829 O   0  0  0  0  0  0
  -24.7345  -31.8693   22.6860 C   0  0  0  0  0  0
  -25.9394  -32.4543   23.6033 C   0  0  1  0  0  0
  -26.5504  -28.0251   21.5038 C   0  0  0  0  0  0
  -25.5495  -33.8118   24.0454 N   0  0  0  0  0  0
  -24.1523  -29.4100   21.0790 C   0  0  2  0  0  0
  -25.4447  -28.9987   19.4370 C   0  0  0  0  0  0
  -23.6523  -27.6183   22.1668 C   0  0  0  0  0  0
  -18.1398  -28.0472   22.8380 C   0  0  0  0  0  0
  -24.1403  -36.7207   23.2737 C   0  0  0  0  0  0
  -26.0954  -31.0457   20.8316 C   0  0  0  0  0  0
  -26.4443  -29.7229   20.1671 C   0  0  0  0  0  0
  -27.3583  -28.9459   20.8674 C   0  0  0  0  0  0
  -26.0829  -27.0680   20.5109 C   0  0  0  0  0  0
  -25.4497  -27.6031   19.3874 C   0  0  0  0  0  0
  -24.1253  -29.5036   19.5518 C   0  0  0  0  0  0
  -25.4132  -36.2845   24.0182 C   0  0  1  0  0  0
  -20.7688  -27.5389   23.2733 C   0  0  2  0  0  0
  -20.3699  -26.2358   22.6408 C   0  0  0  0  0  0
  -19.3157  -26.3117   21.5518 C   0  0  0  0  0  0
  -18.0266  -26.6880   22.2028 C   0  0  0  0  0  0
  -19.4168  -28.5752   23.2780 C   0  0  0  0  0  0
  -19.2358  -29.8631   23.9148 C   0  0  0  0  0  0
  -17.9780  -30.5338   24.0491 C   0  0  0  0  0  0
  -25.9148  -34.9446   23.4378 C   0  0  0  0  0  0
  -16.7879  -29.9390   23.6089 C   0  0  0  0  0  0
  -16.8848  -28.6906   22.9964 C   0  0  0  0  0  0
  -26.4244  -31.7003   24.9626 C   0  0  0  0  0  0
  -25.3417  -31.5641   26.0749 C   0  0  0  0  0  0
  -27.0782  -30.3166   24.7540 C   0  0  0  0  0  0
  -27.5936  -32.5065   25.6042 C   0  0  0  0  0  0
  -27.5529  -37.1669   24.8471 C   0  0  0  0  0  0
  -22.3970  -27.4021   23.0236 N   0  0  0  0  0  0
  -26.4179  -37.3711   23.9501 N   0  0  0  0  0  0
  -24.8655  -30.8942   21.5955 N   0  0  0  0  0  0
  -24.3496  -26.9998   22.9087 O   0  0  0  0  0  0
  -25.8605  -28.7637   22.6789 O   0  0  0  0  0  0
  -26.6191  -34.9388   22.4266 O   0  0  0  0  0  0
  -23.6168  -32.1625   23.1694 O   0  0  0  0  0  0
  -23.7961  -22.3942   19.2471 C   0  0  0  0  0  0
  -24.1683  -21.0618   18.8189 C   0  0  0  0  0  0
  -25.6989  -22.0818   20.6351 C   0  0  0  0  0  0
  -24.4552  -23.1991   20.2194 C   0  0  0  0  0  0
  -26.2308  -20.4951   20.2271 C   0  0  0  0  0  0
  -25.2516  -20.1948   19.2354 C   0  0  0  0  0  0
  -21.7329  -28.1445   20.6190 C   0  0  0  0  0  0
  -21.6362  -26.0853   19.0153 C   0  0  0  0  0  0
  -23.6091  -25.0544   20.5463 C   0  0  0  0  0  0
  -27.6763  -19.0665   20.5502 C   0  0  0  0  0  0
  -22.1554  -29.5960   22.2405 C   0  0  0  0  0  0
  -24.1056  -29.4888   23.4890 C   0  0  0  0  0  0
  -28.3079  -17.2047   20.4346 N   0  0  0  0  0  0
  -22.3535  -26.5643   20.2106 N   0  0  0  0  0  0
  -20.9397  -28.6350   19.8131 O   0  0  0  0  0  0
  -25.3878  -18.6857   18.4049 Cl  0  0  0  0  0  0
  -31.1302  -13.9275   19.1228 H   0  0  0  0  0  0
  -30.6521  -12.6935   20.2429 H   0  0  0  0  0  0
  -30.0841  -11.9148   17.9591 H   0  0  0  0  0  0
  -29.3764  -13.4583   17.5516 H   0  0  0  0  0  0
  -28.2180  -11.2802   19.2814 H   0  0  0  0  0  0
  -27.4713  -12.0826   17.9271 H   0  0  0  0  0  0
  -27.3248  -14.1422   19.1552 H   0  0  0  0  0  0
  -28.8091  -12.7893   21.4674 H   0  0  0  0  0  0
  -27.8551  -14.2335   21.6861 H   0  0  0  0  0  0
  -25.2685   -9.5615   22.4777 H   0  0  0  0  0  0
  -23.9964   -7.4526   22.7467 H   0  0  0  0  0  0
  -21.0757   -8.8650   19.8954 H   0  0  0  0  0  0
  -22.3586  -10.9573   19.6178 H   0  0  0  0  0  0
  -21.1993   -7.6138   23.9724 H   0  0  0  0  0  0
  -21.1457   -6.0516   25.9087 H   0  0  0  0  0  0
  -22.0621   -2.7602   23.2849 H   0  0  0  0  0  0
  -22.3795  -11.9764   22.4978 H   0  0  0  0  0  0
  -21.0778  -13.1114   22.2856 H   0  0  0  0  0  0
  -24.5999  -15.8231   20.5518 H   0  0  0  0  0  0
  -26.1749  -15.6012   19.9847 H   0  0  0  0  0  0
  -26.8345  -32.5556   22.9986 H   0  0  0  0  0  0
  -24.9053  -33.8643   24.8211 H   0  0  0  0  0  0
  -23.4090  -30.0655   20.6590 H   0  0  0  0  0  0
  -23.3740  -35.9448   23.3231 H   0  0  0  0  0  0
  -24.3404  -36.9164   22.2188 H   0  0  0  0  0  0
  -23.7099  -37.6245   23.7080 H   0  0  0  0  0  0
  -25.9372  -31.7902   20.0469 H   0  0  0  0  0  0
  -26.9606  -31.3854   21.3845 H   0  0  0  0  0  0
  -27.9871  -29.5184   21.5349 H   0  0  0  0  0  0
  -25.8951  -26.0440   20.7930 H   0  0  0  0  0  0
  -24.7638  -27.0118   18.7973 H   0  0  0  0  0  0
  -24.1381  -30.4913   19.0535 H   0  0  0  0  0  0
  -23.4491  -28.8773   18.9713 H   0  0  0  0  0  0
  -25.1442  -36.1272   25.0661 H   0  0  0  0  0  0
  -20.7955  -27.3421   24.3464 H   0  0  0  0  0  0
  -19.9524  -25.6132   23.4349 H   0  0  0  0  0  0
  -21.1919  -25.6072   22.2952 H   0  0  0  0  0  0
  -19.2025  -25.3352   21.0832 H   0  0  0  0  0  0
  -19.4757  -27.0167   20.7586 H   0  0  0  0  0  0
  -17.2231  -26.6656   21.4652 H   0  0  0  0  0  0
  -17.7416  -25.9568   22.9600 H   0  0  0  0  0  0
  -20.0746  -30.3497   24.3875 H   0  0  0  0  0  0
  -17.9403  -31.4923   24.5488 H   0  0  0  0  0  0
  -15.8300  -30.4209   23.7453 H   0  0  0  0  0  0
  -15.9766  -28.2193   22.6423 H   0  0  0  0  0  0
  -24.3300  -31.7338   25.7067 H   0  0  0  0  0  0
  -25.4797  -32.3206   26.8496 H   0  0  0  0  0  0
  -25.3540  -30.5981   26.5809 H   0  0  0  0  0  0
  -26.3710  -29.4993   24.7469 H   0  0  0  0  0  0
  -27.6895  -30.0423   25.6174 H   0  0  0  0  0  0
  -27.7348  -30.2849   23.8848 H   0  0  0  0  0  0
  -27.3162  -33.5300   25.8528 H   0  0  0  0  0  0
  -28.4446  -32.5629   24.9248 H   0  0  0  0  0  0
  -27.9598  -32.0600   26.5294 H   0  0  0  0  0  0
  -28.2481  -38.0030   24.7620 H   0  0  0  0  0  0
  -28.1052  -36.2566   24.6105 H   0  0  0  0  0  0
  -27.2303  -37.1120   25.8884 H   0  0  0  0  0  0
  -22.7318  -26.7855   23.7494 H   0  0  0  0  0  0
  -25.9946  -38.2669   24.1772 H   0  0  0  0  0  0
  -22.9294  -22.8216   18.7608 H   0  0  0  0  0  0
  -23.5453  -20.6554   18.0356 H   0  0  0  0  0  0
  -26.3651  -22.5038   21.3741 H   0  0  0  0  0  0
  -22.0011  -26.5869   18.1195 H   0  0  0  0  0  0
  -20.5622  -26.2413   19.0744 H   0  0  0  0  0  0
  -21.7604  -25.0155   18.8491 H   0  0  0  0  0  0
  -22.7348  -24.5027   20.8888 H   0  0  0  0  0  0
  -23.8244  -25.1192   19.4790 H   0  0  0  0  0  0
  -27.7790  -19.2252   21.6253 H   0  0  0  0  0  0
  -28.5528  -19.5819   20.1656 H   0  0  0  0  0  0
  -21.4384  -29.7626   22.9967 H   0  0  0  0  0  0
  -21.9714  -30.5955   21.8327 H   0  0  0  0  0  0
  -23.9243  -28.8230   24.3397 H   0  0  0  0  0  0
  -24.1944  -30.2066   24.2778 H   0  0  0  0  0  0
  -27.5066  -16.6576   20.7049 H   0  0  0  0  0  0
  1 25  1  0  0  0
  1 30  2  0  0  0
  1 83  1  0  0  0
  2  3  1  0  0  0
  2 25  1  0  0  0
  2 87  1  0  0  0
  2 88  1  0  0  0
  3  4  1  0  0  0
  3 89  1  0  0  0
  3 90  1  0  0  0
  4  5  1  0  0  0
  4 91  1  0  0  0
  4 92  1  0  0  0
  5  6  1  0  0  0
  5 26  1  0  0  0
  5 93  1  0  0  0
  6 25  1  0  0  0
  6 94  1  0  0  0
  6 95  1  0  0  0
  7  8  2  0  0  0
  7 26  1  0  0  0
  7 29  1  0  0  0
  8  9  1  0  0  0
  8 22  1  0  0  0
  9 10  1  0  0  0
  9 27  2  0  0  0
 10 11  2  0  0  0
 10 15  1  0  0  0
 11 12  1  0  0  0
 11 96  1  0  0  0
 12 13  2  0  0  0
 12 97  1  0  0  0
 13 14  1  0  0  0
 13 31  1  0  0  0
 14 15  2  0  0  0
 14 98  1  0  0  0
 15 99  1  0  0  0
 16 17  2  0  0  0
 16 21  1  0  0  0
 16 31  1  0  0  0
 17 18  1  0  0  0
 17100  1  0  0  0
 18 19  2  0  0  0
 18101  1  0  0  0
 19 20  1  0  0  0
 19 24  1  0  0  0
 20 21  2  0  0  0
 20102  1  0  0  0
 21 23  1  0  0  0
 22 28  1  0  0  0
 22 32  2  0  0  0
 26 27  1  0  0  0
 28103  1  0  0  0
 28104  1  0  0  0
 29105  1  0  0  0
 29106  1  0  0  0
 33 34  1  0  0  0
 33 66  1  0  0  0
 33 70  2  0  0  0
 34 36  1  0  0  0
 34 59  1  0  0  0
 34107  1  0  0  0
 35 44  2  0  0  0
 35 45  1  0  0  0
 35 68  1  0  0  0
 36 56  1  0  0  0
 36108  1  0  0  0
 37 39  1  0  0  0
 37 47  1  0  0  0
 37 66  1  0  0  0
 37109  1  0  0  0
 38 43  2  0  0  0
 38 46  1  0  0  0
 38 47  1  0  0  0
 39 64  1  0  0  0
 39 67  2  0  0  0
 40 52  1  0  0  0
 40 53  2  0  0  0
 40 58  1  0  0  0
 41110  1  0  0  0
 41111  1  0  0  0
 41112  1  0  0  0
 41 48  1  0  0  0
 42 43  1  0  0  0
 42 66  1  0  0  0
 42113  1  0  0  0
 42114  1  0  0  0
 43 44  1  0  0  0
 44115  1  0  0  0
 45 46  2  0  0  0
 45116  1  0  0  0
 46117  1  0  0  0
 47118  1  0  0  0
 47119  1  0  0  0
 48 56  1  0  0  0
 48 65  1  0  0  0
 48120  1  0  0  0
 49 50  1  0  0  0
 49 53  1  0  0  0
 49 64  1  0  0  0
 49121  1  0  0  0
 50 51  1  0  0  0
 50122  1  0  0  0
 50123  1  0  0  0
 51 52  1  0  0  0
 51124  1  0  0  0
 51125  1  0  0  0
 52126  1  0  0  0
 52127  1  0  0  0
 53 54  1  0  0  0
 54 55  2  0  0  0
 54128  1  0  0  0
 55 57  1  0  0  0
 55129  1  0  0  0
 56 69  2  0  0  0
 57 58  2  0  0  0
 57130  1  0  0  0
 58131  1  0  0  0
 59 60  1  0  0  0
 59 61  1  0  0  0
 59 62  1  0  0  0
 60132  1  0  0  0
 60133  1  0  0  0
 60134  1  0  0  0
 61135  1  0  0  0
 61136  1  0  0  0
 61137  1  0  0  0
 62138  1  0  0  0
 62139  1  0  0  0
 62140  1  0  0  0
 63 65  1  0  0  0
 63141  1  0  0  0
 63142  1  0  0  0
 63143  1  0  0  0
 64144  1  0  0  0
 65145  1  0  0  0
 68 82  1  0  0  0
 71 72  2  0  0  0
 71 74  1  0  0  0
 71146  1  0  0  0
 72 76  1  0  0  0
 72147  1  0  0  0
 73 74  2  0  0  0
 73 75  1  0  0  0
 73148  1  0  0  0
 74 79  1  0  0  0
 75 76  2  0  0  0
 75 80  1  0  0  0
 76 86  1  0  0  0
 77 81  1  0  0  0
 77 84  1  0  0  0
 77 85  2  0  0  0
 78 84  1  0  0  0
 78149  1  0  0  0
 78150  1  0  0  0
 78151  1  0  0  0
 79 84  1  0  0  0
 79152  1  0  0  0
 79153  1  0  0  0
 80 83  1  0  0  0
 80154  1  0  0  0
 80155  1  0  0  0
 81 82  1  0  0  0
 81156  1  0  0  0
 81157  1  0  0  0
 82158  1  0  0  0
 82159  1  0  0  0
 83160  1  0  0  0
M  ISO  4   1 100  68 101  82 101  83 100
M  END
> <chiral flag>
0

> <version>
0

> <s_m_source_file>
/data/baiqing/PycharmProjects/Reinvent-master-3.2/result/LINK_invent/BTK/process_docking_weight1_custom_product_contain_oxygen_bond_distance_aromatic_linkinvent_7_9_3/rearranged_h_0034.sdf

> <i_m_source_file_index>
18

> <r_mmod_Potential_Energy-OPLS-2005>
15297.7529296875

> <r_mmod_Stretch_Energy-OPLS-2005>
5622.787109375

> <r_mmod_Bend_Energy-OPLS-2005>
2141.32788085938

> <r_mmod_Torsional_Energy-OPLS-2005>
635.751037597656

> <r_mmod_Improper_Torsional_Energy-OPLS-2005>
91.6594696044922

> <r_mmod_Van_der_Waal_Energy-OPLS-2005>
1853.62841796875

> <r_mmod_Electrostatic_Energy-OPLS-2005>
-384.780242919922

> <r_mmod_Solvation_Energy-OPLS-2005>
-212.833358764648

> <b_mmod_Minimization_Converged-OPLS-2005>
0

> <r_mmod_RMS_Derivative-OPLS-2005>
9.10059547424316

$$$$
18
                    3D
 Structure written by MMmdl.
170179  0  0  1  0            999 V2000
  -29.6413  -15.5147   20.6863 C   0  0  0  0  0  0
  -30.3270  -13.0885   19.6907 C   0  0  0  0  0  0
  -29.5316  -12.7135   18.3978 C   0  0  0  0  0  0
  -28.0813  -12.3176   18.7282 C   0  0  0  0  0  0
  -27.5263  -13.2345   19.8409 C   0  0  2  0  0  0
  -28.4294  -13.3305   21.0638 C   0  0  0  0  0  0
  -25.1930  -13.8049   20.5601 C   0  0  0  0  0  0
  -24.1331  -13.0287   20.9178 C   0  0  0  0  0  0
  -24.5975  -11.6783   20.8676 C   0  0  0  0  0  0
  -23.8765  -10.4187   21.0403 C   0  0  0  0  0  0
  -24.3437   -9.4139   21.9151 C   0  0  0  0  0  0
  -23.6188   -8.2142   22.0715 C   0  0  0  0  0  0
  -22.4178   -8.0147   21.3515 C   0  0  0  0  0  0
  -21.9739   -9.0068   20.4615 C   0  0  0  0  0  0
  -22.6977  -10.1985   20.3021 C   0  0  0  0  0  0
  -21.6818   -6.0653   22.5277 C   0  0  0  0  0  0
  -21.4015   -6.5593   23.8200 C   0  0  0  0  0  0
  -21.3663   -5.6765   24.9172 C   0  0  0  0  0  0
  -21.6043   -4.3024   24.7242 C   0  0  0  0  0  0
  -21.8821   -3.8094   23.4371 C   0  0  0  0  0  0
  -21.9181   -4.6891   22.3413 C   0  0  0  0  0  0
  -22.7449  -13.5089   21.2006 C   0  0  0  0  0  0
  -22.1645   -4.2076   21.0988 F   0  0  0  0  0  0
  -21.5639   -3.4523   25.7767 F   0  0  0  0  0  0
  -29.5341  -14.0838   20.5567 N   0  0  0  0  0  0
  -26.2080  -12.9166   20.2836 N   0  0  0  0  0  0
  -25.8798  -11.6349   20.5452 N   0  0  0  0  0  0
  -22.0207  -12.8036   22.0608 N   0  0  0  0  0  0
  -25.3815  -15.1778   20.4331 N   0  0  0  0  0  0
  -30.8377  -15.7708   20.3692 O   0  0  0  0  0  0
  -21.6571   -6.8750   21.4224 O   0  0  0  0  0  0
  -22.3138  -14.5420   20.6919 O   0  0  0  0  0  0
  -24.6569  -31.9233   23.2341 C   0  0  0  0  0  0
  -25.9454  -32.5014   23.8638 C   0  0  1  0  0  0
  -26.6381  -27.2467   20.1745 C   0  0  0  0  0  0
  -25.6322  -33.8783   24.2570 N   0  0  0  0  0  0
  -23.4560  -30.5934   21.5887 C   0  0  2  0  0  0
  -24.8378  -29.2127   19.9187 C   0  0  0  0  0  0
  -23.0041  -29.4996   22.5813 C   0  0  0  0  0  0
  -18.4717  -27.6718   22.5794 C   0  0  0  0  0  0
  -24.1520  -36.7341   23.2608 C   0  0  0  0  0  0
  -25.9865  -30.8067   21.4422 C   0  0  0  0  0  0
  -25.9462  -29.4744   20.7240 C   0  0  0  0  0  0
  -26.9156  -28.4624   20.8596 C   0  0  0  0  0  0
  -25.9884  -27.2863   18.9750 C   0  0  0  0  0  0
  -24.9220  -28.1834   18.9536 C   0  0  0  0  0  0
  -23.6438  -30.1279   20.1147 C   0  0  0  0  0  0
  -25.4131  -36.3185   24.0346 C   0  0  1  0  0  0
  -21.2056  -28.1176   23.4168 C   0  0  2  0  0  0
  -22.1393  -26.5466   22.6621 C   0  0  0  0  0  0
  -20.5043  -25.3203   21.3093 C   0  0  0  0  0  0
  -18.7369  -26.2336   21.5829 C   0  0  0  0  0  0
  -19.5300  -28.4568   23.3117 C   0  0  0  0  0  0
  -19.1350  -29.7196   23.9122 C   0  0  0  0  0  0
  -17.8222  -30.2469   23.9383 C   0  0  0  0  0  0
  -25.9136  -34.9575   23.5174 C   0  0  0  0  0  0
  -16.8011  -29.4750   23.3758 C   0  0  0  0  0  0
  -17.1311  -28.2413   22.7250 C   0  0  0  0  0  0
  -26.4610  -31.6662   25.0974 C   0  0  0  0  0  0
  -25.3749  -31.3803   26.1611 C   0  0  0  0  0  0
  -27.0387  -30.3044   24.6484 C   0  0  0  0  0  0
  -27.6172  -32.4290   25.7804 C   0  0  0  0  0  0
  -27.5597  -37.1878   24.8464 C   0  0  0  0  0  0
  -21.7293  -29.3572   22.8302 N   0  0  0  0  0  0
  -26.4292  -37.3880   23.9437 N   0  0  0  0  0  0
  -24.7178  -31.1615   22.1132 N   0  0  0  0  0  0
  -23.8062  -28.8206   23.2141 O   0  0  0  0  0  0
  -25.8651  -26.2591   20.7628 O   0  0  0  0  0  0
  -26.5522  -34.8977   22.4630 O   0  0  0  0  0  0
  -23.5740  -32.1957   23.7758 O   0  0  0  0  0  0
  -26.3479  -20.5280   21.1162 C   0  0  0  0  0  0
  -27.3155  -19.3424   20.8129 C   0  0  0  0  0  0
  -25.3338  -19.2895   22.6019 C   0  0  0  0  0  0
  -25.1822  -20.6884   22.0634 C   0  0  0  0  0  0
  -26.2928  -18.1073   22.3238 C   0  0  0  0  0  0
  -27.4466  -17.9418   21.3726 C   0  0  0  0  0  0
  -21.5205  -24.2633   23.5586 C   0  0  0  0  0  0
  -21.3456  -23.6663   24.7580 C   0  0  0  0  0  0
  -20.2479  -25.8056   23.4486 C   0  0  0  0  0  0
  -20.8096  -27.4982   21.1594 C   0  0  0  0  0  0
  -22.5522  -27.0300   20.3134 C   0  0  0  0  0  0
  -24.0544  -24.5303   21.5783 C   0  0  0  0  0  0
  -24.1767  -26.1958   21.0169 C   0  0  1  0  0  0
  -26.0396  -16.8960   23.2084 C   0  0  0  0  0  0
  -22.0805  -22.5331   25.4369 C   0  0  0  0  0  0
  -23.9872  -22.0570   22.7105 C   0  0  0  0  0  0
  -28.4772  -16.5219   21.1150 N   0  0  0  0  0  0
  -23.0254  -23.5740   22.4408 N   0  3  1  0  0  0
  -31.2902  -13.5181   19.4146 H   0  0  0  0  0  0
  -30.5696  -12.1920   20.2644 H   0  0  0  0  0  0
  -30.0327  -11.9193   17.8430 H   0  0  0  0  0  0
  -29.5121  -13.5867   17.7437 H   0  0  0  0  0  0
  -28.0651  -11.2784   19.0578 H   0  0  0  0  0  0
  -27.4593  -12.3770   17.8338 H   0  0  0  0  0  0
  -27.4540  -14.2166   19.3692 H   0  0  0  0  0  0
  -28.7032  -12.3586   21.4797 H   0  0  0  0  0  0
  -27.9438  -13.8887   21.8666 H   0  0  0  0  0  0
  -25.2599   -9.5638   22.4694 H   0  0  0  0  0  0
  -23.9906   -7.4534   22.7434 H   0  0  0  0  0  0
  -21.0651   -8.8501   19.8964 H   0  0  0  0  0  0
  -22.3366  -10.9474   19.6108 H   0  0  0  0  0  0
  -21.2029   -7.6106   23.9677 H   0  0  0  0  0  0
  -21.1486   -6.0511   25.9066 H   0  0  0  0  0  0
  -22.0612   -2.7554   23.2883 H   0  0  0  0  0  0
  -22.3861  -11.9670   22.4944 H   0  0  0  0  0  0
  -21.0866  -13.1065   22.2957 H   0  0  0  0  0  0
  -24.6544  -15.8394   20.6817 H   0  0  0  0  0  0
  -26.2995  -15.6029   20.3864 H   0  0  0  0  0  0
  -26.7522  -32.5573   23.1357 H   0  0  0  0  0  0
  -25.0634  -33.9946   25.0826 H   0  0  0  0  0  0
  -22.6908  -31.3734   21.5731 H   0  0  0  0  0  0
  -23.3805  -35.9647   23.3248 H   0  0  0  0  0  0
  -24.3651  -36.8957   22.2029 H   0  0  0  0  0  0
  -23.7223  -37.6530   23.6607 H   0  0  0  0  0  0
  -26.2197  -31.5788   20.7087 H   0  0  0  0  0  0
  -26.8447  -30.7572   22.1016 H   0  0  0  0  0  0
  -27.6580  -28.5168   21.6449 H   0  0  0  0  0  0
  -25.9044  -26.4043   18.3518 H   0  0  0  0  0  0
  -24.1680  -28.0690   18.1871 H   0  0  0  0  0  0
  -23.8739  -31.0164   19.5257 H   0  0  0  0  0  0
  -22.6993  -29.8055   19.6844 H   0  0  0  0  0  0
  -25.1271  -36.2060   25.0829 H   0  0  0  0  0  0
  -21.4563  -28.1630   24.4798 H   0  0  0  0  0  0
  -22.1918  -25.7372   21.9802 H   0  0  0  0  0  0
  -22.8455  -26.1833   23.4135 H   0  0  0  0  0  0
  -20.3701  -24.2518   21.4869 H   0  0  0  0  0  0
  -20.7095  -25.2433   20.2411 H   0  0  0  0  0  0
  -18.3322  -26.4907   20.6013 H   0  0  0  0  0  0
  -18.0040  -25.4891   21.8970 H   0  0  0  0  0  0
  -19.8948  -30.3021   24.4178 H   0  0  0  0  0  0
  -17.6061  -31.1914   24.4189 H   0  0  0  0  0  0
  -15.7762  -29.8216   23.3981 H   0  0  0  0  0  0
  -16.3168  -27.7064   22.2561 H   0  0  0  0  0  0
  -24.5935  -30.7165   25.7887 H   0  0  0  0  0  0
  -24.8943  -32.2972   26.5038 H   0  0  0  0  0  0
  -25.8019  -30.8951   27.0402 H   0  0  0  0  0  0
  -26.3005  -29.6860   24.1379 H   0  0  0  0  0  0
  -27.3836  -29.7263   25.5065 H   0  0  0  0  0  0
  -27.9024  -30.4231   23.9938 H   0  0  0  0  0  0
  -27.2827  -33.3608   26.2375 H   0  0  0  0  0  0
  -28.4062  -32.6792   25.0696 H   0  0  0  0  0  0
  -28.0733  -31.8369   26.5745 H   0  0  0  0  0  0
  -28.2586  -38.0207   24.7564 H   0  0  0  0  0  0
  -28.1131  -36.2747   24.6218 H   0  0  0  0  0  0
  -27.2342  -37.1439   25.8873 H   0  0  0  0  0  0
  -21.0629  -29.9810   22.3975 H   0  0  0  0  0  0
  -26.0174  -38.2948   24.1470 H   0  0  0  0  0  0
  -26.5589  -21.4185   20.5375 H   0  0  0  0  0  0
  -28.0391  -19.5705   20.0433 H   0  0  0  0  0  0
  -24.6168  -19.0721   23.3835 H   0  0  0  0  0  0
  -20.5362  -24.0520   25.3634 H   0  0  0  0  0  0
  -20.2834  -26.2542   24.4438 H   0  0  0  0  0  0
  -19.2816  -25.3086   23.5846 H   0  0  0  0  0  0
  -20.5295  -28.5462   21.0897 H   0  0  0  0  0  0
  -20.2233  -27.3704   20.2402 H   0  0  0  0  0  0
  -22.7006  -27.8390   19.6497 H   0  0  0  0  0  0
  -22.3146  -26.3082   19.5351 H   0  0  0  0  0  0
  -24.9796  -24.4151   22.1422 H   0  0  0  0  0  0
  -24.2274  -23.9427   20.6750 H   0  0  0  0  0  0
  -24.3428  -26.7992   21.9037 H   0  0  0  0  0  0
  -26.1895  -17.1505   24.2575 H   0  0  0  0  0  0
  -26.7136  -16.0698   22.9843 H   0  0  0  0  0  0
  -25.0204  -16.5277   23.0855 H   0  0  0  0  0  0
  -23.1123  -22.4405   25.1283 H   0  0  0  0  0  0
  -21.5478  -21.5931   25.2893 H   0  0  0  0  0  0
  -22.1085  -22.7306   26.5098 H   0  0  0  0  0  0
  -24.5747  -22.3705   23.5713 H   0  0  0  0  0  0
  -23.2044  -21.4216   23.1220 H   0  0  0  0  0  0
  -29.2522  -17.1462   20.9393 H   0  0  0  0  0  0
  -22.4939  -23.2137   21.6633 H   0  0  0  0  0  0
  1 25  1  0  0  0
  1 30  2  0  0  0
  1 87  1  0  0  0
  2  3  1  0  0  0
  2 25  1  0  0  0
  2 89  1  0  0  0
  2 90  1  0  0  0
  3  4  1  0  0  0
  3 91  1  0  0  0
  3 92  1  0  0  0
  4  5  1  0  0  0
  4 93  1  0  0  0
  4 94  1  0  0  0
  5  6  1  0  0  0
  5 26  1  0  0  0
  5 95  1  0  0  0
  6 25  1  0  0  0
  6 96  1  0  0  0
  6 97  1  0  0  0
  7  8  2  0  0  0
  7 26  1  0  0  0
  7 29  1  0  0  0
  8  9  1  0  0  0
  8 22  1  0  0  0
  9 10  1  0  0  0
  9 27  2  0  0  0
 10 11  2  0  0  0
 10 15  1  0  0  0
 11 12  1  0  0  0
 11 98  1  0  0  0
 12 13  2  0  0  0
 12 99  1  0  0  0
 13 14  1  0  0  0
 13 31  1  0  0  0
 14 15  2  0  0  0
 14100  1  0  0  0
 15101  1  0  0  0
 16 17  2  0  0  0
 16 21  1  0  0  0
 16 31  1  0  0  0
 17 18  1  0  0  0
 17102  1  0  0  0
 18 19  2  0  0  0
 18103  1  0  0  0
 19 20  1  0  0  0
 19 24  1  0  0  0
 20 21  2  0  0  0
 20104  1  0  0  0
 21 23  1  0  0  0
 22 28  1  0  0  0
 22 32  2  0  0  0
 26 27  1  0  0  0
 28105  1  0  0  0
 28106  1  0  0  0
 29107  1  0  0  0
 29108  1  0  0  0
 33 34  1  0  0  0
 33 66  1  0  0  0
 33 70  2  0  0  0
 34 36  1  0  0  0
 34 59  1  0  0  0
 34109  1  0  0  0
 35 44  2  0  0  0
 35 45  1  0  0  0
 35 68  1  0  0  0
 36 56  1  0  0  0
 36110  1  0  0  0
 37 39  1  0  0  0
 37 47  1  0  0  0
 37 66  1  0  0  0
 37111  1  0  0  0
 38 43  2  0  0  0
 38 46  1  0  0  0
 38 47  1  0  0  0
 39 64  1  0  0  0
 39 67  2  0  0  0
 40 52  1  0  0  0
 40 53  2  0  0  0
 40 58  1  0  0  0
 41112  1  0  0  0
 41113  1  0  0  0
 41114  1  0  0  0
 41 48  1  0  0  0
 42 43  1  0  0  0
 42 66  1  0  0  0
 42115  1  0  0  0
 42116  1  0  0  0
 43 44  1  0  0  0
 44117  1  0  0  0
 45 46  2  0  0  0
 45118  1  0  0  0
 46119  1  0  0  0
 47120  1  0  0  0
 47121  1  0  0  0
 48 56  1  0  0  0
 48 65  1  0  0  0
 48122  1  0  0  0
 49 50  1  0  0  0
 49 53  1  0  0  0
 49 64  1  0  0  0
 49123  1  0  0  0
 50 51  1  0  0  0
 50124  1  0  0  0
 50125  1  0  0  0
 51 52  1  0  0  0
 51126  1  0  0  0
 51127  1  0  0  0
 52128  1  0  0  0
 52129  1  0  0  0
 53 54  1  0  0  0
 54 55  2  0  0  0
 54130  1  0  0  0
 55 57  1  0  0  0
 55131  1  0  0  0
 56 69  2  0  0  0
 57 58  2  0  0  0
 57132  1  0  0  0
 58133  1  0  0  0
 59 60  1  0  0  0
 59 61  1  0  0  0
 59 62  1  0  0  0
 60134  1  0  0  0
 60135  1  0  0  0
 60136  1  0  0  0
 61137  1  0  0  0
 61138  1  0  0  0
 61139  1  0  0  0
 62140  1  0  0  0
 62141  1  0  0  0
 62142  1  0  0  0
 63 65  1  0  0  0
 63143  1  0  0  0
 63144  1  0  0  0
 63145  1  0  0  0
 64146  1  0  0  0
 65147  1  0  0  0
 68 83  1  0  0  0
 71 72  2  0  0  0
 71 74  1  0  0  0
 71148  1  0  0  0
 72 76  1  0  0  0
 72149  1  0  0  0
 73 74  2  0  0  0
 73 75  1  0  0  0
 73150  1  0  0  0
 74 86  1  0  0  0
 75 76  2  0  0  0
 75 84  1  0  0  0
 76 87  1  0  0  0
 77 78  2  0  0  0
 77 79  1  0  0  0
 77 88  1  0  0  0
 78 85  1  0  0  0
 78151  1  0  0  0
 79 80  1  0  0  0
 79152  1  0  0  0
 79153  1  0  0  0
 80 81  1  0  0  0
 80154  1  0  0  0
 80155  1  0  0  0
 81 83  1  0  0  0
 81156  1  0  0  0
 81157  1  0  0  0
 82 83  1  0  0  0
 82 88  1  0  0  0
 82158  1  0  0  0
 82159  1  0  0  0
 83160  1  0  0  0
 84161  1  0  0  0
 84162  1  0  0  0
 84163  1  0  0  0
 85164  1  0  0  0
 85165  1  0  0  0
 85166  1  0  0  0
 86167  1  0  0  0
 86168  1  0  0  0
 86 88  1  0  0  0
 87169  1  0  0  0
 88170  1  0  0  0
M  CHG  1  88   1
M  ISO  4   1 100  68 101  83 101  87 100
M  END
> <chiral flag>
0

> <version>
0

> <s_m_source_file>
/data/baiqing/PycharmProjects/Reinvent-master-3.2/result/LINK_invent/BTK/process_docking_weight1_custom_product_contain_oxygen_bond_distance_aromatic_linkinvent_7_9_3/rearranged_h_0034.sdf

> <i_m_source_file_index>
19

> <r_mmod_Potential_Energy-OPLS-2005>
12310.330078125

> <r_mmod_Stretch_Energy-OPLS-2005>
6065.2763671875

> <r_mmod_Bend_Energy-OPLS-2005>
1838.28271484375

> <r_mmod_Torsional_Energy-OPLS-2005>
481.976196289062

> <r_mmod_Improper_Torsional_Energy-OPLS-2005>
29.6530895233154

> <r_mmod_Van_der_Waal_Energy-OPLS-2005>
2086.66821289062

> <r_mmod_Electrostatic_Energy-OPLS-2005>
-322.584136962891

> <r_mmod_Solvation_Energy-OPLS-2005>
-395.207611083984

> <b_mmod_Minimization_Converged-OPLS-2005>
0

> <r_mmod_RMS_Derivative-OPLS-2005>
5.46291828155518

$$$$
19
                    3D
 Structure written by MMmdl.
167176  0  0  1  0            999 V2000
  -30.6997  -14.5326   20.6622 C   0  0  0  0  0  0
  -30.4260  -12.3569   19.4700 C   0  0  0  0  0  0
  -29.5288  -12.5453   18.2289 C   0  0  0  0  0  0
  -28.0394  -12.4094   18.6087 C   0  0  0  0  0  0
  -27.6598  -13.2315   19.8709 C   0  0  2  0  0  0
  -28.6870  -13.0443   21.0095 C   0  0  0  0  0  0
  -25.2531  -13.8223   20.5682 C   0  0  0  0  0  0
  -24.1812  -13.0467   20.9127 C   0  0  0  0  0  0
  -24.6411  -11.6940   20.8677 C   0  0  0  0  0  0
  -23.9109  -10.4297   21.0371 C   0  0  0  0  0  0
  -24.3670   -9.4206   21.9152 C   0  0  0  0  0  0
  -23.6319   -8.2259   22.0735 C   0  0  0  0  0  0
  -22.4285   -8.0319   21.3555 C   0  0  0  0  0  0
  -21.9928   -9.0304   20.4666 C   0  0  0  0  0  0
  -22.7271  -10.2158   20.3046 C   0  0  0  0  0  0
  -21.6859   -6.0766   22.5299 C   0  0  0  0  0  0
  -21.4051   -6.5670   23.8237 C   0  0  0  0  0  0
  -21.3650   -5.6796   24.9182 C   0  0  0  0  0  0
  -21.5995   -4.3058   24.7213 C   0  0  0  0  0  0
  -21.8813   -3.8175   23.4333 C   0  0  0  0  0  0
  -21.9194   -4.6995   22.3392 C   0  0  0  0  0  0
  -22.7830  -13.5209   21.1845 C   0  0  0  0  0  0
  -22.1652   -4.2198   21.0966 F   0  0  0  0  0  0
  -21.5595   -3.4530   25.7714 F   0  0  0  0  0  0
  -30.0228  -13.3588   20.4704 N   0  0  0  0  0  0
  -26.3008  -12.9454   20.3285 N   0  0  0  0  0  0
  -25.9348  -11.6590   20.5654 N   0  0  0  0  0  0
  -22.0479  -12.8239   22.0433 N   0  0  0  0  0  0
  -25.4119  -15.1974   20.4197 N   0  0  0  0  0  0
  -31.8241  -14.7258   20.1834 O   0  0  0  0  0  0
  -21.6641   -6.8935   21.4276 O   0  0  0  0  0  0
  -22.3510  -14.5518   20.6701 O   0  0  0  0  0  0
  -24.6177  -31.8704   23.2199 C   0  0  0  0  0  0
  -25.9080  -32.4816   23.8507 C   0  0  1  0  0  0
  -27.1838  -27.4390   20.0706 C   0  0  0  0  0  0
  -25.5907  -33.8619   24.2373 N   0  0  0  0  0  0
  -23.4012  -30.5080   21.5559 C   0  0  2  0  0  0
  -24.8363  -28.9854   20.1017 C   0  0  0  0  0  0
  -22.7420  -29.4714   22.4943 C   0  0  0  0  0  0
  -18.0283  -28.1334   22.8477 C   0  0  0  0  0  0
  -24.1454  -36.7307   23.2665 C   0  0  0  0  0  0
  -25.9406  -30.8238   21.3931 C   0  0  0  0  0  0
  -26.0007  -29.4770   20.7045 C   0  0  0  0  0  0
  -27.1887  -28.7104   20.6875 C   0  0  0  0  0  0
  -26.0134  -26.9706   19.4454 C   0  0  0  0  0  0
  -24.8344  -27.7305   19.4720 C   0  0  0  0  0  0
  -23.6074  -29.8638   20.1616 C   0  0  0  0  0  0
  -25.4089  -36.3114   24.0342 C   0  0  1  0  0  0
  -20.5873  -28.3653   23.1245 C   0  0  2  0  0  0
  -20.6737  -26.9360   22.5400 C   0  0  0  0  0  0
  -19.5724  -26.6311   21.5190 C   0  0  0  0  0  0
  -18.1900  -26.7871   22.1603 C   0  0  0  0  0  0
  -19.1522  -28.8813   23.2849 C   0  0  0  0  0  0
  -18.9464  -30.1423   23.8878 C   0  0  0  0  0  0
  -17.6463  -30.6546   24.0566 C   0  0  0  0  0  0
  -25.9021  -34.9470   23.5146 C   0  0  0  0  0  0
  -16.5361  -29.9042   23.6337 C   0  0  0  0  0  0
  -16.7267  -28.6447   23.0361 C   0  0  0  0  0  0
  -26.4517  -31.6636   25.0881 C   0  0  0  0  0  0
  -25.3796  -31.3696   26.1625 C   0  0  0  0  0  0
  -27.0514  -30.3118   24.6414 C   0  0  0  0  0  0
  -27.6044  -32.4439   25.7677 C   0  0  0  0  0  0
  -27.5567  -37.1816   24.8466 C   0  0  0  0  0  0
  -21.4141  -29.3031   22.3651 N   0  0  0  0  0  0
  -26.4288  -37.3792   23.9405 N   0  0  0  0  0  0
  -24.6689  -31.0830   22.1093 N   0  0  0  0  0  0
  -23.4202  -28.8213   23.2926 O   0  0  0  0  0  0
  -28.2583  -26.5918   20.1623 O   0  0  0  0  0  0
  -26.5569  -34.8906   22.4720 O   0  0  0  0  0  0
  -23.5375  -32.1516   23.7561 O   0  0  0  0  0  0
  -30.3998  -19.2737   22.2239 C   0  0  0  0  0  0
  -30.1604  -20.5816   21.7405 C   0  0  0  0  0  0
  -29.7178  -18.3436   20.1083 C   0  0  0  0  0  0
  -30.2191  -18.1252   21.4155 C   0  0  0  0  0  0
  -29.7622  -20.8181   20.4046 C   0  0  0  0  0  0
  -29.4889  -19.6617   19.6055 C   0  0  0  0  0  0
  -29.9872  -24.3454   21.5140 C   0  0  0  0  0  0
  -31.3097  -24.5825   21.6636 C   0  0  0  0  0  0
  -28.9648  -25.3075   22.0512 C   0  0  0  0  0  0
  -28.0135  -24.1013   20.1761 C   0  0  0  0  0  0
  -27.9272  -25.4280   20.9568 C   0  0  2  0  0  0
  -28.9651  -19.7960   18.1846 C   0  0  0  0  0  0
  -32.5526  -23.8852   21.1600 C   0  0  0  0  0  0
  -30.5812  -16.7247   21.9941 C   0  0  0  0  0  0
  -29.7495  -22.2819   19.8449 C   0  0  0  0  0  0
  -30.0460  -15.4919   21.3623 N   0  0  0  0  0  0
  -29.1562  -23.3279   20.7496 N   0  3  2  0  0  0
  -31.4841  -12.4247   19.2095 H   0  0  0  0  0  0
  -30.2949  -11.3535   19.8798 H   0  0  0  0  0  0
  -29.7925  -11.8252   17.4535 H   0  0  0  0  0  0
  -29.7125  -13.5325   17.7948 H   0  0  0  0  0  0
  -27.8250  -11.3555   18.7762 H   0  0  0  0  0  0
  -27.4168  -12.7136   17.7663 H   0  0  0  0  0  0
  -27.6912  -14.2788   19.5695 H   0  0  0  0  0  0
  -28.6680  -12.0189   21.3837 H   0  0  0  0  0  0
  -28.4201  -13.6620   21.8683 H   0  0  0  0  0  0
  -25.2831   -9.5676   22.4704 H   0  0  0  0  0  0
  -24.0042   -7.4633   22.7436 H   0  0  0  0  0  0
  -21.0839   -8.8828   19.8975 H   0  0  0  0  0  0
  -22.3736  -10.9707   19.6148 H   0  0  0  0  0  0
  -21.2119   -7.6189   23.9767 H   0  0  0  0  0  0
  -21.1441   -6.0520   25.9079 H   0  0  0  0  0  0
  -22.0605   -2.7654   23.2789 H   0  0  0  0  0  0
  -22.4098  -11.9943   22.4915 H   0  0  0  0  0  0
  -21.1112  -13.1286   22.2648 H   0  0  0  0  0  0
  -24.6333  -15.8356   20.5278 H   0  0  0  0  0  0
  -26.2646  -15.6584   20.1325 H   0  0  0  0  0  0
  -26.7168  -32.5473   23.1258 H   0  0  0  0  0  0
  -25.0115  -33.9823   25.0560 H   0  0  0  0  0  0
  -22.6897  -31.3282   21.4273 H   0  0  0  0  0  0
  -23.3720  -35.9641   23.3367 H   0  0  0  0  0  0
  -24.3529  -36.8930   22.2078 H   0  0  0  0  0  0
  -23.7208  -37.6503   23.6720 H   0  0  0  0  0  0
  -26.1195  -31.6169   20.6659 H   0  0  0  0  0  0
  -26.7954  -30.8118   22.0580 H   0  0  0  0  0  0
  -28.0767  -29.0638   21.1877 H   0  0  0  0  0  0
  -26.0013  -26.0037   18.9645 H   0  0  0  0  0  0
  -23.9365  -27.3479   19.0029 H   0  0  0  0  0  0
  -23.7324  -30.6521   19.4175 H   0  0  0  0  0  0
  -22.7234  -29.3062   19.8481 H   0  0  0  0  0  0
  -25.1282  -36.1995   25.0844 H   0  0  0  0  0  0
  -21.0003  -28.3216   24.1341 H   0  0  0  0  0  0
  -20.5525  -26.2292   23.3608 H   0  0  0  0  0  0
  -21.6619  -26.7283   22.1278 H   0  0  0  0  0  0
  -19.6859  -25.6192   21.1268 H   0  0  0  0  0  0
  -19.6654  -27.3081   20.6683 H   0  0  0  0  0  0
  -17.4172  -26.6641   21.4002 H   0  0  0  0  0  0
  -18.0274  -25.9996   22.8980 H   0  0  0  0  0  0
  -19.7952  -30.7222   24.2212 H   0  0  0  0  0  0
  -17.5041  -31.6223   24.5148 H   0  0  0  0  0  0
  -15.5368  -30.2942   23.7647 H   0  0  0  0  0  0
  -15.8673  -28.0764   22.7095 H   0  0  0  0  0  0
  -24.5668  -30.7495   25.7826 H   0  0  0  0  0  0
  -24.9367  -32.2837   26.5590 H   0  0  0  0  0  0
  -25.8058  -30.8330   27.0109 H   0  0  0  0  0  0
  -26.3210  -29.6730   24.1442 H   0  0  0  0  0  0
  -27.4218  -29.7499   25.4999 H   0  0  0  0  0  0
  -27.9024  -30.4471   23.9736 H   0  0  0  0  0  0
  -27.2695  -33.3847   26.2066 H   0  0  0  0  0  0
  -28.3986  -32.6806   25.0590 H   0  0  0  0  0  0
  -28.0561  -31.8689   26.5760 H   0  0  0  0  0  0
  -28.2601  -38.0105   24.7540 H   0  0  0  0  0  0
  -28.1050  -36.2641   24.6271 H   0  0  0  0  0  0
  -27.2288  -37.1440   25.8872 H   0  0  0  0  0  0
  -20.9261  -29.8863   21.6999 H   0  0  0  0  0  0
  -26.0167  -38.2876   24.1412 H   0  0  0  0  0  0
  -30.7503  -19.1570   23.2418 H   0  0  0  0  0  0
  -30.3178  -21.4149   22.4107 H   0  0  0  0  0  0
  -29.5307  -17.4839   19.4795 H   0  0  0  0  0  0
  -31.5484  -25.4416   22.2772 H   0  0  0  0  0  0
  -29.3945  -26.2800   22.3040 H   0  0  0  0  0  0
  -28.5307  -24.8892   22.9588 H   0  0  0  0  0  0
  -28.1196  -24.3089   19.1123 H   0  0  0  0  0  0
  -27.0869  -23.5370   20.3073 H   0  0  0  0  0  0
  -26.9527  -25.5253   21.4443 H   0  0  0  0  0  0
  -28.5703  -18.8489   17.8133 H   0  0  0  0  0  0
  -29.7598  -20.1242   17.5134 H   0  0  0  0  0  0
  -28.1449  -20.5154   18.1356 H   0  0  0  0  0  0
  -32.7899  -23.0231   21.7836 H   0  0  0  0  0  0
  -33.3833  -24.5906   21.2589 H   0  0  0  0  0  0
  -32.5071  -23.6087   20.1107 H   0  0  0  0  0  0
  -30.1970  -16.7196   23.0176 H   0  0  0  0  0  0
  -31.6652  -16.6422   22.1261 H   0  0  0  0  0  0
  -29.2145  -22.3215   18.8937 H   0  0  0  0  0  0
  -30.7676  -22.5482   19.5761 H   0  0  0  0  0  0
  -29.1220  -15.2323   21.6754 H   0  0  0  0  0  0
  -28.7104  -22.7506   21.4464 H   0  0  0  0  0  0
  1 25  1  0  0  0
  1 30  2  0  0  0
  1 86  1  0  0  0
  2  3  1  0  0  0
  2 25  1  0  0  0
  2 88  1  0  0  0
  2 89  1  0  0  0
  3  4  1  0  0  0
  3 90  1  0  0  0
  3 91  1  0  0  0
  4  5  1  0  0  0
  4 92  1  0  0  0
  4 93  1  0  0  0
  5  6  1  0  0  0
  5 26  1  0  0  0
  5 94  1  0  0  0
  6 25  1  0  0  0
  6 95  1  0  0  0
  6 96  1  0  0  0
  7  8  2  0  0  0
  7 26  1  0  0  0
  7 29  1  0  0  0
  8  9  1  0  0  0
  8 22  1  0  0  0
  9 10  1  0  0  0
  9 27  2  0  0  0
 10 11  2  0  0  0
 10 15  1  0  0  0
 11 12  1  0  0  0
 11 97  1  0  0  0
 12 13  2  0  0  0
 12 98  1  0  0  0
 13 14  1  0  0  0
 13 31  1  0  0  0
 14 15  2  0  0  0
 14 99  1  0  0  0
 15100  1  0  0  0
 16 17  2  0  0  0
 16 21  1  0  0  0
 16 31  1  0  0  0
 17 18  1  0  0  0
 17101  1  0  0  0
 18 19  2  0  0  0
 18102  1  0  0  0
 19 20  1  0  0  0
 19 24  1  0  0  0
 20 21  2  0  0  0
 20103  1  0  0  0
 21 23  1  0  0  0
 22 28  1  0  0  0
 22 32  2  0  0  0
 26 27  1  0  0  0
 28104  1  0  0  0
 28105  1  0  0  0
 29106  1  0  0  0
 29107  1  0  0  0
 33 34  1  0  0  0
 33 66  1  0  0  0
 33 70  2  0  0  0
 34 36  1  0  0  0
 34 59  1  0  0  0
 34108  1  0  0  0
 35 44  2  0  0  0
 35 45  1  0  0  0
 35 68  1  0  0  0
 36 56  1  0  0  0
 36109  1  0  0  0
 37 39  1  0  0  0
 37 47  1  0  0  0
 37 66  1  0  0  0
 37110  1  0  0  0
 38 43  2  0  0  0
 38 46  1  0  0  0
 38 47  1  0  0  0
 39 64  1  0  0  0
 39 67  2  0  0  0
 40 52  1  0  0  0
 40 53  2  0  0  0
 40 58  1  0  0  0
 41111  1  0  0  0
 41112  1  0  0  0
 41113  1  0  0  0
 41 48  1  0  0  0
 42 43  1  0  0  0
 42 66  1  0  0  0
 42114  1  0  0  0
 42115  1  0  0  0
 43 44  1  0  0  0
 44116  1  0  0  0
 45 46  2  0  0  0
 45117  1  0  0  0
 46118  1  0  0  0
 47119  1  0  0  0
 47120  1  0  0  0
 48 56  1  0  0  0
 48 65  1  0  0  0
 48121  1  0  0  0
 49 50  1  0  0  0
 49 53  1  0  0  0
 49 64  1  0  0  0
 49122  1  0  0  0
 50 51  1  0  0  0
 50123  1  0  0  0
 50124  1  0  0  0
 51 52  1  0  0  0
 51125  1  0  0  0
 51126  1  0  0  0
 52127  1  0  0  0
 52128  1  0  0  0
 53 54  1  0  0  0
 54 55  2  0  0  0
 54129  1  0  0  0
 55 57  1  0  0  0
 55130  1  0  0  0
 56 69  2  0  0  0
 57 58  2  0  0  0
 57131  1  0  0  0
 58132  1  0  0  0
 59 60  1  0  0  0
 59 61  1  0  0  0
 59 62  1  0  0  0
 60133  1  0  0  0
 60134  1  0  0  0
 60135  1  0  0  0
 61136  1  0  0  0
 61137  1  0  0  0
 61138  1  0  0  0
 62139  1  0  0  0
 62140  1  0  0  0
 62141  1  0  0  0
 63 65  1  0  0  0
 63142  1  0  0  0
 63143  1  0  0  0
 63144  1  0  0  0
 64145  1  0  0  0
 65146  1  0  0  0
 68 81  1  0  0  0
 71 72  2  0  0  0
 71 74  1  0  0  0
 71147  1  0  0  0
 72 75  1  0  0  0
 72148  1  0  0  0
 73 74  2  0  0  0
 73 76  1  0  0  0
 73149  1  0  0  0
 74 84  1  0  0  0
 75 76  2  0  0  0
 75 85  1  0  0  0
 76 82  1  0  0  0
 77 78  2  0  0  0
 77 79  1  0  0  0
 77 87  1  0  0  0
 78 83  1  0  0  0
 78150  1  0  0  0
 79 81  1  0  0  0
 79151  1  0  0  0
 79152  1  0  0  0
 80 81  1  0  0  0
 80 87  1  0  0  0
 80153  1  0  0  0
 80154  1  0  0  0
 81155  1  0  0  0
 82156  1  0  0  0
 82157  1  0  0  0
 82158  1  0  0  0
 83159  1  0  0  0
 83160  1  0  0  0
 83161  1  0  0  0
 84 86  1  0  0  0
 84162  1  0  0  0
 84163  1  0  0  0
 85164  1  0  0  0
 85165  1  0  0  0
 85 87  1  0  0  0
 86166  1  0  0  0
 87167  1  0  0  0
M  CHG  1  87   1
M  ISO  4   1 100  68 101  81 101  86 100
M  END
> <chiral flag>
0

> <version>
0

> <s_m_source_file>
/data/baiqing/PycharmProjects/Reinvent-master-3.2/result/LINK_invent/BTK/process_docking_weight1_custom_product_contain_oxygen_bond_distance_aromatic_linkinvent_7_9_3/rearranged_h_0034.sdf

> <i_m_source_file_index>
20

> <r_mmod_Potential_Energy-OPLS-2005>
-70.6605377197266

> <r_mmod_Stretch_Energy-OPLS-2005>
54.1348571777344

> <r_mmod_Bend_Energy-OPLS-2005>
177.7978515625

> <r_mmod_Torsional_Energy-OPLS-2005>
271.415405273438

> <r_mmod_Improper_Torsional_Energy-OPLS-2005>
3.11113405227661

> <r_mmod_Van_der_Waal_Energy-OPLS-2005>
144.049423217773

> <r_mmod_Electrostatic_Energy-OPLS-2005>
-333.102935791016

> <r_mmod_Solvation_Energy-OPLS-2005>
-416.046081542969

> <b_mmod_Minimization_Converged-OPLS-2005>
0

> <r_mmod_RMS_Derivative-OPLS-2005>
7.88170957565308

$$$$
20
                    3D
 Structure written by MMmdl.
167176  0  0  1  0            999 V2000
  -30.6193  -14.6595   20.4837 C   0  0  0  0  0  0
  -30.4426  -12.4049   19.4511 C   0  0  0  0  0  0
  -29.5134  -12.5179   18.2213 C   0  0  0  0  0  0
  -28.0378  -12.3431   18.6360 C   0  0  0  0  0  0
  -27.6562  -13.2189   19.8597 C   0  0  2  0  0  0
  -28.7011  -13.0882   20.9915 C   0  0  0  0  0  0
  -25.2598  -13.8171   20.5714 C   0  0  0  0  0  0
  -24.1849  -13.0437   20.9165 C   0  0  0  0  0  0
  -24.6410  -11.6900   20.8694 C   0  0  0  0  0  0
  -23.9069  -10.4284   21.0368 C   0  0  0  0  0  0
  -24.3625   -9.4209   21.9158 C   0  0  0  0  0  0
  -23.6297   -8.2248   22.0747 C   0  0  0  0  0  0
  -22.4276   -8.0275   21.3539 C   0  0  0  0  0  0
  -21.9902   -9.0243   20.4649 C   0  0  0  0  0  0
  -22.7227  -10.2124   20.3036 C   0  0  0  0  0  0
  -21.6859   -6.0725   22.5268 C   0  0  0  0  0  0
  -21.4019   -6.5636   23.8203 C   0  0  0  0  0  0
  -21.3664   -5.6786   24.9167 C   0  0  0  0  0  0
  -21.6046   -4.3046   24.7217 C   0  0  0  0  0  0
  -21.8825   -3.8135   23.4341 C   0  0  0  0  0  0
  -21.9202   -4.6954   22.3395 C   0  0  0  0  0  0
  -22.7877  -13.5244   21.1822 C   0  0  0  0  0  0
  -22.1669   -4.2139   21.0971 F   0  0  0  0  0  0
  -21.5634   -3.4534   25.7734 F   0  0  0  0  0  0
  -30.0161  -13.4297   20.4263 N   0  0  0  0  0  0
  -26.3021  -12.9355   20.3301 N   0  0  0  0  0  0
  -25.9339  -11.6506   20.5717 N   0  0  0  0  0  0
  -22.0513  -12.8242   22.0381 N   0  0  0  0  0  0
  -25.4355  -15.1898   20.4224 N   0  0  0  0  0  0
  -31.7852  -14.8162   20.1127 O   0  0  0  0  0  0
  -21.6652   -6.8863   21.4226 O   0  0  0  0  0  0
  -22.3562  -14.5554   20.6680 O   0  0  0  0  0  0
  -24.6257  -31.8598   23.2041 C   0  0  0  0  0  0
  -25.9125  -32.4769   23.8334 C   0  0  1  0  0  0
  -27.2078  -27.3196   20.1282 C   0  0  0  0  0  0
  -25.5958  -33.8565   24.2276 N   0  0  0  0  0  0
  -23.4176  -30.4841   21.5477 C   0  0  2  0  0  0
  -24.8635  -28.9443   20.1069 C   0  0  0  0  0  0
  -22.7453  -29.4631   22.4968 C   0  0  0  0  0  0
  -18.0282  -28.1381   22.8499 C   0  0  0  0  0  0
  -24.1503  -36.7291   23.2633 C   0  0  0  0  0  0
  -25.9589  -30.7881   21.3806 C   0  0  0  0  0  0
  -26.0300  -29.4159   20.7253 C   0  0  0  0  0  0
  -27.2069  -28.6118   20.7350 C   0  0  0  0  0  0
  -26.0423  -26.9220   19.4421 C   0  0  0  0  0  0
  -24.8705  -27.6998   19.4568 C   0  0  0  0  0  0
  -23.6281  -29.8196   20.1625 C   0  0  0  0  0  0
  -25.4124  -36.3073   24.0326 C   0  0  1  0  0  0
  -20.5877  -28.3680   23.1302 C   0  0  2  0  0  0
  -20.6780  -26.9401   22.5432 C   0  0  0  0  0  0
  -19.5766  -26.6378   21.5223 C   0  0  0  0  0  0
  -18.1931  -26.7943   22.1603 C   0  0  0  0  0  0
  -19.1533  -28.8843   23.2893 C   0  0  0  0  0  0
  -18.9457  -30.1456   23.8893 C   0  0  0  0  0  0
  -17.6453  -30.6587   24.0562 C   0  0  0  0  0  0
  -25.9060  -34.9443   23.5093 C   0  0  0  0  0  0
  -16.5342  -29.9075   23.6345 C   0  0  0  0  0  0
  -16.7267  -28.6498   23.0361 C   0  0  0  0  0  0
  -26.4508  -31.6569   25.0701 C   0  0  0  0  0  0
  -25.3760  -31.3727   26.1446 C   0  0  0  0  0  0
  -27.0308  -30.2964   24.6184 C   0  0  0  0  0  0
  -27.6094  -32.4287   25.7450 C   0  0  0  0  0  0
  -27.5595  -37.1798   24.8459 C   0  0  0  0  0  0
  -21.4175  -29.3031   22.3688 N   0  0  0  0  0  0
  -26.4304  -37.3771   23.9410 N   0  0  0  0  0  0
  -24.6857  -31.0605   22.1001 N   0  0  0  0  0  0
  -23.4176  -28.8185   23.3059 O   0  0  0  0  0  0
  -28.2959  -26.4406   20.1429 O   0  0  0  0  0  0
  -26.5597  -34.8903   22.4643 O   0  0  0  0  0  0
  -23.5433  -32.1381   23.7395 O   0  0  0  0  0  0
  -30.1993  -19.2801   19.4271 C   0  0  0  0  0  0
  -29.8473  -20.1163   20.5195 C   0  0  0  0  0  0
  -30.2296  -17.8555   19.4952 C   0  0  0  0  0  0
  -29.5058  -19.4395   21.7299 C   0  0  0  0  0  0
  -29.5055  -17.9964   21.8033 C   0  0  0  0  0  0
  -29.9024  -17.1709   20.7021 C   0  0  0  0  0  0
  -29.2803  -24.0826   20.5504 C   0  0  0  0  0  0
  -26.5395  -23.3485   20.3368 C   0  0  0  0  0  0
  -26.8376  -24.5402   21.2546 C   0  0  0  0  0  0
  -27.5839  -22.2424   20.5814 C   0  0  0  0  0  0
  -28.2179  -25.1926   20.9594 C   0  0  2  0  0  0
  -30.5943  -17.1020   18.2254 C   0  0  0  0  0  0
  -29.1768  -20.2595   22.9756 C   0  0  0  0  0  0
  -29.0882  -17.2802   23.0871 C   0  0  0  0  0  0
  -30.0508  -21.6822   20.3705 C   0  0  0  0  0  0
  -28.9717  -22.7301   20.5310 N   0  0  0  0  0  0
  -29.7992  -15.7078   20.8244 N   0  0  0  0  0  0
  -30.4275  -24.4677   20.2998 O   0  0  0  0  0  0
  -31.4843  -12.5320   19.1507 H   0  0  0  0  0  0
  -30.3804  -11.4106   19.8947 H   0  0  0  0  0  0
  -29.7837  -11.7717   17.4730 H   0  0  0  0  0  0
  -29.6467  -13.4899   17.7429 H   0  0  0  0  0  0
  -27.8864  -11.2904   18.8758 H   0  0  0  0  0  0
  -27.3803  -12.5612   17.7932 H   0  0  0  0  0  0
  -27.6684  -14.2526   19.5102 H   0  0  0  0  0  0
  -28.7149  -12.0742   21.3942 H   0  0  0  0  0  0
  -28.4463  -13.7354   21.8320 H   0  0  0  0  0  0
  -25.2769   -9.5702   22.4739 H   0  0  0  0  0  0
  -24.0009   -7.4648   22.7475 H   0  0  0  0  0  0
  -21.0827   -8.8761   19.8969 H   0  0  0  0  0  0
  -22.3675  -10.9660   19.6153 H   0  0  0  0  0  0
  -21.2004   -7.6141   23.9701 H   0  0  0  0  0  0
  -21.1489   -6.0518   25.9071 H   0  0  0  0  0  0
  -22.0606   -2.7595   23.2842 H   0  0  0  0  0  0
  -22.4119  -11.9916   22.4788 H   0  0  0  0  0  0
  -21.1128  -13.1276   22.2560 H   0  0  0  0  0  0
  -24.6787  -15.8503   20.5624 H   0  0  0  0  0  0
  -26.3011  -15.6343   20.1433 H   0  0  0  0  0  0
  -26.7193  -32.5419   23.1081 H   0  0  0  0  0  0
  -25.0156  -33.9705   25.0453 H   0  0  0  0  0  0
  -22.7139  -31.3066   21.4096 H   0  0  0  0  0  0
  -23.3776  -35.9611   23.3246 H   0  0  0  0  0  0
  -24.3628  -36.8940   22.2059 H   0  0  0  0  0  0
  -23.7221  -37.6466   23.6676 H   0  0  0  0  0  0
  -26.0954  -31.5528   20.6147 H   0  0  0  0  0  0
  -26.8380  -30.8300   22.0117 H   0  0  0  0  0  0
  -28.0995  -28.9655   21.2308 H   0  0  0  0  0  0
  -26.0203  -25.9716   18.9275 H   0  0  0  0  0  0
  -23.9817  -27.3362   18.9590 H   0  0  0  0  0  0
  -23.7345  -30.5967   19.4053 H   0  0  0  0  0  0
  -22.7485  -29.2428   19.8680 H   0  0  0  0  0  0
  -25.1307  -36.1925   25.0816 H   0  0  0  0  0  0
  -20.9953  -28.3251   24.1427 H   0  0  0  0  0  0
  -20.5683  -26.2282   23.3629 H   0  0  0  0  0  0
  -21.6653  -26.7457   22.1215 H   0  0  0  0  0  0
  -19.6925  -25.6284   21.1253 H   0  0  0  0  0  0
  -19.6723  -27.3195   20.6760 H   0  0  0  0  0  0
  -17.4223  -26.6738   21.3969 H   0  0  0  0  0  0
  -18.0284  -26.0057   22.8957 H   0  0  0  0  0  0
  -19.7922  -30.7290   24.2249 H   0  0  0  0  0  0
  -17.4996  -31.6275   24.5148 H   0  0  0  0  0  0
  -15.5336  -30.2965   23.7695 H   0  0  0  0  0  0
  -15.8666  -28.0805   22.7089 H   0  0  0  0  0  0
  -24.5994  -30.6982   25.7821 H   0  0  0  0  0  0
  -24.8887  -32.2884   26.4807 H   0  0  0  0  0  0
  -25.8116  -30.8992   27.0256 H   0  0  0  0  0  0
  -26.2849  -29.6735   24.1240 H   0  0  0  0  0  0
  -27.3966  -29.7219   25.4708 H   0  0  0  0  0  0
  -27.8754  -30.4166   23.9401 H   0  0  0  0  0  0
  -27.2734  -33.3614   26.1997 H   0  0  0  0  0  0
  -28.3923  -32.6793   25.0277 H   0  0  0  0  0  0
  -28.0742  -31.8415   26.5384 H   0  0  0  0  0  0
  -28.2607  -38.0107   24.7533 H   0  0  0  0  0  0
  -28.1091  -36.2642   24.6241 H   0  0  0  0  0  0
  -27.2322  -37.1384   25.8862 H   0  0  0  0  0  0
  -20.9351  -29.8700   21.6856 H   0  0  0  0  0  0
  -26.0176  -38.2840   24.1408 H   0  0  0  0  0  0
  -30.4869  -19.7511   18.4970 H   0  0  0  0  0  0
  -26.5536  -23.6621   19.2910 H   0  0  0  0  0  0
  -25.5382  -22.9618   20.5320 H   0  0  0  0  0  0
  -26.8636  -24.1630   22.2772 H   0  0  0  0  0  0
  -26.0078  -25.2416   21.2762 H   0  0  0  0  0  0
  -27.4449  -21.4407   19.8547 H   0  0  0  0  0  0
  -27.4033  -21.8052   21.5623 H   0  0  0  0  0  0
  -28.5643  -25.5461   21.9323 H   0  0  0  0  0  0
  -30.4329  -17.7177   17.3393 H   0  0  0  0  0  0
  -29.9912  -16.2020   18.1051 H   0  0  0  0  0  0
  -31.6475  -16.8203   18.2415 H   0  0  0  0  0  0
  -29.3897  -21.3203   22.8619 H   0  0  0  0  0  0
  -29.7671  -19.9259   23.8289 H   0  0  0  0  0  0
  -28.1201  -20.1616   23.2288 H   0  0  0  0  0  0
  -28.7930  -17.9345   23.9029 H   0  0  0  0  0  0
  -29.9095  -16.6614   23.4503 H   0  0  0  0  0  0
  -28.2366  -16.6281   22.8894 H   0  0  0  0  0  0
  -30.4957  -21.8632   19.3906 H   0  0  0  0  0  0
  -30.8422  -21.9387   21.0761 H   0  0  0  0  0  0
  -28.9304  -15.3891   21.2228 H   0  0  0  0  0  0
  1 25  1  0  0  0
  1 30  2  0  0  0
  1 87  1  0  0  0
  2  3  1  0  0  0
  2 25  1  0  0  0
  2 89  1  0  0  0
  2 90  1  0  0  0
  3  4  1  0  0  0
  3 91  1  0  0  0
  3 92  1  0  0  0
  4  5  1  0  0  0
  4 93  1  0  0  0
  4 94  1  0  0  0
  5  6  1  0  0  0
  5 26  1  0  0  0
  5 95  1  0  0  0
  6 25  1  0  0  0
  6 96  1  0  0  0
  6 97  1  0  0  0
  7  8  2  0  0  0
  7 26  1  0  0  0
  7 29  1  0  0  0
  8  9  1  0  0  0
  8 22  1  0  0  0
  9 10  1  0  0  0
  9 27  2  0  0  0
 10 11  2  0  0  0
 10 15  1  0  0  0
 11 12  1  0  0  0
 11 98  1  0  0  0
 12 13  2  0  0  0
 12 99  1  0  0  0
 13 14  1  0  0  0
 13 31  1  0  0  0
 14 15  2  0  0  0
 14100  1  0  0  0
 15101  1  0  0  0
 16 17  2  0  0  0
 16 21  1  0  0  0
 16 31  1  0  0  0
 17 18  1  0  0  0
 17102  1  0  0  0
 18 19  2  0  0  0
 18103  1  0  0  0
 19 20  1  0  0  0
 19 24  1  0  0  0
 20 21  2  0  0  0
 20104  1  0  0  0
 21 23  1  0  0  0
 22 28  1  0  0  0
 22 32  2  0  0  0
 26 27  1  0  0  0
 28105  1  0  0  0
 28106  1  0  0  0
 29107  1  0  0  0
 29108  1  0  0  0
 33 34  1  0  0  0
 33 66  1  0  0  0
 33 70  2  0  0  0
 34 36  1  0  0  0
 34 59  1  0  0  0
 34109  1  0  0  0
 35 44  2  0  0  0
 35 45  1  0  0  0
 35 68  1  0  0  0
 36 56  1  0  0  0
 36110  1  0  0  0
 37 39  1  0  0  0
 37 47  1  0  0  0
 37 66  1  0  0  0
 37111  1  0  0  0
 38 43  2  0  0  0
 38 46  1  0  0  0
 38 47  1  0  0  0
 39 64  1  0  0  0
 39 67  2  0  0  0
 40 52  1  0  0  0
 40 53  2  0  0  0
 40 58  1  0  0  0
 41112  1  0  0  0
 41113  1  0  0  0
 41114  1  0  0  0
 41 48  1  0  0  0
 42 43  1  0  0  0
 42 66  1  0  0  0
 42115  1  0  0  0
 42116  1  0  0  0
 43 44  1  0  0  0
 44117  1  0  0  0
 45 46  2  0  0  0
 45118  1  0  0  0
 46119  1  0  0  0
 47120  1  0  0  0
 47121  1  0  0  0
 48 56  1  0  0  0
 48 65  1  0  0  0
 48122  1  0  0  0
 49 50  1  0  0  0
 49 53  1  0  0  0
 49 64  1  0  0  0
 49123  1  0  0  0
 50 51  1  0  0  0
 50124  1  0  0  0
 50125  1  0  0  0
 51 52  1  0  0  0
 51126  1  0  0  0
 51127  1  0  0  0
 52128  1  0  0  0
 52129  1  0  0  0
 53 54  1  0  0  0
 54 55  2  0  0  0
 54130  1  0  0  0
 55 57  1  0  0  0
 55131  1  0  0  0
 56 69  2  0  0  0
 57 58  2  0  0  0
 57132  1  0  0  0
 58133  1  0  0  0
 59 60  1  0  0  0
 59 61  1  0  0  0
 59 62  1  0  0  0
 60134  1  0  0  0
 60135  1  0  0  0
 60136  1  0  0  0
 61137  1  0  0  0
 61138  1  0  0  0
 61139  1  0  0  0
 62140  1  0  0  0
 62141  1  0  0  0
 62142  1  0  0  0
 63 65  1  0  0  0
 63143  1  0  0  0
 63144  1  0  0  0
 63145  1  0  0  0
 64146  1  0  0  0
 65147  1  0  0  0
 68 81  1  0  0  0
 71 72  2  0  0  0
 71 73  1  0  0  0
 71148  1  0  0  0
 72 74  1  0  0  0
 72 85  1  0  0  0
 73 76  2  0  0  0
 73 82  1  0  0  0
 74 75  2  0  0  0
 74 83  1  0  0  0
 75 76  1  0  0  0
 75 84  1  0  0  0
 76 87  1  0  0  0
 77 81  1  0  0  0
 77 86  1  0  0  0
 77 88  2  0  0  0
 78 79  1  0  0  0
 78 80  1  0  0  0
 78149  1  0  0  0
 78150  1  0  0  0
 79 81  1  0  0  0
 79151  1  0  0  0
 79152  1  0  0  0
 80 86  1  0  0  0
 80153  1  0  0  0
 80154  1  0  0  0
 81155  1  0  0  0
 82156  1  0  0  0
 82157  1  0  0  0
 82158  1  0  0  0
 83159  1  0  0  0
 83160  1  0  0  0
 83161  1  0  0  0
 84162  1  0  0  0
 84163  1  0  0  0
 84164  1  0  0  0
 85 86  1  0  0  0
 85165  1  0  0  0
 85166  1  0  0  0
 87167  1  0  0  0
M  ISO  4   1 100  68 101  81 101  87 100
M  END
> <chiral flag>
0

> <version>
0

> <s_m_source_file>
/data/baiqing/PycharmProjects/Reinvent-master-3.2/result/LINK_invent/BTK/process_docking_weight1_custom_product_contain_oxygen_bond_distance_aromatic_linkinvent_7_9_3/rearranged_h_0034.sdf

> <i_m_source_file_index>
21

> <r_mmod_Potential_Energy-OPLS-2005>
149.543609619141

> <r_mmod_Stretch_Energy-OPLS-2005>
94.3751754760742

> <r_mmod_Bend_Energy-OPLS-2005>
163.691513061523

> <r_mmod_Torsional_Energy-OPLS-2005>
285.752258300781

> <r_mmod_Improper_Torsional_Energy-OPLS-2005>
5.20237016677856

> <r_mmod_Van_der_Waal_Energy-OPLS-2005>
160.176040649414

> <r_mmod_Electrostatic_Energy-OPLS-2005>
-385.55859375

> <r_mmod_Solvation_Energy-OPLS-2005>
-228.632034301758

> <b_mmod_Minimization_Converged-OPLS-2005>
0

> <r_mmod_RMS_Derivative-OPLS-2005>
2.28854990005493

$$$$
21
                    3D
 Structure written by MMmdl.
158167  0  0  1  0            999 V2000
  -30.5982  -14.6556   20.4895 C   0  0  0  0  0  0
  -30.4371  -12.4014   19.4595 C   0  0  0  0  0  0
  -29.5047  -12.5071   18.2301 C   0  0  0  0  0  0
  -28.0289  -12.3323   18.6416 C   0  0  0  0  0  0
  -27.6486  -13.2083   19.8629 C   0  0  2  0  0  0
  -28.6910  -13.0679   20.9939 C   0  0  0  0  0  0
  -25.2556  -13.8147   20.5660 C   0  0  0  0  0  0
  -24.1807  -13.0448   20.9167 C   0  0  0  0  0  0
  -24.6335  -11.6906   20.8722 C   0  0  0  0  0  0
  -23.9000  -10.4302   21.0419 C   0  0  0  0  0  0
  -24.3577   -9.4227   21.9196 C   0  0  0  0  0  0
  -23.6277   -8.2248   22.0754 C   0  0  0  0  0  0
  -22.4255   -8.0267   21.3547 C   0  0  0  0  0  0
  -21.9875   -9.0235   20.4653 C   0  0  0  0  0  0
  -22.7171  -10.2131   20.3070 C   0  0  0  0  0  0
  -21.6847   -6.0729   22.5279 C   0  0  0  0  0  0
  -21.4026   -6.5656   23.8208 C   0  0  0  0  0  0
  -21.3666   -5.6808   24.9176 C   0  0  0  0  0  0
  -21.6025   -4.3068   24.7229 C   0  0  0  0  0  0
  -21.8817   -3.8153   23.4361 C   0  0  0  0  0  0
  -21.9201   -4.6963   22.3410 C   0  0  0  0  0  0
  -22.7855  -13.5277   21.1869 C   0  0  0  0  0  0
  -22.1666   -4.2152   21.0989 F   0  0  0  0  0  0
  -21.5607   -3.4559   25.7753 F   0  0  0  0  0  0
  -30.0067  -13.4207   20.4350 N   0  0  0  0  0  0
  -26.2954  -12.9298   20.3304 N   0  0  0  0  0  0
  -25.9271  -11.6473   20.5759 N   0  0  0  0  0  0
  -22.0531  -12.8231   22.0408 N   0  0  0  0  0  0
  -25.4328  -15.1863   20.4073 N   0  0  0  0  0  0
  -31.7592  -14.8315   20.1074 O   0  0  0  0  0  0
  -21.6629   -6.8860   21.4229 O   0  0  0  0  0  0
  -22.3562  -14.5614   20.6760 O   0  0  0  0  0  0
  -24.6253  -31.8594   23.2014 C   0  0  0  0  0  0
  -25.9121  -32.4767   23.8335 C   0  0  1  0  0  0
  -27.2285  -27.3257   20.1169 C   0  0  0  0  0  0
  -25.5948  -33.8563   24.2288 N   0  0  0  0  0  0
  -23.4158  -30.4826   21.5445 C   0  0  2  0  0  0
  -24.8658  -28.9360   20.1097 C   0  0  0  0  0  0
  -22.7437  -29.4641   22.4953 C   0  0  0  0  0  0
  -18.0276  -28.1351   22.8472 C   0  0  0  0  0  0
  -24.1492  -36.7288   23.2635 C   0  0  0  0  0  0
  -25.9569  -30.7950   21.3677 C   0  0  0  0  0  0
  -26.0337  -29.4191   20.7180 C   0  0  0  0  0  0
  -27.2181  -28.6239   20.7131 C   0  0  0  0  0  0
  -26.0456  -26.9003   19.4751 C   0  0  0  0  0  0
  -24.8758  -27.6829   19.4778 C   0  0  0  0  0  0
  -23.6285  -29.8102   20.1617 C   0  0  0  0  0  0
  -25.4107  -36.3074   24.0334 C   0  0  1  0  0  0
  -20.5872  -28.3676   23.1289 C   0  0  2  0  0  0
  -20.6790  -26.9404   22.5418 C   0  0  0  0  0  0
  -19.5789  -26.6365   21.5207 C   0  0  0  0  0  0
  -18.1954  -26.7893   22.1597 C   0  0  0  0  0  0
  -19.1524  -28.8833   23.2868 C   0  0  0  0  0  0
  -18.9444  -30.1437   23.8889 C   0  0  0  0  0  0
  -17.6439  -30.6558   24.0568 C   0  0  0  0  0  0
  -25.9046  -34.9450   23.5105 C   0  0  0  0  0  0
  -16.5336  -29.9053   23.6324 C   0  0  0  0  0  0
  -16.7268  -28.6481   23.0333 C   0  0  0  0  0  0
  -26.4529  -31.6551   25.0675 C   0  0  0  0  0  0
  -25.3771  -31.3692   26.1402 C   0  0  0  0  0  0
  -27.0366  -30.2972   24.6114 C   0  0  0  0  0  0
  -27.6091  -32.4272   25.7460 C   0  0  0  0  0  0
  -27.5573  -37.1793   24.8459 C   0  0  0  0  0  0
  -21.4154  -29.3047   22.3681 N   0  0  0  0  0  0
  -26.4280  -37.3769   23.9412 N   0  0  0  0  0  0
  -24.6852  -31.0622   22.0957 N   0  0  0  0  0  0
  -23.4166  -28.8198   23.3039 O   0  0  0  0  0  0
  -28.3459  -26.4788   20.1158 O   0  0  0  0  0  0
  -26.5606  -34.8926   22.4668 O   0  0  0  0  0  0
  -23.5422  -32.1417   23.7352 O   0  0  0  0  0  0
  -29.1993  -19.0551   19.1412 C   0  0  0  0  0  0
  -30.2362  -19.4840   21.2607 C   0  0  0  0  0  0
  -29.6751  -20.0204   20.0694 C   0  0  0  0  0  0
  -29.8538  -17.1183   20.5578 C   0  0  0  0  0  0
  -29.2815  -17.6500   19.3688 C   0  0  0  0  0  0
  -30.3081  -18.0765   21.5097 C   0  0  0  0  0  0
  -28.9026  -23.9486   19.7849 C   0  0  0  0  0  0
  -28.7629  -23.5877   22.6418 C   0  0  0  0  0  0
  -28.6354  -25.0238   22.0673 C   0  0  0  0  0  0
  -28.3748  -22.4647   21.6486 C   0  0  0  0  0  0
  -28.1627  -25.0846   20.6011 C   0  0  1  0  0  0
  -29.7472  -21.5491   19.6648 C   0  0  0  0  0  0
  -28.9844  -22.6778   20.3287 N   0  0  0  0  0  0
  -29.7823  -15.6885   20.8576 N   0  0  0  0  0  0
  -29.3991  -24.2235   18.6882 O   0  0  0  0  0  0
  -28.6350  -16.5833   18.1728 Cl  0  0  0  0  0  0
  -30.9473  -17.5391   23.0224 Cl  0  0  0  0  0  0
  -31.4775  -12.5356   19.1596 H   0  0  0  0  0  0
  -30.3795  -11.4081   19.9090 H   0  0  0  0  0  0
  -29.7760  -11.7568   17.4864 H   0  0  0  0  0  0
  -29.6300  -13.4781   17.7473 H   0  0  0  0  0  0
  -27.8767  -11.2800   18.8825 H   0  0  0  0  0  0
  -27.3677  -12.5499   17.8016 H   0  0  0  0  0  0
  -27.6635  -14.2402   19.5183 H   0  0  0  0  0  0
  -28.7060  -12.0442   21.3752 H   0  0  0  0  0  0
  -28.4277  -13.6986   21.8444 H   0  0  0  0  0  0
  -25.2746   -9.5707   22.4740 H   0  0  0  0  0  0
  -24.0017   -7.4644   22.7472 H   0  0  0  0  0  0
  -21.0806   -8.8712   19.8970 H   0  0  0  0  0  0
  -22.3616  -10.9655   19.6164 H   0  0  0  0  0  0
  -21.2015   -7.6168   23.9710 H   0  0  0  0  0  0
  -21.1490   -6.0549   25.9073 H   0  0  0  0  0  0
  -22.0590   -2.7623   23.2856 H   0  0  0  0  0  0
  -22.4216  -11.9878   22.4698 H   0  0  0  0  0  0
  -21.1185  -13.1253   22.2751 H   0  0  0  0  0  0
  -24.6632  -15.8413   20.4925 H   0  0  0  0  0  0
  -26.2706  -15.6107   20.0315 H   0  0  0  0  0  0
  -26.7176  -32.5455   23.1069 H   0  0  0  0  0  0
  -25.0091  -33.9708   25.0436 H   0  0  0  0  0  0
  -22.7088  -31.3020   21.3982 H   0  0  0  0  0  0
  -23.3751  -35.9622   23.3283 H   0  0  0  0  0  0
  -24.3579  -36.8916   22.2048 H   0  0  0  0  0  0
  -23.7270  -37.6501   23.6655 H   0  0  0  0  0  0
  -26.0725  -31.5506   20.5895 H   0  0  0  0  0  0
  -26.8441  -30.8565   21.9860 H   0  0  0  0  0  0
  -28.1145  -28.9897   21.1932 H   0  0  0  0  0  0
  -26.0208  -25.9503   18.9602 H   0  0  0  0  0  0
  -23.9854  -27.3141   18.9870 H   0  0  0  0  0  0
  -23.7291  -30.5832   19.3995 H   0  0  0  0  0  0
  -22.7519  -29.2264   19.8713 H   0  0  0  0  0  0
  -25.1292  -36.1919   25.0824 H   0  0  0  0  0  0
  -20.9954  -28.3252   24.1420 H   0  0  0  0  0  0
  -20.5700  -26.2274   23.3602 H   0  0  0  0  0  0
  -21.6661  -26.7456   22.1209 H   0  0  0  0  0  0
  -19.6987  -25.6280   21.1235 H   0  0  0  0  0  0
  -19.6710  -27.3164   20.6728 H   0  0  0  0  0  0
  -17.4247  -26.6610   21.3976 H   0  0  0  0  0  0
  -18.0365  -26.0015   22.8975 H   0  0  0  0  0  0
  -19.7926  -30.7254   24.2251 H   0  0  0  0  0  0
  -17.4996  -31.6224   24.5197 H   0  0  0  0  0  0
  -15.5345  -30.2966   23.7626 H   0  0  0  0  0  0
  -15.8669  -28.0795   22.7064 H   0  0  0  0  0  0
  -24.5956  -30.7031   25.7734 H   0  0  0  0  0  0
  -24.8939  -32.2848   26.4805 H   0  0  0  0  0  0
  -25.8084  -30.8888   27.0185 H   0  0  0  0  0  0
  -26.2931  -29.6707   24.1157 H   0  0  0  0  0  0
  -27.4098  -29.7234   25.4609 H   0  0  0  0  0  0
  -27.8787  -30.4251   23.9306 H   0  0  0  0  0  0
  -27.2714  -33.3573   26.2052 H   0  0  0  0  0  0
  -28.3917  -32.6819   25.0296 H   0  0  0  0  0  0
  -28.0749  -31.8370   26.5370 H   0  0  0  0  0  0
  -28.2599  -38.0081   24.7487 H   0  0  0  0  0  0
  -28.1063  -36.2612   24.6300 H   0  0  0  0  0  0
  -27.2275  -37.1464   25.8856 H   0  0  0  0  0  0
  -20.9328  -29.8704   21.6835 H   0  0  0  0  0  0
  -26.0160  -38.2847   24.1388 H   0  0  0  0  0  0
  -28.7758  -19.3940   18.2067 H   0  0  0  0  0  0
  -30.6409  -20.1629   21.9966 H   0  0  0  0  0  0
  -28.1727  -23.5026   23.5546 H   0  0  0  0  0  0
  -29.7976  -23.4242   22.9523 H   0  0  0  0  0  0
  -29.6039  -25.5196   22.1449 H   0  0  0  0  0  0
  -27.9560  -25.6097   22.6858 H   0  0  0  0  0  0
  -27.2909  -22.4348   21.5210 H   0  0  0  0  0  0
  -28.6476  -21.5014   22.0743 H   0  0  0  0  0  0
  -27.1084  -24.8046   20.5818 H   0  0  0  0  0  0
  -29.5243  -21.5985   18.5975 H   0  0  0  0  0  0
  -30.8012  -21.8262   19.7235 H   0  0  0  0  0  0
  -28.8757  -15.3801   21.1704 H   0  0  0  0  0  0
  1 25  1  0  0  0
  1 30  2  0  0  0
  1 84  1  0  0  0
  2  3  1  0  0  0
  2 25  1  0  0  0
  2 88  1  0  0  0
  2 89  1  0  0  0
  3  4  1  0  0  0
  3 90  1  0  0  0
  3 91  1  0  0  0
  4  5  1  0  0  0
  4 92  1  0  0  0
  4 93  1  0  0  0
  5  6  1  0  0  0
  5 26  1  0  0  0
  5 94  1  0  0  0
  6 25  1  0  0  0
  6 95  1  0  0  0
  6 96  1  0  0  0
  7  8  2  0  0  0
  7 26  1  0  0  0
  7 29  1  0  0  0
  8  9  1  0  0  0
  8 22  1  0  0  0
  9 10  1  0  0  0
  9 27  2  0  0  0
 10 11  2  0  0  0
 10 15  1  0  0  0
 11 12  1  0  0  0
 11 97  1  0  0  0
 12 13  2  0  0  0
 12 98  1  0  0  0
 13 14  1  0  0  0
 13 31  1  0  0  0
 14 15  2  0  0  0
 14 99  1  0  0  0
 15100  1  0  0  0
 16 17  2  0  0  0
 16 21  1  0  0  0
 16 31  1  0  0  0
 17 18  1  0  0  0
 17101  1  0  0  0
 18 19  2  0  0  0
 18102  1  0  0  0
 19 20  1  0  0  0
 19 24  1  0  0  0
 20 21  2  0  0  0
 20103  1  0  0  0
 21 23  1  0  0  0
 22 28  1  0  0  0
 22 32  2  0  0  0
 26 27  1  0  0  0
 28104  1  0  0  0
 28105  1  0  0  0
 29106  1  0  0  0
 29107  1  0  0  0
 33 34  1  0  0  0
 33 66  1  0  0  0
 33 70  2  0  0  0
 34 36  1  0  0  0
 34 59  1  0  0  0
 34108  1  0  0  0
 35 44  2  0  0  0
 35 45  1  0  0  0
 35 68  1  0  0  0
 36 56  1  0  0  0
 36109  1  0  0  0
 37 39  1  0  0  0
 37 47  1  0  0  0
 37 66  1  0  0  0
 37110  1  0  0  0
 38 43  2  0  0  0
 38 46  1  0  0  0
 38 47  1  0  0  0
 39 64  1  0  0  0
 39 67  2  0  0  0
 40 52  1  0  0  0
 40 53  2  0  0  0
 40 58  1  0  0  0
 41111  1  0  0  0
 41112  1  0  0  0
 41113  1  0  0  0
 41 48  1  0  0  0
 42 43  1  0  0  0
 42 66  1  0  0  0
 42114  1  0  0  0
 42115  1  0  0  0
 43 44  1  0  0  0
 44116  1  0  0  0
 45 46  2  0  0  0
 45117  1  0  0  0
 46118  1  0  0  0
 47119  1  0  0  0
 47120  1  0  0  0
 48 56  1  0  0  0
 48 65  1  0  0  0
 48121  1  0  0  0
 49 50  1  0  0  0
 49 53  1  0  0  0
 49 64  1  0  0  0
 49122  1  0  0  0
 50 51  1  0  0  0
 50123  1  0  0  0
 50124  1  0  0  0
 51 52  1  0  0  0
 51125  1  0  0  0
 51126  1  0  0  0
 52127  1  0  0  0
 52128  1  0  0  0
 53 54  1  0  0  0
 54 55  2  0  0  0
 54129  1  0  0  0
 55 57  1  0  0  0
 55130  1  0  0  0
 56 69  2  0  0  0
 57 58  2  0  0  0
 57131  1  0  0  0
 58132  1  0  0  0
 59 60  1  0  0  0
 59 61  1  0  0  0
 59 62  1  0  0  0
 60133  1  0  0  0
 60134  1  0  0  0
 60135  1  0  0  0
 61136  1  0  0  0
 61137  1  0  0  0
 61138  1  0  0  0
 62139  1  0  0  0
 62140  1  0  0  0
 62141  1  0  0  0
 63 65  1  0  0  0
 63142  1  0  0  0
 63143  1  0  0  0
 63144  1  0  0  0
 64145  1  0  0  0
 65146  1  0  0  0
 68 81  1  0  0  0
 71 73  2  0  0  0
 71 75  1  0  0  0
 71147  1  0  0  0
 72 73  1  0  0  0
 72 76  2  0  0  0
 72148  1  0  0  0
 73 82  1  0  0  0
 74 75  2  0  0  0
 74 76  1  0  0  0
 74 84  1  0  0  0
 75 86  1  0  0  0
 76 87  1  0  0  0
 77 81  1  0  0  0
 77 83  1  0  0  0
 77 85  2  0  0  0
 78 79  1  0  0  0
 78 80  1  0  0  0
 78149  1  0  0  0
 78150  1  0  0  0
 79 81  1  0  0  0
 79151  1  0  0  0
 79152  1  0  0  0
 80 83  1  0  0  0
 80153  1  0  0  0
 80154  1  0  0  0
 81155  1  0  0  0
 82 83  1  0  0  0
 82156  1  0  0  0
 82157  1  0  0  0
 84158  1  0  0  0
M  ISO  4   1 100  68 101  81 101  84 100
M  END
> <chiral flag>
0

> <version>
0

> <s_m_source_file>
/data/baiqing/PycharmProjects/Reinvent-master-3.2/result/LINK_invent/BTK/process_docking_weight1_custom_product_contain_oxygen_bond_distance_aromatic_linkinvent_7_9_3/rearranged_h_0034.sdf

> <i_m_source_file_index>
22

> <r_mmod_Potential_Energy-OPLS-2005>
92.5524673461914

> <r_mmod_Stretch_Energy-OPLS-2005>
84.6584930419922

> <r_mmod_Bend_Energy-OPLS-2005>
136.746719360352

> <r_mmod_Torsional_Energy-OPLS-2005>
296.141418457031

> <r_mmod_Improper_Torsional_Energy-OPLS-2005>
6.20829629898071

> <r_mmod_Van_der_Waal_Energy-OPLS-2005>
143.216491699219

> <r_mmod_Electrostatic_Energy-OPLS-2005>
-387.559936523438

> <r_mmod_Solvation_Energy-OPLS-2005>
-236.506851196289

> <b_mmod_Minimization_Converged-OPLS-2005>
0

> <r_mmod_RMS_Derivative-OPLS-2005>
3.14876675605774

$$$$
22
                    3D
 Structure written by MMmdl.
174183  0  0  1  0            999 V2000
  -30.7486  -14.4695   20.6395 C   0  0  0  0  0  0
  -30.4203  -12.3345   19.4284 C   0  0  0  0  0  0
  -29.4945  -12.5315   18.2114 C   0  0  0  0  0  0
  -28.0167  -12.3839   18.6202 C   0  0  0  0  0  0
  -27.6623  -13.2200   19.8799 C   0  0  2  0  0  0
  -28.7043  -13.0163   21.0043 C   0  0  0  0  0  0
  -25.2574  -13.8182   20.5718 C   0  0  0  0  0  0
  -24.1839  -13.0449   20.9177 C   0  0  0  0  0  0
  -24.6416  -11.6918   20.8736 C   0  0  0  0  0  0
  -23.9084  -10.4300   21.0408 C   0  0  0  0  0  0
  -24.3633   -9.4209   21.9189 C   0  0  0  0  0  0
  -23.6303   -8.2246   22.0753 C   0  0  0  0  0  0
  -22.4291   -8.0284   21.3541 C   0  0  0  0  0  0
  -21.9925   -9.0253   20.4642 C   0  0  0  0  0  0
  -22.7255  -10.2139   20.3049 C   0  0  0  0  0  0
  -21.6844   -6.0745   22.5287 C   0  0  0  0  0  0
  -21.4014   -6.5646   23.8218 C   0  0  0  0  0  0
  -21.3656   -5.6797   24.9182 C   0  0  0  0  0  0
  -21.6048   -4.3057   24.7228 C   0  0  0  0  0  0
  -21.8819   -3.8150   23.4349 C   0  0  0  0  0  0
  -21.9193   -4.6974   22.3406 C   0  0  0  0  0  0
  -22.7859  -13.5230   21.1855 C   0  0  0  0  0  0
  -22.1662   -4.2161   21.0980 F   0  0  0  0  0  0
  -21.5626   -3.4544   25.7739 F   0  0  0  0  0  0
  -30.0379  -13.3178   20.4590 N   0  0  0  0  0  0
  -26.3035  -12.9397   20.3393 N   0  0  0  0  0  0
  -25.9342  -11.6545   20.5769 N   0  0  0  0  0  0
  -22.0490  -12.8201   22.0386 N   0  0  0  0  0  0
  -25.4260  -15.1912   20.4159 N   0  0  0  0  0  0
  -31.8257  -14.6693   20.0751 O   0  0  0  0  0  0
  -21.6647   -6.8903   21.4253 O   0  0  0  0  0  0
  -22.3531  -14.5539   20.6714 O   0  0  0  0  0  0
  -24.6170  -31.8642   23.2050 C   0  0  0  0  0  0
  -25.9068  -32.4768   23.8341 C   0  0  1  0  0  0
  -27.2358  -27.3991   20.0994 C   0  0  0  0  0  0
  -25.5941  -33.8563   24.2292 N   0  0  0  0  0  0
  -23.4067  -30.4817   21.5496 C   0  0  2  0  0  0
  -24.8517  -28.9366   20.1189 C   0  0  0  0  0  0
  -22.7423  -29.4582   22.5009 C   0  0  0  0  0  0
  -18.0267  -28.1354   22.8445 C   0  0  0  0  0  0
  -24.1509  -36.7272   23.2644 C   0  0  0  0  0  0
  -25.9403  -30.8109   21.3719 C   0  0  0  0  0  0
  -26.0132  -29.4470   20.7096 C   0  0  0  0  0  0
  -27.2080  -28.6874   20.6892 C   0  0  0  0  0  0
  -26.0590  -26.9127   19.4940 C   0  0  0  0  0  0
  -24.8680  -27.6688   19.5091 C   0  0  0  0  0  0
  -23.6138  -29.8065   20.1660 C   0  0  0  0  0  0
  -25.4130  -36.3066   24.0346 C   0  0  1  0  0  0
  -20.5854  -28.3617   23.1337 C   0  0  2  0  0  0
  -20.6750  -26.9347   22.5433 C   0  0  0  0  0  0
  -19.5734  -26.6344   21.5210 C   0  0  0  0  0  0
  -18.1906  -26.7900   22.1598 C   0  0  0  0  0  0
  -19.1514  -28.8817   23.2871 C   0  0  0  0  0  0
  -18.9451  -30.1447   23.8843 C   0  0  0  0  0  0
  -17.6445  -30.6555   24.0554 C   0  0  0  0  0  0
  -25.9045  -34.9437   23.5114 C   0  0  0  0  0  0
  -16.5338  -29.9034   23.6349 C   0  0  0  0  0  0
  -16.7266  -28.6468   23.0339 C   0  0  0  0  0  0
  -26.4472  -31.6596   25.0737 C   0  0  0  0  0  0
  -25.3708  -31.3766   26.1475 C   0  0  0  0  0  0
  -27.0315  -30.3005   24.6213 C   0  0  0  0  0  0
  -27.6031  -32.4340   25.7523 C   0  0  0  0  0  0
  -27.5589  -37.1805   24.8455 C   0  0  0  0  0  0
  -21.4146  -29.2965   22.3760 N   0  0  0  0  0  0
  -26.4303  -37.3762   23.9408 N   0  0  0  0  0  0
  -24.6723  -31.0682   22.0998 N   0  0  0  0  0  0
  -23.4177  -28.8135   23.3084 O   0  0  0  0  0  0
  -28.4025  -26.6536   20.0979 O   0  0  0  0  0  0
  -26.5601  -34.8907   22.4662 O   0  0  0  0  0  0
  -23.5358  -32.1441   23.7437 O   0  0  0  0  0  0
  -28.9407  -19.9301   22.2735 C   0  0  0  0  0  0
  -30.5303  -20.1566   20.4676 C   0  0  0  0  0  0
  -29.5567  -20.7513   21.2994 C   0  0  0  0  0  0
  -29.3292  -18.5770   22.4596 C   0  0  0  0  0  0
  -30.9233  -18.8035   20.6339 C   0  0  0  0  0  0
  -30.3496  -17.9942   21.6574 C   0  0  0  0  0  0
  -26.9578  -22.6639   20.3343 C   0  0  0  0  0  0
  -25.9699  -20.0943   17.8621 C   0  0  0  0  0  0
  -26.2286  -21.7764   19.6288 C   0  0  0  0  0  0
  -26.7566  -20.7861   18.7038 C   0  0  0  0  0  0
  -26.3556  -23.8011   21.1741 C   0  0  0  0  0  0
  -27.3314  -24.9022   21.6720 C   0  0  0  0  0  0
  -28.7557  -24.1780   19.6486 C   0  0  0  0  0  0
  -28.4438  -25.3090   20.6679 C   0  0  2  0  0  0
  -28.6831  -17.7847   23.5868 C   0  0  0  0  0  0
  -32.0232  -18.2659   19.7354 C   0  0  0  0  0  0
  -30.9251  -16.5877   21.9831 C   0  0  0  0  0  0
  -29.2994  -22.2782   21.2495 C   0  0  0  0  0  0
  -30.2164  -15.3984   21.4627 N   0  0  0  0  0  0
  -28.4313  -22.7977   20.1411 N   0  3  1  0  0  0
  -31.4637  -12.4284   19.1236 H   0  0  0  0  0  0
  -30.3199  -11.3225   19.8250 H   0  0  0  0  0  0
  -29.7391  -11.8168   17.4241 H   0  0  0  0  0  0
  -29.6587  -13.5217   17.7851 H   0  0  0  0  0  0
  -27.8242  -11.3266   18.8068 H   0  0  0  0  0  0
  -27.3689  -12.6694   17.7897 H   0  0  0  0  0  0
  -27.7005  -14.2690   19.5817 H   0  0  0  0  0  0
  -28.6827  -11.9853   21.3592 H   0  0  0  0  0  0
  -28.4529  -13.6289   21.8689 H   0  0  0  0  0  0
  -25.2788   -9.5685   22.4761 H   0  0  0  0  0  0
  -24.0011   -7.4642   22.7469 H   0  0  0  0  0  0
  -21.0861   -8.8783   19.8942 H   0  0  0  0  0  0
  -22.3722  -10.9688   19.6144 H   0  0  0  0  0  0
  -21.2005   -7.6154   23.9730 H   0  0  0  0  0  0
  -21.1473   -6.0526   25.9090 H   0  0  0  0  0  0
  -22.0598   -2.7617   23.2846 H   0  0  0  0  0  0
  -22.4104  -11.9846   22.4755 H   0  0  0  0  0  0
  -21.1108  -13.1221   22.2594 H   0  0  0  0  0  0
  -24.6613  -15.8465   20.5343 H   0  0  0  0  0  0
  -26.2855  -15.6385   20.1219 H   0  0  0  0  0  0
  -26.7136  -32.5440   23.1100 H   0  0  0  0  0  0
  -25.0257  -33.9713   25.0547 H   0  0  0  0  0  0
  -22.6974  -31.2999   21.4073 H   0  0  0  0  0  0
  -23.3767  -35.9593   23.3326 H   0  0  0  0  0  0
  -24.3585  -36.8852   22.2035 H   0  0  0  0  0  0
  -23.7246  -37.6498   23.6631 H   0  0  0  0  0  0
  -26.0881  -31.5818   20.6142 H   0  0  0  0  0  0
  -26.8119  -30.8354   22.0135 H   0  0  0  0  0  0
  -28.1052  -29.0776   21.1450 H   0  0  0  0  0  0
  -26.0620  -25.9496   19.0045 H   0  0  0  0  0  0
  -23.9730  -27.2694   19.0524 H   0  0  0  0  0  0
  -23.7171  -30.5810   19.4016 H   0  0  0  0  0  0
  -22.7360  -29.2251   19.8751 H   0  0  0  0  0  0
  -25.1295  -36.1957   25.0835 H   0  0  0  0  0  0
  -20.9935  -28.3164   24.1469 H   0  0  0  0  0  0
  -20.5668  -26.2202   23.3623 H   0  0  0  0  0  0
  -21.6628  -26.7362   22.1242 H   0  0  0  0  0  0
  -19.6901  -25.6241   21.1257 H   0  0  0  0  0  0
  -19.6736  -27.3167   20.6749 H   0  0  0  0  0  0
  -17.4220  -26.6693   21.3961 H   0  0  0  0  0  0
  -18.0244  -26.0023   22.8967 H   0  0  0  0  0  0
  -19.7950  -30.7280   24.2172 H   0  0  0  0  0  0
  -17.5009  -31.6232   24.5156 H   0  0  0  0  0  0
  -15.5341  -30.2929   23.7701 H   0  0  0  0  0  0
  -15.8664  -28.0800   22.7056 H   0  0  0  0  0  0
  -24.5917  -30.7046   25.7847 H   0  0  0  0  0  0
  -24.8865  -32.2958   26.4790 H   0  0  0  0  0  0
  -25.8054  -30.9075   27.0303 H   0  0  0  0  0  0
  -26.2904  -29.6796   24.1169 H   0  0  0  0  0  0
  -27.3915  -29.7222   25.4717 H   0  0  0  0  0  0
  -27.8808  -30.4267   23.9495 H   0  0  0  0  0  0
  -27.2619  -33.3636   26.2081 H   0  0  0  0  0  0
  -28.3884  -32.6895   25.0403 H   0  0  0  0  0  0
  -28.0653  -31.8478   26.5490 H   0  0  0  0  0  0
  -28.2621  -38.0102   24.7494 H   0  0  0  0  0  0
  -28.1092  -36.2617   24.6305 H   0  0  0  0  0  0
  -27.2296  -37.1474   25.8865 H   0  0  0  0  0  0
  -20.9351  -29.8707   21.6975 H   0  0  0  0  0  0
  -26.0201  -38.2857   24.1377 H   0  0  0  0  0  0
  -28.2016  -20.3579   22.9372 H   0  0  0  0  0  0
  -31.0363  -20.7686   19.7303 H   0  0  0  0  0  0
  -26.3815  -19.3555   17.1898 H   0  0  0  0  0  0
  -24.8990  -20.2520   17.8222 H   0  0  0  0  0  0
  -25.1553  -21.8095   19.7578 H   0  0  0  0  0  0
  -27.8141  -20.5729   18.6810 H   0  0  0  0  0  0
  -25.8432  -23.3621   22.0311 H   0  0  0  0  0  0
  -25.5755  -24.2612   20.5680 H   0  0  0  0  0  0
  -27.8288  -24.5240   22.5653 H   0  0  0  0  0  0
  -26.7785  -25.7655   22.0407 H   0  0  0  0  0  0
  -29.7951  -24.2202   19.3275 H   0  0  0  0  0  0
  -28.1566  -24.3429   18.7471 H   0  0  0  0  0  0
  -29.3381  -25.3713   21.2867 H   0  0  0  0  0  0
  -27.8807  -18.3413   24.0705 H   0  0  0  0  0  0
  -29.4139  -17.5367   24.3592 H   0  0  0  0  0  0
  -28.2552  -16.8560   23.2073 H   0  0  0  0  0  0
  -32.2104  -18.9344   18.8954 H   0  0  0  0  0  0
  -31.7565  -17.2940   19.3236 H   0  0  0  0  0  0
  -32.9570  -18.1628   20.2874 H   0  0  0  0  0  0
  -30.9714  -16.4728   23.0669 H   0  0  0  0  0  0
  -31.9792  -16.5542   21.7046 H   0  0  0  0  0  0
  -30.2772  -22.7552   21.1739 H   0  0  0  0  0  0
  -28.9107  -22.5959   22.2165 H   0  0  0  0  0  0
  -29.3345  -15.1653   21.8926 H   0  0  0  0  0  0
  -28.6774  -22.2069   19.3626 H   0  0  0  0  0  0
  1 25  1  0  0  0
  1 30  2  0  0  0
  1 89  1  0  0  0
  2  3  1  0  0  0
  2 25  1  0  0  0
  2 91  1  0  0  0
  2 92  1  0  0  0
  3  4  1  0  0  0
  3 93  1  0  0  0
  3 94  1  0  0  0
  4  5  1  0  0  0
  4 95  1  0  0  0
  4 96  1  0  0  0
  5  6  1  0  0  0
  5 26  1  0  0  0
  5 97  1  0  0  0
  6 25  1  0  0  0
  6 98  1  0  0  0
  6 99  1  0  0  0
  7  8  2  0  0  0
  7 26  1  0  0  0
  7 29  1  0  0  0
  8  9  1  0  0  0
  8 22  1  0  0  0
  9 10  1  0  0  0
  9 27  2  0  0  0
 10 11  2  0  0  0
 10 15  1  0  0  0
 11 12  1  0  0  0
 11100  1  0  0  0
 12 13  2  0  0  0
 12101  1  0  0  0
 13 14  1  0  0  0
 13 31  1  0  0  0
 14 15  2  0  0  0
 14102  1  0  0  0
 15103  1  0  0  0
 16 17  2  0  0  0
 16 21  1  0  0  0
 16 31  1  0  0  0
 17 18  1  0  0  0
 17104  1  0  0  0
 18 19  2  0  0  0
 18105  1  0  0  0
 19 20  1  0  0  0
 19 24  1  0  0  0
 20 21  2  0  0  0
 20106  1  0  0  0
 21 23  1  0  0  0
 22 28  1  0  0  0
 22 32  2  0  0  0
 26 27  1  0  0  0
 28107  1  0  0  0
 28108  1  0  0  0
 29109  1  0  0  0
 29110  1  0  0  0
 33 34  1  0  0  0
 33 66  1  0  0  0
 33 70  2  0  0  0
 34 36  1  0  0  0
 34 59  1  0  0  0
 34111  1  0  0  0
 35 44  2  0  0  0
 35 45  1  0  0  0
 35 68  1  0  0  0
 36 56  1  0  0  0
 36112  1  0  0  0
 37 39  1  0  0  0
 37 47  1  0  0  0
 37 66  1  0  0  0
 37113  1  0  0  0
 38 43  2  0  0  0
 38 46  1  0  0  0
 38 47  1  0  0  0
 39 64  1  0  0  0
 39 67  2  0  0  0
 40 52  1  0  0  0
 40 53  2  0  0  0
 40 58  1  0  0  0
 41114  1  0  0  0
 41115  1  0  0  0
 41116  1  0  0  0
 41 48  1  0  0  0
 42 43  1  0  0  0
 42 66  1  0  0  0
 42117  1  0  0  0
 42118  1  0  0  0
 43 44  1  0  0  0
 44119  1  0  0  0
 45 46  2  0  0  0
 45120  1  0  0  0
 46121  1  0  0  0
 47122  1  0  0  0
 47123  1  0  0  0
 48 56  1  0  0  0
 48 65  1  0  0  0
 48124  1  0  0  0
 49 50  1  0  0  0
 49 53  1  0  0  0
 49 64  1  0  0  0
 49125  1  0  0  0
 50 51  1  0  0  0
 50126  1  0  0  0
 50127  1  0  0  0
 51 52  1  0  0  0
 51128  1  0  0  0
 51129  1  0  0  0
 52130  1  0  0  0
 52131  1  0  0  0
 53 54  1  0  0  0
 54 55  2  0  0  0
 54132  1  0  0  0
 55 57  1  0  0  0
 55133  1  0  0  0
 56 69  2  0  0  0
 57 58  2  0  0  0
 57134  1  0  0  0
 58135  1  0  0  0
 59 60  1  0  0  0
 59 61  1  0  0  0
 59 62  1  0  0  0
 60136  1  0  0  0
 60137  1  0  0  0
 60138  1  0  0  0
 61139  1  0  0  0
 61140  1  0  0  0
 61141  1  0  0  0
 62142  1  0  0  0
 62143  1  0  0  0
 62144  1  0  0  0
 63 65  1  0  0  0
 63145  1  0  0  0
 63146  1  0  0  0
 63147  1  0  0  0
 64148  1  0  0  0
 65149  1  0  0  0
 68 84  1  0  0  0
 71 73  2  0  0  0
 71 74  1  0  0  0
 71150  1  0  0  0
 72 73  1  0  0  0
 72 75  2  0  0  0
 72151  1  0  0  0
 73 88  1  0  0  0
 74 76  2  0  0  0
 74 85  1  0  0  0
 75 76  1  0  0  0
 75 86  1  0  0  0
 76 87  1  0  0  0
 77 79  2  0  0  0
 77 81  1  0  0  0
 77 90  1  0  0  0
 78 80  2  0  0  0
 78152  1  0  0  0
 78153  1  0  0  0
 79 80  1  0  0  0
 79154  1  0  0  0
 80155  1  0  0  0
 81 82  1  0  0  0
 81156  1  0  0  0
 81157  1  0  0  0
 82 84  1  0  0  0
 82158  1  0  0  0
 82159  1  0  0  0
 83 84  1  0  0  0
 83 90  1  0  0  0
 83160  1  0  0  0
 83161  1  0  0  0
 84162  1  0  0  0
 85163  1  0  0  0
 85164  1  0  0  0
 85165  1  0  0  0
 86166  1  0  0  0
 86167  1  0  0  0
 86168  1  0  0  0
 87 89  1  0  0  0
 87169  1  0  0  0
 87170  1  0  0  0
 88171  1  0  0  0
 88172  1  0  0  0
 88 90  1  0  0  0
 89173  1  0  0  0
 90174  1  0  0  0
M  CHG  1  90   1
M  ISO  4   1 100  68 101  84 101  89 100
M  END
> <chiral flag>
0

> <version>
0

> <s_m_source_file>
/data/baiqing/PycharmProjects/Reinvent-master-3.2/result/LINK_invent/BTK/process_docking_weight1_custom_product_contain_oxygen_bond_distance_aromatic_linkinvent_7_9_3/rearranged_h_0034.sdf

> <i_m_source_file_index>
23

> <r_mmod_Potential_Energy-OPLS-2005>
-127.055862426758

> <r_mmod_Stretch_Energy-OPLS-2005>
53.0395164489746

> <r_mmod_Bend_Energy-OPLS-2005>
139.446670532227

> <r_mmod_Torsional_Energy-OPLS-2005>
251.902404785156

> <r_mmod_Improper_Torsional_Energy-OPLS-2005>
3.54788637161255

> <r_mmod_Van_der_Waal_Energy-OPLS-2005>
145.317352294922

> <r_mmod_Electrostatic_Energy-OPLS-2005>
-331.981262207031

> <r_mmod_Solvation_Energy-OPLS-2005>
-403.102905273438

> <b_mmod_Minimization_Converged-OPLS-2005>
0

> <r_mmod_RMS_Derivative-OPLS-2005>
4.57964754104614

$$$$
23
                    3D
 Structure written by MMmdl.
169178  0  0  1  0            999 V2000
  -30.5764  -14.6621   20.5002 C   0  0  0  0  0  0
  -30.4531  -12.4034   19.4560 C   0  0  0  0  0  0
  -29.5193  -12.5079   18.2285 C   0  0  0  0  0  0
  -28.0382  -12.3504   18.6335 C   0  0  0  0  0  0
  -27.6571  -13.2134   19.8661 C   0  0  2  0  0  0
  -28.6964  -13.0573   20.9990 C   0  0  0  0  0  0
  -25.2563  -13.8152   20.5658 C   0  0  0  0  0  0
  -24.1817  -13.0450   20.9179 C   0  0  0  0  0  0
  -24.6381  -11.6917   20.8733 C   0  0  0  0  0  0
  -23.9048  -10.4302   21.0412 C   0  0  0  0  0  0
  -24.3601   -9.4216   21.9176 C   0  0  0  0  0  0
  -23.6285   -8.2245   22.0737 C   0  0  0  0  0  0
  -22.4251   -8.0284   21.3540 C   0  0  0  0  0  0
  -21.9896   -9.0265   20.4647 C   0  0  0  0  0  0
  -22.7227  -10.2140   20.3055 C   0  0  0  0  0  0
  -21.6858   -6.0733   22.5269 C   0  0  0  0  0  0
  -21.4033   -6.5640   23.8200 C   0  0  0  0  0  0
  -21.3658   -5.6782   24.9171 C   0  0  0  0  0  0
  -21.6027   -4.3044   24.7215 C   0  0  0  0  0  0
  -21.8821   -3.8147   23.4344 C   0  0  0  0  0  0
  -21.9200   -4.6972   22.3399 C   0  0  0  0  0  0
  -22.7845  -13.5263   21.1855 C   0  0  0  0  0  0
  -22.1668   -4.2161   21.0983 F   0  0  0  0  0  0
  -21.5630   -3.4517   25.7729 F   0  0  0  0  0  0
  -30.0126  -13.4146   20.4384 N   0  0  0  0  0  0
  -26.2986  -12.9327   20.3275 N   0  0  0  0  0  0
  -25.9298  -11.6499   20.5731 N   0  0  0  0  0  0
  -22.0482  -12.8256   22.0414 N   0  0  0  0  0  0
  -25.4322  -15.1871   20.4073 N   0  0  0  0  0  0
  -31.7371  -14.8643   20.1217 O   0  0  0  0  0  0
  -21.6633   -6.8869   21.4221 O   0  0  0  0  0  0
  -22.3535  -14.5587   20.6746 O   0  0  0  0  0  0
  -24.6269  -31.8581   23.2015 C   0  0  0  0  0  0
  -25.9113  -32.4769   23.8344 C   0  0  1  0  0  0
  -27.2209  -27.3055   20.1288 C   0  0  0  0  0  0
  -25.5930  -33.8572   24.2271 N   0  0  0  0  0  0
  -23.4213  -30.4797   21.5440 C   0  0  2  0  0  0
  -24.8674  -28.9228   20.1190 C   0  0  0  0  0  0
  -22.7474  -29.4612   22.4938 C   0  0  0  0  0  0
  -18.0281  -28.1376   22.8487 C   0  0  0  0  0  0
  -24.1488  -36.7286   23.2640 C   0  0  0  0  0  0
  -25.9649  -30.7818   21.3786 C   0  0  0  0  0  0
  -26.0364  -29.4081   20.7201 C   0  0  0  0  0  0
  -27.2202  -28.6121   20.7084 C   0  0  0  0  0  0
  -26.0342  -26.8649   19.5130 C   0  0  0  0  0  0
  -24.8685  -27.6574   19.5055 C   0  0  0  0  0  0
  -23.6374  -29.8079   20.1619 C   0  0  0  0  0  0
  -25.4118  -36.3078   24.0327 C   0  0  1  0  0  0
  -20.5884  -28.3685   23.1287 C   0  0  2  0  0  0
  -20.6769  -26.9403   22.5419 C   0  0  0  0  0  0
  -19.5741  -26.6379   21.5218 C   0  0  0  0  0  0
  -18.1922  -26.7925   22.1622 C   0  0  0  0  0  0
  -19.1535  -28.8846   23.2881 C   0  0  0  0  0  0
  -18.9461  -30.1451   23.8895 C   0  0  0  0  0  0
  -17.6460  -30.6586   24.0564 C   0  0  0  0  0  0
  -25.9053  -34.9447   23.5100 C   0  0  0  0  0  0
  -16.5349  -29.9085   23.6332 C   0  0  0  0  0  0
  -16.7270  -28.6498   23.0361 C   0  0  0  0  0  0
  -26.4492  -31.6602   25.0739 C   0  0  0  0  0  0
  -25.3725  -31.3810   26.1484 C   0  0  0  0  0  0
  -27.0332  -30.2998   24.6277 C   0  0  0  0  0  0
  -27.6060  -32.4352   25.7489 C   0  0  0  0  0  0
  -27.5586  -37.1793   24.8461 C   0  0  0  0  0  0
  -21.4187  -29.3040   22.3685 N   0  0  0  0  0  0
  -26.4298  -37.3773   23.9405 N   0  0  0  0  0  0
  -24.6892  -31.0582   22.0970 N   0  0  0  0  0  0
  -23.4193  -28.8152   23.3019 O   0  0  0  0  0  0
  -28.3491  -26.4790   20.1030 O   0  0  0  0  0  0
  -26.5618  -34.8919   22.4665 O   0  0  0  0  0  0
  -23.5430  -32.1385   23.7336 O   0  0  0  0  0  0
  -29.8137  -19.4350   21.5155 C   0  0  0  0  0  0
  -28.7998  -17.6374   19.6467 C   0  0  0  0  0  0
  -28.9044  -19.9621   20.5547 C   0  0  0  0  0  0
  -30.1614  -18.0494   21.5846 C   0  0  0  0  0  0
  -28.4190  -19.0184   19.5984 C   0  0  0  0  0  0
  -29.6547  -17.1061   20.6490 C   0  0  0  0  0  0
  -29.6391  -24.8905   21.3839 C   0  0  0  0  0  0
  -30.6649  -24.2668   20.4242 C   0  0  0  0  0  0
  -27.9970  -23.8582   19.7248 C   0  0  0  0  0  0
  -28.2902  -25.1079   20.6784 C   0  0  2  0  0  0
  -30.3089  -22.8162   20.0173 C   0  0  2  0  0  0
  -31.0080  -17.5590   22.7436 C   0  0  0  0  0  0
  -27.4018  -19.4480   18.5541 C   0  0  0  0  0  0
  -31.0445  -22.4099   18.7319 C   0  0  0  0  0  0
  -28.3225  -21.4344   20.7099 C   0  0  0  0  0  0
  -29.7182  -15.6617   20.8817 N   0  0  0  0  0  0
  -28.8458  -22.5799   19.8544 N   0  3  1  0  0  0
  -31.4925  -12.5521   19.1523 H   0  0  0  0  0  0
  -30.4128  -11.4055   19.8947 H   0  0  0  0  0  0
  -29.7848  -11.7543   17.4858 H   0  0  0  0  0  0
  -29.6632  -13.4762   17.7442 H   0  0  0  0  0  0
  -27.8562  -11.2954   18.8478 H   0  0  0  0  0  0
  -27.3953  -12.6018   17.7888 H   0  0  0  0  0  0
  -27.6811  -14.2505   19.5292 H   0  0  0  0  0  0
  -28.7078  -12.0352   21.3804 H   0  0  0  0  0  0
  -28.4294  -13.6818   21.8549 H   0  0  0  0  0  0
  -25.2748   -9.5710   22.4765 H   0  0  0  0  0  0
  -24.0012   -7.4629   22.7437 H   0  0  0  0  0  0
  -21.0842   -8.8787   19.8946 H   0  0  0  0  0  0
  -22.3687  -10.9680   19.6175 H   0  0  0  0  0  0
  -21.2023   -7.6139   23.9717 H   0  0  0  0  0  0
  -21.1481   -6.0503   25.9060 H   0  0  0  0  0  0
  -22.0607   -2.7611   23.2835 H   0  0  0  0  0  0
  -22.4098  -11.9940   22.4844 H   0  0  0  0  0  0
  -21.1101  -13.1299   22.2618 H   0  0  0  0  0  0
  -24.6734  -15.8487   20.5275 H   0  0  0  0  0  0
  -26.2866  -15.6200   20.0813 H   0  0  0  0  0  0
  -26.7188  -32.5416   23.1090 H   0  0  0  0  0  0
  -25.0103  -33.9714   25.0437 H   0  0  0  0  0  0
  -22.7160  -31.3010   21.3985 H   0  0  0  0  0  0
  -23.3753  -35.9611   23.3303 H   0  0  0  0  0  0
  -24.3582  -36.8911   22.2054 H   0  0  0  0  0  0
  -23.7232  -37.6485   23.6668 H   0  0  0  0  0  0
  -26.1138  -31.5468   20.6156 H   0  0  0  0  0  0
  -26.8378  -30.8180   22.0195 H   0  0  0  0  0  0
  -28.1260  -28.9844   21.1661 H   0  0  0  0  0  0
  -26.0103  -25.8996   19.0276 H   0  0  0  0  0  0
  -23.9754  -27.2801   19.0276 H   0  0  0  0  0  0
  -23.7609  -30.5826   19.4042 H   0  0  0  0  0  0
  -22.7562  -29.2402   19.8576 H   0  0  0  0  0  0
  -25.1295  -36.1930   25.0820 H   0  0  0  0  0  0
  -20.9977  -28.3264   24.1405 H   0  0  0  0  0  0
  -20.5668  -26.2291   23.3624 H   0  0  0  0  0  0
  -21.6643  -26.7428   22.1217 H   0  0  0  0  0  0
  -19.6902  -25.6292   21.1252 H   0  0  0  0  0  0
  -19.6683  -27.3186   20.6752 H   0  0  0  0  0  0
  -17.4196  -26.6683   21.4023 H   0  0  0  0  0  0
  -18.0301  -26.0067   22.9013 H   0  0  0  0  0  0
  -19.7941  -30.7269   24.2266 H   0  0  0  0  0  0
  -17.5019  -31.6271   24.5159 H   0  0  0  0  0  0
  -15.5351  -30.2982   23.7675 H   0  0  0  0  0  0
  -15.8670  -28.0822   22.7085 H   0  0  0  0  0  0
  -24.5837  -30.7223   25.7839 H   0  0  0  0  0  0
  -24.8994  -32.3013   26.4920 H   0  0  0  0  0  0
  -25.8030  -30.8970   27.0256 H   0  0  0  0  0  0
  -26.2928  -29.6750   24.1274 H   0  0  0  0  0  0
  -27.3934  -29.7286   25.4844 H   0  0  0  0  0  0
  -27.8844  -30.4238   23.9581 H   0  0  0  0  0  0
  -27.2667  -33.3646   26.2081 H   0  0  0  0  0  0
  -28.3844  -32.6932   25.0295 H   0  0  0  0  0  0
  -28.0759  -31.8478   26.5390 H   0  0  0  0  0  0
  -28.2613  -38.0084   24.7501 H   0  0  0  0  0  0
  -28.1072  -36.2613   24.6283 H   0  0  0  0  0  0
  -27.2311  -37.1450   25.8869 H   0  0  0  0  0  0
  -20.9363  -29.8762   21.6901 H   0  0  0  0  0  0
  -26.0178  -38.2850   24.1406 H   0  0  0  0  0  0
  -30.1863  -20.0979   22.2843 H   0  0  0  0  0  0
  -28.3540  -16.9488   18.9416 H   0  0  0  0  0  0
  -30.0118  -25.8390   21.7733 H   0  0  0  0  0  0
  -29.5059  -24.2389   22.2493 H   0  0  0  0  0  0
  -31.6554  -24.2664   20.8834 H   0  0  0  0  0  0
  -30.7390  -24.9016   19.5415 H   0  0  0  0  0  0
  -28.1592  -24.2032   18.7035 H   0  0  0  0  0  0
  -26.9372  -23.6053   19.7669 H   0  0  0  0  0  0
  -27.5256  -25.1173   21.4583 H   0  0  0  0  0  0
  -30.6733  -22.1643   20.8112 H   0  0  0  0  0  0
  -31.3016  -18.3742   23.4039 H   0  0  0  0  0  0
  -31.9119  -17.0807   22.3703 H   0  0  0  0  0  0
  -30.4509  -16.8335   23.3373 H   0  0  0  0  0  0
  -27.1583  -18.6336   17.8708 H   0  0  0  0  0  0
  -27.7761  -20.2784   17.9534 H   0  0  0  0  0  0
  -26.4701  -19.7509   19.0342 H   0  0  0  0  0  0
  -30.6715  -22.9530   17.8620 H   0  0  0  0  0  0
  -30.9328  -21.3422   18.5389 H   0  0  0  0  0  0
  -32.1125  -22.6106   18.8094 H   0  0  0  0  0  0
  -28.4545  -21.7279   21.7515 H   0  0  0  0  0  0
  -27.2403  -21.3757   20.5829 H   0  0  0  0  0  0
  -28.8467  -15.2743   21.2103 H   0  0  0  0  0  0
  -28.7820  -22.1895   18.9251 H   0  0  0  0  0  0
  1 25  1  0  0  0
  1 30  2  0  0  0
  1 86  1  0  0  0
  2  3  1  0  0  0
  2 25  1  0  0  0
  2 88  1  0  0  0
  2 89  1  0  0  0
  3  4  1  0  0  0
  3 90  1  0  0  0
  3 91  1  0  0  0
  4  5  1  0  0  0
  4 92  1  0  0  0
  4 93  1  0  0  0
  5  6  1  0  0  0
  5 26  1  0  0  0
  5 94  1  0  0  0
  6 25  1  0  0  0
  6 95  1  0  0  0
  6 96  1  0  0  0
  7  8  2  0  0  0
  7 26  1  0  0  0
  7 29  1  0  0  0
  8  9  1  0  0  0
  8 22  1  0  0  0
  9 10  1  0  0  0
  9 27  2  0  0  0
 10 11  2  0  0  0
 10 15  1  0  0  0
 11 12  1  0  0  0
 11 97  1  0  0  0
 12 13  2  0  0  0
 12 98  1  0  0  0
 13 14  1  0  0  0
 13 31  1  0  0  0
 14 15  2  0  0  0
 14 99  1  0  0  0
 15100  1  0  0  0
 16 17  2  0  0  0
 16 21  1  0  0  0
 16 31  1  0  0  0
 17 18  1  0  0  0
 17101  1  0  0  0
 18 19  2  0  0  0
 18102  1  0  0  0
 19 20  1  0  0  0
 19 24  1  0  0  0
 20 21  2  0  0  0
 20103  1  0  0  0
 21 23  1  0  0  0
 22 28  1  0  0  0
 22 32  2  0  0  0
 26 27  1  0  0  0
 28104  1  0  0  0
 28105  1  0  0  0
 29106  1  0  0  0
 29107  1  0  0  0
 33 34  1  0  0  0
 33 66  1  0  0  0
 33 70  2  0  0  0
 34 36  1  0  0  0
 34 59  1  0  0  0
 34108  1  0  0  0
 35 44  2  0  0  0
 35 45  1  0  0  0
 35 68  1  0  0  0
 36 56  1  0  0  0
 36109  1  0  0  0
 37 39  1  0  0  0
 37 47  1  0  0  0
 37 66  1  0  0  0
 37110  1  0  0  0
 38 43  2  0  0  0
 38 46  1  0  0  0
 38 47  1  0  0  0
 39 64  1  0  0  0
 39 67  2  0  0  0
 40 52  1  0  0  0
 40 53  2  0  0  0
 40 58  1  0  0  0
 41111  1  0  0  0
 41112  1  0  0  0
 41113  1  0  0  0
 41 48  1  0  0  0
 42 43  1  0  0  0
 42 66  1  0  0  0
 42114  1  0  0  0
 42115  1  0  0  0
 43 44  1  0  0  0
 44116  1  0  0  0
 45 46  2  0  0  0
 45117  1  0  0  0
 46118  1  0  0  0
 47119  1  0  0  0
 47120  1  0  0  0
 48 56  1  0  0  0
 48 65  1  0  0  0
 48121  1  0  0  0
 49 50  1  0  0  0
 49 53  1  0  0  0
 49 64  1  0  0  0
 49122  1  0  0  0
 50 51  1  0  0  0
 50123  1  0  0  0
 50124  1  0  0  0
 51 52  1  0  0  0
 51125  1  0  0  0
 51126  1  0  0  0
 52127  1  0  0  0
 52128  1  0  0  0
 53 54  1  0  0  0
 54 55  2  0  0  0
 54129  1  0  0  0
 55 57  1  0  0  0
 55130  1  0  0  0
 56 69  2  0  0  0
 57 58  2  0  0  0
 57131  1  0  0  0
 58132  1  0  0  0
 59 60  1  0  0  0
 59 61  1  0  0  0
 59 62  1  0  0  0
 60133  1  0  0  0
 60134  1  0  0  0
 60135  1  0  0  0
 61136  1  0  0  0
 61137  1  0  0  0
 61138  1  0  0  0
 62139  1  0  0  0
 62140  1  0  0  0
 62141  1  0  0  0
 63 65  1  0  0  0
 63142  1  0  0  0
 63143  1  0  0  0
 63144  1  0  0  0
 64145  1  0  0  0
 65146  1  0  0  0
 68 80  1  0  0  0
 71 73  2  0  0  0
 71 74  1  0  0  0
 71147  1  0  0  0
 72 75  2  0  0  0
 72 76  1  0  0  0
 72148  1  0  0  0
 73 75  1  0  0  0
 73 85  1  0  0  0
 74 76  2  0  0  0
 74 82  1  0  0  0
 75 83  1  0  0  0
 76 86  1  0  0  0
 77 78  1  0  0  0
 77 80  1  0  0  0
 77149  1  0  0  0
 77150  1  0  0  0
 78 81  1  0  0  0
 78151  1  0  0  0
 78152  1  0  0  0
 79 80  1  0  0  0
 79 87  1  0  0  0
 79153  1  0  0  0
 79154  1  0  0  0
 80155  1  0  0  0
 81 84  1  0  0  0
 81 87  1  0  0  0
 81156  1  0  0  0
 82157  1  0  0  0
 82158  1  0  0  0
 82159  1  0  0  0
 83160  1  0  0  0
 83161  1  0  0  0
 83162  1  0  0  0
 84163  1  0  0  0
 84164  1  0  0  0
 84165  1  0  0  0
 85166  1  0  0  0
 85167  1  0  0  0
 85 87  1  0  0  0
 86168  1  0  0  0
 87169  1  0  0  0
M  CHG  1  87   1
M  ISO  4   1 100  68 101  80 101  86 100
M  END
> <chiral flag>
0

> <version>
0

> <s_m_source_file>
/data/baiqing/PycharmProjects/Reinvent-master-3.2/result/LINK_invent/BTK/process_docking_weight1_custom_product_contain_oxygen_bond_distance_aromatic_linkinvent_7_9_3/rearranged_h_0034.sdf

> <i_m_source_file_index>
24

> <r_mmod_Potential_Energy-OPLS-2005>
76.1732482910156

> <r_mmod_Stretch_Energy-OPLS-2005>
89.2008285522461

> <r_mmod_Bend_Energy-OPLS-2005>
159.076889038086

> <r_mmod_Torsional_Energy-OPLS-2005>
326.106292724609

> <r_mmod_Improper_Torsional_Energy-OPLS-2005>
7.85451173782349

> <r_mmod_Van_der_Waal_Energy-OPLS-2005>
132.885848999023

> <r_mmod_Electrostatic_Energy-OPLS-2005>
-277.404052734375

> <r_mmod_Solvation_Energy-OPLS-2005>
-415.481109619141

> <b_mmod_Minimization_Converged-OPLS-2005>
0

> <r_mmod_RMS_Derivative-OPLS-2005>
3.47221779823303

$$$$
24
                    3D
 Structure written by MMmdl.
163172  0  0  1  0            999 V2000
  -30.6283  -14.6443   20.4912 C   0  0  0  0  0  0
  -30.4173  -12.3895   19.4684 C   0  0  0  0  0  0
  -29.5115  -12.5137   18.2230 C   0  0  0  0  0  0
  -28.0230  -12.3853   18.6074 C   0  0  0  0  0  0
  -27.6465  -13.2296   19.8575 C   0  0  2  0  0  0
  -28.6813  -13.0882   20.9949 C   0  0  0  0  0  0
  -25.2514  -13.8201   20.5651 C   0  0  0  0  0  0
  -24.1792  -13.0457   20.9206 C   0  0  0  0  0  0
  -24.6377  -11.6942   20.8686 C   0  0  0  0  0  0
  -23.9049  -10.4318   21.0379 C   0  0  0  0  0  0
  -24.3619   -9.4246   21.9170 C   0  0  0  0  0  0
  -23.6318   -8.2262   22.0750 C   0  0  0  0  0  0
  -22.4301   -8.0284   21.3535 C   0  0  0  0  0  0
  -21.9911   -9.0246   20.4636 C   0  0  0  0  0  0
  -22.7214  -10.2140   20.3039 C   0  0  0  0  0  0
  -21.6868   -6.0737   22.5284 C   0  0  0  0  0  0
  -21.4030   -6.5641   23.8216 C   0  0  0  0  0  0
  -21.3687   -5.6795   24.9178 C   0  0  0  0  0  0
  -21.6052   -4.3057   24.7223 C   0  0  0  0  0  0
  -21.8825   -3.8146   23.4344 C   0  0  0  0  0  0
  -21.9206   -4.6963   22.3405 C   0  0  0  0  0  0
  -22.7823  -13.5267   21.1868 C   0  0  0  0  0  0
  -22.1649   -4.2143   21.0985 F   0  0  0  0  0  0
  -21.5642   -3.4555   25.7726 F   0  0  0  0  0  0
  -29.9921  -13.4309   20.4307 N   0  0  0  0  0  0
  -26.2931  -12.9401   20.3222 N   0  0  0  0  0  0
  -25.9311  -11.6547   20.5664 N   0  0  0  0  0  0
  -22.0449  -12.8257   22.0411 N   0  0  0  0  0  0
  -25.4174  -15.1928   20.4083 N   0  0  0  0  0  0
  -31.8049  -14.7377   20.1319 O   0  0  0  0  0  0
  -21.6656   -6.8887   21.4246 O   0  0  0  0  0  0
  -22.3524  -14.5561   20.6693 O   0  0  0  0  0  0
  -24.6247  -31.8577   23.1987 C   0  0  0  0  0  0
  -25.9090  -32.4771   23.8333 C   0  0  1  0  0  0
  -27.2401  -27.3125   20.1537 C   0  0  0  0  0  0
  -25.5885  -33.8574   24.2232 N   0  0  0  0  0  0
  -23.4215  -30.4728   21.5410 C   0  0  2  0  0  0
  -24.8748  -28.9151   20.1215 C   0  0  0  0  0  0
  -22.7478  -29.4615   22.4957 C   0  0  0  0  0  0
  -18.0280  -28.1407   22.8476 C   0  0  0  0  0  0
  -24.1478  -36.7311   23.2644 C   0  0  0  0  0  0
  -25.9607  -30.7865   21.3724 C   0  0  0  0  0  0
  -26.0386  -29.4075   20.7270 C   0  0  0  0  0  0
  -27.2243  -28.6162   20.7334 C   0  0  0  0  0  0
  -26.0558  -26.8550   19.5390 C   0  0  0  0  0  0
  -24.8845  -27.6426   19.5207 C   0  0  0  0  0  0
  -23.6375  -29.7910   20.1639 C   0  0  0  0  0  0
  -25.4108  -36.3094   24.0337 C   0  0  1  0  0  0
  -20.5865  -28.3708   23.1302 C   0  0  2  0  0  0
  -20.6766  -26.9426   22.5443 C   0  0  0  0  0  0
  -19.5743  -26.6391   21.5245 C   0  0  0  0  0  0
  -18.1924  -26.7953   22.1637 C   0  0  0  0  0  0
  -19.1524  -28.8876   23.2861 C   0  0  0  0  0  0
  -18.9446  -30.1483   23.8870 C   0  0  0  0  0  0
  -17.6450  -30.6610   24.0560 C   0  0  0  0  0  0
  -25.9052  -34.9464   23.5104 C   0  0  0  0  0  0
  -16.5337  -29.9096   23.6343 C   0  0  0  0  0  0
  -16.7259  -28.6518   23.0347 C   0  0  0  0  0  0
  -26.4455  -31.6593   25.0723 C   0  0  0  0  0  0
  -25.3669  -31.3747   26.1439 C   0  0  0  0  0  0
  -27.0317  -30.3005   24.6225 C   0  0  0  0  0  0
  -27.6020  -32.4332   25.7490 C   0  0  0  0  0  0
  -27.5585  -37.1805   24.8455 C   0  0  0  0  0  0
  -21.4194  -29.3047   22.3704 N   0  0  0  0  0  0
  -26.4291  -37.3801   23.9408 N   0  0  0  0  0  0
  -24.6869  -31.0569   22.0937 N   0  0  0  0  0  0
  -23.4172  -28.8190   23.3073 O   0  0  0  0  0  0
  -28.3920  -26.5204   20.0899 O   0  0  0  0  0  0
  -26.5674  -34.8932   22.4696 O   0  0  0  0  0  0
  -23.5413  -32.1383   23.7303 O   0  0  0  0  0  0
  -28.6487  -19.1823   19.8203 C   0  0  0  0  0  0
  -30.2606  -20.8191   21.3604 C   0  0  0  0  0  0
  -28.4168  -20.6020   19.8470 C   0  0  0  0  0  0
  -29.7319  -18.5515   20.5001 C   0  0  0  0  0  0
  -29.2995  -21.4876   20.5490 C   0  0  0  0  0  0
  -30.4896  -19.4119   21.3376 C   0  0  0  0  0  0
  -30.4543  -23.7462   20.6558 C   0  0  0  0  0  0
  -31.7420  -23.5122   20.3050 C   0  0  0  0  0  0
  -30.0167  -25.0933   21.2140 C   0  0  0  0  0  0
  -28.1496  -23.8433   20.3277 C   0  0  0  0  0  0
  -28.5235  -25.2822   20.8893 C   0  0  1  0  0  0
  -27.2466  -21.1467   19.0420 C   0  0  0  0  0  0
  -32.3058  -22.3127   19.5602 C   0  0  0  0  0  0
  -30.2670  -17.1178   20.0902 C   0  0  0  0  0  0
  -29.3327  -22.9402   20.4464 N   0  0  0  0  0  0
  -29.8791  -15.7834   20.6913 N   0  0  0  0  0  0
  -31.7974  -18.7888   22.2783 Cl  0  0  0  0  0  0
  -31.4664  -12.4817   19.1833 H   0  0  0  0  0  0
  -30.3224  -11.3961   19.9112 H   0  0  0  0  0  0
  -29.7767  -11.7526   17.4868 H   0  0  0  0  0  0
  -29.6819  -13.4785   17.7428 H   0  0  0  0  0  0
  -27.8086  -11.3329   18.7869 H   0  0  0  0  0  0
  -27.4018  -12.6737   17.7563 H   0  0  0  0  0  0
  -27.6620  -14.2696   19.5329 H   0  0  0  0  0  0
  -28.6923  -12.0674   21.3805 H   0  0  0  0  0  0
  -28.4273  -13.7296   21.8384 H   0  0  0  0  0  0
  -25.2746   -9.5761   22.4751 H   0  0  0  0  0  0
  -24.0063   -7.4676   22.7483 H   0  0  0  0  0  0
  -21.0834   -8.8756   19.8931 H   0  0  0  0  0  0
  -22.3657  -10.9692   19.6157 H   0  0  0  0  0  0
  -21.1994   -7.6141   23.9727 H   0  0  0  0  0  0
  -21.1511   -6.0504   25.9096 H   0  0  0  0  0  0
  -22.0566   -2.7606   23.2821 H   0  0  0  0  0  0
  -22.4037  -11.9947   22.4859 H   0  0  0  0  0  0
  -21.1047  -13.1279   22.2538 H   0  0  0  0  0  0
  -24.6486  -15.8430   20.5306 H   0  0  0  0  0  0
  -26.2572  -15.6341   20.0594 H   0  0  0  0  0  0
  -26.7180  -32.5411   23.1112 H   0  0  0  0  0  0
  -24.9920  -33.9695   25.0296 H   0  0  0  0  0  0
  -22.7145  -31.2905   21.3878 H   0  0  0  0  0  0
  -23.3762  -35.9632   23.3311 H   0  0  0  0  0  0
  -24.3543  -36.8931   22.2053 H   0  0  0  0  0  0
  -23.7220  -37.6508   23.6671 H   0  0  0  0  0  0
  -26.0889  -31.5427   20.5970 H   0  0  0  0  0  0
  -26.8412  -30.8375   22.0023 H   0  0  0  0  0  0
  -28.1214  -28.9938   21.2016 H   0  0  0  0  0  0
  -26.0424  -25.8842   19.0627 H   0  0  0  0  0  0
  -23.9944  -27.2553   19.0465 H   0  0  0  0  0  0
  -23.7457  -30.5541   19.3917 H   0  0  0  0  0  0
  -22.7610  -29.2110   19.8763 H   0  0  0  0  0  0
  -25.1284  -36.1966   25.0844 H   0  0  0  0  0  0
  -20.9916  -28.3294   24.1419 H   0  0  0  0  0  0
  -20.5690  -26.2319   23.3634 H   0  0  0  0  0  0
  -21.6642  -26.7477   22.1207 H   0  0  0  0  0  0
  -19.6914  -25.6301   21.1263 H   0  0  0  0  0  0
  -19.6716  -27.3199   20.6761 H   0  0  0  0  0  0
  -17.4205  -26.6693   21.4021 H   0  0  0  0  0  0
  -18.0310  -26.0111   22.9032 H   0  0  0  0  0  0
  -19.7928  -30.7303   24.2236 H   0  0  0  0  0  0
  -17.5004  -31.6284   24.5178 H   0  0  0  0  0  0
  -15.5330  -30.2980   23.7729 H   0  0  0  0  0  0
  -15.8645  -28.0840   22.7078 H   0  0  0  0  0  0
  -24.5808  -30.7163   25.7732 H   0  0  0  0  0  0
  -24.8917  -32.2924   26.4903 H   0  0  0  0  0  0
  -25.7933  -30.8849   27.0198 H   0  0  0  0  0  0
  -26.2926  -29.6760   24.1197 H   0  0  0  0  0  0
  -27.3917  -29.7257   25.4775 H   0  0  0  0  0  0
  -27.8824  -30.4273   23.9532 H   0  0  0  0  0  0
  -27.2628  -33.3606   26.2111 H   0  0  0  0  0  0
  -28.3792  -32.6934   25.0302 H   0  0  0  0  0  0
  -28.0751  -31.8445   26.5358 H   0  0  0  0  0  0
  -28.2600  -38.0099   24.7517 H   0  0  0  0  0  0
  -28.1069  -36.2639   24.6259 H   0  0  0  0  0  0
  -27.2294  -37.1431   25.8849 H   0  0  0  0  0  0
  -20.9415  -29.8674   21.6801 H   0  0  0  0  0  0
  -26.0181  -38.2886   24.1409 H   0  0  0  0  0  0
  -28.0229  -18.5683   19.1884 H   0  0  0  0  0  0
  -30.9162  -21.4159   21.9788 H   0  0  0  0  0  0
  -32.4840  -24.2624   20.5430 H   0  0  0  0  0  0
  -30.6133  -25.8937   20.7779 H   0  0  0  0  0  0
  -30.1951  -25.1125   22.2897 H   0  0  0  0  0  0
  -27.8226  -23.9107   19.2901 H   0  0  0  0  0  0
  -27.3194  -23.4397   20.9061 H   0  0  0  0  0  0
  -27.9965  -25.4281   21.8315 H   0  0  0  0  0  0
  -26.6863  -20.3498   18.5540 H   0  0  0  0  0  0
  -27.5828  -21.8369   18.2684 H   0  0  0  0  0  0
  -26.5501  -21.6677   19.6999 H   0  0  0  0  0  0
  -31.5517  -21.8057   18.9579 H   0  0  0  0  0  0
  -32.7484  -21.5992   20.2571 H   0  0  0  0  0  0
  -33.0935  -22.6427   18.8786 H   0  0  0  0  0  0
  -31.3545  -17.1945   20.1228 H   0  0  0  0  0  0
  -30.0491  -17.0277   19.0251 H   0  0  0  0  0  0
  -28.9234  -15.6652   20.9956 H   0  0  0  0  0  0
  1 25  1  0  0  0
  1 30  2  0  0  0
  1 86  1  0  0  0
  2  3  1  0  0  0
  2 25  1  0  0  0
  2 88  1  0  0  0
  2 89  1  0  0  0
  3  4  1  0  0  0
  3 90  1  0  0  0
  3 91  1  0  0  0
  4  5  1  0  0  0
  4 92  1  0  0  0
  4 93  1  0  0  0
  5  6  1  0  0  0
  5 26  1  0  0  0
  5 94  1  0  0  0
  6 25  1  0  0  0
  6 95  1  0  0  0
  6 96  1  0  0  0
  7  8  2  0  0  0
  7 26  1  0  0  0
  7 29  1  0  0  0
  8  9  1  0  0  0
  8 22  1  0  0  0
  9 10  1  0  0  0
  9 27  2  0  0  0
 10 11  2  0  0  0
 10 15  1  0  0  0
 11 12  1  0  0  0
 11 97  1  0  0  0
 12 13  2  0  0  0
 12 98  1  0  0  0
 13 14  1  0  0  0
 13 31  1  0  0  0
 14 15  2  0  0  0
 14 99  1  0  0  0
 15100  1  0  0  0
 16 17  2  0  0  0
 16 21  1  0  0  0
 16 31  1  0  0  0
 17 18  1  0  0  0
 17101  1  0  0  0
 18 19  2  0  0  0
 18102  1  0  0  0
 19 20  1  0  0  0
 19 24  1  0  0  0
 20 21  2  0  0  0
 20103  1  0  0  0
 21 23  1  0  0  0
 22 28  1  0  0  0
 22 32  2  0  0  0
 26 27  1  0  0  0
 28104  1  0  0  0
 28105  1  0  0  0
 29106  1  0  0  0
 29107  1  0  0  0
 33 34  1  0  0  0
 33 66  1  0  0  0
 33 70  2  0  0  0
 34 36  1  0  0  0
 34 59  1  0  0  0
 34108  1  0  0  0
 35 44  2  0  0  0
 35 45  1  0  0  0
 35 68  1  0  0  0
 36 56  1  0  0  0
 36109  1  0  0  0
 37 39  1  0  0  0
 37 47  1  0  0  0
 37 66  1  0  0  0
 37110  1  0  0  0
 38 43  2  0  0  0
 38 46  1  0  0  0
 38 47  1  0  0  0
 39 64  1  0  0  0
 39 67  2  0  0  0
 40 52  1  0  0  0
 40 53  2  0  0  0
 40 58  1  0  0  0
 41111  1  0  0  0
 41112  1  0  0  0
 41113  1  0  0  0
 41 48  1  0  0  0
 42 43  1  0  0  0
 42 66  1  0  0  0
 42114  1  0  0  0
 42115  1  0  0  0
 43 44  1  0  0  0
 44116  1  0  0  0
 45 46  2  0  0  0
 45117  1  0  0  0
 46118  1  0  0  0
 47119  1  0  0  0
 47120  1  0  0  0
 48 56  1  0  0  0
 48 65  1  0  0  0
 48121  1  0  0  0
 49 50  1  0  0  0
 49 53  1  0  0  0
 49 64  1  0  0  0
 49122  1  0  0  0
 50 51  1  0  0  0
 50123  1  0  0  0
 50124  1  0  0  0
 51 52  1  0  0  0
 51125  1  0  0  0
 51126  1  0  0  0
 52127  1  0  0  0
 52128  1  0  0  0
 53 54  1  0  0  0
 54 55  2  0  0  0
 54129  1  0  0  0
 55 57  1  0  0  0
 55130  1  0  0  0
 56 69  2  0  0  0
 57 58  2  0  0  0
 57131  1  0  0  0
 58132  1  0  0  0
 59 60  1  0  0  0
 59 61  1  0  0  0
 59 62  1  0  0  0
 60133  1  0  0  0
 60134  1  0  0  0
 60135  1  0  0  0
 61136  1  0  0  0
 61137  1  0  0  0
 61138  1  0  0  0
 62139  1  0  0  0
 62140  1  0  0  0
 62141  1  0  0  0
 63 65  1  0  0  0
 63142  1  0  0  0
 63143  1  0  0  0
 63144  1  0  0  0
 64145  1  0  0  0
 65146  1  0  0  0
 68 81  1  0  0  0
 71 73  2  0  0  0
 71 74  1  0  0  0
 71147  1  0  0  0
 72 75  2  0  0  0
 72 76  1  0  0  0
 72148  1  0  0  0
 73 75  1  0  0  0
 73 82  1  0  0  0
 74 76  2  0  0  0
 74 84  1  0  0  0
 75 85  1  0  0  0
 76 87  1  0  0  0
 77 78  2  0  0  0
 77 79  1  0  0  0
 77 85  1  0  0  0
 78 83  1  0  0  0
 78149  1  0  0  0
 79 81  1  0  0  0
 79150  1  0  0  0
 79151  1  0  0  0
 80 81  1  0  0  0
 80 85  1  0  0  0
 80152  1  0  0  0
 80153  1  0  0  0
 81154  1  0  0  0
 82155  1  0  0  0
 82156  1  0  0  0
 82157  1  0  0  0
 83158  1  0  0  0
 83159  1  0  0  0
 83160  1  0  0  0
 84 86  1  0  0  0
 84161  1  0  0  0
 84162  1  0  0  0
 86163  1  0  0  0
M  ISO  4   1 100  68 101  81 101  86 100
M  END
> <chiral flag>
0

> <version>
0

> <s_m_source_file>
/data/baiqing/PycharmProjects/Reinvent-master-3.2/result/LINK_invent/BTK/process_docking_weight1_custom_product_contain_oxygen_bond_distance_aromatic_linkinvent_7_9_3/rearranged_h_0034.sdf

> <i_m_source_file_index>
25

> <r_mmod_Potential_Energy-OPLS-2005>
156.753784179688

> <r_mmod_Stretch_Energy-OPLS-2005>
87.6970748901367

> <r_mmod_Bend_Energy-OPLS-2005>
202.211608886719

> <r_mmod_Torsional_Energy-OPLS-2005>
305.600433349609

> <r_mmod_Improper_Torsional_Energy-OPLS-2005>
10.7328481674194

> <r_mmod_Van_der_Waal_Energy-OPLS-2005>
137.99885559082

> <r_mmod_Electrostatic_Energy-OPLS-2005>
-426.586059570312

> <r_mmod_Solvation_Energy-OPLS-2005>
-207.194580078125

> <b_mmod_Minimization_Converged-OPLS-2005>
0

> <r_mmod_RMS_Derivative-OPLS-2005>
5.01005268096924

$$$$
25
                    3D
 Structure written by MMmdl.
164173  0  0  1  0            999 V2000
  -30.5851  -14.7589   20.4814 C   0  0  0  0  0  0
  -30.4420  -12.4708   19.4569 C   0  0  0  0  0  0
  -29.5080  -12.4990   18.2279 C   0  0  0  0  0  0
  -28.0361  -12.3135   18.6499 C   0  0  0  0  0  0
  -27.6386  -13.2213   19.8421 C   0  0  2  0  0  0
  -28.6857  -13.1580   20.9731 C   0  0  0  0  0  0
  -25.2525  -13.8185   20.5690 C   0  0  0  0  0  0
  -24.1812  -13.0446   20.9219 C   0  0  0  0  0  0
  -24.6388  -11.6915   20.8767 C   0  0  0  0  0  0
  -23.9069  -10.4294   21.0427 C   0  0  0  0  0  0
  -24.3635   -9.4201   21.9195 C   0  0  0  0  0  0
  -23.6307   -8.2238   22.0755 C   0  0  0  0  0  0
  -22.4285   -8.0292   21.3545 C   0  0  0  0  0  0
  -21.9923   -9.0265   20.4648 C   0  0  0  0  0  0
  -22.7251  -10.2141   20.3058 C   0  0  0  0  0  0
  -21.6854   -6.0747   22.5290 C   0  0  0  0  0  0
  -21.4008   -6.5644   23.8226 C   0  0  0  0  0  0
  -21.3652   -5.6790   24.9174 C   0  0  0  0  0  0
  -21.6041   -4.3060   24.7223 C   0  0  0  0  0  0
  -21.8815   -3.8156   23.4347 C   0  0  0  0  0  0
  -21.9195   -4.6971   22.3404 C   0  0  0  0  0  0
  -22.7839  -13.5233   21.1882 C   0  0  0  0  0  0
  -22.1665   -4.2157   21.0982 F   0  0  0  0  0  0
  -21.5631   -3.4540   25.7736 F   0  0  0  0  0  0
  -29.9799  -13.5259   20.3849 N   0  0  0  0  0  0
  -26.2925  -12.9361   20.3251 N   0  0  0  0  0  0
  -25.9304  -11.6509   20.5750 N   0  0  0  0  0  0
  -22.0478  -12.8210   22.0428 N   0  0  0  0  0  0
  -25.4242  -15.1911   20.4106 N   0  0  0  0  0  0
  -31.7828  -14.8742   20.2021 O   0  0  0  0  0  0
  -21.6641   -6.8897   21.4251 O   0  0  0  0  0  0
  -22.3522  -14.5536   20.6732 O   0  0  0  0  0  0
  -24.6303  -31.8529   23.1963 C   0  0  0  0  0  0
  -25.9097  -32.4759   23.8337 C   0  0  1  0  0  0
  -27.2236  -27.2357   20.1505 C   0  0  0  0  0  0
  -25.5885  -33.8562   24.2240 N   0  0  0  0  0  0
  -23.4334  -30.4763   21.5332 C   0  0  2  0  0  0
  -24.8845  -28.9150   20.1091 C   0  0  0  0  0  0
  -22.7518  -29.4601   22.4819 C   0  0  0  0  0  0
  -18.0313  -28.1441   22.8524 C   0  0  0  0  0  0
  -24.1456  -36.7252   23.2659 C   0  0  0  0  0  0
  -25.9775  -30.7623   21.3749 C   0  0  0  0  0  0
  -26.0514  -29.3804   20.7232 C   0  0  0  0  0  0
  -27.2205  -28.5509   20.7338 C   0  0  0  0  0  0
  -26.0283  -26.8349   19.5135 C   0  0  0  0  0  0
  -24.8783  -27.6532   19.4961 C   0  0  0  0  0  0
  -23.6578  -29.8089   20.1476 C   0  0  0  0  0  0
  -25.4099  -36.3088   24.0347 C   0  0  1  0  0  0
  -20.5931  -28.3743   23.1246 C   0  0  2  0  0  0
  -20.6802  -26.9446   22.5420 C   0  0  0  0  0  0
  -19.5765  -26.6408   21.5246 C   0  0  0  0  0  0
  -18.1934  -26.7992   22.1642 C   0  0  0  0  0  0
  -19.1574  -28.8900   23.2897 C   0  0  0  0  0  0
  -18.9515  -30.1491   23.8934 C   0  0  0  0  0  0
  -17.6519  -30.6644   24.0595 C   0  0  0  0  0  0
  -25.9043  -34.9454   23.5098 C   0  0  0  0  0  0
  -16.5393  -29.9179   23.6351 C   0  0  0  0  0  0
  -16.7302  -28.6587   23.0382 C   0  0  0  0  0  0
  -26.4487  -31.6622   25.0725 C   0  0  0  0  0  0
  -25.3732  -31.3784   26.1463 C   0  0  0  0  0  0
  -27.0339  -30.3059   24.6198 C   0  0  0  0  0  0
  -27.6035  -32.4380   25.7506 C   0  0  0  0  0  0
  -27.5562  -37.1783   24.8486 C   0  0  0  0  0  0
  -21.4222  -29.3078   22.3610 N   0  0  0  0  0  0
  -26.4267  -37.3784   23.9449 N   0  0  0  0  0  0
  -24.6990  -31.0498   22.0929 N   0  0  0  0  0  0
  -23.4203  -28.8097   23.2894 O   0  0  0  0  0  0
  -28.3427  -26.3700   20.2414 O   0  0  0  0  0  0
  -26.5626  -34.8946   22.4678 O   0  0  0  0  0  0
  -23.5434  -32.1323   23.7256 O   0  0  0  0  0  0
  -30.6567  -18.7832   22.8943 C   0  0  0  0  0  0
  -29.3378  -18.4449   20.4873 C   0  0  0  0  0  0
  -29.9973  -19.8962   22.3250 C   0  0  0  0  0  0
  -30.6292  -17.4922   22.3214 C   0  0  0  0  0  0
  -29.3400  -19.7891   21.0686 C   0  0  0  0  0  0
  -29.9611  -17.2649   21.0889 C   0  0  0  0  0  0
  -29.9233  -22.9875   19.4663 C   0  0  0  0  0  0
  -30.6651  -22.1933   18.6731 C   0  0  0  0  0  0
  -29.7952  -24.5140   19.3941 C   0  0  0  0  0  0
  -28.0285  -23.6590   20.7568 C   0  0  0  0  0  0
  -28.3714  -24.9135   19.8185 C   0  0  1  0  0  0
  -29.9501  -21.1631   23.1670 C   0  0  0  0  0  0
  -31.2357  -16.3599   23.1387 C   0  0  0  0  0  0
  -28.5015  -21.0385   20.4852 C   0  0  0  0  0  0
  -29.7544  -15.8684   20.6103 N   0  0  0  0  0  0
  -29.0152  -22.5018   20.5451 N   0  3  1  0  0  0
  -31.4751  -12.6239   19.1434 H   0  0  0  0  0  0
  -30.4166  -11.4969   19.9473 H   0  0  0  0  0  0
  -29.7937  -11.7210   17.5186 H   0  0  0  0  0  0
  -29.6188  -13.4481   17.7046 H   0  0  0  0  0  0
  -27.9049  -11.2681   18.9287 H   0  0  0  0  0  0
  -27.3712  -12.4846   17.8019 H   0  0  0  0  0  0
  -27.6304  -14.2376   19.4497 H   0  0  0  0  0  0
  -28.7319  -12.1571   21.4057 H   0  0  0  0  0  0
  -28.4171  -13.8351   21.7861 H   0  0  0  0  0  0
  -25.2787   -9.5671   22.4756 H   0  0  0  0  0  0
  -24.0021   -7.4616   22.7461 H   0  0  0  0  0  0
  -21.0863   -8.8788   19.8950 H   0  0  0  0  0  0
  -22.3736  -10.9679   19.6165 H   0  0  0  0  0  0
  -21.1990   -7.6153   23.9729 H   0  0  0  0  0  0
  -21.1479   -6.0521   25.9080 H   0  0  0  0  0  0
  -22.0602   -2.7620   23.2843 H   0  0  0  0  0  0
  -22.4085  -11.9845   22.4770 H   0  0  0  0  0  0
  -21.1090  -13.1229   22.2632 H   0  0  0  0  0  0
  -24.6598  -15.8486   20.5239 H   0  0  0  0  0  0
  -26.2676  -15.6299   20.0689 H   0  0  0  0  0  0
  -26.7153  -32.5411   23.1084 H   0  0  0  0  0  0
  -25.0057  -33.9710   25.0400 H   0  0  0  0  0  0
  -22.7340  -31.3000   21.3810 H   0  0  0  0  0  0
  -23.3748  -35.9543   23.3325 H   0  0  0  0  0  0
  -24.3542  -36.8849   22.2070 H   0  0  0  0  0  0
  -23.7168  -37.6441   23.6663 H   0  0  0  0  0  0
  -26.1119  -31.5215   20.6019 H   0  0  0  0  0  0
  -26.8570  -30.8202   22.0043 H   0  0  0  0  0  0
  -28.1126  -28.9027   21.2313 H   0  0  0  0  0  0
  -25.9351  -25.8658   19.0479 H   0  0  0  0  0  0
  -23.9795  -27.2897   19.0186 H   0  0  0  0  0  0
  -23.8009  -30.5860   19.3957 H   0  0  0  0  0  0
  -22.7755  -29.2535   19.8290 H   0  0  0  0  0  0
  -25.1269  -36.1933   25.0830 H   0  0  0  0  0  0
  -21.0052  -28.3336   24.1364 H   0  0  0  0  0  0
  -20.5726  -26.2347   23.3629 H   0  0  0  0  0  0
  -21.6657  -26.7476   22.1181 H   0  0  0  0  0  0
  -19.6914  -25.6321   21.1281 H   0  0  0  0  0  0
  -19.6712  -27.3222   20.6773 H   0  0  0  0  0  0
  -17.4208  -26.6774   21.4034 H   0  0  0  0  0  0
  -18.0303  -26.0156   22.9045 H   0  0  0  0  0  0
  -19.7987  -30.7299   24.2299 H   0  0  0  0  0  0
  -17.5102  -31.6339   24.5197 H   0  0  0  0  0  0
  -15.5412  -30.3115   23.7686 H   0  0  0  0  0  0
  -15.8679  -28.0931   22.7081 H   0  0  0  0  0  0
  -24.5935  -30.7088   25.7831 H   0  0  0  0  0  0
  -24.8897  -32.2937   26.4872 H   0  0  0  0  0  0
  -25.8075  -30.9032   27.0263 H   0  0  0  0  0  0
  -26.2906  -29.6819   24.1232 H   0  0  0  0  0  0
  -27.4071  -29.7313   25.4679 H   0  0  0  0  0  0
  -27.8747  -30.4378   23.9392 H   0  0  0  0  0  0
  -27.2630  -33.3720   26.2004 H   0  0  0  0  0  0
  -28.3885  -32.6885   25.0357 H   0  0  0  0  0  0
  -28.0642  -31.8559   26.5503 H   0  0  0  0  0  0
  -28.2578  -38.0084   24.7538 H   0  0  0  0  0  0
  -28.1041  -36.2612   24.6274 H   0  0  0  0  0  0
  -27.2270  -37.1372   25.8884 H   0  0  0  0  0  0
  -20.9391  -29.8849   21.6869 H   0  0  0  0  0  0
  -26.0136  -38.2826   24.1555 H   0  0  0  0  0  0
  -31.1395  -18.9110   23.8543 H   0  0  0  0  0  0
  -28.7798  -18.3012   19.5730 H   0  0  0  0  0  0
  -31.2791  -22.6196   17.8941 H   0  0  0  0  0  0
  -30.6753  -21.1166   18.7714 H   0  0  0  0  0  0
  -30.0322  -24.8908   18.4007 H   0  0  0  0  0  0
  -30.5237  -24.9413   20.0814 H   0  0  0  0  0  0
  -27.0081  -23.3283   20.5677 H   0  0  0  0  0  0
  -28.0735  -23.9538   21.8037 H   0  0  0  0  0  0
  -27.7716  -24.8078   18.9149 H   0  0  0  0  0  0
  -28.9506  -21.6010   23.1842 H   0  0  0  0  0  0
  -30.6718  -21.9002   22.8159 H   0  0  0  0  0  0
  -30.1957  -20.9453   24.2082 H   0  0  0  0  0  0
  -31.5172  -16.6978   24.1375 H   0  0  0  0  0  0
  -32.1331  -15.9627   22.6624 H   0  0  0  0  0  0
  -30.5184  -15.5488   23.2705 H   0  0  0  0  0  0
  -27.5772  -21.0240   21.0610 H   0  0  0  0  0  0
  -28.1944  -20.8168   19.4624 H   0  0  0  0  0  0
  -28.7853  -15.6305   20.4717 H   0  0  0  0  0  0
  -29.5533  -22.4944   21.3982 H   0  0  0  0  0  0
  1 25  1  0  0  0
  1 30  2  0  0  0
  1 85  1  0  0  0
  2  3  1  0  0  0
  2 25  1  0  0  0
  2 87  1  0  0  0
  2 88  1  0  0  0
  3  4  1  0  0  0
  3 89  1  0  0  0
  3 90  1  0  0  0
  4  5  1  0  0  0
  4 91  1  0  0  0
  4 92  1  0  0  0
  5  6  1  0  0  0
  5 26  1  0  0  0
  5 93  1  0  0  0
  6 25  1  0  0  0
  6 94  1  0  0  0
  6 95  1  0  0  0
  7  8  2  0  0  0
  7 26  1  0  0  0
  7 29  1  0  0  0
  8  9  1  0  0  0
  8 22  1  0  0  0
  9 10  1  0  0  0
  9 27  2  0  0  0
 10 11  2  0  0  0
 10 15  1  0  0  0
 11 12  1  0  0  0
 11 96  1  0  0  0
 12 13  2  0  0  0
 12 97  1  0  0  0
 13 14  1  0  0  0
 13 31  1  0  0  0
 14 15  2  0  0  0
 14 98  1  0  0  0
 15 99  1  0  0  0
 16 17  2  0  0  0
 16 21  1  0  0  0
 16 31  1  0  0  0
 17 18  1  0  0  0
 17100  1  0  0  0
 18 19  2  0  0  0
 18101  1  0  0  0
 19 20  1  0  0  0
 19 24  1  0  0  0
 20 21  2  0  0  0
 20102  1  0  0  0
 21 23  1  0  0  0
 22 28  1  0  0  0
 22 32  2  0  0  0
 26 27  1  0  0  0
 28103  1  0  0  0
 28104  1  0  0  0
 29105  1  0  0  0
 29106  1  0  0  0
 33 34  1  0  0  0
 33 66  1  0  0  0
 33 70  2  0  0  0
 34 36  1  0  0  0
 34 59  1  0  0  0
 34107  1  0  0  0
 35 44  2  0  0  0
 35 45  1  0  0  0
 35 68  1  0  0  0
 36 56  1  0  0  0
 36108  1  0  0  0
 37 39  1  0  0  0
 37 47  1  0  0  0
 37 66  1  0  0  0
 37109  1  0  0  0
 38 43  2  0  0  0
 38 46  1  0  0  0
 38 47  1  0  0  0
 39 64  1  0  0  0
 39 67  2  0  0  0
 40 52  1  0  0  0
 40 53  2  0  0  0
 40 58  1  0  0  0
 41110  1  0  0  0
 41111  1  0  0  0
 41112  1  0  0  0
 41 48  1  0  0  0
 42 43  1  0  0  0
 42 66  1  0  0  0
 42113  1  0  0  0
 42114  1  0  0  0
 43 44  1  0  0  0
 44115  1  0  0  0
 45 46  2  0  0  0
 45116  1  0  0  0
 46117  1  0  0  0
 47118  1  0  0  0
 47119  1  0  0  0
 48 56  1  0  0  0
 48 65  1  0  0  0
 48120  1  0  0  0
 49 50  1  0  0  0
 49 53  1  0  0  0
 49 64  1  0  0  0
 49121  1  0  0  0
 50 51  1  0  0  0
 50122  1  0  0  0
 50123  1  0  0  0
 51 52  1  0  0  0
 51124  1  0  0  0
 51125  1  0  0  0
 52126  1  0  0  0
 52127  1  0  0  0
 53 54  1  0  0  0
 54 55  2  0  0  0
 54128  1  0  0  0
 55 57  1  0  0  0
 55129  1  0  0  0
 56 69  2  0  0  0
 57 58  2  0  0  0
 57130  1  0  0  0
 58131  1  0  0  0
 59 60  1  0  0  0
 59 61  1  0  0  0
 59 62  1  0  0  0
 60132  1  0  0  0
 60133  1  0  0  0
 60134  1  0  0  0
 61135  1  0  0  0
 61136  1  0  0  0
 61137  1  0  0  0
 62138  1  0  0  0
 62139  1  0  0  0
 62140  1  0  0  0
 63 65  1  0  0  0
 63141  1  0  0  0
 63142  1  0  0  0
 63143  1  0  0  0
 64144  1  0  0  0
 65145  1  0  0  0
 68 81  1  0  0  0
 71 73  2  0  0  0
 71 74  1  0  0  0
 71146  1  0  0  0
 72 75  2  0  0  0
 72 76  1  0  0  0
 72147  1  0  0  0
 73 75  1  0  0  0
 73 82  1  0  0  0
 74 76  2  0  0  0
 74 83  1  0  0  0
 75 84  1  0  0  0
 76 85  1  0  0  0
 77 78  2  0  0  0
 77 79  1  0  0  0
 77 86  1  0  0  0
 78148  1  0  0  0
 78149  1  0  0  0
 79 81  1  0  0  0
 79150  1  0  0  0
 79151  1  0  0  0
 80 81  1  0  0  0
 80 86  1  0  0  0
 80152  1  0  0  0
 80153  1  0  0  0
 81154  1  0  0  0
 82155  1  0  0  0
 82156  1  0  0  0
 82157  1  0  0  0
 83158  1  0  0  0
 83159  1  0  0  0
 83160  1  0  0  0
 84161  1  0  0  0
 84162  1  0  0  0
 84 86  1  0  0  0
 85163  1  0  0  0
 86164  1  0  0  0
M  CHG  1  86   1
M  ISO  4   1 100  68 101  81 101  85 100
M  END
> <chiral flag>
0

> <version>
0

> <s_m_source_file>
/data/baiqing/PycharmProjects/Reinvent-master-3.2/result/LINK_invent/BTK/process_docking_weight1_custom_product_contain_oxygen_bond_distance_aromatic_linkinvent_7_9_3/rearranged_h_0034.sdf

> <i_m_source_file_index>
26

> <r_mmod_Potential_Energy-OPLS-2005>
138.868438720703

> <r_mmod_Stretch_Energy-OPLS-2005>
134.330123901367

> <r_mmod_Bend_Energy-OPLS-2005>
215.227355957031

> <r_mmod_Torsional_Energy-OPLS-2005>
266.612396240234

> <r_mmod_Improper_Torsional_Energy-OPLS-2005>
9.42035961151123

> <r_mmod_Van_der_Waal_Energy-OPLS-2005>
133.6298828125

> <r_mmod_Electrostatic_Energy-OPLS-2005>
-287.926330566406

> <r_mmod_Solvation_Energy-OPLS-2005>
-428.512634277344

> <b_mmod_Minimization_Converged-OPLS-2005>
0

> <r_mmod_RMS_Derivative-OPLS-2005>
3.9289243221283

$$$$
26
                    3D
 Structure written by MMmdl.
169178  0  0  1  0            999 V2000
  -30.7049  -14.4778   20.5542 C   0  0  0  0  0  0
  -30.4159  -12.3036   19.4251 C   0  0  0  0  0  0
  -29.4935  -12.4956   18.2038 C   0  0  0  0  0  0
  -28.0126  -12.3652   18.6124 C   0  0  0  0  0  0
  -27.6580  -13.2105   19.8655 C   0  0  2  0  0  0
  -28.6998  -13.0100   20.9883 C   0  0  0  0  0  0
  -25.2566  -13.8183   20.5632 C   0  0  0  0  0  0
  -24.1833  -13.0441   20.9160 C   0  0  0  0  0  0
  -24.6403  -11.6914   20.8741 C   0  0  0  0  0  0
  -23.9074  -10.4295   21.0436 C   0  0  0  0  0  0
  -24.3627   -9.4208   21.9199 C   0  0  0  0  0  0
  -23.6287   -8.2252   22.0768 C   0  0  0  0  0  0
  -22.4273   -8.0293   21.3549 C   0  0  0  0  0  0
  -21.9923   -9.0275   20.4658 C   0  0  0  0  0  0
  -22.7254  -10.2146   20.3067 C   0  0  0  0  0  0
  -21.6836   -6.0745   22.5282 C   0  0  0  0  0  0
  -21.4013   -6.5656   23.8220 C   0  0  0  0  0  0
  -21.3641   -5.6803   24.9182 C   0  0  0  0  0  0
  -21.6038   -4.3070   24.7232 C   0  0  0  0  0  0
  -21.8810   -3.8161   23.4355 C   0  0  0  0  0  0
  -21.9192   -4.6974   22.3407 C   0  0  0  0  0  0
  -22.7850  -13.5239   21.1819 C   0  0  0  0  0  0
  -22.1657   -4.2170   21.0974 F   0  0  0  0  0  0
  -21.5622   -3.4539   25.7746 F   0  0  0  0  0  0
  -30.0265  -13.3058   20.4305 N   0  0  0  0  0  0
  -26.3002  -12.9357   20.3330 N   0  0  0  0  0  0
  -25.9328  -11.6511   20.5765 N   0  0  0  0  0  0
  -22.0502  -12.8267   22.0403 N   0  0  0  0  0  0
  -25.4298  -15.1887   20.3979 N   0  0  0  0  0  0
  -31.8429  -14.6381   20.1035 O   0  0  0  0  0  0
  -21.6624   -6.8890   21.4246 O   0  0  0  0  0  0
  -22.3546  -14.5543   20.6648 O   0  0  0  0  0  0
  -24.6119  -31.8676   23.2098 C   0  0  0  0  0  0
  -25.9022  -32.4831   23.8390 C   0  0  1  0  0  0
  -27.2262  -27.4403   20.1013 C   0  0  0  0  0  0
  -25.5890  -33.8619   24.2318 N   0  0  0  0  0  0
  -23.4006  -30.4915   21.5482 C   0  0  2  0  0  0
  -24.8469  -28.9579   20.1138 C   0  0  0  0  0  0
  -22.7400  -29.4650   22.4961 C   0  0  0  0  0  0
  -18.0251  -28.1404   22.8471 C   0  0  0  0  0  0
  -24.1494  -36.7308   23.2644 C   0  0  0  0  0  0
  -25.9293  -30.8357   21.3642 C   0  0  0  0  0  0
  -26.0072  -29.4714   20.7086 C   0  0  0  0  0  0
  -27.2019  -28.7179   20.7026 C   0  0  0  0  0  0
  -26.0549  -26.9370   19.5003 C   0  0  0  0  0  0
  -24.8632  -27.6886   19.5068 C   0  0  0  0  0  0
  -23.6094  -29.8247   20.1613 C   0  0  0  0  0  0
  -25.4123  -36.3114   24.0338 C   0  0  1  0  0  0
  -20.5850  -28.3681   23.1300 C   0  0  2  0  0  0
  -20.6758  -26.9410   22.5420 C   0  0  0  0  0  0
  -19.5739  -26.6373   21.5223 C   0  0  0  0  0  0
  -18.1895  -26.7939   22.1615 C   0  0  0  0  0  0
  -19.1515  -28.8858   23.2859 C   0  0  0  0  0  0
  -18.9466  -30.1451   23.8894 C   0  0  0  0  0  0
  -17.6483  -30.6615   24.0558 C   0  0  0  0  0  0
  -25.9050  -34.9477   23.5119 C   0  0  0  0  0  0
  -16.5363  -29.9131   23.6345 C   0  0  0  0  0  0
  -16.7247  -28.6540   23.0374 C   0  0  0  0  0  0
  -26.4462  -31.6632   25.0738 C   0  0  0  0  0  0
  -25.3722  -31.3758   26.1485 C   0  0  0  0  0  0
  -27.0336  -30.3097   24.6137 C   0  0  0  0  0  0
  -27.6010  -32.4384   25.7504 C   0  0  0  0  0  0
  -27.5579  -37.1790   24.8463 C   0  0  0  0  0  0
  -21.4144  -29.3046   22.3732 N   0  0  0  0  0  0
  -26.4306  -37.3787   23.9393 N   0  0  0  0  0  0
  -24.6640  -31.0775   22.0995 N   0  0  0  0  0  0
  -23.4163  -28.8162   23.3002 O   0  0  0  0  0  0
  -28.3783  -26.6922   20.0912 O   0  0  0  0  0  0
  -26.5601  -34.8925   22.4680 O   0  0  0  0  0  0
  -23.5325  -32.1427   23.7523 O   0  0  0  0  0  0
  -29.1380  -18.6676   22.2898 C   0  0  0  0  0  0
  -28.4591  -19.8980   22.2294 C   0  0  0  0  0  0
  -29.6378  -18.0550   21.1224 C   0  0  0  0  0  0
  -28.2899  -20.5725   21.0012 C   0  0  0  0  0  0
  -29.3637  -18.6588   19.8617 C   0  0  0  0  0  0
  -28.7153  -19.9308   19.8026 C   0  0  0  0  0  0
  -30.1830  -24.5089   22.4902 C   0  0  0  0  0  0
  -29.5226  -25.8050   21.9905 C   0  0  0  0  0  0
  -29.2148  -23.3176   22.4458 C   0  0  0  0  0  0
  -28.5468  -24.2329   20.1944 C   0  0  0  0  0  0
  -28.3801  -25.5630   20.9801 C   0  0  2  0  0  0
  -29.7640  -17.9619   18.5617 C   0  0  0  0  0  0
  -28.5198  -20.6054   18.4408 C   0  0  0  0  0  0
  -30.5790  -16.8517   21.3014 C   0  0  0  0  0  0
  -27.6856  -21.9855   21.0358 C   0  0  0  0  0  0
  -30.0190  -15.5112   21.0825 N   0  0  0  0  0  0
  -28.7587  -23.0202   21.0613 N   0  3  2  0  0  0
  -31.4630  -12.3865   19.1316 H   0  0  0  0  0  0
  -30.3024  -11.2998   19.8373 H   0  0  0  0  0  0
  -29.7342  -11.7606   17.4326 H   0  0  0  0  0  0
  -29.6683  -13.4747   17.7558 H   0  0  0  0  0  0
  -27.8149  -11.3113   18.8077 H   0  0  0  0  0  0
  -27.3701  -12.6432   17.7779 H   0  0  0  0  0  0
  -27.6972  -14.2546   19.5551 H   0  0  0  0  0  0
  -28.6816  -11.9803   21.3497 H   0  0  0  0  0  0
  -28.4676  -13.6291   21.8554 H   0  0  0  0  0  0
  -25.2769   -9.5676   22.4772 H   0  0  0  0  0  0
  -23.9985   -7.4653   22.7495 H   0  0  0  0  0  0
  -21.0852   -8.8786   19.8977 H   0  0  0  0  0  0
  -22.3708  -10.9682   19.6178 H   0  0  0  0  0  0
  -21.1996   -7.6162   23.9730 H   0  0  0  0  0  0
  -21.1467   -6.0535   25.9085 H   0  0  0  0  0  0
  -22.0601   -2.7625   23.2843 H   0  0  0  0  0  0
  -22.4098  -11.9911   22.4781 H   0  0  0  0  0  0
  -21.1148  -13.1340   22.2647 H   0  0  0  0  0  0
  -24.6613  -15.8448   20.4824 H   0  0  0  0  0  0
  -26.2849  -15.6251   20.0759 H   0  0  0  0  0  0
  -26.7092  -32.5556   23.1152 H   0  0  0  0  0  0
  -25.0071  -33.9765   25.0495 H   0  0  0  0  0  0
  -22.6920  -31.3083   21.4078 H   0  0  0  0  0  0
  -23.3758  -35.9632   23.3353 H   0  0  0  0  0  0
  -24.3550  -36.8892   22.2043 H   0  0  0  0  0  0
  -23.7249  -37.6512   23.6666 H   0  0  0  0  0  0
  -26.0447  -31.6065   20.6003 H   0  0  0  0  0  0
  -26.8104  -30.8814   21.9914 H   0  0  0  0  0  0
  -28.0966  -29.0989   21.1729 H   0  0  0  0  0  0
  -26.0686  -25.9658   19.0234 H   0  0  0  0  0  0
  -23.9732  -27.2920   19.0381 H   0  0  0  0  0  0
  -23.7142  -30.6008   19.4026 H   0  0  0  0  0  0
  -22.7363  -29.2394   19.8694 H   0  0  0  0  0  0
  -25.1303  -36.1972   25.0829 H   0  0  0  0  0  0
  -20.9909  -28.3298   24.1432 H   0  0  0  0  0  0
  -20.5734  -26.2297   23.3624 H   0  0  0  0  0  0
  -21.6615  -26.7491   22.1168 H   0  0  0  0  0  0
  -19.6921  -25.6273   21.1288 H   0  0  0  0  0  0
  -19.6721  -27.3167   20.6732 H   0  0  0  0  0  0
  -17.4177  -26.6679   21.4013 H   0  0  0  0  0  0
  -18.0253  -26.0104   22.9041 H   0  0  0  0  0  0
  -19.7967  -30.7207   24.2320 H   0  0  0  0  0  0
  -17.5074  -31.6312   24.5139 H   0  0  0  0  0  0
  -15.5385  -30.3052   23.7687 H   0  0  0  0  0  0
  -15.8615  -28.0866   22.7133 H   0  0  0  0  0  0
  -24.5859  -30.7155   25.7799 H   0  0  0  0  0  0
  -24.8962  -32.2945   26.4937 H   0  0  0  0  0  0
  -25.8031  -30.8899   27.0254 H   0  0  0  0  0  0
  -26.2907  -29.6797   24.1250 H   0  0  0  0  0  0
  -27.4171  -29.7378   25.4582 H   0  0  0  0  0  0
  -27.8689  -30.4403   23.9257 H   0  0  0  0  0  0
  -27.2596  -33.3661   26.2105 H   0  0  0  0  0  0
  -28.3814  -32.6995   25.0353 H   0  0  0  0  0  0
  -28.0714  -31.8534   26.5423 H   0  0  0  0  0  0
  -28.2594  -38.0093   24.7516 H   0  0  0  0  0  0
  -28.1078  -36.2611   24.6320 H   0  0  0  0  0  0
  -27.2264  -37.1464   25.8853 H   0  0  0  0  0  0
  -20.9319  -29.8781   21.6953 H   0  0  0  0  0  0
  -26.0224  -38.2860   24.1428 H   0  0  0  0  0  0
  -29.3234  -18.2196   23.2571 H   0  0  0  0  0  0
  -28.1156  -20.3466   23.1536 H   0  0  0  0  0  0
  -30.5573  -24.6534   23.5050 H   0  0  0  0  0  0
  -31.0583  -24.2883   21.8808 H   0  0  0  0  0  0
  -30.2943  -26.4385   21.5501 H   0  0  0  0  0  0
  -29.1271  -26.3781   22.8320 H   0  0  0  0  0  0
  -28.3524  -23.5414   23.0771 H   0  0  0  0  0  0
  -29.6941  -22.4281   22.8616 H   0  0  0  0  0  0
  -29.4294  -24.3295   19.5600 H   0  0  0  0  0  0
  -27.7093  -24.0943   19.5134 H   0  0  0  0  0  0
  -27.4410  -25.4990   21.5385 H   0  0  0  0  0  0
  -30.5122  -17.1833   18.6898 H   0  0  0  0  0  0
  -30.1715  -18.6642   17.8311 H   0  0  0  0  0  0
  -28.8824  -17.4950   18.1180 H   0  0  0  0  0  0
  -27.8606  -21.4689   18.4459 H   0  0  0  0  0  0
  -28.0885  -19.9095   17.7212 H   0  0  0  0  0  0
  -29.4778  -20.9410   18.0417 H   0  0  0  0  0  0
  -30.9736  -16.8709   22.3193 H   0  0  0  0  0  0
  -31.4602  -17.0221   20.6776 H   0  0  0  0  0  0
  -27.0602  -22.0806   21.9242 H   0  0  0  0  0  0
  -26.9795  -22.1291   20.2200 H   0  0  0  0  0  0
  -29.0804  -15.3372   21.4082 H   0  0  0  0  0  0
  -29.5370  -22.5435   20.6261 H   0  0  0  0  0  0
  1 25  1  0  0  0
  1 30  2  0  0  0
  1 86  1  0  0  0
  2  3  1  0  0  0
  2 25  1  0  0  0
  2 88  1  0  0  0
  2 89  1  0  0  0
  3  4  1  0  0  0
  3 90  1  0  0  0
  3 91  1  0  0  0
  4  5  1  0  0  0
  4 92  1  0  0  0
  4 93  1  0  0  0
  5  6  1  0  0  0
  5 26  1  0  0  0
  5 94  1  0  0  0
  6 25  1  0  0  0
  6 95  1  0  0  0
  6 96  1  0  0  0
  7  8  2  0  0  0
  7 26  1  0  0  0
  7 29  1  0  0  0
  8  9  1  0  0  0
  8 22  1  0  0  0
  9 10  1  0  0  0
  9 27  2  0  0  0
 10 11  2  0  0  0
 10 15  1  0  0  0
 11 12  1  0  0  0
 11 97  1  0  0  0
 12 13  2  0  0  0
 12 98  1  0  0  0
 13 14  1  0  0  0
 13 31  1  0  0  0
 14 15  2  0  0  0
 14 99  1  0  0  0
 15100  1  0  0  0
 16 17  2  0  0  0
 16 21  1  0  0  0
 16 31  1  0  0  0
 17 18  1  0  0  0
 17101  1  0  0  0
 18 19  2  0  0  0
 18102  1  0  0  0
 19 20  1  0  0  0
 19 24  1  0  0  0
 20 21  2  0  0  0
 20103  1  0  0  0
 21 23  1  0  0  0
 22 28  1  0  0  0
 22 32  2  0  0  0
 26 27  1  0  0  0
 28104  1  0  0  0
 28105  1  0  0  0
 29106  1  0  0  0
 29107  1  0  0  0
 33 34  1  0  0  0
 33 66  1  0  0  0
 33 70  2  0  0  0
 34 36  1  0  0  0
 34 59  1  0  0  0
 34108  1  0  0  0
 35 44  2  0  0  0
 35 45  1  0  0  0
 35 68  1  0  0  0
 36 56  1  0  0  0
 36109  1  0  0  0
 37 39  1  0  0  0
 37 47  1  0  0  0
 37 66  1  0  0  0
 37110  1  0  0  0
 38 43  2  0  0  0
 38 46  1  0  0  0
 38 47  1  0  0  0
 39 64  1  0  0  0
 39 67  2  0  0  0
 40 52  1  0  0  0
 40 53  2  0  0  0
 40 58  1  0  0  0
 41111  1  0  0  0
 41112  1  0  0  0
 41113  1  0  0  0
 41 48  1  0  0  0
 42 43  1  0  0  0
 42 66  1  0  0  0
 42114  1  0  0  0
 42115  1  0  0  0
 43 44  1  0  0  0
 44116  1  0  0  0
 45 46  2  0  0  0
 45117  1  0  0  0
 46118  1  0  0  0
 47119  1  0  0  0
 47120  1  0  0  0
 48 56  1  0  0  0
 48 65  1  0  0  0
 48121  1  0  0  0
 49 50  1  0  0  0
 49 53  1  0  0  0
 49 64  1  0  0  0
 49122  1  0  0  0
 50 51  1  0  0  0
 50123  1  0  0  0
 50124  1  0  0  0
 51 52  1  0  0  0
 51125  1  0  0  0
 51126  1  0  0  0
 52127  1  0  0  0
 52128  1  0  0  0
 53 54  1  0  0  0
 54 55  2  0  0  0
 54129  1  0  0  0
 55 57  1  0  0  0
 55130  1  0  0  0
 56 69  2  0  0  0
 57 58  2  0  0  0
 57131  1  0  0  0
 58132  1  0  0  0
 59 60  1  0  0  0
 59 61  1  0  0  0
 59 62  1  0  0  0
 60133  1  0  0  0
 60134  1  0  0  0
 60135  1  0  0  0
 61136  1  0  0  0
 61137  1  0  0  0
 61138  1  0  0  0
 62139  1  0  0  0
 62140  1  0  0  0
 62141  1  0  0  0
 63 65  1  0  0  0
 63142  1  0  0  0
 63143  1  0  0  0
 63144  1  0  0  0
 64145  1  0  0  0
 65146  1  0  0  0
 68 81  1  0  0  0
 71 72  2  0  0  0
 71 73  1  0  0  0
 71147  1  0  0  0
 72 74  1  0  0  0
 72148  1  0  0  0
 73 75  2  0  0  0
 73 84  1  0  0  0
 74 76  2  0  0  0
 74 85  1  0  0  0
 75 76  1  0  0  0
 75 82  1  0  0  0
 76 83  1  0  0  0
 77 78  1  0  0  0
 77 79  1  0  0  0
 77149  1  0  0  0
 77150  1  0  0  0
 78 81  1  0  0  0
 78151  1  0  0  0
 78152  1  0  0  0
 79 87  1  0  0  0
 79153  1  0  0  0
 79154  1  0  0  0
 80 81  1  0  0  0
 80 87  1  0  0  0
 80155  1  0  0  0
 80156  1  0  0  0
 81157  1  0  0  0
 82158  1  0  0  0
 82159  1  0  0  0
 82160  1  0  0  0
 83161  1  0  0  0
 83162  1  0  0  0
 83163  1  0  0  0
 84 86  1  0  0  0
 84164  1  0  0  0
 84165  1  0  0  0
 85166  1  0  0  0
 85167  1  0  0  0
 85 87  1  0  0  0
 86168  1  0  0  0
 87169  1  0  0  0
M  CHG  1  87   1
M  ISO  4   1 100  68 101  81 101  86 100
M  END
> <chiral flag>
0

> <version>
0

> <s_m_source_file>
/data/baiqing/PycharmProjects/Reinvent-master-3.2/result/LINK_invent/BTK/process_docking_weight1_custom_product_contain_oxygen_bond_distance_aromatic_linkinvent_7_9_3/rearranged_h_0034.sdf

> <i_m_source_file_index>
27

> <r_mmod_Potential_Energy-OPLS-2005>
-128.383880615234

> <r_mmod_Stretch_Energy-OPLS-2005>
42.5887184143066

> <r_mmod_Bend_Energy-OPLS-2005>
102.866676330566

> <r_mmod_Torsional_Energy-OPLS-2005>
284.616119384766

> <r_mmod_Improper_Torsional_Energy-OPLS-2005>
3.53924417495728

> <r_mmod_Van_der_Waal_Energy-OPLS-2005>
161.381652832031

> <r_mmod_Electrostatic_Energy-OPLS-2005>
-328.245269775391

> <r_mmod_Solvation_Energy-OPLS-2005>
-408.704498291016

> <b_mmod_Minimization_Converged-OPLS-2005>
0

> <r_mmod_RMS_Derivative-OPLS-2005>
4.67890119552612

$$$$
27
                    3D
 Structure written by MMmdl.
176185  0  0  1  0            999 V2000
  -30.6977  -14.5071   20.6102 C   0  0  0  0  0  0
  -30.4299  -12.3461   19.4183 C   0  0  0  0  0  0
  -29.4934  -12.5113   18.2038 C   0  0  0  0  0  0
  -28.0173  -12.3570   18.6232 C   0  0  0  0  0  0
  -27.6571  -13.2084   19.8700 C   0  0  2  0  0  0
  -28.7011  -13.0065   20.9890 C   0  0  0  0  0  0
  -25.2576  -13.8159   20.5680 C   0  0  0  0  0  0
  -24.1833  -13.0440   20.9179 C   0  0  0  0  0  0
  -24.6390  -11.6901   20.8735 C   0  0  0  0  0  0
  -23.9056  -10.4285   21.0410 C   0  0  0  0  0  0
  -24.3603   -9.4207   21.9192 C   0  0  0  0  0  0
  -23.6284   -8.2244   22.0755 C   0  0  0  0  0  0
  -22.4277   -8.0284   21.3545 C   0  0  0  0  0  0
  -21.9908   -9.0251   20.4646 C   0  0  0  0  0  0
  -22.7222  -10.2131   20.3058 C   0  0  0  0  0  0
  -21.6849   -6.0735   22.5281 C   0  0  0  0  0  0
  -21.4013   -6.5638   23.8210 C   0  0  0  0  0  0
  -21.3661   -5.6791   24.9175 C   0  0  0  0  0  0
  -21.6044   -4.3055   24.7223 C   0  0  0  0  0  0
  -21.8823   -3.8145   23.4345 C   0  0  0  0  0  0
  -21.9191   -4.6965   22.3399 C   0  0  0  0  0  0
  -22.7861  -13.5241   21.1848 C   0  0  0  0  0  0
  -22.1662   -4.2145   21.0984 F   0  0  0  0  0  0
  -21.5629   -3.4545   25.7737 F   0  0  0  0  0  0
  -30.0240  -13.3341   20.4323 N   0  0  0  0  0  0
  -26.3004  -12.9325   20.3348 N   0  0  0  0  0  0
  -25.9317  -11.6487   20.5756 N   0  0  0  0  0  0
  -22.0496  -12.8227   22.0394 N   0  0  0  0  0  0
  -25.4311  -15.1878   20.4096 N   0  0  0  0  0  0
  -31.8355  -14.6877   20.1725 O   0  0  0  0  0  0
  -21.6644   -6.8886   21.4242 O   0  0  0  0  0  0
  -22.3557  -14.5552   20.6699 O   0  0  0  0  0  0
  -24.6208  -31.8637   23.2069 C   0  0  0  0  0  0
  -25.9073  -32.4803   23.8384 C   0  0  1  0  0  0
  -27.2368  -27.3824   20.1105 C   0  0  0  0  0  0
  -25.5883  -33.8590   24.2304 N   0  0  0  0  0  0
  -23.4105  -30.4907   21.5487 C   0  0  2  0  0  0
  -24.8604  -28.9568   20.1098 C   0  0  0  0  0  0
  -22.7441  -29.4658   22.4967 C   0  0  0  0  0  0
  -18.0263  -28.1377   22.8480 C   0  0  0  0  0  0
  -24.1477  -36.7329   23.2645 C   0  0  0  0  0  0
  -25.9479  -30.8163   21.3706 C   0  0  0  0  0  0
  -26.0264  -29.4502   20.7103 C   0  0  0  0  0  0
  -27.2178  -28.6755   20.7014 C   0  0  0  0  0  0
  -26.0528  -26.9362   19.4713 C   0  0  0  0  0  0
  -24.8750  -27.7033   19.4807 C   0  0  0  0  0  0
  -23.6215  -29.8262   20.1651 C   0  0  0  0  0  0
  -25.4097  -36.3102   24.0327 C   0  0  1  0  0  0
  -20.5867  -28.3681   23.1276 C   0  0  2  0  0  0
  -20.6757  -26.9417   22.5399 C   0  0  0  0  0  0
  -19.5737  -26.6390   21.5191 C   0  0  0  0  0  0
  -18.1914  -26.7922   22.1602 C   0  0  0  0  0  0
  -19.1520  -28.8847   23.2870 C   0  0  0  0  0  0
  -18.9442  -30.1454   23.8905 C   0  0  0  0  0  0
  -17.6449  -30.6603   24.0573 C   0  0  0  0  0  0
  -25.9005  -34.9445   23.5109 C   0  0  0  0  0  0
  -16.5337  -29.9096   23.6333 C   0  0  0  0  0  0
  -16.7247  -28.6501   23.0364 C   0  0  0  0  0  0
  -26.4472  -31.6587   25.0738 C   0  0  0  0  0  0
  -25.3699  -31.3681   26.1467 C   0  0  0  0  0  0
  -27.0347  -30.3029   24.6166 C   0  0  0  0  0  0
  -27.6043  -32.4333   25.7489 C   0  0  0  0  0  0
  -27.5575  -37.1800   24.8464 C   0  0  0  0  0  0
  -21.4159  -29.3058   22.3704 N   0  0  0  0  0  0
  -26.4283  -37.3778   23.9399 N   0  0  0  0  0  0
  -24.6775  -31.0698   22.0999 N   0  0  0  0  0  0
  -23.4184  -28.8183   23.3019 O   0  0  0  0  0  0
  -28.3668  -26.5667   20.2013 O   0  0  0  0  0  0
  -26.5610  -34.8908   22.4705 O   0  0  0  0  0  0
  -23.5377  -32.1423   23.7418 O   0  0  0  0  0  0
  -31.6100  -19.2676   19.2707 C   0  0  0  0  0  0
  -31.3054  -18.0621   19.9201 C   0  0  0  0  0  0
  -31.2162  -20.4935   19.8317 C   0  0  0  0  0  0
  -30.5902  -18.0522   21.1348 C   0  0  0  0  0  0
  -30.4522  -20.5529   21.0184 C   0  0  0  0  0  0
  -30.1145  -19.3052   21.6641 C   0  0  0  0  0  0
  -27.7422  -22.4229   20.8240 C   0  0  0  0  0  0
  -27.2996  -21.6427   19.8141 C   0  0  0  0  0  0
  -26.8390  -23.3140   21.6661 C   0  0  0  0  0  0
  -27.2972  -24.8018   21.6264 C   0  0  0  0  0  0
  -29.4435  -24.2155   20.4042 C   0  0  0  0  0  0
  -28.1508  -25.1243   20.3557 C   0  0  2  0  0  0
  -29.2716  -19.2963   22.9379 C   0  0  0  0  0  0
  -27.9889  -19.4696   18.7178 C   0  0  0  0  0  0
  -31.5486  -22.6790   21.8992 C   0  0  0  0  0  0
  -30.5256  -16.7022   21.9045 C   0  0  0  0  0  0
  -28.0923  -21.0006   18.6964 C   0  0  0  0  0  0
  -30.2022  -21.9695   21.6387 C   0  0  1  0  0  0
  -30.0069  -15.4921   21.2263 N   0  0  0  0  0  0
  -29.1366  -22.8908   21.0670 N   0  3  2  0  0  0
  -31.4699  -12.4668   19.1104 H   0  0  0  0  0  0
  -30.3550  -11.3377   19.8273 H   0  0  0  0  0  0
  -29.7414  -11.7782   17.4339 H   0  0  0  0  0  0
  -29.6455  -13.4937   17.7531 H   0  0  0  0  0  0
  -27.8451  -11.3009   18.8361 H   0  0  0  0  0  0
  -27.3600  -12.6099   17.7902 H   0  0  0  0  0  0
  -27.6970  -14.2525   19.5602 H   0  0  0  0  0  0
  -28.6948  -11.9711   21.3334 H   0  0  0  0  0  0
  -28.4506  -13.6027   21.8673 H   0  0  0  0  0  0
  -25.2749   -9.5689   22.4763 H   0  0  0  0  0  0
  -23.9989   -7.4648   22.7480 H   0  0  0  0  0  0
  -21.0841   -8.8773   19.8954 H   0  0  0  0  0  0
  -22.3689  -10.9673   19.6169 H   0  0  0  0  0  0
  -21.2008   -7.6152   23.9710 H   0  0  0  0  0  0
  -21.1482   -6.0529   25.9076 H   0  0  0  0  0  0
  -22.0600   -2.7609   23.2849 H   0  0  0  0  0  0
  -22.4098  -11.9873   22.4755 H   0  0  0  0  0  0
  -21.1126  -13.1262   22.2610 H   0  0  0  0  0  0
  -24.6656  -15.8433   20.5195 H   0  0  0  0  0  0
  -26.2831  -15.6257   20.0809 H   0  0  0  0  0  0
  -26.7149  -32.5520   23.1132 H   0  0  0  0  0  0
  -24.9960  -33.9727   25.0402 H   0  0  0  0  0  0
  -22.7001  -31.3095   21.4100 H   0  0  0  0  0  0
  -23.3705  -35.9695   23.3333 H   0  0  0  0  0  0
  -24.3545  -36.8949   22.2064 H   0  0  0  0  0  0
  -23.7253  -37.6537   23.6659 H   0  0  0  0  0  0
  -26.0709  -31.5842   20.6049 H   0  0  0  0  0  0
  -26.8286  -30.8626   21.9976 H   0  0  0  0  0  0
  -28.1093  -29.0490   21.1860 H   0  0  0  0  0  0
  -26.0018  -25.9868   18.9630 H   0  0  0  0  0  0
  -23.9842  -27.3203   19.0021 H   0  0  0  0  0  0
  -23.7230  -30.6024   19.4068 H   0  0  0  0  0  0
  -22.7432  -29.2475   19.8729 H   0  0  0  0  0  0
  -25.1259  -36.1965   25.0813 H   0  0  0  0  0  0
  -20.9931  -28.3286   24.1395 H   0  0  0  0  0  0
  -20.5656  -26.2300   23.3599 H   0  0  0  0  0  0
  -21.6626  -26.7456   22.1205 H   0  0  0  0  0  0
  -19.6908  -25.6292   21.1238 H   0  0  0  0  0  0
  -19.6688  -27.3184   20.6718 H   0  0  0  0  0  0
  -17.4187  -26.6659   21.4020 H   0  0  0  0  0  0
  -18.0332  -26.0072   22.9004 H   0  0  0  0  0  0
  -19.7936  -30.7252   24.2295 H   0  0  0  0  0  0
  -17.5014  -31.6288   24.5171 H   0  0  0  0  0  0
  -15.5330  -30.3005   23.7671 H   0  0  0  0  0  0
  -15.8634  -28.0820   22.7086 H   0  0  0  0  0  0
  -24.5861  -30.7054   25.7777 H   0  0  0  0  0  0
  -24.8885  -32.2830   26.4935 H   0  0  0  0  0  0
  -25.8019  -30.8822   27.0219 H   0  0  0  0  0  0
  -26.2943  -29.6740   24.1213 H   0  0  0  0  0  0
  -27.4108  -29.7311   25.4649 H   0  0  0  0  0  0
  -27.8753  -30.4350   23.9354 H   0  0  0  0  0  0
  -27.2664  -33.3630   26.2057 H   0  0  0  0  0  0
  -28.3828  -32.6891   25.0300 H   0  0  0  0  0  0
  -28.0720  -31.8469   26.5399 H   0  0  0  0  0  0
  -28.2583  -38.0109   24.7518 H   0  0  0  0  0  0
  -28.1079  -36.2628   24.6274 H   0  0  0  0  0  0
  -27.2293  -37.1460   25.8870 H   0  0  0  0  0  0
  -20.9327  -29.8786   21.6926 H   0  0  0  0  0  0
  -26.0187  -38.2853   24.1400 H   0  0  0  0  0  0
  -32.1914  -19.2538   18.3594 H   0  0  0  0  0  0
  -31.6814  -17.1386   19.5047 H   0  0  0  0  0  0
  -31.5157  -21.4049   19.3344 H   0  0  0  0  0  0
  -26.2315  -21.5143   19.7214 H   0  0  0  0  0  0
  -26.7868  -22.9434   22.6908 H   0  0  0  0  0  0
  -25.8243  -23.2455   21.2651 H   0  0  0  0  0  0
  -27.8815  -25.0403   22.5160 H   0  0  0  0  0  0
  -26.4134  -25.4334   21.6954 H   0  0  0  0  0  0
  -30.2065  -24.7499   20.9678 H   0  0  0  0  0  0
  -29.8407  -24.0570   19.4024 H   0  0  0  0  0  0
  -27.6074  -24.7807   19.4763 H   0  0  0  0  0  0
  -28.6059  -18.4354   22.9650 H   0  0  0  0  0  0
  -28.6015  -20.1495   23.0111 H   0  0  0  0  0  0
  -29.9081  -19.2720   23.8233 H   0  0  0  0  0  0
  -28.6393  -19.0261   17.9614 H   0  0  0  0  0  0
  -26.9699  -19.1370   18.5173 H   0  0  0  0  0  0
  -28.2781  -19.0665   19.6864 H   0  0  0  0  0  0
  -32.2147  -22.0278   22.4654 H   0  0  0  0  0  0
  -31.4282  -23.5824   22.4967 H   0  0  0  0  0  0
  -32.0660  -22.9486   20.9765 H   0  0  0  0  0  0
  -29.9613  -16.7946   22.8298 H   0  0  0  0  0  0
  -31.5414  -16.4891   22.2421 H   0  0  0  0  0  0
  -29.1233  -21.3369   18.7131 H   0  0  0  0  0  0
  -27.6932  -21.3696   17.7523 H   0  0  0  0  0  0
  -29.8292  -21.8052   22.6463 H   0  0  0  0  0  0
  -29.0527  -15.2548   21.4464 H   0  0  0  0  0  0
  -28.9909  -23.3198   21.9698 H   0  0  0  0  0  0
  1 25  1  0  0  0
  1 30  2  0  0  0
  1 89  1  0  0  0
  2  3  1  0  0  0
  2 25  1  0  0  0
  2 91  1  0  0  0
  2 92  1  0  0  0
  3  4  1  0  0  0
  3 93  1  0  0  0
  3 94  1  0  0  0
  4  5  1  0  0  0
  4 95  1  0  0  0
  4 96  1  0  0  0
  5  6  1  0  0  0
  5 26  1  0  0  0
  5 97  1  0  0  0
  6 25  1  0  0  0
  6 98  1  0  0  0
  6 99  1  0  0  0
  7  8  2  0  0  0
  7 26  1  0  0  0
  7 29  1  0  0  0
  8  9  1  0  0  0
  8 22  1  0  0  0
  9 10  1  0  0  0
  9 27  2  0  0  0
 10 11  2  0  0  0
 10 15  1  0  0  0
 11 12  1  0  0  0
 11100  1  0  0  0
 12 13  2  0  0  0
 12101  1  0  0  0
 13 14  1  0  0  0
 13 31  1  0  0  0
 14 15  2  0  0  0
 14102  1  0  0  0
 15103  1  0  0  0
 16 17  2  0  0  0
 16 21  1  0  0  0
 16 31  1  0  0  0
 17 18  1  0  0  0
 17104  1  0  0  0
 18 19  2  0  0  0
 18105  1  0  0  0
 19 20  1  0  0  0
 19 24  1  0  0  0
 20 21  2  0  0  0
 20106  1  0  0  0
 21 23  1  0  0  0
 22 28  1  0  0  0
 22 32  2  0  0  0
 26 27  1  0  0  0
 28107  1  0  0  0
 28108  1  0  0  0
 29109  1  0  0  0
 29110  1  0  0  0
 33 34  1  0  0  0
 33 66  1  0  0  0
 33 70  2  0  0  0
 34 36  1  0  0  0
 34 59  1  0  0  0
 34111  1  0  0  0
 35 44  2  0  0  0
 35 45  1  0  0  0
 35 68  1  0  0  0
 36 56  1  0  0  0
 36112  1  0  0  0
 37 39  1  0  0  0
 37 47  1  0  0  0
 37 66  1  0  0  0
 37113  1  0  0  0
 38 43  2  0  0  0
 38 46  1  0  0  0
 38 47  1  0  0  0
 39 64  1  0  0  0
 39 67  2  0  0  0
 40 52  1  0  0  0
 40 53  2  0  0  0
 40 58  1  0  0  0
 41114  1  0  0  0
 41115  1  0  0  0
 41116  1  0  0  0
 41 48  1  0  0  0
 42 43  1  0  0  0
 42 66  1  0  0  0
 42117  1  0  0  0
 42118  1  0  0  0
 43 44  1  0  0  0
 44119  1  0  0  0
 45 46  2  0  0  0
 45120  1  0  0  0
 46121  1  0  0  0
 47122  1  0  0  0
 47123  1  0  0  0
 48 56  1  0  0  0
 48 65  1  0  0  0
 48124  1  0  0  0
 49 50  1  0  0  0
 49 53  1  0  0  0
 49 64  1  0  0  0
 49125  1  0  0  0
 50 51  1  0  0  0
 50126  1  0  0  0
 50127  1  0  0  0
 51 52  1  0  0  0
 51128  1  0  0  0
 51129  1  0  0  0
 52130  1  0  0  0
 52131  1  0  0  0
 53 54  1  0  0  0
 54 55  2  0  0  0
 54132  1  0  0  0
 55 57  1  0  0  0
 55133  1  0  0  0
 56 69  2  0  0  0
 57 58  2  0  0  0
 57134  1  0  0  0
 58135  1  0  0  0
 59 60  1  0  0  0
 59 61  1  0  0  0
 59 62  1  0  0  0
 60136  1  0  0  0
 60137  1  0  0  0
 60138  1  0  0  0
 61139  1  0  0  0
 61140  1  0  0  0
 61141  1  0  0  0
 62142  1  0  0  0
 62143  1  0  0  0
 62144  1  0  0  0
 63 65  1  0  0  0
 63145  1  0  0  0
 63146  1  0  0  0
 63147  1  0  0  0
 64148  1  0  0  0
 65149  1  0  0  0
 68 82  1  0  0  0
 71 72  2  0  0  0
 71 73  1  0  0  0
 71150  1  0  0  0
 72 74  1  0  0  0
 72151  1  0  0  0
 73 75  2  0  0  0
 73152  1  0  0  0
 74 76  2  0  0  0
 74 86  1  0  0  0
 75 76  1  0  0  0
 75 88  1  0  0  0
 76 83  1  0  0  0
 77 78  2  0  0  0
 77 79  1  0  0  0
 77 90  1  0  0  0
 78 87  1  0  0  0
 78153  1  0  0  0
 79 80  1  0  0  0
 79154  1  0  0  0
 79155  1  0  0  0
 80 82  1  0  0  0
 80156  1  0  0  0
 80157  1  0  0  0
 81 82  1  0  0  0
 81158  1  0  0  0
 81159  1  0  0  0
 81 90  1  0  0  0
 82160  1  0  0  0
 83161  1  0  0  0
 83162  1  0  0  0
 83163  1  0  0  0
 84 87  1  0  0  0
 84164  1  0  0  0
 84165  1  0  0  0
 84166  1  0  0  0
 85167  1  0  0  0
 85168  1  0  0  0
 85169  1  0  0  0
 85 88  1  0  0  0
 86 89  1  0  0  0
 86170  1  0  0  0
 86171  1  0  0  0
 87172  1  0  0  0
 87173  1  0  0  0
 88 90  1  0  0  0
 88174  1  0  0  0
 89175  1  0  0  0
 90176  1  0  0  0
M  CHG  1  90   1
M  ISO  4   1 100  68 101  82 101  89 100
M  END
> <chiral flag>
0

> <version>
0

> <s_m_source_file>
/data/baiqing/PycharmProjects/Reinvent-master-3.2/result/LINK_invent/BTK/process_docking_weight1_custom_product_contain_oxygen_bond_distance_aromatic_linkinvent_7_9_3/rearranged_h_0034.sdf

> <i_m_source_file_index>
28

> <r_mmod_Potential_Energy-OPLS-2005>
-19.8206272125244

> <r_mmod_Stretch_Energy-OPLS-2005>
67.8246841430664

> <r_mmod_Bend_Energy-OPLS-2005>
191.540328979492

> <r_mmod_Torsional_Energy-OPLS-2005>
246.015670776367

> <r_mmod_Improper_Torsional_Energy-OPLS-2005>
5.14058065414429

> <r_mmod_Van_der_Waal_Energy-OPLS-2005>
162.43293762207

> <r_mmod_Electrostatic_Energy-OPLS-2005>
-310.743713378906

> <r_mmod_Solvation_Energy-OPLS-2005>
-406.145751953125

> <b_mmod_Minimization_Converged-OPLS-2005>
0

> <r_mmod_RMS_Derivative-OPLS-2005>
3.01169109344482

$$$$
28
                    3D
 Structure written by MMmdl.
164173  0  0  1  0            999 V2000
  -30.5670  -14.7418   20.4432 C   0  0  0  0  0  0
  -30.4399  -12.4471   19.4561 C   0  0  0  0  0  0
  -29.5085  -12.5076   18.2244 C   0  0  0  0  0  0
  -28.0354  -12.3106   18.6397 C   0  0  0  0  0  0
  -27.6389  -13.1894   19.8528 C   0  0  2  0  0  0
  -28.6900  -13.1271   20.9815 C   0  0  0  0  0  0
  -25.2440  -13.7946   20.5733 C   0  0  0  0  0  0
  -24.1740  -13.0252   20.9290 C   0  0  0  0  0  0
  -24.6334  -11.6759   20.8791 C   0  0  0  0  0  0
  -23.9020  -10.4177   21.0426 C   0  0  0  0  0  0
  -24.3596   -9.4118   21.9219 C   0  0  0  0  0  0
  -23.6275   -8.2162   22.0780 C   0  0  0  0  0  0
  -22.4254   -8.0235   21.3561 C   0  0  0  0  0  0
  -21.9865   -9.0193   20.4660 C   0  0  0  0  0  0
  -22.7194  -10.2056   20.3060 C   0  0  0  0  0  0
  -21.6834   -6.0715   22.5286 C   0  0  0  0  0  0
  -21.3995   -6.5624   23.8211 C   0  0  0  0  0  0
  -21.3648   -5.6786   24.9185 C   0  0  0  0  0  0
  -21.6043   -4.3046   24.7228 C   0  0  0  0  0  0
  -21.8813   -3.8136   23.4343 C   0  0  0  0  0  0
  -21.9180   -4.6952   22.3394 C   0  0  0  0  0  0
  -22.7769  -13.5099   21.1929 C   0  0  0  0  0  0
  -22.1641   -4.2141   21.0965 F   0  0  0  0  0  0
  -21.5639   -3.4533   25.7736 F   0  0  0  0  0  0
  -29.9839  -13.4968   20.3918 N   0  0  0  0  0  0
  -26.2887  -12.9146   20.3297 N   0  0  0  0  0  0
  -25.9247  -11.6335   20.5789 N   0  0  0  0  0  0
  -22.0343  -12.8154   22.0499 N   0  0  0  0  0  0
  -25.3945  -15.1621   20.4091 N   0  0  0  0  0  0
  -31.7728  -14.8712   20.1980 O   0  0  0  0  0  0
  -21.6602   -6.8863   21.4256 O   0  0  0  0  0  0
  -22.3509  -14.5424   20.6745 O   0  0  0  0  0  0
  -24.6243  -31.8570   23.2024 C   0  0  0  0  0  0
  -25.9098  -32.4772   23.8344 C   0  0  1  0  0  0
  -27.2479  -27.3234   20.1391 C   0  0  0  0  0  0
  -25.5918  -33.8573   24.2272 N   0  0  0  0  0  0
  -23.4198  -30.4762   21.5434 C   0  0  2  0  0  0
  -24.8734  -28.9256   20.1182 C   0  0  0  0  0  0
  -22.7459  -29.4591   22.4942 C   0  0  0  0  0  0
  -18.0278  -28.1390   22.8466 C   0  0  0  0  0  0
  -24.1486  -36.7299   23.2639 C   0  0  0  0  0  0
  -25.9581  -30.7919   21.3710 C   0  0  0  0  0  0
  -26.0376  -29.4167   20.7197 C   0  0  0  0  0  0
  -27.2258  -28.6285   20.7154 C   0  0  0  0  0  0
  -26.0567  -26.8783   19.5188 C   0  0  0  0  0  0
  -24.8835  -27.6612   19.5087 C   0  0  0  0  0  0
  -23.6375  -29.8035   20.1616 C   0  0  0  0  0  0
  -25.4101  -36.3070   24.0321 C   0  0  1  0  0  0
  -20.5881  -28.3679   23.1281 C   0  0  2  0  0  0
  -20.6771  -26.9405   22.5407 C   0  0  0  0  0  0
  -19.5758  -26.6370   21.5205 C   0  0  0  0  0  0
  -18.1935  -26.7927   22.1606 C   0  0  0  0  0  0
  -19.1536  -28.8845   23.2864 C   0  0  0  0  0  0
  -18.9462  -30.1454   23.8874 C   0  0  0  0  0  0
  -17.6469  -30.6584   24.0565 C   0  0  0  0  0  0
  -25.9044  -34.9450   23.5092 C   0  0  0  0  0  0
  -16.5354  -29.9088   23.6345 C   0  0  0  0  0  0
  -16.7272  -28.6513   23.0340 C   0  0  0  0  0  0
  -26.4491  -31.6585   25.0714 C   0  0  0  0  0  0
  -25.3747  -31.3737   26.1462 C   0  0  0  0  0  0
  -27.0332  -30.3008   24.6159 C   0  0  0  0  0  0
  -27.6042  -32.4330   25.7483 C   0  0  0  0  0  0
  -27.5572  -37.1796   24.8446 C   0  0  0  0  0  0
  -21.4184  -29.3026   22.3673 N   0  0  0  0  0  0
  -26.4281  -37.3763   23.9404 N   0  0  0  0  0  0
  -24.6854  -31.0573   22.0975 N   0  0  0  0  0  0
  -23.4177  -28.8136   23.3039 O   0  0  0  0  0  0
  -28.4066  -26.5273   20.1783 O   0  0  0  0  0  0
  -26.5616  -34.8910   22.4664 O   0  0  0  0  0  0
  -23.5406  -32.1365   23.7356 O   0  0  0  0  0  0
  -31.1352  -19.3484   21.0763 C   0  0  0  0  0  0
  -30.9930  -17.9335   21.0175 C   0  0  0  0  0  0
  -30.1841  -20.2523   20.5350 C   0  0  0  0  0  0
  -29.0649  -19.6565   19.8942 C   0  0  0  0  0  0
  -28.8686  -18.2150   19.8850 C   0  0  0  0  0  0
  -29.8601  -17.3050   20.4428 C   0  0  0  0  0  0
  -28.6023  -23.1018   21.6879 C   0  0  0  0  0  0
  -27.9024  -24.4726   21.5989 C   0  0  0  0  0  0
  -29.6232  -24.2121   19.9629 C   0  0  0  0  0  0
  -28.3206  -25.0465   20.2324 C   0  0  2  0  0  0
  -28.1152  -20.6330   19.1885 C   0  0  0  0  0  0
  -26.3032  -18.1378   20.0389 C   0  0  0  0  0  0
  -30.5088  -21.8059   20.5412 C   0  0  0  0  0  0
  -27.5599  -17.7048   19.2510 C   0  0  0  0  0  0
  -29.4958  -22.9212   20.6970 N   0  0  0  0  0  0
  -29.7027  -15.8238   20.5078 N   0  0  0  0  0  0
  -28.3571  -22.2986   22.5908 O   0  0  0  0  0  0
  -27.5189  -16.3869   19.1907 F   0  0  0  0  0  0
  -27.4699  -18.0919   17.9797 F   0  0  0  0  0  0
  -31.4805  -12.5865   19.1552 H   0  0  0  0  0  0
  -30.3908  -11.4677   19.9318 H   0  0  0  0  0  0
  -29.7869  -11.7490   17.4920 H   0  0  0  0  0  0
  -29.6272  -13.4710   17.7267 H   0  0  0  0  0  0
  -27.8888  -11.2572   18.8787 H   0  0  0  0  0  0
  -27.3821  -12.5286   17.7942 H   0  0  0  0  0  0
  -27.6266  -14.1948   19.4630 H   0  0  0  0  0  0
  -28.7417  -12.1203   21.3999 H   0  0  0  0  0  0
  -28.4248  -13.7967   21.8017 H   0  0  0  0  0  0
  -25.2734   -9.5594   22.4816 H   0  0  0  0  0  0
  -23.9971   -7.4536   22.7476 H   0  0  0  0  0  0
  -21.0790   -8.8699   19.8978 H   0  0  0  0  0  0
  -22.3672  -10.9610   19.6172 H   0  0  0  0  0  0
  -21.1980   -7.6139   23.9713 H   0  0  0  0  0  0
  -21.1488   -6.0530   25.9091 H   0  0  0  0  0  0
  -22.0610   -2.7603   23.2852 H   0  0  0  0  0  0
  -22.3822  -11.9772   22.4914 H   0  0  0  0  0  0
  -21.0972  -13.1268   22.2648 H   0  0  0  0  0  0
  -24.5886  -15.7750   20.4568 H   0  0  0  0  0  0
  -26.1854  -15.5733   19.9298 H   0  0  0  0  0  0
  -26.7165  -32.5454   23.1098 H   0  0  0  0  0  0
  -25.0055  -33.9704   25.0399 H   0  0  0  0  0  0
  -22.7147  -31.2967   21.3959 H   0  0  0  0  0  0
  -23.3728  -35.9655   23.3290 H   0  0  0  0  0  0
  -24.3575  -36.8930   22.2057 H   0  0  0  0  0  0
  -23.7276  -37.6505   23.6676 H   0  0  0  0  0  0
  -26.0801  -31.5515   20.5981 H   0  0  0  0  0  0
  -26.8433  -30.8489   21.9925 H   0  0  0  0  0  0
  -28.1223  -29.0047   21.1879 H   0  0  0  0  0  0
  -26.0029  -25.9194   19.0305 H   0  0  0  0  0  0
  -23.9911  -27.2770   19.0342 H   0  0  0  0  0  0
  -23.7567  -30.5783   19.4028 H   0  0  0  0  0  0
  -22.7592  -29.2300   19.8589 H   0  0  0  0  0  0
  -25.1284  -36.1906   25.0813 H   0  0  0  0  0  0
  -20.9954  -28.3267   24.1410 H   0  0  0  0  0  0
  -20.5654  -26.2299   23.3604 H   0  0  0  0  0  0
  -21.6648  -26.7428   22.1226 H   0  0  0  0  0  0
  -19.6931  -25.6276   21.1251 H   0  0  0  0  0  0
  -19.6711  -27.3163   20.6726 H   0  0  0  0  0  0
  -17.4206  -26.6651   21.4021 H   0  0  0  0  0  0
  -18.0344  -26.0072   22.9001 H   0  0  0  0  0  0
  -19.7939  -30.7280   24.2224 H   0  0  0  0  0  0
  -17.5019  -31.6258   24.5178 H   0  0  0  0  0  0
  -15.5358  -30.2989   23.7659 H   0  0  0  0  0  0
  -15.8669  -28.0831   22.7061 H   0  0  0  0  0  0
  -24.5871  -30.7145   25.7789 H   0  0  0  0  0  0
  -24.9026  -32.2939   26.4927 H   0  0  0  0  0  0
  -25.8089  -30.8859   27.0203 H   0  0  0  0  0  0
  -26.2902  -29.6764   24.1190 H   0  0  0  0  0  0
  -27.4037  -29.7249   25.4647 H   0  0  0  0  0  0
  -27.8762  -30.4286   23.9367 H   0  0  0  0  0  0
  -27.2629  -33.3603   26.2091 H   0  0  0  0  0  0
  -28.3843  -32.6947   25.0324 H   0  0  0  0  0  0
  -28.0732  -31.8464   26.5385 H   0  0  0  0  0  0
  -28.2570  -38.0107   24.7495 H   0  0  0  0  0  0
  -28.1092  -36.2645   24.6262 H   0  0  0  0  0  0
  -27.2301  -37.1419   25.8850 H   0  0  0  0  0  0
  -20.9362  -29.8754   21.6879 H   0  0  0  0  0  0
  -26.0146  -38.2825   24.1428 H   0  0  0  0  0  0
  -32.0278  -19.7499   21.5392 H   0  0  0  0  0  0
  -31.7762  -17.3229   21.4439 H   0  0  0  0  0  0
  -28.2641  -25.1046   22.4111 H   0  0  0  0  0  0
  -26.8208  -24.3804   21.6966 H   0  0  0  0  0  0
  -30.4983  -24.7389   20.3485 H   0  0  0  0  0  0
  -29.7882  -24.0545   18.8972 H   0  0  0  0  0  0
  -27.6105  -24.6914   19.4857 H   0  0  0  0  0  0
  -27.5593  -21.2160   19.9209 H   0  0  0  0  0  0
  -27.3713  -20.2179   18.5207 H   0  0  0  0  0  0
  -28.6899  -21.3235   18.5710 H   0  0  0  0  0  0
  -26.3124  -17.7249   21.0480 H   0  0  0  0  0  0
  -25.3973  -17.7909   19.5438 H   0  0  0  0  0  0
  -26.1944  -19.2146   20.1492 H   0  0  0  0  0  0
  -31.0285  -21.9949   19.6010 H   0  0  0  0  0  0
  -31.2641  -21.9722   21.3103 H   0  0  0  0  0  0
  -28.7382  -15.5234   20.4979 H   0  0  0  0  0  0
  1 25  1  0  0  0
  1 30  2  0  0  0
  1 86  1  0  0  0
  2  3  1  0  0  0
  2 25  1  0  0  0
  2 90  1  0  0  0
  2 91  1  0  0  0
  3  4  1  0  0  0
  3 92  1  0  0  0
  3 93  1  0  0  0
  4  5  1  0  0  0
  4 94  1  0  0  0
  4 95  1  0  0  0
  5  6  1  0  0  0
  5 26  1  0  0  0
  5 96  1  0  0  0
  6 25  1  0  0  0
  6 97  1  0  0  0
  6 98  1  0  0  0
  7  8  2  0  0  0
  7 26  1  0  0  0
  7 29  1  0  0  0
  8  9  1  0  0  0
  8 22  1  0  0  0
  9 10  1  0  0  0
  9 27  2  0  0  0
 10 11  2  0  0  0
 10 15  1  0  0  0
 11 12  1  0  0  0
 11 99  1  0  0  0
 12 13  2  0  0  0
 12100  1  0  0  0
 13 14  1  0  0  0
 13 31  1  0  0  0
 14 15  2  0  0  0
 14101  1  0  0  0
 15102  1  0  0  0
 16 17  2  0  0  0
 16 21  1  0  0  0
 16 31  1  0  0  0
 17 18  1  0  0  0
 17103  1  0  0  0
 18 19  2  0  0  0
 18104  1  0  0  0
 19 20  1  0  0  0
 19 24  1  0  0  0
 20 21  2  0  0  0
 20105  1  0  0  0
 21 23  1  0  0  0
 22 28  1  0  0  0
 22 32  2  0  0  0
 26 27  1  0  0  0
 28106  1  0  0  0
 28107  1  0  0  0
 29108  1  0  0  0
 29109  1  0  0  0
 33 34  1  0  0  0
 33 66  1  0  0  0
 33 70  2  0  0  0
 34 36  1  0  0  0
 34 59  1  0  0  0
 34110  1  0  0  0
 35 44  2  0  0  0
 35 45  1  0  0  0
 35 68  1  0  0  0
 36 56  1  0  0  0
 36111  1  0  0  0
 37 39  1  0  0  0
 37 47  1  0  0  0
 37 66  1  0  0  0
 37112  1  0  0  0
 38 43  2  0  0  0
 38 46  1  0  0  0
 38 47  1  0  0  0
 39 64  1  0  0  0
 39 67  2  0  0  0
 40 52  1  0  0  0
 40 53  2  0  0  0
 40 58  1  0  0  0
 41113  1  0  0  0
 41114  1  0  0  0
 41115  1  0  0  0
 41 48  1  0  0  0
 42 43  1  0  0  0
 42 66  1  0  0  0
 42116  1  0  0  0
 42117  1  0  0  0
 43 44  1  0  0  0
 44118  1  0  0  0
 45 46  2  0  0  0
 45119  1  0  0  0
 46120  1  0  0  0
 47121  1  0  0  0
 47122  1  0  0  0
 48 56  1  0  0  0
 48 65  1  0  0  0
 48123  1  0  0  0
 49 50  1  0  0  0
 49 53  1  0  0  0
 49 64  1  0  0  0
 49124  1  0  0  0
 50 51  1  0  0  0
 50125  1  0  0  0
 50126  1  0  0  0
 51 52  1  0  0  0
 51127  1  0  0  0
 51128  1  0  0  0
 52129  1  0  0  0
 52130  1  0  0  0
 53 54  1  0  0  0
 54 55  2  0  0  0
 54131  1  0  0  0
 55 57  1  0  0  0
 55132  1  0  0  0
 56 69  2  0  0  0
 57 58  2  0  0  0
 57133  1  0  0  0
 58134  1  0  0  0
 59 60  1  0  0  0
 59 61  1  0  0  0
 59 62  1  0  0  0
 60135  1  0  0  0
 60136  1  0  0  0
 60137  1  0  0  0
 61138  1  0  0  0
 61139  1  0  0  0
 61140  1  0  0  0
 62141  1  0  0  0
 62142  1  0  0  0
 62143  1  0  0  0
 63 65  1  0  0  0
 63144  1  0  0  0
 63145  1  0  0  0
 63146  1  0  0  0
 64147  1  0  0  0
 65148  1  0  0  0
 68 80  1  0  0  0
 71 72  2  0  0  0
 71 73  1  0  0  0
 71149  1  0  0  0
 72 76  1  0  0  0
 72150  1  0  0  0
 73 74  2  0  0  0
 73 83  1  0  0  0
 74 75  1  0  0  0
 74 81  1  0  0  0
 75 76  2  0  0  0
 75 84  1  0  0  0
 76 86  1  0  0  0
 77 78  1  0  0  0
 77 85  1  0  0  0
 77 87  2  0  0  0
 78 80  1  0  0  0
 78151  1  0  0  0
 78152  1  0  0  0
 79 80  1  0  0  0
 79 85  1  0  0  0
 79153  1  0  0  0
 79154  1  0  0  0
 80155  1  0  0  0
 81156  1  0  0  0
 81157  1  0  0  0
 81158  1  0  0  0
 82159  1  0  0  0
 82160  1  0  0  0
 82161  1  0  0  0
 82 84  1  0  0  0
 83 85  1  0  0  0
 83162  1  0  0  0
 83163  1  0  0  0
 84 88  1  0  0  0
 84 89  1  0  0  0
 86164  1  0  0  0
M  ISO  4   1 100  68 101  80 101  86 100
M  END
> <chiral flag>
0

> <version>
0

> <s_m_source_file>
/data/baiqing/PycharmProjects/Reinvent-master-3.2/result/LINK_invent/BTK/process_docking_weight1_custom_product_contain_oxygen_bond_distance_aromatic_linkinvent_7_9_3/rearranged_h_0034.sdf

> <i_m_source_file_index>
29

> <r_mmod_Potential_Energy-OPLS-2005>
157.369140625

> <r_mmod_Stretch_Energy-OPLS-2005>
99.6029205322266

> <r_mmod_Bend_Energy-OPLS-2005>
197.719833374023

> <r_mmod_Torsional_Energy-OPLS-2005>
246.596054077148

> <r_mmod_Improper_Torsional_Energy-OPLS-2005>
8.96116733551025

> <r_mmod_Van_der_Waal_Energy-OPLS-2005>
157.751953125

> <r_mmod_Electrostatic_Energy-OPLS-2005>
-396.708129882812

> <r_mmod_Solvation_Energy-OPLS-2005>
-226.529067993164

> <b_mmod_Minimization_Converged-OPLS-2005>
0

> <r_mmod_RMS_Derivative-OPLS-2005>
4.1273512840271

$$$$
29
                    3D
 Structure written by MMmdl.
167176  0  0  1  0            999 V2000
  -30.6226  -14.7164   20.4408 C   0  0  0  0  0  0
  -30.4274  -12.4306   19.4746 C   0  0  0  0  0  0
  -29.5068  -12.4970   18.2366 C   0  0  0  0  0  0
  -28.0316  -12.3317   18.6495 C   0  0  0  0  0  0
  -27.6436  -13.2300   19.8545 C   0  0  2  0  0  0
  -28.6876  -13.1530   20.9898 C   0  0  0  0  0  0
  -25.2519  -13.8201   20.5698 C   0  0  0  0  0  0
  -24.1806  -13.0448   20.9210 C   0  0  0  0  0  0
  -24.6389  -11.6926   20.8751 C   0  0  0  0  0  0
  -23.9065  -10.4300   21.0410 C   0  0  0  0  0  0
  -24.3615   -9.4214   21.9189 C   0  0  0  0  0  0
  -23.6291   -8.2246   22.0752 C   0  0  0  0  0  0
  -22.4274   -8.0280   21.3540 C   0  0  0  0  0  0
  -21.9919   -9.0255   20.4644 C   0  0  0  0  0  0
  -22.7243  -10.2140   20.3058 C   0  0  0  0  0  0
  -21.6856   -6.0736   22.5281 C   0  0  0  0  0  0
  -21.4010   -6.5637   23.8215 C   0  0  0  0  0  0
  -21.3660   -5.6793   24.9174 C   0  0  0  0  0  0
  -21.6044   -4.3052   24.7226 C   0  0  0  0  0  0
  -21.8820   -3.8145   23.4348 C   0  0  0  0  0  0
  -21.9193   -4.6964   22.3402 C   0  0  0  0  0  0
  -22.7829  -13.5228   21.1871 C   0  0  0  0  0  0
  -22.1664   -4.2151   21.0981 F   0  0  0  0  0  0
  -21.5632   -3.4540   25.7739 F   0  0  0  0  0  0
  -29.9934  -13.4929   20.4114 N   0  0  0  0  0  0
  -26.2948  -12.9406   20.3315 N   0  0  0  0  0  0
  -25.9322  -11.6550   20.5772 N   0  0  0  0  0  0
  -22.0476  -12.8215   22.0425 N   0  0  0  0  0  0
  -25.4227  -15.1921   20.4096 N   0  0  0  0  0  0
  -31.8149  -14.7909   20.1289 O   0  0  0  0  0  0
  -21.6637   -6.8878   21.4239 O   0  0  0  0  0  0
  -22.3522  -14.5536   20.6716 O   0  0  0  0  0  0
  -24.6299  -31.8551   23.2014 C   0  0  0  0  0  0
  -25.9126  -32.4745   23.8343 C   0  0  1  0  0  0
  -27.2047  -27.2505   20.1414 C   0  0  0  0  0  0
  -25.5918  -33.8555   24.2260 N   0  0  0  0  0  0
  -23.4276  -30.4786   21.5448 C   0  0  2  0  0  0
  -24.8754  -28.9303   20.1079 C   0  0  0  0  0  0
  -22.7495  -29.4592   22.4921 C   0  0  0  0  0  0
  -18.0283  -28.1396   22.8466 C   0  0  0  0  0  0
  -24.1482  -36.7258   23.2644 C   0  0  0  0  0  0
  -25.9743  -30.7610   21.3900 C   0  0  0  0  0  0
  -26.0431  -29.3822   20.7356 C   0  0  0  0  0  0
  -27.2097  -28.5506   20.7517 C   0  0  0  0  0  0
  -26.0428  -26.9074   19.4194 C   0  0  0  0  0  0
  -24.8799  -27.6984   19.4379 C   0  0  0  0  0  0
  -23.6471  -29.8188   20.1588 C   0  0  0  0  0  0
  -25.4109  -36.3059   24.0335 C   0  0  1  0  0  0
  -20.5891  -28.3680   23.1275 C   0  0  2  0  0  0
  -20.6779  -26.9401   22.5411 C   0  0  0  0  0  0
  -19.5748  -26.6374   21.5218 C   0  0  0  0  0  0
  -18.1920  -26.7929   22.1621 C   0  0  0  0  0  0
  -19.1544  -28.8856   23.2848 C   0  0  0  0  0  0
  -18.9476  -30.1459   23.8865 C   0  0  0  0  0  0
  -17.6486  -30.6591   24.0560 C   0  0  0  0  0  0
  -25.9066  -34.9433   23.5102 C   0  0  0  0  0  0
  -16.5365  -29.9088   23.6353 C   0  0  0  0  0  0
  -16.7273  -28.6514   23.0353 C   0  0  0  0  0  0
  -26.4498  -31.6576   25.0732 C   0  0  0  0  0  0
  -25.3719  -31.3719   26.1440 C   0  0  0  0  0  0
  -27.0362  -30.3005   24.6220 C   0  0  0  0  0  0
  -27.6037  -32.4337   25.7500 C   0  0  0  0  0  0
  -27.5564  -37.1773   24.8472 C   0  0  0  0  0  0
  -21.4207  -29.3023   22.3658 N   0  0  0  0  0  0
  -26.4273  -37.3763   23.9426 N   0  0  0  0  0  0
  -24.6954  -31.0504   22.1005 N   0  0  0  0  0  0
  -23.4191  -28.8130   23.3026 O   0  0  0  0  0  0
  -28.2820  -26.3343   20.1773 O   0  0  0  0  0  0
  -26.5640  -34.8906   22.4678 O   0  0  0  0  0  0
  -23.5445  -32.1383   23.7296 O   0  0  0  0  0  0
  -30.5455  -19.8586   19.0276 C   0  0  0  0  0  0
  -30.8366  -17.4294   18.9739 C   0  0  0  0  0  0
  -31.0582  -18.7016   18.4124 C   0  0  0  0  0  0
  -29.7715  -19.7989   20.2041 C   0  0  0  0  0  0
  -29.4998  -18.4599   20.7376 C   0  0  0  0  0  0
  -30.0732  -17.2489   20.1518 C   0  0  0  0  0  0
  -27.1087  -22.0156   20.5308 C   0  0  0  0  0  0
  -26.3708  -21.0391   19.9787 C   0  0  0  0  0  0
  -26.6579  -23.0116   21.5840 C   0  0  0  0  0  0
  -26.6948  -24.4369   21.0231 C   0  0  0  0  0  0
  -28.9435  -23.7091   19.9680 C   0  0  0  0  0  0
  -28.1314  -24.9072   20.6933 C   0  0  1  0  0  0
  -31.8738  -18.8365   17.1415 C   0  0  0  0  0  0
  -28.6006  -18.2869   21.9511 C   0  0  0  0  0  0
  -29.4534  -21.2214   20.8641 C   0  0  0  0  0  0
  -29.8626  -15.8611   20.6495 N   0  0  0  0  0  0
  -28.5316  -22.2222   20.1560 N   0  3  1  0  0  0
  -31.4697  -12.5417   19.1714 H   0  0  0  0  0  0
  -30.3610  -11.4511   19.9520 H   0  0  0  0  0  0
  -29.7806  -11.7207   17.5208 H   0  0  0  0  0  0
  -29.6428  -13.4501   17.7231 H   0  0  0  0  0  0
  -27.8803  -11.2829   18.9084 H   0  0  0  0  0  0
  -27.3748  -12.5319   17.8021 H   0  0  0  0  0  0
  -27.6440  -14.2538   19.4791 H   0  0  0  0  0  0
  -28.7128  -12.1527   21.4244 H   0  0  0  0  0  0
  -28.4279  -13.8329   21.8029 H   0  0  0  0  0  0
  -25.2759   -9.5694   22.4774 H   0  0  0  0  0  0
  -24.0006   -7.4636   22.7472 H   0  0  0  0  0  0
  -21.0856   -8.8767   19.8945 H   0  0  0  0  0  0
  -22.3696  -10.9675   19.6171 H   0  0  0  0  0  0
  -21.1992   -7.6146   23.9717 H   0  0  0  0  0  0
  -21.1486   -6.0521   25.9079 H   0  0  0  0  0  0
  -22.0597   -2.7611   23.2846 H   0  0  0  0  0  0
  -22.4093  -11.9871   22.4796 H   0  0  0  0  0  0
  -21.1097  -13.1241   22.2630 H   0  0  0  0  0  0
  -24.6508  -15.8429   20.5021 H   0  0  0  0  0  0
  -26.2629  -15.6270   20.0501 H   0  0  0  0  0  0
  -26.7166  -32.5404   23.1057 H   0  0  0  0  0  0
  -25.0053  -33.9698   25.0394 H   0  0  0  0  0  0
  -22.7246  -31.3021   21.4006 H   0  0  0  0  0  0
  -23.3762  -35.9573   23.3318 H   0  0  0  0  0  0
  -24.3561  -36.8888   22.2057 H   0  0  0  0  0  0
  -23.7236  -37.6457   23.6672 H   0  0  0  0  0  0
  -26.1187  -31.5192   20.6194 H   0  0  0  0  0  0
  -26.8500  -30.8071   22.0253 H   0  0  0  0  0  0
  -28.0961  -28.8822   21.2724 H   0  0  0  0  0  0
  -26.0224  -26.0067   18.8261 H   0  0  0  0  0  0
  -23.9998  -27.3645   18.9070 H   0  0  0  0  0  0
  -23.7733  -30.6010   19.4088 H   0  0  0  0  0  0
  -22.7647  -29.2560   19.8493 H   0  0  0  0  0  0
  -25.1290  -36.1880   25.0826 H   0  0  0  0  0  0
  -20.9961  -28.3256   24.1409 H   0  0  0  0  0  0
  -20.5726  -26.2275   23.3606 H   0  0  0  0  0  0
  -21.6638  -26.7446   22.1180 H   0  0  0  0  0  0
  -19.6934  -25.6287   21.1245 H   0  0  0  0  0  0
  -19.6721  -27.3180   20.6748 H   0  0  0  0  0  0
  -17.4204  -26.6678   21.4005 H   0  0  0  0  0  0
  -18.0303  -26.0081   22.9026 H   0  0  0  0  0  0
  -19.7965  -30.7265   24.2216 H   0  0  0  0  0  0
  -17.5052  -31.6276   24.5144 H   0  0  0  0  0  0
  -15.5367  -30.2990   23.7709 H   0  0  0  0  0  0
  -15.8662  -28.0837   22.7092 H   0  0  0  0  0  0
  -24.5905  -30.7056   25.7758 H   0  0  0  0  0  0
  -24.8887  -32.2887   26.4833 H   0  0  0  0  0  0
  -25.8014  -30.8911   27.0241 H   0  0  0  0  0  0
  -26.2941  -29.6726   24.1272 H   0  0  0  0  0  0
  -27.4099  -29.7278   25.4721 H   0  0  0  0  0  0
  -27.8796  -30.4305   23.9436 H   0  0  0  0  0  0
  -27.2634  -33.3660   26.2015 H   0  0  0  0  0  0
  -28.3858  -32.6870   25.0331 H   0  0  0  0  0  0
  -28.0686  -31.8518   26.5470 H   0  0  0  0  0  0
  -28.2559  -38.0085   24.7526 H   0  0  0  0  0  0
  -28.1080  -36.2617   24.6283 H   0  0  0  0  0  0
  -27.2279  -37.1393   25.8873 H   0  0  0  0  0  0
  -20.9391  -29.8734   21.6853 H   0  0  0  0  0  0
  -26.0152  -38.2826   24.1476 H   0  0  0  0  0  0
  -30.7837  -20.8213   18.5951 H   0  0  0  0  0  0
  -31.2542  -16.5741   18.4621 H   0  0  0  0  0  0
  -25.3395  -20.8911   20.2645 H   0  0  0  0  0  0
  -26.7788  -20.3644   19.2388 H   0  0  0  0  0  0
  -27.2862  -22.9204   22.4707 H   0  0  0  0  0  0
  -25.6428  -22.7672   21.8954 H   0  0  0  0  0  0
  -26.2364  -25.1218   21.7366 H   0  0  0  0  0  0
  -26.0653  -24.4211   20.1384 H   0  0  0  0  0  0
  -30.0095  -23.8255   20.1620 H   0  0  0  0  0  0
  -28.8328  -23.8862   18.8984 H   0  0  0  0  0  0
  -28.6041  -24.9773   21.6751 H   0  0  0  0  0  0
  -32.5764  -19.6674   17.2172 H   0  0  0  0  0  0
  -31.2196  -19.0204   16.2883 H   0  0  0  0  0  0
  -32.4488  -17.9319   16.9392 H   0  0  0  0  0  0
  -29.1846  -18.0126   22.8298 H   0  0  0  0  0  0
  -27.8748  -17.4935   21.7678 H   0  0  0  0  0  0
  -28.0260  -19.1825   22.1795 H   0  0  0  0  0  0
  -30.4232  -21.7062   20.9775 H   0  0  0  0  0  0
  -29.1087  -21.0887   21.8895 H   0  0  0  0  0  0
  -28.9654  -15.6894   21.0751 H   0  0  0  0  0  0
  -28.6094  -21.8970   19.2050 H   0  0  0  0  0  0
  1 25  1  0  0  0
  1 30  2  0  0  0
  1 86  1  0  0  0
  2  3  1  0  0  0
  2 25  1  0  0  0
  2 88  1  0  0  0
  2 89  1  0  0  0
  3  4  1  0  0  0
  3 90  1  0  0  0
  3 91  1  0  0  0
  4  5  1  0  0  0
  4 92  1  0  0  0
  4 93  1  0  0  0
  5  6  1  0  0  0
  5 26  1  0  0  0
  5 94  1  0  0  0
  6 25  1  0  0  0
  6 95  1  0  0  0
  6 96  1  0  0  0
  7  8  2  0  0  0
  7 26  1  0  0  0
  7 29  1  0  0  0
  8  9  1  0  0  0
  8 22  1  0  0  0
  9 10  1  0  0  0
  9 27  2  0  0  0
 10 11  2  0  0  0
 10 15  1  0  0  0
 11 12  1  0  0  0
 11 97  1  0  0  0
 12 13  2  0  0  0
 12 98  1  0  0  0
 13 14  1  0  0  0
 13 31  1  0  0  0
 14 15  2  0  0  0
 14 99  1  0  0  0
 15100  1  0  0  0
 16 17  2  0  0  0
 16 21  1  0  0  0
 16 31  1  0  0  0
 17 18  1  0  0  0
 17101  1  0  0  0
 18 19  2  0  0  0
 18102  1  0  0  0
 19 20  1  0  0  0
 19 24  1  0  0  0
 20 21  2  0  0  0
 20103  1  0  0  0
 21 23  1  0  0  0
 22 28  1  0  0  0
 22 32  2  0  0  0
 26 27  1  0  0  0
 28104  1  0  0  0
 28105  1  0  0  0
 29106  1  0  0  0
 29107  1  0  0  0
 33 34  1  0  0  0
 33 66  1  0  0  0
 33 70  2  0  0  0
 34 36  1  0  0  0
 34 59  1  0  0  0
 34108  1  0  0  0
 35 44  2  0  0  0
 35 45  1  0  0  0
 35 68  1  0  0  0
 36 56  1  0  0  0
 36109  1  0  0  0
 37 39  1  0  0  0
 37 47  1  0  0  0
 37 66  1  0  0  0
 37110  1  0  0  0
 38 43  2  0  0  0
 38 46  1  0  0  0
 38 47  1  0  0  0
 39 64  1  0  0  0
 39 67  2  0  0  0
 40 52  1  0  0  0
 40 53  2  0  0  0
 40 58  1  0  0  0
 41111  1  0  0  0
 41112  1  0  0  0
 41113  1  0  0  0
 41 48  1  0  0  0
 42 43  1  0  0  0
 42 66  1  0  0  0
 42114  1  0  0  0
 42115  1  0  0  0
 43 44  1  0  0  0
 44116  1  0  0  0
 45 46  2  0  0  0
 45117  1  0  0  0
 46118  1  0  0  0
 47119  1  0  0  0
 47120  1  0  0  0
 48 56  1  0  0  0
 48 65  1  0  0  0
 48121  1  0  0  0
 49 50  1  0  0  0
 49 53  1  0  0  0
 49 64  1  0  0  0
 49122  1  0  0  0
 50 51  1  0  0  0
 50123  1  0  0  0
 50124  1  0  0  0
 51 52  1  0  0  0
 51125  1  0  0  0
 51126  1  0  0  0
 52127  1  0  0  0
 52128  1  0  0  0
 53 54  1  0  0  0
 54 55  2  0  0  0
 54129  1  0  0  0
 55 57  1  0  0  0
 55130  1  0  0  0
 56 69  2  0  0  0
 57 58  2  0  0  0
 57131  1  0  0  0
 58132  1  0  0  0
 59 60  1  0  0  0
 59 61  1  0  0  0
 59 62  1  0  0  0
 60133  1  0  0  0
 60134  1  0  0  0
 60135  1  0  0  0
 61136  1  0  0  0
 61137  1  0  0  0
 61138  1  0  0  0
 62139  1  0  0  0
 62140  1  0  0  0
 62141  1  0  0  0
 63 65  1  0  0  0
 63142  1  0  0  0
 63143  1  0  0  0
 63144  1  0  0  0
 64145  1  0  0  0
 65146  1  0  0  0
 68 82  1  0  0  0
 71 73  2  0  0  0
 71 74  1  0  0  0
 71147  1  0  0  0
 72 73  1  0  0  0
 72 76  2  0  0  0
 72148  1  0  0  0
 73 83  1  0  0  0
 74 75  2  0  0  0
 74 85  1  0  0  0
 75 76  1  0  0  0
 75 84  1  0  0  0
 76 86  1  0  0  0
 77 78  2  0  0  0
 77 79  1  0  0  0
 77 87  1  0  0  0
 78149  1  0  0  0
 78150  1  0  0  0
 79 80  1  0  0  0
 79151  1  0  0  0
 79152  1  0  0  0
 80 82  1  0  0  0
 80153  1  0  0  0
 80154  1  0  0  0
 81 82  1  0  0  0
 81 87  1  0  0  0
 81155  1  0  0  0
 81156  1  0  0  0
 82157  1  0  0  0
 83158  1  0  0  0
 83159  1  0  0  0
 83160  1  0  0  0
 84161  1  0  0  0
 84162  1  0  0  0
 84163  1  0  0  0
 85164  1  0  0  0
 85165  1  0  0  0
 85 87  1  0  0  0
 86166  1  0  0  0
 87167  1  0  0  0
M  CHG  1  87   1
M  ISO  4   1 100  68 101  82 101  86 100
M  END
> <chiral flag>
0

> <version>
0

> <s_m_source_file>
/data/baiqing/PycharmProjects/Reinvent-master-3.2/result/LINK_invent/BTK/process_docking_weight1_custom_product_contain_oxygen_bond_distance_aromatic_linkinvent_7_9_3/rearranged_h_0034.sdf

> <i_m_source_file_index>
30

> <r_mmod_Potential_Energy-OPLS-2005>
124.529258728027

> <r_mmod_Stretch_Energy-OPLS-2005>
131.298309326172

> <r_mmod_Bend_Energy-OPLS-2005>
191.468902587891

> <r_mmod_Torsional_Energy-OPLS-2005>
280.661956787109

> <r_mmod_Improper_Torsional_Energy-OPLS-2005>
5.03552055358887

> <r_mmod_Van_der_Waal_Energy-OPLS-2005>
143.327102661133

> <r_mmod_Electrostatic_Energy-OPLS-2005>
-289.095947265625

> <r_mmod_Solvation_Energy-OPLS-2005>
-422.339721679688

> <b_mmod_Minimization_Converged-OPLS-2005>
0

> <r_mmod_RMS_Derivative-OPLS-2005>
2.06184816360474

$$$$
30
                    3D
 Structure written by MMmdl.
164173  0  0  1  0            999 V2000
  -30.5447  -14.7718   20.5343 C   0  0  0  0  0  0
  -30.4431  -12.4933   19.4653 C   0  0  0  0  0  0
  -29.5077  -12.5204   18.2356 C   0  0  0  0  0  0
  -28.0354  -12.3260   18.6524 C   0  0  0  0  0  0
  -27.6377  -13.2179   19.8575 C   0  0  2  0  0  0
  -28.6786  -13.1278   20.9903 C   0  0  0  0  0  0
  -25.2508  -13.8155   20.5719 C   0  0  0  0  0  0
  -24.1790  -13.0428   20.9221 C   0  0  0  0  0  0
  -24.6358  -11.6900   20.8765 C   0  0  0  0  0  0
  -23.9030  -10.4291   21.0423 C   0  0  0  0  0  0
  -24.3599   -9.4208   21.9183 C   0  0  0  0  0  0
  -23.6297   -8.2235   22.0732 C   0  0  0  0  0  0
  -22.4278   -8.0273   21.3529 C   0  0  0  0  0  0
  -21.9910   -9.0233   20.4632 C   0  0  0  0  0  0
  -22.7214  -10.2127   20.3058 C   0  0  0  0  0  0
  -21.6836   -6.0740   22.5274 C   0  0  0  0  0  0
  -21.4005   -6.5637   23.8215 C   0  0  0  0  0  0
  -21.3679   -5.6784   24.9175 C   0  0  0  0  0  0
  -21.6046   -4.3048   24.7218 C   0  0  0  0  0  0
  -21.8826   -3.8147   23.4341 C   0  0  0  0  0  0
  -21.9199   -4.6968   22.3403 C   0  0  0  0  0  0
  -22.7828  -13.5234   21.1900 C   0  0  0  0  0  0
  -22.1662   -4.2168   21.0976 F   0  0  0  0  0  0
  -21.5651   -3.4532   25.7736 F   0  0  0  0  0  0
  -29.9647  -13.5288   20.4113 N   0  0  0  0  0  0
  -26.2897  -12.9333   20.3296 N   0  0  0  0  0  0
  -25.9277  -11.6498   20.5752 N   0  0  0  0  0  0
  -22.0479  -12.8194   22.0447 N   0  0  0  0  0  0
  -25.4211  -15.1885   20.4154 N   0  0  0  0  0  0
  -31.7450  -14.9156   20.2624 O   0  0  0  0  0  0
  -21.6630   -6.8874   21.4240 O   0  0  0  0  0  0
  -22.3552  -14.5574   20.6786 O   0  0  0  0  0  0
  -24.6283  -31.8469   23.1915 C   0  0  0  0  0  0
  -25.9077  -32.4724   23.8276 C   0  0  1  0  0  0
  -27.2510  -27.2280   20.1808 C   0  0  0  0  0  0
  -25.5865  -33.8517   24.2203 N   0  0  0  0  0  0
  -23.4371  -30.4572   21.5294 C   0  0  2  0  0  0
  -24.8920  -28.8858   20.1153 C   0  0  0  0  0  0
  -22.7546  -29.4468   22.4799 C   0  0  0  0  0  0
  -18.0303  -28.1361   22.8461 C   0  0  0  0  0  0
  -24.1460  -36.7278   23.2652 C   0  0  0  0  0  0
  -25.9743  -30.7539   21.3712 C   0  0  0  0  0  0
  -26.0539  -29.3679   20.7265 C   0  0  0  0  0  0
  -27.2259  -28.5510   20.7484 C   0  0  0  0  0  0
  -26.0725  -26.8085   19.5271 C   0  0  0  0  0  0
  -24.9064  -27.6155   19.5060 C   0  0  0  0  0  0
  -23.6639  -29.7772   20.1504 C   0  0  0  0  0  0
  -25.4090  -36.3036   24.0325 C   0  0  1  0  0  0
  -20.5925  -28.3676   23.1227 C   0  0  2  0  0  0
  -20.6769  -26.9367   22.5400 C   0  0  0  0  0  0
  -19.5751  -26.6337   21.5195 C   0  0  0  0  0  0
  -18.1925  -26.7898   22.1599 C   0  0  0  0  0  0
  -19.1568  -28.8826   23.2847 C   0  0  0  0  0  0
  -18.9497  -30.1420   23.8870 C   0  0  0  0  0  0
  -17.6497  -30.6572   24.0545 C   0  0  0  0  0  0
  -25.9020  -34.9409   23.5069 C   0  0  0  0  0  0
  -16.5380  -29.9088   23.6312 C   0  0  0  0  0  0
  -16.7288  -28.6509   23.0333 C   0  0  0  0  0  0
  -26.4457  -31.6611   25.0708 C   0  0  0  0  0  0
  -25.3649  -31.3806   26.1434 C   0  0  0  0  0  0
  -27.0357  -30.3043   24.6194 C   0  0  0  0  0  0
  -27.6005  -32.4407   25.7476 C   0  0  0  0  0  0
  -27.5560  -37.1768   24.8468 C   0  0  0  0  0  0
  -21.4242  -29.3000   22.3608 N   0  0  0  0  0  0
  -26.4254  -37.3752   23.9435 N   0  0  0  0  0  0
  -24.6990  -31.0405   22.0877 N   0  0  0  0  0  0
  -23.4225  -28.7927   23.2867 O   0  0  0  0  0  0
  -28.3900  -26.3967   20.3339 O   0  0  0  0  0  0
  -26.5633  -34.8899   22.4666 O   0  0  0  0  0  0
  -23.5433  -32.1265   23.7208 O   0  0  0  0  0  0
  -30.4136  -17.2825   22.5274 C   0  0  0  0  0  0
  -29.2437  -18.4753   20.7631 C   0  0  0  0  0  0
  -30.3927  -18.4576   23.3036 C   0  0  0  0  0  0
  -29.2647  -19.7484   21.4951 C   0  0  0  0  0  0
  -29.8775  -19.6842   22.7902 C   0  0  0  0  0  0
  -29.8380  -17.2236   21.2469 C   0  0  0  0  0  0
  -30.1834  -23.0346   20.5850 C   0  0  0  0  0  0
  -31.3142  -22.3716   20.8782 C   0  0  0  0  0  0
  -30.0541  -24.5444   20.2675 C   0  0  0  0  0  0
  -27.9199  -23.6501   20.6697 C   0  0  0  0  0  0
  -28.5758  -24.9301   19.9756 C   0  0  1  0  0  0
  -30.8441  -18.3201   24.7565 C   0  0  0  0  0  0
  -29.9155  -20.8963   23.7169 C   0  0  0  0  0  0
  -28.3883  -21.0714   21.1195 C   0  0  0  0  0  0
  -29.6835  -15.8664   20.6539 N   0  0  0  0  0  0
  -28.8269  -22.4259   20.4690 N   0  3  2  0  0  0
  -31.4733  -12.6717   19.1548 H   0  0  0  0  0  0
  -30.4357  -11.5127   19.9417 H   0  0  0  0  0  0
  -29.8015  -11.7560   17.5147 H   0  0  0  0  0  0
  -29.6115  -13.4799   17.7277 H   0  0  0  0  0  0
  -27.8996  -11.2749   18.9107 H   0  0  0  0  0  0
  -27.3728  -12.5162   17.8072 H   0  0  0  0  0  0
  -27.6356  -14.2441   19.4910 H   0  0  0  0  0  0
  -28.7387  -12.1118   21.3842 H   0  0  0  0  0  0
  -28.4067  -13.7646   21.8348 H   0  0  0  0  0  0
  -25.2734   -9.5722   22.4758 H   0  0  0  0  0  0
  -24.0031   -7.4637   22.7441 H   0  0  0  0  0  0
  -21.0844   -8.8758   19.8924 H   0  0  0  0  0  0
  -22.3658  -10.9685   19.6195 H   0  0  0  0  0  0
  -21.1958   -7.6138   23.9729 H   0  0  0  0  0  0
  -21.1503   -6.0501   25.9085 H   0  0  0  0  0  0
  -22.0587   -2.7612   23.2821 H   0  0  0  0  0  0
  -22.4103  -11.9807   22.4745 H   0  0  0  0  0  0
  -21.1117  -13.1239   22.2726 H   0  0  0  0  0  0
  -24.6481  -15.8348   20.5297 H   0  0  0  0  0  0
  -26.2574  -15.6331   20.0608 H   0  0  0  0  0  0
  -26.7140  -32.5372   23.1029 H   0  0  0  0  0  0
  -24.9917  -33.9636   25.0271 H   0  0  0  0  0  0
  -22.7284  -31.2733   21.3680 H   0  0  0  0  0  0
  -23.3710  -35.9619   23.3330 H   0  0  0  0  0  0
  -24.3548  -36.8913   22.2065 H   0  0  0  0  0  0
  -23.7219  -37.6474   23.6694 H   0  0  0  0  0  0
  -26.1010  -31.5032   20.5921 H   0  0  0  0  0  0
  -26.8567  -30.8228   21.9958 H   0  0  0  0  0  0
  -28.1144  -28.9126   21.2483 H   0  0  0  0  0  0
  -26.0357  -25.8325   19.0655 H   0  0  0  0  0  0
  -24.0142  -27.2366   19.0298 H   0  0  0  0  0  0
  -23.8030  -30.5492   19.3898 H   0  0  0  0  0  0
  -22.7840  -29.2125   19.8393 H   0  0  0  0  0  0
  -25.1262  -36.1857   25.0812 H   0  0  0  0  0  0
  -21.0024  -28.3268   24.1353 H   0  0  0  0  0  0
  -20.5590  -26.2311   23.3636 H   0  0  0  0  0  0
  -21.6636  -26.7306   22.1234 H   0  0  0  0  0  0
  -19.6922  -25.6236   21.1258 H   0  0  0  0  0  0
  -19.6711  -27.3100   20.6665 H   0  0  0  0  0  0
  -17.4193  -26.6626   21.4009 H   0  0  0  0  0  0
  -18.0351  -26.0008   22.8968 H   0  0  0  0  0  0
  -19.7971  -30.7220   24.2264 H   0  0  0  0  0  0
  -17.5069  -31.6266   24.5137 H   0  0  0  0  0  0
  -15.5399  -30.3011   23.7646 H   0  0  0  0  0  0
  -15.8670  -28.0857   22.7042 H   0  0  0  0  0  0
  -24.5807  -30.7178   25.7789 H   0  0  0  0  0  0
  -24.8838  -32.2993   26.4777 H   0  0  0  0  0  0
  -25.7911  -30.9034   27.0261 H   0  0  0  0  0  0
  -26.2940  -29.6777   24.1225 H   0  0  0  0  0  0
  -27.4094  -29.7329   25.4706 H   0  0  0  0  0  0
  -27.8783  -30.4418   23.9423 H   0  0  0  0  0  0
  -27.2599  -33.3753   26.1969 H   0  0  0  0  0  0
  -28.3845  -32.6920   25.0320 H   0  0  0  0  0  0
  -28.0627  -31.8582   26.5477 H   0  0  0  0  0  0
  -28.2534  -38.0101   24.7534 H   0  0  0  0  0  0
  -28.1097  -36.2626   24.6257 H   0  0  0  0  0  0
  -27.2304  -37.1380   25.8879 H   0  0  0  0  0  0
  -20.9429  -29.8827   21.6900 H   0  0  0  0  0  0
  -26.0130  -38.2789   24.1540 H   0  0  0  0  0  0
  -30.7859  -16.3717   22.9758 H   0  0  0  0  0  0
  -28.6911  -18.4361   19.8355 H   0  0  0  0  0  0
  -32.2563  -22.8933   20.9230 H   0  0  0  0  0  0
  -31.3386  -21.3117   21.0718 H   0  0  0  0  0  0
  -30.6905  -24.8086   19.4216 H   0  0  0  0  0  0
  -30.4226  -25.1045   21.1311 H   0  0  0  0  0  0
  -26.9131  -23.4650   20.3020 H   0  0  0  0  0  0
  -27.8427  -23.8376   21.7408 H   0  0  0  0  0  0
  -28.4271  -24.8329   18.8981 H   0  0  0  0  0  0
  -30.4302  -19.0811   25.4192 H   0  0  0  0  0  0
  -31.9315  -18.3496   24.8358 H   0  0  0  0  0  0
  -30.4960  -17.3692   25.1672 H   0  0  0  0  0  0
  -29.1329  -20.8255   24.4745 H   0  0  0  0  0  0
  -29.7965  -21.8477   23.2074 H   0  0  0  0  0  0
  -30.8727  -20.9428   24.2356 H   0  0  0  0  0  0
  -27.8756  -21.3501   22.0405 H   0  0  0  0  0  0
  -27.5689  -20.7125   20.4958 H   0  0  0  0  0  0
  -28.7209  -15.6094   20.5034 H   0  0  0  0  0  0
  -28.7381  -22.1960   19.4912 H   0  0  0  0  0  0
  1 25  1  0  0  0
  1 30  2  0  0  0
  1 85  1  0  0  0
  2  3  1  0  0  0
  2 25  1  0  0  0
  2 87  1  0  0  0
  2 88  1  0  0  0
  3  4  1  0  0  0
  3 89  1  0  0  0
  3 90  1  0  0  0
  4  5  1  0  0  0
  4 91  1  0  0  0
  4 92  1  0  0  0
  5  6  1  0  0  0
  5 26  1  0  0  0
  5 93  1  0  0  0
  6 25  1  0  0  0
  6 94  1  0  0  0
  6 95  1  0  0  0
  7  8  2  0  0  0
  7 26  1  0  0  0
  7 29  1  0  0  0
  8  9  1  0  0  0
  8 22  1  0  0  0
  9 10  1  0  0  0
  9 27  2  0  0  0
 10 11  2  0  0  0
 10 15  1  0  0  0
 11 12  1  0  0  0
 11 96  1  0  0  0
 12 13  2  0  0  0
 12 97  1  0  0  0
 13 14  1  0  0  0
 13 31  1  0  0  0
 14 15  2  0  0  0
 14 98  1  0  0  0
 15 99  1  0  0  0
 16 17  2  0  0  0
 16 21  1  0  0  0
 16 31  1  0  0  0
 17 18  1  0  0  0
 17100  1  0  0  0
 18 19  2  0  0  0
 18101  1  0  0  0
 19 20  1  0  0  0
 19 24  1  0  0  0
 20 21  2  0  0  0
 20102  1  0  0  0
 21 23  1  0  0  0
 22 28  1  0  0  0
 22 32  2  0  0  0
 26 27  1  0  0  0
 28103  1  0  0  0
 28104  1  0  0  0
 29105  1  0  0  0
 29106  1  0  0  0
 33 34  1  0  0  0
 33 66  1  0  0  0
 33 70  2  0  0  0
 34 36  1  0  0  0
 34 59  1  0  0  0
 34107  1  0  0  0
 35 44  2  0  0  0
 35 45  1  0  0  0
 35 68  1  0  0  0
 36 56  1  0  0  0
 36108  1  0  0  0
 37 39  1  0  0  0
 37 47  1  0  0  0
 37 66  1  0  0  0
 37109  1  0  0  0
 38 43  2  0  0  0
 38 46  1  0  0  0
 38 47  1  0  0  0
 39 64  1  0  0  0
 39 67  2  0  0  0
 40 52  1  0  0  0
 40 53  2  0  0  0
 40 58  1  0  0  0
 41110  1  0  0  0
 41111  1  0  0  0
 41112  1  0  0  0
 41 48  1  0  0  0
 42 43  1  0  0  0
 42 66  1  0  0  0
 42113  1  0  0  0
 42114  1  0  0  0
 43 44  1  0  0  0
 44115  1  0  0  0
 45 46  2  0  0  0
 45116  1  0  0  0
 46117  1  0  0  0
 47118  1  0  0  0
 47119  1  0  0  0
 48 56  1  0  0  0
 48 65  1  0  0  0
 48120  1  0  0  0
 49 50  1  0  0  0
 49 53  1  0  0  0
 49 64  1  0  0  0
 49121  1  0  0  0
 50 51  1  0  0  0
 50122  1  0  0  0
 50123  1  0  0  0
 51 52  1  0  0  0
 51124  1  0  0  0
 51125  1  0  0  0
 52126  1  0  0  0
 52127  1  0  0  0
 53 54  1  0  0  0
 54 55  2  0  0  0
 54128  1  0  0  0
 55 57  1  0  0  0
 55129  1  0  0  0
 56 69  2  0  0  0
 57 58  2  0  0  0
 57130  1  0  0  0
 58131  1  0  0  0
 59 60  1  0  0  0
 59 61  1  0  0  0
 59 62  1  0  0  0
 60132  1  0  0  0
 60133  1  0  0  0
 60134  1  0  0  0
 61135  1  0  0  0
 61136  1  0  0  0
 61137  1  0  0  0
 62138  1  0  0  0
 62139  1  0  0  0
 62140  1  0  0  0
 63 65  1  0  0  0
 63141  1  0  0  0
 63142  1  0  0  0
 63143  1  0  0  0
 64144  1  0  0  0
 65145  1  0  0  0
 68 81  1  0  0  0
 71 73  2  0  0  0
 71 76  1  0  0  0
 71146  1  0  0  0
 72 74  1  0  0  0
 72 76  2  0  0  0
 72147  1  0  0  0
 73 75  1  0  0  0
 73 82  1  0  0  0
 74 75  2  0  0  0
 74 84  1  0  0  0
 75 83  1  0  0  0
 76 85  1  0  0  0
 77 78  2  0  0  0
 77 79  1  0  0  0
 77 86  1  0  0  0
 78148  1  0  0  0
 78149  1  0  0  0
 79 81  1  0  0  0
 79150  1  0  0  0
 79151  1  0  0  0
 80 81  1  0  0  0
 80 86  1  0  0  0
 80152  1  0  0  0
 80153  1  0  0  0
 81154  1  0  0  0
 82155  1  0  0  0
 82156  1  0  0  0
 82157  1  0  0  0
 83158  1  0  0  0
 83159  1  0  0  0
 83160  1  0  0  0
 84161  1  0  0  0
 84162  1  0  0  0
 84 86  1  0  0  0
 85163  1  0  0  0
 86164  1  0  0  0
M  CHG  1  86   1
M  ISO  4   1 100  68 101  81 101  85 100
M  END
> <chiral flag>
0

> <version>
0

> <s_m_source_file>
/data/baiqing/PycharmProjects/Reinvent-master-3.2/result/LINK_invent/BTK/process_docking_weight1_custom_product_contain_oxygen_bond_distance_aromatic_linkinvent_7_9_3/rearranged_h_0034.sdf

> <i_m_source_file_index>
31

> <r_mmod_Potential_Energy-OPLS-2005>
222.033126831055

> <r_mmod_Stretch_Energy-OPLS-2005>
150.86555480957

> <r_mmod_Bend_Energy-OPLS-2005>
279.264556884766

> <r_mmod_Torsional_Energy-OPLS-2005>
255.671539306641

> <r_mmod_Improper_Torsional_Energy-OPLS-2005>
12.748272895813

> <r_mmod_Van_der_Waal_Energy-OPLS-2005>
131.090896606445

> <r_mmod_Electrostatic_Energy-OPLS-2005>
-274.253112792969

> <r_mmod_Solvation_Energy-OPLS-2005>
-440.113433837891

> <b_mmod_Minimization_Converged-OPLS-2005>
0

> <r_mmod_RMS_Derivative-OPLS-2005>
5.84883403778076

$$$$
31
                    3D
 Structure written by MMmdl.
167176  0  0  1  0            999 V2000
  -30.6429  -14.6329   20.4727 C   0  0  0  0  0  0
  -30.4354  -12.3809   19.4489 C   0  0  0  0  0  0
  -29.5016  -12.4999   18.2241 C   0  0  0  0  0  0
  -28.0294  -12.3347   18.6427 C   0  0  0  0  0  0
  -27.6557  -13.2180   19.8614 C   0  0  2  0  0  0
  -28.7019  -13.0858   20.9922 C   0  0  0  0  0  0
  -25.2586  -13.8167   20.5695 C   0  0  0  0  0  0
  -24.1858  -13.0450   20.9191 C   0  0  0  0  0  0
  -24.6424  -11.6910   20.8742 C   0  0  0  0  0  0
  -23.9108  -10.4296   21.0416 C   0  0  0  0  0  0
  -24.3650   -9.4198   21.9197 C   0  0  0  0  0  0
  -23.6299   -8.2244   22.0755 C   0  0  0  0  0  0
  -22.4284   -8.0300   21.3543 C   0  0  0  0  0  0
  -21.9943   -9.0283   20.4651 C   0  0  0  0  0  0
  -22.7283  -10.2154   20.3061 C   0  0  0  0  0  0
  -21.6849   -6.0749   22.5273 C   0  0  0  0  0  0
  -21.4017   -6.5651   23.8214 C   0  0  0  0  0  0
  -21.3664   -5.6807   24.9175 C   0  0  0  0  0  0
  -21.6046   -4.3070   24.7229 C   0  0  0  0  0  0
  -21.8821   -3.8157   23.4354 C   0  0  0  0  0  0
  -21.9192   -4.6968   22.3408 C   0  0  0  0  0  0
  -22.7880  -13.5212   21.1856 C   0  0  0  0  0  0
  -22.1661   -4.2151   21.0985 F   0  0  0  0  0  0
  -21.5621   -3.4562   25.7745 F   0  0  0  0  0  0
  -30.0234  -13.4098   20.4240 N   0  0  0  0  0  0
  -26.3013  -12.9352   20.3311 N   0  0  0  0  0  0
  -25.9341  -11.6507   20.5761 N   0  0  0  0  0  0
  -22.0549  -12.8194   22.0418 N   0  0  0  0  0  0
  -25.4382  -15.1898   20.4108 N   0  0  0  0  0  0
  -31.8071  -14.7863   20.0952 O   0  0  0  0  0  0
  -21.6637   -6.8904   21.4239 O   0  0  0  0  0  0
  -22.3543  -14.5521   20.6711 O   0  0  0  0  0  0
  -24.6274  -31.8607   23.2041 C   0  0  0  0  0  0
  -25.9103  -32.4793   23.8373 C   0  0  1  0  0  0
  -27.2273  -27.3151   20.1025 C   0  0  0  0  0  0
  -25.5907  -33.8597   24.2299 N   0  0  0  0  0  0
  -23.4214  -30.4865   21.5465 C   0  0  2  0  0  0
  -24.8668  -28.9400   20.1085 C   0  0  0  0  0  0
  -22.7501  -29.4647   22.4954 C   0  0  0  0  0  0
  -18.0326  -28.1320   22.8542 C   0  0  0  0  0  0
  -24.1493  -36.7305   23.2640 C   0  0  0  0  0  0
  -25.9637  -30.7838   21.3788 C   0  0  0  0  0  0
  -26.0351  -29.4125   20.7195 C   0  0  0  0  0  0
  -27.2150  -28.6112   20.7093 C   0  0  0  0  0  0
  -26.0346  -26.9055   19.4578 C   0  0  0  0  0  0
  -24.8671  -27.6902   19.4728 C   0  0  0  0  0  0
  -23.6367  -29.8232   20.1616 C   0  0  0  0  0  0
  -25.4117  -36.3104   24.0336 C   0  0  1  0  0  0
  -20.5939  -28.3687   23.1295 C   0  0  2  0  0  0
  -20.6825  -26.9420   22.5416 C   0  0  0  0  0  0
  -19.5809  -26.6481   21.5189 C   0  0  0  0  0  0
  -18.2042  -26.7812   22.1764 C   0  0  0  0  0  0
  -19.1583  -28.8837   23.2894 C   0  0  0  0  0  0
  -18.9506  -30.1455   23.8861 C   0  0  0  0  0  0
  -17.6512  -30.6577   24.0578 C   0  0  0  0  0  0
  -25.9051  -34.9469   23.5127 C   0  0  0  0  0  0
  -16.5410  -29.9043   23.6411 C   0  0  0  0  0  0
  -16.7314  -28.6436   23.0431 C   0  0  0  0  0  0
  -26.4481  -31.6593   25.0744 C   0  0  0  0  0  0
  -25.3740  -31.3693   26.1488 C   0  0  0  0  0  0
  -27.0310  -30.3015   24.6182 C   0  0  0  0  0  0
  -27.6043  -32.4328   25.7501 C   0  0  0  0  0  0
  -27.5586  -37.1814   24.8463 C   0  0  0  0  0  0
  -21.4211  -29.3057   22.3703 N   0  0  0  0  0  0
  -26.4298  -37.3795   23.9407 N   0  0  0  0  0  0
  -24.6897  -31.0625   22.0986 N   0  0  0  0  0  0
  -23.4223  -28.8197   23.3044 O   0  0  0  0  0  0
  -28.3550  -26.4719   20.1633 O   0  0  0  0  0  0
  -26.5622  -34.8907   22.4699 O   0  0  0  0  0  0
  -23.5436  -32.1406   23.7378 O   0  0  0  0  0  0
  -29.8946  -18.0812   21.5335 C   0  0  0  0  0  0
  -29.7547  -19.4848   21.2919 C   0  0  0  0  0  0
  -29.6689  -20.0056   19.9614 C   0  0  0  0  0  0
  -29.7769  -19.0317   18.9096 C   0  0  0  0  0  0
  -29.9423  -17.1161   20.4978 C   0  0  0  0  0  0
  -29.8841  -17.6212   19.1703 C   0  0  0  0  0  0
  -27.4761  -22.8172   20.7542 C   0  0  0  0  0  0
  -26.4549  -21.9306   20.8069 C   0  0  0  0  0  0
  -27.2496  -24.3157   20.9085 C   0  0  0  0  0  0
  -29.4304  -24.0362   20.0666 C   0  0  0  0  0  0
  -28.2023  -25.0082   19.9371 C   0  0  2  0  0  0
  -29.6383  -20.3882   22.5093 C   0  0  0  0  0  0
  -29.7384  -19.5143   17.4573 C   0  0  0  0  0  0
  -26.3809  -20.4257   20.6399 C   0  0  0  0  0  0
  -29.4620  -21.5362   19.5595 C   0  0  0  0  0  0
  -29.8556  -15.6908   20.8265 N   0  0  0  0  0  0
  -28.9562  -22.6444   20.4723 N   0  3  2  0  0  0
  -29.8536  -16.4951   17.8509 Cl  0  0  0  0  0  0
  -31.4747  -12.4988   19.1374 H   0  0  0  0  0  0
  -30.3629  -11.3894   19.8982 H   0  0  0  0  0  0
  -29.7592  -11.7459   17.4790 H   0  0  0  0  0  0
  -29.6433  -13.4707   17.7467 H   0  0  0  0  0  0
  -27.8867  -11.2844   18.8958 H   0  0  0  0  0  0
  -27.3645  -12.5435   17.8039 H   0  0  0  0  0  0
  -27.6717  -14.2513   19.5127 H   0  0  0  0  0  0
  -28.7022  -12.0766   21.4002 H   0  0  0  0  0  0
  -28.4489  -13.7417   21.8259 H   0  0  0  0  0  0
  -25.2815   -9.5656   22.4761 H   0  0  0  0  0  0
  -24.0014   -7.4628   22.7473 H   0  0  0  0  0  0
  -21.0877   -8.8825   19.8960 H   0  0  0  0  0  0
  -22.3764  -10.9707   19.6177 H   0  0  0  0  0  0
  -21.2012   -7.6162   23.9724 H   0  0  0  0  0  0
  -21.1473   -6.0536   25.9083 H   0  0  0  0  0  0
  -22.0594   -2.7617   23.2851 H   0  0  0  0  0  0
  -22.4154  -11.9803   22.4729 H   0  0  0  0  0  0
  -21.1184  -13.1223   22.2715 H   0  0  0  0  0  0
  -24.6852  -15.8595   20.5197 H   0  0  0  0  0  0
  -26.2875  -15.6113   20.0563 H   0  0  0  0  0  0
  -26.7173  -32.5434   23.1116 H   0  0  0  0  0  0
  -25.0008  -33.9728   25.0413 H   0  0  0  0  0  0
  -22.7165  -31.3064   21.4047 H   0  0  0  0  0  0
  -23.3748  -35.9649   23.3324 H   0  0  0  0  0  0
  -24.3575  -36.8904   22.2049 H   0  0  0  0  0  0
  -23.7246  -37.6515   23.6650 H   0  0  0  0  0  0
  -26.1003  -31.5430   20.6074 H   0  0  0  0  0  0
  -26.8468  -30.8310   22.0061 H   0  0  0  0  0  0
  -28.1110  -28.9683   21.1955 H   0  0  0  0  0  0
  -25.9604  -25.9583   18.9421 H   0  0  0  0  0  0
  -23.9711  -27.3253   18.9861 H   0  0  0  0  0  0
  -23.7555  -30.6018   19.4080 H   0  0  0  0  0  0
  -22.7557  -29.2555   19.8591 H   0  0  0  0  0  0
  -25.1307  -36.1976   25.0830 H   0  0  0  0  0  0
  -21.0036  -28.3287   24.1410 H   0  0  0  0  0  0
  -20.5696  -26.2307   23.3612 H   0  0  0  0  0  0
  -21.6681  -26.7418   22.1208 H   0  0  0  0  0  0
  -19.7053  -25.6466   21.1058 H   0  0  0  0  0  0
  -19.6635  -27.3459   20.6842 H   0  0  0  0  0  0
  -17.4209  -26.6249   21.4341 H   0  0  0  0  0  0
  -18.0856  -26.0037   22.9324 H   0  0  0  0  0  0
  -19.8008  -30.7257   24.2153 H   0  0  0  0  0  0
  -17.5078  -31.6272   24.5155 H   0  0  0  0  0  0
  -15.5435  -30.2967   23.7834 H   0  0  0  0  0  0
  -15.8698  -28.0749   22.7207 H   0  0  0  0  0  0
  -24.5913  -30.7041   25.7808 H   0  0  0  0  0  0
  -24.8930  -32.2843   26.4966 H   0  0  0  0  0  0
  -25.8083  -30.8830   27.0239 H   0  0  0  0  0  0
  -26.2867  -29.6774   24.1210 H   0  0  0  0  0  0
  -27.4017  -29.7243   25.4665 H   0  0  0  0  0  0
  -27.8745  -30.4311   23.9396 H   0  0  0  0  0  0
  -27.2660  -33.3619   26.2098 H   0  0  0  0  0  0
  -28.3818  -32.6905   25.0298 H   0  0  0  0  0  0
  -28.0755  -31.8452   26.5398 H   0  0  0  0  0  0
  -28.2629  -38.0090   24.7510 H   0  0  0  0  0  0
  -28.1063  -36.2622   24.6314 H   0  0  0  0  0  0
  -27.2297  -37.1491   25.8865 H   0  0  0  0  0  0
  -20.9363  -29.8715   21.6881 H   0  0  0  0  0  0
  -26.0182  -38.2882   24.1373 H   0  0  0  0  0  0
  -29.9364  -17.7239   22.5534 H   0  0  0  0  0  0
  -25.4792  -22.3524   21.0069 H   0  0  0  0  0  0
  -27.4765  -24.6065   21.9343 H   0  0  0  0  0  0
  -26.2099  -24.5630   20.7124 H   0  0  0  0  0  0
  -30.1120  -24.4045   20.8333 H   0  0  0  0  0  0
  -29.9956  -24.0255   19.1360 H   0  0  0  0  0  0
  -27.8338  -24.8641   18.9204 H   0  0  0  0  0  0
  -30.3459  -21.2153   22.4645 H   0  0  0  0  0  0
  -29.8296  -19.8379   23.4312 H   0  0  0  0  0  0
  -28.6239  -20.7767   22.6007 H   0  0  0  0  0  0
  -28.7172  -19.7689   17.1705 H   0  0  0  0  0  0
  -30.1110  -18.7859   16.7396 H   0  0  0  0  0  0
  -30.3680  -20.3938   17.3224 H   0  0  0  0  0  0
  -27.2975  -19.9398   20.3552 H   0  0  0  0  0  0
  -25.6462  -20.1850   19.8715 H   0  0  0  0  0  0
  -26.0348  -19.9677   21.5671 H   0  0  0  0  0  0
  -28.8124  -21.5854   18.6848 H   0  0  0  0  0  0
  -30.4532  -21.8400   19.2197 H   0  0  0  0  0  0
  -28.9787  -15.4063   21.2325 H   0  0  0  0  0  0
  -29.4221  -22.4604   21.3487 H   0  0  0  0  0  0
  1 25  1  0  0  0
  1 30  2  0  0  0
  1 86  1  0  0  0
  2  3  1  0  0  0
  2 25  1  0  0  0
  2 89  1  0  0  0
  2 90  1  0  0  0
  3  4  1  0  0  0
  3 91  1  0  0  0
  3 92  1  0  0  0
  4  5  1  0  0  0
  4 93  1  0  0  0
  4 94  1  0  0  0
  5  6  1  0  0  0
  5 26  1  0  0  0
  5 95  1  0  0  0
  6 25  1  0  0  0
  6 96  1  0  0  0
  6 97  1  0  0  0
  7  8  2  0  0  0
  7 26  1  0  0  0
  7 29  1  0  0  0
  8  9  1  0  0  0
  8 22  1  0  0  0
  9 10  1  0  0  0
  9 27  2  0  0  0
 10 11  2  0  0  0
 10 15  1  0  0  0
 11 12  1  0  0  0
 11 98  1  0  0  0
 12 13  2  0  0  0
 12 99  1  0  0  0
 13 14  1  0  0  0
 13 31  1  0  0  0
 14 15  2  0  0  0
 14100  1  0  0  0
 15101  1  0  0  0
 16 17  2  0  0  0
 16 21  1  0  0  0
 16 31  1  0  0  0
 17 18  1  0  0  0
 17102  1  0  0  0
 18 19  2  0  0  0
 18103  1  0  0  0
 19 20  1  0  0  0
 19 24  1  0  0  0
 20 21  2  0  0  0
 20104  1  0  0  0
 21 23  1  0  0  0
 22 28  1  0  0  0
 22 32  2  0  0  0
 26 27  1  0  0  0
 28105  1  0  0  0
 28106  1  0  0  0
 29107  1  0  0  0
 29108  1  0  0  0
 33 34  1  0  0  0
 33 66  1  0  0  0
 33 70  2  0  0  0
 34 36  1  0  0  0
 34 59  1  0  0  0
 34109  1  0  0  0
 35 44  2  0  0  0
 35 45  1  0  0  0
 35 68  1  0  0  0
 36 56  1  0  0  0
 36110  1  0  0  0
 37 39  1  0  0  0
 37 47  1  0  0  0
 37 66  1  0  0  0
 37111  1  0  0  0
 38 43  2  0  0  0
 38 46  1  0  0  0
 38 47  1  0  0  0
 39 64  1  0  0  0
 39 67  2  0  0  0
 40 52  1  0  0  0
 40 53  2  0  0  0
 40 58  1  0  0  0
 41112  1  0  0  0
 41113  1  0  0  0
 41114  1  0  0  0
 41 48  1  0  0  0
 42 43  1  0  0  0
 42 66  1  0  0  0
 42115  1  0  0  0
 42116  1  0  0  0
 43 44  1  0  0  0
 44117  1  0  0  0
 45 46  2  0  0  0
 45118  1  0  0  0
 46119  1  0  0  0
 47120  1  0  0  0
 47121  1  0  0  0
 48 56  1  0  0  0
 48 65  1  0  0  0
 48122  1  0  0  0
 49 50  1  0  0  0
 49 53  1  0  0  0
 49 64  1  0  0  0
 49123  1  0  0  0
 50 51  1  0  0  0
 50124  1  0  0  0
 50125  1  0  0  0
 51 52  1  0  0  0
 51126  1  0  0  0
 51127  1  0  0  0
 52128  1  0  0  0
 52129  1  0  0  0
 53 54  1  0  0  0
 54 55  2  0  0  0
 54130  1  0  0  0
 55 57  1  0  0  0
 55131  1  0  0  0
 56 69  2  0  0  0
 57 58  2  0  0  0
 57132  1  0  0  0
 58133  1  0  0  0
 59 60  1  0  0  0
 59 61  1  0  0  0
 59 62  1  0  0  0
 60134  1  0  0  0
 60135  1  0  0  0
 60136  1  0  0  0
 61137  1  0  0  0
 61138  1  0  0  0
 61139  1  0  0  0
 62140  1  0  0  0
 62141  1  0  0  0
 62142  1  0  0  0
 63 65  1  0  0  0
 63143  1  0  0  0
 63144  1  0  0  0
 63145  1  0  0  0
 64146  1  0  0  0
 65147  1  0  0  0
 68 81  1  0  0  0
 71 72  2  0  0  0
 71 75  1  0  0  0
 71148  1  0  0  0
 72 73  1  0  0  0
 72 82  1  0  0  0
 73 74  2  0  0  0
 73 85  1  0  0  0
 74 76  1  0  0  0
 74 83  1  0  0  0
 75 76  2  0  0  0
 75 86  1  0  0  0
 76 88  1  0  0  0
 77 78  2  0  0  0
 77 79  1  0  0  0
 77 87  1  0  0  0
 78 84  1  0  0  0
 78149  1  0  0  0
 79 81  1  0  0  0
 79150  1  0  0  0
 79151  1  0  0  0
 80 81  1  0  0  0
 80 87  1  0  0  0
 80152  1  0  0  0
 80153  1  0  0  0
 81154  1  0  0  0
 82155  1  0  0  0
 82156  1  0  0  0
 82157  1  0  0  0
 83158  1  0  0  0
 83159  1  0  0  0
 83160  1  0  0  0
 84161  1  0  0  0
 84162  1  0  0  0
 84163  1  0  0  0
 85164  1  0  0  0
 85165  1  0  0  0
 85 87  1  0  0  0
 86166  1  0  0  0
 87167  1  0  0  0
M  CHG  1  87   1
M  ISO  4   1 100  68 101  81 101  86 100
M  END
> <chiral flag>
0

> <version>
0

> <s_m_source_file>
/data/baiqing/PycharmProjects/Reinvent-master-3.2/result/LINK_invent/BTK/process_docking_weight1_custom_product_contain_oxygen_bond_distance_aromatic_linkinvent_7_9_3/rearranged_h_0034.sdf

> <i_m_source_file_index>
32

> <r_mmod_Potential_Energy-OPLS-2005>
49.4330177307129

> <r_mmod_Stretch_Energy-OPLS-2005>
90.1516952514648

> <r_mmod_Bend_Energy-OPLS-2005>
212.009078979492

> <r_mmod_Torsional_Energy-OPLS-2005>
264.875244140625

> <r_mmod_Improper_Torsional_Energy-OPLS-2005>
4.90851640701294

> <r_mmod_Van_der_Waal_Energy-OPLS-2005>
150.510330200195

> <r_mmod_Electrostatic_Energy-OPLS-2005>
-285.242614746094

> <r_mmod_Solvation_Energy-OPLS-2005>
-436.619659423828

> <b_mmod_Minimization_Converged-OPLS-2005>
0

> <r_mmod_RMS_Derivative-OPLS-2005>
4.14145660400391

$$$$
32
                    3D
 Structure written by MMmdl.
171180  0  0  1  0            999 V2000
  -29.9671  -15.2678   20.5835 C   0  0  0  0  0  0
  -30.3740  -12.8595   19.6365 C   0  0  0  0  0  0
  -29.5400  -12.6613   18.3377 C   0  0  0  0  0  0
  -28.0668  -12.3398   18.6626 C   0  0  0  0  0  0
  -27.5514  -13.2345   19.8160 C   0  0  2  0  0  0
  -28.4856  -13.2330   21.0146 C   0  0  0  0  0  0
  -25.2153  -13.8095   20.5477 C   0  0  0  0  0  0
  -24.1561  -13.0355   20.9125 C   0  0  0  0  0  0
  -24.6127  -11.6817   20.8561 C   0  0  0  0  0  0
  -23.8894  -10.4222   21.0317 C   0  0  0  0  0  0
  -24.3544   -9.4187   21.9077 C   0  0  0  0  0  0
  -23.6289   -8.2187   22.0656 C   0  0  0  0  0  0
  -22.4248   -8.0202   21.3494 C   0  0  0  0  0  0
  -21.9807   -9.0154   20.4624 C   0  0  0  0  0  0
  -22.7059  -10.2054   20.3032 C   0  0  0  0  0  0
  -21.6858   -6.0680   22.5242 C   0  0  0  0  0  0
  -21.4015   -6.5602   23.8166 C   0  0  0  0  0  0
  -21.3685   -5.6776   24.9145 C   0  0  0  0  0  0
  -21.6055   -4.3032   24.7207 C   0  0  0  0  0  0
  -21.8844   -3.8111   23.4331 C   0  0  0  0  0  0
  -21.9210   -4.6914   22.3379 C   0  0  0  0  0  0
  -22.7695  -13.5189   21.1956 C   0  0  0  0  0  0
  -22.1666   -4.2100   21.0959 F   0  0  0  0  0  0
  -21.5674   -3.4523   25.7727 F   0  0  0  0  0  0
  -29.6756  -13.8809   20.5282 N   0  0  0  0  0  0
  -26.2281  -12.9202   20.2663 N   0  0  0  0  0  0
  -25.8945  -11.6355   20.5276 N   0  0  0  0  0  0
  -22.0457  -12.8087   22.0513 N   0  0  0  0  0  0
  -25.4091  -15.1791   20.4012 N   0  0  0  0  0  0
  -31.1848  -15.3991   20.3177 O   0  0  0  0  0  0
  -21.6667   -6.8787   21.4182 O   0  0  0  0  0  0
  -22.3380  -14.5525   20.6855 O   0  0  0  0  0  0
  -24.6677  -31.9324   23.2105 C   0  0  0  0  0  0
  -25.9563  -32.5034   23.8487 C   0  0  1  0  0  0
  -26.2651  -27.1345   20.4138 C   0  0  0  0  0  0
  -25.6412  -33.8782   24.2512 N   0  0  0  0  0  0
  -23.4566  -30.5948   21.5769 C   0  0  2  0  0  0
  -24.7740  -29.1900   19.8998 C   0  0  0  0  0  0
  -23.0361  -29.5301   22.6057 C   0  0  0  0  0  0
  -18.6060  -27.9096   22.3466 C   0  0  0  0  0  0
  -24.1530  -36.7352   23.2600 C   0  0  0  0  0  0
  -25.9798  -30.8028   21.3914 C   0  0  0  0  0  0
  -25.9025  -29.4584   20.6837 C   0  0  0  0  0  0
  -26.8106  -28.3915   20.8428 C   0  0  0  0  0  0
  -25.7944  -27.1226   19.1296 C   0  0  0  0  0  0
  -24.7891  -28.0932   19.0061 C   0  0  0  0  0  0
  -23.5712  -30.0572   20.1136 C   0  0  0  0  0  0
  -25.4150  -36.3179   24.0322 C   0  0  1  0  0  0
  -21.2311  -28.2385   23.5292 C   0  0  2  0  0  0
  -22.1209  -26.4638   23.2005 C   0  0  0  0  0  0
  -20.5958  -25.3042   21.5721 C   0  0  0  0  0  0
  -18.9921  -26.4678   21.3769 C   0  0  0  0  0  0
  -19.6033  -28.6598   23.1904 C   0  0  0  0  0  0
  -19.1479  -29.8569   23.8650 C   0  0  0  0  0  0
  -17.8141  -30.3164   23.9085 C   0  0  0  0  0  0
  -25.9176  -34.9593   23.5131 C   0  0  0  0  0  0
  -16.8320  -29.5271   23.3015 C   0  0  0  0  0  0
  -17.2258  -28.3656   22.5576 C   0  0  0  0  0  0
  -26.4650  -31.6616   25.0809 C   0  0  0  0  0  0
  -25.3777  -31.3729   26.1411 C   0  0  0  0  0  0
  -27.0392  -30.3021   24.6222 C   0  0  0  0  0  0
  -27.6230  -32.4186   25.7698 C   0  0  0  0  0  0
  -27.5617  -37.1882   24.8461 C   0  0  0  0  0  0
  -21.7727  -29.4258   22.8895 N   0  0  0  0  0  0
  -26.4318  -37.3880   23.9424 N   0  0  0  0  0  0
  -24.7223  -31.1747   22.0794 N   0  0  0  0  0  0
  -23.8377  -28.8392   23.2199 O   0  0  0  0  0  0
  -25.1245  -26.7094   21.1881 O   0  0  0  0  0  0
  -26.5542  -34.9030   22.4578 O   0  0  0  0  0  0
  -23.5861  -32.2078   23.7581 O   0  0  0  0  0  0
  -25.9789  -20.0978   19.3387 C   0  0  0  0  0  0
  -26.7984  -19.0252   19.7992 C   0  0  0  0  0  0
  -25.2935  -21.0372   20.1587 C   0  0  0  0  0  0
  -27.0577  -18.7359   21.1632 C   0  0  0  0  0  0
  -25.3654  -21.0382   21.5648 C   0  0  0  0  0  0
  -26.3028  -19.8488   22.0054 C   0  0  0  0  0  0
  -23.5175  -24.6426   21.1730 C   0  0  0  0  0  0
  -28.0551  -17.2663   21.4049 C   0  0  0  0  0  0
  -19.9820  -26.1411   23.5335 C   0  0  0  0  0  0
  -20.6950  -24.5043   23.9477 C   0  0  0  0  0  0
  -21.4547  -27.3151   21.2905 C   0  0  0  0  0  0
  -22.2684  -23.7394   23.4796 C   0  0  0  0  0  0
  -23.3645  -26.3726   20.9707 C   0  0  1  0  0  0
  -26.5144  -19.8199   23.5104 C   0  0  0  0  0  0
  -26.3385  -16.5934   23.2053 C   0  0  0  0  0  0
  -24.5216  -22.3715   22.4359 C   0  0  0  0  0  0
  -27.8308  -16.7070   22.8131 C   0  0  0  0  0  0
  -28.9484  -16.5037   20.5735 N   0  0  0  0  0  0
  -23.3516  -23.6417   22.2312 N   0  0  0  0  0  0
  -24.0255  -24.1488   20.1639 O   0  0  0  0  0  0
  -31.3795  -13.1776   19.3652 H   0  0  0  0  0  0
  -30.5191  -11.9095   20.1558 H   0  0  0  0  0  0
  -29.9817  -11.8877   17.7068 H   0  0  0  0  0  0
  -29.5744  -13.5892   17.7643 H   0  0  0  0  0  0
  -28.0034  -11.2891   18.9411 H   0  0  0  0  0  0
  -27.4484  -12.4620   17.7698 H   0  0  0  0  0  0
  -27.5094  -14.2444   19.4089 H   0  0  0  0  0  0
  -28.6660  -12.2064   21.3371 H   0  0  0  0  0  0
  -28.0588  -13.7663   21.8650 H   0  0  0  0  0  0
  -25.2687   -9.5735   22.4617 H   0  0  0  0  0  0
  -24.0094   -7.4544   22.7262 H   0  0  0  0  0  0
  -21.0773   -8.8608   19.8919 H   0  0  0  0  0  0
  -22.3402  -10.9611   19.6216 H   0  0  0  0  0  0
  -21.1973   -7.6110   23.9624 H   0  0  0  0  0  0
  -21.1519   -6.0531   25.9036 H   0  0  0  0  0  0
  -22.0619   -2.7572   23.2831 H   0  0  0  0  0  0
  -22.4215  -11.9750   22.4789 H   0  0  0  0  0  0
  -21.0963  -13.0799   22.2548 H   0  0  0  0  0  0
  -24.7404  -15.8756   20.7070 H   0  0  0  0  0  0
  -26.2947  -15.5671   20.0990 H   0  0  0  0  0  0
  -26.7649  -32.5559   23.1204 H   0  0  0  0  0  0
  -25.0686  -33.9891   25.0753 H   0  0  0  0  0  0
  -22.6960  -31.3776   21.5562 H   0  0  0  0  0  0
  -23.3825  -35.9649   23.3216 H   0  0  0  0  0  0
  -24.3659  -36.9017   22.2031 H   0  0  0  0  0  0
  -23.7246  -37.6535   23.6635 H   0  0  0  0  0  0
  -26.2006  -31.5679   20.6468 H   0  0  0  0  0  0
  -26.8476  -30.7577   22.0367 H   0  0  0  0  0  0
  -27.6088  -28.4541   21.5690 H   0  0  0  0  0  0
  -25.6384  -26.1954   18.5939 H   0  0  0  0  0  0
  -23.9840  -27.9473   18.2984 H   0  0  0  0  0  0
  -23.6623  -30.9038   19.4305 H   0  0  0  0  0  0
  -22.6662  -29.5351   19.8079 H   0  0  0  0  0  0
  -25.1294  -36.2025   25.0809 H   0  0  0  0  0  0
  -21.3686  -28.4332   24.5965 H   0  0  0  0  0  0
  -22.2246  -26.1414   24.2411 H   0  0  0  0  0  0
  -23.2052  -26.4710   23.1722 H   0  0  0  0  0  0
  -20.2866  -24.2696   21.7076 H   0  0  0  0  0  0
  -21.0133  -25.1120   20.5809 H   0  0  0  0  0  0
  -18.9224  -26.7917   20.3393 H   0  0  0  0  0  0
  -18.1224  -25.8148   21.4576 H   0  0  0  0  0  0
  -19.8678  -30.4269   24.4390 H   0  0  0  0  0  0
  -17.5497  -31.2086   24.4569 H   0  0  0  0  0  0
  -15.7879  -29.8076   23.3712 H   0  0  0  0  0  0
  -16.4403  -27.8028   22.0760 H   0  0  0  0  0  0
  -24.6001  -30.7071   25.7627 H   0  0  0  0  0  0
  -24.8913  -32.2873   26.4824 H   0  0  0  0  0  0
  -25.8002  -30.8866   27.0212 H   0  0  0  0  0  0
  -26.2951  -29.6925   24.1082 H   0  0  0  0  0  0
  -27.3879  -29.7118   25.4707 H   0  0  0  0  0  0
  -27.8952  -30.4258   23.9582 H   0  0  0  0  0  0
  -27.2925  -33.3514   26.2273 H   0  0  0  0  0  0
  -28.4140  -32.6665   25.0605 H   0  0  0  0  0  0
  -28.0758  -31.8233   26.5635 H   0  0  0  0  0  0
  -28.2574  -38.0238   24.7575 H   0  0  0  0  0  0
  -28.1179  -36.2778   24.6184 H   0  0  0  0  0  0
  -27.2348  -37.1399   25.8863 H   0  0  0  0  0  0
  -21.1126  -30.0558   22.4603 H   0  0  0  0  0  0
  -26.0186  -38.2934   24.1486 H   0  0  0  0  0  0
  -25.8642  -20.2148   18.2700 H   0  0  0  0  0  0
  -27.2365  -18.3848   19.0464 H   0  0  0  0  0  0
  -24.7131  -21.8083   19.6741 H   0  0  0  0  0  0
  -19.9908  -26.6060   24.5241 H   0  0  0  0  0  0
  -18.9131  -25.8957   23.5542 H   0  0  0  0  0  0
  -19.9180  -23.7717   23.7148 H   0  0  0  0  0  0
  -20.6782  -24.4668   25.0389 H   0  0  0  0  0  0
  -21.3191  -28.3411   20.9901 H   0  0  0  0  0  0
  -21.0417  -27.1417   20.2905 H   0  0  0  0  0  0
  -22.0438  -22.6847   23.6536 H   0  0  0  0  0  0
  -22.9272  -23.9878   24.3150 H   0  0  0  0  0  0
  -23.2818  -26.3792   19.8913 H   0  0  0  0  0  0
  -27.4532  -19.3471   23.7858 H   0  0  0  0  0  0
  -25.6901  -19.3048   24.0022 H   0  0  0  0  0  0
  -26.5512  -20.8315   23.9159 H   0  0  0  0  0  0
  -26.0086  -15.5629   23.3343 H   0  0  0  0  0  0
  -25.6683  -17.0337   22.4684 H   0  0  0  0  0  0
  -26.1474  -17.1147   24.1426 H   0  0  0  0  0  0
  -25.3828  -22.9760   22.7200 H   0  0  0  0  0  0
  -24.2687  -21.9290   23.4020 H   0  0  0  0  0  0
  -28.3460  -17.3588   23.5192 H   0  0  0  0  0  0
  -28.3130  -15.7360   22.9427 H   0  0  0  0  0  0
  1 25  1  0  0  0
  1 30  2  0  0  0
  1 88  1  0  0  0
  2  3  1  0  0  0
  2 25  1  0  0  0
  2 91  1  0  0  0
  2 92  1  0  0  0
  3  4  1  0  0  0
  3 93  1  0  0  0
  3 94  1  0  0  0
  4  5  1  0  0  0
  4 95  1  0  0  0
  4 96  1  0  0  0
  5  6  1  0  0  0
  5 26  1  0  0  0
  5 97  1  0  0  0
  6 25  1  0  0  0
  6 98  1  0  0  0
  6 99  1  0  0  0
  7  8  2  0  0  0
  7 26  1  0  0  0
  7 29  1  0  0  0
  8  9  1  0  0  0
  8 22  1  0  0  0
  9 10  1  0  0  0
  9 27  2  0  0  0
 10 11  2  0  0  0
 10 15  1  0  0  0
 11 12  1  0  0  0
 11100  1  0  0  0
 12 13  2  0  0  0
 12101  1  0  0  0
 13 14  1  0  0  0
 13 31  1  0  0  0
 14 15  2  0  0  0
 14102  1  0  0  0
 15103  1  0  0  0
 16 17  2  0  0  0
 16 21  1  0  0  0
 16 31  1  0  0  0
 17 18  1  0  0  0
 17104  1  0  0  0
 18 19  2  0  0  0
 18105  1  0  0  0
 19 20  1  0  0  0
 19 24  1  0  0  0
 20 21  2  0  0  0
 20106  1  0  0  0
 21 23  1  0  0  0
 22 28  1  0  0  0
 22 32  2  0  0  0
 26 27  1  0  0  0
 28107  1  0  0  0
 28108  1  0  0  0
 29109  1  0  0  0
 29110  1  0  0  0
 33 34  1  0  0  0
 33 66  1  0  0  0
 33 70  2  0  0  0
 34 36  1  0  0  0
 34 59  1  0  0  0
 34111  1  0  0  0
 35 44  2  0  0  0
 35 45  1  0  0  0
 35 68  1  0  0  0
 36 56  1  0  0  0
 36112  1  0  0  0
 37 39  1  0  0  0
 37 47  1  0  0  0
 37 66  1  0  0  0
 37113  1  0  0  0
 38 43  2  0  0  0
 38 46  1  0  0  0
 38 47  1  0  0  0
 39 64  1  0  0  0
 39 67  2  0  0  0
 40 52  1  0  0  0
 40 53  2  0  0  0
 40 58  1  0  0  0
 41114  1  0  0  0
 41115  1  0  0  0
 41116  1  0  0  0
 41 48  1  0  0  0
 42 43  1  0  0  0
 42 66  1  0  0  0
 42117  1  0  0  0
 42118  1  0  0  0
 43 44  1  0  0  0
 44119  1  0  0  0
 45 46  2  0  0  0
 45120  1  0  0  0
 46121  1  0  0  0
 47122  1  0  0  0
 47123  1  0  0  0
 48 56  1  0  0  0
 48 65  1  0  0  0
 48124  1  0  0  0
 49 50  1  0  0  0
 49 53  1  0  0  0
 49 64  1  0  0  0
 49125  1  0  0  0
 50 51  1  0  0  0
 50126  1  0  0  0
 50127  1  0  0  0
 51 52  1  0  0  0
 51128  1  0  0  0
 51129  1  0  0  0
 52130  1  0  0  0
 52131  1  0  0  0
 53 54  1  0  0  0
 54 55  2  0  0  0
 54132  1  0  0  0
 55 57  1  0  0  0
 55133  1  0  0  0
 56 69  2  0  0  0
 57 58  2  0  0  0
 57134  1  0  0  0
 58135  1  0  0  0
 59 60  1  0  0  0
 59 61  1  0  0  0
 59 62  1  0  0  0
 60136  1  0  0  0
 60137  1  0  0  0
 60138  1  0  0  0
 61139  1  0  0  0
 61140  1  0  0  0
 61141  1  0  0  0
 62142  1  0  0  0
 62143  1  0  0  0
 62144  1  0  0  0
 63 65  1  0  0  0
 63145  1  0  0  0
 63146  1  0  0  0
 63147  1  0  0  0
 64148  1  0  0  0
 65149  1  0  0  0
 68 83  1  0  0  0
 71 72  2  0  0  0
 71 73  1  0  0  0
 71150  1  0  0  0
 72 74  1  0  0  0
 72151  1  0  0  0
 73 75  2  0  0  0
 73152  1  0  0  0
 74 76  2  0  0  0
 74 78  1  0  0  0
 75 76  1  0  0  0
 75 86  1  0  0  0
 76 84  1  0  0  0
 77 83  1  0  0  0
 77 89  1  0  0  0
 77 90  2  0  0  0
 78 87  1  0  0  0
 78 88  2  0  0  0
 79 80  1  0  0  0
 79 81  1  0  0  0
 79153  1  0  0  0
 79154  1  0  0  0
 80 82  1  0  0  0
 80155  1  0  0  0
 80156  1  0  0  0
 81 83  1  0  0  0
 81157  1  0  0  0
 81158  1  0  0  0
 82 89  1  0  0  0
 82159  1  0  0  0
 82160  1  0  0  0
 83161  1  0  0  0
 84162  1  0  0  0
 84163  1  0  0  0
 84164  1  0  0  0
 85 87  1  0  0  0
 85165  1  0  0  0
 85166  1  0  0  0
 85167  1  0  0  0
 86 89  1  0  0  0
 86168  1  0  0  0
 86169  1  0  0  0
 87170  1  0  0  0
 87171  1  0  0  0
M  ISO  4   1 100  68 101  83 101  88 100
M  END
> <chiral flag>
0

> <version>
0

> <s_m_source_file>
/data/baiqing/PycharmProjects/Reinvent-master-3.2/result/LINK_invent/BTK/process_docking_weight1_custom_product_contain_oxygen_bond_distance_aromatic_linkinvent_7_9_3/rearranged_h_0034.sdf

> <i_m_source_file_index>
33

> <r_mmod_Potential_Energy-OPLS-2005>
11812.2490234375

> <r_mmod_Stretch_Energy-OPLS-2005>
5706.17333984375

> <r_mmod_Bend_Energy-OPLS-2005>
1180.88439941406

> <r_mmod_Torsional_Energy-OPLS-2005>
494.646667480469

> <r_mmod_Improper_Torsional_Energy-OPLS-2005>
44.5361213684082

> <r_mmod_Van_der_Waal_Energy-OPLS-2005>
1992.66467285156

> <r_mmod_Electrostatic_Energy-OPLS-2005>
-287.99267578125

> <r_mmod_Solvation_Energy-OPLS-2005>
-194.684432983398

> <b_mmod_Minimization_Converged-OPLS-2005>
0

> <r_mmod_RMS_Derivative-OPLS-2005>
9.4563455581665

$$$$
33
                    3D
 Structure written by MMmdl.
166175  0  0  1  0            999 V2000
  -28.6315  -16.3979   20.9146 C   0  0  0  0  0  0
  -29.9829  -13.9511   19.8210 C   0  0  0  0  0  0
  -29.5011  -13.0287   18.5969 C   0  0  0  0  0  0
  -28.1874  -12.3059   18.9063 C   0  0  0  0  0  0
  -27.4303  -13.2512   19.8345 C   0  0  2  0  0  0
  -28.1659  -13.6989   21.0992 C   0  0  0  0  0  0
  -25.1427  -13.7814   20.5105 C   0  0  0  0  0  0
  -24.1041  -13.0148   20.9225 C   0  0  0  0  0  0
  -24.5764  -11.6647   20.8828 C   0  0  0  0  0  0
  -23.8654  -10.4090   21.0556 C   0  0  0  0  0  0
  -24.3388   -9.4067   21.9274 C   0  0  0  0  0  0
  -23.6156   -8.2066   22.0778 C   0  0  0  0  0  0
  -22.4145   -8.0108   21.3551 C   0  0  0  0  0  0
  -21.9694   -9.0035   20.4661 C   0  0  0  0  0  0
  -22.6919  -10.1941   20.3121 C   0  0  0  0  0  0
  -21.6783   -6.0638   22.5294 C   0  0  0  0  0  0
  -21.3969   -6.5588   23.8216 C   0  0  0  0  0  0
  -21.3644   -5.6761   24.9192 C   0  0  0  0  0  0
  -21.6044   -4.3023   24.7252 C   0  0  0  0  0  0
  -21.8829   -3.8092   23.4383 C   0  0  0  0  0  0
  -21.9172   -4.6886   22.3428 C   0  0  0  0  0  0
  -22.7229  -13.5059   21.2031 C   0  0  0  0  0  0
  -22.1650   -4.2086   21.1000 F   0  0  0  0  0  0
  -21.5639   -3.4514   25.7769 F   0  0  0  0  0  0
  -28.8782  -14.8631   20.6142 N   0  0  0  0  0  0
  -26.1439  -12.8836   20.2458 N   0  0  0  0  0  0
  -25.8535  -11.6094   20.5479 N   0  0  0  0  0  0
  -21.9984  -12.8141   22.0723 N   0  0  0  0  0  0
  -25.3341  -15.1441   20.2949 N   0  0  0  0  0  0
  -29.9007  -16.5950   20.6946 O   0  0  0  0  0  0
  -21.6546   -6.8713   21.4230 O   0  0  0  0  0  0
  -22.3013  -14.5378   20.6829 O   0  0  0  0  0  0
  -24.7580  -32.0249   23.1749 C   0  0  0  0  0  0
  -26.0140  -32.5653   23.8775 C   0  0  1  0  0  0
  -25.5286  -27.4278   20.6659 C   0  0  0  0  0  0
  -25.6710  -33.9232   24.2797 N   0  0  0  0  0  0
  -23.8236  -30.4215   21.6282 C   0  0  2  0  0  0
  -25.1583  -29.5661   19.5731 C   0  0  0  0  0  0
  -24.0330  -29.2052   22.7576 C   0  0  0  0  0  0
  -18.5554  -27.1860   22.6751 C   0  0  0  0  0  0
  -24.1517  -36.7527   23.2550 C   0  0  0  0  0  0
  -26.2027  -30.9479   21.4036 C   0  0  0  0  0  0
  -26.1287  -29.6768   20.5685 C   0  0  0  0  0  0
  -26.4778  -28.4340   21.0799 C   0  0  0  0  0  0
  -25.7640  -27.2222   19.3174 C   0  0  0  0  0  0
  -25.1329  -28.3665   18.7716 C   0  0  0  0  0  0
  -23.9415  -30.3035   20.0213 C   0  0  0  0  0  0
  -25.4118  -36.3445   24.0331 C   0  0  1  0  0  0
  -22.2627  -27.1098   22.8200 C   0  0  2  0  0  0
  -22.2893  -25.5946   21.3084 C   0  0  0  0  0  0
  -20.3108  -24.9299   20.9068 C   0  0  0  0  0  0
  -18.7425  -25.7569   21.7253 C   0  0  0  0  0  0
  -19.7926  -27.8364   23.2314 C   0  0  0  0  0  0
  -19.2261  -29.1729   23.8546 C   0  0  0  0  0  0
  -17.9570  -29.8271   23.8955 C   0  0  0  0  0  0
  -25.9196  -34.9912   23.5188 C   0  0  0  0  0  0
  -16.8998  -29.1349   23.3427 C   0  0  0  0  0  0
  -17.2242  -27.8578   22.7724 C   0  0  0  0  0  0
  -26.5020  -31.7054   25.1084 C   0  0  0  0  0  0
  -25.4033  -31.4103   26.1608 C   0  0  0  0  0  0
  -27.1878  -30.3832   24.6690 C   0  0  0  0  0  0
  -27.6213  -32.4863   25.8296 C   0  0  0  0  0  0
  -27.5614  -37.2009   24.8462 C   0  0  0  0  0  0
  -23.5114  -27.9723   22.9799 N   0  0  0  0  0  0
  -26.4294  -37.4108   23.9465 N   0  0  0  0  0  0
  -24.9157  -31.2626   22.0590 N   0  0  0  0  0  0
  -24.3830  -29.3882   23.8741 O   0  0  0  0  0  0
  -23.9793  -27.5049   20.6352 O   0  0  0  0  0  0
  -26.5408  -34.9249   22.4539 O   0  0  0  0  0  0
  -23.6431  -32.2448   23.6831 O   0  0  0  0  0  0
  -22.7664  -20.6276   22.3498 C   0  0  0  0  0  0
  -23.1940  -19.2416   22.2264 C   0  0  0  0  0  0
  -23.5600  -21.8103   22.4031 C   0  0  0  0  0  0
  -24.4859  -18.5652   22.0470 C   0  0  0  0  0  0
  -25.1342  -20.8354   22.0411 C   0  0  0  0  0  0
  -25.8069  -19.1034   21.7380 C   0  0  0  0  0  0
  -21.5808  -28.3392   24.6483 C   0  0  0  0  0  0
  -21.5308  -29.3616   22.6726 C   0  0  0  0  0  0
  -21.0232  -26.3244   24.6696 C   0  0  0  0  0  0
  -20.7189  -27.1688   21.2303 C   0  0  0  0  0  0
  -22.1622  -28.3728   20.9361 C   0  0  2  0  0  0
  -24.3451  -17.0889   22.3643 C   0  0  0  0  0  0
  -26.3006  -21.7997   22.0383 C   0  0  0  0  0  0
  -22.2968  -23.6401   23.0995 C   0  0  0  0  0  0
  -27.1918  -17.5204   21.3000 N   0  0  0  0  0  0
  -20.9381  -25.3752   23.1045 N   0  3  2  0  0  0
  -30.7302  -14.6328   19.4135 H   0  0  0  0  0  0
  -30.5613  -13.3543   20.5296 H   0  0  0  0  0  0
  -30.2797  -12.3226   18.3070 H   0  0  0  0  0  0
  -29.3418  -13.6736   17.7317 H   0  0  0  0  0  0
  -28.3876  -11.3606   19.4130 H   0  0  0  0  0  0
  -27.6263  -12.0789   17.9988 H   0  0  0  0  0  0
  -27.2569  -14.1021   19.1698 H   0  0  0  0  0  0
  -28.7513  -12.9063   21.5705 H   0  0  0  0  0  0
  -27.4868  -14.0531   21.8773 H   0  0  0  0  0  0
  -25.2537   -9.5609   22.4825 H   0  0  0  0  0  0
  -23.9905   -7.4444   22.7463 H   0  0  0  0  0  0
  -21.0641   -8.8493   19.8959 H   0  0  0  0  0  0
  -22.3373  -10.9480   19.6236 H   0  0  0  0  0  0
  -21.1950   -7.6098   23.9694 H   0  0  0  0  0  0
  -21.1467   -6.0503   25.9091 H   0  0  0  0  0  0
  -22.0633   -2.7556   23.2898 H   0  0  0  0  0  0
  -22.3633  -11.9804   22.5089 H   0  0  0  0  0  0
  -21.0632  -13.1193   22.3028 H   0  0  0  0  0  0
  -24.4703  -15.6704   20.2293 H   0  0  0  0  0  0
  -25.9544  -15.3706   19.5281 H   0  0  0  0  0  0
  -26.8527  -32.6313   23.1865 H   0  0  0  0  0  0
  -25.1189  -34.0330   25.1177 H   0  0  0  0  0  0
  -22.9705  -31.0868   21.6834 H   0  0  0  0  0  0
  -23.3822  -35.9814   23.3194 H   0  0  0  0  0  0
  -24.3662  -36.9129   22.1971 H   0  0  0  0  0  0
  -23.7191  -37.6717   23.6516 H   0  0  0  0  0  0
  -26.4699  -31.7802   20.7510 H   0  0  0  0  0  0
  -27.0339  -30.8257   22.0903 H   0  0  0  0  0  0
  -26.9996  -28.3530   22.0230 H   0  0  0  0  0  0
  -25.4645  -26.3011   18.8376 H   0  0  0  0  0  0
  -24.4458  -28.2503   17.9449 H   0  0  0  0  0  0
  -24.1252  -31.3219   19.6745 H   0  0  0  0  0  0
  -23.0844  -30.1055   19.3981 H   0  0  0  0  0  0
  -25.1229  -36.2326   25.0808 H   0  0  0  0  0  0
  -22.8843  -26.5549   23.5468 H   0  0  0  0  0  0
  -23.1113  -24.8830   21.3544 H   0  0  0  0  0  0
  -22.5618  -25.9067   20.2989 H   0  0  0  0  0  0
  -20.2557  -23.8624   21.1294 H   0  0  0  0  0  0
  -20.1618  -24.9081   19.8247 H   0  0  0  0  0  0
  -18.3002  -24.9792   22.3486 H   0  0  0  0  0  0
  -18.0161  -25.8642   20.9191 H   0  0  0  0  0  0
  -19.8741  -29.9174   24.2880 H   0  0  0  0  0  0
  -17.8251  -30.8035   24.3451 H   0  0  0  0  0  0
  -15.8922  -29.5288   23.3320 H   0  0  0  0  0  0
  -16.3989  -27.3310   22.3134 H   0  0  0  0  0  0
  -24.5694  -30.8304   25.7777 H   0  0  0  0  0  0
  -24.9810  -32.3336   26.5579 H   0  0  0  0  0  0
  -25.8056  -30.8555   27.0091 H   0  0  0  0  0  0
  -26.6270  -29.7558   23.9956 H   0  0  0  0  0  0
  -27.4379  -29.7649   25.5319 H   0  0  0  0  0  0
  -28.1303  -30.5862   24.1581 H   0  0  0  0  0  0
  -27.2521  -33.3976   26.3012 H   0  0  0  0  0  0
  -28.4154  -32.7794   25.1418 H   0  0  0  0  0  0
  -28.0822  -31.8932   26.6206 H   0  0  0  0  0  0
  -28.2586  -38.0360   24.7653 H   0  0  0  0  0  0
  -28.1170  -36.2920   24.6110 H   0  0  0  0  0  0
  -27.2368  -37.1460   25.8865 H   0  0  0  0  0  0
  -24.0415  -27.6287   23.7676 H   0  0  0  0  0  0
  -26.0200  -38.3167   24.1576 H   0  0  0  0  0  0
  -21.7075  -20.7723   22.5184 H   0  0  0  0  0  0
  -22.3597  -18.5637   22.3522 H   0  0  0  0  0  0
  -21.0599  -28.8482   25.4594 H   0  0  0  0  0  0
  -22.5579  -28.3981   25.1271 H   0  0  0  0  0  0
  -21.8288  -30.3517   22.9964 H   0  0  0  0  0  0
  -20.6459  -29.8054   22.2128 H   0  0  0  0  0  0
  -20.0519  -26.2197   25.1585 H   0  0  0  0  0  0
  -21.6870  -25.7896   25.3510 H   0  0  0  0  0  0
  -20.7102  -26.9284   20.1548 H   0  0  0  0  0  0
  -19.8688  -27.8049   20.9659 H   0  0  0  0  0  0
  -21.7864  -28.8536   20.0415 H   0  0  0  0  0  0
  -23.8222  -16.9759   23.3147 H   0  0  0  0  0  0
  -25.2809  -16.5559   22.4964 H   0  0  0  0  0  0
  -23.7243  -16.6023   21.6148 H   0  0  0  0  0  0
  -26.2840  -22.4201   21.1427 H   0  0  0  0  0  0
  -27.2490  -21.2619   22.0650 H   0  0  0  0  0  0
  -26.2613  -22.4495   22.9128 H   0  0  0  0  0  0
  -23.1137  -24.1274   23.6314 H   0  0  0  0  0  0
  -21.7662  -23.1022   23.8827 H   0  0  0  0  0  0
  -26.5401  -16.7408   21.2702 H   0  0  0  0  0  0
  -21.8794  -25.6338   22.8628 H   0  0  0  0  0  0
  1 25  1  0  0  0
  1 30  2  0  0  0
  1 85  1  0  0  0
  2  3  1  0  0  0
  2 25  1  0  0  0
  2 87  1  0  0  0
  2 88  1  0  0  0
  3  4  1  0  0  0
  3 89  1  0  0  0
  3 90  1  0  0  0
  4  5  1  0  0  0
  4 91  1  0  0  0
  4 92  1  0  0  0
  5  6  1  0  0  0
  5 26  1  0  0  0
  5 93  1  0  0  0
  6 25  1  0  0  0
  6 94  1  0  0  0
  6 95  1  0  0  0
  7  8  2  0  0  0
  7 26  1  0  0  0
  7 29  1  0  0  0
  8  9  1  0  0  0
  8 22  1  0  0  0
  9 10  1  0  0  0
  9 27  2  0  0  0
 10 11  2  0  0  0
 10 15  1  0  0  0
 11 12  1  0  0  0
 11 96  1  0  0  0
 12 13  2  0  0  0
 12 97  1  0  0  0
 13 14  1  0  0  0
 13 31  1  0  0  0
 14 15  2  0  0  0
 14 98  1  0  0  0
 15 99  1  0  0  0
 16 17  2  0  0  0
 16 21  1  0  0  0
 16 31  1  0  0  0
 17 18  1  0  0  0
 17100  1  0  0  0
 18 19  2  0  0  0
 18101  1  0  0  0
 19 20  1  0  0  0
 19 24  1  0  0  0
 20 21  2  0  0  0
 20102  1  0  0  0
 21 23  1  0  0  0
 22 28  1  0  0  0
 22 32  2  0  0  0
 26 27  1  0  0  0
 28103  1  0  0  0
 28104  1  0  0  0
 29105  1  0  0  0
 29106  1  0  0  0
 33 34  1  0  0  0
 33 66  1  0  0  0
 33 70  2  0  0  0
 34 36  1  0  0  0
 34 59  1  0  0  0
 34107  1  0  0  0
 35 44  2  0  0  0
 35 45  1  0  0  0
 35 68  1  0  0  0
 36 56  1  0  0  0
 36108  1  0  0  0
 37 39  1  0  0  0
 37 47  1  0  0  0
 37 66  1  0  0  0
 37109  1  0  0  0
 38 43  2  0  0  0
 38 46  1  0  0  0
 38 47  1  0  0  0
 39 64  1  0  0  0
 39 67  2  0  0  0
 40 52  1  0  0  0
 40 53  2  0  0  0
 40 58  1  0  0  0
 41110  1  0  0  0
 41111  1  0  0  0
 41112  1  0  0  0
 41 48  1  0  0  0
 42 43  1  0  0  0
 42 66  1  0  0  0
 42113  1  0  0  0
 42114  1  0  0  0
 43 44  1  0  0  0
 44115  1  0  0  0
 45 46  2  0  0  0
 45116  1  0  0  0
 46117  1  0  0  0
 47118  1  0  0  0
 47119  1  0  0  0
 48 56  1  0  0  0
 48 65  1  0  0  0
 48120  1  0  0  0
 49 50  1  0  0  0
 49 53  1  0  0  0
 49 64  1  0  0  0
 49121  1  0  0  0
 50 51  1  0  0  0
 50122  1  0  0  0
 50123  1  0  0  0
 51 52  1  0  0  0
 51124  1  0  0  0
 51125  1  0  0  0
 52126  1  0  0  0
 52127  1  0  0  0
 53 54  1  0  0  0
 54 55  2  0  0  0
 54128  1  0  0  0
 55 57  1  0  0  0
 55129  1  0  0  0
 56 69  2  0  0  0
 57 58  2  0  0  0
 57130  1  0  0  0
 58131  1  0  0  0
 59 60  1  0  0  0
 59 61  1  0  0  0
 59 62  1  0  0  0
 60132  1  0  0  0
 60133  1  0  0  0
 60134  1  0  0  0
 61135  1  0  0  0
 61136  1  0  0  0
 61137  1  0  0  0
 62138  1  0  0  0
 62139  1  0  0  0
 62140  1  0  0  0
 63 65  1  0  0  0
 63141  1  0  0  0
 63142  1  0  0  0
 63143  1  0  0  0
 64144  1  0  0  0
 65145  1  0  0  0
 68 81  1  0  0  0
 71 72  2  0  0  0
 71 73  1  0  0  0
 71146  1  0  0  0
 72 74  1  0  0  0
 72147  1  0  0  0
 73 75  2  0  0  0
 73 84  1  0  0  0
 74 76  2  0  0  0
 74 82  1  0  0  0
 75 76  1  0  0  0
 75 83  1  0  0  0
 76 85  1  0  0  0
 77 78  1  0  0  0
 77 79  1  0  0  0
 77148  1  0  0  0
 77149  1  0  0  0
 78 81  1  0  0  0
 78150  1  0  0  0
 78151  1  0  0  0
 79 86  1  0  0  0
 79152  1  0  0  0
 79153  1  0  0  0
 80 81  1  0  0  0
 80 86  1  0  0  0
 80154  1  0  0  0
 80155  1  0  0  0
 81156  1  0  0  0
 82157  1  0  0  0
 82158  1  0  0  0
 82159  1  0  0  0
 83160  1  0  0  0
 83161  1  0  0  0
 83162  1  0  0  0
 84163  1  0  0  0
 84164  1  0  0  0
 84 86  1  0  0  0
 85165  1  0  0  0
 86166  1  0  0  0
M  CHG  1  86   1
M  ISO  4   1 100  68 101  81 101  85 100
M  END
> <chiral flag>
0

> <version>
0

> <s_m_source_file>
/data/baiqing/PycharmProjects/Reinvent-master-3.2/result/LINK_invent/BTK/process_docking_weight1_custom_product_contain_oxygen_bond_distance_aromatic_linkinvent_7_9_3/rearranged_h_0034.sdf

> <i_m_source_file_index>
34

> <r_mmod_Potential_Energy-OPLS-2005>
26110.29296875

> <r_mmod_Stretch_Energy-OPLS-2005>
11308.74609375

> <r_mmod_Bend_Energy-OPLS-2005>
2663.35986328125

> <r_mmod_Torsional_Energy-OPLS-2005>
674.473876953125

> <r_mmod_Improper_Torsional_Energy-OPLS-2005>
83.6711196899414

> <r_mmod_Van_der_Waal_Energy-OPLS-2005>
3563.37036132812

> <r_mmod_Electrostatic_Energy-OPLS-2005>
-316.564270019531

> <r_mmod_Solvation_Energy-OPLS-2005>
-395.153289794922

> <b_mmod_Minimization_Converged-OPLS-2005>
0

> <r_mmod_RMS_Derivative-OPLS-2005>
2.70440149307251

$$$$
34
                    3D
 Structure written by MMmdl.
162170  0  0  1  0            999 V2000
  -30.6838  -14.5223   20.4765 C   0  0  0  0  0  0
  -30.4168  -12.3131   19.4161 C   0  0  0  0  0  0
  -29.4941  -12.4875   18.1921 C   0  0  0  0  0  0
  -28.0115  -12.3512   18.6042 C   0  0  0  0  0  0
  -27.6522  -13.2045   19.8493 C   0  0  2  0  0  0
  -28.7036  -13.0355   20.9684 C   0  0  0  0  0  0
  -25.2574  -13.8158   20.5652 C   0  0  0  0  0  0
  -24.1843  -13.0414   20.9161 C   0  0  0  0  0  0
  -24.6379  -11.6901   20.8684 C   0  0  0  0  0  0
  -23.9000  -10.4310   21.0373 C   0  0  0  0  0  0
  -24.3607   -9.4241   21.9191 C   0  0  0  0  0  0
  -23.6300   -8.2252   22.0728 C   0  0  0  0  0  0
  -22.4283   -8.0274   21.3557 C   0  0  0  0  0  0
  -21.9873   -9.0216   20.4639 C   0  0  0  0  0  0
  -22.7143  -10.2130   20.3033 C   0  0  0  0  0  0
  -21.6886   -6.0700   22.5318 C   0  0  0  0  0  0
  -21.4004   -6.5602   23.8233 C   0  0  0  0  0  0
  -21.3674   -5.6746   24.9215 C   0  0  0  0  0  0
  -21.6059   -4.3030   24.7274 C   0  0  0  0  0  0
  -21.8819   -3.8118   23.4397 C   0  0  0  0  0  0
  -21.9182   -4.6948   22.3439 C   0  0  0  0  0  0
  -22.7873  -13.5197   21.1891 C   0  0  0  0  0  0
  -22.1638   -4.2109   21.1050 F   0  0  0  0  0  0
  -21.5666   -3.4505   25.7810 F   0  0  0  0  0  0
  -30.0224  -13.3402   20.3923 N   0  0  0  0  0  0
  -26.3009  -12.9316   20.3237 N   0  0  0  0  0  0
  -25.9320  -11.6490   20.5676 N   0  0  0  0  0  0
  -22.0523  -12.8207   22.0457 N   0  0  0  0  0  0
  -25.4238  -15.1914   20.4052 N   0  0  0  0  0  0
  -31.8697  -14.6533   20.1546 O   0  0  0  0  0  0
  -21.6668   -6.8862   21.4239 O   0  0  0  0  0  0
  -22.3545  -14.5490   20.6717 O   0  0  0  0  0  0
  -24.6012  -31.8662   23.2147 C   0  0  0  0  0  0
  -25.8860  -32.4832   23.8451 C   0  0  1  0  0  0
  -27.2291  -27.3990   20.1146 C   0  0  0  0  0  0
  -25.5769  -33.8643   24.2335 N   0  0  0  0  0  0
  -23.3981  -30.4765   21.5637 C   0  0  2  0  0  0
  -24.8503  -28.9398   20.1374 C   0  0  0  0  0  0
  -22.7380  -29.4538   22.5159 C   0  0  0  0  0  0
  -18.0248  -28.1305   22.8509 C   0  0  0  0  0  0
  -24.1497  -36.7251   23.2649 C   0  0  0  0  0  0
  -25.9303  -30.8192   21.3905 C   0  0  0  0  0  0
  -26.0049  -29.4480   20.7409 C   0  0  0  0  0  0
  -27.1919  -28.6716   20.7455 C   0  0  0  0  0  0
  -26.0580  -26.9360   19.4729 C   0  0  0  0  0  0
  -24.8707  -27.6881   19.5066 C   0  0  0  0  0  0
  -23.6057  -29.7933   20.1851 C   0  0  0  0  0  0
  -25.4130  -36.3119   24.0363 C   0  0  1  0  0  0
  -20.5805  -28.3547   23.1401 C   0  0  2  0  0  0
  -20.6715  -26.9290   22.5465 C   0  0  0  0  0  0
  -19.5699  -26.6318   21.5233 C   0  0  0  0  0  0
  -18.1869  -26.7856   22.1636 C   0  0  0  0  0  0
  -19.1482  -28.8765   23.2933 C   0  0  0  0  0  0
  -18.9408  -30.1389   23.8899 C   0  0  0  0  0  0
  -17.6398  -30.6554   24.0474 C   0  0  0  0  0  0
  -25.9018  -34.9486   23.5143 C   0  0  0  0  0  0
  -16.5296  -29.9011   23.6320 C   0  0  0  0  0  0
  -16.7222  -28.6412   23.0394 C   0  0  0  0  0  0
  -26.4332  -31.6659   25.0786 C   0  0  0  0  0  0
  -25.3625  -31.3693   26.1573 C   0  0  0  0  0  0
  -27.0102  -30.3100   24.6132 C   0  0  0  0  0  0
  -27.5943  -32.4416   25.7456 C   0  0  0  0  0  0
  -27.5593  -37.1798   24.8471 C   0  0  0  0  0  0
  -21.4129  -29.2901   22.3890 N   0  0  0  0  0  0
  -26.4303  -37.3807   23.9420 N   0  0  0  0  0  0
  -24.6604  -31.0735   22.1092 N   0  0  0  0  0  0
  -23.4166  -28.8100   23.3217 O   0  0  0  0  0  0
  -28.4083  -26.6672   20.1723 O   0  0  0  0  0  0
  -26.5625  -34.8919   22.4753 O   0  0  0  0  0  0
  -23.5219  -32.1422   23.7516 O   0  0  0  0  0  0
  -29.6164  -19.3849   20.3651 C   0  0  0  0  0  0
  -29.6396  -19.0549   17.6123 C   0  0  0  0  0  0
  -29.3179  -20.5101   19.5429 C   0  0  0  0  0  0
  -29.9292  -18.0954   19.8511 C   0  0  0  0  0  0
  -29.3721  -20.3353   18.1290 C   0  0  0  0  0  0
  -29.8951  -17.9374   18.4384 C   0  0  0  0  0  0
  -28.9005  -21.7791   20.2089 C   0  0  0  0  0  0
  -29.1106  -21.4477   17.1195 C   0  0  0  0  0  0
  -30.1532  -16.6173   17.7397 C   0  0  0  0  0  0
  -30.3743  -16.9990   20.8565 C   0  0  0  0  0  0
  -29.1111  -24.3095   20.5041 C   0  0  0  0  0  0
  -28.5720  -25.3809   19.5318 C   0  0  0  0  0  0
  -28.0291  -21.7122   21.2403 N   0  0  0  0  0  0
  -29.9118  -15.6082   20.7184 N   0  0  0  0  0  0
  -29.3613  -22.9985   19.8295 N   0  3  0  0  0  0
  -31.4681  -12.3950   19.1289 H   0  0  0  0  0  0
  -30.3045  -11.3161   19.8491 H   0  0  0  0  0  0
  -29.7403  -11.7407   17.4332 H   0  0  0  0  0  0
  -29.6617  -13.4560   17.7296 H   0  0  0  0  0  0
  -27.8129  -11.2967   18.8002 H   0  0  0  0  0  0
  -27.3674  -12.6222   17.7681 H   0  0  0  0  0  0
  -27.6596  -14.2424   19.5178 H   0  0  0  0  0  0
  -28.7077  -12.0116   21.3403 H   0  0  0  0  0  0
  -28.4867  -13.6644   21.8346 H   0  0  0  0  0  0
  -25.2742   -9.5746   22.4755 H   0  0  0  0  0  0
  -24.0056   -7.4621   22.7396 H   0  0  0  0  0  0
  -21.0822   -8.8635   19.8925 H   0  0  0  0  0  0
  -22.3539  -10.9645   19.6134 H   0  0  0  0  0  0
  -21.1952   -7.6097   23.9714 H   0  0  0  0  0  0
  -21.1505   -6.0520   25.9109 H   0  0  0  0  0  0
  -22.0587   -2.7573   23.2939 H   0  0  0  0  0  0
  -22.4077  -11.9819   22.4825 H   0  0  0  0  0  0
  -21.1129  -13.1236   22.2678 H   0  0  0  0  0  0
  -24.6502  -15.8370   20.5245 H   0  0  0  0  0  0
  -26.2691  -15.6472   20.0867 H   0  0  0  0  0  0
  -26.6905  -32.5574   23.1216 H   0  0  0  0  0  0
  -24.9872  -33.9871   25.0438 H   0  0  0  0  0  0
  -22.6810  -31.2886   21.4157 H   0  0  0  0  0  0
  -23.3817  -35.9510   23.3323 H   0  0  0  0  0  0
  -24.3547  -36.8849   22.2044 H   0  0  0  0  0  0
  -23.7189  -37.6441   23.6648 H   0  0  0  0  0  0
  -26.0744  -31.5911   20.6355 H   0  0  0  0  0  0
  -26.7969  -30.8547   22.0323 H   0  0  0  0  0  0
  -28.0795  -29.0360   21.2504 H   0  0  0  0  0  0
  -26.0130  -26.0119   18.9270 H   0  0  0  0  0  0
  -23.9765  -27.2993   19.0424 H   0  0  0  0  0  0
  -23.7018  -30.5528   19.4094 H   0  0  0  0  0  0
  -22.7405  -29.1845   19.9038 H   0  0  0  0  0  0
  -25.1346  -36.1981   25.0864 H   0  0  0  0  0  0
  -20.9841  -28.3033   24.1521 H   0  0  0  0  0  0
  -20.5593  -26.2099   23.3615 H   0  0  0  0  0  0
  -21.6583  -26.7329   22.1228 H   0  0  0  0  0  0
  -19.6829  -25.6226   21.1231 H   0  0  0  0  0  0
  -19.6640  -27.3152   20.6779 H   0  0  0  0  0  0
  -17.4140  -26.6614   21.4029 H   0  0  0  0  0  0
  -18.0237  -25.9978   22.9018 H   0  0  0  0  0  0
  -19.7895  -30.7205   24.2250 H   0  0  0  0  0  0
  -17.4961  -31.6252   24.5033 H   0  0  0  0  0  0
  -15.5292  -30.2885   23.7680 H   0  0  0  0  0  0
  -15.8618  -28.0691   22.7171 H   0  0  0  0  0  0
  -24.5753  -30.7089   25.7914 H   0  0  0  0  0  0
  -24.8820  -32.2784   26.5212 H   0  0  0  0  0  0
  -25.8012  -30.8728   27.0241 H   0  0  0  0  0  0
  -26.2572  -29.7001   24.1094 H   0  0  0  0  0  0
  -27.3762  -29.7246   25.4587 H   0  0  0  0  0  0
  -27.8533  -30.4459   23.9334 H   0  0  0  0  0  0
  -27.2567  -33.3739   26.2025 H   0  0  0  0  0  0
  -28.3644  -32.6975   25.0152 H   0  0  0  0  0  0
  -28.0693  -31.8542   26.5336 H   0  0  0  0  0  0
  -28.2652  -38.0072   24.7567 H   0  0  0  0  0  0
  -28.1090  -36.2624   24.6295 H   0  0  0  0  0  0
  -27.2291  -37.1421   25.8870 H   0  0  0  0  0  0
  -20.9325  -29.8542   21.7028 H   0  0  0  0  0  0
  -26.0215  -38.2886   24.1473 H   0  0  0  0  0  0
  -29.6032  -19.5260   21.4364 H   0  0  0  0  0  0
  -29.6261  -18.8958   16.5413 H   0  0  0  0  0  0
  -29.0359  -21.0224   16.1150 H   0  0  0  0  0  0
  -29.9220  -22.1788   17.0926 H   0  0  0  0  0  0
  -28.1689  -21.9640   17.3132 H   0  0  0  0  0  0
  -29.8585  -16.6740   16.6903 H   0  0  0  0  0  0
  -29.5736  -15.8097   18.1747 H   0  0  0  0  0  0
  -31.2114  -16.3702   17.7830 H   0  0  0  0  0  0
  -30.0344  -17.2923   21.8489 H   0  0  0  0  0  0
  -31.4642  -17.0444   20.9132 H   0  0  0  0  0  0
  -28.4273  -24.2110   21.3493 H   0  0  0  0  0  0
  -30.0355  -24.6640   20.9606 H   0  0  0  0  0  0
  -27.7038  -24.9354   19.0466 H   0  0  0  0  0  0
  -29.3160  -25.5371   18.7520 H   0  0  0  0  0  0
  -27.5877  -20.8453   21.5271 H   0  0  0  0  0  0
  -27.6751  -22.5420   21.6812 H   0  0  0  0  0  0
  -28.9422  -15.4325   20.9260 H   0  0  0  0  0  0
  -29.9435  -23.0600   18.9981 H   0  0  0  0  0  0
  1 25  1  0  0  0
  1 30  2  0  0  0
  1 84  1  0  0  0
  2  3  1  0  0  0
  2 25  1  0  0  0
  2 86  1  0  0  0
  2 87  1  0  0  0
  3  4  1  0  0  0
  3 88  1  0  0  0
  3 89  1  0  0  0
  4  5  1  0  0  0
  4 90  1  0  0  0
  4 91  1  0  0  0
  5  6  1  0  0  0
  5 26  1  0  0  0
  5 92  1  0  0  0
  6 25  1  0  0  0
  6 93  1  0  0  0
  6 94  1  0  0  0
  7  8  2  0  0  0
  7 26  1  0  0  0
  7 29  1  0  0  0
  8  9  1  0  0  0
  8 22  1  0  0  0
  9 10  1  0  0  0
  9 27  2  0  0  0
 10 11  2  0  0  0
 10 15  1  0  0  0
 11 12  1  0  0  0
 11 95  1  0  0  0
 12 13  2  0  0  0
 12 96  1  0  0  0
 13 14  1  0  0  0
 13 31  1  0  0  0
 14 15  2  0  0  0
 14 97  1  0  0  0
 15 98  1  0  0  0
 16 17  2  0  0  0
 16 21  1  0  0  0
 16 31  1  0  0  0
 17 18  1  0  0  0
 17 99  1  0  0  0
 18 19  2  0  0  0
 18100  1  0  0  0
 19 20  1  0  0  0
 19 24  1  0  0  0
 20 21  2  0  0  0
 20101  1  0  0  0
 21 23  1  0  0  0
 22 28  1  0  0  0
 22 32  2  0  0  0
 26 27  1  0  0  0
 28102  1  0  0  0
 28103  1  0  0  0
 29104  1  0  0  0
 29105  1  0  0  0
 33 34  1  0  0  0
 33 66  1  0  0  0
 33 70  2  0  0  0
 34 36  1  0  0  0
 34 59  1  0  0  0
 34106  1  0  0  0
 35 44  2  0  0  0
 35 45  1  0  0  0
 35 68  1  0  0  0
 36 56  1  0  0  0
 36107  1  0  0  0
 37 39  1  0  0  0
 37 47  1  0  0  0
 37 66  1  0  0  0
 37108  1  0  0  0
 38 43  2  0  0  0
 38 46  1  0  0  0
 38 47  1  0  0  0
 39 64  1  0  0  0
 39 67  2  0  0  0
 40 52  1  0  0  0
 40 53  2  0  0  0
 40 58  1  0  0  0
 41109  1  0  0  0
 41110  1  0  0  0
 41111  1  0  0  0
 41 48  1  0  0  0
 42 43  1  0  0  0
 42 66  1  0  0  0
 42112  1  0  0  0
 42113  1  0  0  0
 43 44  1  0  0  0
 44114  1  0  0  0
 45 46  2  0  0  0
 45115  1  0  0  0
 46116  1  0  0  0
 47117  1  0  0  0
 47118  1  0  0  0
 48 56  1  0  0  0
 48 65  1  0  0  0
 48119  1  0  0  0
 49 50  1  0  0  0
 49 53  1  0  0  0
 49 64  1  0  0  0
 49120  1  0  0  0
 50 51  1  0  0  0
 50121  1  0  0  0
 50122  1  0  0  0
 51 52  1  0  0  0
 51123  1  0  0  0
 51124  1  0  0  0
 52125  1  0  0  0
 52126  1  0  0  0
 53 54  1  0  0  0
 54 55  2  0  0  0
 54127  1  0  0  0
 55 57  1  0  0  0
 55128  1  0  0  0
 56 69  2  0  0  0
 57 58  2  0  0  0
 57129  1  0  0  0
 58130  1  0  0  0
 59 60  1  0  0  0
 59 61  1  0  0  0
 59 62  1  0  0  0
 60131  1  0  0  0
 60132  1  0  0  0
 60133  1  0  0  0
 61134  1  0  0  0
 61135  1  0  0  0
 61136  1  0  0  0
 62137  1  0  0  0
 62138  1  0  0  0
 62139  1  0  0  0
 63 65  1  0  0  0
 63140  1  0  0  0
 63141  1  0  0  0
 63142  1  0  0  0
 64143  1  0  0  0
 65144  1  0  0  0
 68 82  1  0  0  0
 71 73  2  0  0  0
 71 74  1  0  0  0
 71145  1  0  0  0
 72 75  2  0  0  0
 72 76  1  0  0  0
 72146  1  0  0  0
 73 75  1  0  0  0
 73 77  1  0  0  0
 74 76  2  0  0  0
 74 80  1  0  0  0
 75 78  1  0  0  0
 76 79  1  0  0  0
 77 83  1  0  0  0
 77 85  2  0  0  0
 78147  1  0  0  0
 78148  1  0  0  0
 78149  1  0  0  0
 79150  1  0  0  0
 79151  1  0  0  0
 79152  1  0  0  0
 80 84  1  0  0  0
 80153  1  0  0  0
 80154  1  0  0  0
 81 82  1  0  0  0
 81 85  1  0  0  0
 81155  1  0  0  0
 81156  1  0  0  0
 82157  1  0  0  0
 82158  1  0  0  0
 83159  1  0  0  0
 83160  1  0  0  0
 84161  1  0  0  0
 85162  1  0  0  0
M  CHG  1  85   1
M  ISO  4   1 100  68 101  82 101  84 100
M  END
> <chiral flag>
0

> <version>
0

> <s_m_source_file>
/data/baiqing/PycharmProjects/Reinvent-master-3.2/result/LINK_invent/BTK/process_docking_weight1_custom_product_contain_oxygen_bond_distance_aromatic_linkinvent_7_9_3/rearranged_h_0034.sdf

> <i_m_source_file_index>
35

> <r_mmod_Potential_Energy-OPLS-2005>
-235.390548706055

> <r_mmod_Stretch_Energy-OPLS-2005>
46.636474609375

> <r_mmod_Bend_Energy-OPLS-2005>
131.761962890625

> <r_mmod_Torsional_Energy-OPLS-2005>
200.394561767578

> <r_mmod_Improper_Torsional_Energy-OPLS-2005>
5.48382902145386

> <r_mmod_Van_der_Waal_Energy-OPLS-2005>
158.498306274414

> <r_mmod_Electrostatic_Energy-OPLS-2005>
-397.339538574219

> <r_mmod_Solvation_Energy-OPLS-2005>
-406.040740966797

> <b_mmod_Minimization_Converged-OPLS-2005>
0

> <r_mmod_RMS_Derivative-OPLS-2005>
12.826605796814

$$$$
35
                    3D
 Structure written by MMmdl.
170179  0  0  1  0            999 V2000
  -30.7744  -14.4199   20.5753 C   0  0  0  0  0  0
  -30.4067  -12.2780   19.4238 C   0  0  0  0  0  0
  -29.4889  -12.4952   18.2060 C   0  0  0  0  0  0
  -28.0105  -12.3800   18.6137 C   0  0  0  0  0  0
  -27.6658  -13.2133   19.8783 C   0  0  2  0  0  0
  -28.7113  -13.0092   21.0008 C   0  0  0  0  0  0
  -25.2600  -13.8164   20.5649 C   0  0  0  0  0  0
  -24.1843  -13.0454   20.9166 C   0  0  0  0  0  0
  -24.6408  -11.6915   20.8748 C   0  0  0  0  0  0
  -23.9050  -10.4301   21.0403 C   0  0  0  0  0  0
  -24.3589   -9.4210   21.9185 C   0  0  0  0  0  0
  -23.6260   -8.2245   22.0745 C   0  0  0  0  0  0
  -22.4249   -8.0288   21.3528 C   0  0  0  0  0  0
  -21.9885   -9.0274   20.4638 C   0  0  0  0  0  0
  -22.7214  -10.2162   20.3049 C   0  0  0  0  0  0
  -21.6861   -6.0727   22.5258 C   0  0  0  0  0  0
  -21.4026   -6.5620   23.8202 C   0  0  0  0  0  0
  -21.3650   -5.6769   24.9162 C   0  0  0  0  0  0
  -21.6047   -4.3031   24.7208 C   0  0  0  0  0  0
  -21.8825   -3.8129   23.4322 C   0  0  0  0  0  0
  -21.9199   -4.6949   22.3381 C   0  0  0  0  0  0
  -22.7862  -13.5285   21.1791 C   0  0  0  0  0  0
  -22.1660   -4.2138   21.0954 F   0  0  0  0  0  0
  -21.5631   -3.4507   25.7709 F   0  0  0  0  0  0
  -30.0441  -13.2812   20.4386 N   0  0  0  0  0  0
  -26.3060  -12.9363   20.3390 N   0  0  0  0  0  0
  -25.9343  -11.6517   20.5769 N   0  0  0  0  0  0
  -22.0459  -12.8331   22.0349 N   0  0  0  0  0  0
  -25.4313  -15.1873   20.3990 N   0  0  0  0  0  0
  -31.8830  -14.5567   20.0546 O   0  0  0  0  0  0
  -21.6625   -6.8872   21.4227 O   0  0  0  0  0  0
  -22.3552  -14.5586   20.6610 O   0  0  0  0  0  0
  -24.6174  -31.8688   23.2133 C   0  0  0  0  0  0
  -25.9080  -32.4806   23.8401 C   0  0  1  0  0  0
  -27.2183  -27.4279   20.0833 C   0  0  0  0  0  0
  -25.5950  -33.8607   24.2346 N   0  0  0  0  0  0
  -23.4032  -30.4998   21.5542 C   0  0  2  0  0  0
  -24.8469  -28.9763   20.1058 C   0  0  0  0  0  0
  -22.7405  -29.4709   22.4987 C   0  0  0  0  0  0
  -18.0285  -28.1379   22.8493 C   0  0  0  0  0  0
  -24.1486  -36.7304   23.2641 C   0  0  0  0  0  0
  -25.9340  -30.8320   21.3651 C   0  0  0  0  0  0
  -26.0097  -29.4701   20.7080 C   0  0  0  0  0  0
  -27.1993  -28.7031   20.6966 C   0  0  0  0  0  0
  -26.0408  -26.9739   19.4379 C   0  0  0  0  0  0
  -24.8585  -27.7277   19.4685 C   0  0  0  0  0  0
  -23.6095  -29.8394   20.1659 C   0  0  0  0  0  0
  -25.4097  -36.3098   24.0350 C   0  0  1  0  0  0
  -20.5897  -28.3676   23.1306 C   0  0  2  0  0  0
  -20.6799  -26.9408   22.5410 C   0  0  0  0  0  0
  -19.5760  -26.6356   21.5224 C   0  0  0  0  0  0
  -18.1917  -26.7951   22.1562 C   0  0  0  0  0  0
  -19.1539  -28.8820   23.2931 C   0  0  0  0  0  0
  -18.9463  -30.1413   23.8963 C   0  0  0  0  0  0
  -17.6468  -30.6575   24.0583 C   0  0  0  0  0  0
  -25.9037  -34.9474   23.5130 C   0  0  0  0  0  0
  -16.5362  -29.9104   23.6300 C   0  0  0  0  0  0
  -16.7285  -28.6525   23.0330 C   0  0  0  0  0  0
  -26.4493  -31.6577   25.0722 C   0  0  0  0  0  0
  -25.3738  -31.3720   26.1459 C   0  0  0  0  0  0
  -27.0324  -30.3019   24.6085 C   0  0  0  0  0  0
  -27.6075  -32.4292   25.7486 C   0  0  0  0  0  0
  -27.5573  -37.1802   24.8466 C   0  0  0  0  0  0
  -21.4133  -29.3068   22.3700 N   0  0  0  0  0  0
  -26.4273  -37.3782   23.9431 N   0  0  0  0  0  0
  -24.6716  -31.0791   22.1028 N   0  0  0  0  0  0
  -23.4162  -28.8264   23.3040 O   0  0  0  0  0  0
  -28.3477  -26.6309   20.1790 O   0  0  0  0  0  0
  -26.5561  -34.8920   22.4680 O   0  0  0  0  0  0
  -23.5373  -32.1471   23.7514 O   0  0  0  0  0  0
  -30.4353  -19.1733   21.7950 C   0  0  0  0  0  0
  -29.8984  -20.4382   21.5161 C   0  0  0  0  0  0
  -30.1228  -18.0474   21.0110 C   0  0  0  0  0  0
  -28.9825  -20.6187   20.4591 C   0  0  0  0  0  0
  -29.2604  -18.2206   19.8888 C   0  0  0  0  0  0
  -28.6539  -19.4945   19.6450 C   0  0  0  0  0  0
  -27.4136  -23.4846   21.9263 C   0  0  0  0  0  0
  -26.6783  -22.7407   22.7726 C   0  0  0  0  0  0
  -27.1118  -24.8963   21.4764 C   0  0  0  0  0  0
  -29.2714  -24.3124   20.6841 C   0  0  0  0  0  0
  -28.0839  -25.2145   20.3249 C   0  0  2  0  0  0
  -29.0236  -17.0901   18.8922 C   0  0  0  0  0  0
  -27.6916  -19.6649   18.4637 C   0  0  0  0  0  0
  -26.9564  -21.3183   23.2063 C   0  0  0  0  0  0
  -30.8607  -16.7540   21.4047 C   0  0  0  0  0  0
  -28.4155  -22.0217   20.1557 C   0  0  0  0  0  0
  -30.1956  -15.4541   21.2090 N   0  0  0  0  0  0
  -28.6515  -23.0618   21.2040 N   0  3  2  0  0  0
  -31.4543  -12.3389   19.1221 H   0  0  0  0  0  0
  -30.2806  -11.2726   19.8294 H   0  0  0  0  0  0
  -29.7174  -11.7655   17.4293 H   0  0  0  0  0  0
  -29.6731  -13.4803   17.7734 H   0  0  0  0  0  0
  -27.8093  -11.3245   18.7939 H   0  0  0  0  0  0
  -27.3653  -12.6751   17.7833 H   0  0  0  0  0  0
  -27.7120  -14.2610   19.5832 H   0  0  0  0  0  0
  -28.6782  -11.9840   21.3748 H   0  0  0  0  0  0
  -28.4856  -13.6451   21.8581 H   0  0  0  0  0  0
  -25.2728   -9.5696   22.4774 H   0  0  0  0  0  0
  -23.9962   -7.4645   22.7483 H   0  0  0  0  0  0
  -21.0805   -8.8805   19.8953 H   0  0  0  0  0  0
  -22.3659  -10.9707   19.6156 H   0  0  0  0  0  0
  -21.2025   -7.6129   23.9705 H   0  0  0  0  0  0
  -21.1462   -6.0486   25.9067 H   0  0  0  0  0  0
  -22.0616   -2.7592   23.2813 H   0  0  0  0  0  0
  -22.4016  -12.0001   22.4799 H   0  0  0  0  0  0
  -21.1091  -13.1431   22.2516 H   0  0  0  0  0  0
  -24.6622  -15.8413   20.4852 H   0  0  0  0  0  0
  -26.2838  -15.6209   20.0679 H   0  0  0  0  0  0
  -26.7158  -32.5523   23.1178 H   0  0  0  0  0  0
  -25.0142  -33.9761   25.0515 H   0  0  0  0  0  0
  -22.6941  -31.3194   21.4189 H   0  0  0  0  0  0
  -23.3725  -35.9657   23.3296 H   0  0  0  0  0  0
  -24.3554  -36.8903   22.2046 H   0  0  0  0  0  0
  -23.7238  -37.6518   23.6638 H   0  0  0  0  0  0
  -26.0345  -31.5940   20.5910 H   0  0  0  0  0  0
  -26.8264  -30.8887   21.9756 H   0  0  0  0  0  0
  -28.0866  -29.0669   21.1921 H   0  0  0  0  0  0
  -25.9946  -26.0242   18.9237 H   0  0  0  0  0  0
  -23.9674  -27.3511   18.9896 H   0  0  0  0  0  0
  -23.7160  -30.6152   19.4073 H   0  0  0  0  0  0
  -22.7350  -29.2587   19.8716 H   0  0  0  0  0  0
  -25.1255  -36.1969   25.0832 H   0  0  0  0  0  0
  -21.0031  -28.3247   24.1415 H   0  0  0  0  0  0
  -20.5744  -26.2295   23.3613 H   0  0  0  0  0  0
  -21.6647  -26.7409   22.1139 H   0  0  0  0  0  0
  -19.6915  -25.6259   21.1261 H   0  0  0  0  0  0
  -19.6762  -27.3151   20.6757 H   0  0  0  0  0  0
  -17.4247  -26.6871   21.3881 H   0  0  0  0  0  0
  -18.0141  -26.0019   22.8832 H   0  0  0  0  0  0
  -19.7941  -30.7202   24.2388 H   0  0  0  0  0  0
  -17.5016  -31.6265   24.5176 H   0  0  0  0  0  0
  -15.5371  -30.3057   23.7551 H   0  0  0  0  0  0
  -15.8673  -28.0889   22.6988 H   0  0  0  0  0  0
  -24.5921  -30.7053   25.7794 H   0  0  0  0  0  0
  -24.8925  -32.2908   26.4845 H   0  0  0  0  0  0
  -25.8068  -30.8931   27.0254 H   0  0  0  0  0  0
  -26.2895  -29.6778   24.1093 H   0  0  0  0  0  0
  -27.4064  -29.7240   25.4551 H   0  0  0  0  0  0
  -27.8739  -30.4335   23.9263 H   0  0  0  0  0  0
  -27.2695  -33.3595   26.2075 H   0  0  0  0  0  0
  -28.3874  -32.6834   25.0291 H   0  0  0  0  0  0
  -28.0745  -31.8393   26.5390 H   0  0  0  0  0  0
  -28.2585  -38.0103   24.7482 H   0  0  0  0  0  0
  -28.1062  -36.2626   24.6303 H   0  0  0  0  0  0
  -27.2291  -37.1461   25.8868 H   0  0  0  0  0  0
  -20.9303  -29.8699   21.6840 H   0  0  0  0  0  0
  -26.0160  -38.2859   24.1427 H   0  0  0  0  0  0
  -31.1328  -19.0828   22.6153 H   0  0  0  0  0  0
  -30.2121  -21.2579   22.1439 H   0  0  0  0  0  0
  -25.7624  -23.1681   23.1600 H   0  0  0  0  0  0
  -27.2843  -25.5701   22.3167 H   0  0  0  0  0  0
  -26.0618  -24.9757   21.1898 H   0  0  0  0  0  0
  -29.8435  -24.7605   21.4981 H   0  0  0  0  0  0
  -29.9663  -24.1524   19.8586 H   0  0  0  0  0  0
  -27.6950  -24.8230   19.3848 H   0  0  0  0  0  0
  -29.8280  -16.3623   18.8713 H   0  0  0  0  0  0
  -28.9918  -17.4708   17.8724 H   0  0  0  0  0  0
  -28.0819  -16.5841   19.1003 H   0  0  0  0  0  0
  -26.8545  -20.3219   18.6895 H   0  0  0  0  0  0
  -27.2162  -18.7339   18.1579 H   0  0  0  0  0  0
  -28.2204  -20.0671   17.5983 H   0  0  0  0  0  0
  -28.0220  -21.1206   23.2888 H   0  0  0  0  0  0
  -26.5183  -20.6125   22.5010 H   0  0  0  0  0  0
  -26.5187  -21.1425   24.1904 H   0  0  0  0  0  0
  -31.0954  -16.8025   22.4683 H   0  0  0  0  0  0
  -31.8326  -16.8023   20.9101 H   0  0  0  0  0  0
  -27.3408  -21.9529   19.9915 H   0  0  0  0  0  0
  -28.8346  -22.3346   19.2008 H   0  0  0  0  0  0
  -29.2729  -15.3328   21.5929 H   0  0  0  0  0  0
  -29.3032  -22.6520   21.8554 H   0  0  0  0  0  0
  1 25  1  0  0  0
  1 30  2  0  0  0
  1 87  1  0  0  0
  2  3  1  0  0  0
  2 25  1  0  0  0
  2 89  1  0  0  0
  2 90  1  0  0  0
  3  4  1  0  0  0
  3 91  1  0  0  0
  3 92  1  0  0  0
  4  5  1  0  0  0
  4 93  1  0  0  0
  4 94  1  0  0  0
  5  6  1  0  0  0
  5 26  1  0  0  0
  5 95  1  0  0  0
  6 25  1  0  0  0
  6 96  1  0  0  0
  6 97  1  0  0  0
  7  8  2  0  0  0
  7 26  1  0  0  0
  7 29  1  0  0  0
  8  9  1  0  0  0
  8 22  1  0  0  0
  9 10  1  0  0  0
  9 27  2  0  0  0
 10 11  2  0  0  0
 10 15  1  0  0  0
 11 12  1  0  0  0
 11 98  1  0  0  0
 12 13  2  0  0  0
 12 99  1  0  0  0
 13 14  1  0  0  0
 13 31  1  0  0  0
 14 15  2  0  0  0
 14100  1  0  0  0
 15101  1  0  0  0
 16 17  2  0  0  0
 16 21  1  0  0  0
 16 31  1  0  0  0
 17 18  1  0  0  0
 17102  1  0  0  0
 18 19  2  0  0  0
 18103  1  0  0  0
 19 20  1  0  0  0
 19 24  1  0  0  0
 20 21  2  0  0  0
 20104  1  0  0  0
 21 23  1  0  0  0
 22 28  1  0  0  0
 22 32  2  0  0  0
 26 27  1  0  0  0
 28105  1  0  0  0
 28106  1  0  0  0
 29107  1  0  0  0
 29108  1  0  0  0
 33 34  1  0  0  0
 33 66  1  0  0  0
 33 70  2  0  0  0
 34 36  1  0  0  0
 34 59  1  0  0  0
 34109  1  0  0  0
 35 44  2  0  0  0
 35 45  1  0  0  0
 35 68  1  0  0  0
 36 56  1  0  0  0
 36110  1  0  0  0
 37 39  1  0  0  0
 37 47  1  0  0  0
 37 66  1  0  0  0
 37111  1  0  0  0
 38 43  2  0  0  0
 38 46  1  0  0  0
 38 47  1  0  0  0
 39 64  1  0  0  0
 39 67  2  0  0  0
 40 52  1  0  0  0
 40 53  2  0  0  0
 40 58  1  0  0  0
 41112  1  0  0  0
 41113  1  0  0  0
 41114  1  0  0  0
 41 48  1  0  0  0
 42 43  1  0  0  0
 42 66  1  0  0  0
 42115  1  0  0  0
 42116  1  0  0  0
 43 44  1  0  0  0
 44117  1  0  0  0
 45 46  2  0  0  0
 45118  1  0  0  0
 46119  1  0  0  0
 47120  1  0  0  0
 47121  1  0  0  0
 48 56  1  0  0  0
 48 65  1  0  0  0
 48122  1  0  0  0
 49 50  1  0  0  0
 49 53  1  0  0  0
 49 64  1  0  0  0
 49123  1  0  0  0
 50 51  1  0  0  0
 50124  1  0  0  0
 50125  1  0  0  0
 51 52  1  0  0  0
 51126  1  0  0  0
 51127  1  0  0  0
 52128  1  0  0  0
 52129  1  0  0  0
 53 54  1  0  0  0
 54 55  2  0  0  0
 54130  1  0  0  0
 55 57  1  0  0  0
 55131  1  0  0  0
 56 69  2  0  0  0
 57 58  2  0  0  0
 57132  1  0  0  0
 58133  1  0  0  0
 59 60  1  0  0  0
 59 61  1  0  0  0
 59 62  1  0  0  0
 60134  1  0  0  0
 60135  1  0  0  0
 60136  1  0  0  0
 61137  1  0  0  0
 61138  1  0  0  0
 61139  1  0  0  0
 62140  1  0  0  0
 62141  1  0  0  0
 62142  1  0  0  0
 63 65  1  0  0  0
 63143  1  0  0  0
 63144  1  0  0  0
 63145  1  0  0  0
 64146  1  0  0  0
 65147  1  0  0  0
 68 81  1  0  0  0
 71 72  2  0  0  0
 71 73  1  0  0  0
 71148  1  0  0  0
 72 74  1  0  0  0
 72149  1  0  0  0
 73 75  2  0  0  0
 73 85  1  0  0  0
 74 76  2  0  0  0
 74 86  1  0  0  0
 75 76  1  0  0  0
 75 82  1  0  0  0
 76 83  1  0  0  0
 77 78  2  0  0  0
 77 79  1  0  0  0
 77 88  1  0  0  0
 78 84  1  0  0  0
 78150  1  0  0  0
 79 81  1  0  0  0
 79151  1  0  0  0
 79152  1  0  0  0
 80 81  1  0  0  0
 80 88  1  0  0  0
 80153  1  0  0  0
 80154  1  0  0  0
 81155  1  0  0  0
 82156  1  0  0  0
 82157  1  0  0  0
 82158  1  0  0  0
 83159  1  0  0  0
 83160  1  0  0  0
 83161  1  0  0  0
 84162  1  0  0  0
 84163  1  0  0  0
 84164  1  0  0  0
 85 87  1  0  0  0
 85165  1  0  0  0
 85166  1  0  0  0
 86167  1  0  0  0
 86168  1  0  0  0
 86 88  1  0  0  0
 87169  1  0  0  0
 88170  1  0  0  0
M  CHG  1  88   1
M  ISO  4   1 100  68 101  81 101  87 100
M  END
> <chiral flag>
0

> <version>
0

> <s_m_source_file>
/data/baiqing/PycharmProjects/Reinvent-master-3.2/result/LINK_invent/BTK/process_docking_weight1_custom_product_contain_oxygen_bond_distance_aromatic_linkinvent_7_9_3/rearranged_h_0034.sdf

> <i_m_source_file_index>
36

> <r_mmod_Potential_Energy-OPLS-2005>
-143.080383300781

> <r_mmod_Stretch_Energy-OPLS-2005>
44.1903076171875

> <r_mmod_Bend_Energy-OPLS-2005>
145.287796020508

> <r_mmod_Torsional_Energy-OPLS-2005>
232.787658691406

> <r_mmod_Improper_Torsional_Energy-OPLS-2005>
3.39290428161621

> <r_mmod_Van_der_Waal_Energy-OPLS-2005>
169.834762573242

> <r_mmod_Electrostatic_Energy-OPLS-2005>
-341.711853027344

> <r_mmod_Solvation_Energy-OPLS-2005>
-414.660705566406

> <b_mmod_Minimization_Converged-OPLS-2005>
0

> <r_mmod_RMS_Derivative-OPLS-2005>
3.99959373474121

$$$$
36
                    3D
 Structure written by MMmdl.
160169  0  0  1  0            999 V2000
  -30.6828  -14.6427   20.4604 C   0  0  0  0  0  0
  -30.4143  -12.3879   19.4692 C   0  0  0  0  0  0
  -29.5030  -12.4894   18.2288 C   0  0  0  0  0  0
  -28.0250  -12.3447   18.6383 C   0  0  0  0  0  0
  -27.6438  -13.2346   19.8529 C   0  0  2  0  0  0
  -28.6883  -13.1565   20.9886 C   0  0  0  0  0  0
  -25.2511  -13.8211   20.5689 C   0  0  0  0  0  0
  -24.1800  -13.0447   20.9195 C   0  0  0  0  0  0
  -24.6397  -11.6926   20.8734 C   0  0  0  0  0  0
  -23.9069  -10.4293   21.0397 C   0  0  0  0  0  0
  -24.3615   -9.4211   21.9180 C   0  0  0  0  0  0
  -23.6291   -8.2241   22.0741 C   0  0  0  0  0  0
  -22.4279   -8.0279   21.3530 C   0  0  0  0  0  0
  -21.9914   -9.0259   20.4632 C   0  0  0  0  0  0
  -22.7239  -10.2139   20.3046 C   0  0  0  0  0  0
  -21.6862   -6.0729   22.5276 C   0  0  0  0  0  0
  -21.4022   -6.5635   23.8208 C   0  0  0  0  0  0
  -21.3657   -5.6786   24.9170 C   0  0  0  0  0  0
  -21.6044   -4.3048   24.7229 C   0  0  0  0  0  0
  -21.8816   -3.8139   23.4347 C   0  0  0  0  0  0
  -21.9193   -4.6952   22.3402 C   0  0  0  0  0  0
  -22.7811  -13.5218   21.1863 C   0  0  0  0  0  0
  -22.1662   -4.2137   21.0974 F   0  0  0  0  0  0
  -21.5628   -3.4534   25.7743 F   0  0  0  0  0  0
  -29.9988  -13.4565   20.4015 N   0  0  0  0  0  0
  -26.2942  -12.9432   20.3298 N   0  0  0  0  0  0
  -25.9334  -11.6560   20.5747 N   0  0  0  0  0  0
  -22.0452  -12.8209   22.0416 N   0  0  0  0  0  0
  -25.4208  -15.1937   20.4108 N   0  0  0  0  0  0
  -31.8755  -14.6890   20.1536 O   0  0  0  0  0  0
  -21.6641   -6.8877   21.4239 O   0  0  0  0  0  0
  -22.3494  -14.5528   20.6723 O   0  0  0  0  0  0
  -24.6228  -31.8606   23.2006 C   0  0  0  0  0  0
  -25.9082  -32.4776   23.8335 C   0  0  1  0  0  0
  -27.2297  -27.3455   20.1157 C   0  0  0  0  0  0
  -25.5908  -33.8573   24.2272 N   0  0  0  0  0  0
  -23.4155  -30.4816   21.5436 C   0  0  2  0  0  0
  -24.8621  -28.9301   20.1180 C   0  0  0  0  0  0
  -22.7461  -29.4624   22.4947 C   0  0  0  0  0  0
  -18.0288  -28.1390   22.8494 C   0  0  0  0  0  0
  -24.1485  -36.7294   23.2636 C   0  0  0  0  0  0
  -25.9525  -30.8028   21.3627 C   0  0  0  0  0  0
  -26.0304  -29.4266   20.7138 C   0  0  0  0  0  0
  -27.2207  -28.6461   20.6985 C   0  0  0  0  0  0
  -26.0426  -26.8860   19.5096 C   0  0  0  0  0  0
  -24.8681  -27.6634   19.5089 C   0  0  0  0  0  0
  -23.6296  -29.8109   20.1605 C   0  0  0  0  0  0
  -25.4107  -36.3077   24.0332 C   0  0  1  0  0  0
  -20.5889  -28.3679   23.1306 C   0  0  2  0  0  0
  -20.6765  -26.9411   22.5405 C   0  0  0  0  0  0
  -19.5731  -26.6414   21.5205 C   0  0  0  0  0  0
  -18.1922  -26.7939   22.1633 C   0  0  0  0  0  0
  -19.1541  -28.8846   23.2901 C   0  0  0  0  0  0
  -18.9464  -30.1455   23.8906 C   0  0  0  0  0  0
  -17.6460  -30.6578   24.0584 C   0  0  0  0  0  0
  -25.9041  -34.9450   23.5103 C   0  0  0  0  0  0
  -16.5348  -29.9082   23.6342 C   0  0  0  0  0  0
  -16.7281  -28.6509   23.0346 C   0  0  0  0  0  0
  -26.4479  -31.6563   25.0682 C   0  0  0  0  0  0
  -25.3738  -31.3693   26.1430 C   0  0  0  0  0  0
  -27.0306  -30.2996   24.6076 C   0  0  0  0  0  0
  -27.6050  -32.4275   25.7462 C   0  0  0  0  0  0
  -27.5587  -37.1790   24.8458 C   0  0  0  0  0  0
  -21.4170  -29.3038   22.3704 N   0  0  0  0  0  0
  -26.4270  -37.3786   23.9432 N   0  0  0  0  0  0
  -24.6825  -31.0647   22.0939 N   0  0  0  0  0  0
  -23.4192  -28.8179   23.3025 O   0  0  0  0  0  0
  -28.3603  -26.5270   20.0917 O   0  0  0  0  0  0
  -26.5627  -34.8913   22.4679 O   0  0  0  0  0  0
  -23.5388  -32.1389   23.7350 O   0  0  0  0  0  0
  -29.9648  -19.4301   19.2957 C   0  0  0  0  0  0
  -29.2339  -20.5687   21.7081 C   0  0  0  0  0  0
  -29.6731  -20.8320   19.3619 C   0  0  0  0  0  0
  -29.9575  -18.5705   20.4287 C   0  0  0  0  0  0
  -29.3533  -21.4661   20.6042 C   0  0  0  0  0  0
  -29.5426  -19.1765   21.6413 C   0  0  0  0  0  0
  -29.6671  -23.6220   21.9218 C   0  0  0  0  0  0
  -30.4706  -23.1940   22.9104 C   0  0  0  0  0  0
  -29.2089  -25.0693   21.8432 C   0  0  0  0  0  0
  -28.6309  -23.8731   19.8527 C   0  0  0  0  0  0
  -28.2452  -25.1727   20.6626 C   0  0  2  0  0  0
  -29.8141  -21.6301   18.0745 C   0  0  0  0  0  0
  -30.6500  -17.1543   20.3513 C   0  0  0  0  0  0
  -29.2202  -22.8984   20.8128 N   0  0  0  0  0  0
  -29.9921  -15.8207   20.6120 N   0  0  0  0  0  0
  -29.5003  -18.2470   23.0969 Cl  0  0  0  0  0  0
  -31.4612  -12.4715   19.1708 H   0  0  0  0  0  0
  -30.3173  -11.4089   19.9426 H   0  0  0  0  0  0
  -29.7682  -11.7200   17.5024 H   0  0  0  0  0  0
  -29.6603  -13.4480   17.7318 H   0  0  0  0  0  0
  -27.8526  -11.2953   18.8795 H   0  0  0  0  0  0
  -27.3772  -12.5726   17.7904 H   0  0  0  0  0  0
  -27.6472  -14.2603   19.4836 H   0  0  0  0  0  0
  -28.6936  -12.1687   21.4506 H   0  0  0  0  0  0
  -28.4429  -13.8663   21.7805 H   0  0  0  0  0  0
  -25.2757   -9.5708   22.4759 H   0  0  0  0  0  0
  -24.0005   -7.4642   22.7471 H   0  0  0  0  0  0
  -21.0836   -8.8776   19.8953 H   0  0  0  0  0  0
  -22.3684  -10.9676   19.6154 H   0  0  0  0  0  0
  -21.2026   -7.6149   23.9708 H   0  0  0  0  0  0
  -21.1480   -6.0517   25.9071 H   0  0  0  0  0  0
  -22.0601   -2.7605   23.2842 H   0  0  0  0  0  0
  -22.4068  -11.9870   22.4799 H   0  0  0  0  0  0
  -21.1065  -13.1229   22.2612 H   0  0  0  0  0  0
  -24.6552  -15.8476   20.5298 H   0  0  0  0  0  0
  -26.2706  -15.6350   20.0840 H   0  0  0  0  0  0
  -26.7157  -32.5471   23.1092 H   0  0  0  0  0  0
  -25.0031  -33.9713   25.0396 H   0  0  0  0  0  0
  -22.7083  -31.3009   21.3986 H   0  0  0  0  0  0
  -23.3737  -35.9633   23.3263 H   0  0  0  0  0  0
  -24.3600  -36.8933   22.2059 H   0  0  0  0  0  0
  -23.7220  -37.6480   23.6671 H   0  0  0  0  0  0
  -26.0689  -31.5617   20.5873 H   0  0  0  0  0  0
  -26.8411  -30.8653   21.9809 H   0  0  0  0  0  0
  -28.1237  -29.0269   21.1558 H   0  0  0  0  0  0
  -26.0272  -25.9155   19.0348 H   0  0  0  0  0  0
  -23.9748  -27.2771   19.0377 H   0  0  0  0  0  0
  -23.7486  -30.5845   19.4009 H   0  0  0  0  0  0
  -22.7517  -29.2367   19.8594 H   0  0  0  0  0  0
  -25.1269  -36.1928   25.0818 H   0  0  0  0  0  0
  -21.0004  -28.3239   24.1418 H   0  0  0  0  0  0
  -20.5668  -26.2282   23.3594 H   0  0  0  0  0  0
  -21.6640  -26.7438   22.1208 H   0  0  0  0  0  0
  -19.6889  -25.6339   21.1203 H   0  0  0  0  0  0
  -19.6665  -27.3252   20.6756 H   0  0  0  0  0  0
  -17.4202  -26.6709   21.4025 H   0  0  0  0  0  0
  -18.0318  -26.0064   22.9012 H   0  0  0  0  0  0
  -19.7931  -30.7288   24.2260 H   0  0  0  0  0  0
  -17.5008  -31.6254   24.5197 H   0  0  0  0  0  0
  -15.5349  -30.2988   23.7640 H   0  0  0  0  0  0
  -15.8691  -28.0838   22.7028 H   0  0  0  0  0  0
  -24.5925  -30.7007   25.7788 H   0  0  0  0  0  0
  -24.8911  -32.2853   26.4849 H   0  0  0  0  0  0
  -25.8103  -30.8903   27.0203 H   0  0  0  0  0  0
  -26.2850  -29.6756   24.1130 H   0  0  0  0  0  0
  -27.4060  -29.7223   25.4532 H   0  0  0  0  0  0
  -27.8692  -30.4284   23.9231 H   0  0  0  0  0  0
  -27.2677  -33.3590   26.2020 H   0  0  0  0  0  0
  -28.3891  -32.6797   25.0312 H   0  0  0  0  0  0
  -28.0677  -31.8391   26.5393 H   0  0  0  0  0  0
  -28.2555  -38.0134   24.7576 H   0  0  0  0  0  0
  -28.1120  -36.2671   24.6176 H   0  0  0  0  0  0
  -27.2333  -37.1321   25.8861 H   0  0  0  0  0  0
  -20.9331  -29.8774   21.6940 H   0  0  0  0  0  0
  -26.0137  -38.2838   24.1476 H   0  0  0  0  0  0
  -30.2909  -19.0196   18.3491 H   0  0  0  0  0  0
  -28.9520  -20.9668   22.6720 H   0  0  0  0  0  0
  -30.7742  -23.8722   23.6966 H   0  0  0  0  0  0
  -30.8629  -22.1899   22.9604 H   0  0  0  0  0  0
  -30.0882  -25.6937   21.6761 H   0  0  0  0  0  0
  -28.7405  -25.4019   22.7704 H   0  0  0  0  0  0
  -29.3821  -24.1285   19.1055 H   0  0  0  0  0  0
  -27.7672  -23.4590   19.3335 H   0  0  0  0  0  0
  -27.2401  -25.0158   21.0585 H   0  0  0  0  0  0
  -30.1394  -21.0038   17.2431 H   0  0  0  0  0  0
  -30.5526  -22.4235   18.1907 H   0  0  0  0  0  0
  -28.8597  -22.0693   17.7853 H   0  0  0  0  0  0
  -31.5011  -17.2150   21.0327 H   0  0  0  0  0  0
  -31.1019  -17.0882   19.3600 H   0  0  0  0  0  0
  -29.0006  -15.7927   20.7916 H   0  0  0  0  0  0
  1 25  1  0  0  0
  1 30  2  0  0  0
  1 85  1  0  0  0
  2  3  1  0  0  0
  2 25  1  0  0  0
  2 87  1  0  0  0
  2 88  1  0  0  0
  3  4  1  0  0  0
  3 89  1  0  0  0
  3 90  1  0  0  0
  4  5  1  0  0  0
  4 91  1  0  0  0
  4 92  1  0  0  0
  5  6  1  0  0  0
  5 26  1  0  0  0
  5 93  1  0  0  0
  6 25  1  0  0  0
  6 94  1  0  0  0
  6 95  1  0  0  0
  7  8  2  0  0  0
  7 26  1  0  0  0
  7 29  1  0  0  0
  8  9  1  0  0  0
  8 22  1  0  0  0
  9 10  1  0  0  0
  9 27  2  0  0  0
 10 11  2  0  0  0
 10 15  1  0  0  0
 11 12  1  0  0  0
 11 96  1  0  0  0
 12 13  2  0  0  0
 12 97  1  0  0  0
 13 14  1  0  0  0
 13 31  1  0  0  0
 14 15  2  0  0  0
 14 98  1  0  0  0
 15 99  1  0  0  0
 16 17  2  0  0  0
 16 21  1  0  0  0
 16 31  1  0  0  0
 17 18  1  0  0  0
 17100  1  0  0  0
 18 19  2  0  0  0
 18101  1  0  0  0
 19 20  1  0  0  0
 19 24  1  0  0  0
 20 21  2  0  0  0
 20102  1  0  0  0
 21 23  1  0  0  0
 22 28  1  0  0  0
 22 32  2  0  0  0
 26 27  1  0  0  0
 28103  1  0  0  0
 28104  1  0  0  0
 29105  1  0  0  0
 29106  1  0  0  0
 33 34  1  0  0  0
 33 66  1  0  0  0
 33 70  2  0  0  0
 34 36  1  0  0  0
 34 59  1  0  0  0
 34107  1  0  0  0
 35 44  2  0  0  0
 35 45  1  0  0  0
 35 68  1  0  0  0
 36 56  1  0  0  0
 36108  1  0  0  0
 37 39  1  0  0  0
 37 47  1  0  0  0
 37 66  1  0  0  0
 37109  1  0  0  0
 38 43  2  0  0  0
 38 46  1  0  0  0
 38 47  1  0  0  0
 39 64  1  0  0  0
 39 67  2  0  0  0
 40 52  1  0  0  0
 40 53  2  0  0  0
 40 58  1  0  0  0
 41110  1  0  0  0
 41111  1  0  0  0
 41112  1  0  0  0
 41 48  1  0  0  0
 42 43  1  0  0  0
 42 66  1  0  0  0
 42113  1  0  0  0
 42114  1  0  0  0
 43 44  1  0  0  0
 44115  1  0  0  0
 45 46  2  0  0  0
 45116  1  0  0  0
 46117  1  0  0  0
 47118  1  0  0  0
 47119  1  0  0  0
 48 56  1  0  0  0
 48 65  1  0  0  0
 48120  1  0  0  0
 49 50  1  0  0  0
 49 53  1  0  0  0
 49 64  1  0  0  0
 49121  1  0  0  0
 50 51  1  0  0  0
 50122  1  0  0  0
 50123  1  0  0  0
 51 52  1  0  0  0
 51124  1  0  0  0
 51125  1  0  0  0
 52126  1  0  0  0
 52127  1  0  0  0
 53 54  1  0  0  0
 54 55  2  0  0  0
 54128  1  0  0  0
 55 57  1  0  0  0
 55129  1  0  0  0
 56 69  2  0  0  0
 57 58  2  0  0  0
 57130  1  0  0  0
 58131  1  0  0  0
 59 60  1  0  0  0
 59 61  1  0  0  0
 59 62  1  0  0  0
 60132  1  0  0  0
 60133  1  0  0  0
 60134  1  0  0  0
 61135  1  0  0  0
 61136  1  0  0  0
 61137  1  0  0  0
 62138  1  0  0  0
 62139  1  0  0  0
 62140  1  0  0  0
 63 65  1  0  0  0
 63141  1  0  0  0
 63142  1  0  0  0
 63143  1  0  0  0
 64144  1  0  0  0
 65145  1  0  0  0
 68 81  1  0  0  0
 71 73  2  0  0  0
 71 74  1  0  0  0
 71146  1  0  0  0
 72 75  2  0  0  0
 72 76  1  0  0  0
 72147  1  0  0  0
 73 75  1  0  0  0
 73 82  1  0  0  0
 74 76  2  0  0  0
 74 83  1  0  0  0
 75 84  1  0  0  0
 76 86  1  0  0  0
 77 78  2  0  0  0
 77 79  1  0  0  0
 77 84  1  0  0  0
 78148  1  0  0  0
 78149  1  0  0  0
 79 81  1  0  0  0
 79150  1  0  0  0
 79151  1  0  0  0
 80 81  1  0  0  0
 80 84  1  0  0  0
 80152  1  0  0  0
 80153  1  0  0  0
 81154  1  0  0  0
 82155  1  0  0  0
 82156  1  0  0  0
 82157  1  0  0  0
 83 85  1  0  0  0
 83158  1  0  0  0
 83159  1  0  0  0
 85160  1  0  0  0
M  ISO  4   1 100  68 101  81 101  85 100
M  END
> <chiral flag>
0

> <version>
0

> <s_m_source_file>
/data/baiqing/PycharmProjects/Reinvent-master-3.2/result/LINK_invent/BTK/process_docking_weight1_custom_product_contain_oxygen_bond_distance_aromatic_linkinvent_7_9_3/rearranged_h_0034.sdf

> <i_m_source_file_index>
37

> <r_mmod_Potential_Energy-OPLS-2005>
108.192024230957

> <r_mmod_Stretch_Energy-OPLS-2005>
77.8616104125977

> <r_mmod_Bend_Energy-OPLS-2005>
190.564956665039

> <r_mmod_Torsional_Energy-OPLS-2005>
261.620544433594

> <r_mmod_Improper_Torsional_Energy-OPLS-2005>
8.04701900482178

> <r_mmod_Van_der_Waal_Energy-OPLS-2005>
145.4765625

> <r_mmod_Electrostatic_Energy-OPLS-2005>
-421.245391845703

> <r_mmod_Solvation_Energy-OPLS-2005>
-201.279632568359

> <b_mmod_Minimization_Converged-OPLS-2005>
0

> <r_mmod_RMS_Derivative-OPLS-2005>
2.37800788879395

$$$$
37
                    3D
 Structure written by MMmdl.
170179  0  0  1  0            999 V2000
  -30.6445  -14.7306   20.5155 C   0  0  0  0  0  0
  -30.4445  -12.4478   19.4968 C   0  0  0  0  0  0
  -29.5297  -12.5038   18.2531 C   0  0  0  0  0  0
  -28.0587  -12.3166   18.6686 C   0  0  0  0  0  0
  -27.6510  -13.2221   19.8602 C   0  0  2  0  0  0
  -28.6943  -13.1628   21.0040 C   0  0  0  0  0  0
  -25.2348  -13.7875   20.5276 C   0  0  0  0  0  0
  -24.1749  -13.0233   20.9143 C   0  0  0  0  0  0
  -24.6425  -11.6778   20.8815 C   0  0  0  0  0  0
  -23.9071  -10.4218   21.0467 C   0  0  0  0  0  0
  -24.3624   -9.4153   21.9235 C   0  0  0  0  0  0
  -23.6316   -8.2179   22.0755 C   0  0  0  0  0  0
  -22.4306   -8.0223   21.3488 C   0  0  0  0  0  0
  -21.9944   -9.0222   20.4615 C   0  0  0  0  0  0
  -22.7276  -10.2107   20.3078 C   0  0  0  0  0  0
  -21.6858   -6.0733   22.5276 C   0  0  0  0  0  0
  -21.4001   -6.5631   23.8203 C   0  0  0  0  0  0
  -21.3640   -5.6786   24.9159 C   0  0  0  0  0  0
  -21.6031   -4.3044   24.7215 C   0  0  0  0  0  0
  -21.8828   -3.8136   23.4328 C   0  0  0  0  0  0
  -21.9204   -4.6962   22.3394 C   0  0  0  0  0  0
  -22.7797  -13.5099   21.1803 C   0  0  0  0  0  0
  -22.1698   -4.2122   21.0985 F   0  0  0  0  0  0
  -21.5633   -3.4566   25.7749 F   0  0  0  0  0  0
  -30.0116  -13.5053   20.4424 N   0  0  0  0  0  0
  -26.2982  -12.9239   20.3291 N   0  0  0  0  0  0
  -25.9378  -11.6391   20.5874 N   0  0  0  0  0  0
  -22.0485  -12.8118   22.0411 N   0  0  0  0  0  0
  -25.3516  -15.1420   20.2880 N   0  0  0  0  0  0
  -31.7870  -14.8618   20.0646 O   0  0  0  0  0  0
  -21.6617   -6.8866   21.4221 O   0  0  0  0  0  0
  -22.3477  -14.5446   20.6720 O   0  0  0  0  0  0
  -24.6269  -31.8604   23.2082 C   0  0  0  0  0  0
  -25.9126  -32.4785   23.8389 C   0  0  1  0  0  0
  -27.2116  -27.3244   20.1035 C   0  0  0  0  0  0
  -25.5969  -33.8597   24.2333 N   0  0  0  0  0  0
  -23.4194  -30.4882   21.5511 C   0  0  2  0  0  0
  -24.8626  -28.9456   20.1084 C   0  0  0  0  0  0
  -22.7491  -29.4616   22.4969 C   0  0  0  0  0  0
  -18.0299  -28.1388   22.8420 C   0  0  0  0  0  0
  -24.1497  -36.7318   23.2632 C   0  0  0  0  0  0
  -25.9577  -30.7897   21.3759 C   0  0  0  0  0  0
  -26.0308  -29.4174   20.7171 C   0  0  0  0  0  0
  -27.2085  -28.6160   20.7125 C   0  0  0  0  0  0
  -26.0262  -26.9153   19.4519 C   0  0  0  0  0  0
  -24.8582  -27.6995   19.4685 C   0  0  0  0  0  0
  -23.6343  -29.8290   20.1656 C   0  0  0  0  0  0
  -25.4116  -36.3079   24.0331 C   0  0  1  0  0  0
  -20.5893  -28.3593   23.1253 C   0  0  2  0  0  0
  -20.6779  -26.9312   22.5274 C   0  0  0  0  0  0
  -19.5699  -26.6358   21.5152 C   0  0  0  0  0  0
  -18.1876  -26.7933   22.1534 C   0  0  0  0  0  0
  -19.1565  -28.8779   23.2861 C   0  0  0  0  0  0
  -18.9549  -30.1326   23.9009 C   0  0  0  0  0  0
  -17.6580  -30.6531   24.0683 C   0  0  0  0  0  0
  -25.9042  -34.9452   23.5102 C   0  0  0  0  0  0
  -16.5464  -29.9162   23.6317 C   0  0  0  0  0  0
  -16.7316  -28.6584   23.0268 C   0  0  0  0  0  0
  -26.4508  -31.6564   25.0745 C   0  0  0  0  0  0
  -25.3770  -31.3727   26.1510 C   0  0  0  0  0  0
  -27.0350  -30.2993   24.6153 C   0  0  0  0  0  0
  -27.6044  -32.4307   25.7546 C   0  0  0  0  0  0
  -27.5563  -37.1840   24.8461 C   0  0  0  0  0  0
  -21.4185  -29.3054   22.3748 N   0  0  0  0  0  0
  -26.4288  -37.3770   23.9392 N   0  0  0  0  0  0
  -24.6873  -31.0622   22.1024 N   0  0  0  0  0  0
  -23.4239  -28.8091   23.2949 O   0  0  0  0  0  0
  -28.3207  -26.4719   20.1756 O   0  0  0  0  0  0
  -26.5565  -34.8909   22.4648 O   0  0  0  0  0  0
  -23.5437  -32.1387   23.7440 O   0  0  0  0  0  0
  -28.3514  -19.2293   20.5037 C   0  0  0  0  0  0
  -29.3912  -20.1497   20.2892 C   0  0  0  0  0  0
  -28.5719  -17.8681   20.8259 C   0  0  0  0  0  0
  -30.7132  -19.6237   20.4533 C   0  0  0  0  0  0
  -30.9498  -18.2141   20.7148 C   0  0  0  0  0  0
  -29.8671  -17.2640   20.8191 C   0  0  0  0  0  0
  -27.6324  -23.0124   21.4670 C   0  0  0  0  0  0
  -27.0822  -22.2664   22.4468 C   0  0  0  0  0  0
  -27.1141  -24.3738   20.9981 C   0  0  0  0  0  0
  -29.3847  -24.1112   20.2844 C   0  0  0  0  0  0
  -28.1341  -25.0073   20.0317 C   0  0  1  0  0  0
  -27.3388  -17.1186   21.2645 C   0  0  0  0  0  0
  -31.8866  -20.5969   20.3423 C   0  0  0  0  0  0
  -32.3816  -17.7597   20.9781 C   0  0  0  0  0  0
  -27.6153  -20.9928   23.0727 C   0  0  0  0  0  0
  -29.0269  -21.6137   19.8126 C   0  0  0  0  0  0
  -29.9198  -15.7906   21.0343 N   0  0  0  0  0  0
  -28.9514  -22.7626   20.8047 N   0  3  1  0  0  0
  -31.4922  -12.5476   19.2062 H   0  0  0  0  0  0
  -30.3693  -11.4724   19.9815 H   0  0  0  0  0  0
  -29.8224  -11.7313   17.5405 H   0  0  0  0  0  0
  -29.6515  -13.4557   17.7358 H   0  0  0  0  0  0
  -27.9399  -11.2726   18.9592 H   0  0  0  0  0  0
  -27.3972  -12.4740   17.8174 H   0  0  0  0  0  0
  -27.6391  -14.2378   19.4653 H   0  0  0  0  0  0
  -28.7267  -12.1707   21.4547 H   0  0  0  0  0  0
  -28.4215  -13.8399   21.8137 H   0  0  0  0  0  0
  -25.2766   -9.5641   22.4807 H   0  0  0  0  0  0
  -24.0010   -7.4574   22.7493 H   0  0  0  0  0  0
  -21.0870   -8.8766   19.8940 H   0  0  0  0  0  0
  -22.3746  -10.9645   19.6182 H   0  0  0  0  0  0
  -21.1999   -7.6138   23.9691 H   0  0  0  0  0  0
  -21.1447   -6.0516   25.9052 H   0  0  0  0  0  0
  -22.0631   -2.7592   23.2847 H   0  0  0  0  0  0
  -22.4199  -11.9811   22.4774 H   0  0  0  0  0  0
  -21.1096  -13.1084   22.2656 H   0  0  0  0  0  0
  -24.5677  -15.7773   20.3734 H   0  0  0  0  0  0
  -26.1681  -15.5626   19.8637 H   0  0  0  0  0  0
  -26.7187  -32.5439   23.1119 H   0  0  0  0  0  0
  -25.0175  -33.9729   25.0524 H   0  0  0  0  0  0
  -22.7102  -31.3074   21.4126 H   0  0  0  0  0  0
  -23.3710  -35.9687   23.3303 H   0  0  0  0  0  0
  -24.3567  -36.8943   22.2034 H   0  0  0  0  0  0
  -23.7318  -37.6567   23.6633 H   0  0  0  0  0  0
  -26.0748  -31.5437   20.5980 H   0  0  0  0  0  0
  -26.8447  -30.8464   21.9974 H   0  0  0  0  0  0
  -28.1022  -28.9622   21.2102 H   0  0  0  0  0  0
  -25.9697  -25.9763   18.9229 H   0  0  0  0  0  0
  -23.9647  -27.3409   18.9762 H   0  0  0  0  0  0
  -23.7674  -30.6071   19.4128 H   0  0  0  0  0  0
  -22.7513  -29.2690   19.8545 H   0  0  0  0  0  0
  -25.1300  -36.1910   25.0823 H   0  0  0  0  0  0
  -20.9927  -28.3093   24.1372 H   0  0  0  0  0  0
  -20.5706  -26.2111   23.3415 H   0  0  0  0  0  0
  -21.6558  -26.7380   22.0815 H   0  0  0  0  0  0
  -19.6805  -25.6277   21.1218 H   0  0  0  0  0  0
  -19.6684  -27.3051   20.6589 H   0  0  0  0  0  0
  -17.4206  -26.6803   21.3821 H   0  0  0  0  0  0
  -18.0208  -26.0060   22.8909 H   0  0  0  0  0  0
  -19.8058  -30.7011   24.2545 H   0  0  0  0  0  0
  -17.5241  -31.6141   24.5502 H   0  0  0  0  0  0
  -15.5500  -30.3095   23.7637 H   0  0  0  0  0  0
  -15.8695  -28.1003   22.6885 H   0  0  0  0  0  0
  -24.5907  -30.7079   25.7898 H   0  0  0  0  0  0
  -24.9005  -32.2915   26.4944 H   0  0  0  0  0  0
  -25.8146  -30.8936   27.0279 H   0  0  0  0  0  0
  -26.2896  -29.6765   24.1171 H   0  0  0  0  0  0
  -27.4053  -29.7235   25.4644 H   0  0  0  0  0  0
  -27.8761  -30.4312   23.9342 H   0  0  0  0  0  0
  -27.2589  -33.3580   26.2138 H   0  0  0  0  0  0
  -28.3861  -32.6931   25.0398 H   0  0  0  0  0  0
  -28.0656  -31.8422   26.5486 H   0  0  0  0  0  0
  -28.2615  -38.0104   24.7451 H   0  0  0  0  0  0
  -28.1049  -36.2645   24.6355 H   0  0  0  0  0  0
  -27.2277  -37.1570   25.8868 H   0  0  0  0  0  0
  -20.9284  -29.9044   21.7256 H   0  0  0  0  0  0
  -26.0162  -38.2845   24.1372 H   0  0  0  0  0  0
  -27.3370  -19.5919   20.4516 H   0  0  0  0  0  0
  -26.1514  -22.6041   22.8767 H   0  0  0  0  0  0
  -26.9782  -25.0076   21.8741 H   0  0  0  0  0  0
  -26.1376  -24.2518   20.5324 H   0  0  0  0  0  0
  -29.9903  -24.5693   21.0697 H   0  0  0  0  0  0
  -30.0283  -24.0578   19.4090 H   0  0  0  0  0  0
  -27.8138  -24.7960   19.0076 H   0  0  0  0  0  0
  -26.4867  -17.4125   20.6509 H   0  0  0  0  0  0
  -27.0999  -17.3740   22.2970 H   0  0  0  0  0  0
  -27.4583  -16.0431   21.2148 H   0  0  0  0  0  0
  -31.5757  -21.6327   20.2321 H   0  0  0  0  0  0
  -32.5112  -20.3618   19.4801 H   0  0  0  0  0  0
  -32.5130  -20.5861   21.2345 H   0  0  0  0  0  0
  -32.9273  -17.5955   20.0497 H   0  0  0  0  0  0
  -32.3965  -16.8452   21.5659 H   0  0  0  0  0  0
  -32.9457  -18.4794   21.5713 H   0  0  0  0  0  0
  -28.6298  -20.7632   22.7647 H   0  0  0  0  0  0
  -26.9684  -20.1531   22.8227 H   0  0  0  0  0  0
  -27.6093  -21.0970   24.1587 H   0  0  0  0  0  0
  -28.0780  -21.5777   19.2714 H   0  0  0  0  0  0
  -29.7411  -21.8715   19.0324 H   0  0  0  0  0  0
  -29.0421  -15.4375   21.3862 H   0  0  0  0  0  0
  -29.6245  -22.5253   21.5184 H   0  0  0  0  0  0
  1 25  1  0  0  0
  1 30  2  0  0  0
  1 87  1  0  0  0
  2  3  1  0  0  0
  2 25  1  0  0  0
  2 89  1  0  0  0
  2 90  1  0  0  0
  3  4  1  0  0  0
  3 91  1  0  0  0
  3 92  1  0  0  0
  4  5  1  0  0  0
  4 93  1  0  0  0
  4 94  1  0  0  0
  5  6  1  0  0  0
  5 26  1  0  0  0
  5 95  1  0  0  0
  6 25  1  0  0  0
  6 96  1  0  0  0
  6 97  1  0  0  0
  7  8  2  0  0  0
  7 26  1  0  0  0
  7 29  1  0  0  0
  8  9  1  0  0  0
  8 22  1  0  0  0
  9 10  1  0  0  0
  9 27  2  0  0  0
 10 11  2  0  0  0
 10 15  1  0  0  0
 11 12  1  0  0  0
 11 98  1  0  0  0
 12 13  2  0  0  0
 12 99  1  0  0  0
 13 14  1  0  0  0
 13 31  1  0  0  0
 14 15  2  0  0  0
 14100  1  0  0  0
 15101  1  0  0  0
 16 17  2  0  0  0
 16 21  1  0  0  0
 16 31  1  0  0  0
 17 18  1  0  0  0
 17102  1  0  0  0
 18 19  2  0  0  0
 18103  1  0  0  0
 19 20  1  0  0  0
 19 24  1  0  0  0
 20 21  2  0  0  0
 20104  1  0  0  0
 21 23  1  0  0  0
 22 28  1  0  0  0
 22 32  2  0  0  0
 26 27  1  0  0  0
 28105  1  0  0  0
 28106  1  0  0  0
 29107  1  0  0  0
 29108  1  0  0  0
 33 34  1  0  0  0
 33 66  1  0  0  0
 33 70  2  0  0  0
 34 36  1  0  0  0
 34 59  1  0  0  0
 34109  1  0  0  0
 35 44  2  0  0  0
 35 45  1  0  0  0
 35 68  1  0  0  0
 36 56  1  0  0  0
 36110  1  0  0  0
 37 39  1  0  0  0
 37 47  1  0  0  0
 37 66  1  0  0  0
 37111  1  0  0  0
 38 43  2  0  0  0
 38 46  1  0  0  0
 38 47  1  0  0  0
 39 64  1  0  0  0
 39 67  2  0  0  0
 40 52  1  0  0  0
 40 53  2  0  0  0
 40 58  1  0  0  0
 41112  1  0  0  0
 41113  1  0  0  0
 41114  1  0  0  0
 41 48  1  0  0  0
 42 43  1  0  0  0
 42 66  1  0  0  0
 42115  1  0  0  0
 42116  1  0  0  0
 43 44  1  0  0  0
 44117  1  0  0  0
 45 46  2  0  0  0
 45118  1  0  0  0
 46119  1  0  0  0
 47120  1  0  0  0
 47121  1  0  0  0
 48 56  1  0  0  0
 48 65  1  0  0  0
 48122  1  0  0  0
 49 50  1  0  0  0
 49 53  1  0  0  0
 49 64  1  0  0  0
 49123  1  0  0  0
 50 51  1  0  0  0
 50124  1  0  0  0
 50125  1  0  0  0
 51 52  1  0  0  0
 51126  1  0  0  0
 51127  1  0  0  0
 52128  1  0  0  0
 52129  1  0  0  0
 53 54  1  0  0  0
 54 55  2  0  0  0
 54130  1  0  0  0
 55 57  1  0  0  0
 55131  1  0  0  0
 56 69  2  0  0  0
 57 58  2  0  0  0
 57132  1  0  0  0
 58133  1  0  0  0
 59 60  1  0  0  0
 59 61  1  0  0  0
 59 62  1  0  0  0
 60134  1  0  0  0
 60135  1  0  0  0
 60136  1  0  0  0
 61137  1  0  0  0
 61138  1  0  0  0
 61139  1  0  0  0
 62140  1  0  0  0
 62141  1  0  0  0
 62142  1  0  0  0
 63 65  1  0  0  0
 63143  1  0  0  0
 63144  1  0  0  0
 63145  1  0  0  0
 64146  1  0  0  0
 65147  1  0  0  0
 68 81  1  0  0  0
 71 72  2  0  0  0
 71 73  1  0  0  0
 71148  1  0  0  0
 72 74  1  0  0  0
 72 86  1  0  0  0
 73 76  2  0  0  0
 73 82  1  0  0  0
 74 75  2  0  0  0
 74 83  1  0  0  0
 75 76  1  0  0  0
 75 84  1  0  0  0
 76 87  1  0  0  0
 77 78  2  0  0  0
 77 79  1  0  0  0
 77 88  1  0  0  0
 78 85  1  0  0  0
 78149  1  0  0  0
 79 81  1  0  0  0
 79150  1  0  0  0
 79151  1  0  0  0
 80 81  1  0  0  0
 80 88  1  0  0  0
 80152  1  0  0  0
 80153  1  0  0  0
 81154  1  0  0  0
 82155  1  0  0  0
 82156  1  0  0  0
 82157  1  0  0  0
 83158  1  0  0  0
 83159  1  0  0  0
 83160  1  0  0  0
 84161  1  0  0  0
 84162  1  0  0  0
 84163  1  0  0  0
 85164  1  0  0  0
 85165  1  0  0  0
 85166  1  0  0  0
 86167  1  0  0  0
 86168  1  0  0  0
 86 88  1  0  0  0
 87169  1  0  0  0
 88170  1  0  0  0
M  CHG  1  88   1
M  ISO  4   1 100  68 101  81 101  87 100
M  END
> <chiral flag>
0

> <version>
0

> <s_m_source_file>
/data/baiqing/PycharmProjects/Reinvent-master-3.2/result/LINK_invent/BTK/process_docking_weight1_custom_product_contain_oxygen_bond_distance_aromatic_linkinvent_7_9_3/rearranged_h_0034.sdf

> <i_m_source_file_index>
38

> <r_mmod_Potential_Energy-OPLS-2005>
30.2919502258301

> <r_mmod_Stretch_Energy-OPLS-2005>
92.1461563110352

> <r_mmod_Bend_Energy-OPLS-2005>
194.138641357422

> <r_mmod_Torsional_Energy-OPLS-2005>
258.003021240234

> <r_mmod_Improper_Torsional_Energy-OPLS-2005>
5.31770372390747

> <r_mmod_Van_der_Waal_Energy-OPLS-2005>
154.196594238281

> <r_mmod_Electrostatic_Energy-OPLS-2005>
-329.054321289062

> <r_mmod_Solvation_Energy-OPLS-2005>
-414.770355224609

> <b_mmod_Minimization_Converged-OPLS-2005>
0

> <r_mmod_RMS_Derivative-OPLS-2005>
7.02404832839966

$$$$
38
                    3D
 Structure written by MMmdl.
161170  0  0  1  0            999 V2000
  -30.6148  -14.7524   20.5127 C   0  0  0  0  0  0
  -30.4401  -12.4902   19.4415 C   0  0  0  0  0  0
  -29.5051  -12.5218   18.2121 C   0  0  0  0  0  0
  -28.0261  -12.3571   18.6209 C   0  0  0  0  0  0
  -27.6387  -13.2364   19.8430 C   0  0  2  0  0  0
  -28.6914  -13.1539   20.9663 C   0  0  0  0  0  0
  -25.2447  -13.8197   20.5725 C   0  0  0  0  0  0
  -24.1743  -13.0433   20.9193 C   0  0  0  0  0  0
  -24.6350  -11.6942   20.8694 C   0  0  0  0  0  0
  -23.9033  -10.4307   21.0350 C   0  0  0  0  0  0
  -24.3571   -9.4233   21.9134 C   0  0  0  0  0  0
  -23.6265   -8.2267   22.0739 C   0  0  0  0  0  0
  -22.4228   -8.0280   21.3553 C   0  0  0  0  0  0
  -21.9854   -9.0239   20.4625 C   0  0  0  0  0  0
  -22.7191  -10.2126   20.3014 C   0  0  0  0  0  0
  -21.6849   -6.0700   22.5283 C   0  0  0  0  0  0
  -21.4025   -6.5615   23.8218 C   0  0  0  0  0  0
  -21.3654   -5.6767   24.9180 C   0  0  0  0  0  0
  -21.6063   -4.3042   24.7225 C   0  0  0  0  0  0
  -21.8801   -3.8117   23.4348 C   0  0  0  0  0  0
  -21.9193   -4.6933   22.3403 C   0  0  0  0  0  0
  -22.7750  -13.5218   21.1891 C   0  0  0  0  0  0
  -22.1672   -4.2117   21.0980 F   0  0  0  0  0  0
  -21.5621   -3.4526   25.7732 F   0  0  0  0  0  0
  -29.9812  -13.5382   20.3783 N   0  0  0  0  0  0
  -26.2895  -12.9444   20.3235 N   0  0  0  0  0  0
  -25.9265  -11.6582   20.5612 N   0  0  0  0  0  0
  -22.0380  -12.8194   22.0433 N   0  0  0  0  0  0
  -25.4143  -15.1930   20.4306 N   0  0  0  0  0  0
  -31.8174  -14.8504   20.2612 O   0  0  0  0  0  0
  -21.6654   -6.8831   21.4231 O   0  0  0  0  0  0
  -22.3482  -14.5575   20.6825 O   0  0  0  0  0  0
  -24.6305  -31.8533   23.2044 C   0  0  0  0  0  0
  -25.9173  -32.4680   23.8387 C   0  0  1  0  0  0
  -27.2121  -27.2084   20.1370 C   0  0  0  0  0  0
  -25.6045  -33.8507   24.2326 N   0  0  0  0  0  0
  -23.4320  -30.4793   21.5389 C   0  0  2  0  0  0
  -24.8824  -28.9180   20.1063 C   0  0  0  0  0  0
  -22.7484  -29.4614   22.4843 C   0  0  0  0  0  0
  -18.0315  -28.1378   22.8545 C   0  0  0  0  0  0
  -24.1489  -36.7106   23.2652 C   0  0  0  0  0  0
  -25.9818  -30.7307   21.4146 C   0  0  0  0  0  0
  -26.0440  -29.3515   20.7565 C   0  0  0  0  0  0
  -27.1980  -28.5002   20.7793 C   0  0  0  0  0  0
  -26.0460  -26.8839   19.4100 C   0  0  0  0  0  0
  -24.8928  -27.6940   19.4209 C   0  0  0  0  0  0
  -23.6597  -29.8158   20.1554 C   0  0  0  0  0  0
  -25.4130  -36.2967   24.0344 C   0  0  1  0  0  0
  -20.5930  -28.3638   23.1282 C   0  0  2  0  0  0
  -20.6770  -26.9356   22.5396 C   0  0  0  0  0  0
  -19.5707  -26.6353   21.5250 C   0  0  0  0  0  0
  -18.1920  -26.7939   22.1686 C   0  0  0  0  0  0
  -19.1581  -28.8815   23.2942 C   0  0  0  0  0  0
  -18.9503  -30.1416   23.8960 C   0  0  0  0  0  0
  -17.6508  -30.6558   24.0612 C   0  0  0  0  0  0
  -25.9074  -34.9355   23.5086 C   0  0  0  0  0  0
  -16.5376  -29.9093   23.6330 C   0  0  0  0  0  0
  -16.7300  -28.6524   23.0348 C   0  0  0  0  0  0
  -26.4575  -31.6464   25.0755 C   0  0  0  0  0  0
  -25.3815  -31.3566   26.1462 C   0  0  0  0  0  0
  -27.0445  -30.2873   24.6273 C   0  0  0  0  0  0
  -27.6132  -32.4195   25.7541 C   0  0  0  0  0  0
  -27.5542  -37.1732   24.8517 C   0  0  0  0  0  0
  -21.4194  -29.3021   22.3649 N   0  0  0  0  0  0
  -26.4270  -37.3703   23.9441 N   0  0  0  0  0  0
  -24.6982  -31.0442   22.1038 N   0  0  0  0  0  0
  -23.4200  -28.8134   23.2938 O   0  0  0  0  0  0
  -28.3027  -26.3012   20.2567 O   0  0  0  0  0  0
  -26.5574  -34.8853   22.4628 O   0  0  0  0  0  0
  -23.5450  -32.1414   23.7276 O   0  0  0  0  0  0
  -29.7350  -18.5104   20.4818 C   0  0  0  0  0  0
  -30.5353  -17.3634   22.4606 C   0  0  0  0  0  0
  -29.8669  -19.8288   21.0984 C   0  0  0  0  0  0
  -30.3369  -19.8380   22.4462 C   0  0  0  0  0  0
  -30.0676  -17.2516   21.1378 C   0  0  0  0  0  0
  -30.6543  -18.6162   23.1051 C   0  0  0  0  0  0
  -27.4647  -22.4476   19.8899 C   0  0  0  0  0  0
  -26.7873  -21.3789   19.4334 C   0  0  0  0  0  0
  -27.1001  -23.9281   19.6856 C   0  0  0  0  0  0
  -29.2400  -23.8058   20.7336 C   0  0  0  0  0  0
  -28.3588  -24.8165   19.8597 C   0  0  2  0  0  0
  -30.5390  -21.1620   23.1881 C   0  0  0  0  0  0
  -29.7258  -21.2184   20.2927 C   0  0  0  0  0  0
  -29.8157  -15.8894   20.6010 N   0  0  0  0  0  0
  -28.7382  -22.3581   20.6690 N   0  3  2  0  0  0
  -31.2022  -18.5970   24.7479 Cl  0  0  0  0  0  0
  -31.4727  -12.6502   19.1219 H   0  0  0  0  0  0
  -30.4179  -11.5187   19.9327 H   0  0  0  0  0  0
  -29.7854  -11.7330   17.5092 H   0  0  0  0  0  0
  -29.6302  -13.4618   17.6759 H   0  0  0  0  0  0
  -27.8535  -11.3026   18.8413 H   0  0  0  0  0  0
  -27.3800  -12.5995   17.7747 H   0  0  0  0  0  0
  -27.6312  -14.2649   19.4842 H   0  0  0  0  0  0
  -28.7524  -12.1454   21.3763 H   0  0  0  0  0  0
  -28.4181  -13.8032   21.7992 H   0  0  0  0  0  0
  -25.2703   -9.5732   22.4709 H   0  0  0  0  0  0
  -23.9981   -7.4667   22.7455 H   0  0  0  0  0  0
  -21.0797   -8.8747   19.8923 H   0  0  0  0  0  0
  -22.3638  -10.9654   19.6139 H   0  0  0  0  0  0
  -21.2037   -7.6121   23.9723 H   0  0  0  0  0  0
  -21.1503   -6.0489   25.9086 H   0  0  0  0  0  0
  -22.0579   -2.7566   23.2866 H   0  0  0  0  0  0
  -22.4014  -11.9921   22.4929 H   0  0  0  0  0  0
  -21.0993  -13.1247   22.2597 H   0  0  0  0  0  0
  -24.6557  -15.8410   20.6085 H   0  0  0  0  0  0
  -26.2670  -15.6542   20.1418 H   0  0  0  0  0  0
  -26.7212  -32.5356   23.1103 H   0  0  0  0  0  0
  -25.0470  -33.9704   25.0646 H   0  0  0  0  0  0
  -22.7226  -31.2970   21.3907 H   0  0  0  0  0  0
  -23.3790  -35.9400   23.3362 H   0  0  0  0  0  0
  -24.3539  -36.8646   22.2045 H   0  0  0  0  0  0
  -23.7184  -37.6309   23.6620 H   0  0  0  0  0  0
  -26.1490  -31.4805   20.6423 H   0  0  0  0  0  0
  -26.8461  -30.7663   22.0680 H   0  0  0  0  0  0
  -28.0635  -28.8019   21.3513 H   0  0  0  0  0  0
  -25.9861  -25.9885   18.8165 H   0  0  0  0  0  0
  -24.0179  -27.3751   18.8657 H   0  0  0  0  0  0
  -23.7965  -30.5942   19.4036 H   0  0  0  0  0  0
  -22.7779  -29.2569   19.8414 H   0  0  0  0  0  0
  -25.1322  -36.1771   25.0829 H   0  0  0  0  0  0
  -21.0128  -28.3175   24.1336 H   0  0  0  0  0  0
  -20.5722  -26.2236   23.3593 H   0  0  0  0  0  0
  -21.6584  -26.7383   22.1073 H   0  0  0  0  0  0
  -19.6786  -25.6238   21.1359 H   0  0  0  0  0  0
  -19.6669  -27.3087   20.6724 H   0  0  0  0  0  0
  -17.4229  -26.6793   21.4055 H   0  0  0  0  0  0
  -18.0205  -26.0026   22.9027 H   0  0  0  0  0  0
  -19.7984  -30.7238   24.2296 H   0  0  0  0  0  0
  -17.5069  -31.6210   24.5232 H   0  0  0  0  0  0
  -15.5371  -30.3000   23.7568 H   0  0  0  0  0  0
  -15.8739  -28.0867   22.6940 H   0  0  0  0  0  0
  -24.6073  -30.6814   25.7785 H   0  0  0  0  0  0
  -24.8938  -32.2701   26.4865 H   0  0  0  0  0  0
  -25.8193  -30.8792   27.0230 H   0  0  0  0  0  0
  -26.2982  -29.6501   24.1522 H   0  0  0  0  0  0
  -27.4325  -29.7240   25.4755 H   0  0  0  0  0  0
  -27.8813  -30.4070   23.9401 H   0  0  0  0  0  0
  -27.2738  -33.3505   26.2090 H   0  0  0  0  0  0
  -28.3999  -32.6693   25.0402 H   0  0  0  0  0  0
  -28.0738  -31.8325   26.5494 H   0  0  0  0  0  0
  -28.2623  -37.9967   24.7508 H   0  0  0  0  0  0
  -28.0978  -36.2499   24.6452 H   0  0  0  0  0  0
  -27.2244  -37.1479   25.8921 H   0  0  0  0  0  0
  -20.9283  -29.8679   21.6853 H   0  0  0  0  0  0
  -26.0108  -38.2752   24.1505 H   0  0  0  0  0  0
  -29.4239  -18.4607   19.4510 H   0  0  0  0  0  0
  -30.7843  -16.4718   23.0171 H   0  0  0  0  0  0
  -25.8805  -21.5035   18.8554 H   0  0  0  0  0  0
  -27.1264  -20.3683   19.6151 H   0  0  0  0  0  0
  -26.3306  -24.1929   20.4066 H   0  0  0  0  0  0
  -26.6807  -24.0161   18.6816 H   0  0  0  0  0  0
  -29.1442  -24.1060   21.7768 H   0  0  0  0  0  0
  -30.2980  -23.8765   20.4868 H   0  0  0  0  0  0
  -28.8378  -24.8347   18.8769 H   0  0  0  0  0  0
  -31.2238  -21.0744   24.0313 H   0  0  0  0  0  0
  -29.5974  -21.5373   23.5908 H   0  0  0  0  0  0
  -30.9846  -21.9290   22.5563 H   0  0  0  0  0  0
  -29.6123  -20.9864   19.2331 H   0  0  0  0  0  0
  -30.7298  -21.6388   20.3233 H   0  0  0  0  0  0
  -28.8458  -15.6934   20.4115 H   0  0  0  0  0  0
  -28.4747  -22.1494   21.6220 H   0  0  0  0  0  0
  1 25  1  0  0  0
  1 30  2  0  0  0
  1 84  1  0  0  0
  2  3  1  0  0  0
  2 25  1  0  0  0
  2 87  1  0  0  0
  2 88  1  0  0  0
  3  4  1  0  0  0
  3 89  1  0  0  0
  3 90  1  0  0  0
  4  5  1  0  0  0
  4 91  1  0  0  0
  4 92  1  0  0  0
  5  6  1  0  0  0
  5 26  1  0  0  0
  5 93  1  0  0  0
  6 25  1  0  0  0
  6 94  1  0  0  0
  6 95  1  0  0  0
  7  8  2  0  0  0
  7 26  1  0  0  0
  7 29  1  0  0  0
  8  9  1  0  0  0
  8 22  1  0  0  0
  9 10  1  0  0  0
  9 27  2  0  0  0
 10 11  2  0  0  0
 10 15  1  0  0  0
 11 12  1  0  0  0
 11 96  1  0  0  0
 12 13  2  0  0  0
 12 97  1  0  0  0
 13 14  1  0  0  0
 13 31  1  0  0  0
 14 15  2  0  0  0
 14 98  1  0  0  0
 15 99  1  0  0  0
 16 17  2  0  0  0
 16 21  1  0  0  0
 16 31  1  0  0  0
 17 18  1  0  0  0
 17100  1  0  0  0
 18 19  2  0  0  0
 18101  1  0  0  0
 19 20  1  0  0  0
 19 24  1  0  0  0
 20 21  2  0  0  0
 20102  1  0  0  0
 21 23  1  0  0  0
 22 28  1  0  0  0
 22 32  2  0  0  0
 26 27  1  0  0  0
 28103  1  0  0  0
 28104  1  0  0  0
 29105  1  0  0  0
 29106  1  0  0  0
 33 34  1  0  0  0
 33 66  1  0  0  0
 33 70  2  0  0  0
 34 36  1  0  0  0
 34 59  1  0  0  0
 34107  1  0  0  0
 35 44  2  0  0  0
 35 45  1  0  0  0
 35 68  1  0  0  0
 36 56  1  0  0  0
 36108  1  0  0  0
 37 39  1  0  0  0
 37 47  1  0  0  0
 37 66  1  0  0  0
 37109  1  0  0  0
 38 43  2  0  0  0
 38 46  1  0  0  0
 38 47  1  0  0  0
 39 64  1  0  0  0
 39 67  2  0  0  0
 40 52  1  0  0  0
 40 53  2  0  0  0
 40 58  1  0  0  0
 41110  1  0  0  0
 41111  1  0  0  0
 41112  1  0  0  0
 41 48  1  0  0  0
 42 43  1  0  0  0
 42 66  1  0  0  0
 42113  1  0  0  0
 42114  1  0  0  0
 43 44  1  0  0  0
 44115  1  0  0  0
 45 46  2  0  0  0
 45116  1  0  0  0
 46117  1  0  0  0
 47118  1  0  0  0
 47119  1  0  0  0
 48 56  1  0  0  0
 48 65  1  0  0  0
 48120  1  0  0  0
 49 50  1  0  0  0
 49 53  1  0  0  0
 49 64  1  0  0  0
 49121  1  0  0  0
 50 51  1  0  0  0
 50122  1  0  0  0
 50123  1  0  0  0
 51 52  1  0  0  0
 51124  1  0  0  0
 51125  1  0  0  0
 52126  1  0  0  0
 52127  1  0  0  0
 53 54  1  0  0  0
 54 55  2  0  0  0
 54128  1  0  0  0
 55 57  1  0  0  0
 55129  1  0  0  0
 56 69  2  0  0  0
 57 58  2  0  0  0
 57130  1  0  0  0
 58131  1  0  0  0
 59 60  1  0  0  0
 59 61  1  0  0  0
 59 62  1  0  0  0
 60132  1  0  0  0
 60133  1  0  0  0
 60134  1  0  0  0
 61135  1  0  0  0
 61136  1  0  0  0
 61137  1  0  0  0
 62138  1  0  0  0
 62139  1  0  0  0
 62140  1  0  0  0
 63 65  1  0  0  0
 63141  1  0  0  0
 63142  1  0  0  0
 63143  1  0  0  0
 64144  1  0  0  0
 65145  1  0  0  0
 68 81  1  0  0  0
 71 73  2  0  0  0
 71 75  1  0  0  0
 71146  1  0  0  0
 72 75  2  0  0  0
 72 76  1  0  0  0
 72147  1  0  0  0
 73 74  1  0  0  0
 73 83  1  0  0  0
 74 76  2  0  0  0
 74 82  1  0  0  0
 75 84  1  0  0  0
 76 86  1  0  0  0
 77 78  2  0  0  0
 77 79  1  0  0  0
 77 85  1  0  0  0
 78148  1  0  0  0
 78149  1  0  0  0
 79 81  1  0  0  0
 79150  1  0  0  0
 79151  1  0  0  0
 80 81  1  0  0  0
 80 85  1  0  0  0
 80152  1  0  0  0
 80153  1  0  0  0
 81154  1  0  0  0
 82155  1  0  0  0
 82156  1  0  0  0
 82157  1  0  0  0
 83158  1  0  0  0
 83159  1  0  0  0
 83 85  1  0  0  0
 84160  1  0  0  0
 85161  1  0  0  0
M  CHG  1  85   1
M  ISO  4   1 100  68 101  81 101  84 100
M  END
> <chiral flag>
0

> <version>
0

> <s_m_source_file>
/data/baiqing/PycharmProjects/Reinvent-master-3.2/result/LINK_invent/BTK/process_docking_weight1_custom_product_contain_oxygen_bond_distance_aromatic_linkinvent_7_9_3/rearranged_h_0034.sdf

> <i_m_source_file_index>
39

> <r_mmod_Potential_Energy-OPLS-2005>
203.951858520508

> <r_mmod_Stretch_Energy-OPLS-2005>
140.953750610352

> <r_mmod_Bend_Energy-OPLS-2005>
228.817962646484

> <r_mmod_Torsional_Energy-OPLS-2005>
276.907867431641

> <r_mmod_Improper_Torsional_Energy-OPLS-2005>
9.99095153808594

> <r_mmod_Van_der_Waal_Energy-OPLS-2005>
134.68669128418

> <r_mmod_Electrostatic_Energy-OPLS-2005>
-245.538162231445

> <r_mmod_Solvation_Energy-OPLS-2005>
-451.233245849609

> <b_mmod_Minimization_Converged-OPLS-2005>
0

> <r_mmod_RMS_Derivative-OPLS-2005>
6.65533590316772

$$$$
39
                    3D
 Structure written by MMmdl.
163172  0  0  1  0            999 V2000
  -30.6352  -14.7053   20.5011 C   0  0  0  0  0  0
  -30.4367  -12.4411   19.4570 C   0  0  0  0  0  0
  -29.5035  -12.5025   18.2302 C   0  0  0  0  0  0
  -28.0353  -12.3169   18.6542 C   0  0  0  0  0  0
  -27.6448  -13.2232   19.8512 C   0  0  2  0  0  0
  -28.6935  -13.1481   20.9850 C   0  0  0  0  0  0
  -25.2510  -13.8207   20.5647 C   0  0  0  0  0  0
  -24.1805  -13.0448   20.9215 C   0  0  0  0  0  0
  -24.6398  -11.6942   20.8792 C   0  0  0  0  0  0
  -23.9069  -10.4319   21.0411 C   0  0  0  0  0  0
  -24.3618   -9.4229   21.9174 C   0  0  0  0  0  0
  -23.6301   -8.2256   22.0763 C   0  0  0  0  0  0
  -22.4279   -8.0294   21.3551 C   0  0  0  0  0  0
  -21.9912   -9.0269   20.4647 C   0  0  0  0  0  0
  -22.7252  -10.2148   20.3047 C   0  0  0  0  0  0
  -21.6857   -6.0742   22.5275 C   0  0  0  0  0  0
  -21.4022   -6.5636   23.8216 C   0  0  0  0  0  0
  -21.3657   -5.6794   24.9178 C   0  0  0  0  0  0
  -21.6043   -4.3051   24.7225 C   0  0  0  0  0  0
  -21.8830   -3.8144   23.4341 C   0  0  0  0  0  0
  -21.9209   -4.6965   22.3405 C   0  0  0  0  0  0
  -22.7833  -13.5230   21.1860 C   0  0  0  0  0  0
  -22.1664   -4.2145   21.0980 F   0  0  0  0  0  0
  -21.5632   -3.4544   25.7736 F   0  0  0  0  0  0
  -29.9980  -13.4924   20.4005 N   0  0  0  0  0  0
  -26.2941  -12.9403   20.3288 N   0  0  0  0  0  0
  -25.9327  -11.6548   20.5797 N   0  0  0  0  0  0
  -22.0475  -12.8228   22.0406 N   0  0  0  0  0  0
  -25.4140  -15.1926   20.3961 N   0  0  0  0  0  0
  -31.8185  -14.8190   20.1616 O   0  0  0  0  0  0
  -21.6651   -6.8885   21.4237 O   0  0  0  0  0  0
  -22.3521  -14.5543   20.6742 O   0  0  0  0  0  0
  -24.6346  -31.8535   23.1983 C   0  0  0  0  0  0
  -25.9165  -32.4755   23.8348 C   0  0  1  0  0  0
  -27.2211  -27.2506   20.1191 C   0  0  0  0  0  0
  -25.5942  -33.8553   24.2276 N   0  0  0  0  0  0
  -23.4355  -30.4851   21.5372 C   0  0  2  0  0  0
  -24.8886  -28.9333   20.1067 C   0  0  0  0  0  0
  -22.7516  -29.4668   22.4851 C   0  0  0  0  0  0
  -18.0340  -28.1302   22.8384 C   0  0  0  0  0  0
  -24.1489  -36.7304   23.2650 C   0  0  0  0  0  0
  -25.9895  -30.7612   21.3909 C   0  0  0  0  0  0
  -26.0595  -29.3847   20.7284 C   0  0  0  0  0  0
  -27.2298  -28.5541   20.7255 C   0  0  0  0  0  0
  -26.0338  -26.8881   19.4422 C   0  0  0  0  0  0
  -24.8793  -27.6929   19.4547 C   0  0  0  0  0  0
  -23.6646  -29.8268   20.1519 C   0  0  0  0  0  0
  -25.4103  -36.3078   24.0344 C   0  0  1  0  0  0
  -20.5919  -28.3736   23.1284 C   0  0  2  0  0  0
  -20.6943  -26.9504   22.5286 C   0  0  0  0  0  0
  -19.5889  -26.6411   21.5114 C   0  0  0  0  0  0
  -18.2047  -26.7870   22.1470 C   0  0  0  0  0  0
  -19.1527  -28.8820   23.2876 C   0  0  0  0  0  0
  -18.9330  -30.1376   23.8967 C   0  0  0  0  0  0
  -17.6289  -30.6426   24.0589 C   0  0  0  0  0  0
  -25.9049  -34.9441   23.5117 C   0  0  0  0  0  0
  -16.5251  -29.8873   23.6235 C   0  0  0  0  0  0
  -16.7314  -28.6354   23.0183 C   0  0  0  0  0  0
  -26.4508  -31.6587   25.0741 C   0  0  0  0  0  0
  -25.3732  -31.3718   26.1457 C   0  0  0  0  0  0
  -27.0370  -30.3011   24.6247 C   0  0  0  0  0  0
  -27.6046  -32.4340   25.7505 C   0  0  0  0  0  0
  -27.5574  -37.1810   24.8462 C   0  0  0  0  0  0
  -21.4185  -29.3252   22.3790 N   0  0  0  0  0  0
  -26.4281  -37.3781   23.9416 N   0  0  0  0  0  0
  -24.7048  -31.0507   22.0983 N   0  0  0  0  0  0
  -23.4219  -28.8056   23.2807 O   0  0  0  0  0  0
  -28.2907  -26.3214   20.1861 O   0  0  0  0  0  0
  -26.5611  -34.8917   22.4682 O   0  0  0  0  0  0
  -23.5479  -32.1371   23.7249 O   0  0  0  0  0  0
  -30.8539  -19.9243   21.8436 C   0  0  0  0  0  0
  -31.4289  -18.8143   22.4935 C   0  0  0  0  0  0
  -29.9128  -19.7562   20.8045 C   0  0  0  0  0  0
  -30.2194  -17.2180   21.0667 C   0  0  0  0  0  0
  -31.1204  -17.4865   22.1325 C   0  0  0  0  0  0
  -29.6061  -18.3785   20.4311 C   0  0  0  0  0  0
  -27.4018  -24.6860   21.8050 C   0  0  0  0  0  0
  -26.8600  -23.2699   22.0891 C   0  0  0  0  0  0
  -29.0648  -23.6794   20.1592 C   0  0  0  0  0  0
  -27.9707  -24.8525   20.3910 C   0  0  2  0  0  0
  -27.3703  -22.1190   21.1777 C   0  0  2  0  0  0
  -27.0533  -20.7894   21.8936 C   0  0  0  0  0  0
  -29.4026  -21.0706   20.0514 C   0  0  0  0  0  0
  -29.8551  -15.8188   20.7432 N   0  0  0  0  0  0
  -28.8112  -22.2874   20.7977 N   0  3  1  0  0  0
  -31.8260  -16.2244   23.0901 Cl  0  0  0  0  0  0
  -28.4775  -18.0902   19.1550 Cl  0  0  0  0  0  0
  -31.4728  -12.5778   19.1397 H   0  0  0  0  0  0
  -30.3940  -11.4605   19.9338 H   0  0  0  0  0  0
  -29.7835  -11.7429   17.4994 H   0  0  0  0  0  0
  -29.6189  -13.4669   17.7334 H   0  0  0  0  0  0
  -27.9060  -11.2684   18.9286 H   0  0  0  0  0  0
  -27.3701  -12.4858   17.8058 H   0  0  0  0  0  0
  -27.6420  -14.2414   19.4632 H   0  0  0  0  0  0
  -28.7205  -12.1514   21.4283 H   0  0  0  0  0  0
  -28.4268  -13.8287   21.7952 H   0  0  0  0  0  0
  -25.2750   -9.5724   22.4752 H   0  0  0  0  0  0
  -24.0026   -7.4659   22.7483 H   0  0  0  0  0  0
  -21.0857   -8.8785   19.8947 H   0  0  0  0  0  0
  -22.3704  -10.9683   19.6157 H   0  0  0  0  0  0
  -21.2014   -7.6143   23.9712 H   0  0  0  0  0  0
  -21.1453   -6.0519   25.9076 H   0  0  0  0  0  0
  -22.0612   -2.7605   23.2852 H   0  0  0  0  0  0
  -22.4069  -11.9883   22.4816 H   0  0  0  0  0  0
  -21.1082  -13.1240   22.2581 H   0  0  0  0  0  0
  -24.6321  -15.8366   20.4801 H   0  0  0  0  0  0
  -26.2412  -15.6303   20.0130 H   0  0  0  0  0  0
  -26.7258  -32.5419   23.1120 H   0  0  0  0  0  0
  -25.0096  -33.9667   25.0428 H   0  0  0  0  0  0
  -22.7355  -31.3081   21.3877 H   0  0  0  0  0  0
  -23.3734  -35.9655   23.3310 H   0  0  0  0  0  0
  -24.3613  -36.8913   22.2068 H   0  0  0  0  0  0
  -23.7241  -37.6520   23.6650 H   0  0  0  0  0  0
  -26.1414  -31.5245   20.6263 H   0  0  0  0  0  0
  -26.8639  -30.8081   22.0267 H   0  0  0  0  0  0
  -28.1253  -28.8869   21.2330 H   0  0  0  0  0  0
  -25.9622  -25.9672   18.8865 H   0  0  0  0  0  0
  -23.9902  -27.3525   18.9441 H   0  0  0  0  0  0
  -23.8139  -30.6114   19.4102 H   0  0  0  0  0  0
  -22.7791  -29.2754   19.8297 H   0  0  0  0  0  0
  -25.1271  -36.1955   25.0832 H   0  0  0  0  0  0
  -20.9941  -28.3212   24.1442 H   0  0  0  0  0  0
  -20.6010  -26.2308   23.3409 H   0  0  0  0  0  0
  -21.6862  -26.7750   22.1038 H   0  0  0  0  0  0
  -19.7067  -25.6350   21.1084 H   0  0  0  0  0  0
  -19.6744  -27.3234   20.6668 H   0  0  0  0  0  0
  -17.4406  -26.6704   21.3765 H   0  0  0  0  0  0
  -18.0339  -25.9951   22.8778 H   0  0  0  0  0  0
  -19.7742  -30.7203   24.2471 H   0  0  0  0  0  0
  -17.4756  -31.6020   24.5308 H   0  0  0  0  0  0
  -15.5184  -30.2667   23.7519 H   0  0  0  0  0  0
  -15.8839  -28.0540   22.6800 H   0  0  0  0  0  0
  -24.5937  -30.7038   25.7784 H   0  0  0  0  0  0
  -24.8868  -32.2857   26.4863 H   0  0  0  0  0  0
  -25.8044  -30.8917   27.0252 H   0  0  0  0  0  0
  -26.2958  -29.6745   24.1263 H   0  0  0  0  0  0
  -27.4066  -29.7300   25.4770 H   0  0  0  0  0  0
  -27.8841  -30.4310   23.9510 H   0  0  0  0  0  0
  -27.2649  -33.3631   26.2108 H   0  0  0  0  0  0
  -28.3822  -32.6933   25.0308 H   0  0  0  0  0  0
  -28.0787  -31.8476   26.5390 H   0  0  0  0  0  0
  -28.2563  -38.0138   24.7517 H   0  0  0  0  0  0
  -28.1099  -36.2653   24.6261 H   0  0  0  0  0  0
  -27.2314  -37.1448   25.8880 H   0  0  0  0  0  0
  -20.9290  -29.9365   21.7409 H   0  0  0  0  0  0
  -26.0163  -38.2862   24.1416 H   0  0  0  0  0  0
  -31.1609  -20.9134   22.1524 H   0  0  0  0  0  0
  -32.1290  -18.9879   23.2979 H   0  0  0  0  0  0
  -28.1812  -24.9277   22.5272 H   0  0  0  0  0  0
  -26.6009  -25.4041   21.9885 H   0  0  0  0  0  0
  -25.7726  -23.2866   21.9988 H   0  0  0  0  0  0
  -27.0508  -23.0396   23.1386 H   0  0  0  0  0  0
  -30.0321  -24.0257   20.5208 H   0  0  0  0  0  0
  -29.1732  -23.5492   19.0813 H   0  0  0  0  0  0
  -27.1874  -24.5690   19.6935 H   0  0  0  0  0  0
  -26.7904  -22.1340   20.2499 H   0  0  0  0  0  0
  -27.6625  -20.6483   22.7895 H   0  0  0  0  0  0
  -27.1766  -19.9181   21.2506 H   0  0  0  0  0  0
  -26.0108  -20.7849   22.2162 H   0  0  0  0  0  0
  -28.7070  -20.7920   19.2634 H   0  0  0  0  0  0
  -30.2861  -21.4309   19.5200 H   0  0  0  0  0  0
  -28.8642  -15.6457   20.7089 H   0  0  0  0  0  0
  -29.3157  -22.3227   21.6717 H   0  0  0  0  0  0
  1 25  1  0  0  0
  1 30  2  0  0  0
  1 84  1  0  0  0
  2  3  1  0  0  0
  2 25  1  0  0  0
  2 88  1  0  0  0
  2 89  1  0  0  0
  3  4  1  0  0  0
  3 90  1  0  0  0
  3 91  1  0  0  0
  4  5  1  0  0  0
  4 92  1  0  0  0
  4 93  1  0  0  0
  5  6  1  0  0  0
  5 26  1  0  0  0
  5 94  1  0  0  0
  6 25  1  0  0  0
  6 95  1  0  0  0
  6 96  1  0  0  0
  7  8  2  0  0  0
  7 26  1  0  0  0
  7 29  1  0  0  0
  8  9  1  0  0  0
  8 22  1  0  0  0
  9 10  1  0  0  0
  9 27  2  0  0  0
 10 11  2  0  0  0
 10 15  1  0  0  0
 11 12  1  0  0  0
 11 97  1  0  0  0
 12 13  2  0  0  0
 12 98  1  0  0  0
 13 14  1  0  0  0
 13 31  1  0  0  0
 14 15  2  0  0  0
 14 99  1  0  0  0
 15100  1  0  0  0
 16 17  2  0  0  0
 16 21  1  0  0  0
 16 31  1  0  0  0
 17 18  1  0  0  0
 17101  1  0  0  0
 18 19  2  0  0  0
 18102  1  0  0  0
 19 20  1  0  0  0
 19 24  1  0  0  0
 20 21  2  0  0  0
 20103  1  0  0  0
 21 23  1  0  0  0
 22 28  1  0  0  0
 22 32  2  0  0  0
 26 27  1  0  0  0
 28104  1  0  0  0
 28105  1  0  0  0
 29106  1  0  0  0
 29107  1  0  0  0
 33 34  1  0  0  0
 33 66  1  0  0  0
 33 70  2  0  0  0
 34 36  1  0  0  0
 34 59  1  0  0  0
 34108  1  0  0  0
 35 44  2  0  0  0
 35 45  1  0  0  0
 35 68  1  0  0  0
 36 56  1  0  0  0
 36109  1  0  0  0
 37 39  1  0  0  0
 37 47  1  0  0  0
 37 66  1  0  0  0
 37110  1  0  0  0
 38 43  2  0  0  0
 38 46  1  0  0  0
 38 47  1  0  0  0
 39 64  1  0  0  0
 39 67  2  0  0  0
 40 52  1  0  0  0
 40 53  2  0  0  0
 40 58  1  0  0  0
 41111  1  0  0  0
 41112  1  0  0  0
 41113  1  0  0  0
 41 48  1  0  0  0
 42 43  1  0  0  0
 42 66  1  0  0  0
 42114  1  0  0  0
 42115  1  0  0  0
 43 44  1  0  0  0
 44116  1  0  0  0
 45 46  2  0  0  0
 45117  1  0  0  0
 46118  1  0  0  0
 47119  1  0  0  0
 47120  1  0  0  0
 48 56  1  0  0  0
 48 65  1  0  0  0
 48121  1  0  0  0
 49 50  1  0  0  0
 49 53  1  0  0  0
 49 64  1  0  0  0
 49122  1  0  0  0
 50 51  1  0  0  0
 50123  1  0  0  0
 50124  1  0  0  0
 51 52  1  0  0  0
 51125  1  0  0  0
 51126  1  0  0  0
 52127  1  0  0  0
 52128  1  0  0  0
 53 54  1  0  0  0
 54 55  2  0  0  0
 54129  1  0  0  0
 55 57  1  0  0  0
 55130  1  0  0  0
 56 69  2  0  0  0
 57 58  2  0  0  0
 57131  1  0  0  0
 58132  1  0  0  0
 59 60  1  0  0  0
 59 61  1  0  0  0
 59 62  1  0  0  0
 60133  1  0  0  0
 60134  1  0  0  0
 60135  1  0  0  0
 61136  1  0  0  0
 61137  1  0  0  0
 61138  1  0  0  0
 62139  1  0  0  0
 62140  1  0  0  0
 62141  1  0  0  0
 63 65  1  0  0  0
 63142  1  0  0  0
 63143  1  0  0  0
 63144  1  0  0  0
 64145  1  0  0  0
 65146  1  0  0  0
 68 80  1  0  0  0
 71 72  2  0  0  0
 71 73  1  0  0  0
 71147  1  0  0  0
 72 75  1  0  0  0
 72148  1  0  0  0
 73 76  2  0  0  0
 73 83  1  0  0  0
 74 75  2  0  0  0
 74 76  1  0  0  0
 74 84  1  0  0  0
 75 86  1  0  0  0
 76 87  1  0  0  0
 77 78  1  0  0  0
 77 80  1  0  0  0
 77149  1  0  0  0
 77150  1  0  0  0
 78 81  1  0  0  0
 78151  1  0  0  0
 78152  1  0  0  0
 79 80  1  0  0  0
 79 85  1  0  0  0
 79153  1  0  0  0
 79154  1  0  0  0
 80155  1  0  0  0
 81 82  1  0  0  0
 81 85  1  0  0  0
 81156  1  0  0  0
 82157  1  0  0  0
 82158  1  0  0  0
 82159  1  0  0  0
 83160  1  0  0  0
 83161  1  0  0  0
 83 85  1  0  0  0
 84162  1  0  0  0
 85163  1  0  0  0
M  CHG  1  85   1
M  ISO  4   1 100  68 101  80 101  84 100
M  END
> <chiral flag>
0

> <version>
0

> <s_m_source_file>
/data/baiqing/PycharmProjects/Reinvent-master-3.2/result/LINK_invent/BTK/process_docking_weight1_custom_product_contain_oxygen_bond_distance_aromatic_linkinvent_7_9_3/rearranged_h_0034.sdf

> <i_m_source_file_index>
40

> <r_mmod_Potential_Energy-OPLS-2005>
79.9037170410156

> <r_mmod_Stretch_Energy-OPLS-2005>
129.136428833008

> <r_mmod_Bend_Energy-OPLS-2005>
166.383056640625

> <r_mmod_Torsional_Energy-OPLS-2005>
291.039184570312

> <r_mmod_Improper_Torsional_Energy-OPLS-2005>
6.78110456466675

> <r_mmod_Van_der_Waal_Energy-OPLS-2005>
143.333587646484

> <r_mmod_Electrostatic_Energy-OPLS-2005>
-305.761688232422

> <r_mmod_Solvation_Energy-OPLS-2005>
-435.304290771484

> <b_mmod_Minimization_Converged-OPLS-2005>
0

> <r_mmod_RMS_Derivative-OPLS-2005>
5.39303302764893

$$$$
40
                    3D
 Structure written by MMmdl.
173182  0  0  1  0            999 V2000
  -30.6975  -14.4841   20.4868 C   0  0  0  0  0  0
  -30.4117  -12.2631   19.4852 C   0  0  0  0  0  0
  -29.5247  -12.4430   18.2370 C   0  0  0  0  0  0
  -28.0384  -12.3322   18.6308 C   0  0  0  0  0  0
  -27.6595  -13.1999   19.8603 C   0  0  2  0  0  0
  -28.6891  -13.0546   21.0023 C   0  0  0  0  0  0
  -25.2626  -13.8136   20.5654 C   0  0  0  0  0  0
  -24.1889  -13.0449   20.9149 C   0  0  0  0  0  0
  -24.6407  -11.6891   20.8698 C   0  0  0  0  0  0
  -23.9059  -10.4302   21.0382 C   0  0  0  0  0  0
  -24.3607   -9.4231   21.9170 C   0  0  0  0  0  0
  -23.6282   -8.2277   22.0762 C   0  0  0  0  0  0
  -22.4263   -8.0324   21.3552 C   0  0  0  0  0  0
  -21.9899   -9.0279   20.4635 C   0  0  0  0  0  0
  -22.7221  -10.2168   20.3035 C   0  0  0  0  0  0
  -21.6885   -6.0766   22.5277 C   0  0  0  0  0  0
  -21.4016   -6.5650   23.8230 C   0  0  0  0  0  0
  -21.3642   -5.6794   24.9168 C   0  0  0  0  0  0
  -21.6045   -4.3061   24.7209 C   0  0  0  0  0  0
  -21.8823   -3.8172   23.4313 C   0  0  0  0  0  0
  -21.9193   -4.6988   22.3392 C   0  0  0  0  0  0
  -22.7911  -13.5266   21.1811 C   0  0  0  0  0  0
  -22.1684   -4.2195   21.0957 F   0  0  0  0  0  0
  -21.5599   -3.4523   25.7698 F   0  0  0  0  0  0
  -30.0264  -13.3036   20.4465 N   0  0  0  0  0  0
  -26.3036  -12.9273   20.3269 N   0  0  0  0  0  0
  -25.9324  -11.6439   20.5723 N   0  0  0  0  0  0
  -22.0524  -12.8306   22.0339 N   0  0  0  0  0  0
  -25.4296  -15.1865   20.4092 N   0  0  0  0  0  0
  -31.8869  -14.5899   20.1809 O   0  0  0  0  0  0
  -21.6652   -6.8902   21.4248 O   0  0  0  0  0  0
  -22.3578  -14.5559   20.6628 O   0  0  0  0  0  0
  -24.6108  -31.8698   23.2119 C   0  0  0  0  0  0
  -25.8998  -32.4846   23.8415 C   0  0  1  0  0  0
  -27.2391  -27.4360   20.1272 C   0  0  0  0  0  0
  -25.5887  -33.8643   24.2348 N   0  0  0  0  0  0
  -23.4035  -30.4929   21.5472 C   0  0  2  0  0  0
  -24.8594  -28.9627   20.1167 C   0  0  0  0  0  0
  -22.7411  -29.4640   22.4920 C   0  0  0  0  0  0
  -18.0274  -28.1370   22.8475 C   0  0  0  0  0  0
  -24.1497  -36.7299   23.2646 C   0  0  0  0  0  0
  -25.9320  -30.8332   21.3746 C   0  0  0  0  0  0
  -26.0118  -29.4642   20.7338 C   0  0  0  0  0  0
  -27.2053  -28.7033   20.7495 C   0  0  0  0  0  0
  -26.0807  -26.9661   19.4728 C   0  0  0  0  0  0
  -24.8874  -27.7083   19.4874 C   0  0  0  0  0  0
  -23.6245  -29.8322   20.1592 C   0  0  0  0  0  0
  -25.4115  -36.3113   24.0349 C   0  0  1  0  0  0
  -20.5872  -28.3653   23.1304 C   0  0  2  0  0  0
  -20.6770  -26.9386   22.5403 C   0  0  0  0  0  0
  -19.5752  -26.6369   21.5204 C   0  0  0  0  0  0
  -18.1931  -26.7910   22.1607 C   0  0  0  0  0  0
  -19.1529  -28.8823   23.2889 C   0  0  0  0  0  0
  -18.9450  -30.1426   23.8903 C   0  0  0  0  0  0
  -17.6458  -30.6583   24.0558 C   0  0  0  0  0  0
  -25.9038  -34.9478   23.5138 C   0  0  0  0  0  0
  -16.5348  -29.9097   23.6320 C   0  0  0  0  0  0
  -16.7262  -28.6513   23.0342 C   0  0  0  0  0  0
  -26.4458  -31.6608   25.0716 C   0  0  0  0  0  0
  -25.3760  -31.3688   26.1495 C   0  0  0  0  0  0
  -27.0297  -30.3062   24.6043 C   0  0  0  0  0  0
  -27.6037  -32.4343   25.7462 C   0  0  0  0  0  0
  -27.5584  -37.1810   24.8473 C   0  0  0  0  0  0
  -21.4130  -29.3031   22.3696 N   0  0  0  0  0  0
  -26.4296  -37.3792   23.9419 N   0  0  0  0  0  0
  -24.6648  -31.0822   22.1013 N   0  0  0  0  0  0
  -23.4188  -28.8143   23.2928 O   0  0  0  0  0  0
  -28.3888  -26.6707   20.1150 O   0  0  0  0  0  0
  -26.5579  -34.8927   22.4685 O   0  0  0  0  0  0
  -23.5305  -32.1404   23.7518 O   0  0  0  0  0  0
  -30.6980  -20.6149   20.0523 C   0  0  0  0  0  0
  -30.7313  -19.2885   19.5795 C   0  0  0  0  0  0
  -30.2808  -20.9344   21.3550 C   0  0  0  0  0  0
  -29.9542  -19.8606   22.2308 C   0  0  0  0  0  0
  -29.9912  -18.5035   21.7682 C   0  0  0  0  0  0
  -30.2926  -18.2038   20.3988 C   0  0  0  0  0  0
  -27.8862  -23.2964   21.5304 C   0  0  0  0  0  0
  -27.2357  -22.3275   22.1992 C   0  0  0  0  0  0
  -27.3143  -24.6177   21.0892 C   0  0  0  0  0  0
  -29.7223  -24.7288   20.9368 C   0  0  0  0  0  0
  -28.4674  -25.6211   21.1074 C   0  0  2  0  0  0
  -31.2932  -19.1168   18.1698 C   0  0  0  0  0  0
  -29.6006  -20.1433   23.6888 C   0  0  0  0  0  0
  -29.7740  -17.3761   22.7832 C   0  0  0  0  0  0
  -29.0623  -16.8013   18.6358 C   0  0  0  0  0  0
  -30.3144  -22.4290   21.7600 C   0  0  0  0  0  0
  -30.1522  -16.7944   19.7328 C   0  0  2  0  0  0
  -29.9058  -15.5735   20.5315 N   0  0  0  0  0  0
  -29.3075  -23.2968   21.0694 N   0  3  1  0  0  0
  -31.4746  -12.2904   19.2381 H   0  0  0  0  0  0
  -30.2411  -11.2785   19.9247 H   0  0  0  0  0  0
  -29.7753  -11.6715   17.5076 H   0  0  0  0  0  0
  -29.7243  -13.3985   17.7494 H   0  0  0  0  0  0
  -27.8560  -11.2847   18.8606 H   0  0  0  0  0  0
  -27.4061  -12.5780   17.7783 H   0  0  0  0  0  0
  -27.6830  -14.2323   19.5141 H   0  0  0  0  0  0
  -28.6482  -12.0596   21.4493 H   0  0  0  0  0  0
  -28.4591  -13.7519   21.8096 H   0  0  0  0  0  0
  -25.2727   -9.5755   22.4763 H   0  0  0  0  0  0
  -24.0018   -7.4672   22.7476 H   0  0  0  0  0  0
  -21.0857   -8.8761   19.8911 H   0  0  0  0  0  0
  -22.3645  -10.9713   19.6172 H   0  0  0  0  0  0
  -21.2035   -7.6161   23.9750 H   0  0  0  0  0  0
  -21.1454   -6.0503   25.9086 H   0  0  0  0  0  0
  -22.0608   -2.7632   23.2786 H   0  0  0  0  0  0
  -22.4096  -12.0011   22.4854 H   0  0  0  0  0  0
  -21.1133  -13.1400   22.2467 H   0  0  0  0  0  0
  -24.6506  -15.8267   20.5102 H   0  0  0  0  0  0
  -26.2703  -15.6335   20.0751 H   0  0  0  0  0  0
  -26.7057  -32.5589   23.1184 H   0  0  0  0  0  0
  -25.0142  -33.9823   25.0568 H   0  0  0  0  0  0
  -22.6902  -31.3059   21.4041 H   0  0  0  0  0  0
  -23.3780  -35.9615   23.3323 H   0  0  0  0  0  0
  -24.3590  -36.8890   22.2056 H   0  0  0  0  0  0
  -23.7225  -37.6502   23.6638 H   0  0  0  0  0  0
  -26.0482  -31.5964   20.6039 H   0  0  0  0  0  0
  -26.8173  -30.8919   21.9931 H   0  0  0  0  0  0
  -28.0892  -29.0784   21.2481 H   0  0  0  0  0  0
  -26.0954  -26.0242   18.9454 H   0  0  0  0  0  0
  -24.0097  -27.3248   18.9883 H   0  0  0  0  0  0
  -23.7430  -30.6099   19.4035 H   0  0  0  0  0  0
  -22.7515  -29.2556   19.8490 H   0  0  0  0  0  0
  -25.1295  -36.1982   25.0838 H   0  0  0  0  0  0
  -20.9962  -28.3222   24.1422 H   0  0  0  0  0  0
  -20.5679  -26.2253   23.3581 H   0  0  0  0  0  0
  -21.6644  -26.7432   22.1188 H   0  0  0  0  0  0
  -19.6914  -25.6281   21.1231 H   0  0  0  0  0  0
  -19.6708  -27.3184   20.6739 H   0  0  0  0  0  0
  -17.4192  -26.6651   21.4013 H   0  0  0  0  0  0
  -18.0325  -26.0054   22.8996 H   0  0  0  0  0  0
  -19.7939  -30.7230   24.2277 H   0  0  0  0  0  0
  -17.5035  -31.6267   24.5150 H   0  0  0  0  0  0
  -15.5358  -30.3014   23.7646 H   0  0  0  0  0  0
  -15.8651  -28.0858   22.7042 H   0  0  0  0  0  0
  -24.5948  -30.7003   25.7851 H   0  0  0  0  0  0
  -24.8948  -32.2836   26.4958 H   0  0  0  0  0  0
  -25.8173  -30.8863   27.0232 H   0  0  0  0  0  0
  -26.2805  -29.6815   24.1157 H   0  0  0  0  0  0
  -27.4172  -29.7289   25.4454 H   0  0  0  0  0  0
  -27.8605  -30.4429   23.9120 H   0  0  0  0  0  0
  -27.2652  -33.3657   26.2013 H   0  0  0  0  0  0
  -28.3843  -32.6876   25.0276 H   0  0  0  0  0  0
  -28.0699  -31.8486   26.5398 H   0  0  0  0  0  0
  -28.2608  -38.0109   24.7528 H   0  0  0  0  0  0
  -28.1071  -36.2632   24.6298 H   0  0  0  0  0  0
  -27.2288  -37.1460   25.8874 H   0  0  0  0  0  0
  -20.9256  -29.8843   21.7018 H   0  0  0  0  0  0
  -26.0199  -38.2867   24.1449 H   0  0  0  0  0  0
  -31.0227  -21.4125   19.3956 H   0  0  0  0  0  0
  -26.2033  -22.4637   22.4886 H   0  0  0  0  0  0
  -27.6856  -21.3866   22.4574 H   0  0  0  0  0  0
  -26.4650  -24.9408   21.6943 H   0  0  0  0  0  0
  -26.9711  -24.4485   20.0713 H   0  0  0  0  0  0
  -30.4698  -25.0076   21.6830 H   0  0  0  0  0  0
  -30.1829  -24.8767   19.9632 H   0  0  0  0  0  0
  -28.4959  -26.0778   22.0988 H   0  0  0  0  0  0
  -32.1243  -19.8092   18.0234 H   0  0  0  0  0  0
  -30.5390  -19.3462   17.4175 H   0  0  0  0  0  0
  -31.7005  -18.1317   17.9572 H   0  0  0  0  0  0
  -29.2854  -21.1622   23.8950 H   0  0  0  0  0  0
  -30.4539  -19.9288   24.3304 H   0  0  0  0  0  0
  -28.7626  -19.5254   24.0072 H   0  0  0  0  0  0
  -28.7943  -16.9109   22.6644 H   0  0  0  0  0  0
  -29.8832  -17.6618   23.8284 H   0  0  0  0  0  0
  -30.5653  -16.6373   22.6669 H   0  0  0  0  0  0
  -29.3138  -17.4195   17.7753 H   0  0  0  0  0  0
  -28.1063  -17.1578   19.0201 H   0  0  0  0  0  0
  -28.9081  -15.8020   18.2288 H   0  0  0  0  0  0
  -31.3067  -22.7660   21.4590 H   0  0  0  0  0  0
  -30.2943  -22.6154   22.8331 H   0  0  0  0  0  0
  -31.1023  -16.6320   19.2282 H   0  0  0  0  0  0
  -28.9441  -15.4000   20.7820 H   0  0  0  0  0  0
  -29.2977  -22.9401   20.1249 H   0  0  0  0  0  0
  1 25  1  0  0  0
  1 30  2  0  0  0
  1 88  1  0  0  0
  2  3  1  0  0  0
  2 25  1  0  0  0
  2 90  1  0  0  0
  2 91  1  0  0  0
  3  4  1  0  0  0
  3 92  1  0  0  0
  3 93  1  0  0  0
  4  5  1  0  0  0
  4 94  1  0  0  0
  4 95  1  0  0  0
  5  6  1  0  0  0
  5 26  1  0  0  0
  5 96  1  0  0  0
  6 25  1  0  0  0
  6 97  1  0  0  0
  6 98  1  0  0  0
  7  8  2  0  0  0
  7 26  1  0  0  0
  7 29  1  0  0  0
  8  9  1  0  0  0
  8 22  1  0  0  0
  9 10  1  0  0  0
  9 27  2  0  0  0
 10 11  2  0  0  0
 10 15  1  0  0  0
 11 12  1  0  0  0
 11 99  1  0  0  0
 12 13  2  0  0  0
 12100  1  0  0  0
 13 14  1  0  0  0
 13 31  1  0  0  0
 14 15  2  0  0  0
 14101  1  0  0  0
 15102  1  0  0  0
 16 17  2  0  0  0
 16 21  1  0  0  0
 16 31  1  0  0  0
 17 18  1  0  0  0
 17103  1  0  0  0
 18 19  2  0  0  0
 18104  1  0  0  0
 19 20  1  0  0  0
 19 24  1  0  0  0
 20 21  2  0  0  0
 20105  1  0  0  0
 21 23  1  0  0  0
 22 28  1  0  0  0
 22 32  2  0  0  0
 26 27  1  0  0  0
 28106  1  0  0  0
 28107  1  0  0  0
 29108  1  0  0  0
 29109  1  0  0  0
 33 34  1  0  0  0
 33 66  1  0  0  0
 33 70  2  0  0  0
 34 36  1  0  0  0
 34 59  1  0  0  0
 34110  1  0  0  0
 35 44  2  0  0  0
 35 45  1  0  0  0
 35 68  1  0  0  0
 36 56  1  0  0  0
 36111  1  0  0  0
 37 39  1  0  0  0
 37 47  1  0  0  0
 37 66  1  0  0  0
 37112  1  0  0  0
 38 43  2  0  0  0
 38 46  1  0  0  0
 38 47  1  0  0  0
 39 64  1  0  0  0
 39 67  2  0  0  0
 40 52  1  0  0  0
 40 53  2  0  0  0
 40 58  1  0  0  0
 41113  1  0  0  0
 41114  1  0  0  0
 41115  1  0  0  0
 41 48  1  0  0  0
 42 43  1  0  0  0
 42 66  1  0  0  0
 42116  1  0  0  0
 42117  1  0  0  0
 43 44  1  0  0  0
 44118  1  0  0  0
 45 46  2  0  0  0
 45119  1  0  0  0
 46120  1  0  0  0
 47121  1  0  0  0
 47122  1  0  0  0
 48 56  1  0  0  0
 48 65  1  0  0  0
 48123  1  0  0  0
 49 50  1  0  0  0
 49 53  1  0  0  0
 49 64  1  0  0  0
 49124  1  0  0  0
 50 51  1  0  0  0
 50125  1  0  0  0
 50126  1  0  0  0
 51 52  1  0  0  0
 51127  1  0  0  0
 51128  1  0  0  0
 52129  1  0  0  0
 52130  1  0  0  0
 53 54  1  0  0  0
 54 55  2  0  0  0
 54131  1  0  0  0
 55 57  1  0  0  0
 55132  1  0  0  0
 56 69  2  0  0  0
 57 58  2  0  0  0
 57133  1  0  0  0
 58134  1  0  0  0
 59 60  1  0  0  0
 59 61  1  0  0  0
 59 62  1  0  0  0
 60135  1  0  0  0
 60136  1  0  0  0
 60137  1  0  0  0
 61138  1  0  0  0
 61139  1  0  0  0
 61140  1  0  0  0
 62141  1  0  0  0
 62142  1  0  0  0
 62143  1  0  0  0
 63 65  1  0  0  0
 63144  1  0  0  0
 63145  1  0  0  0
 63146  1  0  0  0
 64147  1  0  0  0
 65148  1  0  0  0
 68 81  1  0  0  0
 71 72  2  0  0  0
 71 73  1  0  0  0
 71149  1  0  0  0
 72 76  1  0  0  0
 72 82  1  0  0  0
 73 74  2  0  0  0
 73 86  1  0  0  0
 74 75  1  0  0  0
 74 83  1  0  0  0
 75 76  2  0  0  0
 75 84  1  0  0  0
 76 87  1  0  0  0
 77 78  2  0  0  0
 77 79  1  0  0  0
 77 89  1  0  0  0
 78150  1  0  0  0
 78151  1  0  0  0
 79 81  1  0  0  0
 79152  1  0  0  0
 79153  1  0  0  0
 80 81  1  0  0  0
 80 89  1  0  0  0
 80154  1  0  0  0
 80155  1  0  0  0
 81156  1  0  0  0
 82157  1  0  0  0
 82158  1  0  0  0
 82159  1  0  0  0
 83160  1  0  0  0
 83161  1  0  0  0
 83162  1  0  0  0
 84163  1  0  0  0
 84164  1  0  0  0
 84165  1  0  0  0
 85166  1  0  0  0
 85167  1  0  0  0
 85168  1  0  0  0
 85 87  1  0  0  0
 86169  1  0  0  0
 86170  1  0  0  0
 86 89  1  0  0  0
 87 88  1  0  0  0
 87171  1  0  0  0
 88172  1  0  0  0
 89173  1  0  0  0
M  CHG  1  89   1
M  ISO  4   1 100  68 101  81 101  88 100
M  END
> <chiral flag>
0

> <version>
0

> <s_m_source_file>
/data/baiqing/PycharmProjects/Reinvent-master-3.2/result/LINK_invent/BTK/process_docking_weight1_custom_product_contain_oxygen_bond_distance_aromatic_linkinvent_7_9_3/rearranged_h_0034.sdf

> <i_m_source_file_index>
41

> <r_mmod_Potential_Energy-OPLS-2005>
-59.3684349060059

> <r_mmod_Stretch_Energy-OPLS-2005>
50.6107215881348

> <r_mmod_Bend_Energy-OPLS-2005>
155.209808349609

> <r_mmod_Torsional_Energy-OPLS-2005>
277.243957519531

> <r_mmod_Improper_Torsional_Energy-OPLS-2005>
11.4163637161255

> <r_mmod_Van_der_Waal_Energy-OPLS-2005>
173.490661621094

> <r_mmod_Electrostatic_Energy-OPLS-2005>
-340.107208251953

> <r_mmod_Solvation_Energy-OPLS-2005>
-409.083648681641

> <b_mmod_Minimization_Converged-OPLS-2005>
0

> <r_mmod_RMS_Derivative-OPLS-2005>
5.64570331573486

$$$$
41
                    3D
 Structure written by MMmdl.
172181  0  0  1  0            999 V2000
  -29.7606  -15.5540   20.8020 C   0  0  0  0  0  0
  -30.3499  -13.1359   19.6700 C   0  0  0  0  0  0
  -29.5453  -12.7329   18.3878 C   0  0  0  0  0  0
  -28.0931  -12.3334   18.7259 C   0  0  0  0  0  0
  -27.5344  -13.2578   19.8307 C   0  0  2  0  0  0
  -28.4527  -13.3749   21.0428 C   0  0  0  0  0  0
  -25.1978  -13.8172   20.5606 C   0  0  0  0  0  0
  -24.1398  -13.0341   20.9313 C   0  0  0  0  0  0
  -24.6075  -11.6863   20.8730 C   0  0  0  0  0  0
  -23.8862  -10.4230   21.0416 C   0  0  0  0  0  0
  -24.3490   -9.4182   21.9176 C   0  0  0  0  0  0
  -23.6216   -8.2182   22.0739 C   0  0  0  0  0  0
  -22.4201   -8.0196   21.3527 C   0  0  0  0  0  0
  -21.9790   -9.0143   20.4625 C   0  0  0  0  0  0
  -22.7068  -10.2051   20.3045 C   0  0  0  0  0  0
  -21.6836   -6.0664   22.5289 C   0  0  0  0  0  0
  -21.4000   -6.5594   23.8216 C   0  0  0  0  0  0
  -21.3669   -5.6763   24.9185 C   0  0  0  0  0  0
  -21.6057   -4.3028   24.7250 C   0  0  0  0  0  0
  -21.8811   -3.8098   23.4378 C   0  0  0  0  0  0
  -21.9178   -4.6892   22.3423 C   0  0  0  0  0  0
  -22.7495  -13.5162   21.2033 C   0  0  0  0  0  0
  -22.1649   -4.2074   21.1004 F   0  0  0  0  0  0
  -21.5646   -3.4526   25.7779 F   0  0  0  0  0  0
  -29.5653  -14.1409   20.5350 N   0  0  0  0  0  0
  -26.2128  -12.9293   20.2753 N   0  0  0  0  0  0
  -25.8900  -11.6449   20.5434 N   0  0  0  0  0  0
  -22.0184  -12.8126   22.0618 N   0  0  0  0  0  0
  -25.3734  -15.1908   20.4165 N   0  0  0  0  0  0
  -30.9924  -15.7514   20.5942 O   0  0  0  0  0  0
  -21.6600   -6.8777   21.4235 O   0  0  0  0  0  0
  -22.3226  -14.5472   20.6921 O   0  0  0  0  0  0
  -24.7538  -31.9523   23.2395 C   0  0  0  0  0  0
  -26.0191  -32.5441   23.8706 C   0  0  1  0  0  0
  -26.2912  -27.2979   20.3029 C   0  0  0  0  0  0
  -25.6678  -33.9067   24.2547 N   0  0  0  0  0  0
  -23.7652  -30.2894   21.8265 C   0  0  2  0  0  0
  -24.9605  -29.4063   19.7723 C   0  0  0  0  0  0
  -23.8906  -29.0024   22.8371 C   0  0  0  0  0  0
  -18.1754  -27.7370   22.8257 C   0  0  0  0  0  0
  -24.1508  -36.7410   23.2504 C   0  0  0  0  0  0
  -26.1434  -30.8676   21.4402 C   0  0  0  0  0  0
  -26.0783  -29.6071   20.5862 C   0  0  0  0  0  0
  -26.9293  -28.5015   20.7273 C   0  0  0  0  0  0
  -25.8650  -27.2773   18.9996 C   0  0  0  0  0  0
  -24.9364  -28.3258   18.8379 C   0  0  0  0  0  0
  -23.7509  -30.1404   20.2315 C   0  0  0  0  0  0
  -25.4137  -36.3239   24.0212 C   0  0  1  0  0  0
  -21.0476  -26.9647   22.8014 C   0  0  2  0  0  0
  -20.5719  -26.0471   21.7396 C   0  0  0  0  0  0
  -19.1854  -26.2715   21.1773 C   0  0  0  0  0  0
  -18.0525  -26.4177   22.1733 C   0  0  0  0  0  0
  -19.5373  -28.1406   23.0738 C   0  0  0  0  0  0
  -19.4257  -29.5765   23.4885 C   0  0  0  0  0  0
  -18.2424  -30.3277   23.7994 C   0  0  0  0  0  0
  -25.9239  -34.9785   23.5010 C   0  0  0  0  0  0
  -16.9736  -29.7681   23.6099 C   0  0  0  0  0  0
  -16.9619  -28.4685   23.0779 C   0  0  0  0  0  0
  -26.5203  -31.7111   25.1146 C   0  0  0  0  0  0
  -25.4213  -31.3751   26.1489 C   0  0  0  0  0  0
  -27.2425  -30.4090   24.6825 C   0  0  0  0  0  0
  -27.5881  -32.5392   25.8779 C   0  0  0  0  0  0
  -27.5571  -37.1936   24.8417 C   0  0  0  0  0  0
  -23.2122  -27.7355   22.9044 N   0  0  0  0  0  0
  -26.4267  -37.3989   23.9420 N   0  0  0  0  0  0
  -24.8821  -31.1446   22.1598 N   0  0  0  0  0  0
  -24.4052  -29.1305   23.9053 O   0  0  0  0  0  0
  -25.0485  -27.0845   20.9856 O   0  0  0  0  0  0
  -26.5500  -34.9159   22.4386 O   0  0  0  0  0  0
  -23.6632  -32.2085   23.7628 O   0  0  0  0  0  0
  -27.4322  -20.5559   20.7098 C   0  0  0  0  0  0
  -26.1288  -22.7099   21.2563 C   0  0  0  0  0  0
  -27.0703  -21.9224   20.4861 C   0  0  0  0  0  0
  -27.0732  -19.7911   21.8342 C   0  0  0  0  0  0
  -25.4834  -22.3057   22.4645 C   0  0  0  0  0  0
  -26.1209  -20.8122   22.7084 C   0  0  0  0  0  0
  -21.7401  -28.4175   24.3483 C   0  0  0  0  0  0
  -21.6937  -28.7770   21.6788 C   0  0  0  0  0  0
  -22.6703  -26.3101   24.6110 C   0  0  0  0  0  0
  -23.3561  -25.6084   21.6246 C   0  0  0  0  0  0
  -23.2391  -27.2427   20.7172 C   0  0  1  0  0  0
  -27.8432  -22.6325   19.3826 C   0  0  0  0  0  0
  -27.0306  -20.9254   25.0560 C   0  0  0  0  0  0
  -25.9232  -20.3627   24.1418 C   0  0  0  0  0  0
  -28.0189  -18.1286   21.9816 C   0  0  0  0  0  0
  -24.2584  -23.5449   23.3157 C   0  0  0  0  0  0
  -28.6247  -16.6127   21.1424 N   0  0  0  0  0  0
  -23.5727  -25.2486   23.2654 N   0  3  2  0  0  0
  -31.3023  -13.5733   19.3674 H   0  0  0  0  0  0
  -30.6115  -12.2504   20.2569 H   0  0  0  0  0  0
  -30.0534  -11.9354   17.8445 H   0  0  0  0  0  0
  -29.5284  -13.5901   17.7190 H   0  0  0  0  0  0
  -28.0835  -11.2978   19.0588 H   0  0  0  0  0  0
  -27.4721  -12.3811   17.8308 H   0  0  0  0  0  0
  -27.4580  -14.2343   19.3557 H   0  0  0  0  0  0
  -28.7346  -12.4003   21.4468 H   0  0  0  0  0  0
  -27.9642  -13.9226   21.8541 H   0  0  0  0  0  0
  -25.2630   -9.5692   22.4736 H   0  0  0  0  0  0
  -23.9951   -7.4572   22.7456 H   0  0  0  0  0  0
  -21.0717   -8.8593   19.8939 H   0  0  0  0  0  0
  -22.3479  -10.9547   19.6140 H   0  0  0  0  0  0
  -21.1984   -7.6102   23.9688 H   0  0  0  0  0  0
  -21.1521   -6.0512   25.9087 H   0  0  0  0  0  0
  -22.0586   -2.7553   23.2913 H   0  0  0  0  0  0
  -22.3810  -11.9786   22.4978 H   0  0  0  0  0  0
  -21.0813  -13.1115   22.2851 H   0  0  0  0  0  0
  -24.5684  -15.8057   20.4985 H   0  0  0  0  0  0
  -26.0913  -15.5798   19.8205 H   0  0  0  0  0  0
  -26.8436  -32.6041   23.1600 H   0  0  0  0  0  0
  -25.1043  -34.0101   25.0840 H   0  0  0  0  0  0
  -22.8979  -30.8847   22.0870 H   0  0  0  0  0  0
  -23.3804  -35.9709   23.3177 H   0  0  0  0  0  0
  -24.3592  -36.9030   22.1914 H   0  0  0  0  0  0
  -23.7265  -37.6632   23.6544 H   0  0  0  0  0  0
  -26.3703  -31.7163   20.7903 H   0  0  0  0  0  0
  -26.9939  -30.7623   22.1037 H   0  0  0  0  0  0
  -27.7200  -28.5050   21.4516 H   0  0  0  0  0  0
  -25.6516  -26.3502   18.4862 H   0  0  0  0  0  0
  -24.1157  -28.2131   18.1364 H   0  0  0  0  0  0
  -23.7977  -31.1462   19.8113 H   0  0  0  0  0  0
  -22.8642  -29.7133   19.7664 H   0  0  0  0  0  0
  -25.1302  -36.2014   25.0705 H   0  0  0  0  0  0
  -20.6900  -26.3104   23.6149 H   0  0  0  0  0  0
  -20.6456  -25.0077   22.0692 H   0  0  0  0  0  0
  -21.1132  -26.0986   20.8065 H   0  0  0  0  0  0
  -18.9570  -25.4163   20.5278 H   0  0  0  0  0  0
  -19.1740  -27.1196   20.5045 H   0  0  0  0  0  0
  -17.0981  -26.3446   21.6551 H   0  0  0  0  0  0
  -18.0595  -25.6100   22.9097 H   0  0  0  0  0  0
  -20.3302  -30.1617   23.5887 H   0  0  0  0  0  0
  -18.4096  -31.3436   24.1247 H   0  0  0  0  0  0
  -16.0886  -30.3524   23.8114 H   0  0  0  0  0  0
  -15.9945  -28.0254   22.8584 H   0  0  0  0  0  0
  -24.6587  -30.6997   25.7640 H   0  0  0  0  0  0
  -24.9090  -32.2764   26.4928 H   0  0  0  0  0  0
  -25.8508  -30.8934   27.0272 H   0  0  0  0  0  0
  -26.6658  -29.7220   24.0760 H   0  0  0  0  0  0
  -27.5690  -29.8473   25.5557 H   0  0  0  0  0  0
  -28.1541  -30.6392   24.1289 H   0  0  0  0  0  0
  -27.1461  -33.4299   26.3285 H   0  0  0  0  0  0
  -28.4080  -32.8741   25.2433 H   0  0  0  0  0  0
  -28.0185  -31.9755   26.7075 H   0  0  0  0  0  0
  -28.2521  -38.0282   24.7571 H   0  0  0  0  0  0
  -28.1128  -36.2858   24.6127 H   0  0  0  0  0  0
  -27.2285  -37.1411   25.8791 H   0  0  0  0  0  0
  -23.5723  -27.4676   23.8006 H   0  0  0  0  0  0
  -26.0090  -38.3012   24.1613 H   0  0  0  0  0  0
  -28.1395  -20.0920   20.0294 H   0  0  0  0  0  0
  -25.9626  -23.7192   20.9103 H   0  0  0  0  0  0
  -20.8638  -28.4049   24.9958 H   0  0  0  0  0  0
  -22.3438  -29.1587   24.8693 H   0  0  0  0  0  0
  -20.8042  -28.4884   21.1134 H   0  0  0  0  0  0
  -21.5084  -29.7844   21.3430 H   0  0  0  0  0  0
  -21.9750  -25.6549   25.1343 H   0  0  0  0  0  0
  -23.4265  -26.4227   25.3940 H   0  0  0  0  0  0
  -22.6673  -24.8703   21.2315 H   0  0  0  0  0  0
  -24.2309  -25.1291   21.2073 H   0  0  0  0  0  0
  -22.9448  -27.0270   19.7028 H   0  0  0  0  0  0
  -28.7334  -22.0787   19.0675 H   0  0  0  0  0  0
  -28.2176  -23.5861   19.7506 H   0  0  0  0  0  0
  -27.2282  -22.8246   18.5021 H   0  0  0  0  0  0
  -26.8922  -20.5724   26.0761 H   0  0  0  0  0  0
  -27.0282  -22.0196   25.0879 H   0  0  0  0  0  0
  -28.0299  -20.6216   24.7299 H   0  0  0  0  0  0
  -25.9214  -19.2660   24.1827 H   0  0  0  0  0  0
  -24.9545  -20.7047   24.5018 H   0  0  0  0  0  0
  -27.3868  -17.6394   22.7248 H   0  0  0  0  0  0
  -28.8930  -18.4250   22.5556 H   0  0  0  0  0  0
  -24.3986  -23.3517   24.3809 H   0  0  0  0  0  0
  -23.3379  -22.9866   23.1134 H   0  0  0  0  0  0
  -27.7853  -16.0815   20.9638 H   0  0  0  0  0  0
  -24.4441  -25.7556   23.3735 H   0  0  0  0  0  0
  1 25  1  0  0  0
  1 30  2  0  0  0
  1 87  1  0  0  0
  2  3  1  0  0  0
  2 25  1  0  0  0
  2 89  1  0  0  0
  2 90  1  0  0  0
  3  4  1  0  0  0
  3 91  1  0  0  0
  3 92  1  0  0  0
  4  5  1  0  0  0
  4 93  1  0  0  0
  4 94  1  0  0  0
  5  6  1  0  0  0
  5 26  1  0  0  0
  5 95  1  0  0  0
  6 25  1  0  0  0
  6 96  1  0  0  0
  6 97  1  0  0  0
  7  8  2  0  0  0
  7 26  1  0  0  0
  7 29  1  0  0  0
  8  9  1  0  0  0
  8 22  1  0  0  0
  9 10  1  0  0  0
  9 27  2  0  0  0
 10 11  2  0  0  0
 10 15  1  0  0  0
 11 12  1  0  0  0
 11 98  1  0  0  0
 12 13  2  0  0  0
 12 99  1  0  0  0
 13 14  1  0  0  0
 13 31  1  0  0  0
 14 15  2  0  0  0
 14100  1  0  0  0
 15101  1  0  0  0
 16 17  2  0  0  0
 16 21  1  0  0  0
 16 31  1  0  0  0
 17 18  1  0  0  0
 17102  1  0  0  0
 18 19  2  0  0  0
 18103  1  0  0  0
 19 20  1  0  0  0
 19 24  1  0  0  0
 20 21  2  0  0  0
 20104  1  0  0  0
 21 23  1  0  0  0
 22 28  1  0  0  0
 22 32  2  0  0  0
 26 27  1  0  0  0
 28105  1  0  0  0
 28106  1  0  0  0
 29107  1  0  0  0
 29108  1  0  0  0
 33 34  1  0  0  0
 33 66  1  0  0  0
 33 70  2  0  0  0
 34 36  1  0  0  0
 34 59  1  0  0  0
 34109  1  0  0  0
 35 44  2  0  0  0
 35 45  1  0  0  0
 35 68  1  0  0  0
 36 56  1  0  0  0
 36110  1  0  0  0
 37 39  1  0  0  0
 37 47  1  0  0  0
 37 66  1  0  0  0
 37111  1  0  0  0
 38 43  2  0  0  0
 38 46  1  0  0  0
 38 47  1  0  0  0
 39 64  1  0  0  0
 39 67  2  0  0  0
 40 52  1  0  0  0
 40 53  2  0  0  0
 40 58  1  0  0  0
 41112  1  0  0  0
 41113  1  0  0  0
 41114  1  0  0  0
 41 48  1  0  0  0
 42 43  1  0  0  0
 42 66  1  0  0  0
 42115  1  0  0  0
 42116  1  0  0  0
 43 44  1  0  0  0
 44117  1  0  0  0
 45 46  2  0  0  0
 45118  1  0  0  0
 46119  1  0  0  0
 47120  1  0  0  0
 47121  1  0  0  0
 48 56  1  0  0  0
 48 65  1  0  0  0
 48122  1  0  0  0
 49 50  1  0  0  0
 49 53  1  0  0  0
 49 64  1  0  0  0
 49123  1  0  0  0
 50 51  1  0  0  0
 50124  1  0  0  0
 50125  1  0  0  0
 51 52  1  0  0  0
 51126  1  0  0  0
 51127  1  0  0  0
 52128  1  0  0  0
 52129  1  0  0  0
 53 54  1  0  0  0
 54 55  2  0  0  0
 54130  1  0  0  0
 55 57  1  0  0  0
 55131  1  0  0  0
 56 69  2  0  0  0
 57 58  2  0  0  0
 57132  1  0  0  0
 58133  1  0  0  0
 59 60  1  0  0  0
 59 61  1  0  0  0
 59 62  1  0  0  0
 60134  1  0  0  0
 60135  1  0  0  0
 60136  1  0  0  0
 61137  1  0  0  0
 61138  1  0  0  0
 61139  1  0  0  0
 62140  1  0  0  0
 62141  1  0  0  0
 62142  1  0  0  0
 63 65  1  0  0  0
 63143  1  0  0  0
 63144  1  0  0  0
 63145  1  0  0  0
 64146  1  0  0  0
 65147  1  0  0  0
 68 81  1  0  0  0
 71 73  2  0  0  0
 71 74  1  0  0  0
 71148  1  0  0  0
 72 73  1  0  0  0
 72 75  2  0  0  0
 72149  1  0  0  0
 73 82  1  0  0  0
 74 76  2  0  0  0
 74 85  1  0  0  0
 75 76  1  0  0  0
 75 86  1  0  0  0
 76 84  1  0  0  0
 77 78  1  0  0  0
 77 79  1  0  0  0
 77150  1  0  0  0
 77151  1  0  0  0
 78 81  1  0  0  0
 78152  1  0  0  0
 78153  1  0  0  0
 79 88  1  0  0  0
 79154  1  0  0  0
 79155  1  0  0  0
 80 81  1  0  0  0
 80 88  1  0  0  0
 80156  1  0  0  0
 80157  1  0  0  0
 81158  1  0  0  0
 82159  1  0  0  0
 82160  1  0  0  0
 82161  1  0  0  0
 83 84  1  0  0  0
 83162  1  0  0  0
 83163  1  0  0  0
 83164  1  0  0  0
 84165  1  0  0  0
 84166  1  0  0  0
 85 87  1  0  0  0
 85167  1  0  0  0
 85168  1  0  0  0
 86169  1  0  0  0
 86170  1  0  0  0
 86 88  1  0  0  0
 87171  1  0  0  0
 88172  1  0  0  0
M  CHG  1  88   1
M  ISO  4   1 100  68 101  81 101  87 100
M  END
> <chiral flag>
0

> <version>
0

> <s_m_source_file>
/data/baiqing/PycharmProjects/Reinvent-master-3.2/result/LINK_invent/BTK/process_docking_weight1_custom_product_contain_oxygen_bond_distance_aromatic_linkinvent_7_9_3/rearranged_h_0034.sdf

> <i_m_source_file_index>
42

> <r_mmod_Potential_Energy-OPLS-2005>
13989.0166015625

> <r_mmod_Stretch_Energy-OPLS-2005>
6492.31298828125

> <r_mmod_Bend_Energy-OPLS-2005>
1392.46862792969

> <r_mmod_Torsional_Energy-OPLS-2005>
598.873046875

> <r_mmod_Improper_Torsional_Energy-OPLS-2005>
57.3776397705078

> <r_mmod_Van_der_Waal_Energy-OPLS-2005>
2311.13720703125

> <r_mmod_Electrostatic_Energy-OPLS-2005>
-325.714202880859

> <r_mmod_Solvation_Energy-OPLS-2005>
-403.600311279297

> <b_mmod_Minimization_Converged-OPLS-2005>
0

> <r_mmod_RMS_Derivative-OPLS-2005>
24.2299480438232

$$$$
42
                    3D
 Structure written by MMmdl.
159168  0  0  1  0            999 V2000
  -30.6411  -14.6592   20.4901 C   0  0  0  0  0  0
  -30.4272  -12.4084   19.4506 C   0  0  0  0  0  0
  -29.5009  -12.4994   18.2198 C   0  0  0  0  0  0
  -28.0256  -12.3378   18.6363 C   0  0  0  0  0  0
  -27.6441  -13.2244   19.8525 C   0  0  2  0  0  0
  -28.6902  -13.1195   20.9825 C   0  0  0  0  0  0
  -25.2524  -13.8188   20.5694 C   0  0  0  0  0  0
  -24.1806  -13.0440   20.9203 C   0  0  0  0  0  0
  -24.6389  -11.6915   20.8745 C   0  0  0  0  0  0
  -23.9065  -10.4294   21.0407 C   0  0  0  0  0  0
  -24.3618   -9.4209   21.9184 C   0  0  0  0  0  0
  -23.6294   -8.2243   22.0755 C   0  0  0  0  0  0
  -22.4276   -8.0281   21.3545 C   0  0  0  0  0  0
  -21.9911   -9.0255   20.4647 C   0  0  0  0  0  0
  -22.7239  -10.2134   20.3055 C   0  0  0  0  0  0
  -21.6853   -6.0736   22.5279 C   0  0  0  0  0  0
  -21.4013   -6.5640   23.8212 C   0  0  0  0  0  0
  -21.3659   -5.6792   24.9175 C   0  0  0  0  0  0
  -21.6044   -4.3055   24.7224 C   0  0  0  0  0  0
  -21.8820   -3.8147   23.4346 C   0  0  0  0  0  0
  -21.9193   -4.6963   22.3402 C   0  0  0  0  0  0
  -22.7829  -13.5226   21.1864 C   0  0  0  0  0  0
  -22.1662   -4.2150   21.0979 F   0  0  0  0  0  0
  -21.5629   -3.4538   25.7736 F   0  0  0  0  0  0
  -29.9953  -13.4539   20.3999 N   0  0  0  0  0  0
  -26.2946  -12.9383   20.3290 N   0  0  0  0  0  0
  -25.9315  -11.6530   20.5752 N   0  0  0  0  0  0
  -22.0476  -12.8212   22.0418 N   0  0  0  0  0  0
  -25.4218  -15.1911   20.4123 N   0  0  0  0  0  0
  -31.8280  -14.7613   20.1704 O   0  0  0  0  0  0
  -21.6641   -6.8878   21.4242 O   0  0  0  0  0  0
  -22.3512  -14.5533   20.6716 O   0  0  0  0  0  0
  -24.6264  -31.8575   23.1989 C   0  0  0  0  0  0
  -25.9109  -32.4761   23.8322 C   0  0  1  0  0  0
  -27.2312  -27.3146   20.1054 C   0  0  0  0  0  0
  -25.5926  -33.8563   24.2254 N   0  0  0  0  0  0
  -23.4191  -30.4793   21.5421 C   0  0  2  0  0  0
  -24.8627  -28.9251   20.1120 C   0  0  0  0  0  0
  -22.7468  -29.4615   22.4937 C   0  0  0  0  0  0
  -18.0285  -28.1384   22.8487 C   0  0  0  0  0  0
  -24.1487  -36.7280   23.2638 C   0  0  0  0  0  0
  -25.9586  -30.7879   21.3654 C   0  0  0  0  0  0
  -26.0310  -29.4138   20.7069 C   0  0  0  0  0  0
  -27.2138  -28.6201   20.6895 C   0  0  0  0  0  0
  -26.0250  -26.8541   19.5361 C   0  0  0  0  0  0
  -24.8606  -27.6499   19.5214 C   0  0  0  0  0  0
  -23.6313  -29.8070   20.1592 C   0  0  0  0  0  0
  -25.4113  -36.3072   24.0327 C   0  0  1  0  0  0
  -20.5885  -28.3684   23.1290 C   0  0  2  0  0  0
  -20.6771  -26.9406   22.5419 C   0  0  0  0  0  0
  -19.5751  -26.6384   21.5215 C   0  0  0  0  0  0
  -18.1928  -26.7931   22.1619 C   0  0  0  0  0  0
  -19.1538  -28.8851   23.2885 C   0  0  0  0  0  0
  -18.9461  -30.1454   23.8898 C   0  0  0  0  0  0
  -17.6462  -30.6586   24.0566 C   0  0  0  0  0  0
  -25.9054  -34.9444   23.5093 C   0  0  0  0  0  0
  -16.5352  -29.9086   23.6331 C   0  0  0  0  0  0
  -16.7273  -28.6505   23.0348 C   0  0  0  0  0  0
  -26.4490  -31.6581   25.0703 C   0  0  0  0  0  0
  -25.3721  -31.3735   26.1433 C   0  0  0  0  0  0
  -27.0322  -30.3000   24.6160 C   0  0  0  0  0  0
  -27.6051  -32.4312   25.7476 C   0  0  0  0  0  0
  -27.5582  -37.1790   24.8461 C   0  0  0  0  0  0
  -21.4183  -29.3034   22.3681 N   0  0  0  0  0  0
  -26.4284  -37.3774   23.9419 N   0  0  0  0  0  0
  -24.6872  -31.0587   22.0927 N   0  0  0  0  0  0
  -23.4195  -28.8165   23.3026 O   0  0  0  0  0  0
  -28.3987  -26.5377   20.1556 O   0  0  0  0  0  0
  -26.5625  -34.8920   22.4661 O   0  0  0  0  0  0
  -23.5430  -32.1369   23.7327 O   0  0  0  0  0  0
  -30.6344  -19.2866   19.6979 C   0  0  0  0  0  0
  -28.3660  -20.5306   20.7406 C   0  0  0  0  0  0
  -29.8494  -18.5152   20.5901 C   0  0  0  0  0  0
  -29.1630  -21.3056   19.8509 C   0  0  0  0  0  0
  -30.3183  -20.6297   19.3446 C   0  0  0  0  0  0
  -28.6940  -19.1793   21.1019 C   0  0  0  0  0  0
  -28.9738  -23.9727   17.3175 C   0  0  0  0  0  0
  -28.3835  -25.2263   17.9839 C   0  0  0  0  0  0
  -28.4518  -22.6831   17.9736 C   0  0  0  0  0  0
  -28.2940  -23.8066   20.1810 C   0  0  0  0  0  0
  -28.6455  -25.2238   19.5082 C   0  0  2  0  0  0
  -30.4197  -17.1439   21.1380 C   0  0  0  0  0  0
  -28.8148  -22.6358   19.3915 N   0  0  0  0  0  0
  -29.8935  -15.7767   20.7771 N   0  0  0  0  0  0
  -31.4319  -21.4448   18.2988 Cl  0  0  0  0  0  0
  -27.6716  -18.3565   22.2248 Cl  0  0  0  0  0  0
  -31.4688  -12.5263   19.1465 H   0  0  0  0  0  0
  -30.3603  -11.4231   19.9144 H   0  0  0  0  0  0
  -29.7686  -11.7357   17.4883 H   0  0  0  0  0  0
  -29.6400  -13.4611   17.7232 H   0  0  0  0  0  0
  -27.8679  -11.2871   18.8821 H   0  0  0  0  0  0
  -27.3691  -12.5525   17.7923 H   0  0  0  0  0  0
  -27.6506  -14.2531   19.4919 H   0  0  0  0  0  0
  -28.7096  -12.1124   21.4014 H   0  0  0  0  0  0
  -28.4389  -13.7869   21.8084 H   0  0  0  0  0  0
  -25.2763   -9.5685   22.4759 H   0  0  0  0  0  0
  -24.0003   -7.4634   22.7472 H   0  0  0  0  0  0
  -21.0843   -8.8772   19.8951 H   0  0  0  0  0  0
  -22.3698  -10.9672   19.6164 H   0  0  0  0  0  0
  -21.2005   -7.6148   23.9716 H   0  0  0  0  0  0
  -21.1480   -6.0522   25.9077 H   0  0  0  0  0  0
  -22.0600   -2.7609   23.2845 H   0  0  0  0  0  0
  -22.4094  -11.9871   22.4798 H   0  0  0  0  0  0
  -21.1092  -13.1233   22.2624 H   0  0  0  0  0  0
  -24.6571  -15.8447   20.5394 H   0  0  0  0  0  0
  -26.2722  -15.6376   20.0954 H   0  0  0  0  0  0
  -26.7176  -32.5420   23.1066 H   0  0  0  0  0  0
  -25.0083  -33.9702   25.0406 H   0  0  0  0  0  0
  -22.7136  -31.2999   21.3968 H   0  0  0  0  0  0
  -23.3756  -35.9604   23.3291 H   0  0  0  0  0  0
  -24.3580  -36.8908   22.2054 H   0  0  0  0  0  0
  -23.7228  -37.6474   23.6666 H   0  0  0  0  0  0
  -26.0892  -31.5517   20.5978 H   0  0  0  0  0  0
  -26.8392  -30.8358   21.9946 H   0  0  0  0  0  0
  -28.1162  -28.9978   21.1497 H   0  0  0  0  0  0
  -25.9428  -25.8561   19.1398 H   0  0  0  0  0  0
  -23.9548  -27.2572   19.0802 H   0  0  0  0  0  0
  -23.7502  -30.5797   19.3988 H   0  0  0  0  0  0
  -22.7504  -29.2356   19.8609 H   0  0  0  0  0  0
  -25.1294  -36.1913   25.0818 H   0  0  0  0  0  0
  -20.9979  -28.3257   24.1410 H   0  0  0  0  0  0
  -20.5659  -26.2295   23.3618 H   0  0  0  0  0  0
  -21.6642  -26.7427   22.1222 H   0  0  0  0  0  0
  -19.6915  -25.6298   21.1239 H   0  0  0  0  0  0
  -19.6696  -27.3199   20.6750 H   0  0  0  0  0  0
  -17.4205  -26.6686   21.4014 H   0  0  0  0  0  0
  -18.0318  -26.0068   22.9007 H   0  0  0  0  0  0
  -19.7938  -30.7271   24.2263 H   0  0  0  0  0  0
  -17.5017  -31.6266   24.5170 H   0  0  0  0  0  0
  -15.5353  -30.2988   23.7659 H   0  0  0  0  0  0
  -15.8673  -28.0830   22.7056 H   0  0  0  0  0  0
  -24.5932  -30.7028   25.7787 H   0  0  0  0  0  0
  -24.8864  -32.2900   26.4793 H   0  0  0  0  0  0
  -25.8051  -30.8988   27.0245 H   0  0  0  0  0  0
  -26.2891  -29.6759   24.1184 H   0  0  0  0  0  0
  -27.4014  -29.7253   25.4666 H   0  0  0  0  0  0
  -27.8763  -30.4280   23.9379 H   0  0  0  0  0  0
  -27.2676  -33.3635   26.2016 H   0  0  0  0  0  0
  -28.3885  -32.6826   25.0314 H   0  0  0  0  0  0
  -28.0686  -31.8451   26.5422 H   0  0  0  0  0  0
  -28.2585  -38.0102   24.7530 H   0  0  0  0  0  0
  -28.1089  -36.2634   24.6249 H   0  0  0  0  0  0
  -27.2308  -37.1393   25.8865 H   0  0  0  0  0  0
  -20.9361  -29.8749   21.6885 H   0  0  0  0  0  0
  -26.0160  -38.2841   24.1444 H   0  0  0  0  0  0
  -31.5467  -18.8613   19.3060 H   0  0  0  0  0  0
  -27.4709  -20.9705   21.1536 H   0  0  0  0  0  0
  -30.0631  -24.0009   17.3702 H   0  0  0  0  0  0
  -28.7212  -23.9713   16.2565 H   0  0  0  0  0  0
  -27.3243  -25.2518   17.7477 H   0  0  0  0  0  0
  -28.8207  -26.1184   17.5346 H   0  0  0  0  0  0
  -28.8325  -21.8179   17.4283 H   0  0  0  0  0  0
  -27.3651  -22.6347   17.8831 H   0  0  0  0  0  0
  -27.2129  -23.7100   20.2872 H   0  0  0  0  0  0
  -28.7085  -23.7683   21.1891 H   0  0  0  0  0  0
  -29.7351  -25.2209   19.5647 H   0  0  0  0  0  0
  -30.3562  -17.2039   22.2252 H   0  0  0  0  0  0
  -31.4933  -17.1568   20.9443 H   0  0  0  0  0  0
  -28.9107  -15.6213   20.9391 H   0  0  0  0  0  0
  1 25  1  0  0  0
  1 30  2  0  0  0
  1 84  1  0  0  0
  2  3  1  0  0  0
  2 25  1  0  0  0
  2 87  1  0  0  0
  2 88  1  0  0  0
  3  4  1  0  0  0
  3 89  1  0  0  0
  3 90  1  0  0  0
  4  5  1  0  0  0
  4 91  1  0  0  0
  4 92  1  0  0  0
  5  6  1  0  0  0
  5 26  1  0  0  0
  5 93  1  0  0  0
  6 25  1  0  0  0
  6 94  1  0  0  0
  6 95  1  0  0  0
  7  8  2  0  0  0
  7 26  1  0  0  0
  7 29  1  0  0  0
  8  9  1  0  0  0
  8 22  1  0  0  0
  9 10  1  0  0  0
  9 27  2  0  0  0
 10 11  2  0  0  0
 10 15  1  0  0  0
 11 12  1  0  0  0
 11 96  1  0  0  0
 12 13  2  0  0  0
 12 97  1  0  0  0
 13 14  1  0  0  0
 13 31  1  0  0  0
 14 15  2  0  0  0
 14 98  1  0  0  0
 15 99  1  0  0  0
 16 17  2  0  0  0
 16 21  1  0  0  0
 16 31  1  0  0  0
 17 18  1  0  0  0
 17100  1  0  0  0
 18 19  2  0  0  0
 18101  1  0  0  0
 19 20  1  0  0  0
 19 24  1  0  0  0
 20 21  2  0  0  0
 20102  1  0  0  0
 21 23  1  0  0  0
 22 28  1  0  0  0
 22 32  2  0  0  0
 26 27  1  0  0  0
 28103  1  0  0  0
 28104  1  0  0  0
 29105  1  0  0  0
 29106  1  0  0  0
 33 34  1  0  0  0
 33 66  1  0  0  0
 33 70  2  0  0  0
 34 36  1  0  0  0
 34 59  1  0  0  0
 34107  1  0  0  0
 35 44  2  0  0  0
 35 45  1  0  0  0
 35 68  1  0  0  0
 36 56  1  0  0  0
 36108  1  0  0  0
 37 39  1  0  0  0
 37 47  1  0  0  0
 37 66  1  0  0  0
 37109  1  0  0  0
 38 43  2  0  0  0
 38 46  1  0  0  0
 38 47  1  0  0  0
 39 64  1  0  0  0
 39 67  2  0  0  0
 40 52  1  0  0  0
 40 53  2  0  0  0
 40 58  1  0  0  0
 41110  1  0  0  0
 41111  1  0  0  0
 41112  1  0  0  0
 41 48  1  0  0  0
 42 43  1  0  0  0
 42 66  1  0  0  0
 42113  1  0  0  0
 42114  1  0  0  0
 43 44  1  0  0  0
 44115  1  0  0  0
 45 46  2  0  0  0
 45116  1  0  0  0
 46117  1  0  0  0
 47118  1  0  0  0
 47119  1  0  0  0
 48 56  1  0  0  0
 48 65  1  0  0  0
 48120  1  0  0  0
 49 50  1  0  0  0
 49 53  1  0  0  0
 49 64  1  0  0  0
 49121  1  0  0  0
 50 51  1  0  0  0
 50122  1  0  0  0
 50123  1  0  0  0
 51 52  1  0  0  0
 51124  1  0  0  0
 51125  1  0  0  0
 52126  1  0  0  0
 52127  1  0  0  0
 53 54  1  0  0  0
 54 55  2  0  0  0
 54128  1  0  0  0
 55 57  1  0  0  0
 55129  1  0  0  0
 56 69  2  0  0  0
 57 58  2  0  0  0
 57130  1  0  0  0
 58131  1  0  0  0
 59 60  1  0  0  0
 59 61  1  0  0  0
 59 62  1  0  0  0
 60132  1  0  0  0
 60133  1  0  0  0
 60134  1  0  0  0
 61135  1  0  0  0
 61136  1  0  0  0
 61137  1  0  0  0
 62138  1  0  0  0
 62139  1  0  0  0
 62140  1  0  0  0
 63 65  1  0  0  0
 63141  1  0  0  0
 63142  1  0  0  0
 63143  1  0  0  0
 64144  1  0  0  0
 65145  1  0  0  0
 68 81  1  0  0  0
 71 73  2  0  0  0
 71 75  1  0  0  0
 71146  1  0  0  0
 72 74  1  0  0  0
 72 76  2  0  0  0
 72147  1  0  0  0
 73 76  1  0  0  0
 73 82  1  0  0  0
 74 75  2  0  0  0
 74 83  1  0  0  0
 75 85  1  0  0  0
 76 86  1  0  0  0
 77 78  1  0  0  0
 77 79  1  0  0  0
 77148  1  0  0  0
 77149  1  0  0  0
 78 81  1  0  0  0
 78150  1  0  0  0
 78151  1  0  0  0
 79 83  1  0  0  0
 79152  1  0  0  0
 79153  1  0  0  0
 80 81  1  0  0  0
 80 83  1  0  0  0
 80154  1  0  0  0
 80155  1  0  0  0
 81156  1  0  0  0
 82 84  1  0  0  0
 82157  1  0  0  0
 82158  1  0  0  0
 84159  1  0  0  0
M  ISO  4   1 100  68 101  81 101  84 100
M  END
> <chiral flag>
0

> <version>
0

> <s_m_source_file>
/data/baiqing/PycharmProjects/Reinvent-master-3.2/result/LINK_invent/BTK/process_docking_weight1_custom_product_contain_oxygen_bond_distance_aromatic_linkinvent_7_9_3/rearranged_h_0034.sdf

> <i_m_source_file_index>
43

> <r_mmod_Potential_Energy-OPLS-2005>
156.634918212891

> <r_mmod_Stretch_Energy-OPLS-2005>
88.5060119628906

> <r_mmod_Bend_Energy-OPLS-2005>
198.271026611328

> <r_mmod_Torsional_Energy-OPLS-2005>
243.729278564453

> <r_mmod_Improper_Torsional_Energy-OPLS-2005>
7.14806747436523

> <r_mmod_Van_der_Waal_Energy-OPLS-2005>
142.007080078125

> <r_mmod_Electrostatic_Energy-OPLS-2005>
-362.933746337891

> <r_mmod_Solvation_Energy-OPLS-2005>
-211.773788452148

> <b_mmod_Minimization_Converged-OPLS-2005>
0

> <r_mmod_RMS_Derivative-OPLS-2005>
0.38298311829567

$$$$
43
                    3D
 Structure written by MMmdl.
164173  0  0  1  0            999 V2000
  -30.6228  -14.7364   20.4755 C   0  0  0  0  0  0
  -30.4410  -12.4516   19.4707 C   0  0  0  0  0  0
  -29.5183  -12.5008   18.2338 C   0  0  0  0  0  0
  -28.0418  -12.3286   18.6483 C   0  0  0  0  0  0
  -27.6449  -13.2295   19.8478 C   0  0  2  0  0  0
  -28.6911  -13.1615   20.9807 C   0  0  0  0  0  0
  -25.2542  -13.8186   20.5711 C   0  0  0  0  0  0
  -24.1814  -13.0450   20.9206 C   0  0  0  0  0  0
  -24.6390  -11.6926   20.8732 C   0  0  0  0  0  0
  -23.9071  -10.4290   21.0393 C   0  0  0  0  0  0
  -24.3623   -9.4212   21.9173 C   0  0  0  0  0  0
  -23.6290   -8.2255   22.0759 C   0  0  0  0  0  0
  -22.4269   -8.0293   21.3558 C   0  0  0  0  0  0
  -21.9903   -9.0269   20.4660 C   0  0  0  0  0  0
  -22.7242  -10.2135   20.3044 C   0  0  0  0  0  0
  -21.6855   -6.0740   22.5275 C   0  0  0  0  0  0
  -21.4009   -6.5634   23.8216 C   0  0  0  0  0  0
  -21.3651   -5.6780   24.9170 C   0  0  0  0  0  0
  -21.6034   -4.3043   24.7211 C   0  0  0  0  0  0
  -21.8819   -3.8151   23.4342 C   0  0  0  0  0  0
  -21.9200   -4.6971   22.3402 C   0  0  0  0  0  0
  -22.7832  -13.5263   21.1851 C   0  0  0  0  0  0
  -22.1665   -4.2160   21.0980 F   0  0  0  0  0  0
  -21.5627   -3.4523   25.7728 F   0  0  0  0  0  0
  -29.9909  -13.5154   20.3947 N   0  0  0  0  0  0
  -26.2952  -12.9397   20.3256 N   0  0  0  0  0  0
  -25.9317  -11.6538   20.5700 N   0  0  0  0  0  0
  -22.0464  -12.8252   22.0392 N   0  0  0  0  0  0
  -25.4249  -15.1915   20.4179 N   0  0  0  0  0  0
  -31.8096  -14.8324   20.1539 O   0  0  0  0  0  0
  -21.6641   -6.8888   21.4247 O   0  0  0  0  0  0
  -22.3528  -14.5582   20.6712 O   0  0  0  0  0  0
  -24.6295  -31.8538   23.1981 C   0  0  0  0  0  0
  -25.9118  -32.4754   23.8322 C   0  0  1  0  0  0
  -27.2315  -27.2655   20.1424 C   0  0  0  0  0  0
  -25.5904  -33.8549   24.2247 N   0  0  0  0  0  0
  -23.4269  -30.4740   21.5376 C   0  0  2  0  0  0
  -24.8765  -28.9157   20.1122 C   0  0  0  0  0  0
  -22.7489  -29.4581   22.4894 C   0  0  0  0  0  0
  -18.0266  -28.1431   22.8502 C   0  0  0  0  0  0
  -24.1443  -36.7243   23.2636 C   0  0  0  0  0  0
  -25.9700  -30.7717   21.3728 C   0  0  0  0  0  0
  -26.0425  -29.3923   20.7191 C   0  0  0  0  0  0
  -27.2190  -28.5799   20.7205 C   0  0  0  0  0  0
  -26.0355  -26.8445   19.5197 C   0  0  0  0  0  0
  -24.8772  -27.6509   19.5012 C   0  0  0  0  0  0
  -23.6462  -29.8016   20.1540 C   0  0  0  0  0  0
  -25.4073  -36.3060   24.0329 C   0  0  1  0  0  0
  -20.5874  -28.3712   23.1286 C   0  0  2  0  0  0
  -20.6720  -26.9423   22.5434 C   0  0  0  0  0  0
  -19.5694  -26.6420   21.5223 C   0  0  0  0  0  0
  -18.1880  -26.7975   22.1635 C   0  0  0  0  0  0
  -19.1529  -28.8880   23.2889 C   0  0  0  0  0  0
  -18.9463  -30.1485   23.8913 C   0  0  0  0  0  0
  -17.6472  -30.6633   24.0578 C   0  0  0  0  0  0
  -25.9040  -34.9443   23.5089 C   0  0  0  0  0  0
  -16.5361  -29.9143   23.6352 C   0  0  0  0  0  0
  -16.7259  -28.6557   23.0379 C   0  0  0  0  0  0
  -26.4483  -31.6601   25.0729 C   0  0  0  0  0  0
  -25.3718  -31.3804   26.1476 C   0  0  0  0  0  0
  -27.0304  -30.3002   24.6230 C   0  0  0  0  0  0
  -27.6027  -32.4346   25.7505 C   0  0  0  0  0  0
  -27.5562  -37.1740   24.8444 C   0  0  0  0  0  0
  -21.4189  -29.3060   22.3674 N   0  0  0  0  0  0
  -26.4230  -37.3791   23.9458 N   0  0  0  0  0  0
  -24.6931  -31.0522   22.0932 N   0  0  0  0  0  0
  -23.4198  -28.8111   23.2980 O   0  0  0  0  0  0
  -28.3697  -26.4327   20.2448 O   0  0  0  0  0  0
  -26.5641  -34.8920   22.4683 O   0  0  0  0  0  0
  -23.5449  -32.1341   23.7293 O   0  0  0  0  0  0
  -29.4507  -18.4344   20.4984 C   0  0  0  0  0  0
  -31.1623  -18.8607   22.6292 C   0  0  0  0  0  0
  -29.5851  -19.8043   20.9945 C   0  0  0  0  0  0
  -31.0435  -17.5485   22.1227 C   0  0  0  0  0  0
  -30.1486  -17.2732   21.0491 C   0  0  0  0  0  0
  -30.4238  -19.9480   22.1272 C   0  0  0  0  0  0
  -30.5204  -22.7220   19.5234 C   0  0  0  0  0  0
  -31.7424  -22.2066   19.7360 C   0  0  0  0  0  0
  -30.1800  -23.6890   18.4062 C   0  0  0  0  0  0
  -29.8313  -25.0655   18.9788 C   0  0  0  0  0  0
  -28.4796  -23.7480   20.7308 C   0  0  0  0  0  0
  -28.4987  -25.0261   19.7296 C   0  0  1  0  0  0
  -31.8305  -16.4614   22.8465 C   0  0  0  0  0  0
  -28.7636  -21.0769   20.4508 C   0  0  0  0  0  0
  -29.8378  -15.8663   20.6681 N   0  0  0  0  0  0
  -29.3738  -22.5014   20.4673 N   0  3  2  0  0  0
  -30.5382  -21.4410   22.9918 Cl  0  0  0  0  0  0
  -31.4823  -12.5746   19.1665 H   0  0  0  0  0  0
  -30.3911  -11.4776   19.9581 H   0  0  0  0  0  0
  -29.8051  -11.7274   17.5196 H   0  0  0  0  0  0
  -29.6493  -13.4559   17.7220 H   0  0  0  0  0  0
  -27.8936  -11.2816   18.9159 H   0  0  0  0  0  0
  -27.3928  -12.5297   17.7951 H   0  0  0  0  0  0
  -27.6420  -14.2495   19.4640 H   0  0  0  0  0  0
  -28.7250  -12.1619   21.4153 H   0  0  0  0  0  0
  -28.4253  -13.8387   21.7941 H   0  0  0  0  0  0
  -25.2763   -9.5695   22.4758 H   0  0  0  0  0  0
  -24.0006   -7.4633   22.7460 H   0  0  0  0  0  0
  -21.0847   -8.8787   19.8950 H   0  0  0  0  0  0
  -22.3712  -10.9675   19.6145 H   0  0  0  0  0  0
  -21.1994   -7.6133   23.9722 H   0  0  0  0  0  0
  -21.1466   -6.0498   25.9070 H   0  0  0  0  0  0
  -22.0614   -2.7619   23.2827 H   0  0  0  0  0  0
  -22.4055  -11.9902   22.4779 H   0  0  0  0  0  0
  -21.1080  -13.1284   22.2600 H   0  0  0  0  0  0
  -24.6671  -15.8511   20.5473 H   0  0  0  0  0  0
  -26.2706  -15.6271   20.0774 H   0  0  0  0  0  0
  -26.7189  -32.5398   23.1064 H   0  0  0  0  0  0
  -24.9996  -33.9682   25.0352 H   0  0  0  0  0  0
  -22.7228  -31.2945   21.3862 H   0  0  0  0  0  0
  -23.3739  -35.9534   23.3253 H   0  0  0  0  0  0
  -24.3538  -36.8922   22.2062 H   0  0  0  0  0  0
  -23.7141  -37.6404   23.6685 H   0  0  0  0  0  0
  -26.1035  -31.5290   20.5990 H   0  0  0  0  0  0
  -26.8499  -30.8269   22.0021 H   0  0  0  0  0  0
  -28.1106  -28.9428   21.2106 H   0  0  0  0  0  0
  -25.9468  -25.8666   19.0733 H   0  0  0  0  0  0
  -23.9775  -27.2760   19.0330 H   0  0  0  0  0  0
  -23.7725  -30.5724   19.3923 H   0  0  0  0  0  0
  -22.7666  -29.2325   19.8495 H   0  0  0  0  0  0
  -25.1236  -36.1882   25.0818 H   0  0  0  0  0  0
  -20.9969  -28.3295   24.1401 H   0  0  0  0  0  0
  -20.5555  -26.2337   23.3651 H   0  0  0  0  0  0
  -21.6591  -26.7397   22.1260 H   0  0  0  0  0  0
  -19.6820  -25.6328   21.1255 H   0  0  0  0  0  0
  -19.6627  -27.3224   20.6742 H   0  0  0  0  0  0
  -17.4136  -26.6737   21.4048 H   0  0  0  0  0  0
  -18.0257  -26.0142   22.9049 H   0  0  0  0  0  0
  -19.7945  -30.7283   24.2297 H   0  0  0  0  0  0
  -17.5044  -31.6309   24.5190 H   0  0  0  0  0  0
  -15.5365  -30.3068   23.7676 H   0  0  0  0  0  0
  -15.8640  -28.0892   22.7115 H   0  0  0  0  0  0
  -24.5913  -30.7084   25.7894 H   0  0  0  0  0  0
  -24.8873  -32.2996   26.4783 H   0  0  0  0  0  0
  -25.8084  -30.9138   27.0316 H   0  0  0  0  0  0
  -26.2890  -29.6800   24.1188 H   0  0  0  0  0  0
  -27.3878  -29.7234   25.4768 H   0  0  0  0  0  0
  -27.8812  -30.4224   23.9523 H   0  0  0  0  0  0
  -27.2616  -33.3668   26.2004 H   0  0  0  0  0  0
  -28.3893  -32.6877   25.0390 H   0  0  0  0  0  0
  -28.0609  -31.8524   26.5507 H   0  0  0  0  0  0
  -28.2517  -38.0108   24.7649 H   0  0  0  0  0  0
  -28.1128  -36.2661   24.6050 H   0  0  0  0  0  0
  -27.2323  -37.1144   25.8854 H   0  0  0  0  0  0
  -20.9368  -29.8866   21.6958 H   0  0  0  0  0  0
  -26.0089  -38.2820   24.1630 H   0  0  0  0  0  0
  -28.7514  -18.2611   19.6930 H   0  0  0  0  0  0
  -31.8053  -19.0466   23.4793 H   0  0  0  0  0  0
  -32.5582  -22.4439   19.0685 H   0  0  0  0  0  0
  -31.9763  -21.5664   20.5728 H   0  0  0  0  0  0
  -29.3601  -23.2946   17.8044 H   0  0  0  0  0  0
  -31.0419  -23.7831   17.7446 H   0  0  0  0  0  0
  -29.7796  -25.8018   18.1774 H   0  0  0  0  0  0
  -30.6295  -25.4008   19.6441 H   0  0  0  0  0  0
  -27.4472  -23.4344   20.8876 H   0  0  0  0  0  0
  -28.8115  -24.1135   21.7017 H   0  0  0  0  0  0
  -27.7510  -24.8372   18.9632 H   0  0  0  0  0  0
  -32.2892  -16.8397   23.7614 H   0  0  0  0  0  0
  -32.6388  -16.0806   22.2225 H   0  0  0  0  0  0
  -31.1877  -15.6300   23.1344 H   0  0  0  0  0  0
  -27.8595  -21.1093   21.0604 H   0  0  0  0  0  0
  -28.4176  -20.8668   19.4383 H   0  0  0  0  0  0
  -28.8531  -15.6631   20.6025 H   0  0  0  0  0  0
  -29.8140  -22.4434   21.3762 H   0  0  0  0  0  0
  1 25  1  0  0  0
  1 30  2  0  0  0
  1 85  1  0  0  0
  2  3  1  0  0  0
  2 25  1  0  0  0
  2 88  1  0  0  0
  2 89  1  0  0  0
  3  4  1  0  0  0
  3 90  1  0  0  0
  3 91  1  0  0  0
  4  5  1  0  0  0
  4 92  1  0  0  0
  4 93  1  0  0  0
  5  6  1  0  0  0
  5 26  1  0  0  0
  5 94  1  0  0  0
  6 25  1  0  0  0
  6 95  1  0  0  0
  6 96  1  0  0  0
  7  8  2  0  0  0
  7 26  1  0  0  0
  7 29  1  0  0  0
  8  9  1  0  0  0
  8 22  1  0  0  0
  9 10  1  0  0  0
  9 27  2  0  0  0
 10 11  2  0  0  0
 10 15  1  0  0  0
 11 12  1  0  0  0
 11 97  1  0  0  0
 12 13  2  0  0  0
 12 98  1  0  0  0
 13 14  1  0  0  0
 13 31  1  0  0  0
 14 15  2  0  0  0
 14 99  1  0  0  0
 15100  1  0  0  0
 16 17  2  0  0  0
 16 21  1  0  0  0
 16 31  1  0  0  0
 17 18  1  0  0  0
 17101  1  0  0  0
 18 19  2  0  0  0
 18102  1  0  0  0
 19 20  1  0  0  0
 19 24  1  0  0  0
 20 21  2  0  0  0
 20103  1  0  0  0
 21 23  1  0  0  0
 22 28  1  0  0  0
 22 32  2  0  0  0
 26 27  1  0  0  0
 28104  1  0  0  0
 28105  1  0  0  0
 29106  1  0  0  0
 29107  1  0  0  0
 33 34  1  0  0  0
 33 66  1  0  0  0
 33 70  2  0  0  0
 34 36  1  0  0  0
 34 59  1  0  0  0
 34108  1  0  0  0
 35 44  2  0  0  0
 35 45  1  0  0  0
 35 68  1  0  0  0
 36 56  1  0  0  0
 36109  1  0  0  0
 37 39  1  0  0  0
 37 47  1  0  0  0
 37 66  1  0  0  0
 37110  1  0  0  0
 38 43  2  0  0  0
 38 46  1  0  0  0
 38 47  1  0  0  0
 39 64  1  0  0  0
 39 67  2  0  0  0
 40 52  1  0  0  0
 40 53  2  0  0  0
 40 58  1  0  0  0
 41111  1  0  0  0
 41112  1  0  0  0
 41113  1  0  0  0
 41 48  1  0  0  0
 42 43  1  0  0  0
 42 66  1  0  0  0
 42114  1  0  0  0
 42115  1  0  0  0
 43 44  1  0  0  0
 44116  1  0  0  0
 45 46  2  0  0  0
 45117  1  0  0  0
 46118  1  0  0  0
 47119  1  0  0  0
 47120  1  0  0  0
 48 56  1  0  0  0
 48 65  1  0  0  0
 48121  1  0  0  0
 49 50  1  0  0  0
 49 53  1  0  0  0
 49 64  1  0  0  0
 49122  1  0  0  0
 50 51  1  0  0  0
 50123  1  0  0  0
 50124  1  0  0  0
 51 52  1  0  0  0
 51125  1  0  0  0
 51126  1  0  0  0
 52127  1  0  0  0
 52128  1  0  0  0
 53 54  1  0  0  0
 54 55  2  0  0  0
 54129  1  0  0  0
 55 57  1  0  0  0
 55130  1  0  0  0
 56 69  2  0  0  0
 57 58  2  0  0  0
 57131  1  0  0  0
 58132  1  0  0  0
 59 60  1  0  0  0
 59 61  1  0  0  0
 59 62  1  0  0  0
 60133  1  0  0  0
 60134  1  0  0  0
 60135  1  0  0  0
 61136  1  0  0  0
 61137  1  0  0  0
 61138  1  0  0  0
 62139  1  0  0  0
 62140  1  0  0  0
 62141  1  0  0  0
 63 65  1  0  0  0
 63142  1  0  0  0
 63143  1  0  0  0
 63144  1  0  0  0
 64145  1  0  0  0
 65146  1  0  0  0
 68 82  1  0  0  0
 71 73  2  0  0  0
 71 75  1  0  0  0
 71147  1  0  0  0
 72 74  1  0  0  0
 72 76  2  0  0  0
 72148  1  0  0  0
 73 76  1  0  0  0
 73 84  1  0  0  0
 74 75  2  0  0  0
 74 83  1  0  0  0
 75 85  1  0  0  0
 76 87  1  0  0  0
 77 78  2  0  0  0
 77 79  1  0  0  0
 77 86  1  0  0  0
 78149  1  0  0  0
 78150  1  0  0  0
 79 80  1  0  0  0
 79151  1  0  0  0
 79152  1  0  0  0
 80 82  1  0  0  0
 80153  1  0  0  0
 80154  1  0  0  0
 81 82  1  0  0  0
 81 86  1  0  0  0
 81155  1  0  0  0
 81156  1  0  0  0
 82157  1  0  0  0
 83158  1  0  0  0
 83159  1  0  0  0
 83160  1  0  0  0
 84161  1  0  0  0
 84162  1  0  0  0
 84 86  1  0  0  0
 85163  1  0  0  0
 86164  1  0  0  0
M  CHG  1  86   1
M  ISO  4   1 100  68 101  82 101  85 100
M  END
> <chiral flag>
0

> <version>
0

> <s_m_source_file>
/data/baiqing/PycharmProjects/Reinvent-master-3.2/result/LINK_invent/BTK/process_docking_weight1_custom_product_contain_oxygen_bond_distance_aromatic_linkinvent_7_9_3/rearranged_h_0034.sdf

> <i_m_source_file_index>
44

> <r_mmod_Potential_Energy-OPLS-2005>
87.1096572875977

> <r_mmod_Stretch_Energy-OPLS-2005>
134.35481262207

> <r_mmod_Bend_Energy-OPLS-2005>
204.958602905273

> <r_mmod_Torsional_Energy-OPLS-2005>
260.702484130859

> <r_mmod_Improper_Torsional_Energy-OPLS-2005>
7.42851781845093

> <r_mmod_Van_der_Waal_Energy-OPLS-2005>
145.131973266602

> <r_mmod_Electrostatic_Energy-OPLS-2005>
-330.793273925781

> <r_mmod_Solvation_Energy-OPLS-2005>
-415.347625732422

> <b_mmod_Minimization_Converged-OPLS-2005>
0

> <r_mmod_RMS_Derivative-OPLS-2005>
3.34709453582764

$$$$
44
                    3D
 Structure written by MMmdl.
170179  0  0  1  0            999 V2000
  -30.5687  -14.6627   20.5465 C   0  0  0  0  0  0
  -30.4541  -12.4178   19.4582 C   0  0  0  0  0  0
  -29.5183  -12.5323   18.2334 C   0  0  0  0  0  0
  -28.0415  -12.3387   18.6335 C   0  0  0  0  0  0
  -27.6511  -13.1991   19.8671 C   0  0  2  0  0  0
  -28.6887  -13.0283   20.9952 C   0  0  0  0  0  0
  -25.2495  -13.8074   20.5614 C   0  0  0  0  0  0
  -24.1766  -13.0409   20.9161 C   0  0  0  0  0  0
  -24.6309  -11.6864   20.8730 C   0  0  0  0  0  0
  -23.8937  -10.4275   21.0410 C   0  0  0  0  0  0
  -24.3524   -9.4208   21.9201 C   0  0  0  0  0  0
  -23.6245   -8.2225   22.0758 C   0  0  0  0  0  0
  -22.4219   -8.0241   21.3562 C   0  0  0  0  0  0
  -21.9860   -9.0199   20.4642 C   0  0  0  0  0  0
  -22.7128  -10.2104   20.3057 C   0  0  0  0  0  0
  -21.6850   -6.0712   22.5289 C   0  0  0  0  0  0
  -21.4002   -6.5608   23.8219 C   0  0  0  0  0  0
  -21.3680   -5.6775   24.9191 C   0  0  0  0  0  0
  -21.6054   -4.3035   24.7242 C   0  0  0  0  0  0
  -21.8802   -3.8110   23.4363 C   0  0  0  0  0  0
  -21.9197   -4.6935   22.3412 C   0  0  0  0  0  0
  -22.7825  -13.5235   21.1907 C   0  0  0  0  0  0
  -22.1642   -4.2092   21.1005 F   0  0  0  0  0  0
  -21.5658   -3.4525   25.7771 F   0  0  0  0  0  0
  -30.0042  -13.4148   20.4511 N   0  0  0  0  0  0
  -26.2920  -12.9258   20.3261 N   0  0  0  0  0  0
  -25.9229  -11.6399   20.5723 N   0  0  0  0  0  0
  -22.0484  -12.8252   22.0474 N   0  0  0  0  0  0
  -25.4180  -15.1845   20.4066 N   0  0  0  0  0  0
  -31.7373  -14.8678   20.1938 O   0  0  0  0  0  0
  -21.6604   -6.8866   21.4257 O   0  0  0  0  0  0
  -22.3528  -14.5586   20.6773 O   0  0  0  0  0  0
  -24.6316  -31.8558   23.1993 C   0  0  0  0  0  0
  -25.9155  -32.4768   23.8365 C   0  0  1  0  0  0
  -27.2239  -27.3114   20.1233 C   0  0  0  0  0  0
  -25.5945  -33.8569   24.2295 N   0  0  0  0  0  0
  -23.4287  -30.4865   21.5340 C   0  0  2  0  0  0
  -24.8688  -28.9411   20.1109 C   0  0  0  0  0  0
  -22.7488  -29.4697   22.4838 C   0  0  0  0  0  0
  -18.0297  -28.1453   22.8348 C   0  0  0  0  0  0
  -24.1478  -36.7303   23.2649 C   0  0  0  0  0  0
  -25.9736  -30.7897   21.3681 C   0  0  0  0  0  0
  -26.0422  -29.4187   20.7073 C   0  0  0  0  0  0
  -27.2188  -28.6122   20.7129 C   0  0  0  0  0  0
  -26.0345  -26.9025   19.4754 C   0  0  0  0  0  0
  -24.8671  -27.6868   19.4853 C   0  0  0  0  0  0
  -23.6432  -29.8217   20.1514 C   0  0  0  0  0  0
  -25.4106  -36.3095   24.0342 C   0  0  1  0  0  0
  -20.5883  -28.3731   23.1102 C   0  0  2  0  0  0
  -20.6784  -26.9475   22.5278 C   0  0  0  0  0  0
  -19.5781  -26.6368   21.5064 C   0  0  0  0  0  0
  -18.1900  -26.8088   22.1315 C   0  0  0  0  0  0
  -19.1558  -28.8889   23.2754 C   0  0  0  0  0  0
  -18.9504  -30.1490   23.8777 C   0  0  0  0  0  0
  -17.6509  -30.6615   24.0507 C   0  0  0  0  0  0
  -25.9053  -34.9462   23.5146 C   0  0  0  0  0  0
  -16.5404  -29.9127   23.6354 C   0  0  0  0  0  0
  -16.7296  -28.6582   23.0280 C   0  0  0  0  0  0
  -26.4485  -31.6554   25.0743 C   0  0  0  0  0  0
  -25.3727  -31.3658   26.1479 C   0  0  0  0  0  0
  -27.0344  -30.2994   24.6173 C   0  0  0  0  0  0
  -27.6055  -32.4270   25.7528 C   0  0  0  0  0  0
  -27.5570  -37.1823   24.8478 C   0  0  0  0  0  0
  -21.4219  -29.2985   22.3420 N   0  0  0  0  0  0
  -26.4288  -37.3782   23.9406 N   0  0  0  0  0  0
  -24.6981  -31.0616   22.0907 N   0  0  0  0  0  0
  -23.4178  -28.8324   23.3065 O   0  0  0  0  0  0
  -28.3344  -26.4505   20.2000 O   0  0  0  0  0  0
  -26.5606  -34.8911   22.4698 O   0  0  0  0  0  0
  -23.5458  -32.1359   23.7281 O   0  0  0  0  0  0
  -30.3061  -19.2390   22.0684 C   0  0  0  0  0  0
  -29.7111  -20.0798   21.0928 C   0  0  0  0  0  0
  -29.1645  -19.4049   19.9550 C   0  0  0  0  0  0
  -29.1569  -17.9582   19.8758 C   0  0  0  0  0  0
  -29.8009  -17.1360   20.8603 C   0  0  0  0  0  0
  -30.3753  -17.8210   21.9638 C   0  0  0  0  0  0
  -27.4529  -22.9522   21.4681 C   0  0  0  0  0  0
  -26.5592  -22.0939   22.0257 C   0  0  0  0  0  0
  -27.2527  -24.4678   21.3431 C   0  0  0  0  0  0
  -29.2996  -23.9543   20.2762 C   0  0  0  0  0  0
  -28.1128  -24.9753   20.1759 C   0  0  2  0  0  0
  -28.5467  -20.2443   18.8318 C   0  0  0  0  0  0
  -28.3710  -17.2814   18.7518 C   0  0  0  0  0  0
  -26.6684  -20.5854   22.0925 C   0  0  0  0  0  0
  -25.2831  -22.5666   22.6956 C   0  0  0  0  0  0
  -29.7417  -21.6498   21.3622 C   0  0  0  0  0  0
  -29.6903  -15.6710   20.8712 N   0  0  0  0  0  0
  -28.7410  -22.6196   20.7369 N   0  3  1  0  0  0
  -31.1061  -16.9393   23.2678 Cl  0  0  0  0  0  0
  -31.4885  -12.5932   19.1557 H   0  0  0  0  0  0
  -30.4362  -11.4123   19.8812 H   0  0  0  0  0  0
  -29.7968  -11.8043   17.4704 H   0  0  0  0  0  0
  -29.6514  -13.5156   17.7736 H   0  0  0  0  0  0
  -27.8969  -11.2805   18.8572 H   0  0  0  0  0  0
  -27.3919  -12.5599   17.7838 H   0  0  0  0  0  0
  -27.6743  -14.2364   19.5400 H   0  0  0  0  0  0
  -28.7091  -11.9879   21.3234 H   0  0  0  0  0  0
  -28.4229  -13.6080   21.8810 H   0  0  0  0  0  0
  -25.2675   -9.5678   22.4754 H   0  0  0  0  0  0
  -23.9964   -7.4604   22.7451 H   0  0  0  0  0  0
  -21.0820   -8.8619   19.8935 H   0  0  0  0  0  0
  -22.3550  -10.9588   19.6103 H   0  0  0  0  0  0
  -21.1927   -7.6091   23.9698 H   0  0  0  0  0  0
  -21.1569   -6.0516   25.9103 H   0  0  0  0  0  0
  -22.0575   -2.7550   23.2880 H   0  0  0  0  0  0
  -22.4048  -11.9923   22.4929 H   0  0  0  0  0  0
  -21.1068  -13.1310   22.2613 H   0  0  0  0  0  0
  -24.6390  -15.8261   20.5051 H   0  0  0  0  0  0
  -26.2696  -15.6390   20.1045 H   0  0  0  0  0  0
  -26.7270  -32.5401   23.1141 H   0  0  0  0  0  0
  -25.0119  -33.9689   25.0462 H   0  0  0  0  0  0
  -22.7245  -31.3086   21.3853 H   0  0  0  0  0  0
  -23.3732  -35.9646   23.3343 H   0  0  0  0  0  0
  -24.3584  -36.8872   22.2061 H   0  0  0  0  0  0
  -23.7228  -37.6521   23.6633 H   0  0  0  0  0  0
  -26.1207  -31.5539   20.6045 H   0  0  0  0  0  0
  -26.8554  -30.8369   21.9964 H   0  0  0  0  0  0
  -28.1079  -28.9599   21.2159 H   0  0  0  0  0  0
  -25.9670  -25.9582   18.9615 H   0  0  0  0  0  0
  -23.9767  -27.3190   19.0013 H   0  0  0  0  0  0
  -23.7600  -30.5910   19.3854 H   0  0  0  0  0  0
  -22.7645  -29.2458   19.8568 H   0  0  0  0  0  0
  -25.1284  -36.1979   25.0837 H   0  0  0  0  0  0
  -20.9894  -28.3359   24.1260 H   0  0  0  0  0  0
  -20.5685  -26.2366   23.3485 H   0  0  0  0  0  0
  -21.6646  -26.7511   22.1050 H   0  0  0  0  0  0
  -19.6890  -25.6288   21.0979 H   0  0  0  0  0  0
  -19.6825  -27.3105   20.6564 H   0  0  0  0  0  0
  -17.4334  -26.7370   21.3493 H   0  0  0  0  0  0
  -17.9936  -26.0001   22.8404 H   0  0  0  0  0  0
  -19.7911  -30.7404   24.2166 H   0  0  0  0  0  0
  -17.5122  -31.6320   24.5066 H   0  0  0  0  0  0
  -15.5413  -30.3089   23.7835 H   0  0  0  0  0  0
  -15.8682  -28.1020   22.6864 H   0  0  0  0  0  0
  -24.5897  -30.7001   25.7799 H   0  0  0  0  0  0
  -24.8912  -32.2796   26.4979 H   0  0  0  0  0  0
  -25.8068  -30.8786   27.0227 H   0  0  0  0  0  0
  -26.2918  -29.6736   24.1191 H   0  0  0  0  0  0
  -27.4065  -29.7244   25.4661 H   0  0  0  0  0  0
  -27.8777  -30.4306   23.9400 H   0  0  0  0  0  0
  -27.2681  -33.3556   26.2150 H   0  0  0  0  0  0
  -28.3857  -32.6840   25.0357 H   0  0  0  0  0  0
  -28.0746  -31.8363   26.5402 H   0  0  0  0  0  0
  -28.2659  -38.0066   24.7531 H   0  0  0  0  0  0
  -28.1015  -36.2615   24.6324 H   0  0  0  0  0  0
  -27.2315  -37.1517   25.8894 H   0  0  0  0  0  0
  -20.9499  -29.8343   21.6244 H   0  0  0  0  0  0
  -26.0195  -38.2885   24.1316 H   0  0  0  0  0  0
  -30.7330  -19.6910   22.9511 H   0  0  0  0  0  0
  -27.5568  -24.9267   22.2842 H   0  0  0  0  0  0
  -26.2023  -24.7111   21.1957 H   0  0  0  0  0  0
  -30.0334  -24.3269   20.9930 H   0  0  0  0  0  0
  -29.8262  -23.8353   19.3245 H   0  0  0  0  0  0
  -27.6255  -24.7188   19.2327 H   0  0  0  0  0  0
  -27.8034  -20.9580   19.1804 H   0  0  0  0  0  0
  -28.0157  -19.6750   18.0724 H   0  0  0  0  0  0
  -29.3430  -20.7898   18.3267 H   0  0  0  0  0  0
  -28.6197  -17.6867   17.7737 H   0  0  0  0  0  0
  -27.2995  -17.4094   18.9187 H   0  0  0  0  0  0
  -28.5660  -16.2153   18.6836 H   0  0  0  0  0  0
  -27.1613  -20.1655   21.2339 H   0  0  0  0  0  0
  -25.6722  -20.1428   22.0851 H   0  0  0  0  0  0
  -27.1628  -20.2697   23.0133 H   0  0  0  0  0  0
  -25.3186  -23.6105   22.9963 H   0  0  0  0  0  0
  -25.1270  -21.9865   23.6053 H   0  0  0  0  0  0
  -24.4204  -22.4118   22.0421 H   0  0  0  0  0  0
  -30.7453  -21.9595   21.0857 H   0  0  0  0  0  0
  -29.7154  -21.8096   22.4452 H   0  0  0  0  0  0
  -28.7737  -15.3224   21.1102 H   0  0  0  0  0  0
  -28.4814  -22.1480   19.8825 H   0  0  0  0  0  0
  1 25  1  0  0  0
  1 30  2  0  0  0
  1 87  1  0  0  0
  2  3  1  0  0  0
  2 25  1  0  0  0
  2 90  1  0  0  0
  2 91  1  0  0  0
  3  4  1  0  0  0
  3 92  1  0  0  0
  3 93  1  0  0  0
  4  5  1  0  0  0
  4 94  1  0  0  0
  4 95  1  0  0  0
  5  6  1  0  0  0
  5 26  1  0  0  0
  5 96  1  0  0  0
  6 25  1  0  0  0
  6 97  1  0  0  0
  6 98  1  0  0  0
  7  8  2  0  0  0
  7 26  1  0  0  0
  7 29  1  0  0  0
  8  9  1  0  0  0
  8 22  1  0  0  0
  9 10  1  0  0  0
  9 27  2  0  0  0
 10 11  2  0  0  0
 10 15  1  0  0  0
 11 12  1  0  0  0
 11 99  1  0  0  0
 12 13  2  0  0  0
 12100  1  0  0  0
 13 14  1  0  0  0
 13 31  1  0  0  0
 14 15  2  0  0  0
 14101  1  0  0  0
 15102  1  0  0  0
 16 17  2  0  0  0
 16 21  1  0  0  0
 16 31  1  0  0  0
 17 18  1  0  0  0
 17103  1  0  0  0
 18 19  2  0  0  0
 18104  1  0  0  0
 19 20  1  0  0  0
 19 24  1  0  0  0
 20 21  2  0  0  0
 20105  1  0  0  0
 21 23  1  0  0  0
 22 28  1  0  0  0
 22 32  2  0  0  0
 26 27  1  0  0  0
 28106  1  0  0  0
 28107  1  0  0  0
 29108  1  0  0  0
 29109  1  0  0  0
 33 34  1  0  0  0
 33 66  1  0  0  0
 33 70  2  0  0  0
 34 36  1  0  0  0
 34 59  1  0  0  0
 34110  1  0  0  0
 35 44  2  0  0  0
 35 45  1  0  0  0
 35 68  1  0  0  0
 36 56  1  0  0  0
 36111  1  0  0  0
 37 39  1  0  0  0
 37 47  1  0  0  0
 37 66  1  0  0  0
 37112  1  0  0  0
 38 43  2  0  0  0
 38 46  1  0  0  0
 38 47  1  0  0  0
 39 64  1  0  0  0
 39 67  2  0  0  0
 40 52  1  0  0  0
 40 53  2  0  0  0
 40 58  1  0  0  0
 41113  1  0  0  0
 41114  1  0  0  0
 41115  1  0  0  0
 41 48  1  0  0  0
 42 43  1  0  0  0
 42 66  1  0  0  0
 42116  1  0  0  0
 42117  1  0  0  0
 43 44  1  0  0  0
 44118  1  0  0  0
 45 46  2  0  0  0
 45119  1  0  0  0
 46120  1  0  0  0
 47121  1  0  0  0
 47122  1  0  0  0
 48 56  1  0  0  0
 48 65  1  0  0  0
 48123  1  0  0  0
 49 50  1  0  0  0
 49 53  1  0  0  0
 49 64  1  0  0  0
 49124  1  0  0  0
 50 51  1  0  0  0
 50125  1  0  0  0
 50126  1  0  0  0
 51 52  1  0  0  0
 51127  1  0  0  0
 51128  1  0  0  0
 52129  1  0  0  0
 52130  1  0  0  0
 53 54  1  0  0  0
 54 55  2  0  0  0
 54131  1  0  0  0
 55 57  1  0  0  0
 55132  1  0  0  0
 56 69  2  0  0  0
 57 58  2  0  0  0
 57133  1  0  0  0
 58134  1  0  0  0
 59 60  1  0  0  0
 59 61  1  0  0  0
 59 62  1  0  0  0
 60135  1  0  0  0
 60136  1  0  0  0
 60137  1  0  0  0
 61138  1  0  0  0
 61139  1  0  0  0
 61140  1  0  0  0
 62141  1  0  0  0
 62142  1  0  0  0
 62143  1  0  0  0
 63 65  1  0  0  0
 63144  1  0  0  0
 63145  1  0  0  0
 63146  1  0  0  0
 64147  1  0  0  0
 65148  1  0  0  0
 68 81  1  0  0  0
 71 72  2  0  0  0
 71 76  1  0  0  0
 71149  1  0  0  0
 72 73  1  0  0  0
 72 86  1  0  0  0
 73 74  2  0  0  0
 73 82  1  0  0  0
 74 75  1  0  0  0
 74 83  1  0  0  0
 75 76  2  0  0  0
 75 87  1  0  0  0
 76 89  1  0  0  0
 77 78  2  0  0  0
 77 79  1  0  0  0
 77 88  1  0  0  0
 78 84  1  0  0  0
 78 85  1  0  0  0
 79 81  1  0  0  0
 79150  1  0  0  0
 79151  1  0  0  0
 80 81  1  0  0  0
 80 88  1  0  0  0
 80152  1  0  0  0
 80153  1  0  0  0
 81154  1  0  0  0
 82155  1  0  0  0
 82156  1  0  0  0
 82157  1  0  0  0
 83158  1  0  0  0
 83159  1  0  0  0
 83160  1  0  0  0
 84161  1  0  0  0
 84162  1  0  0  0
 84163  1  0  0  0
 85164  1  0  0  0
 85165  1  0  0  0
 85166  1  0  0  0
 86167  1  0  0  0
 86168  1  0  0  0
 86 88  1  0  0  0
 87169  1  0  0  0
 88170  1  0  0  0
M  CHG  1  88   1
M  ISO  4   1 100  68 101  81 101  87 100
M  END
> <chiral flag>
0

> <version>
0

> <s_m_source_file>
/data/baiqing/PycharmProjects/Reinvent-master-3.2/result/LINK_invent/BTK/process_docking_weight1_custom_product_contain_oxygen_bond_distance_aromatic_linkinvent_7_9_3/rearranged_h_0034.sdf

> <i_m_source_file_index>
45

> <r_mmod_Potential_Energy-OPLS-2005>
8.65924739837646

> <r_mmod_Stretch_Energy-OPLS-2005>
94.9811630249023

> <r_mmod_Bend_Energy-OPLS-2005>
193.940719604492

> <r_mmod_Torsional_Energy-OPLS-2005>
271.557647705078

> <r_mmod_Improper_Torsional_Energy-OPLS-2005>
5.906090259552

> <r_mmod_Van_der_Waal_Energy-OPLS-2005>
149.540283203125

> <r_mmod_Electrostatic_Energy-OPLS-2005>
-329.966705322266

> <r_mmod_Solvation_Energy-OPLS-2005>
-436.239990234375

> <b_mmod_Minimization_Converged-OPLS-2005>
0

> <r_mmod_RMS_Derivative-OPLS-2005>
9.54217529296875

$$$$
45
                    3D
 Structure written by MMmdl.
170179  0  0  1  0            999 V2000
  -30.6382  -14.7265   20.4818 C   0  0  0  0  0  0
  -30.4295  -12.4482   19.4681 C   0  0  0  0  0  0
  -29.5077  -12.5136   18.2321 C   0  0  0  0  0  0
  -28.0351  -12.3387   18.6478 C   0  0  0  0  0  0
  -27.6444  -13.2333   19.8544 C   0  0  2  0  0  0
  -28.6913  -13.1631   20.9880 C   0  0  0  0  0  0
  -25.2522  -13.8199   20.5701 C   0  0  0  0  0  0
  -24.1814  -13.0442   20.9211 C   0  0  0  0  0  0
  -24.6400  -11.6922   20.8741 C   0  0  0  0  0  0
  -23.9081  -10.4298   21.0404 C   0  0  0  0  0  0
  -24.3621   -9.4214   21.9183 C   0  0  0  0  0  0
  -23.6293   -8.2248   22.0754 C   0  0  0  0  0  0
  -22.4280   -8.0278   21.3541 C   0  0  0  0  0  0
  -21.9922   -9.0257   20.4642 C   0  0  0  0  0  0
  -22.7250  -10.2138   20.3051 C   0  0  0  0  0  0
  -21.6857   -6.0737   22.5279 C   0  0  0  0  0  0
  -21.4017   -6.5641   23.8211 C   0  0  0  0  0  0
  -21.3662   -5.6793   24.9174 C   0  0  0  0  0  0
  -21.6044   -4.3055   24.7226 C   0  0  0  0  0  0
  -21.8819   -3.8150   23.4343 C   0  0  0  0  0  0
  -21.9194   -4.6965   22.3401 C   0  0  0  0  0  0
  -22.7832  -13.5223   21.1866 C   0  0  0  0  0  0
  -22.1662   -4.2148   21.0981 F   0  0  0  0  0  0
  -21.5629   -3.4539   25.7743 F   0  0  0  0  0  0
  -29.9922  -13.5119   20.4021 N   0  0  0  0  0  0
  -26.2957  -12.9406   20.3301 N   0  0  0  0  0  0
  -25.9336  -11.6547   20.5760 N   0  0  0  0  0  0
  -22.0474  -12.8202   22.0408 N   0  0  0  0  0  0
  -25.4194  -15.1923   20.4116 N   0  0  0  0  0  0
  -31.8122  -14.8073   20.1129 O   0  0  0  0  0  0
  -21.6642   -6.8874   21.4238 O   0  0  0  0  0  0
  -22.3518  -14.5530   20.6719 O   0  0  0  0  0  0
  -24.6330  -31.8541   23.1985 C   0  0  0  0  0  0
  -25.9164  -32.4729   23.8317 C   0  0  1  0  0  0
  -27.2164  -27.2409   20.1063 C   0  0  0  0  0  0
  -25.5960  -33.8528   24.2239 N   0  0  0  0  0  0
  -23.4281  -30.4780   21.5441 C   0  0  2  0  0  0
  -24.8713  -28.9285   20.1113 C   0  0  0  0  0  0
  -22.7509  -29.4584   22.4909 C   0  0  0  0  0  0
  -18.0284  -28.1346   22.8462 C   0  0  0  0  0  0
  -24.1492  -36.7273   23.2636 C   0  0  0  0  0  0
  -25.9784  -30.7606   21.3829 C   0  0  0  0  0  0
  -26.0464  -29.3843   20.7188 C   0  0  0  0  0  0
  -27.2155  -28.5544   20.7018 C   0  0  0  0  0  0
  -25.9998  -26.8547   19.5008 C   0  0  0  0  0  0
  -24.8555  -27.6725   19.4925 C   0  0  0  0  0  0
  -23.6443  -29.8171   20.1582 C   0  0  0  0  0  0
  -25.4116  -36.3038   24.0311 C   0  0  1  0  0  0
  -20.5883  -28.3673   23.1251 C   0  0  2  0  0  0
  -20.6763  -26.9386   22.5393 C   0  0  0  0  0  0
  -19.5748  -26.6351   21.5184 C   0  0  0  0  0  0
  -18.1931  -26.7889   22.1600 C   0  0  0  0  0  0
  -19.1534  -28.8829   23.2851 C   0  0  0  0  0  0
  -18.9461  -30.1425   23.8870 C   0  0  0  0  0  0
  -17.6466  -30.6555   24.0536 C   0  0  0  0  0  0
  -25.9066  -34.9417   23.5076 C   0  0  0  0  0  0
  -16.5353  -29.9044   23.6312 C   0  0  0  0  0  0
  -16.7275  -28.6461   23.0335 C   0  0  0  0  0  0
  -26.4525  -31.6556   25.0711 C   0  0  0  0  0  0
  -25.3736  -31.3706   26.1423 C   0  0  0  0  0  0
  -27.0384  -30.2963   24.6237 C   0  0  0  0  0  0
  -27.6060  -32.4320   25.7499 C   0  0  0  0  0  0
  -27.5577  -37.1791   24.8463 C   0  0  0  0  0  0
  -21.4213  -29.3022   22.3653 N   0  0  0  0  0  0
  -26.4287  -37.3742   23.9403 N   0  0  0  0  0  0
  -24.6990  -31.0493   22.0974 N   0  0  0  0  0  0
  -23.4209  -28.8103   23.2993 O   0  0  0  0  0  0
  -28.3615  -26.3979   20.1502 O   0  0  0  0  0  0
  -26.5631  -34.8902   22.4639 O   0  0  0  0  0  0
  -23.5478  -32.1377   23.7281 O   0  0  0  0  0  0
  -31.6798  -18.9923   22.0759 C   0  0  0  0  0  0
  -30.8566  -20.0563   21.6550 C   0  0  0  0  0  0
  -31.3975  -17.6393   21.7906 C   0  0  0  0  0  0
  -29.7196  -19.8073   20.8413 C   0  0  0  0  0  0
  -30.2733  -17.2882   20.9871 C   0  0  0  0  0  0
  -29.4515  -18.4040   20.5309 C   0  0  0  0  0  0
  -29.4258  -22.4237   18.4243 C   0  0  0  0  0  0
  -30.4025  -21.7547   17.7742 C   0  0  0  0  0  0
  -28.4675  -23.3450   17.6520 C   0  0  0  0  0  0
  -27.7988  -24.5223   18.3883 C   0  0  0  0  0  0
  -28.6026  -23.6578   20.5489 C   0  0  0  0  0  0
  -28.5694  -24.9776   19.6299 C   0  0  2  0  0  0
  -31.2093  -21.4511   22.1587 C   0  0  0  0  0  0
  -32.3103  -16.6167   22.4526 C   0  0  0  0  0  0
  -31.4760  -20.8410   18.3306 C   0  0  0  0  0  0
  -28.7351  -21.0136   20.4595 C   0  0  0  0  0  0
  -29.8926  -15.8638   20.7599 N   0  0  0  0  0  0
  -29.2368  -22.3821   19.9323 N   0  3  1  0  0  0
  -28.3433  -18.1103   19.8094 F   0  0  0  0  0  0
  -31.4713  -12.5606   19.1641 H   0  0  0  0  0  0
  -30.3641  -11.4683   19.9456 H   0  0  0  0  0  0
  -29.7859  -11.7440   17.5101 H   0  0  0  0  0  0
  -29.6371  -13.4708   17.7250 H   0  0  0  0  0  0
  -27.8916  -11.2888   18.9060 H   0  0  0  0  0  0
  -27.3771  -12.5349   17.8006 H   0  0  0  0  0  0
  -27.6401  -14.2564   19.4791 H   0  0  0  0  0  0
  -28.7234  -12.1655   21.4272 H   0  0  0  0  0  0
  -28.4308  -13.8440   21.7995 H   0  0  0  0  0  0
  -25.2760   -9.5696   22.4766 H   0  0  0  0  0  0
  -24.0006   -7.4642   22.7475 H   0  0  0  0  0  0
  -21.0850   -8.8769   19.8941 H   0  0  0  0  0  0
  -22.3696  -10.9675   19.6165 H   0  0  0  0  0  0
  -21.2006   -7.6152   23.9713 H   0  0  0  0  0  0
  -21.1487   -6.0529   25.9078 H   0  0  0  0  0  0
  -22.0594   -2.7611   23.2850 H   0  0  0  0  0  0
  -22.4092  -11.9867   22.4799 H   0  0  0  0  0  0
  -21.1084  -13.1212   22.2598 H   0  0  0  0  0  0
  -24.6468  -15.8411   20.5171 H   0  0  0  0  0  0
  -26.2613  -15.6365   20.0684 H   0  0  0  0  0  0
  -26.7229  -32.5363   23.1049 H   0  0  0  0  0  0
  -25.0090  -33.9650   25.0381 H   0  0  0  0  0  0
  -22.7241  -31.2996   21.3999 H   0  0  0  0  0  0
  -23.3741  -35.9623   23.3302 H   0  0  0  0  0  0
  -24.3576  -36.8915   22.2054 H   0  0  0  0  0  0
  -23.7275  -37.6480   23.6678 H   0  0  0  0  0  0
  -26.1232  -31.5246   20.6167 H   0  0  0  0  0  0
  -26.8534  -30.8029   22.0198 H   0  0  0  0  0  0
  -28.1196  -28.9046   21.1801 H   0  0  0  0  0  0
  -25.8578  -25.9023   19.0359 H   0  0  0  0  0  0
  -23.9527  -27.3148   19.0168 H   0  0  0  0  0  0
  -23.7726  -30.5957   19.4053 H   0  0  0  0  0  0
  -22.7616  -29.2541   19.8508 H   0  0  0  0  0  0
  -25.1295  -36.1869   25.0801 H   0  0  0  0  0  0
  -20.9963  -28.3253   24.1375 H   0  0  0  0  0  0
  -20.5626  -26.2286   23.3600 H   0  0  0  0  0  0
  -21.6635  -26.7369   22.1208 H   0  0  0  0  0  0
  -19.6907  -25.6257   21.1223 H   0  0  0  0  0  0
  -19.6682  -27.3142   20.6703 H   0  0  0  0  0  0
  -17.4187  -26.6612   21.4017 H   0  0  0  0  0  0
  -18.0350  -26.0015   22.8992 H   0  0  0  0  0  0
  -19.7946  -30.7234   24.2234 H   0  0  0  0  0  0
  -17.5021  -31.6231   24.5140 H   0  0  0  0  0  0
  -15.5348  -30.2940   23.7644 H   0  0  0  0  0  0
  -15.8680  -28.0778   22.7058 H   0  0  0  0  0  0
  -24.5925  -30.7030   25.7760 H   0  0  0  0  0  0
  -24.8901  -32.2876   26.4811 H   0  0  0  0  0  0
  -25.8051  -30.8916   27.0229 H   0  0  0  0  0  0
  -26.2979  -29.6682   24.1260 H   0  0  0  0  0  0
  -27.4041  -29.7236   25.4778 H   0  0  0  0  0  0
  -27.8880  -30.4196   23.9506 H   0  0  0  0  0  0
  -27.2642  -33.3642   26.2016 H   0  0  0  0  0  0
  -28.3914  -32.6859   25.0363 H   0  0  0  0  0  0
  -28.0684  -31.8488   26.5476 H   0  0  0  0  0  0
  -28.2568  -38.0108   24.7501 H   0  0  0  0  0  0
  -28.1092  -36.2627   24.6293 H   0  0  0  0  0  0
  -27.2286  -37.1450   25.8865 H   0  0  0  0  0  0
  -20.9400  -29.8809   21.6906 H   0  0  0  0  0  0
  -26.0150  -38.2809   24.1413 H   0  0  0  0  0  0
  -32.5391  -19.2209   22.6930 H   0  0  0  0  0  0
  -30.4244  -21.8380   16.6960 H   0  0  0  0  0  0
  -27.7092  -22.7292   17.1655 H   0  0  0  0  0  0
  -29.0488  -23.7738   16.8329 H   0  0  0  0  0  0
  -26.8141  -24.1657   18.6887 H   0  0  0  0  0  0
  -27.6525  -25.3480   17.6918 H   0  0  0  0  0  0
  -27.5808  -23.4271   20.8514 H   0  0  0  0  0  0
  -29.1385  -23.8819   21.4703 H   0  0  0  0  0  0
  -29.5998  -25.0858   19.2911 H   0  0  0  0  0  0
  -32.0177  -21.4179   22.8904 H   0  0  0  0  0  0
  -30.3592  -21.9140   22.6601 H   0  0  0  0  0  0
  -31.5500  -22.1022   21.3548 H   0  0  0  0  0  0
  -32.8135  -17.0437   23.3218 H   0  0  0  0  0  0
  -33.0897  -16.2929   21.7624 H   0  0  0  0  0  0
  -31.7579  -15.7491   22.8114 H   0  0  0  0  0  0
  -31.7824  -21.1185   19.3349 H   0  0  0  0  0  0
  -32.3639  -20.9007   17.7006 H   0  0  0  0  0  0
  -31.1407  -19.8033   18.3236 H   0  0  0  0  0  0
  -28.1699  -21.2061   21.3709 H   0  0  0  0  0  0
  -27.9979  -20.6324   19.7523 H   0  0  0  0  0  0
  -28.8999  -15.6956   20.7974 H   0  0  0  0  0  0
  -30.1700  -22.4165   20.3111 H   0  0  0  0  0  0
  1 25  1  0  0  0
  1 30  2  0  0  0
  1 87  1  0  0  0
  2  3  1  0  0  0
  2 25  1  0  0  0
  2 90  1  0  0  0
  2 91  1  0  0  0
  3  4  1  0  0  0
  3 92  1  0  0  0
  3 93  1  0  0  0
  4  5  1  0  0  0
  4 94  1  0  0  0
  4 95  1  0  0  0
  5  6  1  0  0  0
  5 26  1  0  0  0
  5 96  1  0  0  0
  6 25  1  0  0  0
  6 97  1  0  0  0
  6 98  1  0  0  0
  7  8  2  0  0  0
  7 26  1  0  0  0
  7 29  1  0  0  0
  8  9  1  0  0  0
  8 22  1  0  0  0
  9 10  1  0  0  0
  9 27  2  0  0  0
 10 11  2  0  0  0
 10 15  1  0  0  0
 11 12  1  0  0  0
 11 99  1  0  0  0
 12 13  2  0  0  0
 12100  1  0  0  0
 13 14  1  0  0  0
 13 31  1  0  0  0
 14 15  2  0  0  0
 14101  1  0  0  0
 15102  1  0  0  0
 16 17  2  0  0  0
 16 21  1  0  0  0
 16 31  1  0  0  0
 17 18  1  0  0  0
 17103  1  0  0  0
 18 19  2  0  0  0
 18104  1  0  0  0
 19 20  1  0  0  0
 19 24  1  0  0  0
 20 21  2  0  0  0
 20105  1  0  0  0
 21 23  1  0  0  0
 22 28  1  0  0  0
 22 32  2  0  0  0
 26 27  1  0  0  0
 28106  1  0  0  0
 28107  1  0  0  0
 29108  1  0  0  0
 29109  1  0  0  0
 33 34  1  0  0  0
 33 66  1  0  0  0
 33 70  2  0  0  0
 34 36  1  0  0  0
 34 59  1  0  0  0
 34110  1  0  0  0
 35 44  2  0  0  0
 35 45  1  0  0  0
 35 68  1  0  0  0
 36 56  1  0  0  0
 36111  1  0  0  0
 37 39  1  0  0  0
 37 47  1  0  0  0
 37 66  1  0  0  0
 37112  1  0  0  0
 38 43  2  0  0  0
 38 46  1  0  0  0
 38 47  1  0  0  0
 39 64  1  0  0  0
 39 67  2  0  0  0
 40 52  1  0  0  0
 40 53  2  0  0  0
 40 58  1  0  0  0
 41113  1  0  0  0
 41114  1  0  0  0
 41115  1  0  0  0
 41 48  1  0  0  0
 42 43  1  0  0  0
 42 66  1  0  0  0
 42116  1  0  0  0
 42117  1  0  0  0
 43 44  1  0  0  0
 44118  1  0  0  0
 45 46  2  0  0  0
 45119  1  0  0  0
 46120  1  0  0  0
 47121  1  0  0  0
 47122  1  0  0  0
 48 56  1  0  0  0
 48 65  1  0  0  0
 48123  1  0  0  0
 49 50  1  0  0  0
 49 53  1  0  0  0
 49 64  1  0  0  0
 49124  1  0  0  0
 50 51  1  0  0  0
 50125  1  0  0  0
 50126  1  0  0  0
 51 52  1  0  0  0
 51127  1  0  0  0
 51128  1  0  0  0
 52129  1  0  0  0
 52130  1  0  0  0
 53 54  1  0  0  0
 54 55  2  0  0  0
 54131  1  0  0  0
 55 57  1  0  0  0
 55132  1  0  0  0
 56 69  2  0  0  0
 57 58  2  0  0  0
 57133  1  0  0  0
 58134  1  0  0  0
 59 60  1  0  0  0
 59 61  1  0  0  0
 59 62  1  0  0  0
 60135  1  0  0  0
 60136  1  0  0  0
 60137  1  0  0  0
 61138  1  0  0  0
 61139  1  0  0  0
 61140  1  0  0  0
 62141  1  0  0  0
 62142  1  0  0  0
 62143  1  0  0  0
 63 65  1  0  0  0
 63144  1  0  0  0
 63145  1  0  0  0
 63146  1  0  0  0
 64147  1  0  0  0
 65148  1  0  0  0
 68 82  1  0  0  0
 71 72  2  0  0  0
 71 73  1  0  0  0
 71149  1  0  0  0
 72 74  1  0  0  0
 72 83  1  0  0  0
 73 75  2  0  0  0
 73 84  1  0  0  0
 74 76  2  0  0  0
 74 86  1  0  0  0
 75 76  1  0  0  0
 75 87  1  0  0  0
 76 89  1  0  0  0
 77 78  2  0  0  0
 77 79  1  0  0  0
 77 88  1  0  0  0
 78 85  1  0  0  0
 78150  1  0  0  0
 79 80  1  0  0  0
 79151  1  0  0  0
 79152  1  0  0  0
 80 82  1  0  0  0
 80153  1  0  0  0
 80154  1  0  0  0
 81 82  1  0  0  0
 81 88  1  0  0  0
 81155  1  0  0  0
 81156  1  0  0  0
 82157  1  0  0  0
 83158  1  0  0  0
 83159  1  0  0  0
 83160  1  0  0  0
 84161  1  0  0  0
 84162  1  0  0  0
 84163  1  0  0  0
 85164  1  0  0  0
 85165  1  0  0  0
 85166  1  0  0  0
 86167  1  0  0  0
 86168  1  0  0  0
 86 88  1  0  0  0
 87169  1  0  0  0
 88170  1  0  0  0
M  CHG  1  88   1
M  ISO  4   1 100  68 101  82 101  87 100
M  END
> <chiral flag>
0

> <version>
0

> <s_m_source_file>
/data/baiqing/PycharmProjects/Reinvent-master-3.2/result/LINK_invent/BTK/process_docking_weight1_custom_product_contain_oxygen_bond_distance_aromatic_linkinvent_7_9_3/rearranged_h_0034.sdf

> <i_m_source_file_index>
46

> <r_mmod_Potential_Energy-OPLS-2005>
130.84814453125

> <r_mmod_Stretch_Energy-OPLS-2005>
141.312271118164

> <r_mmod_Bend_Energy-OPLS-2005>
243.683258056641

> <r_mmod_Torsional_Energy-OPLS-2005>
248.178695678711

> <r_mmod_Improper_Torsional_Energy-OPLS-2005>
6.09994745254517

> <r_mmod_Van_der_Waal_Energy-OPLS-2005>
150.066055297852

> <r_mmod_Electrostatic_Energy-OPLS-2005>
-329.791198730469

> <r_mmod_Solvation_Energy-OPLS-2005>
-407.577209472656

> <b_mmod_Minimization_Converged-OPLS-2005>
0

> <r_mmod_RMS_Derivative-OPLS-2005>
2.16514658927917

$$$$
46
                    3D
 Structure written by MMmdl.
170179  0  0  1  0            999 V2000
  -30.5525  -14.8075   20.4066 C   0  0  0  0  0  0
  -30.4369  -12.4785   19.5070 C   0  0  0  0  0  0
  -29.5308  -12.5140   18.2543 C   0  0  0  0  0  0
  -28.0597  -12.3155   18.6589 C   0  0  0  0  0  0
  -27.6407  -13.2267   19.8411 C   0  0  2  0  0  0
  -28.6714  -13.2003   20.9927 C   0  0  0  0  0  0
  -25.2570  -13.8168   20.5600 C   0  0  0  0  0  0
  -24.1855  -13.0471   20.9173 C   0  0  0  0  0  0
  -24.6368  -11.6913   20.8702 C   0  0  0  0  0  0
  -23.9015  -10.4312   21.0415 C   0  0  0  0  0  0
  -24.3579   -9.4209   21.9170 C   0  0  0  0  0  0
  -23.6274   -8.2233   22.0763 C   0  0  0  0  0  0
  -22.4255   -8.0263   21.3541 C   0  0  0  0  0  0
  -21.9892   -9.0224   20.4629 C   0  0  0  0  0  0
  -22.7203  -10.2116   20.3038 C   0  0  0  0  0  0
  -21.6869   -6.0713   22.5262 C   0  0  0  0  0  0
  -21.3997   -6.5626   23.8182 C   0  0  0  0  0  0
  -21.3658   -5.6789   24.9153 C   0  0  0  0  0  0
  -21.6038   -4.3050   24.7214 C   0  0  0  0  0  0
  -21.8849   -3.8125   23.4348 C   0  0  0  0  0  0
  -21.9217   -4.6940   22.3394 C   0  0  0  0  0  0
  -22.7873  -13.5267   21.1865 C   0  0  0  0  0  0
  -22.1732   -4.2117   21.0980 F   0  0  0  0  0  0
  -21.5619   -3.4552   25.7741 F   0  0  0  0  0  0
  -29.9715  -13.5548   20.4150 N   0  0  0  0  0  0
  -26.2937  -12.9343   20.3150 N   0  0  0  0  0  0
  -25.9273  -11.6493   20.5633 N   0  0  0  0  0  0
  -22.0490  -12.8198   22.0340 N   0  0  0  0  0  0
  -25.4403  -15.1866   20.3924 N   0  0  0  0  0  0
  -31.7578  -14.8955   20.1521 O   0  0  0  0  0  0
  -21.6634   -6.8847   21.4226 O   0  0  0  0  0  0
  -22.3582  -14.5620   20.6770 O   0  0  0  0  0  0
  -24.6331  -31.8518   23.1947 C   0  0  0  0  0  0
  -25.9158  -32.4735   23.8306 C   0  0  1  0  0  0
  -27.2193  -27.2387   20.1566 C   0  0  0  0  0  0
  -25.5971  -33.8537   24.2267 N   0  0  0  0  0  0
  -23.4303  -30.4710   21.5371 C   0  0  2  0  0  0
  -24.8787  -28.9122   20.1104 C   0  0  0  0  0  0
  -22.7510  -29.4576   22.4908 C   0  0  0  0  0  0
  -18.0300  -28.1382   22.8498 C   0  0  0  0  0  0
  -24.1508  -36.7253   23.2634 C   0  0  0  0  0  0
  -25.9728  -30.7649   21.3717 C   0  0  0  0  0  0
  -26.0453  -29.3825   20.7226 C   0  0  0  0  0  0
  -27.2144  -28.5566   20.7336 C   0  0  0  0  0  0
  -26.0270  -26.8367   19.5102 C   0  0  0  0  0  0
  -24.8769  -27.6524   19.4889 C   0  0  0  0  0  0
  -23.6504  -29.8001   20.1551 C   0  0  0  0  0  0
  -25.4138  -36.3057   24.0333 C   0  0  1  0  0  0
  -20.5901  -28.3689   23.1301 C   0  0  2  0  0  0
  -20.6782  -26.9404   22.5424 C   0  0  0  0  0  0
  -19.5771  -26.6388   21.5216 C   0  0  0  0  0  0
  -18.1948  -26.7937   22.1611 C   0  0  0  0  0  0
  -19.1542  -28.8858   23.2897 C   0  0  0  0  0  0
  -18.9444  -30.1467   23.8906 C   0  0  0  0  0  0
  -17.6437  -30.6591   24.0546 C   0  0  0  0  0  0
  -25.9078  -34.9428   23.5108 C   0  0  0  0  0  0
  -16.5345  -29.9071   23.6322 C   0  0  0  0  0  0
  -16.7284  -28.6482   23.0375 C   0  0  0  0  0  0
  -26.4559  -31.6519   25.0658 C   0  0  0  0  0  0
  -25.3788  -31.3597   26.1355 C   0  0  0  0  0  0
  -27.0366  -30.2938   24.6067 C   0  0  0  0  0  0
  -27.6137  -32.4196   25.7449 C   0  0  0  0  0  0
  -27.5599  -37.1787   24.8476 C   0  0  0  0  0  0
  -21.4210  -29.3039   22.3696 N   0  0  0  0  0  0
  -26.4316  -37.3745   23.9407 N   0  0  0  0  0  0
  -24.6979  -31.0490   22.0919 N   0  0  0  0  0  0
  -23.4206  -28.8115   23.3009 O   0  0  0  0  0  0
  -28.3412  -26.3758   20.2520 O   0  0  0  0  0  0
  -26.5628  -34.8895   22.4661 O   0  0  0  0  0  0
  -23.5482  -32.1352   23.7234 O   0  0  0  0  0  0
  -29.5926  -19.9393   18.6543 C   0  0  0  0  0  0
  -30.2237  -18.8517   18.0365 C   0  0  0  0  0  0
  -29.0271  -19.8355   19.9352 C   0  0  0  0  0  0
  -30.3057  -17.5732   18.6305 C   0  0  0  0  0  0
  -29.0976  -18.4969   20.5534 C   0  0  0  0  0  0
  -29.7570  -17.3305   19.9301 C   0  0  0  0  0  0
  -30.0868  -23.0226   20.0530 C   0  0  0  0  0  0
  -31.3078  -22.4385   20.1190 C   0  0  0  0  0  0
  -29.7673  -24.4360   19.5159 C   0  0  0  0  0  0
  -28.0295  -23.7530   21.0176 C   0  0  0  0  0  0
  -28.3506  -24.8864   19.9477 C   0  0  1  0  0  0
  -30.9316  -16.5006   17.7456 C   0  0  0  0  0  0
  -28.3894  -18.3028   21.8851 C   0  0  0  0  0  0
  -31.6331  -21.2220   20.9783 C   0  0  0  0  0  0
  -32.5099  -22.9492   19.3475 C   0  0  0  0  0  0
  -28.2367  -21.1619   20.4247 C   0  0  0  0  0  0
  -29.7236  -15.9347   20.5111 N   0  0  0  0  0  0
  -28.9046  -22.5149   20.8134 N   0  3  1  0  0  0
  -31.4829  -12.5945   19.2279 H   0  0  0  0  0  0
  -30.3656  -11.5107   20.0050 H   0  0  0  0  0  0
  -29.8347  -11.7472   17.5418 H   0  0  0  0  0  0
  -29.6403  -13.4670   17.7382 H   0  0  0  0  0  0
  -27.9352  -11.2678   18.9368 H   0  0  0  0  0  0
  -27.4136  -12.4807   17.7942 H   0  0  0  0  0  0
  -27.6270  -14.2337   19.4263 H   0  0  0  0  0  0
  -28.7102  -12.2202   21.4667 H   0  0  0  0  0  0
  -28.3865  -13.9030   21.7755 H   0  0  0  0  0  0
  -25.2740   -9.5701   22.4708 H   0  0  0  0  0  0
  -24.0001   -7.4624   22.7477 H   0  0  0  0  0  0
  -21.0865   -8.8712   19.8883 H   0  0  0  0  0  0
  -22.3697  -10.9627   19.6116 H   0  0  0  0  0  0
  -21.1971   -7.6130   23.9685 H   0  0  0  0  0  0
  -21.1477   -6.0510   25.9050 H   0  0  0  0  0  0
  -22.0633   -2.7577   23.2852 H   0  0  0  0  0  0
  -22.4170  -11.9897   22.4743 H   0  0  0  0  0  0
  -21.1059  -13.1139   22.2474 H   0  0  0  0  0  0
  -24.6766  -15.8494   20.4511 H   0  0  0  0  0  0
  -26.2752  -15.5769   19.9745 H   0  0  0  0  0  0
  -26.7197  -32.5392   23.1022 H   0  0  0  0  0  0
  -25.0174  -33.9671   25.0455 H   0  0  0  0  0  0
  -22.7250  -31.2915   21.3856 H   0  0  0  0  0  0
  -23.3785  -35.9558   23.3268 H   0  0  0  0  0  0
  -24.3612  -36.8901   22.2049 H   0  0  0  0  0  0
  -23.7221  -37.6433   23.6671 H   0  0  0  0  0  0
  -26.1034  -31.5192   20.5950 H   0  0  0  0  0  0
  -26.8538  -30.8260   21.9996 H   0  0  0  0  0  0
  -28.1061  -28.9093   21.2314 H   0  0  0  0  0  0
  -25.9463  -25.8730   19.0314 H   0  0  0  0  0  0
  -23.9794  -27.2946   19.0016 H   0  0  0  0  0  0
  -23.7734  -30.5718   19.3922 H   0  0  0  0  0  0
  -22.7704  -29.2282   19.8553 H   0  0  0  0  0  0
  -25.1309  -36.1917   25.0822 H   0  0  0  0  0  0
  -20.9985  -28.3237   24.1425 H   0  0  0  0  0  0
  -20.5678  -26.2278   23.3610 H   0  0  0  0  0  0
  -21.6651  -26.7431   22.1221 H   0  0  0  0  0  0
  -19.6923  -25.6293   21.1266 H   0  0  0  0  0  0
  -19.6724  -27.3179   20.6737 H   0  0  0  0  0  0
  -17.4218  -26.6733   21.3995 H   0  0  0  0  0  0
  -18.0306  -26.0064   22.8990 H   0  0  0  0  0  0
  -19.7905  -30.7309   24.2260 H   0  0  0  0  0  0
  -17.4974  -31.6276   24.5133 H   0  0  0  0  0  0
  -15.5343  -30.2965   23.7626 H   0  0  0  0  0  0
  -15.8700  -28.0797   22.7090 H   0  0  0  0  0  0
  -24.6074  -30.6831   25.7663 H   0  0  0  0  0  0
  -24.8838  -32.2700   26.4717 H   0  0  0  0  0  0
  -25.8138  -30.8841   27.0149 H   0  0  0  0  0  0
  -26.2889  -29.6681   24.1159 H   0  0  0  0  0  0
  -27.4149  -29.7200   25.4539 H   0  0  0  0  0  0
  -27.8749  -30.4214   23.9212 H   0  0  0  0  0  0
  -27.2819  -33.3526   26.2005 H   0  0  0  0  0  0
  -28.3993  -32.6660   25.0298 H   0  0  0  0  0  0
  -28.0736  -31.8274   26.5366 H   0  0  0  0  0  0
  -28.2606  -38.0097   24.7525 H   0  0  0  0  0  0
  -28.1122  -36.2618   24.6324 H   0  0  0  0  0  0
  -27.2312  -37.1455   25.8883 H   0  0  0  0  0  0
  -20.9382  -29.8806   21.6956 H   0  0  0  0  0  0
  -26.0208  -38.2831   24.1365 H   0  0  0  0  0  0
  -29.5220  -20.8741   18.1159 H   0  0  0  0  0  0
  -30.6196  -19.0077   17.0426 H   0  0  0  0  0  0
  -29.8944  -24.5037   18.4358 H   0  0  0  0  0  0
  -30.4959  -25.1143   19.9647 H   0  0  0  0  0  0
  -26.9674  -23.5102   21.0688 H   0  0  0  0  0  0
  -28.3041  -24.1346   22.0010 H   0  0  0  0  0  0
  -27.7058  -24.6965   19.0946 H   0  0  0  0  0  0
  -30.8693  -16.7729   16.6902 H   0  0  0  0  0  0
  -30.4147  -15.5504   17.8190 H   0  0  0  0  0  0
  -31.9844  -16.3574   17.9863 H   0  0  0  0  0  0
  -28.6345  -19.1056   22.5799 H   0  0  0  0  0  0
  -28.6543  -17.3591   22.3682 H   0  0  0  0  0  0
  -27.3106  -18.3031   21.7263 H   0  0  0  0  0  0
  -30.8178  -20.9259   21.6371 H   0  0  0  0  0  0
  -32.4836  -21.4405   21.6257 H   0  0  0  0  0  0
  -31.8975  -20.3651   20.3583 H   0  0  0  0  0  0
  -32.2984  -23.8695   18.8020 H   0  0  0  0  0  0
  -32.8086  -22.1910   18.6194 H   0  0  0  0  0  0
  -33.3499  -23.1250   20.0222 H   0  0  0  0  0  0
  -27.5585  -20.8801   21.2324 H   0  0  0  0  0  0
  -27.5705  -21.4101   19.5967 H   0  0  0  0  0  0
  -28.8479  -15.7173   20.9623 H   0  0  0  0  0  0
  -29.2463  -22.3089   21.7407 H   0  0  0  0  0  0
  1 25  1  0  0  0
  1 30  2  0  0  0
  1 87  1  0  0  0
  2  3  1  0  0  0
  2 25  1  0  0  0
  2 89  1  0  0  0
  2 90  1  0  0  0
  3  4  1  0  0  0
  3 91  1  0  0  0
  3 92  1  0  0  0
  4  5  1  0  0  0
  4 93  1  0  0  0
  4 94  1  0  0  0
  5  6  1  0  0  0
  5 26  1  0  0  0
  5 95  1  0  0  0
  6 25  1  0  0  0
  6 96  1  0  0  0
  6 97  1  0  0  0
  7  8  2  0  0  0
  7 26  1  0  0  0
  7 29  1  0  0  0
  8  9  1  0  0  0
  8 22  1  0  0  0
  9 10  1  0  0  0
  9 27  2  0  0  0
 10 11  2  0  0  0
 10 15  1  0  0  0
 11 12  1  0  0  0
 11 98  1  0  0  0
 12 13  2  0  0  0
 12 99  1  0  0  0
 13 14  1  0  0  0
 13 31  1  0  0  0
 14 15  2  0  0  0
 14100  1  0  0  0
 15101  1  0  0  0
 16 17  2  0  0  0
 16 21  1  0  0  0
 16 31  1  0  0  0
 17 18  1  0  0  0
 17102  1  0  0  0
 18 19  2  0  0  0
 18103  1  0  0  0
 19 20  1  0  0  0
 19 24  1  0  0  0
 20 21  2  0  0  0
 20104  1  0  0  0
 21 23  1  0  0  0
 22 28  1  0  0  0
 22 32  2  0  0  0
 26 27  1  0  0  0
 28105  1  0  0  0
 28106  1  0  0  0
 29107  1  0  0  0
 29108  1  0  0  0
 33 34  1  0  0  0
 33 66  1  0  0  0
 33 70  2  0  0  0
 34 36  1  0  0  0
 34 59  1  0  0  0
 34109  1  0  0  0
 35 44  2  0  0  0
 35 45  1  0  0  0
 35 68  1  0  0  0
 36 56  1  0  0  0
 36110  1  0  0  0
 37 39  1  0  0  0
 37 47  1  0  0  0
 37 66  1  0  0  0
 37111  1  0  0  0
 38 43  2  0  0  0
 38 46  1  0  0  0
 38 47  1  0  0  0
 39 64  1  0  0  0
 39 67  2  0  0  0
 40 52  1  0  0  0
 40 53  2  0  0  0
 40 58  1  0  0  0
 41112  1  0  0  0
 41113  1  0  0  0
 41114  1  0  0  0
 41 48  1  0  0  0
 42 43  1  0  0  0
 42 66  1  0  0  0
 42115  1  0  0  0
 42116  1  0  0  0
 43 44  1  0  0  0
 44117  1  0  0  0
 45 46  2  0  0  0
 45118  1  0  0  0
 46119  1  0  0  0
 47120  1  0  0  0
 47121  1  0  0  0
 48 56  1  0  0  0
 48 65  1  0  0  0
 48122  1  0  0  0
 49 50  1  0  0  0
 49 53  1  0  0  0
 49 64  1  0  0  0
 49123  1  0  0  0
 50 51  1  0  0  0
 50124  1  0  0  0
 50125  1  0  0  0
 51 52  1  0  0  0
 51126  1  0  0  0
 51127  1  0  0  0
 52128  1  0  0  0
 52129  1  0  0  0
 53 54  1  0  0  0
 54 55  2  0  0  0
 54130  1  0  0  0
 55 57  1  0  0  0
 55131  1  0  0  0
 56 69  2  0  0  0
 57 58  2  0  0  0
 57132  1  0  0  0
 58133  1  0  0  0
 59 60  1  0  0  0
 59 61  1  0  0  0
 59 62  1  0  0  0
 60134  1  0  0  0
 60135  1  0  0  0
 60136  1  0  0  0
 61137  1  0  0  0
 61138  1  0  0  0
 61139  1  0  0  0
 62140  1  0  0  0
 62141  1  0  0  0
 62142  1  0  0  0
 63 65  1  0  0  0
 63143  1  0  0  0
 63144  1  0  0  0
 63145  1  0  0  0
 64146  1  0  0  0
 65147  1  0  0  0
 68 81  1  0  0  0
 71 72  2  0  0  0
 71 73  1  0  0  0
 71148  1  0  0  0
 72 74  1  0  0  0
 72149  1  0  0  0
 73 75  2  0  0  0
 73 86  1  0  0  0
 74 76  2  0  0  0
 74 82  1  0  0  0
 75 76  1  0  0  0
 75 83  1  0  0  0
 76 87  1  0  0  0
 77 78  2  0  0  0
 77 79  1  0  0  0
 77 88  1  0  0  0
 78 84  1  0  0  0
 78 85  1  0  0  0
 79 81  1  0  0  0
 79150  1  0  0  0
 79151  1  0  0  0
 80 81  1  0  0  0
 80 88  1  0  0  0
 80152  1  0  0  0
 80153  1  0  0  0
 81154  1  0  0  0
 82155  1  0  0  0
 82156  1  0  0  0
 82157  1  0  0  0
 83158  1  0  0  0
 83159  1  0  0  0
 83160  1  0  0  0
 84161  1  0  0  0
 84162  1  0  0  0
 84163  1  0  0  0
 85164  1  0  0  0
 85165  1  0  0  0
 85166  1  0  0  0
 86167  1  0  0  0
 86168  1  0  0  0
 86 88  1  0  0  0
 87169  1  0  0  0
 88170  1  0  0  0
M  CHG  1  88   1
M  ISO  4   1 100  68 101  81 101  87 100
M  END
> <chiral flag>
0

> <version>
0

> <s_m_source_file>
/data/baiqing/PycharmProjects/Reinvent-master-3.2/result/LINK_invent/BTK/process_docking_weight1_custom_product_contain_oxygen_bond_distance_aromatic_linkinvent_7_9_3/rearranged_h_0034.sdf

> <i_m_source_file_index>
47

> <r_mmod_Potential_Energy-OPLS-2005>
146.001098632812

> <r_mmod_Stretch_Energy-OPLS-2005>
155.27262878418

> <r_mmod_Bend_Energy-OPLS-2005>
236.222808837891

> <r_mmod_Torsional_Energy-OPLS-2005>
270.601013183594

> <r_mmod_Improper_Torsional_Energy-OPLS-2005>
6.93810653686523

> <r_mmod_Van_der_Waal_Energy-OPLS-2005>
133.80419921875

> <r_mmod_Electrostatic_Energy-OPLS-2005>
-339.82666015625

> <r_mmod_Solvation_Energy-OPLS-2005>
-426.199127197266

> <b_mmod_Minimization_Converged-OPLS-2005>
0

> <r_mmod_RMS_Derivative-OPLS-2005>
5.92610645294189

$$$$
47
                    3D
 Structure written by MMmdl.
157165  0  0  1  0            999 V2000
  -30.7020  -14.5544   20.5391 C   0  0  0  0  0  0
  -30.4187  -12.3542   19.4360 C   0  0  0  0  0  0
  -29.4948  -12.5015   18.2096 C   0  0  0  0  0  0
  -28.0175  -12.3553   18.6227 C   0  0  0  0  0  0
  -27.6504  -13.2192   19.8586 C   0  0  2  0  0  0
  -28.6972  -13.0737   20.9860 C   0  0  0  0  0  0
  -25.2563  -13.8181   20.5688 C   0  0  0  0  0  0
  -24.1832  -13.0441   20.9190 C   0  0  0  0  0  0
  -24.6400  -11.6912   20.8730 C   0  0  0  0  0  0
  -23.9068  -10.4295   21.0404 C   0  0  0  0  0  0
  -24.3620   -9.4214   21.9176 C   0  0  0  0  0  0
  -23.6297   -8.2251   22.0758 C   0  0  0  0  0  0
  -22.4280   -8.0286   21.3555 C   0  0  0  0  0  0
  -21.9917   -9.0255   20.4654 C   0  0  0  0  0  0
  -22.7238  -10.2135   20.3055 C   0  0  0  0  0  0
  -21.6865   -6.0737   22.5279 C   0  0  0  0  0  0
  -21.4021   -6.5639   23.8207 C   0  0  0  0  0  0
  -21.3658   -5.6798   24.9169 C   0  0  0  0  0  0
  -21.6042   -4.3063   24.7223 C   0  0  0  0  0  0
  -21.8822   -3.8147   23.4348 C   0  0  0  0  0  0
  -21.9205   -4.6964   22.3409 C   0  0  0  0  0  0
  -22.7855  -13.5226   21.1858 C   0  0  0  0  0  0
  -22.1669   -4.2150   21.0981 F   0  0  0  0  0  0
  -21.5631   -3.4545   25.7733 F   0  0  0  0  0  0
  -30.0145  -13.3820   20.4126 N   0  0  0  0  0  0
  -26.2986  -12.9361   20.3315 N   0  0  0  0  0  0
  -25.9326  -11.6511   20.5733 N   0  0  0  0  0  0
  -22.0520  -12.8195   22.0416 N   0  0  0  0  0  0
  -25.4277  -15.1903   20.4124 N   0  0  0  0  0  0
  -31.8747  -14.6304   20.1897 O   0  0  0  0  0  0
  -21.6647   -6.8880   21.4241 O   0  0  0  0  0  0
  -22.3527  -14.5531   20.6723 O   0  0  0  0  0  0
  -24.6209  -31.8644   23.2077 C   0  0  0  0  0  0
  -25.9077  -32.4796   23.8382 C   0  0  1  0  0  0
  -27.2209  -27.3628   20.1098 C   0  0  0  0  0  0
  -25.5917  -33.8600   24.2316 N   0  0  0  0  0  0
  -23.4117  -30.4904   21.5490 C   0  0  2  0  0  0
  -24.8569  -28.9560   20.1093 C   0  0  0  0  0  0
  -22.7446  -29.4647   22.4954 C   0  0  0  0  0  0
  -18.0279  -28.1379   22.8495 C   0  0  0  0  0  0
  -24.1489  -36.7312   23.2638 C   0  0  0  0  0  0
  -25.9492  -30.8078   21.3737 C   0  0  0  0  0  0
  -26.0230  -29.4399   20.7161 C   0  0  0  0  0  0
  -27.2069  -28.6525   20.7121 C   0  0  0  0  0  0
  -26.0344  -26.9280   19.4694 C   0  0  0  0  0  0
  -24.8625  -27.7033   19.4790 C   0  0  0  0  0  0
  -23.6232  -29.8303   20.1618 C   0  0  0  0  0  0
  -25.4112  -36.3096   24.0332 C   0  0  1  0  0  0
  -20.5874  -28.3685   23.1301 C   0  0  2  0  0  0
  -20.6767  -26.9414   22.5418 C   0  0  0  0  0  0
  -19.5743  -26.6390   21.5217 C   0  0  0  0  0  0
  -18.1925  -26.7927   22.1629 C   0  0  0  0  0  0
  -19.1530  -28.8849   23.2894 C   0  0  0  0  0  0
  -18.9456  -30.1450   23.8909 C   0  0  0  0  0  0
  -17.6452  -30.6587   24.0569 C   0  0  0  0  0  0
  -25.9044  -34.9463   23.5123 C   0  0  0  0  0  0
  -16.5346  -29.9090   23.6327 C   0  0  0  0  0  0
  -16.7266  -28.6504   23.0354 C   0  0  0  0  0  0
  -26.4485  -31.6585   25.0733 C   0  0  0  0  0  0
  -25.3733  -31.3705   26.1469 C   0  0  0  0  0  0
  -27.0321  -30.3014   24.6154 C   0  0  0  0  0  0
  -27.6058  -32.4307   25.7500 C   0  0  0  0  0  0
  -27.5583  -37.1807   24.8463 C   0  0  0  0  0  0
  -21.4166  -29.3046   22.3699 N   0  0  0  0  0  0
  -26.4294  -37.3786   23.9406 N   0  0  0  0  0  0
  -24.6792  -31.0695   22.1011 N   0  0  0  0  0  0
  -23.4192  -28.8184   23.3016 O   0  0  0  0  0  0
  -28.3483  -26.5399   20.1726 O   0  0  0  0  0  0
  -26.5611  -34.8918   22.4688 O   0  0  0  0  0  0
  -23.5387  -32.1424   23.7434 O   0  0  0  0  0  0
  -31.5459  -20.1805   19.2940 C   0  0  0  0  0  0
  -32.7438  -19.6831   18.7580 C   0  0  0  0  0  0
  -32.3808  -17.6110   19.9544 C   0  0  0  0  0  0
  -30.7360  -19.4098   20.1687 C   0  0  0  0  0  0
  -31.1223  -18.0386   20.4444 C   0  0  0  0  0  0
  -33.1758  -18.4011   19.1105 C   0  0  0  0  0  0
  -28.9446  -22.5878   20.2150 C   0  0  0  0  0  0
  -29.5099  -20.1424   20.7744 C   0  0  0  0  0  0
  -30.3479  -17.0379   21.3568 C   0  0  0  0  0  0
  -29.2331  -24.1024   20.5003 C   0  0  0  0  0  0
  -28.1378  -25.1019   19.9752 C   0  0  0  0  0  0
  -29.6334  -21.6306   20.8883 N   0  0  0  0  0  0
  -29.9830  -15.6480   20.9111 N   0  0  0  0  0  0
  -28.0975  -22.2806   19.3748 O   0  0  0  0  0  0
  -34.6838  -17.7975   18.5265 Cl  0  0  0  0  0  0
  -31.4620  -12.4507   19.1314 H   0  0  0  0  0  0
  -30.3241  -11.3583   19.8717 H   0  0  0  0  0  0
  -29.7462  -11.7573   17.4517 H   0  0  0  0  0  0
  -29.6528  -13.4764   17.7450 H   0  0  0  0  0  0
  -27.8374  -11.3023   18.8378 H   0  0  0  0  0  0
  -27.3681  -12.6055   17.7840 H   0  0  0  0  0  0
  -27.6700  -14.2562   19.5241 H   0  0  0  0  0  0
  -28.6930  -12.0588   21.3877 H   0  0  0  0  0  0
  -28.4559  -13.7263   21.8270 H   0  0  0  0  0  0
  -25.2777   -9.5688   22.4729 H   0  0  0  0  0  0
  -24.0030   -7.4640   22.7465 H   0  0  0  0  0  0
  -21.0859   -8.8767   19.8944 H   0  0  0  0  0  0
  -22.3705  -10.9674   19.6160 H   0  0  0  0  0  0
  -21.2004   -7.6148   23.9705 H   0  0  0  0  0  0
  -21.1479   -6.0528   25.9071 H   0  0  0  0  0  0
  -22.0604   -2.7610   23.2842 H   0  0  0  0  0  0
  -22.4157  -11.9850   22.4776 H   0  0  0  0  0  0
  -21.1137  -13.1196   22.2638 H   0  0  0  0  0  0
  -24.6614  -15.8453   20.5220 H   0  0  0  0  0  0
  -26.2756  -15.6310   20.0784 H   0  0  0  0  0  0
  -26.7152  -32.5490   23.1142 H   0  0  0  0  0  0
  -25.0036  -33.9757   25.0437 H   0  0  0  0  0  0
  -22.7028  -31.3094   21.4113 H   0  0  0  0  0  0
  -23.3743  -35.9652   23.3299 H   0  0  0  0  0  0
  -24.3580  -36.8936   22.2056 H   0  0  0  0  0  0
  -23.7252  -37.6519   23.6659 H   0  0  0  0  0  0
  -26.0737  -31.5735   20.6062 H   0  0  0  0  0  0
  -26.8328  -30.8563   21.9985 H   0  0  0  0  0  0
  -28.0994  -29.0152   21.2034 H   0  0  0  0  0  0
  -25.9815  -25.9763   18.9603 H   0  0  0  0  0  0
  -23.9704  -27.3311   18.9944 H   0  0  0  0  0  0
  -23.7358  -30.6086   19.4066 H   0  0  0  0  0  0
  -22.7449  -29.2556   19.8625 H   0  0  0  0  0  0
  -25.1287  -36.1959   25.0824 H   0  0  0  0  0  0
  -20.9967  -28.3259   24.1419 H   0  0  0  0  0  0
  -20.5679  -26.2294   23.3615 H   0  0  0  0  0  0
  -21.6638  -26.7450   22.1210 H   0  0  0  0  0  0
  -19.6908  -25.6306   21.1239 H   0  0  0  0  0  0
  -19.6677  -27.3211   20.6759 H   0  0  0  0  0  0
  -17.4195  -26.6681   21.4032 H   0  0  0  0  0  0
  -18.0320  -26.0067   22.9025 H   0  0  0  0  0  0
  -19.7929  -30.7265   24.2289 H   0  0  0  0  0  0
  -17.5008  -31.6265   24.5173 H   0  0  0  0  0  0
  -15.5348  -30.2998   23.7636 H   0  0  0  0  0  0
  -15.8669  -28.0828   22.7060 H   0  0  0  0  0  0
  -24.5903  -30.7062   25.7797 H   0  0  0  0  0  0
  -24.8926  -32.2863   26.4920 H   0  0  0  0  0  0
  -25.8065  -30.8863   27.0228 H   0  0  0  0  0  0
  -26.2881  -29.6774   24.1186 H   0  0  0  0  0  0
  -27.4042  -29.7259   25.4642 H   0  0  0  0  0  0
  -27.8743  -30.4317   23.9352 H   0  0  0  0  0  0
  -27.2677  -33.3601   26.2098 H   0  0  0  0  0  0
  -28.3853  -32.6876   25.0313 H   0  0  0  0  0  0
  -28.0738  -31.8412   26.5395 H   0  0  0  0  0  0
  -28.2593  -38.0111   24.7505 H   0  0  0  0  0  0
  -28.1077  -36.2636   24.6280 H   0  0  0  0  0  0
  -27.2293  -37.1457   25.8863 H   0  0  0  0  0  0
  -20.9333  -29.8775   21.6921 H   0  0  0  0  0  0
  -26.0176  -38.2861   24.1401 H   0  0  0  0  0  0
  -31.2706  -21.1919   19.0323 H   0  0  0  0  0  0
  -33.3506  -20.2997   18.1105 H   0  0  0  0  0  0
  -32.8011  -16.6720   20.2570 H   0  0  0  0  0  0
  -29.3338  -19.7634   21.7810 H   0  0  0  0  0  0
  -28.6282  -19.8744   20.1897 H   0  0  0  0  0  0
  -29.4098  -17.5033   21.6572 H   0  0  0  0  0  0
  -30.9180  -16.9383   22.2815 H   0  0  0  0  0  0
  -30.1933  -24.3538   20.0490 H   0  0  0  0  0  0
  -29.3523  -24.2353   21.5767 H   0  0  0  0  0  0
  -27.2058  -24.8062   20.4613 H   0  0  0  0  0  0
  -28.0021  -24.9327   18.9058 H   0  0  0  0  0  0
  -30.3121  -21.9567   21.5636 H   0  0  0  0  0  0
  -29.0079  -15.4339   21.0517 H   0  0  0  0  0  0
  1 25  1  0  0  0
  1 30  2  0  0  0
  1 83  1  0  0  0
  2  3  1  0  0  0
  2 25  1  0  0  0
  2 86  1  0  0  0
  2 87  1  0  0  0
  3  4  1  0  0  0
  3 88  1  0  0  0
  3 89  1  0  0  0
  4  5  1  0  0  0
  4 90  1  0  0  0
  4 91  1  0  0  0
  5  6  1  0  0  0
  5 26  1  0  0  0
  5 92  1  0  0  0
  6 25  1  0  0  0
  6 93  1  0  0  0
  6 94  1  0  0  0
  7  8  2  0  0  0
  7 26  1  0  0  0
  7 29  1  0  0  0
  8  9  1  0  0  0
  8 22  1  0  0  0
  9 10  1  0  0  0
  9 27  2  0  0  0
 10 11  2  0  0  0
 10 15  1  0  0  0
 11 12  1  0  0  0
 11 95  1  0  0  0
 12 13  2  0  0  0
 12 96  1  0  0  0
 13 14  1  0  0  0
 13 31  1  0  0  0
 14 15  2  0  0  0
 14 97  1  0  0  0
 15 98  1  0  0  0
 16 17  2  0  0  0
 16 21  1  0  0  0
 16 31  1  0  0  0
 17 18  1  0  0  0
 17 99  1  0  0  0
 18 19  2  0  0  0
 18100  1  0  0  0
 19 20  1  0  0  0
 19 24  1  0  0  0
 20 21  2  0  0  0
 20101  1  0  0  0
 21 23  1  0  0  0
 22 28  1  0  0  0
 22 32  2  0  0  0
 26 27  1  0  0  0
 28102  1  0  0  0
 28103  1  0  0  0
 29104  1  0  0  0
 29105  1  0  0  0
 33 34  1  0  0  0
 33 66  1  0  0  0
 33 70  2  0  0  0
 34 36  1  0  0  0
 34 59  1  0  0  0
 34106  1  0  0  0
 35 44  2  0  0  0
 35 45  1  0  0  0
 35 68  1  0  0  0
 36 56  1  0  0  0
 36107  1  0  0  0
 37 39  1  0  0  0
 37 47  1  0  0  0
 37 66  1  0  0  0
 37108  1  0  0  0
 38 43  2  0  0  0
 38 46  1  0  0  0
 38 47  1  0  0  0
 39 64  1  0  0  0
 39 67  2  0  0  0
 40 52  1  0  0  0
 40 53  2  0  0  0
 40 58  1  0  0  0
 41109  1  0  0  0
 41110  1  0  0  0
 41111  1  0  0  0
 41 48  1  0  0  0
 42 43  1  0  0  0
 42 66  1  0  0  0
 42112  1  0  0  0
 42113  1  0  0  0
 43 44  1  0  0  0
 44114  1  0  0  0
 45 46  2  0  0  0
 45115  1  0  0  0
 46116  1  0  0  0
 47117  1  0  0  0
 47118  1  0  0  0
 48 56  1  0  0  0
 48 65  1  0  0  0
 48119  1  0  0  0
 49 50  1  0  0  0
 49 53  1  0  0  0
 49 64  1  0  0  0
 49120  1  0  0  0
 50 51  1  0  0  0
 50121  1  0  0  0
 50122  1  0  0  0
 51 52  1  0  0  0
 51123  1  0  0  0
 51124  1  0  0  0
 52125  1  0  0  0
 52126  1  0  0  0
 53 54  1  0  0  0
 54 55  2  0  0  0
 54127  1  0  0  0
 55 57  1  0  0  0
 55128  1  0  0  0
 56 69  2  0  0  0
 57 58  2  0  0  0
 57129  1  0  0  0
 58130  1  0  0  0
 59 60  1  0  0  0
 59 61  1  0  0  0
 59 62  1  0  0  0
 60131  1  0  0  0
 60132  1  0  0  0
 60133  1  0  0  0
 61134  1  0  0  0
 61135  1  0  0  0
 61136  1  0  0  0
 62137  1  0  0  0
 62138  1  0  0  0
 62139  1  0  0  0
 63 65  1  0  0  0
 63140  1  0  0  0
 63141  1  0  0  0
 63142  1  0  0  0
 64143  1  0  0  0
 65144  1  0  0  0
 68 81  1  0  0  0
 71 72  2  0  0  0
 71 74  1  0  0  0
 71145  1  0  0  0
 72 76  1  0  0  0
 72146  1  0  0  0
 73 75  1  0  0  0
 73 76  2  0  0  0
 73147  1  0  0  0
 74 75  2  0  0  0
 74 78  1  0  0  0
 75 79  1  0  0  0
 76 85  1  0  0  0
 77 80  1  0  0  0
 77 82  1  0  0  0
 77 84  2  0  0  0
 78 82  1  0  0  0
 78148  1  0  0  0
 78149  1  0  0  0
 79 83  1  0  0  0
 79150  1  0  0  0
 79151  1  0  0  0
 80 81  1  0  0  0
 80152  1  0  0  0
 80153  1  0  0  0
 81154  1  0  0  0
 81155  1  0  0  0
 82156  1  0  0  0
 83157  1  0  0  0
M  ISO  4   1 100  68 101  81 101  83 100
M  END
> <chiral flag>
0

> <version>
0

> <s_m_source_file>
/data/baiqing/PycharmProjects/Reinvent-master-3.2/result/LINK_invent/BTK/process_docking_weight1_custom_product_contain_oxygen_bond_distance_aromatic_linkinvent_7_9_3/rearranged_h_0034.sdf

> <i_m_source_file_index>
48

> <r_mmod_Potential_Energy-OPLS-2005>
-125.854545593262

> <r_mmod_Stretch_Energy-OPLS-2005>
64.9742660522461

> <r_mmod_Bend_Energy-OPLS-2005>
136.029769897461

> <r_mmod_Torsional_Energy-OPLS-2005>
196.47412109375

> <r_mmod_Improper_Torsional_Energy-OPLS-2005>
4.1579270362854

> <r_mmod_Van_der_Waal_Energy-OPLS-2005>
160.259948730469

> <r_mmod_Electrostatic_Energy-OPLS-2005>
-475.322998046875

> <r_mmod_Solvation_Energy-OPLS-2005>
-245.598770141602

> <b_mmod_Minimization_Converged-OPLS-2005>
0

> <r_mmod_RMS_Derivative-OPLS-2005>
1.87972319126129

$$$$
48
                    3D
 Structure written by MMmdl.
164173  0  0  1  0            999 V2000
  -30.6280  -14.6296   20.5165 C   0  0  0  0  0  0
  -30.4416  -12.3879   19.4625 C   0  0  0  0  0  0
  -29.5154  -12.5138   18.2327 C   0  0  0  0  0  0
  -28.0366  -12.3557   18.6392 C   0  0  0  0  0  0
  -27.6604  -13.2178   19.8746 C   0  0  2  0  0  0
  -28.7019  -13.0590   21.0067 C   0  0  0  0  0  0
  -25.2601  -13.8174   20.5714 C   0  0  0  0  0  0
  -24.1858  -13.0440   20.9193 C   0  0  0  0  0  0
  -24.6429  -11.6910   20.8751 C   0  0  0  0  0  0
  -23.9091  -10.4291   21.0406 C   0  0  0  0  0  0
  -24.3634   -9.4199   21.9180 C   0  0  0  0  0  0
  -23.6305   -8.2236   22.0747 C   0  0  0  0  0  0
  -22.4285   -8.0284   21.3541 C   0  0  0  0  0  0
  -21.9927   -9.0259   20.4641 C   0  0  0  0  0  0
  -22.7264  -10.2133   20.3052 C   0  0  0  0  0  0
  -21.6846   -6.0752   22.5292 C   0  0  0  0  0  0
  -21.4010   -6.5652   23.8229 C   0  0  0  0  0  0
  -21.3655   -5.6798   24.9185 C   0  0  0  0  0  0
  -21.6045   -4.3064   24.7229 C   0  0  0  0  0  0
  -21.8821   -3.8161   23.4349 C   0  0  0  0  0  0
  -21.9189   -4.6980   22.3408 C   0  0  0  0  0  0
  -22.7879  -13.5229   21.1854 C   0  0  0  0  0  0
  -22.1655   -4.2169   21.0981 F   0  0  0  0  0  0
  -21.5623   -3.4543   25.7737 F   0  0  0  0  0  0
  -30.0220  -13.4014   20.4524 N   0  0  0  0  0  0
  -26.3037  -12.9357   20.3373 N   0  0  0  0  0  0
  -25.9358  -11.6508   20.5777 N   0  0  0  0  0  0
  -22.0517  -12.8211   22.0402 N   0  0  0  0  0  0
  -25.4341  -15.1894   20.4144 N   0  0  0  0  0  0
  -31.7602  -14.8114   20.0590 O   0  0  0  0  0  0
  -21.6631   -6.8894   21.4254 O   0  0  0  0  0  0
  -22.3570  -14.5542   20.6718 O   0  0  0  0  0  0
  -24.6240  -31.8591   23.2007 C   0  0  0  0  0  0
  -25.9094  -32.4770   23.8342 C   0  0  1  0  0  0
  -27.2334  -27.3309   20.1249 C   0  0  0  0  0  0
  -25.5927  -33.8571   24.2271 N   0  0  0  0  0  0
  -23.4181  -30.4792   21.5434 C   0  0  2  0  0  0
  -24.8672  -28.9278   20.1132 C   0  0  0  0  0  0
  -22.7460  -29.4612   22.4946 C   0  0  0  0  0  0
  -18.0282  -28.1383   22.8475 C   0  0  0  0  0  0
  -24.1484  -36.7298   23.2639 C   0  0  0  0  0  0
  -25.9554  -30.7938   21.3689 C   0  0  0  0  0  0
  -26.0317  -29.4178   20.7183 C   0  0  0  0  0  0
  -27.2187  -28.6312   20.7113 C   0  0  0  0  0  0
  -26.0555  -26.8886   19.4879 C   0  0  0  0  0  0
  -24.8804  -27.6686   19.4880 C   0  0  0  0  0  0
  -23.6327  -29.8061   20.1604 C   0  0  0  0  0  0
  -25.4107  -36.3076   24.0323 C   0  0  1  0  0  0
  -20.5878  -28.3672   23.1285 C   0  0  2  0  0  0
  -20.6764  -26.9404   22.5391 C   0  0  0  0  0  0
  -19.5743  -26.6373   21.5196 C   0  0  0  0  0  0
  -18.1926  -26.7931   22.1607 C   0  0  0  0  0  0
  -19.1533  -28.8840   23.2883 C   0  0  0  0  0  0
  -18.9463  -30.1441   23.8910 C   0  0  0  0  0  0
  -17.6463  -30.6570   24.0595 C   0  0  0  0  0  0
  -25.9046  -34.9442   23.5092 C   0  0  0  0  0  0
  -16.5354  -29.9075   23.6349 C   0  0  0  0  0  0
  -16.7269  -28.6503   23.0344 C   0  0  0  0  0  0
  -26.4478  -31.6573   25.0708 C   0  0  0  0  0  0
  -25.3709  -31.3698   26.1432 C   0  0  0  0  0  0
  -27.0330  -30.3006   24.6145 C   0  0  0  0  0  0
  -27.6048  -32.4302   25.7480 C   0  0  0  0  0  0
  -27.5567  -37.1794   24.8464 C   0  0  0  0  0  0
  -21.4176  -29.3035   22.3685 N   0  0  0  0  0  0
  -26.4282  -37.3773   23.9405 N   0  0  0  0  0  0
  -24.6846  -31.0611   22.0954 N   0  0  0  0  0  0
  -23.4183  -28.8151   23.3020 O   0  0  0  0  0  0
  -28.3738  -26.5196   20.1248 O   0  0  0  0  0  0
  -26.5615  -34.8911   22.4660 O   0  0  0  0  0  0
  -23.5408  -32.1396   23.7337 O   0  0  0  0  0  0
  -29.6352  -19.4740   21.4175 C   0  0  0  0  0  0
  -29.8306  -17.5638   19.3751 C   0  0  0  0  0  0
  -29.7748  -18.0814   21.7284 C   0  0  0  0  0  0
  -29.5458  -19.9448   20.0790 C   0  0  0  0  0  0
  -29.8819  -17.0879   20.7087 C   0  0  0  0  0  0
  -29.6608  -18.9454   19.0717 C   0  0  0  0  0  0
  -27.1873  -22.2863   20.7412 C   0  0  0  0  0  0
  -26.6181  -21.0690   20.8208 C   0  0  0  0  0  0
  -26.3899  -23.5715   21.0015 C   0  0  0  0  0  0
  -27.1970  -24.7359   21.6073 C   0  0  0  0  0  0
  -28.8514  -23.9341   19.8233 C   0  0  0  0  0  0
  -28.3952  -25.1567   20.7281 C   0  0  1  0  0  0
  -29.8096  -17.6595   23.1869 C   0  0  0  0  0  0
  -29.4034  -21.4629   19.6439 C   0  0  0  0  0  0
  -29.8824  -15.6584   21.0249 N   0  0  0  0  0  0
  -28.6548  -22.5410   20.4302 N   0  3  2  0  0  0
  -29.6093  -19.3121   17.7683 F   0  0  0  0  0  0
  -31.4841  -12.5099   19.1645 H   0  0  0  0  0  0
  -30.3734  -11.3885   19.8950 H   0  0  0  0  0  0
  -29.7799  -11.7652   17.4849 H   0  0  0  0  0  0
  -29.6649  -13.4846   17.7586 H   0  0  0  0  0  0
  -27.8680  -11.3009   18.8599 H   0  0  0  0  0  0
  -27.3879  -12.5968   17.7964 H   0  0  0  0  0  0
  -27.6852  -14.2575   19.5476 H   0  0  0  0  0  0
  -28.7093  -12.0345   21.3808 H   0  0  0  0  0  0
  -28.4450  -13.6820   21.8648 H   0  0  0  0  0  0
  -25.2778   -9.5661   22.4763 H   0  0  0  0  0  0
  -24.0007   -7.4616   22.7458 H   0  0  0  0  0  0
  -21.0859   -8.8790   19.8944 H   0  0  0  0  0  0
  -22.3733  -10.9677   19.6163 H   0  0  0  0  0  0
  -21.2008   -7.6159   23.9745 H   0  0  0  0  0  0
  -21.1471   -6.0522   25.9088 H   0  0  0  0  0  0
  -22.0607   -2.7626   23.2845 H   0  0  0  0  0  0
  -22.4109  -11.9842   22.4758 H   0  0  0  0  0  0
  -21.1143  -13.1249   22.2618 H   0  0  0  0  0  0
  -24.6761  -15.8511   20.5379 H   0  0  0  0  0  0
  -26.2908  -15.6261   20.0987 H   0  0  0  0  0  0
  -26.7155  -32.5448   23.1088 H   0  0  0  0  0  0
  -25.0099  -33.9729   25.0431 H   0  0  0  0  0  0
  -22.7131  -31.2989   21.3951 H   0  0  0  0  0  0
  -23.3741  -35.9641   23.3308 H   0  0  0  0  0  0
  -24.3573  -36.8924   22.2056 H   0  0  0  0  0  0
  -23.7248  -37.6499   23.6665 H   0  0  0  0  0  0
  -26.0795  -31.5519   20.5937 H   0  0  0  0  0  0
  -26.8378  -30.8495   21.9931 H   0  0  0  0  0  0
  -28.1163  -29.0057   21.1837 H   0  0  0  0  0  0
  -26.0438  -25.9295   18.9915 H   0  0  0  0  0  0
  -23.9913  -27.2929   19.0007 H   0  0  0  0  0  0
  -23.7460  -30.5777   19.3990 H   0  0  0  0  0  0
  -22.7545  -29.2293   19.8647 H   0  0  0  0  0  0
  -25.1278  -36.1925   25.0814 H   0  0  0  0  0  0
  -20.9974  -28.3231   24.1407 H   0  0  0  0  0  0
  -20.5694  -26.2272   23.3576 H   0  0  0  0  0  0
  -21.6630  -26.7443   22.1172 H   0  0  0  0  0  0
  -19.6898  -25.6271   21.1243 H   0  0  0  0  0  0
  -19.6686  -27.3173   20.6715 H   0  0  0  0  0  0
  -17.4197  -26.6704   21.4001 H   0  0  0  0  0  0
  -18.0306  -26.0066   22.8988 H   0  0  0  0  0  0
  -19.7940  -30.7246   24.2298 H   0  0  0  0  0  0
  -17.5020  -31.6239   24.5216 H   0  0  0  0  0  0
  -15.5356  -30.2976   23.7679 H   0  0  0  0  0  0
  -15.8671  -28.0830   22.7047 H   0  0  0  0  0  0
  -24.5903  -30.7034   25.7747 H   0  0  0  0  0  0
  -24.8883  -32.2862   26.4840 H   0  0  0  0  0  0
  -25.8034  -30.8883   27.0215 H   0  0  0  0  0  0
  -26.2900  -29.6734   24.1210 H   0  0  0  0  0  0
  -27.4093  -29.7267   25.4625 H   0  0  0  0  0  0
  -27.8731  -30.4301   23.9316 H   0  0  0  0  0  0
  -27.2669  -33.3616   26.2038 H   0  0  0  0  0  0
  -28.3865  -32.6844   25.0305 H   0  0  0  0  0  0
  -28.0704  -31.8438   26.5410 H   0  0  0  0  0  0
  -28.2573  -38.0095   24.7503 H   0  0  0  0  0  0
  -28.1061  -36.2624   24.6288 H   0  0  0  0  0  0
  -27.2286  -37.1443   25.8866 H   0  0  0  0  0  0
  -20.9348  -29.8771   21.6912 H   0  0  0  0  0  0
  -26.0159  -38.2844   24.1419 H   0  0  0  0  0  0
  -29.5762  -20.1889   22.2262 H   0  0  0  0  0  0
  -29.8852  -16.8611   18.5555 H   0  0  0  0  0  0
  -25.5683  -20.9833   21.0642 H   0  0  0  0  0  0
  -27.1324  -20.1398   20.6550 H   0  0  0  0  0  0
  -25.5670  -23.3332   21.6764 H   0  0  0  0  0  0
  -25.9255  -23.8786   20.0642 H   0  0  0  0  0  0
  -27.5788  -24.4087   22.5753 H   0  0  0  0  0  0
  -26.5411  -25.5703   21.8492 H   0  0  0  0  0  0
  -29.9001  -24.0749   19.5616 H   0  0  0  0  0  0
  -28.3019  -23.9701   18.8818 H   0  0  0  0  0  0
  -29.2100  -25.2743   21.4441 H   0  0  0  0  0  0
  -29.8470  -18.5234   23.8507 H   0  0  0  0  0  0
  -30.6904  -17.0474   23.3881 H   0  0  0  0  0  0
  -28.9221  -17.0789   23.4399 H   0  0  0  0  0  0
  -28.9659  -21.4730   18.6453 H   0  0  0  0  0  0
  -30.4272  -21.8116   19.5056 H   0  0  0  0  0  0
  -29.0899  -15.3491   21.5671 H   0  0  0  0  0  0
  -29.1470  -22.5679   21.3121 H   0  0  0  0  0  0
  1 25  1  0  0  0
  1 30  2  0  0  0
  1 85  1  0  0  0
  2  3  1  0  0  0
  2 25  1  0  0  0
  2 88  1  0  0  0
  2 89  1  0  0  0
  3  4  1  0  0  0
  3 90  1  0  0  0
  3 91  1  0  0  0
  4  5  1  0  0  0
  4 92  1  0  0  0
  4 93  1  0  0  0
  5  6  1  0  0  0
  5 26  1  0  0  0
  5 94  1  0  0  0
  6 25  1  0  0  0
  6 95  1  0  0  0
  6 96  1  0  0  0
  7  8  2  0  0  0
  7 26  1  0  0  0
  7 29  1  0  0  0
  8  9  1  0  0  0
  8 22  1  0  0  0
  9 10  1  0  0  0
  9 27  2  0  0  0
 10 11  2  0  0  0
 10 15  1  0  0  0
 11 12  1  0  0  0
 11 97  1  0  0  0
 12 13  2  0  0  0
 12 98  1  0  0  0
 13 14  1  0  0  0
 13 31  1  0  0  0
 14 15  2  0  0  0
 14 99  1  0  0  0
 15100  1  0  0  0
 16 17  2  0  0  0
 16 21  1  0  0  0
 16 31  1  0  0  0
 17 18  1  0  0  0
 17101  1  0  0  0
 18 19  2  0  0  0
 18102  1  0  0  0
 19 20  1  0  0  0
 19 24  1  0  0  0
 20 21  2  0  0  0
 20103  1  0  0  0
 21 23  1  0  0  0
 22 28  1  0  0  0
 22 32  2  0  0  0
 26 27  1  0  0  0
 28104  1  0  0  0
 28105  1  0  0  0
 29106  1  0  0  0
 29107  1  0  0  0
 33 34  1  0  0  0
 33 66  1  0  0  0
 33 70  2  0  0  0
 34 36  1  0  0  0
 34 59  1  0  0  0
 34108  1  0  0  0
 35 44  2  0  0  0
 35 45  1  0  0  0
 35 68  1  0  0  0
 36 56  1  0  0  0
 36109  1  0  0  0
 37 39  1  0  0  0
 37 47  1  0  0  0
 37 66  1  0  0  0
 37110  1  0  0  0
 38 43  2  0  0  0
 38 46  1  0  0  0
 38 47  1  0  0  0
 39 64  1  0  0  0
 39 67  2  0  0  0
 40 52  1  0  0  0
 40 53  2  0  0  0
 40 58  1  0  0  0
 41111  1  0  0  0
 41112  1  0  0  0
 41113  1  0  0  0
 41 48  1  0  0  0
 42 43  1  0  0  0
 42 66  1  0  0  0
 42114  1  0  0  0
 42115  1  0  0  0
 43 44  1  0  0  0
 44116  1  0  0  0
 45 46  2  0  0  0
 45117  1  0  0  0
 46118  1  0  0  0
 47119  1  0  0  0
 47120  1  0  0  0
 48 56  1  0  0  0
 48 65  1  0  0  0
 48121  1  0  0  0
 49 50  1  0  0  0
 49 53  1  0  0  0
 49 64  1  0  0  0
 49122  1  0  0  0
 50 51  1  0  0  0
 50123  1  0  0  0
 50124  1  0  0  0
 51 52  1  0  0  0
 51125  1  0  0  0
 51126  1  0  0  0
 52127  1  0  0  0
 52128  1  0  0  0
 53 54  1  0  0  0
 54 55  2  0  0  0
 54129  1  0  0  0
 55 57  1  0  0  0
 55130  1  0  0  0
 56 69  2  0  0  0
 57 58  2  0  0  0
 57131  1  0  0  0
 58132  1  0  0  0
 59 60  1  0  0  0
 59 61  1  0  0  0
 59 62  1  0  0  0
 60133  1  0  0  0
 60134  1  0  0  0
 60135  1  0  0  0
 61136  1  0  0  0
 61137  1  0  0  0
 61138  1  0  0  0
 62139  1  0  0  0
 62140  1  0  0  0
 62141  1  0  0  0
 63 65  1  0  0  0
 63142  1  0  0  0
 63143  1  0  0  0
 63144  1  0  0  0
 64145  1  0  0  0
 65146  1  0  0  0
 68 82  1  0  0  0
 71 73  2  0  0  0
 71 74  1  0  0  0
 71147  1  0  0  0
 72 75  2  0  0  0
 72 76  1  0  0  0
 72148  1  0  0  0
 73 75  1  0  0  0
 73 83  1  0  0  0
 74 76  2  0  0  0
 74 84  1  0  0  0
 75 85  1  0  0  0
 76 87  1  0  0  0
 77 78  2  0  0  0
 77 79  1  0  0  0
 77 86  1  0  0  0
 78149  1  0  0  0
 78150  1  0  0  0
 79 80  1  0  0  0
 79151  1  0  0  0
 79152  1  0  0  0
 80 82  1  0  0  0
 80153  1  0  0  0
 80154  1  0  0  0
 81 82  1  0  0  0
 81 86  1  0  0  0
 81155  1  0  0  0
 81156  1  0  0  0
 82157  1  0  0  0
 83158  1  0  0  0
 83159  1  0  0  0
 83160  1  0  0  0
 84161  1  0  0  0
 84162  1  0  0  0
 84 86  1  0  0  0
 85163  1  0  0  0
 86164  1  0  0  0
M  CHG  1  86   1
M  ISO  4   1 100  68 101  82 101  85 100
M  END
> <chiral flag>
0

> <version>
0

> <s_m_source_file>
/data/baiqing/PycharmProjects/Reinvent-master-3.2/result/LINK_invent/BTK/process_docking_weight1_custom_product_contain_oxygen_bond_distance_aromatic_linkinvent_7_9_3/rearranged_h_0034.sdf

> <i_m_source_file_index>
49

> <r_mmod_Potential_Energy-OPLS-2005>
8.32031536102295

> <r_mmod_Stretch_Energy-OPLS-2005>
87.1883773803711

> <r_mmod_Bend_Energy-OPLS-2005>
172.599563598633

> <r_mmod_Torsional_Energy-OPLS-2005>
280.764739990234

> <r_mmod_Improper_Torsional_Energy-OPLS-2005>
3.77253460884094

> <r_mmod_Van_der_Waal_Energy-OPLS-2005>
149.862884521484

> <r_mmod_Electrostatic_Energy-OPLS-2005>
-300.005950927734

> <r_mmod_Solvation_Energy-OPLS-2005>
-427.329437255859

> <b_mmod_Minimization_Converged-OPLS-2005>
0

> <r_mmod_RMS_Derivative-OPLS-2005>
1.75806725025177

$$$$
49
                    3D
 Structure written by MMmdl.
169178  0  0  1  0            999 V2000
  -30.6236  -14.7579   20.4111 C   0  0  0  0  0  0
  -30.4404  -12.4396   19.4814 C   0  0  0  0  0  0
  -29.5186  -12.3987   18.2414 C   0  0  0  0  0  0
  -28.0324  -12.2950   18.6496 C   0  0  0  0  0  0
  -27.6344  -13.2156   19.8368 C   0  0  2  0  0  0
  -28.6862  -13.1962   20.9644 C   0  0  0  0  0  0
  -25.2532  -13.8154   20.5724 C   0  0  0  0  0  0
  -24.1799  -13.0424   20.9219 C   0  0  0  0  0  0
  -24.6369  -11.6896   20.8768 C   0  0  0  0  0  0
  -23.9047  -10.4281   21.0426 C   0  0  0  0  0  0
  -24.3609   -9.4196   21.9197 C   0  0  0  0  0  0
  -23.6287   -8.2231   22.0760 C   0  0  0  0  0  0
  -22.4271   -8.0274   21.3550 C   0  0  0  0  0  0
  -21.9904   -9.0243   20.4649 C   0  0  0  0  0  0
  -22.7228  -10.2125   20.3064 C   0  0  0  0  0  0
  -21.6848   -6.0730   22.5283 C   0  0  0  0  0  0
  -21.4006   -6.5635   23.8215 C   0  0  0  0  0  0
  -21.3662   -5.6791   24.9181 C   0  0  0  0  0  0
  -21.6048   -4.3054   24.7233 C   0  0  0  0  0  0
  -21.8813   -3.8145   23.4354 C   0  0  0  0  0  0
  -21.9189   -4.6959   22.3408 C   0  0  0  0  0  0
  -22.7826  -13.5225   21.1875 C   0  0  0  0  0  0
  -22.1658   -4.2148   21.0985 F   0  0  0  0  0  0
  -21.5640   -3.4534   25.7744 F   0  0  0  0  0  0
  -29.9800  -13.5376   20.3611 N   0  0  0  0  0  0
  -26.2918  -12.9308   20.3284 N   0  0  0  0  0  0
  -25.9291  -11.6477   20.5793 N   0  0  0  0  0  0
  -22.0470  -12.8206   22.0424 N   0  0  0  0  0  0
  -25.4291  -15.1877   20.4174 N   0  0  0  0  0  0
  -31.8418  -14.8070   20.2186 O   0  0  0  0  0  0
  -21.6636   -6.8871   21.4244 O   0  0  0  0  0  0
  -22.3518  -14.5533   20.6726 O   0  0  0  0  0  0
  -24.6302  -31.8571   23.2018 C   0  0  0  0  0  0
  -25.9136  -32.4762   23.8352 C   0  0  1  0  0  0
  -27.2177  -27.2777   20.1239 C   0  0  0  0  0  0
  -25.5937  -33.8566   24.2270 N   0  0  0  0  0  0
  -23.4262  -30.4824   21.5454 C   0  0  2  0  0  0
  -24.8719  -28.9368   20.1103 C   0  0  0  0  0  0
  -22.7498  -29.4617   22.4924 C   0  0  0  0  0  0
  -18.0289  -28.1392   22.8484 C   0  0  0  0  0  0
  -24.1484  -36.7284   23.2643 C   0  0  0  0  0  0
  -25.9725  -30.7742   21.3812 C   0  0  0  0  0  0
  -26.0445  -29.4003   20.7201 C   0  0  0  0  0  0
  -27.2204  -28.5846   20.7163 C   0  0  0  0  0  0
  -26.0237  -26.8912   19.4696 C   0  0  0  0  0  0
  -24.8668  -27.6890   19.4738 C   0  0  0  0  0  0
  -23.6426  -29.8212   20.1599 C   0  0  0  0  0  0
  -25.4112  -36.3075   24.0332 C   0  0  1  0  0  0
  -20.5893  -28.3702   23.1269 C   0  0  2  0  0  0
  -20.6779  -26.9422   22.5404 C   0  0  0  0  0  0
  -19.5753  -26.6394   21.5206 C   0  0  0  0  0  0
  -18.1934  -26.7935   22.1623 C   0  0  0  0  0  0
  -19.1543  -28.8865   23.2874 C   0  0  0  0  0  0
  -18.9462  -30.1466   23.8891 C   0  0  0  0  0  0
  -17.6462  -30.6594   24.0568 C   0  0  0  0  0  0
  -25.9054  -34.9448   23.5101 C   0  0  0  0  0  0
  -16.5353  -29.9089   23.6338 C   0  0  0  0  0  0
  -16.7276  -28.6510   23.0353 C   0  0  0  0  0  0
  -26.4505  -31.6583   25.0737 C   0  0  0  0  0  0
  -25.3726  -31.3722   26.1451 C   0  0  0  0  0  0
  -27.0367  -30.3002   24.6229 C   0  0  0  0  0  0
  -27.6053  -32.4328   25.7512 C   0  0  0  0  0  0
  -27.5577  -37.1803   24.8467 C   0  0  0  0  0  0
  -21.4205  -29.3053   22.3663 N   0  0  0  0  0  0
  -26.4289  -37.3771   23.9408 N   0  0  0  0  0  0
  -24.6954  -31.0546   22.0992 N   0  0  0  0  0  0
  -23.4203  -28.8144   23.3007 O   0  0  0  0  0  0
  -28.3076  -26.3766   20.2013 O   0  0  0  0  0  0
  -26.5620  -34.8923   22.4668 O   0  0  0  0  0  0
  -23.5452  -32.1386   23.7317 O   0  0  0  0  0  0
  -30.2277  -18.5351   23.0371 C   0  0  0  0  0  0
  -29.7465  -18.5220   20.3248 C   0  0  0  0  0  0
  -30.0665  -19.7737   22.3760 C   0  0  0  0  0  0
  -30.1702  -17.2860   22.3756 C   0  0  0  0  0  0
  -29.7947  -19.8117   20.9860 C   0  0  0  0  0  0
  -29.9507  -17.2242   20.9701 C   0  0  0  0  0  0
  -26.6931  -23.1597   21.6587 C   0  0  0  0  0  0
  -27.2425  -24.6061   21.6012 C   0  0  0  0  0  0
  -27.4406  -22.1348   20.7715 C   0  0  0  0  0  0
  -29.2167  -23.8073   20.2327 C   0  0  0  0  0  0
  -28.0301  -24.8980   20.3076 C   0  0  2  0  0  0
  -30.2178  -21.0416   23.2027 C   0  0  0  0  0  0
  -30.3296  -16.0455   23.2424 C   0  0  0  0  0  0
  -29.3818  -16.0820   18.8515 C   0  0  0  0  0  0
  -29.7035  -21.2016   20.2006 C   0  0  0  0  0  0
  -29.8630  -15.9228   20.2330 N   0  0  0  0  0  0
  -28.8991  -22.3871   20.7545 N   0  3  2  0  0  0
  -31.4786  -12.5659   19.1697 H   0  0  0  0  0  0
  -30.4042  -11.4902   20.0175 H   0  0  0  0  0  0
  -29.7812  -11.5371   17.6261 H   0  0  0  0  0  0
  -29.6930  -13.2574   17.5973 H   0  0  0  0  0  0
  -27.8560  -11.2548   18.9258 H   0  0  0  0  0  0
  -27.3902  -12.4874   17.7895 H   0  0  0  0  0  0
  -27.5935  -14.2233   19.4362 H   0  0  0  0  0  0
  -28.7294  -12.2190   21.4474 H   0  0  0  0  0  0
  -28.4163  -13.9153   21.7370 H   0  0  0  0  0  0
  -25.2759   -9.5662   22.4768 H   0  0  0  0  0  0
  -24.0001   -7.4611   22.7465 H   0  0  0  0  0  0
  -21.0849   -8.8748   19.8939 H   0  0  0  0  0  0
  -22.3699  -10.9659   19.6163 H   0  0  0  0  0  0
  -21.1984   -7.6141   23.9716 H   0  0  0  0  0  0
  -21.1498   -6.0528   25.9084 H   0  0  0  0  0  0
  -22.0593   -2.7608   23.2859 H   0  0  0  0  0  0
  -22.4087  -11.9854   22.4786 H   0  0  0  0  0  0
  -21.1085  -13.1218   22.2629 H   0  0  0  0  0  0
  -24.6740  -15.8527   20.5426 H   0  0  0  0  0  0
  -26.2996  -15.6235   20.1399 H   0  0  0  0  0  0
  -26.7209  -32.5409   23.1101 H   0  0  0  0  0  0
  -25.0105  -33.9706   25.0429 H   0  0  0  0  0  0
  -22.7228  -31.3055   21.4028 H   0  0  0  0  0  0
  -23.3755  -35.9607   23.3299 H   0  0  0  0  0  0
  -24.3570  -36.8906   22.2056 H   0  0  0  0  0  0
  -23.7231  -37.6485   23.6663 H   0  0  0  0  0  0
  -26.1141  -31.5365   20.6140 H   0  0  0  0  0  0
  -26.8496  -30.8185   22.0151 H   0  0  0  0  0  0
  -28.1145  -28.9322   21.2146 H   0  0  0  0  0  0
  -25.9376  -25.9517   18.9501 H   0  0  0  0  0  0
  -23.9736  -27.3307   18.9808 H   0  0  0  0  0  0
  -23.7667  -30.6005   19.4068 H   0  0  0  0  0  0
  -22.7603  -29.2558   19.8541 H   0  0  0  0  0  0
  -25.1293  -36.1933   25.0827 H   0  0  0  0  0  0
  -20.9990  -28.3277   24.1389 H   0  0  0  0  0  0
  -20.5675  -26.2311   23.3607 H   0  0  0  0  0  0
  -21.6650  -26.7453   22.1201 H   0  0  0  0  0  0
  -19.6921  -25.6308   21.1231 H   0  0  0  0  0  0
  -19.6689  -27.3210   20.6739 H   0  0  0  0  0  0
  -17.4198  -26.6675   21.4032 H   0  0  0  0  0  0
  -18.0342  -26.0077   22.9021 H   0  0  0  0  0  0
  -19.7937  -30.7289   24.2255 H   0  0  0  0  0  0
  -17.5012  -31.6272   24.5175 H   0  0  0  0  0  0
  -15.5354  -30.2985   23.7670 H   0  0  0  0  0  0
  -15.8674  -28.0829   22.7070 H   0  0  0  0  0  0
  -24.5907  -30.7068   25.7771 H   0  0  0  0  0  0
  -24.8918  -32.2891   26.4872 H   0  0  0  0  0  0
  -25.8043  -30.8898   27.0229 H   0  0  0  0  0  0
  -26.2968  -29.6738   24.1234 H   0  0  0  0  0  0
  -27.4034  -29.7270   25.4755 H   0  0  0  0  0  0
  -27.8846  -30.4282   23.9497 H   0  0  0  0  0  0
  -27.2659  -33.3632   26.2076 H   0  0  0  0  0  0
  -28.3875  -32.6880   25.0349 H   0  0  0  0  0  0
  -28.0713  -31.8464   26.5441 H   0  0  0  0  0  0
  -28.2591  -38.0102   24.7516 H   0  0  0  0  0  0
  -28.1076  -36.2635   24.6293 H   0  0  0  0  0  0
  -27.2291  -37.1450   25.8867 H   0  0  0  0  0  0
  -20.9385  -29.8783   21.6879 H   0  0  0  0  0  0
  -26.0171  -38.2847   24.1403 H   0  0  0  0  0  0
  -30.4117  -18.5448   24.1031 H   0  0  0  0  0  0
  -29.5718  -18.5628   19.2606 H   0  0  0  0  0  0
  -25.6432  -23.1610   21.3630 H   0  0  0  0  0  0
  -26.7014  -22.8237   22.6965 H   0  0  0  0  0  0
  -27.9014  -24.7806   22.4518 H   0  0  0  0  0  0
  -26.4108  -25.2982   21.7316 H   0  0  0  0  0  0
  -27.0634  -22.1728   19.7481 H   0  0  0  0  0  0
  -27.2326  -21.1261   21.1327 H   0  0  0  0  0  0
  -30.0771  -24.1748   20.7926 H   0  0  0  0  0  0
  -29.5452  -23.7368   19.1953 H   0  0  0  0  0  0
  -27.3987  -24.6283   19.4646 H   0  0  0  0  0  0
  -30.6527  -20.8240   24.1789 H   0  0  0  0  0  0
  -29.2497  -21.5106   23.3793 H   0  0  0  0  0  0
  -30.8825  -21.7566   22.7173 H   0  0  0  0  0  0
  -30.3193  -16.2966   24.3037 H   0  0  0  0  0  0
  -31.2771  -15.5456   23.0414 H   0  0  0  0  0  0
  -29.5115  -15.3469   23.0809 H   0  0  0  0  0  0
  -28.4249  -16.6047   18.8340 H   0  0  0  0  0  0
  -29.2251  -15.1542   18.3164 H   0  0  0  0  0  0
  -30.1037  -16.6459   18.2597 H   0  0  0  0  0  0
  -29.3548  -21.0031   19.1865 H   0  0  0  0  0  0
  -30.7336  -21.5423   20.0879 H   0  0  0  0  0  0
  -29.1598  -22.4104   21.7287 H   0  0  0  0  0  0
  1 25  1  0  0  0
  1 30  2  0  0  0
  1 86  1  0  0  0
  2  3  1  0  0  0
  2 25  1  0  0  0
  2 88  1  0  0  0
  2 89  1  0  0  0
  3  4  1  0  0  0
  3 90  1  0  0  0
  3 91  1  0  0  0
  4  5  1  0  0  0
  4 92  1  0  0  0
  4 93  1  0  0  0
  5  6  1  0  0  0
  5 26  1  0  0  0
  5 94  1  0  0  0
  6 25  1  0  0  0
  6 95  1  0  0  0
  6 96  1  0  0  0
  7  8  2  0  0  0
  7 26  1  0  0  0
  7 29  1  0  0  0
  8  9  1  0  0  0
  8 22  1  0  0  0
  9 10  1  0  0  0
  9 27  2  0  0  0
 10 11  2  0  0  0
 10 15  1  0  0  0
 11 12  1  0  0  0
 11 97  1  0  0  0
 12 13  2  0  0  0
 12 98  1  0  0  0
 13 14  1  0  0  0
 13 31  1  0  0  0
 14 15  2  0  0  0
 14 99  1  0  0  0
 15100  1  0  0  0
 16 17  2  0  0  0
 16 21  1  0  0  0
 16 31  1  0  0  0
 17 18  1  0  0  0
 17101  1  0  0  0
 18 19  2  0  0  0
 18102  1  0  0  0
 19 20  1  0  0  0
 19 24  1  0  0  0
 20 21  2  0  0  0
 20103  1  0  0  0
 21 23  1  0  0  0
 22 28  1  0  0  0
 22 32  2  0  0  0
 26 27  1  0  0  0
 28104  1  0  0  0
 28105  1  0  0  0
 29106  1  0  0  0
 29107  1  0  0  0
 33 34  1  0  0  0
 33 66  1  0  0  0
 33 70  2  0  0  0
 34 36  1  0  0  0
 34 59  1  0  0  0
 34108  1  0  0  0
 35 44  2  0  0  0
 35 45  1  0  0  0
 35 68  1  0  0  0
 36 56  1  0  0  0
 36109  1  0  0  0
 37 39  1  0  0  0
 37 47  1  0  0  0
 37 66  1  0  0  0
 37110  1  0  0  0
 38 43  2  0  0  0
 38 46  1  0  0  0
 38 47  1  0  0  0
 39 64  1  0  0  0
 39 67  2  0  0  0
 40 52  1  0  0  0
 40 53  2  0  0  0
 40 58  1  0  0  0
 41111  1  0  0  0
 41112  1  0  0  0
 41113  1  0  0  0
 41 48  1  0  0  0
 42 43  1  0  0  0
 42 66  1  0  0  0
 42114  1  0  0  0
 42115  1  0  0  0
 43 44  1  0  0  0
 44116  1  0  0  0
 45 46  2  0  0  0
 45117  1  0  0  0
 46118  1  0  0  0
 47119  1  0  0  0
 47120  1  0  0  0
 48 56  1  0  0  0
 48 65  1  0  0  0
 48121  1  0  0  0
 49 50  1  0  0  0
 49 53  1  0  0  0
 49 64  1  0  0  0
 49122  1  0  0  0
 50 51  1  0  0  0
 50123  1  0  0  0
 50124  1  0  0  0
 51 52  1  0  0  0
 51125  1  0  0  0
 51126  1  0  0  0
 52127  1  0  0  0
 52128  1  0  0  0
 53 54  1  0  0  0
 54 55  2  0  0  0
 54129  1  0  0  0
 55 57  1  0  0  0
 55130  1  0  0  0
 56 69  2  0  0  0
 57 58  2  0  0  0
 57131  1  0  0  0
 58132  1  0  0  0
 59 60  1  0  0  0
 59 61  1  0  0  0
 59 62  1  0  0  0
 60133  1  0  0  0
 60134  1  0  0  0
 60135  1  0  0  0
 61136  1  0  0  0
 61137  1  0  0  0
 61138  1  0  0  0
 62139  1  0  0  0
 62140  1  0  0  0
 62141  1  0  0  0
 63 65  1  0  0  0
 63142  1  0  0  0
 63143  1  0  0  0
 63144  1  0  0  0
 64145  1  0  0  0
 65146  1  0  0  0
 68 81  1  0  0  0
 71 73  2  0  0  0
 71 74  1  0  0  0
 71147  1  0  0  0
 72 75  2  0  0  0
 72 76  1  0  0  0
 72148  1  0  0  0
 73 75  1  0  0  0
 73 82  1  0  0  0
 74 76  2  0  0  0
 74 83  1  0  0  0
 75 85  1  0  0  0
 76 86  1  0  0  0
 77 78  1  0  0  0
 77 79  1  0  0  0
 77149  1  0  0  0
 77150  1  0  0  0
 78 81  1  0  0  0
 78151  1  0  0  0
 78152  1  0  0  0
 79 87  1  0  0  0
 79153  1  0  0  0
 79154  1  0  0  0
 80 81  1  0  0  0
 80 87  1  0  0  0
 80155  1  0  0  0
 80156  1  0  0  0
 81157  1  0  0  0
 82158  1  0  0  0
 82159  1  0  0  0
 82160  1  0  0  0
 83161  1  0  0  0
 83162  1  0  0  0
 83163  1  0  0  0
 84 86  1  0  0  0
 84164  1  0  0  0
 84165  1  0  0  0
 84166  1  0  0  0
 85167  1  0  0  0
 85168  1  0  0  0
 85 87  1  0  0  0
 87169  1  0  0  0
M  CHG  1  87   1
M  ISO  4   1 100  68 101  81 101  86 100
M  END
> <chiral flag>
0

> <version>
0

> <s_m_source_file>
/data/baiqing/PycharmProjects/Reinvent-master-3.2/result/LINK_invent/BTK/process_docking_weight1_custom_product_contain_oxygen_bond_distance_aromatic_linkinvent_7_9_3/rearranged_h_0034.sdf

> <i_m_source_file_index>
50

> <r_mmod_Potential_Energy-OPLS-2005>
311.392486572266

> <r_mmod_Stretch_Energy-OPLS-2005>
129.735610961914

> <r_mmod_Bend_Energy-OPLS-2005>
170.468963623047

> <r_mmod_Torsional_Energy-OPLS-2005>
342.596252441406

> <r_mmod_Improper_Torsional_Energy-OPLS-2005>
15.0573310852051

> <r_mmod_Van_der_Waal_Energy-OPLS-2005>
160.376876831055

> <r_mmod_Electrostatic_Energy-OPLS-2005>
-192.036163330078

> <r_mmod_Solvation_Energy-OPLS-2005>
-407.754241943359

> <b_mmod_Minimization_Converged-OPLS-2005>
0

> <r_mmod_RMS_Derivative-OPLS-2005>
0.927287340164185

$$$$
50
                    3D
 Structure written by MMmdl.
167176  0  0  1  0            999 V2000
  -30.5892  -14.6434   20.5300 C   0  0  0  0  0  0
  -30.4427  -12.4004   19.4517 C   0  0  0  0  0  0
  -29.5092  -12.5183   18.2248 C   0  0  0  0  0  0
  -28.0303  -12.3564   18.6313 C   0  0  0  0  0  0
  -27.6546  -13.2117   19.8706 C   0  0  2  0  0  0
  -28.6954  -13.0373   20.9984 C   0  0  0  0  0  0
  -25.2555  -13.8122   20.5661 C   0  0  0  0  0  0
  -24.1827  -13.0407   20.9197 C   0  0  0  0  0  0
  -24.6394  -11.6880   20.8739 C   0  0  0  0  0  0
  -23.9062  -10.4275   21.0407 C   0  0  0  0  0  0
  -24.3613   -9.4195   21.9188 C   0  0  0  0  0  0
  -23.6289   -8.2228   22.0753 C   0  0  0  0  0  0
  -22.4270   -8.0274   21.3545 C   0  0  0  0  0  0
  -21.9908   -9.0245   20.4644 C   0  0  0  0  0  0
  -22.7235  -10.2123   20.3056 C   0  0  0  0  0  0
  -21.6853   -6.0733   22.5285 C   0  0  0  0  0  0
  -21.4009   -6.5635   23.8215 C   0  0  0  0  0  0
  -21.3659   -5.6788   24.9176 C   0  0  0  0  0  0
  -21.6041   -4.3052   24.7224 C   0  0  0  0  0  0
  -21.8825   -3.8147   23.4348 C   0  0  0  0  0  0
  -21.9189   -4.6963   22.3406 C   0  0  0  0  0  0
  -22.7858  -13.5219   21.1859 C   0  0  0  0  0  0
  -22.1667   -4.2147   21.0987 F   0  0  0  0  0  0
  -21.5624   -3.4544   25.7739 F   0  0  0  0  0  0
  -30.0098  -13.4032   20.4479 N   0  0  0  0  0  0
  -26.2989  -12.9306   20.3321 N   0  0  0  0  0  0
  -25.9321  -11.6466   20.5756 N   0  0  0  0  0  0
  -22.0501  -12.8207   22.0413 N   0  0  0  0  0  0
  -25.4263  -15.1823   20.4049 N   0  0  0  0  0  0
  -31.7349  -14.8397   20.1105 O   0  0  0  0  0  0
  -21.6636   -6.8876   21.4247 O   0  0  0  0  0  0
  -22.3546  -14.5535   20.6726 O   0  0  0  0  0  0
  -24.6208  -31.8572   23.1985 C   0  0  0  0  0  0
  -25.9049  -32.4771   23.8333 C   0  0  1  0  0  0
  -27.2364  -27.3180   20.1430 C   0  0  0  0  0  0
  -25.5870  -33.8572   24.2267 N   0  0  0  0  0  0
  -23.4170  -30.4753   21.5401 C   0  0  2  0  0  0
  -24.8655  -28.9139   20.1224 C   0  0  0  0  0  0
  -22.7464  -29.4574   22.4923 C   0  0  0  0  0  0
  -18.0282  -28.1367   22.8471 C   0  0  0  0  0  0
  -24.1485  -36.7286   23.2647 C   0  0  0  0  0  0
  -25.9529  -30.7915   21.3633 C   0  0  0  0  0  0
  -26.0292  -29.4123   20.7201 C   0  0  0  0  0  0
  -27.2150  -28.6271   20.7133 C   0  0  0  0  0  0
  -26.0495  -26.8515   19.5421 C   0  0  0  0  0  0
  -24.8771  -27.6376   19.5277 C   0  0  0  0  0  0
  -23.6353  -29.7984   20.1593 C   0  0  0  0  0  0
  -25.4097  -36.3075   24.0350 C   0  0  1  0  0  0
  -20.5883  -28.3645   23.1294 C   0  0  2  0  0  0
  -20.6768  -26.9363   22.5418 C   0  0  0  0  0  0
  -19.5755  -26.6358   21.5207 C   0  0  0  0  0  0
  -18.1933  -26.7907   22.1606 C   0  0  0  0  0  0
  -19.1544  -28.8822   23.2878 C   0  0  0  0  0  0
  -18.9468  -30.1432   23.8881 C   0  0  0  0  0  0
  -17.6474  -30.6567   24.0549 C   0  0  0  0  0  0
  -25.9032  -34.9447   23.5112 C   0  0  0  0  0  0
  -16.5355  -29.9072   23.6326 C   0  0  0  0  0  0
  -16.7278  -28.6497   23.0333 C   0  0  0  0  0  0
  -26.4447  -31.6583   25.0704 C   0  0  0  0  0  0
  -25.3699  -31.3736   26.1468 C   0  0  0  0  0  0
  -27.0289  -30.3028   24.6087 C   0  0  0  0  0  0
  -27.6005  -32.4318   25.7475 C   0  0  0  0  0  0
  -27.5570  -37.1795   24.8470 C   0  0  0  0  0  0
  -21.4179  -29.3003   22.3700 N   0  0  0  0  0  0
  -26.4273  -37.3768   23.9416 N   0  0  0  0  0  0
  -24.6825  -31.0598   22.0919 N   0  0  0  0  0  0
  -23.4210  -28.8107   23.2975 O   0  0  0  0  0  0
  -28.4220  -26.5806   20.0901 O   0  0  0  0  0  0
  -26.5622  -34.8927   22.4694 O   0  0  0  0  0  0
  -23.5375  -32.1357   23.7315 O   0  0  0  0  0  0
  -30.6598  -17.8432   20.0806 C   0  0  0  0  0  0
  -30.5521  -19.2531   19.8975 C   0  0  0  0  0  0
  -28.4821  -19.2772   21.1451 C   0  0  0  0  0  0
  -29.4669  -20.0371   20.4215 C   0  0  0  0  0  0
  -28.6532  -17.8636   21.3975 C   0  0  0  0  0  0
  -29.7228  -17.1021   20.8304 C   0  0  0  0  0  0
  -28.4272  -23.2042   21.9147 C   0  0  0  0  0  0
  -28.7856  -22.5150   23.0126 C   0  0  0  0  0  0
  -28.0595  -24.6910   21.8515 C   0  0  0  0  0  0
  -28.3966  -23.9000   19.6157 C   0  0  0  0  0  0
  -28.5990  -25.1678   20.5095 C   0  0  1  0  0  0
  -31.6535  -19.8981   19.0674 C   0  0  0  0  0  0
  -27.1920  -19.9221   21.6512 C   0  0  0  0  0  0
  -27.6586  -17.1542   22.3201 C   0  0  0  0  0  0
  -29.5013  -21.6188   20.1350 C   0  0  0  0  0  0
  -29.7720  -15.6424   20.9999 N   0  0  0  0  0  0
  -28.4472  -22.6649   20.5042 N   0  3  1  0  0  0
  -31.4820  -12.5446   19.1498 H   0  0  0  0  0  0
  -30.3916  -11.3968   19.8771 H   0  0  0  0  0  0
  -29.7721  -11.7687   17.4772 H   0  0  0  0  0  0
  -29.6523  -13.4890   17.7472 H   0  0  0  0  0  0
  -27.8586  -11.3011   18.8452 H   0  0  0  0  0  0
  -27.3788  -12.6033   17.7923 H   0  0  0  0  0  0
  -27.6807  -14.2525   19.5477 H   0  0  0  0  0  0
  -28.7112  -12.0024   21.3428 H   0  0  0  0  0  0
  -28.4318  -13.6326   21.8743 H   0  0  0  0  0  0
  -25.2756   -9.5663   22.4763 H   0  0  0  0  0  0
  -23.9998   -7.4614   22.7468 H   0  0  0  0  0  0
  -21.0839   -8.8764   19.8951 H   0  0  0  0  0  0
  -22.3703  -10.9660   19.6165 H   0  0  0  0  0  0
  -21.2009   -7.6144   23.9718 H   0  0  0  0  0  0
  -21.1474   -6.0519   25.9073 H   0  0  0  0  0  0
  -22.0604   -2.7613   23.2852 H   0  0  0  0  0  0
  -22.4106  -11.9843   22.4763 H   0  0  0  0  0  0
  -21.1129  -13.1233   22.2641 H   0  0  0  0  0  0
  -24.6675  -15.8408   20.5415 H   0  0  0  0  0  0
  -26.2780  -15.6209   20.0794 H   0  0  0  0  0  0
  -26.7107  -32.5438   23.1077 H   0  0  0  0  0  0
  -25.0016  -33.9725   25.0411 H   0  0  0  0  0  0
  -22.7084  -31.2929   21.3876 H   0  0  0  0  0  0
  -23.3759  -35.9609   23.3308 H   0  0  0  0  0  0
  -24.3586  -36.8908   22.2066 H   0  0  0  0  0  0
  -23.7263  -37.6498   23.6662 H   0  0  0  0  0  0
  -26.0754  -31.5476   20.5857 H   0  0  0  0  0  0
  -26.8373  -30.8505   21.9871 H   0  0  0  0  0  0
  -28.1188  -29.0163   21.1615 H   0  0  0  0  0  0
  -26.0303  -25.8800   19.0692 H   0  0  0  0  0  0
  -23.9844  -27.2487   19.0588 H   0  0  0  0  0  0
  -23.7634  -30.5698   19.3990 H   0  0  0  0  0  0
  -22.7552  -29.2287   19.8544 H   0  0  0  0  0  0
  -25.1289  -36.1914   25.0851 H   0  0  0  0  0  0
  -20.9972  -28.3182   24.1414 H   0  0  0  0  0  0
  -20.5639  -26.2232   23.3599 H   0  0  0  0  0  0
  -21.6638  -26.7376   22.1224 H   0  0  0  0  0  0
  -19.6915  -25.6276   21.1226 H   0  0  0  0  0  0
  -19.6713  -27.3167   20.6738 H   0  0  0  0  0  0
  -17.4203  -26.6657   21.4007 H   0  0  0  0  0  0
  -18.0322  -26.0052   22.9008 H   0  0  0  0  0  0
  -19.7957  -30.7253   24.2227 H   0  0  0  0  0  0
  -17.5038  -31.6249   24.5151 H   0  0  0  0  0  0
  -15.5365  -30.2970   23.7662 H   0  0  0  0  0  0
  -15.8677  -28.0829   22.7026 H   0  0  0  0  0  0
  -24.5873  -30.7064   25.7834 H   0  0  0  0  0  0
  -24.8886  -32.2911   26.4866 H   0  0  0  0  0  0
  -25.8058  -30.8962   27.0256 H   0  0  0  0  0  0
  -26.2842  -29.6805   24.1103 H   0  0  0  0  0  0
  -27.4065  -29.7245   25.4530 H   0  0  0  0  0  0
  -27.8662  -30.4398   23.9240 H   0  0  0  0  0  0
  -27.2618  -33.3640   26.1999 H   0  0  0  0  0  0
  -28.3821  -32.6850   25.0305 H   0  0  0  0  0  0
  -28.0633  -31.8481   26.5437 H   0  0  0  0  0  0
  -28.2580  -38.0099   24.7509 H   0  0  0  0  0  0
  -28.1093  -36.2639   24.6294 H   0  0  0  0  0  0
  -27.2305  -37.1434   25.8882 H   0  0  0  0  0  0
  -20.9330  -29.8786   21.6989 H   0  0  0  0  0  0
  -26.0171  -38.2846   24.1433 H   0  0  0  0  0  0
  -31.4909  -17.3224   19.6275 H   0  0  0  0  0  0
  -28.7877  -22.9862   23.9863 H   0  0  0  0  0  0
  -29.0932  -21.4810   22.9738 H   0  0  0  0  0  0
  -28.4959  -25.2472   22.6812 H   0  0  0  0  0  0
  -26.9753  -24.7998   21.9023 H   0  0  0  0  0  0
  -29.1370  -23.8715   18.8163 H   0  0  0  0  0  0
  -27.4174  -23.9345   19.1412 H   0  0  0  0  0  0
  -29.6798  -25.1765   20.6641 H   0  0  0  0  0  0
  -31.2796  -20.1594   18.0774 H   0  0  0  0  0  0
  -32.4950  -19.2182   18.9272 H   0  0  0  0  0  0
  -32.0538  -20.7932   19.5405 H   0  0  0  0  0  0
  -26.9160  -20.8237   21.1191 H   0  0  0  0  0  0
  -27.2489  -20.1390   22.7180 H   0  0  0  0  0  0
  -26.3416  -19.2586   21.4985 H   0  0  0  0  0  0
  -27.4895  -17.7408   23.2222 H   0  0  0  0  0  0
  -27.9943  -16.1789   22.6678 H   0  0  0  0  0  0
  -26.7001  -17.0219   21.8251 H   0  0  0  0  0  0
  -29.5928  -21.6798   19.0511 H   0  0  0  0  0  0
  -30.4423  -21.9997   20.5301 H   0  0  0  0  0  0
  -28.9329  -15.2638   21.4098 H   0  0  0  0  0  0
  -27.5689  -22.1958   20.3357 H   0  0  0  0  0  0
  1 25  1  0  0  0
  1 30  2  0  0  0
  1 86  1  0  0  0
  2  3  1  0  0  0
  2 25  1  0  0  0
  2 88  1  0  0  0
  2 89  1  0  0  0
  3  4  1  0  0  0
  3 90  1  0  0  0
  3 91  1  0  0  0
  4  5  1  0  0  0
  4 92  1  0  0  0
  4 93  1  0  0  0
  5  6  1  0  0  0
  5 26  1  0  0  0
  5 94  1  0  0  0
  6 25  1  0  0  0
  6 95  1  0  0  0
  6 96  1  0  0  0
  7  8  2  0  0  0
  7 26  1  0  0  0
  7 29  1  0  0  0
  8  9  1  0  0  0
  8 22  1  0  0  0
  9 10  1  0  0  0
  9 27  2  0  0  0
 10 11  2  0  0  0
 10 15  1  0  0  0
 11 12  1  0  0  0
 11 97  1  0  0  0
 12 13  2  0  0  0
 12 98  1  0  0  0
 13 14  1  0  0  0
 13 31  1  0  0  0
 14 15  2  0  0  0
 14 99  1  0  0  0
 15100  1  0  0  0
 16 17  2  0  0  0
 16 21  1  0  0  0
 16 31  1  0  0  0
 17 18  1  0  0  0
 17101  1  0  0  0
 18 19  2  0  0  0
 18102  1  0  0  0
 19 20  1  0  0  0
 19 24  1  0  0  0
 20 21  2  0  0  0
 20103  1  0  0  0
 21 23  1  0  0  0
 22 28  1  0  0  0
 22 32  2  0  0  0
 26 27  1  0  0  0
 28104  1  0  0  0
 28105  1  0  0  0
 29106  1  0  0  0
 29107  1  0  0  0
 33 34  1  0  0  0
 33 66  1  0  0  0
 33 70  2  0  0  0
 34 36  1  0  0  0
 34 59  1  0  0  0
 34108  1  0  0  0
 35 44  2  0  0  0
 35 45  1  0  0  0
 35 68  1  0  0  0
 36 56  1  0  0  0
 36109  1  0  0  0
 37 39  1  0  0  0
 37 47  1  0  0  0
 37 66  1  0  0  0
 37110  1  0  0  0
 38 43  2  0  0  0
 38 46  1  0  0  0
 38 47  1  0  0  0
 39 64  1  0  0  0
 39 67  2  0  0  0
 40 52  1  0  0  0
 40 53  2  0  0  0
 40 58  1  0  0  0
 41111  1  0  0  0
 41112  1  0  0  0
 41113  1  0  0  0
 41 48  1  0  0  0
 42 43  1  0  0  0
 42 66  1  0  0  0
 42114  1  0  0  0
 42115  1  0  0  0
 43 44  1  0  0  0
 44116  1  0  0  0
 45 46  2  0  0  0
 45117  1  0  0  0
 46118  1  0  0  0
 47119  1  0  0  0
 47120  1  0  0  0
 48 56  1  0  0  0
 48 65  1  0  0  0
 48121  1  0  0  0
 49 50  1  0  0  0
 49 53  1  0  0  0
 49 64  1  0  0  0
 49122  1  0  0  0
 50 51  1  0  0  0
 50123  1  0  0  0
 50124  1  0  0  0
 51 52  1  0  0  0
 51125  1  0  0  0
 51126  1  0  0  0
 52127  1  0  0  0
 52128  1  0  0  0
 53 54  1  0  0  0
 54 55  2  0  0  0
 54129  1  0  0  0
 55 57  1  0  0  0
 55130  1  0  0  0
 56 69  2  0  0  0
 57 58  2  0  0  0
 57131  1  0  0  0
 58132  1  0  0  0
 59 60  1  0  0  0
 59 61  1  0  0  0
 59 62  1  0  0  0
 60133  1  0  0  0
 60134  1  0  0  0
 60135  1  0  0  0
 61136  1  0  0  0
 61137  1  0  0  0
 61138  1  0  0  0
 62139  1  0  0  0
 62140  1  0  0  0
 62141  1  0  0  0
 63 65  1  0  0  0
 63142  1  0  0  0
 63143  1  0  0  0
 63144  1  0  0  0
 64145  1  0  0  0
 65146  1  0  0  0
 68 81  1  0  0  0
 71 72  2  0  0  0
 71 76  1  0  0  0
 71147  1  0  0  0
 72 74  1  0  0  0
 72 82  1  0  0  0
 73 74  2  0  0  0
 73 75  1  0  0  0
 73 83  1  0  0  0
 74 85  1  0  0  0
 75 76  2  0  0  0
 75 84  1  0  0  0
 76 86  1  0  0  0
 77 78  2  0  0  0
 77 79  1  0  0  0
 77 87  1  0  0  0
 78148  1  0  0  0
 78149  1  0  0  0
 79 81  1  0  0  0
 79150  1  0  0  0
 79151  1  0  0  0
 80 81  1  0  0  0
 80 87  1  0  0  0
 80152  1  0  0  0
 80153  1  0  0  0
 81154  1  0  0  0
 82155  1  0  0  0
 82156  1  0  0  0
 82157  1  0  0  0
 83158  1  0  0  0
 83159  1  0  0  0
 83160  1  0  0  0
 84161  1  0  0  0
 84162  1  0  0  0
 84163  1  0  0  0
 85164  1  0  0  0
 85165  1  0  0  0
 85 87  1  0  0  0
 86166  1  0  0  0
 87167  1  0  0  0
M  CHG  1  87   1
M  ISO  4   1 100  68 101  81 101  86 100
M  END
> <chiral flag>
0

> <version>
0

> <s_m_source_file>
/data/baiqing/PycharmProjects/Reinvent-master-3.2/result/LINK_invent/BTK/process_docking_weight1_custom_product_contain_oxygen_bond_distance_aromatic_linkinvent_7_9_3/rearranged_h_0034.sdf

> <i_m_source_file_index>
51

> <r_mmod_Potential_Energy-OPLS-2005>
73.1449890136719

> <r_mmod_Stretch_Energy-OPLS-2005>
93.9081268310547

> <r_mmod_Bend_Energy-OPLS-2005>
244.634567260742

> <r_mmod_Torsional_Energy-OPLS-2005>
252.339508056641

> <r_mmod_Improper_Torsional_Energy-OPLS-2005>
3.70769262313843

> <r_mmod_Van_der_Waal_Energy-OPLS-2005>
145.358383178711

> <r_mmod_Electrostatic_Energy-OPLS-2005>
-286.729766845703

> <r_mmod_Solvation_Energy-OPLS-2005>
-423.177032470703

> <b_mmod_Minimization_Converged-OPLS-2005>
0

> <r_mmod_RMS_Derivative-OPLS-2005>
2.36449527740479

$$$$
51
                    3D
 Structure written by MMmdl.
156165  0  0  1  0            999 V2000
  -30.6199  -14.7266   20.4561 C   0  0  0  0  0  0
  -30.4231  -12.4422   19.4695 C   0  0  0  0  0  0
  -29.5019  -12.4982   18.2319 C   0  0  0  0  0  0
  -28.0295  -12.3240   18.6499 C   0  0  0  0  0  0
  -27.6380  -13.2293   19.8482 C   0  0  2  0  0  0
  -28.6819  -13.1692   20.9830 C   0  0  0  0  0  0
  -25.2507  -13.8197   20.5702 C   0  0  0  0  0  0
  -24.1796  -13.0445   20.9208 C   0  0  0  0  0  0
  -24.6387  -11.6919   20.8759 C   0  0  0  0  0  0
  -23.9069  -10.4295   21.0417 C   0  0  0  0  0  0
  -24.3621   -9.4208   21.9194 C   0  0  0  0  0  0
  -23.6298   -8.2242   22.0757 C   0  0  0  0  0  0
  -22.4280   -8.0283   21.3546 C   0  0  0  0  0  0
  -21.9917   -9.0257   20.4645 C   0  0  0  0  0  0
  -22.7245  -10.2137   20.3060 C   0  0  0  0  0  0
  -21.6852   -6.0741   22.5281 C   0  0  0  0  0  0
  -21.4014   -6.5644   23.8215 C   0  0  0  0  0  0
  -21.3657   -5.6795   24.9177 C   0  0  0  0  0  0
  -21.6044   -4.3058   24.7225 C   0  0  0  0  0  0
  -21.8818   -3.8150   23.4344 C   0  0  0  0  0  0
  -21.9194   -4.6969   22.3403 C   0  0  0  0  0  0
  -22.7819  -13.5228   21.1870 C   0  0  0  0  0  0
  -22.1662   -4.2156   21.0980 F   0  0  0  0  0  0
  -21.5627   -3.4541   25.7737 F   0  0  0  0  0  0
  -29.9794  -13.5114   20.3929 N   0  0  0  0  0  0
  -26.2922  -12.9400   20.3288 N   0  0  0  0  0  0
  -25.9315  -11.6545   20.5768 N   0  0  0  0  0  0
  -22.0471  -12.8208   22.0416 N   0  0  0  0  0  0
  -25.4219  -15.1922   20.4113 N   0  0  0  0  0  0
  -31.8178  -14.7970   20.1695 O   0  0  0  0  0  0
  -21.6642   -6.8883   21.4242 O   0  0  0  0  0  0
  -22.3502  -14.5537   20.6721 O   0  0  0  0  0  0
  -24.6281  -31.8534   23.1941 C   0  0  0  0  0  0
  -25.9113  -32.4744   23.8289 C   0  0  1  0  0  0
  -27.2323  -27.2736   20.1364 C   0  0  0  0  0  0
  -25.5925  -33.8546   24.2226 N   0  0  0  0  0  0
  -23.4234  -30.4705   21.5379 C   0  0  2  0  0  0
  -24.8700  -28.9031   20.1159 C   0  0  0  0  0  0
  -22.7479  -29.4574   22.4924 C   0  0  0  0  0  0
  -18.0283  -28.1373   22.8489 C   0  0  0  0  0  0
  -24.1495  -36.7273   23.2645 C   0  0  0  0  0  0
  -25.9631  -30.7726   21.3649 C   0  0  0  0  0  0
  -26.0363  -29.3915   20.7153 C   0  0  0  0  0  0
  -27.2170  -28.5902   20.7044 C   0  0  0  0  0  0
  -26.0417  -26.8285   19.5292 C   0  0  0  0  0  0
  -24.8766  -27.6304   19.5136 C   0  0  0  0  0  0
  -23.6393  -29.7905   20.1579 C   0  0  0  0  0  0
  -25.4121  -36.3056   24.0324 C   0  0  1  0  0  0
  -20.5887  -28.3668   23.1291 C   0  0  2  0  0  0
  -20.6770  -26.9390   22.5413 C   0  0  0  0  0  0
  -19.5747  -26.6371   21.5213 C   0  0  0  0  0  0
  -18.1923  -26.7917   22.1620 C   0  0  0  0  0  0
  -19.1538  -28.8837   23.2888 C   0  0  0  0  0  0
  -18.9465  -30.1446   23.8891 C   0  0  0  0  0  0
  -17.6465  -30.6580   24.0560 C   0  0  0  0  0  0
  -25.9058  -34.9432   23.5078 C   0  0  0  0  0  0
  -16.5355  -29.9075   23.6335 C   0  0  0  0  0  0
  -16.7272  -28.6494   23.0349 C   0  0  0  0  0  0
  -26.4491  -31.6577   25.0683 C   0  0  0  0  0  0
  -25.3725  -31.3719   26.1415 C   0  0  0  0  0  0
  -27.0341  -30.3008   24.6134 C   0  0  0  0  0  0
  -27.6042  -32.4318   25.7465 C   0  0  0  0  0  0
  -27.5573  -37.1794   24.8467 C   0  0  0  0  0  0
  -21.4189  -29.3026   22.3689 N   0  0  0  0  0  0
  -26.4288  -37.3760   23.9409 N   0  0  0  0  0  0
  -24.6906  -31.0507   22.0900 N   0  0  0  0  0  0
  -23.4193  -28.8129   23.3019 O   0  0  0  0  0  0
  -28.4090  -26.5056   20.1523 O   0  0  0  0  0  0
  -26.5630  -34.8915   22.4648 O   0  0  0  0  0  0
  -23.5439  -32.1336   23.7265 O   0  0  0  0  0  0
  -30.2431  -19.6395   19.5253 C   0  0  0  0  0  0
  -28.1842  -20.5871   21.0657 C   0  0  0  0  0  0
  -29.7931  -20.9992   19.3926 C   0  0  0  0  0  0
  -29.7001  -18.6927   20.4368 C   0  0  0  0  0  0
  -28.7200  -21.5662   20.1639 C   0  0  0  0  0  0
  -28.6351  -19.2261   21.2142 C   0  0  0  0  0  0
  -28.1590  -23.9484   21.1730 C   0  0  0  0  0  0
  -28.2307  -23.9733   19.0230 C   0  0  0  0  0  0
  -28.6057  -25.0118   20.1204 C   0  0  0  0  0  0
  -30.5546  -21.8543   18.3970 C   0  0  0  0  0  0
  -30.4566  -17.2996   20.6835 C   0  0  0  0  0  0
  -28.1245  -22.9401   20.0879 N   0  0  0  0  0  0
  -29.8804  -15.8873   20.6356 N   0  0  0  0  0  0
  -27.8889  -18.2333   22.4146 Cl  0  0  0  0  0  0
  -31.4661  -12.5557   19.1685 H   0  0  0  0  0  0
  -30.3578  -11.4676   19.9565 H   0  0  0  0  0  0
  -29.7810  -11.7244   17.5157 H   0  0  0  0  0  0
  -29.6288  -13.4529   17.7189 H   0  0  0  0  0  0
  -27.8880  -11.2762   18.9182 H   0  0  0  0  0  0
  -27.3691  -12.5110   17.8025 H   0  0  0  0  0  0
  -27.6320  -14.2490   19.4631 H   0  0  0  0  0  0
  -28.7158  -12.1757   21.4326 H   0  0  0  0  0  0
  -28.4235  -13.8613   21.7864 H   0  0  0  0  0  0
  -25.2766   -9.5686   22.4767 H   0  0  0  0  0  0
  -24.0011   -7.4632   22.7471 H   0  0  0  0  0  0
  -21.0852   -8.8772   19.8945 H   0  0  0  0  0  0
  -22.3707  -10.9677   19.6164 H   0  0  0  0  0  0
  -21.2004   -7.6154   23.9720 H   0  0  0  0  0  0
  -21.1479   -6.0527   25.9081 H   0  0  0  0  0  0
  -22.0597   -2.7613   23.2843 H   0  0  0  0  0  0
  -22.4099  -11.9864   22.4781 H   0  0  0  0  0  0
  -21.1090  -13.1218   22.2635 H   0  0  0  0  0  0
  -24.6585  -15.8489   20.5320 H   0  0  0  0  0  0
  -26.2728  -15.6325   20.0865 H   0  0  0  0  0  0
  -26.7176  -32.5394   23.1026 H   0  0  0  0  0  0
  -25.0099  -33.9682   25.0390 H   0  0  0  0  0  0
  -22.7193  -31.2916   21.3870 H   0  0  0  0  0  0
  -23.3759  -35.9607   23.3305 H   0  0  0  0  0  0
  -24.3584  -36.8891   22.2061 H   0  0  0  0  0  0
  -23.7251  -37.6473   23.6670 H   0  0  0  0  0  0
  -26.0917  -31.5305   20.5908 H   0  0  0  0  0  0
  -26.8454  -30.8288   21.9911 H   0  0  0  0  0  0
  -28.1199  -28.9693   21.1624 H   0  0  0  0  0  0
  -26.0022  -25.8549   19.0660 H   0  0  0  0  0  0
  -23.9805  -27.2490   19.0443 H   0  0  0  0  0  0
  -23.7614  -30.5608   19.3957 H   0  0  0  0  0  0
  -22.7582  -29.2203   19.8577 H   0  0  0  0  0  0
  -25.1306  -36.1888   25.0815 H   0  0  0  0  0  0
  -20.9981  -28.3230   24.1410 H   0  0  0  0  0  0
  -20.5649  -26.2272   23.3607 H   0  0  0  0  0  0
  -21.6639  -26.7389   22.1219 H   0  0  0  0  0  0
  -19.6906  -25.6280   21.1238 H   0  0  0  0  0  0
  -19.6699  -27.3189   20.6751 H   0  0  0  0  0  0
  -17.4197  -26.6676   21.4017 H   0  0  0  0  0  0
  -18.0313  -26.0046   22.9000 H   0  0  0  0  0  0
  -19.7945  -30.7268   24.2243 H   0  0  0  0  0  0
  -17.5020  -31.6262   24.5156 H   0  0  0  0  0  0
  -15.5354  -30.2974   23.7664 H   0  0  0  0  0  0
  -15.8673  -28.0818   22.7055 H   0  0  0  0  0  0
  -24.5924  -30.7028   25.7760 H   0  0  0  0  0  0
  -24.8891  -32.2887   26.4807 H   0  0  0  0  0  0
  -25.8063  -30.8940   27.0209 H   0  0  0  0  0  0
  -26.2911  -29.6759   24.1168 H   0  0  0  0  0  0
  -27.4067  -29.7258   25.4621 H   0  0  0  0  0  0
  -27.8760  -30.4311   23.9330 H   0  0  0  0  0  0
  -27.2651  -33.3637   26.2003 H   0  0  0  0  0  0
  -28.3883  -32.6842   25.0313 H   0  0  0  0  0  0
  -28.0675  -31.8462   26.5416 H   0  0  0  0  0  0
  -28.2586  -38.0096   24.7502 H   0  0  0  0  0  0
  -28.1064  -36.2617   24.6296 H   0  0  0  0  0  0
  -27.2286  -37.1444   25.8870 H   0  0  0  0  0  0
  -20.9357  -29.8754   21.6915 H   0  0  0  0  0  0
  -26.0153  -38.2825   24.1420 H   0  0  0  0  0  0
  -31.0863  -19.3212   18.9281 H   0  0  0  0  0  0
  -27.3649  -20.8966   21.6978 H   0  0  0  0  0  0
  -27.1706  -24.1365   21.5945 H   0  0  0  0  0  0
  -28.9079  -23.7552   21.9421 H   0  0  0  0  0  0
  -29.0094  -23.8576   18.2758 H   0  0  0  0  0  0
  -27.2669  -24.1599   18.5512 H   0  0  0  0  0  0
  -29.6966  -24.9781   20.1534 H   0  0  0  0  0  0
  -31.4643  -21.3629   18.0510 H   0  0  0  0  0  0
  -30.8589  -22.7955   18.8550 H   0  0  0  0  0  0
  -29.9411  -22.0528   17.5187 H   0  0  0  0  0  0
  -30.9116  -17.3925   21.6704 H   0  0  0  0  0  0
  -31.3068  -17.3049   20.0002 H   0  0  0  0  0  0
  -28.8911  -15.7847   20.7993 H   0  0  0  0  0  0
  1 25  1  0  0  0
  1 30  2  0  0  0
  1 83  1  0  0  0
  2  3  1  0  0  0
  2 25  1  0  0  0
  2 85  1  0  0  0
  2 86  1  0  0  0
  3  4  1  0  0  0
  3 87  1  0  0  0
  3 88  1  0  0  0
  4  5  1  0  0  0
  4 89  1  0  0  0
  4 90  1  0  0  0
  5  6  1  0  0  0
  5 26  1  0  0  0
  5 91  1  0  0  0
  6 25  1  0  0  0
  6 92  1  0  0  0
  6 93  1  0  0  0
  7  8  2  0  0  0
  7 26  1  0  0  0
  7 29  1  0  0  0
  8  9  1  0  0  0
  8 22  1  0  0  0
  9 10  1  0  0  0
  9 27  2  0  0  0
 10 11  2  0  0  0
 10 15  1  0  0  0
 11 12  1  0  0  0
 11 94  1  0  0  0
 12 13  2  0  0  0
 12 95  1  0  0  0
 13 14  1  0  0  0
 13 31  1  0  0  0
 14 15  2  0  0  0
 14 96  1  0  0  0
 15 97  1  0  0  0
 16 17  2  0  0  0
 16 21  1  0  0  0
 16 31  1  0  0  0
 17 18  1  0  0  0
 17 98  1  0  0  0
 18 19  2  0  0  0
 18 99  1  0  0  0
 19 20  1  0  0  0
 19 24  1  0  0  0
 20 21  2  0  0  0
 20100  1  0  0  0
 21 23  1  0  0  0
 22 28  1  0  0  0
 22 32  2  0  0  0
 26 27  1  0  0  0
 28101  1  0  0  0
 28102  1  0  0  0
 29103  1  0  0  0
 29104  1  0  0  0
 33 34  1  0  0  0
 33 66  1  0  0  0
 33 70  2  0  0  0
 34 36  1  0  0  0
 34 59  1  0  0  0
 34105  1  0  0  0
 35 44  2  0  0  0
 35 45  1  0  0  0
 35 68  1  0  0  0
 36 56  1  0  0  0
 36106  1  0  0  0
 37 39  1  0  0  0
 37 47  1  0  0  0
 37 66  1  0  0  0
 37107  1  0  0  0
 38 43  2  0  0  0
 38 46  1  0  0  0
 38 47  1  0  0  0
 39 64  1  0  0  0
 39 67  2  0  0  0
 40 52  1  0  0  0
 40 53  2  0  0  0
 40 58  1  0  0  0
 41108  1  0  0  0
 41109  1  0  0  0
 41110  1  0  0  0
 41 48  1  0  0  0
 42 43  1  0  0  0
 42 66  1  0  0  0
 42111  1  0  0  0
 42112  1  0  0  0
 43 44  1  0  0  0
 44113  1  0  0  0
 45 46  2  0  0  0
 45114  1  0  0  0
 46115  1  0  0  0
 47116  1  0  0  0
 47117  1  0  0  0
 48 56  1  0  0  0
 48 65  1  0  0  0
 48118  1  0  0  0
 49 50  1  0  0  0
 49 53  1  0  0  0
 49 64  1  0  0  0
 49119  1  0  0  0
 50 51  1  0  0  0
 50120  1  0  0  0
 50121  1  0  0  0
 51 52  1  0  0  0
 51122  1  0  0  0
 51123  1  0  0  0
 52124  1  0  0  0
 52125  1  0  0  0
 53 54  1  0  0  0
 54 55  2  0  0  0
 54126  1  0  0  0
 55 57  1  0  0  0
 55127  1  0  0  0
 56 69  2  0  0  0
 57 58  2  0  0  0
 57128  1  0  0  0
 58129  1  0  0  0
 59 60  1  0  0  0
 59 61  1  0  0  0
 59 62  1  0  0  0
 60130  1  0  0  0
 60131  1  0  0  0
 60132  1  0  0  0
 61133  1  0  0  0
 61134  1  0  0  0
 61135  1  0  0  0
 62136  1  0  0  0
 62137  1  0  0  0
 62138  1  0  0  0
 63 65  1  0  0  0
 63139  1  0  0  0
 63140  1  0  0  0
 63141  1  0  0  0
 64142  1  0  0  0
 65143  1  0  0  0
 68 79  1  0  0  0
 71 73  2  0  0  0
 71 74  1  0  0  0
 71144  1  0  0  0
 72 75  2  0  0  0
 72 76  1  0  0  0
 72145  1  0  0  0
 73 75  1  0  0  0
 73 80  1  0  0  0
 74 76  2  0  0  0
 74 81  1  0  0  0
 75 82  1  0  0  0
 76 84  1  0  0  0
 77 79  1  0  0  0
 77 82  1  0  0  0
 77146  1  0  0  0
 77147  1  0  0  0
 78 79  1  0  0  0
 78 82  1  0  0  0
 78148  1  0  0  0
 78149  1  0  0  0
 79150  1  0  0  0
 80151  1  0  0  0
 80152  1  0  0  0
 80153  1  0  0  0
 81 83  1  0  0  0
 81154  1  0  0  0
 81155  1  0  0  0
 83156  1  0  0  0
M  ISO  4   1 100  68 101  79 101  83 100
M  END
> <chiral flag>
0

> <version>
0

> <s_m_source_file>
/data/baiqing/PycharmProjects/Reinvent-master-3.2/result/LINK_invent/BTK/process_docking_weight1_custom_product_contain_oxygen_bond_distance_aromatic_linkinvent_7_9_3/rearranged_h_0034.sdf

> <i_m_source_file_index>
52

> <r_mmod_Potential_Energy-OPLS-2005>
254.950302124023

> <r_mmod_Stretch_Energy-OPLS-2005>
111.265014648438

> <r_mmod_Bend_Energy-OPLS-2005>
307.319763183594

> <r_mmod_Torsional_Energy-OPLS-2005>
240.894638061523

> <r_mmod_Improper_Torsional_Energy-OPLS-2005>
10.5438375473022

> <r_mmod_Van_der_Waal_Energy-OPLS-2005>
134.219680786133

> <r_mmod_Electrostatic_Energy-OPLS-2005>
-401.733856201172

> <r_mmod_Solvation_Energy-OPLS-2005>
-219.392852783203

> <b_mmod_Minimization_Converged-OPLS-2005>
0

> <r_mmod_RMS_Derivative-OPLS-2005>
1.03646969795227

$$$$
52
                    3D
 Structure written by MMmdl.
162170  0  0  1  0            999 V2000
  -30.5953  -14.7020   20.4273 C   0  0  0  0  0  0
  -30.4236  -12.4043   19.4881 C   0  0  0  0  0  0
  -29.5173  -12.4799   18.2395 C   0  0  0  0  0  0
  -28.0330  -12.3409   18.6352 C   0  0  0  0  0  0
  -27.6441  -13.2320   19.8475 C   0  0  2  0  0  0
  -28.6807  -13.1405   20.9885 C   0  0  0  0  0  0
  -25.2489  -13.8215   20.5643 C   0  0  0  0  0  0
  -24.1781  -13.0465   20.9203 C   0  0  0  0  0  0
  -24.6385  -11.6939   20.8708 C   0  0  0  0  0  0
  -23.9085  -10.4304   21.0374 C   0  0  0  0  0  0
  -24.3626   -9.4227   21.9161 C   0  0  0  0  0  0
  -23.6340   -8.2248   22.0759 C   0  0  0  0  0  0
  -22.4320   -8.0281   21.3536 C   0  0  0  0  0  0
  -21.9925   -9.0261   20.4643 C   0  0  0  0  0  0
  -22.7256  -10.2147   20.3043 C   0  0  0  0  0  0
  -21.6865   -6.0712   22.5263 C   0  0  0  0  0  0
  -21.4017   -6.5632   23.8208 C   0  0  0  0  0  0
  -21.3677   -5.6798   24.9153 C   0  0  0  0  0  0
  -21.6068   -4.3061   24.7215 C   0  0  0  0  0  0
  -21.8830   -3.8149   23.4333 C   0  0  0  0  0  0
  -21.9195   -4.6935   22.3386 C   0  0  0  0  0  0
  -22.7807  -13.5229   21.1891 C   0  0  0  0  0  0
  -22.1639   -4.2121   21.0957 F   0  0  0  0  0  0
  -21.5663   -3.4561   25.7722 F   0  0  0  0  0  0
  -29.9907  -13.4695   20.4180 N   0  0  0  0  0  0
  -26.2936  -12.9440   20.3220 N   0  0  0  0  0  0
  -25.9316  -11.6593   20.5718 N   0  0  0  0  0  0
  -22.0453  -12.8181   22.0416 N   0  0  0  0  0  0
  -25.4193  -15.1917   20.3994 N   0  0  0  0  0  0
  -31.7924  -14.8130   20.1463 O   0  0  0  0  0  0
  -21.6682   -6.8861   21.4241 O   0  0  0  0  0  0
  -22.3453  -14.5509   20.6710 O   0  0  0  0  0  0
  -24.6283  -31.8564   23.1991 C   0  0  0  0  0  0
  -25.9126  -32.4751   23.8335 C   0  0  1  0  0  0
  -27.2255  -27.2766   20.1357 C   0  0  0  0  0  0
  -25.5957  -33.8568   24.2272 N   0  0  0  0  0  0
  -23.4259  -30.4772   21.5398 C   0  0  2  0  0  0
  -24.8785  -28.9295   20.1085 C   0  0  0  0  0  0
  -22.7517  -29.4574   22.4903 C   0  0  0  0  0  0
  -18.0287  -28.1366   22.8446 C   0  0  0  0  0  0
  -24.1511  -36.7277   23.2635 C   0  0  0  0  0  0
  -25.9718  -30.7713   21.3845 C   0  0  0  0  0  0
  -26.0452  -29.3960   20.7292 C   0  0  0  0  0  0
  -27.2185  -28.5779   20.7402 C   0  0  0  0  0  0
  -26.0419  -26.8886   19.4655 C   0  0  0  0  0  0
  -24.8824  -27.6828   19.4689 C   0  0  0  0  0  0
  -23.6481  -29.8116   20.1549 C   0  0  0  0  0  0
  -25.4134  -36.3065   24.0325 C   0  0  1  0  0  0
  -20.5891  -28.3680   23.1266 C   0  0  2  0  0  0
  -20.6793  -26.9400   22.5397 C   0  0  0  0  0  0
  -19.5787  -26.6367   21.5190 C   0  0  0  0  0  0
  -18.1955  -26.7913   22.1585 C   0  0  0  0  0  0
  -19.1542  -28.8838   23.2839 C   0  0  0  0  0  0
  -18.9466  -30.1450   23.8856 C   0  0  0  0  0  0
  -17.6470  -30.6572   24.0537 C   0  0  0  0  0  0
  -25.9056  -34.9438   23.5089 C   0  0  0  0  0  0
  -16.5348  -29.9070   23.6330 C   0  0  0  0  0  0
  -16.7271  -28.6480   23.0330 C   0  0  0  0  0  0
  -26.4517  -31.6569   25.0720 C   0  0  0  0  0  0
  -25.3754  -31.3708   26.1451 C   0  0  0  0  0  0
  -27.0372  -30.2979   24.6212 C   0  0  0  0  0  0
  -27.6068  -32.4314   25.7501 C   0  0  0  0  0  0
  -27.5592  -37.1793   24.8459 C   0  0  0  0  0  0
  -21.4210  -29.3032   22.3663 N   0  0  0  0  0  0
  -26.4298  -37.3773   23.9401 N   0  0  0  0  0  0
  -24.6923  -31.0556   22.0953 N   0  0  0  0  0  0
  -23.4231  -28.8110   23.2989 O   0  0  0  0  0  0
  -28.3287  -26.3965   20.2325 O   0  0  0  0  0  0
  -26.5623  -34.8908   22.4645 O   0  0  0  0  0  0
  -23.5430  -32.1403   23.7275 O   0  0  0  0  0  0
  -30.1020  -19.8315   18.9056 C   0  0  0  0  0  0
  -30.4122  -18.6842   18.1655 C   0  0  0  0  0  0
  -29.6233  -19.7461   20.2270 C   0  0  0  0  0  0
  -29.5479  -18.4029   20.8210 C   0  0  0  0  0  0
  -29.9123  -17.1957   20.0667 C   0  0  0  0  0  0
  -30.2932  -17.3924   18.7055 C   0  0  0  0  0  0
  -29.8703  -17.3190   23.1789 C   0  0  0  0  0  0
  -27.5534  -17.9868   22.3474 C   0  0  0  0  0  0
  -29.2879  -21.1365   20.9400 C   0  0  0  0  0  0
  -28.9733  -23.7732   20.6795 C   0  0  0  0  0  0
  -28.1757  -24.9382   19.9021 C   0  0  0  0  0  0
  -29.0622  -18.2856   22.2815 C   0  0  0  0  0  0
  -29.7758  -15.8072   20.5758 N   0  0  0  0  0  0
  -28.8851  -22.3495   20.0935 N   0  3  0  0  0  0
  -30.5525  -16.0969   17.5855 Cl  0  0  0  0  0  0
  -31.4721  -12.5047   19.2039 H   0  0  0  0  0  0
  -30.3362  -11.4269   19.9669 H   0  0  0  0  0  0
  -29.7922  -11.6964   17.5327 H   0  0  0  0  0  0
  -29.6739  -13.4246   17.7218 H   0  0  0  0  0  0
  -27.8501  -11.2923   18.8757 H   0  0  0  0  0  0
  -27.3907  -12.5671   17.7839 H   0  0  0  0  0  0
  -27.6483  -14.2574   19.4806 H   0  0  0  0  0  0
  -28.6907  -12.1421   21.4303 H   0  0  0  0  0  0
  -28.4267  -13.8297   21.7925 H   0  0  0  0  0  0
  -25.2757   -9.5728   22.4755 H   0  0  0  0  0  0
  -24.0061   -7.4659   22.7510 H   0  0  0  0  0  0
  -21.0843   -8.8796   19.8972 H   0  0  0  0  0  0
  -22.3715  -10.9682   19.6172 H   0  0  0  0  0  0
  -21.1995   -7.6142   23.9674 H   0  0  0  0  0  0
  -21.1500   -6.0513   25.9057 H   0  0  0  0  0  0
  -22.0589   -2.7601   23.2826 H   0  0  0  0  0  0
  -22.4099  -11.9859   22.4794 H   0  0  0  0  0  0
  -21.1070  -13.1209   22.2677 H   0  0  0  0  0  0
  -24.6645  -15.8538   20.5368 H   0  0  0  0  0  0
  -26.2537  -15.6162   20.0165 H   0  0  0  0  0  0
  -26.7191  -32.5421   23.1072 H   0  0  0  0  0  0
  -25.0182  -33.9736   25.0471 H   0  0  0  0  0  0
  -22.7164  -31.2939   21.3883 H   0  0  0  0  0  0
  -23.3779  -35.9597   23.3268 H   0  0  0  0  0  0
  -24.3603  -36.8931   22.2051 H   0  0  0  0  0  0
  -23.7255  -37.6467   23.6679 H   0  0  0  0  0  0
  -26.1218  -31.5300   20.6150 H   0  0  0  0  0  0
  -26.8472  -30.8137   22.0223 H   0  0  0  0  0  0
  -28.1037  -28.9215   21.2575 H   0  0  0  0  0  0
  -25.9688  -25.9512   18.9350 H   0  0  0  0  0  0
  -23.9940  -27.3250   18.9652 H   0  0  0  0  0  0
  -23.7775  -30.5870   19.3978 H   0  0  0  0  0  0
  -22.7710  -29.2410   19.8457 H   0  0  0  0  0  0
  -25.1305  -36.1898   25.0816 H   0  0  0  0  0  0
  -20.9950  -28.3243   24.1402 H   0  0  0  0  0  0
  -20.5705  -26.2276   23.3590 H   0  0  0  0  0  0
  -21.6660  -26.7454   22.1184 H   0  0  0  0  0  0
  -19.6957  -25.6281   21.1234 H   0  0  0  0  0  0
  -19.6735  -27.3162   20.6715 H   0  0  0  0  0  0
  -17.4228  -26.6624   21.3982 H   0  0  0  0  0  0
  -18.0353  -26.0069   22.8998 H   0  0  0  0  0  0
  -19.7949  -30.7256   24.2208 H   0  0  0  0  0  0
  -17.5031  -31.6255   24.5144 H   0  0  0  0  0  0
  -15.5355  -30.2949   23.7707 H   0  0  0  0  0  0
  -15.8666  -28.0813   22.7061 H   0  0  0  0  0  0
  -24.5908  -30.7085   25.7768 H   0  0  0  0  0  0
  -24.8990  -32.2886   26.4914 H   0  0  0  0  0  0
  -25.8103  -30.8844   27.0195 H   0  0  0  0  0  0
  -26.2952  -29.6697   24.1270 H   0  0  0  0  0  0
  -27.4082  -29.7272   25.4736 H   0  0  0  0  0  0
  -27.8825  -30.4241   23.9440 H   0  0  0  0  0  0
  -27.2659  -33.3604   26.2086 H   0  0  0  0  0  0
  -28.3890  -32.6889   25.0344 H   0  0  0  0  0  0
  -28.0725  -31.8435   26.5424 H   0  0  0  0  0  0
  -28.2569  -38.0132   24.7532 H   0  0  0  0  0  0
  -28.1128  -36.2653   24.6239 H   0  0  0  0  0  0
  -27.2309  -37.1377   25.8865 H   0  0  0  0  0  0
  -20.9403  -29.8749   21.6867 H   0  0  0  0  0  0
  -26.0164  -38.2835   24.1414 H   0  0  0  0  0  0
  -30.2288  -20.7892   18.4199 H   0  0  0  0  0  0
  -30.7318  -18.7919   17.1392 H   0  0  0  0  0  0
  -30.9439  -17.4413   23.0285 H   0  0  0  0  0  0
  -29.6128  -16.2709   23.0347 H   0  0  0  0  0  0
  -29.6702  -17.5193   24.2313 H   0  0  0  0  0  0
  -26.9721  -18.8046   21.9180 H   0  0  0  0  0  0
  -27.2189  -17.8633   23.3777 H   0  0  0  0  0  0
  -27.2954  -17.0742   21.8069 H   0  0  0  0  0  0
  -30.1581  -21.4170   21.5334 H   0  0  0  0  0  0
  -28.4753  -20.9888   21.6508 H   0  0  0  0  0  0
  -28.6133  -23.7477   21.7091 H   0  0  0  0  0  0
  -30.0296  -24.0378   20.7423 H   0  0  0  0  0  0
  -27.1361  -24.6404   20.0209 H   0  0  0  0  0  0
  -28.4014  -24.8511   18.8381 H   0  0  0  0  0  0
  -29.2194  -19.2540   22.7554 H   0  0  0  0  0  0
  -28.8715  -15.5950   20.9630 H   0  0  0  0  0  0
  -27.9351  -22.1812   19.8002 H   0  0  0  0  0  0
  -29.4520  -22.3379   19.2613 H   0  0  0  0  0  0
  1 25  1  0  0  0
  1 30  2  0  0  0
  1 83  1  0  0  0
  2  3  1  0  0  0
  2 25  1  0  0  0
  2 86  1  0  0  0
  2 87  1  0  0  0
  3  4  1  0  0  0
  3 88  1  0  0  0
  3 89  1  0  0  0
  4  5  1  0  0  0
  4 90  1  0  0  0
  4 91  1  0  0  0
  5  6  1  0  0  0
  5 26  1  0  0  0
  5 92  1  0  0  0
  6 25  1  0  0  0
  6 93  1  0  0  0
  6 94  1  0  0  0
  7  8  2  0  0  0
  7 26  1  0  0  0
  7 29  1  0  0  0
  8  9  1  0  0  0
  8 22  1  0  0  0
  9 10  1  0  0  0
  9 27  2  0  0  0
 10 11  2  0  0  0
 10 15  1  0  0  0
 11 12  1  0  0  0
 11 95  1  0  0  0
 12 13  2  0  0  0
 12 96  1  0  0  0
 13 14  1  0  0  0
 13 31  1  0  0  0
 14 15  2  0  0  0
 14 97  1  0  0  0
 15 98  1  0  0  0
 16 17  2  0  0  0
 16 21  1  0  0  0
 16 31  1  0  0  0
 17 18  1  0  0  0
 17 99  1  0  0  0
 18 19  2  0  0  0
 18100  1  0  0  0
 19 20  1  0  0  0
 19 24  1  0  0  0
 20 21  2  0  0  0
 20101  1  0  0  0
 21 23  1  0  0  0
 22 28  1  0  0  0
 22 32  2  0  0  0
 26 27  1  0  0  0
 28102  1  0  0  0
 28103  1  0  0  0
 29104  1  0  0  0
 29105  1  0  0  0
 33 34  1  0  0  0
 33 66  1  0  0  0
 33 70  2  0  0  0
 34 36  1  0  0  0
 34 59  1  0  0  0
 34106  1  0  0  0
 35 44  2  0  0  0
 35 45  1  0  0  0
 35 68  1  0  0  0
 36 56  1  0  0  0
 36107  1  0  0  0
 37 39  1  0  0  0
 37 47  1  0  0  0
 37 66  1  0  0  0
 37108  1  0  0  0
 38 43  2  0  0  0
 38 46  1  0  0  0
 38 47  1  0  0  0
 39 64  1  0  0  0
 39 67  2  0  0  0
 40 52  1  0  0  0
 40 53  2  0  0  0
 40 58  1  0  0  0
 41109  1  0  0  0
 41110  1  0  0  0
 41111  1  0  0  0
 41 48  1  0  0  0
 42 43  1  0  0  0
 42 66  1  0  0  0
 42112  1  0  0  0
 42113  1  0  0  0
 43 44  1  0  0  0
 44114  1  0  0  0
 45 46  2  0  0  0
 45115  1  0  0  0
 46116  1  0  0  0
 47117  1  0  0  0
 47118  1  0  0  0
 48 56  1  0  0  0
 48 65  1  0  0  0
 48119  1  0  0  0
 49 50  1  0  0  0
 49 53  1  0  0  0
 49 64  1  0  0  0
 49120  1  0  0  0
 50 51  1  0  0  0
 50121  1  0  0  0
 50122  1  0  0  0
 51 52  1  0  0  0
 51123  1  0  0  0
 51124  1  0  0  0
 52125  1  0  0  0
 52126  1  0  0  0
 53 54  1  0  0  0
 54 55  2  0  0  0
 54127  1  0  0  0
 55 57  1  0  0  0
 55128  1  0  0  0
 56 69  2  0  0  0
 57 58  2  0  0  0
 57129  1  0  0  0
 58130  1  0  0  0
 59 60  1  0  0  0
 59 61  1  0  0  0
 59 62  1  0  0  0
 60131  1  0  0  0
 60132  1  0  0  0
 60133  1  0  0  0
 61134  1  0  0  0
 61135  1  0  0  0
 61136  1  0  0  0
 62137  1  0  0  0
 62138  1  0  0  0
 62139  1  0  0  0
 63 65  1  0  0  0
 63140  1  0  0  0
 63141  1  0  0  0
 63142  1  0  0  0
 64143  1  0  0  0
 65144  1  0  0  0
 68 81  1  0  0  0
 71 72  2  0  0  0
 71 73  1  0  0  0
 71145  1  0  0  0
 72 76  1  0  0  0
 72146  1  0  0  0
 73 74  2  0  0  0
 73 79  1  0  0  0
 74 75  1  0  0  0
 74 82  1  0  0  0
 75 76  2  0  0  0
 75 83  1  0  0  0
 76 85  1  0  0  0
 77147  1  0  0  0
 77148  1  0  0  0
 77149  1  0  0  0
 77 82  1  0  0  0
 78 82  1  0  0  0
 78150  1  0  0  0
 78151  1  0  0  0
 78152  1  0  0  0
 79 84  1  0  0  0
 79153  1  0  0  0
 79154  1  0  0  0
 80 81  1  0  0  0
 80 84  1  0  0  0
 80155  1  0  0  0
 80156  1  0  0  0
 81157  1  0  0  0
 81158  1  0  0  0
 82159  1  0  0  0
 83160  1  0  0  0
 84161  1  0  0  0
 84162  1  0  0  0
M  CHG  1  84   1
M  ISO  4   1 100  68 101  81 101  83 100
M  END
> <chiral flag>
0

> <version>
0

> <s_m_source_file>
/data/baiqing/PycharmProjects/Reinvent-master-3.2/result/LINK_invent/BTK/process_docking_weight1_custom_product_contain_oxygen_bond_distance_aromatic_linkinvent_7_9_3/rearranged_h_0034.sdf

> <i_m_source_file_index>
53

> <r_mmod_Potential_Energy-OPLS-2005>
-20.2215137481689

> <r_mmod_Stretch_Energy-OPLS-2005>
122.575584411621

> <r_mmod_Bend_Energy-OPLS-2005>
157.996154785156

> <r_mmod_Torsional_Energy-OPLS-2005>
240.868179321289

> <r_mmod_Improper_Torsional_Energy-OPLS-2005>
5.19599437713623

> <r_mmod_Van_der_Waal_Energy-OPLS-2005>
144.695495605469

> <r_mmod_Electrostatic_Energy-OPLS-2005>
-289.253356933594

> <r_mmod_Solvation_Energy-OPLS-2005>
-478.270599365234

> <b_mmod_Minimization_Converged-OPLS-2005>
0

> <r_mmod_RMS_Derivative-OPLS-2005>
4.82912969589233

$$$$
53
                    3D
 Structure written by MMmdl.
170179  0  0  1  0            999 V2000
  -30.6300  -14.7538   20.4695 C   0  0  0  0  0  0
  -30.4311  -12.4622   19.4764 C   0  0  0  0  0  0
  -29.5107  -12.5043   18.2368 C   0  0  0  0  0  0
  -28.0396  -12.3209   18.6543 C   0  0  0  0  0  0
  -27.6408  -13.2334   19.8453 C   0  0  2  0  0  0
  -28.6848  -13.1890   20.9828 C   0  0  0  0  0  0
  -25.2519  -13.8195   20.5668 C   0  0  0  0  0  0
  -24.1828  -13.0455   20.9261 C   0  0  0  0  0  0
  -24.6407  -11.6930   20.8782 C   0  0  0  0  0  0
  -23.9076  -10.4299   21.0429 C   0  0  0  0  0  0
  -24.3613   -9.4202   21.9198 C   0  0  0  0  0  0
  -23.6284   -8.2244   22.0762 C   0  0  0  0  0  0
  -22.4272   -8.0280   21.3549 C   0  0  0  0  0  0
  -21.9910   -9.0259   20.4648 C   0  0  0  0  0  0
  -22.7244  -10.2144   20.3067 C   0  0  0  0  0  0
  -21.6858   -6.0727   22.5272 C   0  0  0  0  0  0
  -21.4005   -6.5627   23.8205 C   0  0  0  0  0  0
  -21.3663   -5.6784   24.9167 C   0  0  0  0  0  0
  -21.6053   -4.3046   24.7220 C   0  0  0  0  0  0
  -21.8819   -3.8135   23.4344 C   0  0  0  0  0  0
  -21.9184   -4.6953   22.3397 C   0  0  0  0  0  0
  -22.7848  -13.5255   21.1878 C   0  0  0  0  0  0
  -22.1659   -4.2133   21.0975 F   0  0  0  0  0  0
  -21.5637   -3.4534   25.7739 F   0  0  0  0  0  0
  -29.9862  -13.5368   20.3994 N   0  0  0  0  0  0
  -26.2937  -12.9405   20.3259 N   0  0  0  0  0  0
  -25.9332  -11.6554   20.5755 N   0  0  0  0  0  0
  -22.0454  -12.8254   22.0407 N   0  0  0  0  0  0
  -25.4214  -15.1890   20.3893 N   0  0  0  0  0  0
  -31.8181  -14.8139   20.1429 O   0  0  0  0  0  0
  -21.6639   -6.8873   21.4235 O   0  0  0  0  0  0
  -22.3581  -14.5575   20.6700 O   0  0  0  0  0  0
  -24.6315  -31.8534   23.1960 C   0  0  0  0  0  0
  -25.9145  -32.4734   23.8279 C   0  0  1  0  0  0
  -27.2220  -27.2632   20.1417 C   0  0  0  0  0  0
  -25.5937  -33.8539   24.2217 N   0  0  0  0  0  0
  -23.4273  -30.4746   21.5393 C   0  0  2  0  0  0
  -24.8737  -28.9113   20.1206 C   0  0  0  0  0  0
  -22.7501  -29.4600   22.4929 C   0  0  0  0  0  0
  -18.0281  -28.1405   22.8452 C   0  0  0  0  0  0
  -24.1491  -36.7259   23.2645 C   0  0  0  0  0  0
  -25.9718  -30.7687   21.3729 C   0  0  0  0  0  0
  -26.0439  -29.3861   20.7273 C   0  0  0  0  0  0
  -27.2216  -28.5749   20.7235 C   0  0  0  0  0  0
  -26.0315  -26.8462   19.5178 C   0  0  0  0  0  0
  -24.8703  -27.6478   19.5052 C   0  0  0  0  0  0
  -23.6445  -29.8008   20.1585 C   0  0  0  0  0  0
  -25.4110  -36.3044   24.0325 C   0  0  1  0  0  0
  -20.5890  -28.3688   23.1271 C   0  0  2  0  0  0
  -20.6791  -26.9414   22.5411 C   0  0  0  0  0  0
  -19.5778  -26.6386   21.5217 C   0  0  0  0  0  0
  -18.1946  -26.7949   22.1603 C   0  0  0  0  0  0
  -19.1543  -28.8858   23.2859 C   0  0  0  0  0  0
  -18.9479  -30.1462   23.8863 C   0  0  0  0  0  0
  -17.6488  -30.6599   24.0553 C   0  0  0  0  0  0
  -25.9037  -34.9425   23.5057 C   0  0  0  0  0  0
  -16.5361  -29.9098   23.6346 C   0  0  0  0  0  0
  -16.7270  -28.6533   23.0325 C   0  0  0  0  0  0
  -26.4519  -31.6560   25.0670 C   0  0  0  0  0  0
  -25.3743  -31.3735   26.1388 C   0  0  0  0  0  0
  -27.0364  -30.2973   24.6146 C   0  0  0  0  0  0
  -27.6056  -32.4302   25.7460 C   0  0  0  0  0  0
  -27.5564  -37.1777   24.8465 C   0  0  0  0  0  0
  -21.4212  -29.3037   22.3663 N   0  0  0  0  0  0
  -26.4278  -37.3751   23.9421 N   0  0  0  0  0  0
  -24.6964  -31.0504   22.0926 N   0  0  0  0  0  0
  -23.4204  -28.8165   23.3053 O   0  0  0  0  0  0
  -28.3395  -26.4120   20.0537 O   0  0  0  0  0  0
  -26.5634  -34.8916   22.4642 O   0  0  0  0  0  0
  -23.5474  -32.1347   23.7274 O   0  0  0  0  0  0
  -31.1003  -20.1275   20.7701 C   0  0  0  0  0  0
  -31.5931  -17.7267   20.8555 C   0  0  0  0  0  0
  -29.7182  -19.9148   20.5707 C   0  0  0  0  0  0
  -29.2948  -18.5026   20.6108 C   0  0  0  0  0  0
  -30.2321  -17.3690   20.6980 C   0  0  0  0  0  0
  -32.0128  -19.0672   20.9113 C   0  0  0  0  0  0
  -28.1543  -23.7217   20.3785 C   0  0  0  0  0  0
  -26.7246  -17.4790   24.1567 C   0  0  0  0  0  0
  -25.4394  -17.4372   23.3355 C   0  0  0  0  0  0
  -27.8033  -17.5682   23.0771 C   0  0  0  0  0  0
  -25.7484  -18.2980   22.0984 C   0  0  0  0  0  0
  -30.4172  -23.0701   19.8058 C   0  0  0  0  0  0
  -28.7319  -21.1788   20.3159 C   0  0  0  0  0  0
  -27.7927  -18.2102   20.6392 C   0  0  0  0  0  0
  -28.4844  -25.2030   20.9243 C   0  0  0  0  0  0
  -29.8707  -15.9077   20.6919 N   0  0  0  0  0  0
  -29.0946  -22.6880   20.3077 N   0  0  0  0  0  0
  -27.2244  -18.4090   22.0023 N   0  3  0  0  0  0
  -26.9672  -23.4699   20.1541 O   0  0  0  0  0  0
  -33.6854  -19.4210   21.1590 Cl  0  0  0  0  0  0
  -31.4725  -12.5783   19.1703 H   0  0  0  0  0  0
  -30.3726  -11.4898   19.9679 H   0  0  0  0  0  0
  -29.7963  -11.7261   17.5273 H   0  0  0  0  0  0
  -29.6320  -13.4544   17.7157 H   0  0  0  0  0  0
  -27.9077  -11.2746   18.9338 H   0  0  0  0  0  0
  -27.3778  -12.4917   17.8044 H   0  0  0  0  0  0
  -27.6270  -14.2498   19.4503 H   0  0  0  0  0  0
  -28.7218  -12.1980   21.4375 H   0  0  0  0  0  0
  -28.4150  -13.8816   21.7812 H   0  0  0  0  0  0
  -25.2762   -9.5677   22.4772 H   0  0  0  0  0  0
  -23.9983   -7.4637   22.7491 H   0  0  0  0  0  0
  -21.0842   -8.8783   19.8959 H   0  0  0  0  0  0
  -22.3704  -10.9677   19.6177 H   0  0  0  0  0  0
  -21.1989   -7.6135   23.9699 H   0  0  0  0  0  0
  -21.1493   -6.0516   25.9071 H   0  0  0  0  0  0
  -22.0594   -2.7592   23.2849 H   0  0  0  0  0  0
  -22.4032  -11.9886   22.4777 H   0  0  0  0  0  0
  -21.1078  -13.1314   22.2594 H   0  0  0  0  0  0
  -24.5564  -15.7113   20.3039 H   0  0  0  0  0  0
  -26.0981  -15.4684   19.6934 H   0  0  0  0  0  0
  -26.7203  -32.5375   23.1007 H   0  0  0  0  0  0
  -25.0113  -33.9655   25.0381 H   0  0  0  0  0  0
  -22.7249  -31.2971   21.3890 H   0  0  0  0  0  0
  -23.3757  -35.9585   23.3287 H   0  0  0  0  0  0
  -24.3594  -36.8904   22.2066 H   0  0  0  0  0  0
  -23.7250  -37.6454   23.6679 H   0  0  0  0  0  0
  -26.1055  -31.5247   20.5984 H   0  0  0  0  0  0
  -26.8517  -30.8214   22.0017 H   0  0  0  0  0  0
  -28.1265  -28.9442   21.1825 H   0  0  0  0  0  0
  -26.0015  -25.8797   19.0335 H   0  0  0  0  0  0
  -23.9756  -27.2821   19.0205 H   0  0  0  0  0  0
  -23.7738  -30.5705   19.3979 H   0  0  0  0  0  0
  -22.7632  -29.2350   19.8497 H   0  0  0  0  0  0
  -25.1308  -36.1856   25.0821 H   0  0  0  0  0  0
  -20.9931  -28.3266   24.1412 H   0  0  0  0  0  0
  -20.5721  -26.2298   23.3619 H   0  0  0  0  0  0
  -21.6663  -26.7479   22.1186 H   0  0  0  0  0  0
  -19.6962  -25.6299   21.1241 H   0  0  0  0  0  0
  -19.6728  -27.3189   20.6747 H   0  0  0  0  0  0
  -17.4229  -26.6650   21.4000 H   0  0  0  0  0  0
  -18.0336  -26.0120   22.9015 H   0  0  0  0  0  0
  -19.7972  -30.7275   24.2212 H   0  0  0  0  0  0
  -17.5064  -31.6278   24.5157 H   0  0  0  0  0  0
  -15.5374  -30.2997   23.7734 H   0  0  0  0  0  0
  -15.8661  -28.0874   22.7031 H   0  0  0  0  0  0
  -24.5917  -30.7077   25.7731 H   0  0  0  0  0  0
  -24.8948  -32.2930   26.4739 H   0  0  0  0  0  0
  -25.8057  -30.8962   27.0195 H   0  0  0  0  0  0
  -26.2931  -29.6697   24.1211 H   0  0  0  0  0  0
  -27.4123  -29.7238   25.4631 H   0  0  0  0  0  0
  -27.8766  -30.4257   23.9328 H   0  0  0  0  0  0
  -27.2631  -33.3614   26.1980 H   0  0  0  0  0  0
  -28.3896  -32.6830   25.0310 H   0  0  0  0  0  0
  -28.0672  -31.8461   26.5431 H   0  0  0  0  0  0
  -28.2563  -38.0091   24.7512 H   0  0  0  0  0  0
  -28.1081  -36.2614   24.6274 H   0  0  0  0  0  0
  -27.2293  -37.1405   25.8878 H   0  0  0  0  0  0
  -20.9414  -29.8706   21.6801 H   0  0  0  0  0  0
  -26.0133  -38.2813   24.1451 H   0  0  0  0  0  0
  -31.5183  -21.1147   20.8362 H   0  0  0  0  0  0
  -32.3584  -16.9780   20.9783 H   0  0  0  0  0  0
  -26.8472  -16.6087   24.8037 H   0  0  0  0  0  0
  -26.7424  -18.3703   24.7867 H   0  0  0  0  0  0
  -24.5698  -17.7886   23.8923 H   0  0  0  0  0  0
  -25.2383  -16.4093   23.0296 H   0  0  0  0  0  0
  -28.0045  -16.5653   22.7012 H   0  0  0  0  0  0
  -28.7426  -17.9738   23.4563 H   0  0  0  0  0  0
  -25.3352  -19.3007   22.2182 H   0  0  0  0  0  0
  -25.3005  -17.8680   21.2022 H   0  0  0  0  0  0
  -30.3943  -24.0031   19.2380 H   0  0  0  0  0  0
  -30.8041  -22.3203   19.1131 H   0  0  0  0  0  0
  -31.1229  -23.2115   20.6251 H   0  0  0  0  0  0
  -27.9230  -21.0809   21.0390 H   0  0  0  0  0  0
  -28.2685  -20.9987   19.3442 H   0  0  0  0  0  0
  -27.5903  -17.1963   20.2964 H   0  0  0  0  0  0
  -27.2836  -18.8601   19.9273 H   0  0  0  0  0  0
  -29.5038  -25.2040   21.3097 H   0  0  0  0  0  0
  -27.8580  -25.3544   21.8040 H   0  0  0  0  0  0
  -28.8947  -15.6932   20.8108 H   0  0  0  0  0  0
  -27.4334  -19.3614   22.2607 H   0  0  0  0  0  0
  1 25  1  0  0  0
  1 30  2  0  0  0
  1 86  1  0  0  0
  2  3  1  0  0  0
  2 25  1  0  0  0
  2 91  1  0  0  0
  2 92  1  0  0  0
  3  4  1  0  0  0
  3 93  1  0  0  0
  3 94  1  0  0  0
  4  5  1  0  0  0
  4 95  1  0  0  0
  4 96  1  0  0  0
  5  6  1  0  0  0
  5 26  1  0  0  0
  5 97  1  0  0  0
  6 25  1  0  0  0
  6 98  1  0  0  0
  6 99  1  0  0  0
  7  8  2  0  0  0
  7 26  1  0  0  0
  7 29  1  0  0  0
  8  9  1  0  0  0
  8 22  1  0  0  0
  9 10  1  0  0  0
  9 27  2  0  0  0
 10 11  2  0  0  0
 10 15  1  0  0  0
 11 12  1  0  0  0
 11100  1  0  0  0
 12 13  2  0  0  0
 12101  1  0  0  0
 13 14  1  0  0  0
 13 31  1  0  0  0
 14 15  2  0  0  0
 14102  1  0  0  0
 15103  1  0  0  0
 16 17  2  0  0  0
 16 21  1  0  0  0
 16 31  1  0  0  0
 17 18  1  0  0  0
 17104  1  0  0  0
 18 19  2  0  0  0
 18105  1  0  0  0
 19 20  1  0  0  0
 19 24  1  0  0  0
 20 21  2  0  0  0
 20106  1  0  0  0
 21 23  1  0  0  0
 22 28  1  0  0  0
 22 32  2  0  0  0
 26 27  1  0  0  0
 28107  1  0  0  0
 28108  1  0  0  0
 29109  1  0  0  0
 29110  1  0  0  0
 33 34  1  0  0  0
 33 66  1  0  0  0
 33 70  2  0  0  0
 34 36  1  0  0  0
 34 59  1  0  0  0
 34111  1  0  0  0
 35 44  2  0  0  0
 35 45  1  0  0  0
 35 68  1  0  0  0
 36 56  1  0  0  0
 36112  1  0  0  0
 37 39  1  0  0  0
 37 47  1  0  0  0
 37 66  1  0  0  0
 37113  1  0  0  0
 38 43  2  0  0  0
 38 46  1  0  0  0
 38 47  1  0  0  0
 39 64  1  0  0  0
 39 67  2  0  0  0
 40 52  1  0  0  0
 40 53  2  0  0  0
 40 58  1  0  0  0
 41114  1  0  0  0
 41115  1  0  0  0
 41116  1  0  0  0
 41 48  1  0  0  0
 42 43  1  0  0  0
 42 66  1  0  0  0
 42117  1  0  0  0
 42118  1  0  0  0
 43 44  1  0  0  0
 44119  1  0  0  0
 45 46  2  0  0  0
 45120  1  0  0  0
 46121  1  0  0  0
 47122  1  0  0  0
 47123  1  0  0  0
 48 56  1  0  0  0
 48 65  1  0  0  0
 48124  1  0  0  0
 49 50  1  0  0  0
 49 53  1  0  0  0
 49 64  1  0  0  0
 49125  1  0  0  0
 50 51  1  0  0  0
 50126  1  0  0  0
 50127  1  0  0  0
 51 52  1  0  0  0
 51128  1  0  0  0
 51129  1  0  0  0
 52130  1  0  0  0
 52131  1  0  0  0
 53 54  1  0  0  0
 54 55  2  0  0  0
 54132  1  0  0  0
 55 57  1  0  0  0
 55133  1  0  0  0
 56 69  2  0  0  0
 57 58  2  0  0  0
 57134  1  0  0  0
 58135  1  0  0  0
 59 60  1  0  0  0
 59 61  1  0  0  0
 59 62  1  0  0  0
 60136  1  0  0  0
 60137  1  0  0  0
 60138  1  0  0  0
 61139  1  0  0  0
 61140  1  0  0  0
 61141  1  0  0  0
 62142  1  0  0  0
 62143  1  0  0  0
 62144  1  0  0  0
 63 65  1  0  0  0
 63145  1  0  0  0
 63146  1  0  0  0
 63147  1  0  0  0
 64148  1  0  0  0
 65149  1  0  0  0
 68 85  1  0  0  0
 71 73  2  0  0  0
 71 76  1  0  0  0
 71150  1  0  0  0
 72 75  1  0  0  0
 72 76  2  0  0  0
 72151  1  0  0  0
 73 74  1  0  0  0
 73 83  1  0  0  0
 74 75  2  0  0  0
 74 84  1  0  0  0
 75 86  1  0  0  0
 76 90  1  0  0  0
 77 85  1  0  0  0
 77 87  1  0  0  0
 77 89  2  0  0  0
 78 79  1  0  0  0
 78 80  1  0  0  0
 78152  1  0  0  0
 78153  1  0  0  0
 79 81  1  0  0  0
 79154  1  0  0  0
 79155  1  0  0  0
 80 88  1  0  0  0
 80156  1  0  0  0
 80157  1  0  0  0
 81 88  1  0  0  0
 81158  1  0  0  0
 81159  1  0  0  0
 82 87  1  0  0  0
 82160  1  0  0  0
 82161  1  0  0  0
 82162  1  0  0  0
 83 87  1  0  0  0
 83163  1  0  0  0
 83164  1  0  0  0
 84165  1  0  0  0
 84166  1  0  0  0
 84 88  1  0  0  0
 85167  1  0  0  0
 85168  1  0  0  0
 86169  1  0  0  0
 88170  1  0  0  0
M  CHG  1  88   1
M  ISO  4   1 100  68 101  85 101  86 100
M  END
> <chiral flag>
0

> <version>
0

> <s_m_source_file>
/data/baiqing/PycharmProjects/Reinvent-master-3.2/result/LINK_invent/BTK/process_docking_weight1_custom_product_contain_oxygen_bond_distance_aromatic_linkinvent_7_9_3/rearranged_h_0034.sdf

> <i_m_source_file_index>
54

> <r_mmod_Potential_Energy-OPLS-2005>
216.199356079102

> <r_mmod_Stretch_Energy-OPLS-2005>
151.610977172852

> <r_mmod_Bend_Energy-OPLS-2005>
209.966232299805

> <r_mmod_Torsional_Energy-OPLS-2005>
329.414123535156

> <r_mmod_Improper_Torsional_Energy-OPLS-2005>
12.3706493377686

> <r_mmod_Van_der_Waal_Energy-OPLS-2005>
125.596557617188

> <r_mmod_Electrostatic_Energy-OPLS-2005>
-211.655197143555

> <r_mmod_Solvation_Energy-OPLS-2005>
-482.42236328125

> <b_mmod_Minimization_Converged-OPLS-2005>
0

> <r_mmod_RMS_Derivative-OPLS-2005>
2.61167430877686

$$$$
54
                    3D
 Structure written by MMmdl.
166175  0  0  1  0            999 V2000
  -30.6378  -14.6440   20.5055 C   0  0  0  0  0  0
  -30.4416  -12.3958   19.4566 C   0  0  0  0  0  0
  -29.5126  -12.5055   18.2269 C   0  0  0  0  0  0
  -28.0367  -12.3431   18.6381 C   0  0  0  0  0  0
  -27.6560  -13.2190   19.8623 C   0  0  2  0  0  0
  -28.7009  -13.0810   20.9925 C   0  0  0  0  0  0
  -25.2598  -13.8205   20.5696 C   0  0  0  0  0  0
  -24.1857  -13.0478   20.9225 C   0  0  0  0  0  0
  -24.6405  -11.6942   20.8756 C   0  0  0  0  0  0
  -23.9069  -10.4324   21.0402 C   0  0  0  0  0  0
  -24.3613   -9.4242   21.9190 C   0  0  0  0  0  0
  -23.6289   -8.2279   22.0735 C   0  0  0  0  0  0
  -22.4275   -8.0318   21.3528 C   0  0  0  0  0  0
  -21.9907   -9.0295   20.4628 C   0  0  0  0  0  0
  -22.7236  -10.2181   20.3053 C   0  0  0  0  0  0
  -21.6858   -6.0744   22.5280 C   0  0  0  0  0  0
  -21.4048   -6.5642   23.8226 C   0  0  0  0  0  0
  -21.3643   -5.6781   24.9172 C   0  0  0  0  0  0
  -21.6021   -4.3045   24.7216 C   0  0  0  0  0  0
  -21.8817   -3.8145   23.4344 C   0  0  0  0  0  0
  -21.9196   -4.6965   22.3398 C   0  0  0  0  0  0
  -22.7884  -13.5282   21.1864 C   0  0  0  0  0  0
  -22.1652   -4.2159   21.0970 F   0  0  0  0  0  0
  -21.5595   -3.4526   25.7725 F   0  0  0  0  0  0
  -30.0208  -13.4210   20.4320 N   0  0  0  0  0  0
  -26.3008  -12.9373   20.3303 N   0  0  0  0  0  0
  -25.9331  -11.6543   20.5747 N   0  0  0  0  0  0
  -22.0465  -12.8301   22.0384 N   0  0  0  0  0  0
  -25.4373  -15.1917   20.4075 N   0  0  0  0  0  0
  -31.7950  -14.8044   20.1037 O   0  0  0  0  0  0
  -21.6639   -6.8911   21.4249 O   0  0  0  0  0  0
  -22.3610  -14.5581   20.6679 O   0  0  0  0  0  0
  -24.6246  -31.8609   23.2032 C   0  0  0  0  0  0
  -25.9089  -32.4773   23.8361 C   0  0  1  0  0  0
  -27.2392  -27.3344   20.1107 C   0  0  0  0  0  0
  -25.5915  -33.8574   24.2275 N   0  0  0  0  0  0
  -23.4176  -30.4842   21.5478 C   0  0  2  0  0  0
  -24.8635  -28.9410   20.1190 C   0  0  0  0  0  0
  -22.7461  -29.4623   22.4954 C   0  0  0  0  0  0
  -18.0289  -28.1368   22.8478 C   0  0  0  0  0  0
  -24.1484  -36.7288   23.2627 C   0  0  0  0  0  0
  -25.9583  -30.7984   21.3712 C   0  0  0  0  0  0
  -26.0352  -29.4273   20.7129 C   0  0  0  0  0  0
  -27.2241  -28.6381   20.6950 C   0  0  0  0  0  0
  -26.0265  -26.8890   19.5258 C   0  0  0  0  0  0
  -24.8597  -27.6735   19.5242 C   0  0  0  0  0  0
  -23.6311  -29.8196   20.1643 C   0  0  0  0  0  0
  -25.4099  -36.3056   24.0322 C   0  0  1  0  0  0
  -20.5883  -28.3670   23.1274 C   0  0  2  0  0  0
  -20.6768  -26.9396   22.5392 C   0  0  0  0  0  0
  -19.5741  -26.6367   21.5194 C   0  0  0  0  0  0
  -18.1929  -26.7915   22.1618 C   0  0  0  0  0  0
  -19.1537  -28.8841   23.2871 C   0  0  0  0  0  0
  -18.9468  -30.1440   23.8889 C   0  0  0  0  0  0
  -17.6466  -30.6575   24.0557 C   0  0  0  0  0  0
  -25.9051  -34.9437   23.5104 C   0  0  0  0  0  0
  -16.5360  -29.9077   23.6320 C   0  0  0  0  0  0
  -16.7276  -28.6492   23.0358 C   0  0  0  0  0  0
  -26.4487  -31.6579   25.0721 C   0  0  0  0  0  0
  -25.3739  -31.3751   26.1472 C   0  0  0  0  0  0
  -27.0311  -30.2998   24.6156 C   0  0  0  0  0  0
  -27.6053  -32.4319   25.7469 C   0  0  0  0  0  0
  -27.5580  -37.1762   24.8434 C   0  0  0  0  0  0
  -21.4179  -29.3035   22.3681 N   0  0  0  0  0  0
  -26.4258  -37.3761   23.9427 N   0  0  0  0  0  0
  -24.6856  -31.0633   22.0990 N   0  0  0  0  0  0
  -23.4181  -28.8156   23.3030 O   0  0  0  0  0  0
  -28.3910  -26.5218   20.1356 O   0  0  0  0  0  0
  -26.5633  -34.8911   22.4672 O   0  0  0  0  0  0
  -23.5408  -32.1398   23.7382 O   0  0  0  0  0  0
  -30.8995  -19.2863   20.0052 C   0  0  0  0  0  0
  -30.8757  -17.8602   20.0419 C   0  0  0  0  0  0
  -30.0287  -20.0954   20.7892 C   0  0  0  0  0  0
  -29.1085  -19.3890   21.6181 C   0  0  0  0  0  0
  -29.0397  -17.9486   21.6095 C   0  0  0  0  0  0
  -29.9504  -17.1483   20.8507 C   0  0  0  0  0  0
  -27.7839  -23.2567   18.2633 C   0  0  0  0  0  0
  -28.2195  -24.7209   18.4274 C   0  0  0  0  0  0
  -28.8019  -22.2831   18.8888 C   0  0  0  0  0  0
  -29.3709  -24.0937   20.5398 C   0  0  0  0  0  0
  -28.2664  -25.0591   19.9288 C   0  0  1  0  0  0
  -28.2047  -20.1754   22.5639 C   0  0  0  0  0  0
  -27.9771  -17.2490   22.4580 C   0  0  0  0  0  0
  -30.2160  -21.6694   20.8261 C   0  0  0  0  0  0
  -29.8491  -15.6846   20.9174 N   0  0  0  0  0  0
  -29.1298  -22.5968   20.3066 N   0  3  2  0  0  0
  -31.4843  -12.5157   19.1556 H   0  0  0  0  0  0
  -30.3711  -11.4037   19.9061 H   0  0  0  0  0  0
  -29.7764  -11.7509   17.4840 H   0  0  0  0  0  0
  -29.6544  -13.4759   17.7453 H   0  0  0  0  0  0
  -27.8764  -11.2896   18.8760 H   0  0  0  0  0  0
  -27.3851  -12.5675   17.7936 H   0  0  0  0  0  0
  -27.6713  -14.2529   19.5173 H   0  0  0  0  0  0
  -28.7085  -12.0607   21.3789 H   0  0  0  0  0  0
  -28.4406  -13.7166   21.8411 H   0  0  0  0  0  0
  -25.2755   -9.5711   22.4789 H   0  0  0  0  0  0
  -23.9976   -7.4655   22.7444 H   0  0  0  0  0  0
  -21.0835   -8.8842   19.8928 H   0  0  0  0  0  0
  -22.3701  -10.9740   19.6177 H   0  0  0  0  0  0
  -21.2090   -7.6155   23.9753 H   0  0  0  0  0  0
  -21.1437   -6.0495   25.9076 H   0  0  0  0  0  0
  -22.0606   -2.7604   23.2849 H   0  0  0  0  0  0
  -22.4048  -11.9978   22.4827 H   0  0  0  0  0  0
  -21.1082  -13.1383   22.2524 H   0  0  0  0  0  0
  -24.6694  -15.8487   20.4975 H   0  0  0  0  0  0
  -26.2638  -15.6066   19.9986 H   0  0  0  0  0  0
  -26.7157  -32.5453   23.1110 H   0  0  0  0  0  0
  -25.0033  -33.9729   25.0402 H   0  0  0  0  0  0
  -22.7097  -31.3033   21.4057 H   0  0  0  0  0  0
  -23.3716  -35.9649   23.3285 H   0  0  0  0  0  0
  -24.3573  -36.8915   22.2040 H   0  0  0  0  0  0
  -23.7283  -37.6507   23.6664 H   0  0  0  0  0  0
  -26.0877  -31.5658   20.6057 H   0  0  0  0  0  0
  -26.8379  -30.8441   22.0021 H   0  0  0  0  0  0
  -28.1245  -29.0133   21.1638 H   0  0  0  0  0  0
  -25.9259  -25.9165   19.0749 H   0  0  0  0  0  0
  -23.9564  -27.2840   19.0744 H   0  0  0  0  0  0
  -23.7501  -30.5962   19.4085 H   0  0  0  0  0  0
  -22.7508  -29.2514   19.8593 H   0  0  0  0  0  0
  -25.1270  -36.1886   25.0809 H   0  0  0  0  0  0
  -20.9969  -28.3248   24.1396 H   0  0  0  0  0  0
  -20.5633  -26.2292   23.3595 H   0  0  0  0  0  0
  -21.6650  -26.7410   22.1211 H   0  0  0  0  0  0
  -19.6905  -25.6278   21.1226 H   0  0  0  0  0  0
  -19.6675  -27.3171   20.6718 H   0  0  0  0  0  0
  -17.4188  -26.6642   21.4034 H   0  0  0  0  0  0
  -18.0345  -26.0054   22.9011 H   0  0  0  0  0  0
  -19.7947  -30.7254   24.2254 H   0  0  0  0  0  0
  -17.5032  -31.6256   24.5156 H   0  0  0  0  0  0
  -15.5363  -30.2991   23.7640 H   0  0  0  0  0  0
  -15.8676  -28.0806   22.7099 H   0  0  0  0  0  0
  -24.5889  -30.7106   25.7846 H   0  0  0  0  0  0
  -24.8971  -32.2945   26.4896 H   0  0  0  0  0  0
  -25.8075  -30.8940   27.0246 H   0  0  0  0  0  0
  -26.2866  -29.6752   24.1203 H   0  0  0  0  0  0
  -27.4044  -29.7252   25.4642 H   0  0  0  0  0  0
  -27.8728  -30.4290   23.9346 H   0  0  0  0  0  0
  -27.2671  -33.3641   26.2011 H   0  0  0  0  0  0
  -28.3870  -32.6834   25.0288 H   0  0  0  0  0  0
  -28.0698  -31.8467   26.5413 H   0  0  0  0  0  0
  -28.2524  -38.0128   24.7566 H   0  0  0  0  0  0
  -28.1146  -36.2668   24.6124 H   0  0  0  0  0  0
  -27.2318  -37.1242   25.8835 H   0  0  0  0  0  0
  -20.9348  -29.8790   21.6926 H   0  0  0  0  0  0
  -26.0123  -38.2806   24.1508 H   0  0  0  0  0  0
  -31.6440  -19.7616   19.3804 H   0  0  0  0  0  0
  -31.5826  -17.3215   19.4259 H   0  0  0  0  0  0
  -27.6697  -23.0242   17.2050 H   0  0  0  0  0  0
  -26.7998  -23.1104   18.7126 H   0  0  0  0  0  0
  -27.5545  -25.3736   17.8684 H   0  0  0  0  0  0
  -29.2040  -24.8693   17.9815 H   0  0  0  0  0  0
  -29.7171  -22.2888   18.2950 H   0  0  0  0  0  0
  -28.4040  -21.2676   18.8378 H   0  0  0  0  0  0
  -29.4505  -24.2762   21.6124 H   0  0  0  0  0  0
  -30.3406  -24.3613   20.1178 H   0  0  0  0  0  0
  -27.3316  -24.7608   20.4055 H   0  0  0  0  0  0
  -28.6040  -21.1541   22.8228 H   0  0  0  0  0  0
  -28.0808  -19.6576   23.5158 H   0  0  0  0  0  0
  -27.2207  -20.3185   22.1180 H   0  0  0  0  0  0
  -27.0541  -17.8265   22.5132 H   0  0  0  0  0  0
  -28.3498  -17.0926   23.4711 H   0  0  0  0  0  0
  -27.6799  -16.2840   22.0507 H   0  0  0  0  0  0
  -31.1226  -21.9041   20.2655 H   0  0  0  0  0  0
  -30.4567  -21.9525   21.8516 H   0  0  0  0  0  0
  -28.9765  -15.3591   21.2995 H   0  0  0  0  0  0
  -28.3020  -22.3781   20.8397 H   0  0  0  0  0  0
  1 25  1  0  0  0
  1 30  2  0  0  0
  1 85  1  0  0  0
  2  3  1  0  0  0
  2 25  1  0  0  0
  2 87  1  0  0  0
  2 88  1  0  0  0
  3  4  1  0  0  0
  3 89  1  0  0  0
  3 90  1  0  0  0
  4  5  1  0  0  0
  4 91  1  0  0  0
  4 92  1  0  0  0
  5  6  1  0  0  0
  5 26  1  0  0  0
  5 93  1  0  0  0
  6 25  1  0  0  0
  6 94  1  0  0  0
  6 95  1  0  0  0
  7  8  2  0  0  0
  7 26  1  0  0  0
  7 29  1  0  0  0
  8  9  1  0  0  0
  8 22  1  0  0  0
  9 10  1  0  0  0
  9 27  2  0  0  0
 10 11  2  0  0  0
 10 15  1  0  0  0
 11 12  1  0  0  0
 11 96  1  0  0  0
 12 13  2  0  0  0
 12 97  1  0  0  0
 13 14  1  0  0  0
 13 31  1  0  0  0
 14 15  2  0  0  0
 14 98  1  0  0  0
 15 99  1  0  0  0
 16 17  2  0  0  0
 16 21  1  0  0  0
 16 31  1  0  0  0
 17 18  1  0  0  0
 17100  1  0  0  0
 18 19  2  0  0  0
 18101  1  0  0  0
 19 20  1  0  0  0
 19 24  1  0  0  0
 20 21  2  0  0  0
 20102  1  0  0  0
 21 23  1  0  0  0
 22 28  1  0  0  0
 22 32  2  0  0  0
 26 27  1  0  0  0
 28103  1  0  0  0
 28104  1  0  0  0
 29105  1  0  0  0
 29106  1  0  0  0
 33 34  1  0  0  0
 33 66  1  0  0  0
 33 70  2  0  0  0
 34 36  1  0  0  0
 34 59  1  0  0  0
 34107  1  0  0  0
 35 44  2  0  0  0
 35 45  1  0  0  0
 35 68  1  0  0  0
 36 56  1  0  0  0
 36108  1  0  0  0
 37 39  1  0  0  0
 37 47  1  0  0  0
 37 66  1  0  0  0
 37109  1  0  0  0
 38 43  2  0  0  0
 38 46  1  0  0  0
 38 47  1  0  0  0
 39 64  1  0  0  0
 39 67  2  0  0  0
 40 52  1  0  0  0
 40 53  2  0  0  0
 40 58  1  0  0  0
 41110  1  0  0  0
 41111  1  0  0  0
 41112  1  0  0  0
 41 48  1  0  0  0
 42 43  1  0  0  0
 42 66  1  0  0  0
 42113  1  0  0  0
 42114  1  0  0  0
 43 44  1  0  0  0
 44115  1  0  0  0
 45 46  2  0  0  0
 45116  1  0  0  0
 46117  1  0  0  0
 47118  1  0  0  0
 47119  1  0  0  0
 48 56  1  0  0  0
 48 65  1  0  0  0
 48120  1  0  0  0
 49 50  1  0  0  0
 49 53  1  0  0  0
 49 64  1  0  0  0
 49121  1  0  0  0
 50 51  1  0  0  0
 50122  1  0  0  0
 50123  1  0  0  0
 51 52  1  0  0  0
 51124  1  0  0  0
 51125  1  0  0  0
 52126  1  0  0  0
 52127  1  0  0  0
 53 54  1  0  0  0
 54 55  2  0  0  0
 54128  1  0  0  0
 55 57  1  0  0  0
 55129  1  0  0  0
 56 69  2  0  0  0
 57 58  2  0  0  0
 57130  1  0  0  0
 58131  1  0  0  0
 59 60  1  0  0  0
 59 61  1  0  0  0
 59 62  1  0  0  0
 60132  1  0  0  0
 60133  1  0  0  0
 60134  1  0  0  0
 61135  1  0  0  0
 61136  1  0  0  0
 61137  1  0  0  0
 62138  1  0  0  0
 62139  1  0  0  0
 62140  1  0  0  0
 63 65  1  0  0  0
 63141  1  0  0  0
 63142  1  0  0  0
 63143  1  0  0  0
 64144  1  0  0  0
 65145  1  0  0  0
 68 81  1  0  0  0
 71 72  2  0  0  0
 71 73  1  0  0  0
 71146  1  0  0  0
 72 76  1  0  0  0
 72147  1  0  0  0
 73 74  2  0  0  0
 73 84  1  0  0  0
 74 75  1  0  0  0
 74 82  1  0  0  0
 75 76  2  0  0  0
 75 83  1  0  0  0
 76 85  1  0  0  0
 77 78  1  0  0  0
 77 79  1  0  0  0
 77148  1  0  0  0
 77149  1  0  0  0
 78 81  1  0  0  0
 78150  1  0  0  0
 78151  1  0  0  0
 79 86  1  0  0  0
 79152  1  0  0  0
 79153  1  0  0  0
 80 81  1  0  0  0
 80 86  1  0  0  0
 80154  1  0  0  0
 80155  1  0  0  0
 81156  1  0  0  0
 82157  1  0  0  0
 82158  1  0  0  0
 82159  1  0  0  0
 83160  1  0  0  0
 83161  1  0  0  0
 83162  1  0  0  0
 84163  1  0  0  0
 84164  1  0  0  0
 84 86  1  0  0  0
 85165  1  0  0  0
 86166  1  0  0  0
M  CHG  1  86   1
M  ISO  4   1 100  68 101  81 101  85 100
M  END
> <chiral flag>
0

> <version>
0

> <s_m_source_file>
/data/baiqing/PycharmProjects/Reinvent-master-3.2/result/LINK_invent/BTK/process_docking_weight1_custom_product_contain_oxygen_bond_distance_aromatic_linkinvent_7_9_3/rearranged_h_0034.sdf

> <i_m_source_file_index>
55

> <r_mmod_Potential_Energy-OPLS-2005>
-27.9737911224365

> <r_mmod_Stretch_Energy-OPLS-2005>
87.2339477539062

> <r_mmod_Bend_Energy-OPLS-2005>
148.20637512207

> <r_mmod_Torsional_Energy-OPLS-2005>
230.200042724609

> <r_mmod_Improper_Torsional_Energy-OPLS-2005>
4.16231679916382

> <r_mmod_Van_der_Waal_Energy-OPLS-2005>
156.45051574707

> <r_mmod_Electrostatic_Energy-OPLS-2005>
-274.951416015625

> <r_mmod_Solvation_Energy-OPLS-2005>
-423.326446533203

> <b_mmod_Minimization_Converged-OPLS-2005>
0

> <r_mmod_RMS_Derivative-OPLS-2005>
3.494389295578

$$$$
55
                    3D
 Structure written by MMmdl.
171180  0  0  1  0            999 V2000
  -30.6334  -14.5412   20.4729 C   0  0  0  0  0  0
  -30.4306  -12.3127   19.4651 C   0  0  0  0  0  0
  -29.5198  -12.5020   18.2325 C   0  0  0  0  0  0
  -28.0330  -12.3594   18.6285 C   0  0  0  0  0  0
  -27.6599  -13.2050   19.8754 C   0  0  2  0  0  0
  -28.6993  -13.0116   21.0024 C   0  0  0  0  0  0
  -25.2591  -13.8182   20.5588 C   0  0  0  0  0  0
  -24.1852  -13.0450   20.9080 C   0  0  0  0  0  0
  -24.6419  -11.6914   20.8714 C   0  0  0  0  0  0
  -23.9073  -10.4305   21.0396 C   0  0  0  0  0  0
  -24.3622   -9.4237   21.9196 C   0  0  0  0  0  0
  -23.6310   -8.2267   22.0770 C   0  0  0  0  0  0
  -22.4300   -8.0302   21.3532 C   0  0  0  0  0  0
  -21.9893   -9.0271   20.4636 C   0  0  0  0  0  0
  -22.7221  -10.2161   20.3052 C   0  0  0  0  0  0
  -21.6885   -6.0726   22.5258 C   0  0  0  0  0  0
  -21.4019   -6.5613   23.8188 C   0  0  0  0  0  0
  -21.3678   -5.6765   24.9155 C   0  0  0  0  0  0
  -21.6072   -4.3020   24.7202 C   0  0  0  0  0  0
  -21.8825   -3.8118   23.4308 C   0  0  0  0  0  0
  -21.9205   -4.6944   22.3373 C   0  0  0  0  0  0
  -22.7882  -13.5258   21.1746 C   0  0  0  0  0  0
  -22.1679   -4.2124   21.0950 F   0  0  0  0  0  0
  -21.5661   -3.4517   25.7718 F   0  0  0  0  0  0
  -30.0277  -13.3220   20.4577 N   0  0  0  0  0  0
  -26.3020  -12.9331   20.3307 N   0  0  0  0  0  0
  -25.9340  -11.6496   20.5738 N   0  0  0  0  0  0
  -22.0522  -12.8305   22.0327 N   0  0  0  0  0  0
  -25.4312  -15.1919   20.3992 N   0  0  0  0  0  0
  -31.7903  -14.7063   20.0799 O   0  0  0  0  0  0
  -21.6663   -6.8888   21.4235 O   0  0  0  0  0  0
  -22.3582  -14.5554   20.6562 O   0  0  0  0  0  0
  -24.6104  -31.8673   23.2136 C   0  0  0  0  0  0
  -25.8998  -32.4834   23.8419 C   0  0  1  0  0  0
  -27.2313  -27.4641   20.0875 C   0  0  0  0  0  0
  -25.5851  -33.8622   24.2366 N   0  0  0  0  0  0
  -23.3982  -30.4943   21.5491 C   0  0  2  0  0  0
  -24.8454  -28.9594   20.1175 C   0  0  0  0  0  0
  -22.7390  -29.4679   22.4976 C   0  0  0  0  0  0
  -18.0276  -28.1368   22.8465 C   0  0  0  0  0  0
  -24.1488  -36.7333   23.2654 C   0  0  0  0  0  0
  -25.9230  -30.8532   21.3552 C   0  0  0  0  0  0
  -26.0027  -29.4835   20.7085 C   0  0  0  0  0  0
  -27.2034  -28.7449   20.6875 C   0  0  0  0  0  0
  -26.0625  -26.9452   19.4976 C   0  0  0  0  0  0
  -24.8700  -27.6899   19.5089 C   0  0  0  0  0  0
  -23.6066  -29.8224   20.1647 C   0  0  0  0  0  0
  -25.4090  -36.3113   24.0382 C   0  0  1  0  0  0
  -20.5863  -28.3627   23.1325 C   0  0  2  0  0  0
  -20.6731  -26.9359   22.5419 C   0  0  0  0  0  0
  -19.5715  -26.6362   21.5191 C   0  0  0  0  0  0
  -18.1906  -26.7900   22.1617 C   0  0  0  0  0  0
  -19.1535  -28.8799   23.2894 C   0  0  0  0  0  0
  -18.9451  -30.1389   23.8926 C   0  0  0  0  0  0
  -17.6466  -30.6553   24.0565 C   0  0  0  0  0  0
  -25.9017  -34.9486   23.5187 C   0  0  0  0  0  0
  -16.5352  -29.9072   23.6336 C   0  0  0  0  0  0
  -16.7266  -28.6501   23.0329 C   0  0  0  0  0  0
  -26.4429  -31.6587   25.0731 C   0  0  0  0  0  0
  -25.3737  -31.3772   26.1529 C   0  0  0  0  0  0
  -27.0215  -30.3021   24.6065 C   0  0  0  0  0  0
  -27.5960  -32.4299   25.7533 C   0  0  0  0  0  0
  -27.5589  -37.1804   24.8451 C   0  0  0  0  0  0
  -21.4112  -29.3031   22.3762 N   0  0  0  0  0  0
  -26.4259  -37.3794   23.9453 N   0  0  0  0  0  0
  -24.6636  -31.0853   22.0975 N   0  0  0  0  0  0
  -23.4218  -28.8182   23.2947 O   0  0  0  0  0  0
  -28.3874  -26.7354   20.0303 O   0  0  0  0  0  0
  -26.5561  -34.8922   22.4743 O   0  0  0  0  0  0
  -23.5307  -32.1351   23.7565 O   0  0  0  0  0  0
  -28.7447  -19.0631   19.5054 C   0  0  0  0  0  0
  -30.8347  -20.1822   20.9651 C   0  0  0  0  0  0
  -28.8429  -20.4761   19.6097 C   0  0  0  0  0  0
  -30.7493  -18.7709   20.8351 C   0  0  0  0  0  0
  -29.7113  -18.1878   20.0675 C   0  0  0  0  0  0
  -29.9275  -21.0570   20.3196 C   0  0  0  0  0  0
  -30.4519  -24.5013   21.8837 C   0  0  0  0  0  0
  -33.2258  -22.7656   23.5934 C   0  0  0  0  0  0
  -31.5157  -24.2495   22.6736 C   0  0  0  0  0  0
  -31.9849  -22.9538   23.1138 C   0  0  0  0  0  0
  -29.9159  -25.8859   21.6183 C   0  0  0  0  0  0
  -28.5063  -24.3044   20.4684 C   0  0  0  0  0  0
  -28.5260  -25.7281   21.0367 C   0  0  2  0  0  0
  -27.7989  -21.3349   18.9003 C   0  0  0  0  0  0
  -31.8474  -17.9205   21.4434 C   0  0  0  0  0  0
  -29.6925  -16.6934   19.6449 C   0  0  0  0  0  0
  -30.2744  -22.5644   20.2437 C   0  0  0  0  0  0
  -29.7949  -15.5922   20.6339 N   0  0  0  0  0  0
  -29.5635  -23.5098   21.1663 N   0  3  1  0  0  0
  -31.4824  -12.4019   19.1853 H   0  0  0  0  0  0
  -30.3163  -11.3100   19.8774 H   0  0  0  0  0  0
  -29.7724  -11.7845   17.4549 H   0  0  0  0  0  0
  -29.6972  -13.4913   17.8084 H   0  0  0  0  0  0
  -27.8422  -11.3021   18.8266 H   0  0  0  0  0  0
  -27.3990  -12.6295   17.7837 H   0  0  0  0  0  0
  -27.6881  -14.2435   19.5580 H   0  0  0  0  0  0
  -28.6820  -11.9763   21.3428 H   0  0  0  0  0  0
  -28.4680  -13.6228   21.8758 H   0  0  0  0  0  0
  -25.2794   -9.5740   22.4709 H   0  0  0  0  0  0
  -24.0037   -7.4676   22.7511 H   0  0  0  0  0  0
  -21.0804   -8.8766   19.8950 H   0  0  0  0  0  0
  -22.3682  -10.9681   19.6112 H   0  0  0  0  0  0
  -21.1999   -7.6129   23.9666 H   0  0  0  0  0  0
  -21.1519   -6.0505   25.9050 H   0  0  0  0  0  0
  -22.0595   -2.7573   23.2807 H   0  0  0  0  0  0
  -22.4115  -12.0011   22.4829 H   0  0  0  0  0  0
  -21.1135  -13.1352   22.2474 H   0  0  0  0  0  0
  -24.6610  -15.8442   20.5074 H   0  0  0  0  0  0
  -26.2806  -15.6310   20.0713 H   0  0  0  0  0  0
  -26.7111  -32.5563   23.1218 H   0  0  0  0  0  0
  -24.9934  -33.9769   25.0470 H   0  0  0  0  0  0
  -22.6821  -31.3067   21.4083 H   0  0  0  0  0  0
  -23.3736  -35.9675   23.3250 H   0  0  0  0  0  0
  -24.3613  -36.8984   22.2084 H   0  0  0  0  0  0
  -23.7206  -37.6525   23.6665 H   0  0  0  0  0  0
  -26.0259  -31.6256   20.5911 H   0  0  0  0  0  0
  -26.8159  -30.9081   21.9689 H   0  0  0  0  0  0
  -28.1062  -29.1598   21.1124 H   0  0  0  0  0  0
  -26.0895  -25.9747   19.0218 H   0  0  0  0  0  0
  -23.9784  -27.2856   19.0497 H   0  0  0  0  0  0
  -23.7097  -30.5936   19.3968 H   0  0  0  0  0  0
  -22.7335  -29.2337   19.8737 H   0  0  0  0  0  0
  -25.1259  -36.1991   25.0866 H   0  0  0  0  0  0
  -20.9950  -28.3142   24.1438 H   0  0  0  0  0  0
  -20.5515  -26.2235   23.3595 H   0  0  0  0  0  0
  -21.6610  -26.7295   22.1274 H   0  0  0  0  0  0
  -19.6859  -25.6273   21.1212 H   0  0  0  0  0  0
  -19.6696  -27.3163   20.6710 H   0  0  0  0  0  0
  -17.4174  -26.6638   21.4029 H   0  0  0  0  0  0
  -18.0309  -26.0040   22.9012 H   0  0  0  0  0  0
  -19.7928  -30.7179   24.2325 H   0  0  0  0  0  0
  -17.5037  -31.6240   24.5126 H   0  0  0  0  0  0
  -15.5362  -30.3003   23.7605 H   0  0  0  0  0  0
  -15.8663  -28.0841   22.7020 H   0  0  0  0  0  0
  -24.5787  -30.7244   25.7938 H   0  0  0  0  0  0
  -24.9087  -32.2992   26.5034 H   0  0  0  0  0  0
  -25.8091  -30.8890   27.0248 H   0  0  0  0  0  0
  -26.2728  -29.6860   24.1058 H   0  0  0  0  0  0
  -27.3913  -29.7185   25.4504 H   0  0  0  0  0  0
  -27.8620  -30.4361   23.9241 H   0  0  0  0  0  0
  -27.2490  -33.3502   26.2251 H   0  0  0  0  0  0
  -28.3741  -32.7017   25.0400 H   0  0  0  0  0  0
  -28.0657  -31.8343   26.5372 H   0  0  0  0  0  0
  -28.2541  -38.0151   24.7520 H   0  0  0  0  0  0
  -28.1137  -36.2678   24.6209 H   0  0  0  0  0  0
  -27.2352  -37.1394   25.8858 H   0  0  0  0  0  0
  -20.9217  -29.8834   21.7099 H   0  0  0  0  0  0
  -26.0178  -38.2878   24.1430 H   0  0  0  0  0  0
  -27.9479  -18.6419   18.9083 H   0  0  0  0  0  0
  -31.6768  -20.5990   21.4967 H   0  0  0  0  0  0
  -33.5441  -21.7931   23.9386 H   0  0  0  0  0  0
  -33.9451  -23.5741   23.6460 H   0  0  0  0  0  0
  -32.0205  -25.1146   23.0821 H   0  0  0  0  0  0
  -31.3035  -22.1163   23.0963 H   0  0  0  0  0  0
  -30.5829  -26.3926   20.9205 H   0  0  0  0  0  0
  -29.8902  -26.4658   22.5394 H   0  0  0  0  0  0
  -28.7034  -24.3720   19.3975 H   0  0  0  0  0  0
  -27.5256  -23.8430   20.5829 H   0  0  0  0  0  0
  -27.7876  -25.8218   21.8374 H   0  0  0  0  0  0
  -27.1750  -20.7336   18.2387 H   0  0  0  0  0  0
  -27.1300  -21.7970   19.6275 H   0  0  0  0  0  0
  -28.2482  -22.1163   18.2889 H   0  0  0  0  0  0
  -32.4723  -18.5041   22.1174 H   0  0  0  0  0  0
  -32.4812  -17.5101   20.6540 H   0  0  0  0  0  0
  -31.4305  -17.0985   22.0227 H   0  0  0  0  0  0
  -30.4439  -16.5759   18.8573 H   0  0  0  0  0  0
  -28.7443  -16.5126   19.1339 H   0  0  0  0  0  0
  -30.1943  -22.8836   19.2063 H   0  0  0  0  0  0
  -31.3452  -22.6420   20.4253 H   0  0  0  0  0  0
  -28.9247  -15.3517   21.0850 H   0  0  0  0  0  0
  -29.1054  -22.9433   21.8662 H   0  0  0  0  0  0
  1 25  1  0  0  0
  1 30  2  0  0  0
  1 88  1  0  0  0
  2  3  1  0  0  0
  2 25  1  0  0  0
  2 90  1  0  0  0
  2 91  1  0  0  0
  3  4  1  0  0  0
  3 92  1  0  0  0
  3 93  1  0  0  0
  4  5  1  0  0  0
  4 94  1  0  0  0
  4 95  1  0  0  0
  5  6  1  0  0  0
  5 26  1  0  0  0
  5 96  1  0  0  0
  6 25  1  0  0  0
  6 97  1  0  0  0
  6 98  1  0  0  0
  7  8  2  0  0  0
  7 26  1  0  0  0
  7 29  1  0  0  0
  8  9  1  0  0  0
  8 22  1  0  0  0
  9 10  1  0  0  0
  9 27  2  0  0  0
 10 11  2  0  0  0
 10 15  1  0  0  0
 11 12  1  0  0  0
 11 99  1  0  0  0
 12 13  2  0  0  0
 12100  1  0  0  0
 13 14  1  0  0  0
 13 31  1  0  0  0
 14 15  2  0  0  0
 14101  1  0  0  0
 15102  1  0  0  0
 16 17  2  0  0  0
 16 21  1  0  0  0
 16 31  1  0  0  0
 17 18  1  0  0  0
 17103  1  0  0  0
 18 19  2  0  0  0
 18104  1  0  0  0
 19 20  1  0  0  0
 19 24  1  0  0  0
 20 21  2  0  0  0
 20105  1  0  0  0
 21 23  1  0  0  0
 22 28  1  0  0  0
 22 32  2  0  0  0
 26 27  1  0  0  0
 28106  1  0  0  0
 28107  1  0  0  0
 29108  1  0  0  0
 29109  1  0  0  0
 33 34  1  0  0  0
 33 66  1  0  0  0
 33 70  2  0  0  0
 34 36  1  0  0  0
 34 59  1  0  0  0
 34110  1  0  0  0
 35 44  2  0  0  0
 35 45  1  0  0  0
 35 68  1  0  0  0
 36 56  1  0  0  0
 36111  1  0  0  0
 37 39  1  0  0  0
 37 47  1  0  0  0
 37 66  1  0  0  0
 37112  1  0  0  0
 38 43  2  0  0  0
 38 46  1  0  0  0
 38 47  1  0  0  0
 39 64  1  0  0  0
 39 67  2  0  0  0
 40 52  1  0  0  0
 40 53  2  0  0  0
 40 58  1  0  0  0
 41113  1  0  0  0
 41114  1  0  0  0
 41115  1  0  0  0
 41 48  1  0  0  0
 42 43  1  0  0  0
 42 66  1  0  0  0
 42116  1  0  0  0
 42117  1  0  0  0
 43 44  1  0  0  0
 44118  1  0  0  0
 45 46  2  0  0  0
 45119  1  0  0  0
 46120  1  0  0  0
 47121  1  0  0  0
 47122  1  0  0  0
 48 56  1  0  0  0
 48 65  1  0  0  0
 48123  1  0  0  0
 49 50  1  0  0  0
 49 53  1  0  0  0
 49 64  1  0  0  0
 49124  1  0  0  0
 50 51  1  0  0  0
 50125  1  0  0  0
 50126  1  0  0  0
 51 52  1  0  0  0
 51127  1  0  0  0
 51128  1  0  0  0
 52129  1  0  0  0
 52130  1  0  0  0
 53 54  1  0  0  0
 54 55  2  0  0  0
 54131  1  0  0  0
 55 57  1  0  0  0
 55132  1  0  0  0
 56 69  2  0  0  0
 57 58  2  0  0  0
 57133  1  0  0  0
 58134  1  0  0  0
 59 60  1  0  0  0
 59 61  1  0  0  0
 59 62  1  0  0  0
 60135  1  0  0  0
 60136  1  0  0  0
 60137  1  0  0  0
 61138  1  0  0  0
 61139  1  0  0  0
 61140  1  0  0  0
 62141  1  0  0  0
 62142  1  0  0  0
 62143  1  0  0  0
 63 65  1  0  0  0
 63144  1  0  0  0
 63145  1  0  0  0
 63146  1  0  0  0
 64147  1  0  0  0
 65148  1  0  0  0
 68 83  1  0  0  0
 71 73  2  0  0  0
 71 75  1  0  0  0
 71149  1  0  0  0
 72 74  1  0  0  0
 72 76  2  0  0  0
 72150  1  0  0  0
 73 76  1  0  0  0
 73 84  1  0  0  0
 74 75  2  0  0  0
 74 85  1  0  0  0
 75 86  1  0  0  0
 76 87  1  0  0  0
 77 79  2  0  0  0
 77 81  1  0  0  0
 77 89  1  0  0  0
 78 80  2  0  0  0
 78151  1  0  0  0
 78152  1  0  0  0
 79 80  1  0  0  0
 79153  1  0  0  0
 80154  1  0  0  0
 81 83  1  0  0  0
 81155  1  0  0  0
 81156  1  0  0  0
 82 83  1  0  0  0
 82 89  1  0  0  0
 82157  1  0  0  0
 82158  1  0  0  0
 83159  1  0  0  0
 84160  1  0  0  0
 84161  1  0  0  0
 84162  1  0  0  0
 85163  1  0  0  0
 85164  1  0  0  0
 85165  1  0  0  0
 86 88  1  0  0  0
 86166  1  0  0  0
 86167  1  0  0  0
 87168  1  0  0  0
 87169  1  0  0  0
 87 89  1  0  0  0
 88170  1  0  0  0
 89171  1  0  0  0
M  CHG  1  89   1
M  ISO  4   1 100  68 101  83 101  88 100
M  END
> <chiral flag>
0

> <version>
0

> <s_m_source_file>
/data/baiqing/PycharmProjects/Reinvent-master-3.2/result/LINK_invent/BTK/process_docking_weight1_custom_product_contain_oxygen_bond_distance_aromatic_linkinvent_7_9_3/rearranged_h_0034.sdf

> <i_m_source_file_index>
56

> <r_mmod_Potential_Energy-OPLS-2005>
-92.471076965332

> <r_mmod_Stretch_Energy-OPLS-2005>
45.3929710388184

> <r_mmod_Bend_Energy-OPLS-2005>
137.060455322266

> <r_mmod_Torsional_Energy-OPLS-2005>
303.948760986328

> <r_mmod_Improper_Torsional_Energy-OPLS-2005>
13.7871961593628

> <r_mmod_Van_der_Waal_Energy-OPLS-2005>
140.826889038086

> <r_mmod_Electrostatic_Energy-OPLS-2005>
-340.652893066406

> <r_mmod_Solvation_Energy-OPLS-2005>
-411.488067626953

> <b_mmod_Minimization_Converged-OPLS-2005>
0

> <r_mmod_RMS_Derivative-OPLS-2005>
6.26917457580566

$$$$
56
                    3D
 Structure written by MMmdl.
170179  0  0  1  0            999 V2000
  -30.7786  -14.4763   20.5230 C   0  0  0  0  0  0
  -30.3927  -12.2953   19.4540 C   0  0  0  0  0  0
  -29.4886  -12.4779   18.2209 C   0  0  0  0  0  0
  -28.0140  -12.3478   18.6358 C   0  0  0  0  0  0
  -27.6536  -13.2231   19.8676 C   0  0  2  0  0  0
  -28.7002  -13.0894   21.0003 C   0  0  0  0  0  0
  -25.2524  -13.8188   20.5684 C   0  0  0  0  0  0
  -24.1806  -13.0442   20.9192 C   0  0  0  0  0  0
  -24.6381  -11.6911   20.8733 C   0  0  0  0  0  0
  -23.9059  -10.4283   21.0379 C   0  0  0  0  0  0
  -24.3620   -9.4213   21.9176 C   0  0  0  0  0  0
  -23.6277   -8.2262   22.0766 C   0  0  0  0  0  0
  -22.4271   -8.0269   21.3551 C   0  0  0  0  0  0
  -21.9888   -9.0234   20.4647 C   0  0  0  0  0  0
  -22.7199  -10.2127   20.3055 C   0  0  0  0  0  0
  -21.6865   -6.0695   22.5254 C   0  0  0  0  0  0
  -21.4007   -6.5615   23.8172 C   0  0  0  0  0  0
  -21.3667   -5.6791   24.9156 C   0  0  0  0  0  0
  -21.6057   -4.3054   24.7236 C   0  0  0  0  0  0
  -21.8800   -3.8115   23.4363 C   0  0  0  0  0  0
  -21.9187   -4.6918   22.3399 C   0  0  0  0  0  0
  -22.7823  -13.5207   21.1810 C   0  0  0  0  0  0
  -22.1668   -4.2080   21.0994 F   0  0  0  0  0  0
  -21.5657   -3.4565   25.7778 F   0  0  0  0  0  0
  -30.0292  -13.3415   20.4294 N   0  0  0  0  0  0
  -26.2979  -12.9396   20.3365 N   0  0  0  0  0  0
  -25.9319  -11.6532   20.5787 N   0  0  0  0  0  0
  -22.0460  -12.8182   22.0350 N   0  0  0  0  0  0
  -25.4206  -15.1903   20.4071 N   0  0  0  0  0  0
  -31.9261  -14.5183   20.0760 O   0  0  0  0  0  0
  -21.6654   -6.8849   21.4224 O   0  0  0  0  0  0
  -22.3495  -14.5504   20.6646 O   0  0  0  0  0  0
  -24.6193  -31.8683   23.2092 C   0  0  0  0  0  0
  -25.9083  -32.4810   23.8387 C   0  0  1  0  0  0
  -27.2092  -27.3978   20.1070 C   0  0  0  0  0  0
  -25.5934  -33.8597   24.2324 N   0  0  0  0  0  0
  -23.4077  -30.4946   21.5509 C   0  0  2  0  0  0
  -24.8541  -28.9726   20.1009 C   0  0  0  0  0  0
  -22.7430  -29.4648   22.4948 C   0  0  0  0  0  0
  -18.0268  -28.1382   22.8472 C   0  0  0  0  0  0
  -24.1500  -36.7291   23.2634 C   0  0  0  0  0  0
  -25.9430  -30.8253   21.3699 C   0  0  0  0  0  0
  -26.0171  -29.4588   20.7139 C   0  0  0  0  0  0
  -27.2013  -28.6768   20.7233 C   0  0  0  0  0  0
  -26.0486  -26.9739   19.4267 C   0  0  0  0  0  0
  -24.8676  -27.7321   19.4491 C   0  0  0  0  0  0
  -23.6169  -29.8403   20.1604 C   0  0  0  0  0  0
  -25.4105  -36.3075   24.0334 C   0  0  1  0  0  0
  -20.5857  -28.3682   23.1283 C   0  0  2  0  0  0
  -20.6761  -26.9398   22.5414 C   0  0  0  0  0  0
  -19.5756  -26.6386   21.5189 C   0  0  0  0  0  0
  -18.1931  -26.7926   22.1610 C   0  0  0  0  0  0
  -19.1515  -28.8840   23.2895 C   0  0  0  0  0  0
  -18.9451  -30.1429   23.8933 C   0  0  0  0  0  0
  -17.6458  -30.6596   24.0544 C   0  0  0  0  0  0
  -25.9041  -34.9454   23.5118 C   0  0  0  0  0  0
  -16.5345  -29.9090   23.6315 C   0  0  0  0  0  0
  -16.7254  -28.6499   23.0347 C   0  0  0  0  0  0
  -26.4494  -31.6570   25.0702 C   0  0  0  0  0  0
  -25.3750  -31.3719   26.1443 C   0  0  0  0  0  0
  -27.0292  -30.2988   24.6078 C   0  0  0  0  0  0
  -27.6071  -32.4273   25.7480 C   0  0  0  0  0  0
  -27.5575  -37.1801   24.8463 C   0  0  0  0  0  0
  -21.4152  -29.3041   22.3679 N   0  0  0  0  0  0
  -26.4294  -37.3756   23.9406 N   0  0  0  0  0  0
  -24.6750  -31.0755   22.1016 N   0  0  0  0  0  0
  -23.4200  -28.8149   23.2965 O   0  0  0  0  0  0
  -28.2842  -26.5304   20.2077 O   0  0  0  0  0  0
  -26.5611  -34.8914   22.4679 O   0  0  0  0  0  0
  -23.5382  -32.1441   23.7477 O   0  0  0  0  0  0
  -28.9645  -20.2532   21.1117 C   0  0  0  0  0  0
  -30.8765  -20.2536   22.5796 C   0  0  0  0  0  0
  -29.7508  -20.9381   22.0744 C   0  0  0  0  0  0
  -29.2685  -18.9241   20.7073 C   0  0  0  0  0  0
  -30.4143  -18.2553   21.2201 C   0  0  0  0  0  0
  -31.2146  -18.9486   22.1669 C   0  0  0  0  0  0
  -27.2672  -23.0559   21.4128 C   0  0  0  0  0  0
  -26.2983  -22.1509   21.7091 C   0  0  0  0  0  0
  -27.1621  -24.2100   20.4195 C   0  0  0  0  0  0
  -29.1552  -24.5551   21.6058 C   0  0  0  0  0  0
  -27.9821  -25.3623   21.0347 C   0  0  1  0  0  0
  -28.3357  -18.2311   19.7242 C   0  0  0  0  0  0
  -26.2947  -21.2475   22.9336 C   0  0  0  0  0  0
  -25.0415  -22.0083   20.8656 C   0  0  0  0  0  0
  -30.8967  -16.9127   20.6292 C   0  0  0  0  0  0
  -29.4287  -22.3010   22.7495 C   0  0  0  0  0  0
  -30.1977  -15.6329   20.9188 N   0  0  0  0  0  0
  -28.5037  -23.3527   22.2039 N   0  3  2  0  0  0
  -32.6410  -18.2527   22.8564 Cl  0  0  0  0  0  0
  -31.4427  -12.3203   19.1566 H   0  0  0  0  0  0
  -30.2402  -11.3083   19.8958 H   0  0  0  0  0  0
  -29.7300  -11.7298   17.4631 H   0  0  0  0  0  0
  -29.6644  -13.4511   17.7622 H   0  0  0  0  0  0
  -27.8352  -11.2970   18.8655 H   0  0  0  0  0  0
  -27.3626  -12.5887   17.7947 H   0  0  0  0  0  0
  -27.6733  -14.2589   19.5256 H   0  0  0  0  0  0
  -28.6716  -12.0891   21.4368 H   0  0  0  0  0  0
  -28.4795  -13.7823   21.8131 H   0  0  0  0  0  0
  -25.2767   -9.5713   22.4744 H   0  0  0  0  0  0
  -23.9990   -7.4695   22.7516 H   0  0  0  0  0  0
  -21.0786   -8.8771   19.9000 H   0  0  0  0  0  0
  -22.3626  -10.9657   19.6166 H   0  0  0  0  0  0
  -21.1979   -7.6125   23.9653 H   0  0  0  0  0  0
  -21.1527   -6.0547   25.9049 H   0  0  0  0  0  0
  -22.0574   -2.7567   23.2897 H   0  0  0  0  0  0
  -22.4156  -11.9937   22.4834 H   0  0  0  0  0  0
  -21.1003  -13.1091   22.2429 H   0  0  0  0  0  0
  -24.6508  -15.8425   20.5060 H   0  0  0  0  0  0
  -26.2689  -15.6246   20.0695 H   0  0  0  0  0  0
  -26.7143  -32.5523   23.1146 H   0  0  0  0  0  0
  -25.0048  -33.9763   25.0444 H   0  0  0  0  0  0
  -22.6976  -31.3143   21.4181 H   0  0  0  0  0  0
  -23.3744  -35.9645   23.3288 H   0  0  0  0  0  0
  -24.3603  -36.8908   22.2052 H   0  0  0  0  0  0
  -23.7284  -37.6505   23.6656 H   0  0  0  0  0  0
  -26.0609  -31.5935   20.6034 H   0  0  0  0  0  0
  -26.8290  -30.8748   21.9900 H   0  0  0  0  0  0
  -28.0882  -29.0303   21.2310 H   0  0  0  0  0  0
  -26.0397  -26.0438   18.8807 H   0  0  0  0  0  0
  -23.9809  -27.3655   18.9502 H   0  0  0  0  0  0
  -23.7272  -30.6238   19.4099 H   0  0  0  0  0  0
  -22.7403  -29.2639   19.8592 H   0  0  0  0  0  0
  -25.1276  -36.1928   25.0829 H   0  0  0  0  0  0
  -20.9950  -28.3278   24.1402 H   0  0  0  0  0  0
  -20.5608  -26.2288   23.3602 H   0  0  0  0  0  0
  -21.6655  -26.7428   22.1249 H   0  0  0  0  0  0
  -19.6929  -25.6295   21.1218 H   0  0  0  0  0  0
  -19.6700  -27.3216   20.6723 H   0  0  0  0  0  0
  -17.4193  -26.6642   21.4016 H   0  0  0  0  0  0
  -18.0348  -26.0076   22.9021 H   0  0  0  0  0  0
  -19.7932  -30.7207   24.2363 H   0  0  0  0  0  0
  -17.5018  -31.6280   24.5136 H   0  0  0  0  0  0
  -15.5348  -30.3014   23.7602 H   0  0  0  0  0  0
  -15.8651  -28.0810   22.7074 H   0  0  0  0  0  0
  -24.5942  -30.7036   25.7788 H   0  0  0  0  0  0
  -24.8925  -32.2902   26.4821 H   0  0  0  0  0  0
  -25.8099  -30.8952   27.0241 H   0  0  0  0  0  0
  -26.2857  -29.6789   24.1055 H   0  0  0  0  0  0
  -27.3963  -29.7159   25.4531 H   0  0  0  0  0  0
  -27.8731  -30.4241   23.9282 H   0  0  0  0  0  0
  -27.2696  -33.3565   26.2086 H   0  0  0  0  0  0
  -28.3893  -32.6857   25.0325 H   0  0  0  0  0  0
  -28.0715  -31.8369   26.5390 H   0  0  0  0  0  0
  -28.2585  -38.0099   24.7469 H   0  0  0  0  0  0
  -28.1089  -36.2631   24.6329 H   0  0  0  0  0  0
  -27.2302  -37.1477   25.8871 H   0  0  0  0  0  0
  -20.9320  -29.8807   21.6925 H   0  0  0  0  0  0
  -26.0161  -38.2832   24.1397 H   0  0  0  0  0  0
  -28.0951  -20.7124   20.6776 H   0  0  0  0  0  0
  -31.5010  -20.7252   23.3267 H   0  0  0  0  0  0
  -26.1165  -24.4834   20.3086 H   0  0  0  0  0  0
  -27.5585  -23.9088   19.4483 H   0  0  0  0  0  0
  -29.7186  -25.1226   22.3479 H   0  0  0  0  0  0
  -29.8363  -24.2541   20.8079 H   0  0  0  0  0  0
  -27.4217  -25.7336   21.8974 H   0  0  0  0  0  0
  -28.8756  -17.6854   18.9504 H   0  0  0  0  0  0
  -27.6872  -18.9435   19.2150 H   0  0  0  0  0  0
  -27.6971  -17.5272   20.2602 H   0  0  0  0  0  0
  -27.2512  -20.7786   23.1403 H   0  0  0  0  0  0
  -25.5776  -20.4350   22.8167 H   0  0  0  0  0  0
  -25.9971  -21.8114   23.8176 H   0  0  0  0  0  0
  -25.0988  -22.5609   19.9285 H   0  0  0  0  0  0
  -24.1664  -22.3492   21.4189 H   0  0  0  0  0  0
  -24.8879  -20.9616   20.5946 H   0  0  0  0  0  0
  -31.9510  -16.8024   20.8742 H   0  0  0  0  0  0
  -30.9168  -17.0342   19.5450 H   0  0  0  0  0  0
  -30.3770  -22.7936   22.9746 H   0  0  0  0  0  0
  -29.0312  -22.0528   23.7344 H   0  0  0  0  0  0
  -29.2385  -15.6395   21.2296 H   0  0  0  0  0  0
  -28.1537  -23.7236   23.0760 H   0  0  0  0  0  0
  1 25  1  0  0  0
  1 30  2  0  0  0
  1 87  1  0  0  0
  2  3  1  0  0  0
  2 25  1  0  0  0
  2 90  1  0  0  0
  2 91  1  0  0  0
  3  4  1  0  0  0
  3 92  1  0  0  0
  3 93  1  0  0  0
  4  5  1  0  0  0
  4 94  1  0  0  0
  4 95  1  0  0  0
  5  6  1  0  0  0
  5 26  1  0  0  0
  5 96  1  0  0  0
  6 25  1  0  0  0
  6 97  1  0  0  0
  6 98  1  0  0  0
  7  8  2  0  0  0
  7 26  1  0  0  0
  7 29  1  0  0  0
  8  9  1  0  0  0
  8 22  1  0  0  0
  9 10  1  0  0  0
  9 27  2  0  0  0
 10 11  2  0  0  0
 10 15  1  0  0  0
 11 12  1  0  0  0
 11 99  1  0  0  0
 12 13  2  0  0  0
 12100  1  0  0  0
 13 14  1  0  0  0
 13 31  1  0  0  0
 14 15  2  0  0  0
 14101  1  0  0  0
 15102  1  0  0  0
 16 17  2  0  0  0
 16 21  1  0  0  0
 16 31  1  0  0  0
 17 18  1  0  0  0
 17103  1  0  0  0
 18 19  2  0  0  0
 18104  1  0  0  0
 19 20  1  0  0  0
 19 24  1  0  0  0
 20 21  2  0  0  0
 20105  1  0  0  0
 21 23  1  0  0  0
 22 28  1  0  0  0
 22 32  2  0  0  0
 26 27  1  0  0  0
 28106  1  0  0  0
 28107  1  0  0  0
 29108  1  0  0  0
 29109  1  0  0  0
 33 34  1  0  0  0
 33 66  1  0  0  0
 33 70  2  0  0  0
 34 36  1  0  0  0
 34 59  1  0  0  0
 34110  1  0  0  0
 35 44  2  0  0  0
 35 45  1  0  0  0
 35 68  1  0  0  0
 36 56  1  0  0  0
 36111  1  0  0  0
 37 39  1  0  0  0
 37 47  1  0  0  0
 37 66  1  0  0  0
 37112  1  0  0  0
 38 43  2  0  0  0
 38 46  1  0  0  0
 38 47  1  0  0  0
 39 64  1  0  0  0
 39 67  2  0  0  0
 40 52  1  0  0  0
 40 53  2  0  0  0
 40 58  1  0  0  0
 41113  1  0  0  0
 41114  1  0  0  0
 41115  1  0  0  0
 41 48  1  0  0  0
 42 43  1  0  0  0
 42 66  1  0  0  0
 42116  1  0  0  0
 42117  1  0  0  0
 43 44  1  0  0  0
 44118  1  0  0  0
 45 46  2  0  0  0
 45119  1  0  0  0
 46120  1  0  0  0
 47121  1  0  0  0
 47122  1  0  0  0
 48 56  1  0  0  0
 48 65  1  0  0  0
 48123  1  0  0  0
 49 50  1  0  0  0
 49 53  1  0  0  0
 49 64  1  0  0  0
 49124  1  0  0  0
 50 51  1  0  0  0
 50125  1  0  0  0
 50126  1  0  0  0
 51 52  1  0  0  0
 51127  1  0  0  0
 51128  1  0  0  0
 52129  1  0  0  0
 52130  1  0  0  0
 53 54  1  0  0  0
 54 55  2  0  0  0
 54131  1  0  0  0
 55 57  1  0  0  0
 55132  1  0  0  0
 56 69  2  0  0  0
 57 58  2  0  0  0
 57133  1  0  0  0
 58134  1  0  0  0
 59 60  1  0  0  0
 59 61  1  0  0  0
 59 62  1  0  0  0
 60135  1  0  0  0
 60136  1  0  0  0
 60137  1  0  0  0
 61138  1  0  0  0
 61139  1  0  0  0
 61140  1  0  0  0
 62141  1  0  0  0
 62142  1  0  0  0
 62143  1  0  0  0
 63 65  1  0  0  0
 63144  1  0  0  0
 63145  1  0  0  0
 63146  1  0  0  0
 64147  1  0  0  0
 65148  1  0  0  0
 68 81  1  0  0  0
 71 73  2  0  0  0
 71 74  1  0  0  0
 71149  1  0  0  0
 72 73  1  0  0  0
 72 76  2  0  0  0
 72150  1  0  0  0
 73 86  1  0  0  0
 74 75  2  0  0  0
 74 82  1  0  0  0
 75 76  1  0  0  0
 75 85  1  0  0  0
 76 89  1  0  0  0
 77 78  2  0  0  0
 77 79  1  0  0  0
 77 88  1  0  0  0
 78 83  1  0  0  0
 78 84  1  0  0  0
 79 81  1  0  0  0
 79151  1  0  0  0
 79152  1  0  0  0
 80 81  1  0  0  0
 80 88  1  0  0  0
 80153  1  0  0  0
 80154  1  0  0  0
 81155  1  0  0  0
 82156  1  0  0  0
 82157  1  0  0  0
 82158  1  0  0  0
 83159  1  0  0  0
 83160  1  0  0  0
 83161  1  0  0  0
 84162  1  0  0  0
 84163  1  0  0  0
 84164  1  0  0  0
 85 87  1  0  0  0
 85165  1  0  0  0
 85166  1  0  0  0
 86167  1  0  0  0
 86168  1  0  0  0
 86 88  1  0  0  0
 87169  1  0  0  0
 88170  1  0  0  0
M  CHG  1  88   1
M  ISO  4   1 100  68 101  81 101  87 100
M  END
> <chiral flag>
0

> <version>
0

> <s_m_source_file>
/data/baiqing/PycharmProjects/Reinvent-master-3.2/result/LINK_invent/BTK/process_docking_weight1_custom_product_contain_oxygen_bond_distance_aromatic_linkinvent_7_9_3/rearranged_h_0034.sdf

> <i_m_source_file_index>
57

> <r_mmod_Potential_Energy-OPLS-2005>
-34.2503700256348

> <r_mmod_Stretch_Energy-OPLS-2005>
50.6003646850586

> <r_mmod_Bend_Energy-OPLS-2005>
204.514770507812

> <r_mmod_Torsional_Energy-OPLS-2005>
267.146087646484

> <r_mmod_Improper_Torsional_Energy-OPLS-2005>
6.87331390380859

> <r_mmod_Van_der_Waal_Energy-OPLS-2005>
163.285659790039

> <r_mmod_Electrostatic_Energy-OPLS-2005>
-324.938232421875

> <r_mmod_Solvation_Energy-OPLS-2005>
-434.224853515625

> <b_mmod_Minimization_Converged-OPLS-2005>
0

> <r_mmod_RMS_Derivative-OPLS-2005>
3.14167022705078

$$$$
57
                    3D
 Structure written by MMmdl.
170179  0  0  1  0            999 V2000
  -30.4880  -14.6980   20.5161 C   0  0  0  0  0  0
  -30.4446  -12.4559   19.4758 C   0  0  0  0  0  0
  -29.5170  -12.5243   18.2391 C   0  0  0  0  0  0
  -28.0325  -12.3580   18.6323 C   0  0  0  0  0  0
  -27.6327  -13.2031   19.8705 C   0  0  2  0  0  0
  -28.6627  -13.0336   21.0071 C   0  0  0  0  0  0
  -25.2415  -13.8098   20.5613 C   0  0  0  0  0  0
  -24.1708  -13.0369   20.9120 C   0  0  0  0  0  0
  -24.6249  -11.6824   20.8669 C   0  0  0  0  0  0
  -23.8887  -10.4255   21.0340 C   0  0  0  0  0  0
  -24.3471   -9.4201   21.9123 C   0  0  0  0  0  0
  -23.6225   -8.2207   22.0745 C   0  0  0  0  0  0
  -22.4233   -8.0171   21.3502 C   0  0  0  0  0  0
  -21.9767   -9.0110   20.4624 C   0  0  0  0  0  0
  -22.7021  -10.2025   20.3049 C   0  0  0  0  0  0
  -21.6880   -6.0605   22.5227 C   0  0  0  0  0  0
  -21.4038   -6.5543   23.8124 C   0  0  0  0  0  0
  -21.3692   -5.6722   24.9107 C   0  0  0  0  0  0
  -21.6104   -4.2988   24.7224 C   0  0  0  0  0  0
  -21.8837   -3.8050   23.4355 C   0  0  0  0  0  0
  -21.9217   -4.6842   22.3383 C   0  0  0  0  0  0
  -22.7740  -13.5137   21.1866 C   0  0  0  0  0  0
  -22.1685   -4.2014   21.0964 F   0  0  0  0  0  0
  -21.5650   -3.4504   25.7745 F   0  0  0  0  0  0
  -29.9626  -13.4456   20.4492 N   0  0  0  0  0  0
  -26.2778  -12.9217   20.3219 N   0  0  0  0  0  0
  -25.9159  -11.6394   20.5676 N   0  0  0  0  0  0
  -22.0440  -12.8152   22.0463 N   0  0  0  0  0  0
  -25.4129  -15.1839   20.3986 N   0  0  0  0  0  0
  -31.6647  -14.9261   20.1860 O   0  0  0  0  0  0
  -21.6656   -6.8721   21.4188 O   0  0  0  0  0  0
  -22.3418  -14.5450   20.6710 O   0  0  0  0  0  0
  -24.6366  -31.8575   23.2011 C   0  0  0  0  0  0
  -25.9214  -32.4767   23.8350 C   0  0  1  0  0  0
  -27.2132  -27.2779   20.1359 C   0  0  0  0  0  0
  -25.5979  -33.8574   24.2258 N   0  0  0  0  0  0
  -23.4278  -30.4864   21.5416 C   0  0  2  0  0  0
  -24.8730  -28.9148   20.1369 C   0  0  0  0  0  0
  -22.7497  -29.4688   22.4907 C   0  0  0  0  0  0
  -18.0302  -28.1386   22.8470 C   0  0  0  0  0  0
  -24.1497  -36.7317   23.2643 C   0  0  0  0  0  0
  -25.9741  -30.7660   21.3833 C   0  0  0  0  0  0
  -26.0438  -29.3818   20.7500 C   0  0  0  0  0  0
  -27.2253  -28.5721   20.7478 C   0  0  0  0  0  0
  -26.0211  -26.8620   19.5078 C   0  0  0  0  0  0
  -24.8618  -27.6551   19.5194 C   0  0  0  0  0  0
  -23.6482  -29.8118   20.1624 C   0  0  0  0  0  0
  -25.4137  -36.3091   24.0319 C   0  0  1  0  0  0
  -20.5902  -28.3726   23.1219 C   0  0  2  0  0  0
  -20.6766  -26.9427   22.5398 C   0  0  0  0  0  0
  -19.5782  -26.6371   21.5175 C   0  0  0  0  0  0
  -18.1942  -26.7955   22.1546 C   0  0  0  0  0  0
  -19.1554  -28.8855   23.2851 C   0  0  0  0  0  0
  -18.9484  -30.1444   23.8906 C   0  0  0  0  0  0
  -17.6476  -30.6565   24.0583 C   0  0  0  0  0  0
  -25.9085  -34.9463   23.5098 C   0  0  0  0  0  0
  -16.5369  -29.9093   23.6303 C   0  0  0  0  0  0
  -16.7299  -28.6498   23.0364 C   0  0  0  0  0  0
  -26.4523  -31.6615   25.0766 C   0  0  0  0  0  0
  -25.3711  -31.3764   26.1450 C   0  0  0  0  0  0
  -27.0426  -30.3050   24.6305 C   0  0  0  0  0  0
  -27.6063  -32.4350   25.7558 C   0  0  0  0  0  0
  -27.5604  -37.1817   24.8440 C   0  0  0  0  0  0
  -21.4194  -29.3099   22.3624 N   0  0  0  0  0  0
  -26.4296  -37.3788   23.9414 N   0  0  0  0  0  0
  -24.6979  -31.0589   22.0944 N   0  0  0  0  0  0
  -23.4243  -28.8250   23.3010 O   0  0  0  0  0  0
  -28.3196  -26.4522   19.9102 O   0  0  0  0  0  0
  -26.5630  -34.8915   22.4663 O   0  0  0  0  0  0
  -23.5512  -32.1396   23.7298 O   0  0  0  0  0  0
  -29.9265  -19.2658   22.0062 C   0  0  0  0  0  0
  -29.0756  -19.3979   19.7797 C   0  0  0  0  0  0
  -29.3764  -20.0881   20.9877 C   0  0  0  0  0  0
  -30.0864  -17.8591   21.8973 C   0  0  0  0  0  0
  -29.2674  -17.9792   19.6555 C   0  0  0  0  0  0
  -29.6887  -17.1557   20.7421 C   0  0  0  0  0  0
  -30.7631  -23.2294   20.1033 C   0  0  0  0  0  0
  -31.9829  -22.6493   20.2852 C   0  0  0  0  0  0
  -30.6805  -24.5687   19.3925 C   0  0  0  0  0  0
  -30.4505  -25.6824   20.4131 C   0  0  0  0  0  0
  -28.5912  -24.0572   21.1768 C   0  0  0  0  0  0
  -28.9985  -25.6035   20.8996 C   0  0  2  0  0  0
  -30.7582  -17.1227   23.0298 C   0  0  0  0  0  0
  -29.1098  -17.3200   18.3090 C   0  0  0  0  0  0
  -32.4107  -21.3651   20.9603 C   0  0  0  0  0  0
  -29.0267  -21.5918   21.3612 C   0  0  0  0  0  0
  -29.5754  -15.6933   20.7383 N   0  0  0  0  0  0
  -29.3360  -22.8523   20.5412 N   0  3  2  0  0  0
  -31.4766  -12.6624   19.1867 H   0  0  0  0  0  0
  -30.4378  -11.4700   19.9408 H   0  0  0  0  0  0
  -29.7875  -11.7468   17.5285 H   0  0  0  0  0  0
  -29.6619  -13.4701   17.7115 H   0  0  0  0  0  0
  -27.8575  -11.3016   18.8456 H   0  0  0  0  0  0
  -27.3947  -12.5916   17.7821 H   0  0  0  0  0  0
  -27.6412  -14.2453   19.5521 H   0  0  0  0  0  0
  -28.7116  -11.9880   21.3230 H   0  0  0  0  0  0
  -28.3800  -13.6020   21.8973 H   0  0  0  0  0  0
  -25.2571   -9.5723   22.4685 H   0  0  0  0  0  0
  -23.9927   -7.4649   22.7501 H   0  0  0  0  0  0
  -21.0675   -8.8506   19.9002 H   0  0  0  0  0  0
  -22.3309  -10.9505   19.6208 H   0  0  0  0  0  0
  -21.2001   -7.6049   23.9554 H   0  0  0  0  0  0
  -21.1548   -6.0494   25.8998 H   0  0  0  0  0  0
  -22.0628   -2.7504   23.2885 H   0  0  0  0  0  0
  -22.4075  -11.9784   22.4779 H   0  0  0  0  0  0
  -21.1135  -13.1243   22.2855 H   0  0  0  0  0  0
  -24.6337  -15.8298   20.4790 H   0  0  0  0  0  0
  -26.2293  -15.6038   19.9780 H   0  0  0  0  0  0
  -26.7301  -32.5409   23.1096 H   0  0  0  0  0  0
  -25.0147  -33.9691   25.0416 H   0  0  0  0  0  0
  -22.7262  -31.3107   21.3874 H   0  0  0  0  0  0
  -23.3743  -35.9652   23.3280 H   0  0  0  0  0  0
  -24.3555  -36.8992   22.2054 H   0  0  0  0  0  0
  -23.7238  -37.6513   23.6691 H   0  0  0  0  0  0
  -26.1114  -31.5033   20.5930 H   0  0  0  0  0  0
  -26.8534  -30.8208   22.0114 H   0  0  0  0  0  0
  -28.1361  -28.9438   21.1920 H   0  0  0  0  0  0
  -25.9827  -25.9064   18.9958 H   0  0  0  0  0  0
  -23.9609  -27.2950   19.0402 H   0  0  0  0  0  0
  -23.7833  -30.5787   19.3955 H   0  0  0  0  0  0
  -22.7577  -29.2565   19.8571 H   0  0  0  0  0  0
  -25.1308  -36.1944   25.0799 H   0  0  0  0  0  0
  -20.9987  -28.3329   24.1353 H   0  0  0  0  0  0
  -20.5530  -26.2418   23.3667 H   0  0  0  0  0  0
  -21.6677  -26.7355   22.1343 H   0  0  0  0  0  0
  -19.6963  -25.6266   21.1293 H   0  0  0  0  0  0
  -19.6761  -27.3118   20.6669 H   0  0  0  0  0  0
  -17.4267  -26.6762   21.3889 H   0  0  0  0  0  0
  -18.0278  -26.0021   22.8844 H   0  0  0  0  0  0
  -19.7961  -30.7231   24.2341 H   0  0  0  0  0  0
  -17.5043  -31.6242   24.5219 H   0  0  0  0  0  0
  -15.5394  -30.3032   23.7552 H   0  0  0  0  0  0
  -15.8700  -28.0795   22.7116 H   0  0  0  0  0  0
  -24.5989  -30.6987   25.7776 H   0  0  0  0  0  0
  -24.8779  -32.2930   26.4714 H   0  0  0  0  0  0
  -25.8016  -30.9100   27.0331 H   0  0  0  0  0  0
  -26.3086  -29.6737   24.1288 H   0  0  0  0  0  0
  -27.4060  -29.7352   25.4873 H   0  0  0  0  0  0
  -27.8950  -30.4324   23.9621 H   0  0  0  0  0  0
  -27.2654  -33.3543   26.2320 H   0  0  0  0  0  0
  -28.3805  -32.7112   25.0389 H   0  0  0  0  0  0
  -28.0863  -31.8418   26.5343 H   0  0  0  0  0  0
  -28.2619  -38.0109   24.7500 H   0  0  0  0  0  0
  -28.1093  -36.2662   24.6228 H   0  0  0  0  0  0
  -27.2348  -37.1463   25.8839 H   0  0  0  0  0  0
  -20.9429  -29.8884   21.6825 H   0  0  0  0  0  0
  -26.0184  -38.2865   24.1401 H   0  0  0  0  0  0
  -30.2024  -19.7381   22.9304 H   0  0  0  0  0  0
  -28.6738  -19.9485   18.9381 H   0  0  0  0  0  0
  -32.8434  -23.2056   19.9268 H   0  0  0  0  0  0
  -29.8523  -24.5693   18.6858 H   0  0  0  0  0  0
  -31.5675  -24.7642   18.7917 H   0  0  0  0  0  0
  -30.6459  -26.6402   19.9317 H   0  0  0  0  0  0
  -31.1564  -25.6392   21.2449 H   0  0  0  0  0  0
  -27.5105  -23.9121   21.0949 H   0  0  0  0  0  0
  -28.7897  -23.9415   22.2436 H   0  0  0  0  0  0
  -28.9328  -26.1509   21.8427 H   0  0  0  0  0  0
  -30.9852  -17.7962   23.8544 H   0  0  0  0  0  0
  -31.6932  -16.7319   22.6345 H   0  0  0  0  0  0
  -30.1539  -16.2938   23.4029 H   0  0  0  0  0  0
  -29.3221  -18.0275   17.5117 H   0  0  0  0  0  0
  -28.1188  -16.8893   18.1783 H   0  0  0  0  0  0
  -29.8590  -16.5319   18.2334 H   0  0  0  0  0  0
  -32.4131  -21.4511   22.0488 H   0  0  0  0  0  0
  -33.4267  -21.1219   20.6357 H   0  0  0  0  0  0
  -31.8141  -20.5233   20.6406 H   0  0  0  0  0  0
  -29.4133  -21.7904   22.3671 H   0  0  0  0  0  0
  -27.9394  -21.5786   21.5122 H   0  0  0  0  0  0
  -28.6392  -15.3320   20.9052 H   0  0  0  0  0  0
  -28.8324  -22.6670   19.6842 H   0  0  0  0  0  0
  1 25  1  0  0  0
  1 30  2  0  0  0
  1 87  1  0  0  0
  2  3  1  0  0  0
  2 25  1  0  0  0
  2 89  1  0  0  0
  2 90  1  0  0  0
  3  4  1  0  0  0
  3 91  1  0  0  0
  3 92  1  0  0  0
  4  5  1  0  0  0
  4 93  1  0  0  0
  4 94  1  0  0  0
  5  6  1  0  0  0
  5 26  1  0  0  0
  5 95  1  0  0  0
  6 25  1  0  0  0
  6 96  1  0  0  0
  6 97  1  0  0  0
  7  8  2  0  0  0
  7 26  1  0  0  0
  7 29  1  0  0  0
  8  9  1  0  0  0
  8 22  1  0  0  0
  9 10  1  0  0  0
  9 27  2  0  0  0
 10 11  2  0  0  0
 10 15  1  0  0  0
 11 12  1  0  0  0
 11 98  1  0  0  0
 12 13  2  0  0  0
 12 99  1  0  0  0
 13 14  1  0  0  0
 13 31  1  0  0  0
 14 15  2  0  0  0
 14100  1  0  0  0
 15101  1  0  0  0
 16 17  2  0  0  0
 16 21  1  0  0  0
 16 31  1  0  0  0
 17 18  1  0  0  0
 17102  1  0  0  0
 18 19  2  0  0  0
 18103  1  0  0  0
 19 20  1  0  0  0
 19 24  1  0  0  0
 20 21  2  0  0  0
 20104  1  0  0  0
 21 23  1  0  0  0
 22 28  1  0  0  0
 22 32  2  0  0  0
 26 27  1  0  0  0
 28105  1  0  0  0
 28106  1  0  0  0
 29107  1  0  0  0
 29108  1  0  0  0
 33 34  1  0  0  0
 33 66  1  0  0  0
 33 70  2  0  0  0
 34 36  1  0  0  0
 34 59  1  0  0  0
 34109  1  0  0  0
 35 44  2  0  0  0
 35 45  1  0  0  0
 35 68  1  0  0  0
 36 56  1  0  0  0
 36110  1  0  0  0
 37 39  1  0  0  0
 37 47  1  0  0  0
 37 66  1  0  0  0
 37111  1  0  0  0
 38 43  2  0  0  0
 38 46  1  0  0  0
 38 47  1  0  0  0
 39 64  1  0  0  0
 39 67  2  0  0  0
 40 52  1  0  0  0
 40 53  2  0  0  0
 40 58  1  0  0  0
 41112  1  0  0  0
 41113  1  0  0  0
 41114  1  0  0  0
 41 48  1  0  0  0
 42 43  1  0  0  0
 42 66  1  0  0  0
 42115  1  0  0  0
 42116  1  0  0  0
 43 44  1  0  0  0
 44117  1  0  0  0
 45 46  2  0  0  0
 45118  1  0  0  0
 46119  1  0  0  0
 47120  1  0  0  0
 47121  1  0  0  0
 48 56  1  0  0  0
 48 65  1  0  0  0
 48122  1  0  0  0
 49 50  1  0  0  0
 49 53  1  0  0  0
 49 64  1  0  0  0
 49123  1  0  0  0
 50 51  1  0  0  0
 50124  1  0  0  0
 50125  1  0  0  0
 51 52  1  0  0  0
 51126  1  0  0  0
 51127  1  0  0  0
 52128  1  0  0  0
 52129  1  0  0  0
 53 54  1  0  0  0
 54 55  2  0  0  0
 54130  1  0  0  0
 55 57  1  0  0  0
 55131  1  0  0  0
 56 69  2  0  0  0
 57 58  2  0  0  0
 57132  1  0  0  0
 58133  1  0  0  0
 59 60  1  0  0  0
 59 61  1  0  0  0
 59 62  1  0  0  0
 60134  1  0  0  0
 60135  1  0  0  0
 60136  1  0  0  0
 61137  1  0  0  0
 61138  1  0  0  0
 61139  1  0  0  0
 62140  1  0  0  0
 62141  1  0  0  0
 62142  1  0  0  0
 63 65  1  0  0  0
 63143  1  0  0  0
 63144  1  0  0  0
 63145  1  0  0  0
 64146  1  0  0  0
 65147  1  0  0  0
 68 82  1  0  0  0
 71 73  2  0  0  0
 71 74  1  0  0  0
 71148  1  0  0  0
 72 73  1  0  0  0
 72 75  2  0  0  0
 72149  1  0  0  0
 73 86  1  0  0  0
 74 76  2  0  0  0
 74 83  1  0  0  0
 75 76  1  0  0  0
 75 84  1  0  0  0
 76 87  1  0  0  0
 77 78  2  0  0  0
 77 79  1  0  0  0
 77 88  1  0  0  0
 78 85  1  0  0  0
 78150  1  0  0  0
 79 80  1  0  0  0
 79151  1  0  0  0
 79152  1  0  0  0
 80 82  1  0  0  0
 80153  1  0  0  0
 80154  1  0  0  0
 81 82  1  0  0  0
 81 88  1  0  0  0
 81155  1  0  0  0
 81156  1  0  0  0
 82157  1  0  0  0
 83158  1  0  0  0
 83159  1  0  0  0
 83160  1  0  0  0
 84161  1  0  0  0
 84162  1  0  0  0
 84163  1  0  0  0
 85164  1  0  0  0
 85165  1  0  0  0
 85166  1  0  0  0
 86167  1  0  0  0
 86168  1  0  0  0
 86 88  1  0  0  0
 87169  1  0  0  0
 88170  1  0  0  0
M  CHG  1  88   1
M  ISO  4   1 100  68 101  82 101  87 100
M  END
> <chiral flag>
0

> <version>
0

> <s_m_source_file>
/data/baiqing/PycharmProjects/Reinvent-master-3.2/result/LINK_invent/BTK/process_docking_weight1_custom_product_contain_oxygen_bond_distance_aromatic_linkinvent_7_9_3/rearranged_h_0034.sdf

> <i_m_source_file_index>
58

> <r_mmod_Potential_Energy-OPLS-2005>
167.277679443359

> <r_mmod_Stretch_Energy-OPLS-2005>
97.7648239135742

> <r_mmod_Bend_Energy-OPLS-2005>
255.234939575195

> <r_mmod_Torsional_Energy-OPLS-2005>
323.417053222656

> <r_mmod_Improper_Torsional_Energy-OPLS-2005>
8.29518604278564

> <r_mmod_Van_der_Waal_Energy-OPLS-2005>
145.457000732422

> <r_mmod_Electrostatic_Energy-OPLS-2005>
-327.538055419922

> <r_mmod_Solvation_Energy-OPLS-2005>
-411.439880371094

> <b_mmod_Minimization_Converged-OPLS-2005>
0

> <r_mmod_RMS_Derivative-OPLS-2005>
12.7183904647827

$$$$
58
                    3D
 Structure written by MMmdl.
164173  0  0  1  0            999 V2000
  -30.5509  -14.6860   20.5566 C   0  0  0  0  0  0
  -30.4467  -12.4418   19.4644 C   0  0  0  0  0  0
  -29.5144  -12.5526   18.2345 C   0  0  0  0  0  0
  -28.0374  -12.3611   18.6365 C   0  0  0  0  0  0
  -27.6523  -13.2156   19.8758 C   0  0  2  0  0  0
  -28.6872  -13.0442   21.0094 C   0  0  0  0  0  0
  -25.2537  -13.8155   20.5638 C   0  0  0  0  0  0
  -24.1822  -13.0418   20.9132 C   0  0  0  0  0  0
  -24.6395  -11.6883   20.8701 C   0  0  0  0  0  0
  -23.9059  -10.4285   21.0395 C   0  0  0  0  0  0
  -24.3614   -9.4204   21.9176 C   0  0  0  0  0  0
  -23.6293   -8.2230   22.0760 C   0  0  0  0  0  0
  -22.4261   -8.0290   21.3548 C   0  0  0  0  0  0
  -21.9896   -9.0246   20.4643 C   0  0  0  0  0  0
  -22.7216  -10.2132   20.3044 C   0  0  0  0  0  0
  -21.6845   -6.0739   22.5271 C   0  0  0  0  0  0
  -21.3999   -6.5635   23.8207 C   0  0  0  0  0  0
  -21.3649   -5.6792   24.9166 C   0  0  0  0  0  0
  -21.6031   -4.3055   24.7207 C   0  0  0  0  0  0
  -21.8841   -3.8156   23.4327 C   0  0  0  0  0  0
  -21.9201   -4.6976   22.3387 C   0  0  0  0  0  0
  -22.7841  -13.5224   21.1825 C   0  0  0  0  0  0
  -22.1665   -4.2172   21.0962 F   0  0  0  0  0  0
  -21.5630   -3.4540   25.7723 F   0  0  0  0  0  0
  -29.9983  -13.4323   20.4705 N   0  0  0  0  0  0
  -26.2973  -12.9327   20.3341 N   0  0  0  0  0  0
  -25.9323  -11.6486   20.5740 N   0  0  0  0  0  0
  -22.0500  -12.8216   22.0380 N   0  0  0  0  0  0
  -25.4281  -15.1881   20.4032 N   0  0  0  0  0  0
  -31.6802  -14.9063   20.0977 O   0  0  0  0  0  0
  -21.6618   -6.8884   21.4226 O   0  0  0  0  0  0
  -22.3529  -14.5536   20.6685 O   0  0  0  0  0  0
  -24.6227  -31.8611   23.2046 C   0  0  0  0  0  0
  -25.9086  -32.4778   23.8357 C   0  0  1  0  0  0
  -27.2059  -27.3089   20.1263 C   0  0  0  0  0  0
  -25.5951  -33.8592   24.2298 N   0  0  0  0  0  0
  -23.4149  -30.4847   21.5490 C   0  0  2  0  0  0
  -24.8568  -28.9376   20.1097 C   0  0  0  0  0  0
  -22.7458  -29.4610   22.4948 C   0  0  0  0  0  0
  -18.0302  -28.1385   22.8472 C   0  0  0  0  0  0
  -24.1486  -36.7241   23.2633 C   0  0  0  0  0  0
  -25.9539  -30.7862   21.3776 C   0  0  0  0  0  0
  -26.0234  -29.4130   20.7198 C   0  0  0  0  0  0
  -27.1974  -28.6094   20.7179 C   0  0  0  0  0  0
  -26.0195  -26.8794   19.4912 C   0  0  0  0  0  0
  -24.8590  -27.6779   19.4877 C   0  0  0  0  0  0
  -23.6283  -29.8253   20.1610 C   0  0  0  0  0  0
  -25.4116  -36.3081   24.0340 C   0  0  1  0  0  0
  -20.5880  -28.3663   23.1301 C   0  0  2  0  0  0
  -20.6806  -26.9394   22.5421 C   0  0  0  0  0  0
  -19.5779  -26.6374   21.5217 C   0  0  0  0  0  0
  -18.1938  -26.7927   22.1595 C   0  0  0  0  0  0
  -19.1543  -28.8850   23.2874 C   0  0  0  0  0  0
  -18.9483  -30.1454   23.8876 C   0  0  0  0  0  0
  -17.6479  -30.6579   24.0573 C   0  0  0  0  0  0
  -25.9062  -34.9458   23.5108 C   0  0  0  0  0  0
  -16.5371  -29.9078   23.6349 C   0  0  0  0  0  0
  -16.7287  -28.6517   23.0340 C   0  0  0  0  0  0
  -26.4514  -31.6578   25.0704 C   0  0  0  0  0  0
  -25.3751  -31.3664   26.1431 C   0  0  0  0  0  0
  -27.0354  -30.3021   24.6062 C   0  0  0  0  0  0
  -27.6086  -32.4322   25.7444 C   0  0  0  0  0  0
  -27.5596  -37.1765   24.8468 C   0  0  0  0  0  0
  -21.4173  -29.3013   22.3679 N   0  0  0  0  0  0
  -26.4282  -37.3784   23.9453 N   0  0  0  0  0  0
  -24.6821  -31.0621   22.1003 N   0  0  0  0  0  0
  -23.4185  -28.8156   23.3026 O   0  0  0  0  0  0
  -28.3401  -26.4947   20.2069 O   0  0  0  0  0  0
  -26.5603  -34.8908   22.4660 O   0  0  0  0  0  0
  -23.5406  -32.1455   23.7363 O   0  0  0  0  0  0
  -29.1150  -19.1484   19.5339 C   0  0  0  0  0  0
  -29.1653  -17.9284   22.0191 C   0  0  0  0  0  0
  -28.6884  -19.9512   20.6328 C   0  0  0  0  0  0
  -29.5078  -17.7704   19.6457 C   0  0  0  0  0  0
  -28.7413  -19.2970   21.9067 C   0  0  0  0  0  0
  -29.5533  -17.1141   20.9116 C   0  0  0  0  0  0
  -29.8960  -23.1149   20.1196 C   0  0  0  0  0  0
  -30.9658  -22.3087   20.0026 C   0  0  0  0  0  0
  -29.8198  -24.5960   19.7407 C   0  0  0  0  0  0
  -27.6981  -23.9331   20.6603 C   0  0  0  0  0  0
  -28.3609  -25.0680   19.7912 C   0  0  1  0  0  0
  -29.7624  -16.9908   18.3659 C   0  0  0  0  0  0
  -28.2970  -20.0016   23.1878 C   0  0  0  0  0  0
  -27.9962  -21.3677   20.3573 C   0  0  0  0  0  0
  -29.7600  -15.6646   21.1280 N   0  0  0  0  0  0
  -28.6072  -22.7162   20.7485 N   0  3  2  0  0  0
  -31.4828  -12.6086   19.1601 H   0  0  0  0  0  0
  -30.4155  -11.4344   19.8856 H   0  0  0  0  0  0
  -29.7987  -11.8251   17.4735 H   0  0  0  0  0  0
  -29.6378  -13.5355   17.7796 H   0  0  0  0  0  0
  -27.8848  -11.3029   18.8579 H   0  0  0  0  0  0
  -27.3818  -12.5950   17.7945 H   0  0  0  0  0  0
  -27.6760  -14.2560   19.5546 H   0  0  0  0  0  0
  -28.7174  -12.0073   21.3465 H   0  0  0  0  0  0
  -28.4097  -13.6297   21.8858 H   0  0  0  0  0  0
  -25.2796   -9.5651   22.4731 H   0  0  0  0  0  0
  -24.0016   -7.4618   22.7476 H   0  0  0  0  0  0
  -21.0826   -8.8731   19.8950 H   0  0  0  0  0  0
  -22.3684  -10.9649   19.6134 H   0  0  0  0  0  0
  -21.1965   -7.6145   23.9702 H   0  0  0  0  0  0
  -21.1437   -6.0521   25.9068 H   0  0  0  0  0  0
  -22.0630   -2.7624   23.2814 H   0  0  0  0  0  0
  -22.4137  -11.9865   22.4736 H   0  0  0  0  0  0
  -21.1128  -13.1250   22.2609 H   0  0  0  0  0  0
  -24.6557  -15.8413   20.4742 H   0  0  0  0  0  0
  -26.2907  -15.6276   20.1089 H   0  0  0  0  0  0
  -26.7098  -32.5441   23.1058 H   0  0  0  0  0  0
  -25.0249  -33.9786   25.0536 H   0  0  0  0  0  0
  -22.7059  -31.3021   21.4089 H   0  0  0  0  0  0
  -23.3817  -35.9497   23.3256 H   0  0  0  0  0  0
  -24.3573  -36.8907   22.2059 H   0  0  0  0  0  0
  -23.7143  -37.6383   23.6686 H   0  0  0  0  0  0
  -26.0873  -31.5470   20.6086 H   0  0  0  0  0  0
  -26.8354  -30.8315   22.0052 H   0  0  0  0  0  0
  -28.0925  -28.9678   21.2054 H   0  0  0  0  0  0
  -25.9606  -25.9185   19.0025 H   0  0  0  0  0  0
  -23.9626  -27.3121   19.0069 H   0  0  0  0  0  0
  -23.7560  -30.6116   19.4163 H   0  0  0  0  0  0
  -22.7429  -29.2681   19.8501 H   0  0  0  0  0  0
  -25.1269  -36.1948   25.0829 H   0  0  0  0  0  0
  -20.9966  -28.3252   24.1423 H   0  0  0  0  0  0
  -20.5752  -26.2248   23.3602 H   0  0  0  0  0  0
  -21.6667  -26.7460   22.1193 H   0  0  0  0  0  0
  -19.6973  -25.6292   21.1247 H   0  0  0  0  0  0
  -19.6761  -27.3174   20.6739 H   0  0  0  0  0  0
  -17.4230  -26.6706   21.3970 H   0  0  0  0  0  0
  -18.0314  -26.0037   22.8959 H   0  0  0  0  0  0
  -19.7955  -30.7302   24.2209 H   0  0  0  0  0  0
  -17.5032  -31.6261   24.5174 H   0  0  0  0  0  0
  -15.5374  -30.2990   23.7693 H   0  0  0  0  0  0
  -15.8675  -28.0862   22.7040 H   0  0  0  0  0  0
  -24.6018  -30.6890   25.7780 H   0  0  0  0  0  0
  -24.8815  -32.2794   26.4788 H   0  0  0  0  0  0
  -25.8126  -30.8956   27.0243 H   0  0  0  0  0  0
  -26.2892  -29.6744   24.1170 H   0  0  0  0  0  0
  -27.4230  -29.7277   25.4486 H   0  0  0  0  0  0
  -27.8679  -30.4367   23.9136 H   0  0  0  0  0  0
  -27.2760  -33.3705   26.1885 H   0  0  0  0  0  0
  -28.3954  -32.6748   25.0286 H   0  0  0  0  0  0
  -28.0649  -31.8502   26.5462 H   0  0  0  0  0  0
  -28.2563  -38.0117   24.7641 H   0  0  0  0  0  0
  -28.1173  -36.2676   24.6173 H   0  0  0  0  0  0
  -27.2340  -37.1233   25.8866 H   0  0  0  0  0  0
  -20.9340  -29.8684   21.6844 H   0  0  0  0  0  0
  -26.0184  -38.2842   24.1539 H   0  0  0  0  0  0
  -29.0623  -19.5825   18.5440 H   0  0  0  0  0  0
  -29.1382  -17.4718   22.9986 H   0  0  0  0  0  0
  -31.8844  -22.6826   19.5772 H   0  0  0  0  0  0
  -30.9616  -21.2842   20.3434 H   0  0  0  0  0  0
  -30.2587  -24.7716   18.7578 H   0  0  0  0  0  0
  -30.4122  -25.1615   20.4615 H   0  0  0  0  0  0
  -26.7165  -23.6808   20.2580 H   0  0  0  0  0  0
  -27.5270  -24.3063   21.6698 H   0  0  0  0  0  0
  -27.9761  -24.9965   18.7723 H   0  0  0  0  0  0
  -29.6739  -17.6242   17.4826 H   0  0  0  0  0  0
  -29.0330  -16.1843   18.2618 H   0  0  0  0  0  0
  -30.7610  -16.5542   18.3519 H   0  0  0  0  0  0
  -27.6322  -19.3585   23.7669 H   0  0  0  0  0  0
  -27.7583  -20.9352   23.0168 H   0  0  0  0  0  0
  -29.1532  -20.2312   23.8247 H   0  0  0  0  0  0
  -27.0117  -21.3162   20.8215 H   0  0  0  0  0  0
  -27.7835  -21.4230   19.2901 H   0  0  0  0  0  0
  -29.0717  -15.2591   21.7442 H   0  0  0  0  0  0
  -28.7766  -22.6184   21.7367 H   0  0  0  0  0  0
  1 25  1  0  0  0
  1 30  2  0  0  0
  1 85  1  0  0  0
  2  3  1  0  0  0
  2 25  1  0  0  0
  2 87  1  0  0  0
  2 88  1  0  0  0
  3  4  1  0  0  0
  3 89  1  0  0  0
  3 90  1  0  0  0
  4  5  1  0  0  0
  4 91  1  0  0  0
  4 92  1  0  0  0
  5  6  1  0  0  0
  5 26  1  0  0  0
  5 93  1  0  0  0
  6 25  1  0  0  0
  6 94  1  0  0  0
  6 95  1  0  0  0
  7  8  2  0  0  0
  7 26  1  0  0  0
  7 29  1  0  0  0
  8  9  1  0  0  0
  8 22  1  0  0  0
  9 10  1  0  0  0
  9 27  2  0  0  0
 10 11  2  0  0  0
 10 15  1  0  0  0
 11 12  1  0  0  0
 11 96  1  0  0  0
 12 13  2  0  0  0
 12 97  1  0  0  0
 13 14  1  0  0  0
 13 31  1  0  0  0
 14 15  2  0  0  0
 14 98  1  0  0  0
 15 99  1  0  0  0
 16 17  2  0  0  0
 16 21  1  0  0  0
 16 31  1  0  0  0
 17 18  1  0  0  0
 17100  1  0  0  0
 18 19  2  0  0  0
 18101  1  0  0  0
 19 20  1  0  0  0
 19 24  1  0  0  0
 20 21  2  0  0  0
 20102  1  0  0  0
 21 23  1  0  0  0
 22 28  1  0  0  0
 22 32  2  0  0  0
 26 27  1  0  0  0
 28103  1  0  0  0
 28104  1  0  0  0
 29105  1  0  0  0
 29106  1  0  0  0
 33 34  1  0  0  0
 33 66  1  0  0  0
 33 70  2  0  0  0
 34 36  1  0  0  0
 34 59  1  0  0  0
 34107  1  0  0  0
 35 44  2  0  0  0
 35 45  1  0  0  0
 35 68  1  0  0  0
 36 56  1  0  0  0
 36108  1  0  0  0
 37 39  1  0  0  0
 37 47  1  0  0  0
 37 66  1  0  0  0
 37109  1  0  0  0
 38 43  2  0  0  0
 38 46  1  0  0  0
 38 47  1  0  0  0
 39 64  1  0  0  0
 39 67  2  0  0  0
 40 52  1  0  0  0
 40 53  2  0  0  0
 40 58  1  0  0  0
 41110  1  0  0  0
 41111  1  0  0  0
 41112  1  0  0  0
 41 48  1  0  0  0
 42 43  1  0  0  0
 42 66  1  0  0  0
 42113  1  0  0  0
 42114  1  0  0  0
 43 44  1  0  0  0
 44115  1  0  0  0
 45 46  2  0  0  0
 45116  1  0  0  0
 46117  1  0  0  0
 47118  1  0  0  0
 47119  1  0  0  0
 48 56  1  0  0  0
 48 65  1  0  0  0
 48120  1  0  0  0
 49 50  1  0  0  0
 49 53  1  0  0  0
 49 64  1  0  0  0
 49121  1  0  0  0
 50 51  1  0  0  0
 50122  1  0  0  0
 50123  1  0  0  0
 51 52  1  0  0  0
 51124  1  0  0  0
 51125  1  0  0  0
 52126  1  0  0  0
 52127  1  0  0  0
 53 54  1  0  0  0
 54 55  2  0  0  0
 54128  1  0  0  0
 55 57  1  0  0  0
 55129  1  0  0  0
 56 69  2  0  0  0
 57 58  2  0  0  0
 57130  1  0  0  0
 58131  1  0  0  0
 59 60  1  0  0  0
 59 61  1  0  0  0
 59 62  1  0  0  0
 60132  1  0  0  0
 60133  1  0  0  0
 60134  1  0  0  0
 61135  1  0  0  0
 61136  1  0  0  0
 61137  1  0  0  0
 62138  1  0  0  0
 62139  1  0  0  0
 62140  1  0  0  0
 63 65  1  0  0  0
 63141  1  0  0  0
 63142  1  0  0  0
 63143  1  0  0  0
 64144  1  0  0  0
 65145  1  0  0  0
 68 81  1  0  0  0
 71 73  2  0  0  0
 71 74  1  0  0  0
 71146  1  0  0  0
 72 75  2  0  0  0
 72 76  1  0  0  0
 72147  1  0  0  0
 73 75  1  0  0  0
 73 84  1  0  0  0
 74 76  2  0  0  0
 74 82  1  0  0  0
 75 83  1  0  0  0
 76 85  1  0  0  0
 77 78  2  0  0  0
 77 79  1  0  0  0
 77 86  1  0  0  0
 78148  1  0  0  0
 78149  1  0  0  0
 79 81  1  0  0  0
 79150  1  0  0  0
 79151  1  0  0  0
 80 81  1  0  0  0
 80 86  1  0  0  0
 80152  1  0  0  0
 80153  1  0  0  0
 81154  1  0  0  0
 82155  1  0  0  0
 82156  1  0  0  0
 82157  1  0  0  0
 83158  1  0  0  0
 83159  1  0  0  0
 83160  1  0  0  0
 84161  1  0  0  0
 84162  1  0  0  0
 84 86  1  0  0  0
 85163  1  0  0  0
 86164  1  0  0  0
M  CHG  1  86   1
M  ISO  4   1 100  68 101  81 101  85 100
M  END
> <chiral flag>
0

> <version>
0

> <s_m_source_file>
/data/baiqing/PycharmProjects/Reinvent-master-3.2/result/LINK_invent/BTK/process_docking_weight1_custom_product_contain_oxygen_bond_distance_aromatic_linkinvent_7_9_3/rearranged_h_0034.sdf

> <i_m_source_file_index>
59

> <r_mmod_Potential_Energy-OPLS-2005>
28.5999031066895

> <r_mmod_Stretch_Energy-OPLS-2005>
93.9905548095703

> <r_mmod_Bend_Energy-OPLS-2005>
191.36555480957

> <r_mmod_Torsional_Energy-OPLS-2005>
260.172332763672

> <r_mmod_Improper_Torsional_Energy-OPLS-2005>
5.18013048171997

> <r_mmod_Van_der_Waal_Energy-OPLS-2005>
130.477020263672

> <r_mmod_Electrostatic_Energy-OPLS-2005>
-286.286895751953

> <r_mmod_Solvation_Energy-OPLS-2005>
-426.980621337891

> <b_mmod_Minimization_Converged-OPLS-2005>
0

> <r_mmod_RMS_Derivative-OPLS-2005>
4.66030073165894

$$$$
59
                    3D
 Structure written by MMmdl.
167176  0  0  1  0            999 V2000
  -30.6946  -14.5041   20.5532 C   0  0  0  0  0  0
  -30.4203  -12.3254   19.4224 C   0  0  0  0  0  0
  -29.4907  -12.4983   18.2042 C   0  0  0  0  0  0
  -28.0140  -12.3541   18.6220 C   0  0  0  0  0  0
  -27.6553  -13.2095   19.8675 C   0  0  2  0  0  0
  -28.6996  -13.0193   20.9891 C   0  0  0  0  0  0
  -25.2572  -13.8181   20.5691 C   0  0  0  0  0  0
  -24.1825  -13.0448   20.9182 C   0  0  0  0  0  0
  -24.6381  -11.6913   20.8740 C   0  0  0  0  0  0
  -23.9049  -10.4296   21.0407 C   0  0  0  0  0  0
  -24.3608   -9.4215   21.9184 C   0  0  0  0  0  0
  -23.6289   -8.2244   22.0756 C   0  0  0  0  0  0
  -22.4273   -8.0273   21.3545 C   0  0  0  0  0  0
  -21.9902   -9.0245   20.4647 C   0  0  0  0  0  0
  -22.7224  -10.2127   20.3057 C   0  0  0  0  0  0
  -21.6850   -6.0731   22.5275 C   0  0  0  0  0  0
  -21.4008   -6.5642   23.8210 C   0  0  0  0  0  0
  -21.3658   -5.6792   24.9174 C   0  0  0  0  0  0
  -21.6047   -4.3056   24.7223 C   0  0  0  0  0  0
  -21.8818   -3.8144   23.4347 C   0  0  0  0  0  0
  -21.9190   -4.6956   22.3402 C   0  0  0  0  0  0
  -22.7850  -13.5244   21.1849 C   0  0  0  0  0  0
  -22.1657   -4.2144   21.0978 F   0  0  0  0  0  0
  -21.5631   -3.4540   25.7739 F   0  0  0  0  0  0
  -30.0228  -13.3272   20.4250 N   0  0  0  0  0  0
  -26.2995  -12.9338   20.3345 N   0  0  0  0  0  0
  -25.9305  -11.6497   20.5772 N   0  0  0  0  0  0
  -22.0485  -12.8237   22.0400 N   0  0  0  0  0  0
  -25.4319  -15.1902   20.4118 N   0  0  0  0  0  0
  -31.8379  -14.6611   20.1175 O   0  0  0  0  0  0
  -21.6638   -6.8867   21.4237 O   0  0  0  0  0  0
  -22.3539  -14.5560   20.6710 O   0  0  0  0  0  0
  -24.6157  -31.8640   23.2042 C   0  0  0  0  0  0
  -25.9041  -32.4801   23.8350 C   0  0  1  0  0  0
  -27.2394  -27.4048   20.0976 C   0  0  0  0  0  0
  -25.5912  -33.8602   24.2290 N   0  0  0  0  0  0
  -23.4043  -30.4834   21.5455 C   0  0  2  0  0  0
  -24.8492  -28.9394   20.1118 C   0  0  0  0  0  0
  -22.7416  -29.4623   22.4980 C   0  0  0  0  0  0
  -18.0267  -28.1373   22.8481 C   0  0  0  0  0  0
  -24.1493  -36.7297   23.2641 C   0  0  0  0  0  0
  -25.9327  -30.8198   21.3575 C   0  0  0  0  0  0
  -26.0067  -29.4499   20.7080 C   0  0  0  0  0  0
  -27.1984  -28.6896   20.6960 C   0  0  0  0  0  0
  -26.0569  -26.9043   19.5080 C   0  0  0  0  0  0
  -24.8706  -27.6677   19.5093 C   0  0  0  0  0  0
  -23.6112  -29.8077   20.1615 C   0  0  0  0  0  0
  -25.4117  -36.3100   24.0341 C   0  0  1  0  0  0
  -20.5865  -28.3654   23.1320 C   0  0  2  0  0  0
  -20.6751  -26.9389   22.5417 C   0  0  0  0  0  0
  -19.5743  -26.6373   21.5208 C   0  0  0  0  0  0
  -18.1919  -26.7925   22.1607 C   0  0  0  0  0  0
  -19.1521  -28.8830   23.2895 C   0  0  0  0  0  0
  -18.9457  -30.1438   23.8898 C   0  0  0  0  0  0
  -17.6465  -30.6583   24.0559 C   0  0  0  0  0  0
  -25.9041  -34.9468   23.5109 C   0  0  0  0  0  0
  -16.5348  -29.9087   23.6325 C   0  0  0  0  0  0
  -16.7256  -28.6502   23.0338 C   0  0  0  0  0  0
  -26.4453  -31.6597   25.0697 C   0  0  0  0  0  0
  -25.3728  -31.3754   26.1478 C   0  0  0  0  0  0
  -27.0237  -30.3028   24.6061 C   0  0  0  0  0  0
  -27.6056  -32.4288   25.7427 C   0  0  0  0  0  0
  -27.5589  -37.1801   24.8470 C   0  0  0  0  0  0
  -21.4143  -29.3027   22.3735 N   0  0  0  0  0  0
  -26.4301  -37.3788   23.9415 N   0  0  0  0  0  0
  -24.6695  -31.0713   22.0944 N   0  0  0  0  0  0
  -23.4184  -28.8172   23.3036 O   0  0  0  0  0  0
  -28.4442  -26.7227   20.1448 O   0  0  0  0  0  0
  -26.5600  -34.8943   22.4667 O   0  0  0  0  0  0
  -23.5344  -32.1395   23.7431 O   0  0  0  0  0  0
  -30.2853  -18.7892   19.6832 C   0  0  0  0  0  0
  -28.0173  -19.8233   20.9336 C   0  0  0  0  0  0
  -29.6902  -19.9760   19.1827 C   0  0  0  0  0  0
  -28.5971  -18.6212   21.4134 C   0  0  0  0  0  0
  -29.7630  -18.0988   20.7990 C   0  0  0  0  0  0
  -28.5417  -20.5281   19.8214 C   0  0  0  0  0  0
  -28.4563  -23.7576   17.8170 C   0  0  0  0  0  0
  -28.3348  -23.1699   16.6117 C   0  0  0  0  0  0
  -28.5731  -25.2558   18.0631 C   0  0  0  0  0  0
  -28.1125  -24.1183   20.1547 C   0  0  0  0  0  0
  -28.7086  -25.4176   19.5739 C   0  0  2  0  0  0
  -30.3073  -20.5944   17.9392 C   0  0  0  0  0  0
  -27.9533  -17.9148   22.5949 C   0  0  0  0  0  0
  -30.5315  -16.8836   21.3612 C   0  0  0  0  0  0
  -27.7513  -21.7558   19.2859 C   0  0  0  0  0  0
  -29.9956  -15.5387   21.0693 N   0  0  0  0  0  0
  -28.4816  -23.0650   19.1601 N   0  3  1  0  0  0
  -31.4648  -12.4236   19.1194 H   0  0  0  0  0  0
  -30.3258  -11.3212   19.8373 H   0  0  0  0  0  0
  -29.7360  -11.7615   17.4386 H   0  0  0  0  0  0
  -29.6502  -13.4767   17.7479 H   0  0  0  0  0  0
  -27.8349  -11.2990   18.8331 H   0  0  0  0  0  0
  -27.3591  -12.6088   17.7880 H   0  0  0  0  0  0
  -27.6908  -14.2525   19.5523 H   0  0  0  0  0  0
  -28.6861  -11.9916   21.3533 H   0  0  0  0  0  0
  -28.4618  -13.6389   21.8545 H   0  0  0  0  0  0
  -25.2754   -9.5694   22.4754 H   0  0  0  0  0  0
  -24.0000   -7.4639   22.7478 H   0  0  0  0  0  0
  -21.0829   -8.8747   19.8958 H   0  0  0  0  0  0
  -22.3675  -10.9656   19.6161 H   0  0  0  0  0  0
  -21.1997   -7.6149   23.9713 H   0  0  0  0  0  0
  -21.1485   -6.0526   25.9077 H   0  0  0  0  0  0
  -22.0601   -2.7603   23.2847 H   0  0  0  0  0  0
  -22.4082  -11.9887   22.4783 H   0  0  0  0  0  0
  -21.1104  -13.1267   22.2593 H   0  0  0  0  0  0
  -24.6679  -15.8480   20.5247 H   0  0  0  0  0  0
  -26.2868  -15.6289   20.0949 H   0  0  0  0  0  0
  -26.7113  -32.5481   23.1107 H   0  0  0  0  0  0
  -25.0121  -33.9755   25.0481 H   0  0  0  0  0  0
  -22.6950  -31.3012   21.4018 H   0  0  0  0  0  0
  -23.3775  -35.9606   23.3268 H   0  0  0  0  0  0
  -24.3597  -36.8930   22.2061 H   0  0  0  0  0  0
  -23.7222  -37.6486   23.6668 H   0  0  0  0  0  0
  -26.0464  -31.5794   20.5838 H   0  0  0  0  0  0
  -26.8207  -30.8756   21.9747 H   0  0  0  0  0  0
  -28.0939  -29.0852   21.1558 H   0  0  0  0  0  0
  -26.0211  -25.9268   19.0533 H   0  0  0  0  0  0
  -23.9777  -27.2640   19.0509 H   0  0  0  0  0  0
  -23.7192  -30.5775   19.3970 H   0  0  0  0  0  0
  -22.7347  -29.2256   19.8693 H   0  0  0  0  0  0
  -25.1294  -36.1950   25.0833 H   0  0  0  0  0  0
  -20.9945  -28.3205   24.1448 H   0  0  0  0  0  0
  -20.5643  -26.2259   23.3600 H   0  0  0  0  0  0
  -21.6623  -26.7424   22.1213 H   0  0  0  0  0  0
  -19.6904  -25.6287   21.1224 H   0  0  0  0  0  0
  -19.6710  -27.3191   20.6752 H   0  0  0  0  0  0
  -17.4198  -26.6689   21.3998 H   0  0  0  0  0  0
  -18.0306  -26.0060   22.8995 H   0  0  0  0  0  0
  -19.7943  -30.7245   24.2269 H   0  0  0  0  0  0
  -17.5030  -31.6271   24.5151 H   0  0  0  0  0  0
  -15.5355  -30.2998   23.7663 H   0  0  0  0  0  0
  -15.8649  -28.0838   22.7048 H   0  0  0  0  0  0
  -24.5845  -30.7161   25.7838 H   0  0  0  0  0  0
  -24.9010  -32.2948   26.4961 H   0  0  0  0  0  0
  -25.8083  -30.8887   27.0218 H   0  0  0  0  0  0
  -26.2750  -29.6817   24.1143 H   0  0  0  0  0  0
  -27.4037  -29.7246   25.4489 H   0  0  0  0  0  0
  -27.8578  -30.4339   23.9165 H   0  0  0  0  0  0
  -27.2747  -33.3655   26.1927 H   0  0  0  0  0  0
  -28.3907  -32.6715   25.0251 H   0  0  0  0  0  0
  -28.0667  -31.8439   26.5399 H   0  0  0  0  0  0
  -28.2605  -38.0098   24.7500 H   0  0  0  0  0  0
  -28.1078  -36.2625   24.6294 H   0  0  0  0  0  0
  -27.2303  -37.1433   25.8871 H   0  0  0  0  0  0
  -20.9303  -29.8795   21.7002 H   0  0  0  0  0  0
  -26.0181  -38.2861   24.1417 H   0  0  0  0  0  0
  -31.1707  -18.3963   19.2018 H   0  0  0  0  0  0
  -27.1229  -20.1965   21.4157 H   0  0  0  0  0  0
  -28.3146  -23.7730   15.7146 H   0  0  0  0  0  0
  -28.2452  -22.1049   16.4758 H   0  0  0  0  0  0
  -27.6946  -25.7514   17.6560 H   0  0  0  0  0  0
  -29.4415  -25.6669   17.5478 H   0  0  0  0  0  0
  -27.0286  -24.2015   20.2321 H   0  0  0  0  0  0
  -28.5051  -23.8894   21.1458 H   0  0  0  0  0  0
  -29.7786  -25.3218   19.7658 H   0  0  0  0  0  0
  -31.2535  -20.1148   17.6847 H   0  0  0  0  0  0
  -30.5210  -21.6532   18.0735 H   0  0  0  0  0  0
  -29.6463  -20.4652   17.0831 H   0  0  0  0  0  0
  -26.9731  -18.3354   22.8224 H   0  0  0  0  0  0
  -28.5733  -18.0081   23.4865 H   0  0  0  0  0  0
  -27.8085  -16.8554   22.3839 H   0  0  0  0  0  0
  -30.5862  -16.9855   22.4456 H   0  0  0  0  0  0
  -31.5691  -16.9627   21.0315 H   0  0  0  0  0  0
  -26.8712  -21.9091   19.9105 H   0  0  0  0  0  0
  -27.3332  -21.4500   18.3297 H   0  0  0  0  0  0
  -29.0468  -15.3507   21.3504 H   0  0  0  0  0  0
  -29.4426  -22.8277   19.3592 H   0  0  0  0  0  0
  1 25  1  0  0  0
  1 30  2  0  0  0
  1 86  1  0  0  0
  2  3  1  0  0  0
  2 25  1  0  0  0
  2 88  1  0  0  0
  2 89  1  0  0  0
  3  4  1  0  0  0
  3 90  1  0  0  0
  3 91  1  0  0  0
  4  5  1  0  0  0
  4 92  1  0  0  0
  4 93  1  0  0  0
  5  6  1  0  0  0
  5 26  1  0  0  0
  5 94  1  0  0  0
  6 25  1  0  0  0
  6 95  1  0  0  0
  6 96  1  0  0  0
  7  8  2  0  0  0
  7 26  1  0  0  0
  7 29  1  0  0  0
  8  9  1  0  0  0
  8 22  1  0  0  0
  9 10  1  0  0  0
  9 27  2  0  0  0
 10 11  2  0  0  0
 10 15  1  0  0  0
 11 12  1  0  0  0
 11 97  1  0  0  0
 12 13  2  0  0  0
 12 98  1  0  0  0
 13 14  1  0  0  0
 13 31  1  0  0  0
 14 15  2  0  0  0
 14 99  1  0  0  0
 15100  1  0  0  0
 16 17  2  0  0  0
 16 21  1  0  0  0
 16 31  1  0  0  0
 17 18  1  0  0  0
 17101  1  0  0  0
 18 19  2  0  0  0
 18102  1  0  0  0
 19 20  1  0  0  0
 19 24  1  0  0  0
 20 21  2  0  0  0
 20103  1  0  0  0
 21 23  1  0  0  0
 22 28  1  0  0  0
 22 32  2  0  0  0
 26 27  1  0  0  0
 28104  1  0  0  0
 28105  1  0  0  0
 29106  1  0  0  0
 29107  1  0  0  0
 33 34  1  0  0  0
 33 66  1  0  0  0
 33 70  2  0  0  0
 34 36  1  0  0  0
 34 59  1  0  0  0
 34108  1  0  0  0
 35 44  2  0  0  0
 35 45  1  0  0  0
 35 68  1  0  0  0
 36 56  1  0  0  0
 36109  1  0  0  0
 37 39  1  0  0  0
 37 47  1  0  0  0
 37 66  1  0  0  0
 37110  1  0  0  0
 38 43  2  0  0  0
 38 46  1  0  0  0
 38 47  1  0  0  0
 39 64  1  0  0  0
 39 67  2  0  0  0
 40 52  1  0  0  0
 40 53  2  0  0  0
 40 58  1  0  0  0
 41111  1  0  0  0
 41112  1  0  0  0
 41113  1  0  0  0
 41 48  1  0  0  0
 42 43  1  0  0  0
 42 66  1  0  0  0
 42114  1  0  0  0
 42115  1  0  0  0
 43 44  1  0  0  0
 44116  1  0  0  0
 45 46  2  0  0  0
 45117  1  0  0  0
 46118  1  0  0  0
 47119  1  0  0  0
 47120  1  0  0  0
 48 56  1  0  0  0
 48 65  1  0  0  0
 48121  1  0  0  0
 49 50  1  0  0  0
 49 53  1  0  0  0
 49 64  1  0  0  0
 49122  1  0  0  0
 50 51  1  0  0  0
 50123  1  0  0  0
 50124  1  0  0  0
 51 52  1  0  0  0
 51125  1  0  0  0
 51126  1  0  0  0
 52127  1  0  0  0
 52128  1  0  0  0
 53 54  1  0  0  0
 54 55  2  0  0  0
 54129  1  0  0  0
 55 57  1  0  0  0
 55130  1  0  0  0
 56 69  2  0  0  0
 57 58  2  0  0  0
 57131  1  0  0  0
 58132  1  0  0  0
 59 60  1  0  0  0
 59 61  1  0  0  0
 59 62  1  0  0  0
 60133  1  0  0  0
 60134  1  0  0  0
 60135  1  0  0  0
 61136  1  0  0  0
 61137  1  0  0  0
 61138  1  0  0  0
 62139  1  0  0  0
 62140  1  0  0  0
 62141  1  0  0  0
 63 65  1  0  0  0
 63142  1  0  0  0
 63143  1  0  0  0
 63144  1  0  0  0
 64145  1  0  0  0
 65146  1  0  0  0
 68 81  1  0  0  0
 71 73  2  0  0  0
 71 75  1  0  0  0
 71147  1  0  0  0
 72 74  1  0  0  0
 72 76  2  0  0  0
 72148  1  0  0  0
 73 76  1  0  0  0
 73 82  1  0  0  0
 74 75  2  0  0  0
 74 83  1  0  0  0
 75 84  1  0  0  0
 76 85  1  0  0  0
 77 78  2  0  0  0
 77 79  1  0  0  0
 77 87  1  0  0  0
 78149  1  0  0  0
 78150  1  0  0  0
 79 81  1  0  0  0
 79151  1  0  0  0
 79152  1  0  0  0
 80 81  1  0  0  0
 80 87  1  0  0  0
 80153  1  0  0  0
 80154  1  0  0  0
 81155  1  0  0  0
 82156  1  0  0  0
 82157  1  0  0  0
 82158  1  0  0  0
 83159  1  0  0  0
 83160  1  0  0  0
 83161  1  0  0  0
 84 86  1  0  0  0
 84162  1  0  0  0
 84163  1  0  0  0
 85164  1  0  0  0
 85165  1  0  0  0
 85 87  1  0  0  0
 86166  1  0  0  0
 87167  1  0  0  0
M  CHG  1  87   1
M  ISO  4   1 100  68 101  81 101  86 100
M  END
> <chiral flag>
0

> <version>
0

> <s_m_source_file>
/data/baiqing/PycharmProjects/Reinvent-master-3.2/result/LINK_invent/BTK/process_docking_weight1_custom_product_contain_oxygen_bond_distance_aromatic_linkinvent_7_9_3/rearranged_h_0034.sdf

> <i_m_source_file_index>
60

> <r_mmod_Potential_Energy-OPLS-2005>
-141.631729125977

> <r_mmod_Stretch_Energy-OPLS-2005>
48.0470275878906

> <r_mmod_Bend_Energy-OPLS-2005>
177.689117431641

> <r_mmod_Torsional_Energy-OPLS-2005>
210.481918334961

> <r_mmod_Improper_Torsional_Energy-OPLS-2005>
3.53445529937744

> <r_mmod_Van_der_Waal_Energy-OPLS-2005>
142.876251220703

> <r_mmod_Electrostatic_Energy-OPLS-2005>
-321.973083496094

> <r_mmod_Solvation_Energy-OPLS-2005>
-420.602691650391

> <b_mmod_Minimization_Converged-OPLS-2005>
0

> <r_mmod_RMS_Derivative-OPLS-2005>
1.92367780208588

$$$$
60
                    3D
 Structure written by MMmdl.
161170  0  0  1  0            999 V2000
  -30.6152  -14.6316   20.5252 C   0  0  0  0  0  0
  -30.4437  -12.3935   19.4526 C   0  0  0  0  0  0
  -29.5097  -12.4954   18.2265 C   0  0  0  0  0  0
  -28.0340  -12.3314   18.6427 C   0  0  0  0  0  0
  -27.6544  -13.2080   19.8653 C   0  0  2  0  0  0
  -28.6964  -13.0530   20.9957 C   0  0  0  0  0  0
  -25.2569  -13.8150   20.5680 C   0  0  0  0  0  0
  -24.1822  -13.0431   20.9193 C   0  0  0  0  0  0
  -24.6382  -11.6900   20.8759 C   0  0  0  0  0  0
  -23.9049  -10.4287   21.0425 C   0  0  0  0  0  0
  -24.3603   -9.4205   21.9201 C   0  0  0  0  0  0
  -23.6277   -8.2242   22.0764 C   0  0  0  0  0  0
  -22.4264   -8.0281   21.3545 C   0  0  0  0  0  0
  -21.9892   -9.0263   20.4660 C   0  0  0  0  0  0
  -22.7220  -10.2143   20.3077 C   0  0  0  0  0  0
  -21.6857   -6.0734   22.5280 C   0  0  0  0  0  0
  -21.4010   -6.5636   23.8212 C   0  0  0  0  0  0
  -21.3654   -5.6789   24.9173 C   0  0  0  0  0  0
  -21.6045   -4.3053   24.7227 C   0  0  0  0  0  0
  -21.8814   -3.8143   23.4349 C   0  0  0  0  0  0
  -21.9185   -4.6959   22.3402 C   0  0  0  0  0  0
  -22.7851  -13.5247   21.1842 C   0  0  0  0  0  0
  -22.1657   -4.2147   21.0984 F   0  0  0  0  0  0
  -21.5627   -3.4536   25.7737 F   0  0  0  0  0  0
  -30.0112  -13.4061   20.4359 N   0  0  0  0  0  0
  -26.2983  -12.9311   20.3310 N   0  0  0  0  0  0
  -25.9308  -11.6483   20.5770 N   0  0  0  0  0  0
  -22.0480  -12.8275   22.0417 N   0  0  0  0  0  0
  -25.4296  -15.1866   20.4080 N   0  0  0  0  0  0
  -31.7659  -14.8015   20.1140 O   0  0  0  0  0  0
  -21.6633   -6.8880   21.4244 O   0  0  0  0  0  0
  -22.3547  -14.5551   20.6674 O   0  0  0  0  0  0
  -24.6257  -31.8601   23.2044 C   0  0  0  0  0  0
  -25.9105  -32.4783   23.8364 C   0  0  1  0  0  0
  -27.2209  -27.3135   20.1227 C   0  0  0  0  0  0
  -25.5915  -33.8583   24.2285 N   0  0  0  0  0  0
  -23.4196  -30.4859   21.5457 C   0  0  2  0  0  0
  -24.8659  -28.9457   20.1098 C   0  0  0  0  0  0
  -22.7471  -29.4627   22.4923 C   0  0  0  0  0  0
  -18.0281  -28.1403   22.8485 C   0  0  0  0  0  0
  -24.1485  -36.7289   23.2639 C   0  0  0  0  0  0
  -25.9614  -30.7898   21.3773 C   0  0  0  0  0  0
  -26.0338  -29.4173   20.7204 C   0  0  0  0  0  0
  -27.2119  -28.6113   20.7224 C   0  0  0  0  0  0
  -26.0329  -26.9116   19.4631 C   0  0  0  0  0  0
  -24.8674  -27.6972   19.4724 C   0  0  0  0  0  0
  -23.6349  -29.8253   20.1590 C   0  0  0  0  0  0
  -25.4110  -36.3086   24.0328 C   0  0  1  0  0  0
  -20.5886  -28.3698   23.1281 C   0  0  2  0  0  0
  -20.6762  -26.9418   22.5418 C   0  0  0  0  0  0
  -19.5742  -26.6391   21.5217 C   0  0  0  0  0  0
  -18.1922  -26.7945   22.1626 C   0  0  0  0  0  0
  -19.1538  -28.8867   23.2876 C   0  0  0  0  0  0
  -18.9463  -30.1466   23.8901 C   0  0  0  0  0  0
  -17.6463  -30.6601   24.0571 C   0  0  0  0  0  0
  -25.9042  -34.9456   23.5108 C   0  0  0  0  0  0
  -16.5352  -29.9102   23.6339 C   0  0  0  0  0  0
  -16.7269  -28.6521   23.0356 C   0  0  0  0  0  0
  -26.4489  -31.6600   25.0738 C   0  0  0  0  0  0
  -25.3718  -31.3759   26.1462 C   0  0  0  0  0  0
  -27.0313  -30.3011   24.6204 C   0  0  0  0  0  0
  -27.6043  -32.4336   25.7516 C   0  0  0  0  0  0
  -27.5568  -37.1808   24.8469 C   0  0  0  0  0  0
  -21.4186  -29.3049   22.3666 N   0  0  0  0  0  0
  -26.4289  -37.3775   23.9399 N   0  0  0  0  0  0
  -24.6877  -31.0624   22.0980 N   0  0  0  0  0  0
  -23.4191  -28.8146   23.2982 O   0  0  0  0  0  0
  -28.3331  -26.4550   20.2170 O   0  0  0  0  0  0
  -26.5615  -34.8921   22.4676 O   0  0  0  0  0  0
  -23.5421  -32.1397   23.7367 O   0  0  0  0  0  0
  -28.6869  -19.2913   20.5569 C   0  0  0  0  0  0
  -28.7544  -17.8657   20.4915 C   0  0  0  0  0  0
  -30.9207  -19.3204   21.4311 C   0  0  0  0  0  0
  -29.7758  -20.0660   21.0315 C   0  0  0  0  0  0
  -30.9927  -17.8932   21.3825 C   0  0  0  0  0  0
  -29.8989  -17.1205   20.8937 C   0  0  0  0  0  0
  -28.9305  -23.9753   20.8208 C   0  0  0  0  0  0
  -28.2931  -23.2916   18.0687 C   0  0  0  0  0  0
  -28.5503  -24.7601   18.4268 C   0  0  0  0  0  0
  -29.0923  -22.3203   18.9639 C   0  0  0  0  0  0
  -28.1777  -25.0100   19.8919 C   0  0  2  0  0  0
  -32.2335  -17.2215   21.9435 C   0  0  0  0  0  0
  -29.7200  -21.6223   21.3147 C   0  0  0  0  0  0
  -29.1291  -22.6686   20.3962 N   0  0  0  0  0  0
  -29.7996  -15.6586   20.9315 N   0  0  0  0  0  0
  -29.2648  -24.3422   21.9527 O   0  0  0  0  0  0
  -31.4823  -12.5309   19.1462 H   0  0  0  0  0  0
  -30.3929  -11.3975   19.8949 H   0  0  0  0  0  0
  -29.7762  -11.7327   17.4927 H   0  0  0  0  0  0
  -29.6497  -13.4583   17.7318 H   0  0  0  0  0  0
  -27.8812  -11.2799   18.8889 H   0  0  0  0  0  0
  -27.3750  -12.5429   17.7999 H   0  0  0  0  0  0
  -27.6786  -14.2426   19.5227 H   0  0  0  0  0  0
  -28.7116  -12.0262   21.3650 H   0  0  0  0  0  0
  -28.4371  -13.6723   21.8555 H   0  0  0  0  0  0
  -25.2755   -9.5682   22.4763 H   0  0  0  0  0  0
  -23.9990   -7.4634   22.7481 H   0  0  0  0  0  0
  -21.0813   -8.8786   19.8977 H   0  0  0  0  0  0
  -22.3679  -10.9684   19.6180 H   0  0  0  0  0  0
  -21.2013   -7.6146   23.9716 H   0  0  0  0  0  0
  -21.1478   -6.0522   25.9075 H   0  0  0  0  0  0
  -22.0597   -2.7608   23.2852 H   0  0  0  0  0  0
  -22.4067  -11.9951   22.4843 H   0  0  0  0  0  0
  -21.1110  -13.1342   22.2624 H   0  0  0  0  0  0
  -24.6605  -15.8387   20.5126 H   0  0  0  0  0  0
  -26.2668  -15.6196   20.0426 H   0  0  0  0  0  0
  -26.7171  -32.5453   23.1108 H   0  0  0  0  0  0
  -25.0062  -33.9735   25.0431 H   0  0  0  0  0  0
  -22.7127  -31.3055   21.4041 H   0  0  0  0  0  0
  -23.3737  -35.9637   23.3347 H   0  0  0  0  0  0
  -24.3562  -36.8855   22.2041 H   0  0  0  0  0  0
  -23.7259  -37.6508   23.6642 H   0  0  0  0  0  0
  -26.0971  -31.5514   20.6077 H   0  0  0  0  0  0
  -26.8401  -30.8370   22.0086 H   0  0  0  0  0  0
  -28.1038  -28.9644   21.2222 H   0  0  0  0  0  0
  -25.9606  -25.9739   18.9349 H   0  0  0  0  0  0
  -23.9747  -27.3363   18.9793 H   0  0  0  0  0  0
  -23.7543  -30.6038   19.4036 H   0  0  0  0  0  0
  -22.7559  -29.2544   19.8551 H   0  0  0  0  0  0
  -25.1301  -36.1936   25.0823 H   0  0  0  0  0  0
  -20.9983  -28.3280   24.1398 H   0  0  0  0  0  0
  -20.5657  -26.2309   23.3618 H   0  0  0  0  0  0
  -21.6629  -26.7435   22.1222 H   0  0  0  0  0  0
  -19.6897  -25.6299   21.1250 H   0  0  0  0  0  0
  -19.6693  -27.3197   20.6744 H   0  0  0  0  0  0
  -17.4189  -26.6693   21.4031 H   0  0  0  0  0  0
  -18.0327  -26.0101   22.9039 H   0  0  0  0  0  0
  -19.7936  -30.7281   24.2278 H   0  0  0  0  0  0
  -17.5020  -31.6285   24.5164 H   0  0  0  0  0  0
  -15.5355  -30.3005   23.7674 H   0  0  0  0  0  0
  -15.8665  -28.0842   22.7074 H   0  0  0  0  0  0
  -24.5925  -30.7056   25.7821 H   0  0  0  0  0  0
  -24.8872  -32.2928   26.4826 H   0  0  0  0  0  0
  -25.8037  -30.9010   27.0278 H   0  0  0  0  0  0
  -26.2891  -29.6787   24.1188 H   0  0  0  0  0  0
  -27.3941  -29.7246   25.4725 H   0  0  0  0  0  0
  -27.8809  -30.4278   23.9488 H   0  0  0  0  0  0
  -27.2650  -33.3646   26.2077 H   0  0  0  0  0  0
  -28.3877  -32.6862   25.0361 H   0  0  0  0  0  0
  -28.0694  -31.8470   26.5449 H   0  0  0  0  0  0
  -28.2617  -38.0068   24.7456 H   0  0  0  0  0  0
  -28.1025  -36.2591   24.6381 H   0  0  0  0  0  0
  -27.2282  -37.1570   25.8872 H   0  0  0  0  0  0
  -20.9361  -29.8764   21.6879 H   0  0  0  0  0  0
  -26.0169  -38.2856   24.1367 H   0  0  0  0  0  0
  -27.7646  -19.7837   20.2796 H   0  0  0  0  0  0
  -27.8799  -17.3337   20.1481 H   0  0  0  0  0  0
  -31.7591  -19.8613   21.8483 H   0  0  0  0  0  0
  -28.5420  -23.1155   17.0217 H   0  0  0  0  0  0
  -27.2265  -23.0802   18.1622 H   0  0  0  0  0  0
  -27.9719  -25.4089   17.7699 H   0  0  0  0  0  0
  -29.5988  -25.0140   18.2605 H   0  0  0  0  0  0
  -30.1248  -22.2777   18.6168 H   0  0  0  0  0  0
  -28.6836  -21.3221   18.8235 H   0  0  0  0  0  0
  -27.1461  -24.7039   20.0543 H   0  0  0  0  0  0
  -31.9679  -16.3959   22.6036 H   0  0  0  0  0  0
  -32.8446  -17.9200   22.5166 H   0  0  0  0  0  0
  -32.8495  -16.8366   21.1316 H   0  0  0  0  0  0
  -30.7427  -21.9460   21.5144 H   0  0  0  0  0  0
  -29.2111  -21.7197   22.2753 H   0  0  0  0  0  0
  -28.8735  -15.3217   21.1442 H   0  0  0  0  0  0
  1 25  1  0  0  0
  1 30  2  0  0  0
  1 85  1  0  0  0
  2  3  1  0  0  0
  2 25  1  0  0  0
  2 87  1  0  0  0
  2 88  1  0  0  0
  3  4  1  0  0  0
  3 89  1  0  0  0
  3 90  1  0  0  0
  4  5  1  0  0  0
  4 91  1  0  0  0
  4 92  1  0  0  0
  5  6  1  0  0  0
  5 26  1  0  0  0
  5 93  1  0  0  0
  6 25  1  0  0  0
  6 94  1  0  0  0
  6 95  1  0  0  0
  7  8  2  0  0  0
  7 26  1  0  0  0
  7 29  1  0  0  0
  8  9  1  0  0  0
  8 22  1  0  0  0
  9 10  1  0  0  0
  9 27  2  0  0  0
 10 11  2  0  0  0
 10 15  1  0  0  0
 11 12  1  0  0  0
 11 96  1  0  0  0
 12 13  2  0  0  0
 12 97  1  0  0  0
 13 14  1  0  0  0
 13 31  1  0  0  0
 14 15  2  0  0  0
 14 98  1  0  0  0
 15 99  1  0  0  0
 16 17  2  0  0  0
 16 21  1  0  0  0
 16 31  1  0  0  0
 17 18  1  0  0  0
 17100  1  0  0  0
 18 19  2  0  0  0
 18101  1  0  0  0
 19 20  1  0  0  0
 19 24  1  0  0  0
 20 21  2  0  0  0
 20102  1  0  0  0
 21 23  1  0  0  0
 22 28  1  0  0  0
 22 32  2  0  0  0
 26 27  1  0  0  0
 28103  1  0  0  0
 28104  1  0  0  0
 29105  1  0  0  0
 29106  1  0  0  0
 33 34  1  0  0  0
 33 66  1  0  0  0
 33 70  2  0  0  0
 34 36  1  0  0  0
 34 59  1  0  0  0
 34107  1  0  0  0
 35 44  2  0  0  0
 35 45  1  0  0  0
 35 68  1  0  0  0
 36 56  1  0  0  0
 36108  1  0  0  0
 37 39  1  0  0  0
 37 47  1  0  0  0
 37 66  1  0  0  0
 37109  1  0  0  0
 38 43  2  0  0  0
 38 46  1  0  0  0
 38 47  1  0  0  0
 39 64  1  0  0  0
 39 67  2  0  0  0
 40 52  1  0  0  0
 40 53  2  0  0  0
 40 58  1  0  0  0
 41110  1  0  0  0
 41111  1  0  0  0
 41112  1  0  0  0
 41 48  1  0  0  0
 42 43  1  0  0  0
 42 66  1  0  0  0
 42113  1  0  0  0
 42114  1  0  0  0
 43 44  1  0  0  0
 44115  1  0  0  0
 45 46  2  0  0  0
 45116  1  0  0  0
 46117  1  0  0  0
 47118  1  0  0  0
 47119  1  0  0  0
 48 56  1  0  0  0
 48 65  1  0  0  0
 48120  1  0  0  0
 49 50  1  0  0  0
 49 53  1  0  0  0
 49 64  1  0  0  0
 49121  1  0  0  0
 50 51  1  0  0  0
 50122  1  0  0  0
 50123  1  0  0  0
 51 52  1  0  0  0
 51124  1  0  0  0
 51125  1  0  0  0
 52126  1  0  0  0
 52127  1  0  0  0
 53 54  1  0  0  0
 54 55  2  0  0  0
 54128  1  0  0  0
 55 57  1  0  0  0
 55129  1  0  0  0
 56 69  2  0  0  0
 57 58  2  0  0  0
 57130  1  0  0  0
 58131  1  0  0  0
 59 60  1  0  0  0
 59 61  1  0  0  0
 59 62  1  0  0  0
 60132  1  0  0  0
 60133  1  0  0  0
 60134  1  0  0  0
 61135  1  0  0  0
 61136  1  0  0  0
 61137  1  0  0  0
 62138  1  0  0  0
 62139  1  0  0  0
 62140  1  0  0  0
 63 65  1  0  0  0
 63141  1  0  0  0
 63142  1  0  0  0
 63143  1  0  0  0
 64144  1  0  0  0
 65145  1  0  0  0
 68 81  1  0  0  0
 71 72  2  0  0  0
 71 74  1  0  0  0
 71146  1  0  0  0
 72 76  1  0  0  0
 72147  1  0  0  0
 73 74  2  0  0  0
 73 75  1  0  0  0
 73148  1  0  0  0
 74 83  1  0  0  0
 75 76  2  0  0  0
 75 82  1  0  0  0
 76 85  1  0  0  0
 77 81  1  0  0  0
 77 84  1  0  0  0
 77 86  2  0  0  0
 78 79  1  0  0  0
 78 80  1  0  0  0
 78149  1  0  0  0
 78150  1  0  0  0
 79 81  1  0  0  0
 79151  1  0  0  0
 79152  1  0  0  0
 80 84  1  0  0  0
 80153  1  0  0  0
 80154  1  0  0  0
 81155  1  0  0  0
 82156  1  0  0  0
 82157  1  0  0  0
 82158  1  0  0  0
 83 84  1  0  0  0
 83159  1  0  0  0
 83160  1  0  0  0
 85161  1  0  0  0
M  ISO  4   1 100  68 101  81 101  85 100
M  END
> <chiral flag>
0

> <version>
0

> <s_m_source_file>
/data/baiqing/PycharmProjects/Reinvent-master-3.2/result/LINK_invent/BTK/process_docking_weight1_custom_product_contain_oxygen_bond_distance_aromatic_linkinvent_7_9_3/rearranged_h_0034.sdf

> <i_m_source_file_index>
61

> <r_mmod_Potential_Energy-OPLS-2005>
117.557327270508

> <r_mmod_Stretch_Energy-OPLS-2005>
86.92041015625

> <r_mmod_Bend_Energy-OPLS-2005>
156.34733581543

> <r_mmod_Torsional_Energy-OPLS-2005>
244.77294921875

> <r_mmod_Improper_Torsional_Energy-OPLS-2005>
7.10629320144653

> <r_mmod_Van_der_Waal_Energy-OPLS-2005>
157.878189086914

> <r_mmod_Electrostatic_Energy-OPLS-2005>
-351.009368896484

> <r_mmod_Solvation_Energy-OPLS-2005>
-235.037734985352

> <b_mmod_Minimization_Converged-OPLS-2005>
0

> <r_mmod_RMS_Derivative-OPLS-2005>
2.23557615280151

$$$$
61
                    3D
 Structure written by MMmdl.
166175  0  0  1  0            999 V2000
  -30.6537  -14.6269   20.4514 C   0  0  0  0  0  0
  -30.4279  -12.3765   19.4528 C   0  0  0  0  0  0
  -29.5016  -12.4820   18.2224 C   0  0  0  0  0  0
  -28.0269  -12.3241   18.6405 C   0  0  0  0  0  0
  -27.6491  -13.2149   19.8549 C   0  0  2  0  0  0
  -28.6970  -13.1079   20.9851 C   0  0  0  0  0  0
  -25.2572  -13.8176   20.5695 C   0  0  0  0  0  0
  -24.1839  -13.0447   20.9213 C   0  0  0  0  0  0
  -24.6397  -11.6912   20.8753 C   0  0  0  0  0  0
  -23.9075  -10.4290   21.0408 C   0  0  0  0  0  0
  -24.3627   -9.4211   21.9188 C   0  0  0  0  0  0
  -23.6303   -8.2246   22.0757 C   0  0  0  0  0  0
  -22.4286   -8.0286   21.3545 C   0  0  0  0  0  0
  -21.9921   -9.0255   20.4649 C   0  0  0  0  0  0
  -22.7244  -10.2133   20.3064 C   0  0  0  0  0  0
  -21.6857   -6.0744   22.5279 C   0  0  0  0  0  0
  -21.4006   -6.5647   23.8210 C   0  0  0  0  0  0
  -21.3662   -5.6805   24.9179 C   0  0  0  0  0  0
  -21.6048   -4.3064   24.7227 C   0  0  0  0  0  0
  -21.8819   -3.8156   23.4348 C   0  0  0  0  0  0
  -21.9194   -4.6974   22.3402 C   0  0  0  0  0  0
  -22.7861  -13.5237   21.1868 C   0  0  0  0  0  0
  -22.1663   -4.2162   21.0978 F   0  0  0  0  0  0
  -21.5636   -3.4547   25.7736 F   0  0  0  0  0  0
  -30.0084  -13.4215   20.4054 N   0  0  0  0  0  0
  -26.2979  -12.9343   20.3318 N   0  0  0  0  0  0
  -25.9322  -11.6502   20.5786 N   0  0  0  0  0  0
  -22.0514  -12.8201   22.0407 N   0  0  0  0  0  0
  -25.4306  -15.1891   20.4067 N   0  0  0  0  0  0
  -31.8598  -14.7044   20.2209 O   0  0  0  0  0  0
  -21.6645   -6.8886   21.4240 O   0  0  0  0  0  0
  -22.3538  -14.5548   20.6729 O   0  0  0  0  0  0
  -24.6232  -31.8630   23.2076 C   0  0  0  0  0  0
  -25.9091  -32.4806   23.8388 C   0  0  1  0  0  0
  -27.2195  -27.3365   20.1213 C   0  0  0  0  0  0
  -25.5932  -33.8609   24.2304 N   0  0  0  0  0  0
  -23.4130  -30.4867   21.5522 C   0  0  2  0  0  0
  -24.8573  -28.9416   20.1210 C   0  0  0  0  0  0
  -22.7442  -29.4635   22.5002 C   0  0  0  0  0  0
  -18.0276  -28.1380   22.8503 C   0  0  0  0  0  0
  -24.1491  -36.7299   23.2635 C   0  0  0  0  0  0
  -25.9522  -30.7970   21.3759 C   0  0  0  0  0  0
  -26.0233  -29.4221   20.7288 C   0  0  0  0  0  0
  -27.2063  -28.6295   20.7238 C   0  0  0  0  0  0
  -26.0393  -26.9185   19.4687 C   0  0  0  0  0  0
  -24.8651  -27.6916   19.4837 C   0  0  0  0  0  0
  -23.6243  -29.8181   20.1686 C   0  0  0  0  0  0
  -25.4111  -36.3101   24.0337 C   0  0  1  0  0  0
  -20.5862  -28.3670   23.1319 C   0  0  2  0  0  0
  -20.6772  -26.9406   22.5417 C   0  0  0  0  0  0
  -19.5743  -26.6384   21.5221 C   0  0  0  0  0  0
  -18.1921  -26.7934   22.1627 C   0  0  0  0  0  0
  -19.1524  -28.8848   23.2907 C   0  0  0  0  0  0
  -18.9444  -30.1454   23.8923 C   0  0  0  0  0  0
  -17.6446  -30.6595   24.0565 C   0  0  0  0  0  0
  -25.9049  -34.9466   23.5108 C   0  0  0  0  0  0
  -16.5335  -29.9087   23.6333 C   0  0  0  0  0  0
  -16.7264  -28.6498   23.0368 C   0  0  0  0  0  0
  -26.4472  -31.6617   25.0751 C   0  0  0  0  0  0
  -25.3712  -31.3757   26.1484 C   0  0  0  0  0  0
  -27.0295  -30.3055   24.6167 C   0  0  0  0  0  0
  -27.6053  -32.4336   25.7505 C   0  0  0  0  0  0
  -27.5581  -37.1795   24.8459 C   0  0  0  0  0  0
  -21.4166  -29.3042   22.3744 N   0  0  0  0  0  0
  -26.4291  -37.3793   23.9416 N   0  0  0  0  0  0
  -24.6821  -31.0642   22.1033 N   0  0  0  0  0  0
  -23.4192  -28.8180   23.3067 O   0  0  0  0  0  0
  -28.3719  -26.5437   20.0937 O   0  0  0  0  0  0
  -26.5605  -34.8920   22.4666 O   0  0  0  0  0  0
  -23.5397  -32.1430   23.7403 O   0  0  0  0  0  0
  -30.5588  -19.9055   19.4785 C   0  0  0  0  0  0
  -31.1449  -18.8667   18.7346 C   0  0  0  0  0  0
  -29.4896  -18.2243   20.8710 C   0  0  0  0  0  0
  -29.6718  -19.6136   20.5323 C   0  0  0  0  0  0
  -30.1238  -17.1392   20.1670 C   0  0  0  0  0  0
  -30.9049  -17.5070   19.0282 C   0  0  0  0  0  0
  -29.8017  -24.5614   20.4477 C   0  0  0  0  0  0
  -27.5170  -24.1168   19.6884 C   0  0  0  0  0  0
  -29.9955  -23.1117   21.0094 C   0  0  0  0  0  0
  -28.3621  -25.1247   20.5195 C   0  0  2  0  0  0
  -27.8243  -22.5676   19.8010 C   0  0  1  0  0  0
  -26.9966  -22.0922   17.3986 C   0  0  0  0  0  0
  -28.9494  -20.7514   21.3356 C   0  0  0  0  0  0
  -28.1341  -21.9377   18.4213 C   0  0  0  0  0  0
  -29.8676  -15.7465   20.5643 N   0  0  0  0  0  0
  -28.8177  -22.2018   20.8644 N   0  3  1  0  0  0
  -31.5140  -16.3739   17.8682 Cl  0  0  0  0  0  0
  -31.4690  -12.4865   19.1467 H   0  0  0  0  0  0
  -30.3522  -11.3904   19.9153 H   0  0  0  0  0  0
  -29.7636  -11.7188   17.4882 H   0  0  0  0  0  0
  -29.6438  -13.4442   17.7282 H   0  0  0  0  0  0
  -27.8704  -11.2736   18.8913 H   0  0  0  0  0  0
  -27.3674  -12.5337   17.7974 H   0  0  0  0  0  0
  -27.6592  -14.2426   19.4943 H   0  0  0  0  0  0
  -28.7064  -12.1048   21.4143 H   0  0  0  0  0  0
  -28.4555  -13.7851   21.8050 H   0  0  0  0  0  0
  -25.2776   -9.5689   22.4755 H   0  0  0  0  0  0
  -24.0037   -7.4630   22.7451 H   0  0  0  0  0  0
  -21.0872   -8.8752   19.8928 H   0  0  0  0  0  0
  -22.3711  -10.9668   19.6170 H   0  0  0  0  0  0
  -21.1986   -7.6152   23.9717 H   0  0  0  0  0  0
  -21.1487   -6.0534   25.9081 H   0  0  0  0  0  0
  -22.0596   -2.7620   23.2840 H   0  0  0  0  0  0
  -22.4164  -11.9858   22.4761 H   0  0  0  0  0  0
  -21.1124  -13.1183   22.2610 H   0  0  0  0  0  0
  -24.6652  -15.8464   20.5129 H   0  0  0  0  0  0
  -26.2726  -15.6182   20.0444 H   0  0  0  0  0  0
  -26.7157  -32.5478   23.1137 H   0  0  0  0  0  0
  -25.0130  -33.9785   25.0477 H   0  0  0  0  0  0
  -22.7059  -31.3066   21.4100 H   0  0  0  0  0  0
  -23.3765  -35.9618   23.3288 H   0  0  0  0  0  0
  -24.3590  -36.8923   22.2052 H   0  0  0  0  0  0
  -23.7210  -37.6487   23.6655 H   0  0  0  0  0  0
  -26.0697  -31.5515   20.5977 H   0  0  0  0  0  0
  -26.8397  -30.8564   21.9947 H   0  0  0  0  0  0
  -28.1026  -28.9993   21.2003 H   0  0  0  0  0  0
  -26.0058  -26.0074   18.8972 H   0  0  0  0  0  0
  -23.9793  -27.3275   18.9816 H   0  0  0  0  0  0
  -23.7369  -30.5919   19.4090 H   0  0  0  0  0  0
  -22.7464  -29.2412   19.8716 H   0  0  0  0  0  0
  -25.1276  -36.1965   25.0832 H   0  0  0  0  0  0
  -20.9933  -28.3219   24.1442 H   0  0  0  0  0  0
  -20.5679  -26.2275   23.3602 H   0  0  0  0  0  0
  -21.6642  -26.7467   22.1184 H   0  0  0  0  0  0
  -19.6905  -25.6293   21.1257 H   0  0  0  0  0  0
  -19.6682  -27.3193   20.6750 H   0  0  0  0  0  0
  -17.4185  -26.6689   21.4033 H   0  0  0  0  0  0
  -18.0322  -26.0071   22.9021 H   0  0  0  0  0  0
  -19.7917  -30.7268   24.2304 H   0  0  0  0  0  0
  -17.4993  -31.6281   24.5145 H   0  0  0  0  0  0
  -15.5333  -30.2987   23.7659 H   0  0  0  0  0  0
  -15.8662  -28.0818   22.7083 H   0  0  0  0  0  0
  -24.5872  -30.7125   25.7804 H   0  0  0  0  0  0
  -24.8920  -32.2934   26.4919 H   0  0  0  0  0  0
  -25.8032  -30.8917   27.0251 H   0  0  0  0  0  0
  -26.2855  -29.6842   24.1177 H   0  0  0  0  0  0
  -27.3991  -29.7277   25.4643 H   0  0  0  0  0  0
  -27.8728  -30.4365   23.9383 H   0  0  0  0  0  0
  -27.2695  -33.3644   26.2086 H   0  0  0  0  0  0
  -28.3863  -32.6878   25.0328 H   0  0  0  0  0  0
  -28.0724  -31.8460   26.5417 H   0  0  0  0  0  0
  -28.2575  -38.0117   24.7542 H   0  0  0  0  0  0
  -28.1096  -36.2645   24.6234 H   0  0  0  0  0  0
  -27.2313  -37.1389   25.8865 H   0  0  0  0  0  0
  -20.9338  -29.8789   21.6982 H   0  0  0  0  0  0
  -26.0176  -38.2866   24.1438 H   0  0  0  0  0  0
  -30.7629  -20.9243   19.1860 H   0  0  0  0  0  0
  -31.7673  -19.1214   17.8879 H   0  0  0  0  0  0
  -28.8379  -17.9859   21.6993 H   0  0  0  0  0  0
  -30.1219  -24.5710   19.4045 H   0  0  0  0  0  0
  -30.4859  -25.2344   20.9664 H   0  0  0  0  0  0
  -27.6261  -24.4243   18.6492 H   0  0  0  0  0  0
  -26.4638  -24.2441   19.9334 H   0  0  0  0  0  0
  -30.2081  -23.1823   22.0759 H   0  0  0  0  0  0
  -30.8824  -22.6698   20.5580 H   0  0  0  0  0  0
  -28.0291  -25.0998   21.5585 H   0  0  0  0  0  0
  -26.8958  -22.1048   20.1395 H   0  0  0  0  0  0
  -26.8756  -23.1202   17.0565 H   0  0  0  0  0  0
  -26.0453  -21.7660   17.8220 H   0  0  0  0  0  0
  -27.1895  -21.4833   16.5153 H   0  0  0  0  0  0
  -29.4330  -20.7778   22.3123 H   0  0  0  0  0  0
  -27.9362  -20.4007   21.5359 H   0  0  0  0  0  0
  -28.2896  -20.8676   18.5357 H   0  0  0  0  0  0
  -29.0590  -22.3460   18.0136 H   0  0  0  0  0  0
  -28.9347  -15.5596   20.8963 H   0  0  0  0  0  0
  -28.2878  -22.5254   21.6612 H   0  0  0  0  0  0
  1 25  1  0  0  0
  1 30  2  0  0  0
  1 85  1  0  0  0
  2  3  1  0  0  0
  2 25  1  0  0  0
  2 88  1  0  0  0
  2 89  1  0  0  0
  3  4  1  0  0  0
  3 90  1  0  0  0
  3 91  1  0  0  0
  4  5  1  0  0  0
  4 92  1  0  0  0
  4 93  1  0  0  0
  5  6  1  0  0  0
  5 26  1  0  0  0
  5 94  1  0  0  0
  6 25  1  0  0  0
  6 95  1  0  0  0
  6 96  1  0  0  0
  7  8  2  0  0  0
  7 26  1  0  0  0
  7 29  1  0  0  0
  8  9  1  0  0  0
  8 22  1  0  0  0
  9 10  1  0  0  0
  9 27  2  0  0  0
 10 11  2  0  0  0
 10 15  1  0  0  0
 11 12  1  0  0  0
 11 97  1  0  0  0
 12 13  2  0  0  0
 12 98  1  0  0  0
 13 14  1  0  0  0
 13 31  1  0  0  0
 14 15  2  0  0  0
 14 99  1  0  0  0
 15100  1  0  0  0
 16 17  2  0  0  0
 16 21  1  0  0  0
 16 31  1  0  0  0
 17 18  1  0  0  0
 17101  1  0  0  0
 18 19  2  0  0  0
 18102  1  0  0  0
 19 20  1  0  0  0
 19 24  1  0  0  0
 20 21  2  0  0  0
 20103  1  0  0  0
 21 23  1  0  0  0
 22 28  1  0  0  0
 22 32  2  0  0  0
 26 27  1  0  0  0
 28104  1  0  0  0
 28105  1  0  0  0
 29106  1  0  0  0
 29107  1  0  0  0
 33 34  1  0  0  0
 33 66  1  0  0  0
 33 70  2  0  0  0
 34 36  1  0  0  0
 34 59  1  0  0  0
 34108  1  0  0  0
 35 44  2  0  0  0
 35 45  1  0  0  0
 35 68  1  0  0  0
 36 56  1  0  0  0
 36109  1  0  0  0
 37 39  1  0  0  0
 37 47  1  0  0  0
 37 66  1  0  0  0
 37110  1  0  0  0
 38 43  2  0  0  0
 38 46  1  0  0  0
 38 47  1  0  0  0
 39 64  1  0  0  0
 39 67  2  0  0  0
 40 52  1  0  0  0
 40 53  2  0  0  0
 40 58  1  0  0  0
 41111  1  0  0  0
 41112  1  0  0  0
 41113  1  0  0  0
 41 48  1  0  0  0
 42 43  1  0  0  0
 42 66  1  0  0  0
 42114  1  0  0  0
 42115  1  0  0  0
 43 44  1  0  0  0
 44116  1  0  0  0
 45 46  2  0  0  0
 45117  1  0  0  0
 46118  1  0  0  0
 47119  1  0  0  0
 47120  1  0  0  0
 48 56  1  0  0  0
 48 65  1  0  0  0
 48121  1  0  0  0
 49 50  1  0  0  0
 49 53  1  0  0  0
 49 64  1  0  0  0
 49122  1  0  0  0
 50 51  1  0  0  0
 50123  1  0  0  0
 50124  1  0  0  0
 51 52  1  0  0  0
 51125  1  0  0  0
 51126  1  0  0  0
 52127  1  0  0  0
 52128  1  0  0  0
 53 54  1  0  0  0
 54 55  2  0  0  0
 54129  1  0  0  0
 55 57  1  0  0  0
 55130  1  0  0  0
 56 69  2  0  0  0
 57 58  2  0  0  0
 57131  1  0  0  0
 58132  1  0  0  0
 59 60  1  0  0  0
 59 61  1  0  0  0
 59 62  1  0  0  0
 60133  1  0  0  0
 60134  1  0  0  0
 60135  1  0  0  0
 61136  1  0  0  0
 61137  1  0  0  0
 61138  1  0  0  0
 62139  1  0  0  0
 62140  1  0  0  0
 62141  1  0  0  0
 63 65  1  0  0  0
 63142  1  0  0  0
 63143  1  0  0  0
 63144  1  0  0  0
 64145  1  0  0  0
 65146  1  0  0  0
 68 80  1  0  0  0
 71 72  2  0  0  0
 71 74  1  0  0  0
 71147  1  0  0  0
 72 76  1  0  0  0
 72148  1  0  0  0
 73 74  2  0  0  0
 73 75  1  0  0  0
 73149  1  0  0  0
 74 83  1  0  0  0
 75 76  2  0  0  0
 75 85  1  0  0  0
 76 87  1  0  0  0
 77 79  1  0  0  0
 77 80  1  0  0  0
 77150  1  0  0  0
 77151  1  0  0  0
 78 80  1  0  0  0
 78 81  1  0  0  0
 78152  1  0  0  0
 78153  1  0  0  0
 79 86  1  0  0  0
 79154  1  0  0  0
 79155  1  0  0  0
 80156  1  0  0  0
 81 84  1  0  0  0
 81 86  1  0  0  0
 81157  1  0  0  0
 82 84  1  0  0  0
 82158  1  0  0  0
 82159  1  0  0  0
 82160  1  0  0  0
 83161  1  0  0  0
 83162  1  0  0  0
 83 86  1  0  0  0
 84163  1  0  0  0
 84164  1  0  0  0
 85165  1  0  0  0
 86166  1  0  0  0
M  CHG  1  86   1
M  ISO  4   1 100  68 101  80 101  85 100
M  END
> <chiral flag>
0

> <version>
0

> <s_m_source_file>
/data/baiqing/PycharmProjects/Reinvent-master-3.2/result/LINK_invent/BTK/process_docking_weight1_custom_product_contain_oxygen_bond_distance_aromatic_linkinvent_7_9_3/rearranged_h_0034.sdf

> <i_m_source_file_index>
62

> <r_mmod_Potential_Energy-OPLS-2005>
41.7909851074219

> <r_mmod_Stretch_Energy-OPLS-2005>
78.8091735839844

> <r_mmod_Bend_Energy-OPLS-2005>
187.531188964844

> <r_mmod_Torsional_Energy-OPLS-2005>
313.081268310547

> <r_mmod_Improper_Torsional_Energy-OPLS-2005>
5.23059701919556

> <r_mmod_Van_der_Waal_Energy-OPLS-2005>
149.350204467773

> <r_mmod_Electrostatic_Energy-OPLS-2005>
-268.219085693359

> <r_mmod_Solvation_Energy-OPLS-2005>
-468.685577392578

> <b_mmod_Minimization_Converged-OPLS-2005>
0

> <r_mmod_RMS_Derivative-OPLS-2005>
2.26958441734314

$$$$
62
                    3D
 Structure written by MMmdl.
163172  0  0  1  0            999 V2000
  -30.5400  -14.6806   20.4854 C   0  0  0  0  0  0
  -30.4524  -12.4024   19.4794 C   0  0  0  0  0  0
  -29.5357  -12.4897   18.2385 C   0  0  0  0  0  0
  -28.0462  -12.3512   18.6234 C   0  0  0  0  0  0
  -27.6520  -13.2143   19.8541 C   0  0  2  0  0  0
  -28.6823  -13.0460   20.9911 C   0  0  0  0  0  0
  -25.2538  -13.8157   20.5592 C   0  0  0  0  0  0
  -24.1811  -13.0440   20.9183 C   0  0  0  0  0  0
  -24.6376  -11.6925   20.8735 C   0  0  0  0  0  0
  -23.9046  -10.4313   21.0408 C   0  0  0  0  0  0
  -24.3598   -9.4226   21.9173 C   0  0  0  0  0  0
  -23.6284   -8.2267   22.0737 C   0  0  0  0  0  0
  -22.4272   -8.0288   21.3538 C   0  0  0  0  0  0
  -21.9886   -9.0268   20.4663 C   0  0  0  0  0  0
  -22.7213  -10.2143   20.3071 C   0  0  0  0  0  0
  -21.6852   -6.0730   22.5282 C   0  0  0  0  0  0
  -21.4033   -6.5626   23.8222 C   0  0  0  0  0  0
  -21.3659   -5.6774   24.9180 C   0  0  0  0  0  0
  -21.6040   -4.3039   24.7224 C   0  0  0  0  0  0
  -21.8813   -3.8134   23.4348 C   0  0  0  0  0  0
  -21.9196   -4.6956   22.3406 C   0  0  0  0  0  0
  -22.7831  -13.5232   21.1845 C   0  0  0  0  0  0
  -22.1649   -4.2159   21.0982 F   0  0  0  0  0  0
  -21.5621   -3.4507   25.7716 F   0  0  0  0  0  0
  -29.9945  -13.4213   20.4435 N   0  0  0  0  0  0
  -26.2961  -12.9345   20.3200 N   0  0  0  0  0  0
  -25.9288  -11.6510   20.5697 N   0  0  0  0  0  0
  -22.0427  -12.8317   22.0427 N   0  0  0  0  0  0
  -25.4186  -15.1878   20.3932 N   0  0  0  0  0  0
  -31.7002  -14.8873   20.1201 O   0  0  0  0  0  0
  -21.6644   -6.8878   21.4244 O   0  0  0  0  0  0
  -22.3564  -14.5520   20.6635 O   0  0  0  0  0  0
  -24.6182  -31.8607   23.2072 C   0  0  0  0  0  0
  -25.9017  -32.4789   23.8390 C   0  0  1  0  0  0
  -27.2548  -27.3417   20.1291 C   0  0  0  0  0  0
  -25.5806  -33.8604   24.2268 N   0  0  0  0  0  0
  -23.4183  -30.4798   21.5457 C   0  0  2  0  0  0
  -24.8729  -28.9241   20.1257 C   0  0  0  0  0  0
  -22.7467  -29.4603   22.4948 C   0  0  0  0  0  0
  -18.0266  -28.1409   22.8479 C   0  0  0  0  0  0
  -24.1469  -36.7324   23.2662 C   0  0  0  0  0  0
  -25.9585  -30.7934   21.3844 C   0  0  0  0  0  0
  -26.0375  -29.4220   20.7227 C   0  0  0  0  0  0
  -27.2301  -28.6453   20.7072 C   0  0  0  0  0  0
  -26.0663  -26.8777   19.5254 C   0  0  0  0  0  0
  -24.8874  -27.6539   19.5215 C   0  0  0  0  0  0
  -23.6398  -29.8039   20.1662 C   0  0  0  0  0  0
  -25.4103  -36.3109   24.0338 C   0  0  1  0  0  0
  -20.5863  -28.3680   23.1293 C   0  0  2  0  0  0
  -20.6752  -26.9407   22.5421 C   0  0  0  0  0  0
  -19.5734  -26.6406   21.5211 C   0  0  0  0  0  0
  -18.1909  -26.7961   22.1614 C   0  0  0  0  0  0
  -19.1533  -28.8869   23.2877 C   0  0  0  0  0  0
  -18.9456  -30.1463   23.8891 C   0  0  0  0  0  0
  -17.6464  -30.6593   24.0578 C   0  0  0  0  0  0
  -25.9005  -34.9467   23.5122 C   0  0  0  0  0  0
  -16.5341  -29.9098   23.6351 C   0  0  0  0  0  0
  -16.7260  -28.6534   23.0337 C   0  0  0  0  0  0
  -26.4420  -31.6644   25.0798 C   0  0  0  0  0  0
  -25.3668  -31.3789   26.1555 C   0  0  0  0  0  0
  -27.0329  -30.3079   24.6333 C   0  0  0  0  0  0
  -27.5980  -32.4452   25.7486 C   0  0  0  0  0  0
  -27.5581  -37.1834   24.8455 C   0  0  0  0  0  0
  -21.4185  -29.3021   22.3687 N   0  0  0  0  0  0
  -26.4293  -37.3795   23.9382 N   0  0  0  0  0  0
  -24.6828  -31.0629   22.1002 N   0  0  0  0  0  0
  -23.4181  -28.8134   23.3035 O   0  0  0  0  0  0
  -28.4173  -26.5675   20.0828 O   0  0  0  0  0  0
  -26.5651  -34.8934   22.4732 O   0  0  0  0  0  0
  -23.5346  -32.1381   23.7394 O   0  0  0  0  0  0
  -29.1573  -17.9598   21.7119 C   0  0  0  0  0  0
  -29.3277  -19.1718   19.2212 C   0  0  0  0  0  0
  -28.8328  -19.3471   21.5674 C   0  0  0  0  0  0
  -28.8833  -19.9937   20.2972 C   0  0  0  0  0  0
  -29.5758  -17.1296   20.6373 C   0  0  0  0  0  0
  -29.6617  -17.7847   19.3730 C   0  0  0  0  0  0
  -29.7969  -23.7844   22.2393 C   0  0  0  0  0  0
  -29.5944  -25.1831   21.6361 C   0  0  0  0  0  0
  -30.2057  -22.7673   21.1506 C   0  0  0  0  0  0
  -28.6767  -24.0191   19.5542 C   0  0  0  0  0  0
  -28.4423  -25.1870   20.6125 C   0  0  2  0  0  0
  -28.3832  -20.1094   22.8085 C   0  0  0  0  0  0
  -28.3088  -21.4583   20.0539 C   0  0  0  0  0  0
  -29.6658  -15.6771   20.8607 N   0  0  0  0  0  0
  -29.2297  -22.6674   20.0353 N   0  3  2  0  0  0
  -30.0724  -16.8934   17.9512 Cl  0  0  0  0  0  0
  -31.4968  -12.5514   19.2016 H   0  0  0  0  0  0
  -30.3969  -11.4087   19.9278 H   0  0  0  0  0  0
  -29.8094  -11.7076   17.5299 H   0  0  0  0  0  0
  -29.7012  -13.4396   17.7284 H   0  0  0  0  0  0
  -27.8574  -11.2983   18.8347 H   0  0  0  0  0  0
  -27.4203  -12.6034   17.7639 H   0  0  0  0  0  0
  -27.6688  -14.2561   19.5231 H   0  0  0  0  0  0
  -28.6982  -12.0107   21.3363 H   0  0  0  0  0  0
  -28.4064  -13.6419   21.8637 H   0  0  0  0  0  0
  -25.2749   -9.5699   22.4748 H   0  0  0  0  0  0
  -23.9991   -7.4660   22.7438 H   0  0  0  0  0  0
  -21.0806   -8.8783   19.9000 H   0  0  0  0  0  0
  -22.3654  -10.9662   19.6191 H   0  0  0  0  0  0
  -21.2033   -7.6142   23.9727 H   0  0  0  0  0  0
  -21.1479   -6.0511   25.9090 H   0  0  0  0  0  0
  -22.0593   -2.7610   23.2839 H   0  0  0  0  0  0
  -22.3973  -12.0045   22.4987 H   0  0  0  0  0  0
  -21.1032  -13.1427   22.2504 H   0  0  0  0  0  0
  -24.6290  -15.8195   20.4716 H   0  0  0  0  0  0
  -26.2407  -15.6261   19.9986 H   0  0  0  0  0  0
  -26.7083  -32.5457   23.1140 H   0  0  0  0  0  0
  -24.9810  -33.9742   25.0318 H   0  0  0  0  0  0
  -22.7101  -31.2987   21.3974 H   0  0  0  0  0  0
  -23.3739  -35.9650   23.3330 H   0  0  0  0  0  0
  -24.3521  -36.8943   22.2068 H   0  0  0  0  0  0
  -23.7236  -37.6537   23.6684 H   0  0  0  0  0  0
  -26.1129  -31.5689   20.6334 H   0  0  0  0  0  0
  -26.8281  -30.8227   22.0311 H   0  0  0  0  0  0
  -28.1311  -29.0408   21.1545 H   0  0  0  0  0  0
  -26.0551  -25.9158   19.0357 H   0  0  0  0  0  0
  -23.9924  -27.2634   19.0542 H   0  0  0  0  0  0
  -23.7655  -30.5747   19.4070 H   0  0  0  0  0  0
  -22.7624  -29.2319   19.8586 H   0  0  0  0  0  0
  -25.1313  -36.1981   25.0842 H   0  0  0  0  0  0
  -20.9934  -28.3257   24.1419 H   0  0  0  0  0  0
  -20.5636  -26.2286   23.3612 H   0  0  0  0  0  0
  -21.6618  -26.7438   22.1217 H   0  0  0  0  0  0
  -19.6861  -25.6320   21.1226 H   0  0  0  0  0  0
  -19.6684  -27.3237   20.6758 H   0  0  0  0  0  0
  -17.4187  -26.6717   21.4005 H   0  0  0  0  0  0
  -18.0285  -26.0110   22.9014 H   0  0  0  0  0  0
  -19.7926  -30.7293   24.2244 H   0  0  0  0  0  0
  -17.5007  -31.6257   24.5209 H   0  0  0  0  0  0
  -15.5337  -30.2989   23.7699 H   0  0  0  0  0  0
  -15.8651  -28.0862   22.7024 H   0  0  0  0  0  0
  -24.5701  -30.7327   25.7855 H   0  0  0  0  0  0
  -24.9078  -32.2996   26.5173 H   0  0  0  0  0  0
  -25.7964  -30.8766   27.0224 H   0  0  0  0  0  0
  -26.3002  -29.6863   24.1192 H   0  0  0  0  0  0
  -27.3827  -29.7330   25.4921 H   0  0  0  0  0  0
  -27.8923  -30.4387   23.9760 H   0  0  0  0  0  0
  -27.2550  -33.3712   26.2120 H   0  0  0  0  0  0
  -28.3654  -32.7129   25.0214 H   0  0  0  0  0  0
  -28.0793  -31.8606   26.5334 H   0  0  0  0  0  0
  -28.2619  -38.0116   24.7475 H   0  0  0  0  0  0
  -28.1061  -36.2649   24.6310 H   0  0  0  0  0  0
  -27.2291  -37.1498   25.8859 H   0  0  0  0  0  0
  -20.9358  -29.8727   21.6892 H   0  0  0  0  0  0
  -26.0191  -38.2875   24.1395 H   0  0  0  0  0  0
  -29.0381  -17.5007   22.6852 H   0  0  0  0  0  0
  -29.3529  -19.5938   18.2245 H   0  0  0  0  0  0
  -28.8869  -23.4650   22.7468 H   0  0  0  0  0  0
  -30.5721  -23.8192   23.0074 H   0  0  0  0  0  0
  -30.5223  -25.5055   21.1626 H   0  0  0  0  0  0
  -29.4007  -25.9110   22.4245 H   0  0  0  0  0  0
  -30.4137  -21.7927   21.5870 H   0  0  0  0  0  0
  -31.1553  -23.0760   20.7153 H   0  0  0  0  0  0
  -29.4237  -24.3956   18.8538 H   0  0  0  0  0  0
  -27.7747  -23.8832   18.9606 H   0  0  0  0  0  0
  -27.5161  -24.9814   21.1532 H   0  0  0  0  0  0
  -28.6348  -19.5620   23.7161 H   0  0  0  0  0  0
  -27.3064  -20.2844   22.8127 H   0  0  0  0  0  0
  -28.8830  -21.0712   22.8910 H   0  0  0  0  0  0
  -27.5026  -21.6544   20.7588 H   0  0  0  0  0  0
  -27.8155  -21.4410   19.0778 H   0  0  0  0  0  0
  -28.8384  -15.2878   21.2846 H   0  0  0  0  0  0
  -29.8182  -22.3913   19.2622 H   0  0  0  0  0  0
  1 25  1  0  0  0
  1 30  2  0  0  0
  1 84  1  0  0  0
  2  3  1  0  0  0
  2 25  1  0  0  0
  2 87  1  0  0  0
  2 88  1  0  0  0
  3  4  1  0  0  0
  3 89  1  0  0  0
  3 90  1  0  0  0
  4  5  1  0  0  0
  4 91  1  0  0  0
  4 92  1  0  0  0
  5  6  1  0  0  0
  5 26  1  0  0  0
  5 93  1  0  0  0
  6 25  1  0  0  0
  6 94  1  0  0  0
  6 95  1  0  0  0
  7  8  2  0  0  0
  7 26  1  0  0  0
  7 29  1  0  0  0
  8  9  1  0  0  0
  8 22  1  0  0  0
  9 10  1  0  0  0
  9 27  2  0  0  0
 10 11  2  0  0  0
 10 15  1  0  0  0
 11 12  1  0  0  0
 11 96  1  0  0  0
 12 13  2  0  0  0
 12 97  1  0  0  0
 13 14  1  0  0  0
 13 31  1  0  0  0
 14 15  2  0  0  0
 14 98  1  0  0  0
 15 99  1  0  0  0
 16 17  2  0  0  0
 16 21  1  0  0  0
 16 31  1  0  0  0
 17 18  1  0  0  0
 17100  1  0  0  0
 18 19  2  0  0  0
 18101  1  0  0  0
 19 20  1  0  0  0
 19 24  1  0  0  0
 20 21  2  0  0  0
 20102  1  0  0  0
 21 23  1  0  0  0
 22 28  1  0  0  0
 22 32  2  0  0  0
 26 27  1  0  0  0
 28103  1  0  0  0
 28104  1  0  0  0
 29105  1  0  0  0
 29106  1  0  0  0
 33 34  1  0  0  0
 33 66  1  0  0  0
 33 70  2  0  0  0
 34 36  1  0  0  0
 34 59  1  0  0  0
 34107  1  0  0  0
 35 44  2  0  0  0
 35 45  1  0  0  0
 35 68  1  0  0  0
 36 56  1  0  0  0
 36108  1  0  0  0
 37 39  1  0  0  0
 37 47  1  0  0  0
 37 66  1  0  0  0
 37109  1  0  0  0
 38 43  2  0  0  0
 38 46  1  0  0  0
 38 47  1  0  0  0
 39 64  1  0  0  0
 39 67  2  0  0  0
 40 52  1  0  0  0
 40 53  2  0  0  0
 40 58  1  0  0  0
 41110  1  0  0  0
 41111  1  0  0  0
 41112  1  0  0  0
 41 48  1  0  0  0
 42 43  1  0  0  0
 42 66  1  0  0  0
 42113  1  0  0  0
 42114  1  0  0  0
 43 44  1  0  0  0
 44115  1  0  0  0
 45 46  2  0  0  0
 45116  1  0  0  0
 46117  1  0  0  0
 47118  1  0  0  0
 47119  1  0  0  0
 48 56  1  0  0  0
 48 65  1  0  0  0
 48120  1  0  0  0
 49 50  1  0  0  0
 49 53  1  0  0  0
 49 64  1  0  0  0
 49121  1  0  0  0
 50 51  1  0  0  0
 50122  1  0  0  0
 50123  1  0  0  0
 51 52  1  0  0  0
 51124  1  0  0  0
 51125  1  0  0  0
 52126  1  0  0  0
 52127  1  0  0  0
 53 54  1  0  0  0
 54 55  2  0  0  0
 54128  1  0  0  0
 55 57  1  0  0  0
 55129  1  0  0  0
 56 69  2  0  0  0
 57 58  2  0  0  0
 57130  1  0  0  0
 58131  1  0  0  0
 59 60  1  0  0  0
 59 61  1  0  0  0
 59 62  1  0  0  0
 60132  1  0  0  0
 60133  1  0  0  0
 60134  1  0  0  0
 61135  1  0  0  0
 61136  1  0  0  0
 61137  1  0  0  0
 62138  1  0  0  0
 62139  1  0  0  0
 62140  1  0  0  0
 63 65  1  0  0  0
 63141  1  0  0  0
 63142  1  0  0  0
 63143  1  0  0  0
 64144  1  0  0  0
 65145  1  0  0  0
 68 81  1  0  0  0
 71 73  2  0  0  0
 71 75  1  0  0  0
 71146  1  0  0  0
 72 74  2  0  0  0
 72 76  1  0  0  0
 72147  1  0  0  0
 73 74  1  0  0  0
 73 82  1  0  0  0
 74 83  1  0  0  0
 75 76  2  0  0  0
 75 84  1  0  0  0
 76 86  1  0  0  0
 77 78  1  0  0  0
 77 79  1  0  0  0
 77148  1  0  0  0
 77149  1  0  0  0
 78 81  1  0  0  0
 78150  1  0  0  0
 78151  1  0  0  0
 79 85  1  0  0  0
 79152  1  0  0  0
 79153  1  0  0  0
 80 81  1  0  0  0
 80 85  1  0  0  0
 80154  1  0  0  0
 80155  1  0  0  0
 81156  1  0  0  0
 82157  1  0  0  0
 82158  1  0  0  0
 82159  1  0  0  0
 83160  1  0  0  0
 83161  1  0  0  0
 83 85  1  0  0  0
 84162  1  0  0  0
 85163  1  0  0  0
M  CHG  1  85   1
M  ISO  4   1 100  68 101  81 101  84 100
M  END
> <chiral flag>
0

> <version>
0

> <s_m_source_file>
/data/baiqing/PycharmProjects/Reinvent-master-3.2/result/LINK_invent/BTK/process_docking_weight1_custom_product_contain_oxygen_bond_distance_aromatic_linkinvent_7_9_3/rearranged_h_0034.sdf

> <i_m_source_file_index>
63

> <r_mmod_Potential_Energy-OPLS-2005>
25.5396823883057

> <r_mmod_Stretch_Energy-OPLS-2005>
87.6396713256836

> <r_mmod_Bend_Energy-OPLS-2005>
166.813415527344

> <r_mmod_Torsional_Energy-OPLS-2005>
288.530334472656

> <r_mmod_Improper_Torsional_Energy-OPLS-2005>
5.78731346130371

> <r_mmod_Van_der_Waal_Energy-OPLS-2005>
132.951248168945

> <r_mmod_Electrostatic_Energy-OPLS-2005>
-267.674774169922

> <r_mmod_Solvation_Energy-OPLS-2005>
-440.357727050781

> <b_mmod_Minimization_Converged-OPLS-2005>
0

> <r_mmod_RMS_Derivative-OPLS-2005>
5.13256168365479

$$$$
63
                    3D
 Structure written by MMmdl.
166175  0  0  1  0            999 V2000
  -30.6029  -14.7147   20.4676 C   0  0  0  0  0  0
  -30.4284  -12.4357   19.4708 C   0  0  0  0  0  0
  -29.5080  -12.5232   18.2319 C   0  0  0  0  0  0
  -28.0299  -12.3617   18.6356 C   0  0  0  0  0  0
  -27.6471  -13.2287   19.8643 C   0  0  2  0  0  0
  -28.6925  -13.1238   20.9983 C   0  0  0  0  0  0
  -25.2540  -13.8193   20.5665 C   0  0  0  0  0  0
  -24.1807  -13.0458   20.9165 C   0  0  0  0  0  0
  -24.6368  -11.6924   20.8677 C   0  0  0  0  0  0
  -23.9005  -10.4324   21.0364 C   0  0  0  0  0  0
  -24.3585   -9.4266   21.9157 C   0  0  0  0  0  0
  -23.6276   -8.2290   22.0731 C   0  0  0  0  0  0
  -22.4276   -8.0282   21.3525 C   0  0  0  0  0  0
  -21.9874   -9.0228   20.4627 C   0  0  0  0  0  0
  -22.7168  -10.2137   20.3021 C   0  0  0  0  0  0
  -21.6858   -6.0737   22.5275 C   0  0  0  0  0  0
  -21.4027   -6.5636   23.8212 C   0  0  0  0  0  0
  -21.3688   -5.6799   24.9169 C   0  0  0  0  0  0
  -21.6051   -4.3054   24.7223 C   0  0  0  0  0  0
  -21.8803   -3.8146   23.4333 C   0  0  0  0  0  0
  -21.9205   -4.6958   22.3399 C   0  0  0  0  0  0
  -22.7848  -13.5252   21.1840 C   0  0  0  0  0  0
  -22.1652   -4.2153   21.0963 F   0  0  0  0  0  0
  -21.5642   -3.4543   25.7728 F   0  0  0  0  0  0
  -30.0008  -13.4782   20.4339 N   0  0  0  0  0  0
  -26.2957  -12.9375   20.3322 N   0  0  0  0  0  0
  -25.9305  -11.6524   20.5739 N   0  0  0  0  0  0
  -22.0494  -12.8242   22.0397 N   0  0  0  0  0  0
  -25.4302  -15.1913   20.4092 N   0  0  0  0  0  0
  -31.7538  -14.8544   20.0425 O   0  0  0  0  0  0
  -21.6648   -6.8860   21.4242 O   0  0  0  0  0  0
  -22.3552  -14.5579   20.6707 O   0  0  0  0  0  0
  -24.6324  -31.8549   23.1952 C   0  0  0  0  0  0
  -25.9158  -32.4748   23.8283 C   0  0  1  0  0  0
  -27.2150  -27.2500   20.1164 C   0  0  0  0  0  0
  -25.5971  -33.8552   24.2216 N   0  0  0  0  0  0
  -23.4283  -30.4759   21.5387 C   0  0  2  0  0  0
  -24.8735  -28.9233   20.1052 C   0  0  0  0  0  0
  -22.7505  -29.4598   22.4892 C   0  0  0  0  0  0
  -18.0320  -28.1388   22.8470 C   0  0  0  0  0  0
  -24.1526  -36.7296   23.2643 C   0  0  0  0  0  0
  -25.9753  -30.7586   21.3804 C   0  0  0  0  0  0
  -26.0441  -29.3832   20.7178 C   0  0  0  0  0  0
  -27.2149  -28.5601   20.7114 C   0  0  0  0  0  0
  -26.0140  -26.8568   19.4833 C   0  0  0  0  0  0
  -24.8647  -27.6712   19.4757 C   0  0  0  0  0  0
  -23.6461  -29.8098   20.1536 C   0  0  0  0  0  0
  -25.4152  -36.3060   24.0314 C   0  0  1  0  0  0
  -20.5911  -28.3707   23.1275 C   0  0  2  0  0  0
  -20.6830  -26.9429   22.5405 C   0  0  0  0  0  0
  -19.5799  -26.6367   21.5229 C   0  0  0  0  0  0
  -18.1970  -26.7926   22.1608 C   0  0  0  0  0  0
  -19.1564  -28.8870   23.2875 C   0  0  0  0  0  0
  -18.9483  -30.1473   23.8891 C   0  0  0  0  0  0
  -17.6486  -30.6592   24.0560 C   0  0  0  0  0  0
  -25.9082  -34.9438   23.5062 C   0  0  0  0  0  0
  -16.5380  -29.9082   23.6336 C   0  0  0  0  0  0
  -16.7303  -28.6503   23.0334 C   0  0  0  0  0  0
  -26.4507  -31.6612   25.0701 C   0  0  0  0  0  0
  -25.3690  -31.3776   26.1389 C   0  0  0  0  0  0
  -27.0374  -30.3038   24.6218 C   0  0  0  0  0  0
  -27.6040  -32.4385   25.7458 C   0  0  0  0  0  0
  -27.5605  -37.1807   24.8462 C   0  0  0  0  0  0
  -21.4211  -29.3060   22.3659 N   0  0  0  0  0  0
  -26.4327  -37.3751   23.9395 N   0  0  0  0  0  0
  -24.6975  -31.0492   22.0942 N   0  0  0  0  0  0
  -23.4216  -28.8138   23.2989 O   0  0  0  0  0  0
  -28.3331  -26.3840   20.2056 O   0  0  0  0  0  0
  -26.5624  -34.8908   22.4612 O   0  0  0  0  0  0
  -23.5479  -32.1366   23.7254 O   0  0  0  0  0  0
  -29.5050  -18.4024   20.6873 C   0  0  0  0  0  0
  -29.1119  -16.9241   18.8102 C   0  0  0  0  0  0
  -28.9622  -19.5580   19.9840 C   0  0  0  0  0  0
  -28.5441  -17.9971   18.0886 C   0  0  0  0  0  0
  -28.3954  -19.2851   18.6972 C   0  0  0  0  0  0
  -29.5563  -17.0601   20.1365 C   0  0  0  0  0  0
  -29.8929  -23.6650   18.0297 C   0  0  0  0  0  0
  -29.6647  -25.0111   18.7459 C   0  0  0  0  0  0
  -30.0729  -22.4997   19.0228 C   0  0  0  0  0  0
  -28.5323  -23.6687   20.5804 C   0  0  0  0  0  0
  -28.4119  -24.9865   19.6401 C   0  0  1  0  0  0
  -27.5537  -20.3428   17.9820 C   0  0  0  0  0  0
  -28.8867  -21.0141   20.6754 C   0  0  0  0  0  0
  -28.0499  -17.6950   16.6634 C   0  0  0  0  0  0
  -29.8602  -15.8120   20.8740 N   0  0  0  0  0  0
  -28.8615  -22.3320   19.8652 N   0  3  2  0  0  0
  -28.5618  -16.5550   16.1906 F   0  0  0  0  0  0
  -26.7212  -17.5738   16.6434 F   0  0  0  0  0  0
  -28.4095  -18.6635   15.8192 F   0  0  0  0  0  0
  -31.4707  -12.5552   19.1715 H   0  0  0  0  0  0
  -30.3631  -11.4461   19.9258 H   0  0  0  0  0  0
  -29.7797  -11.7606   17.5030 H   0  0  0  0  0  0
  -29.6544  -13.4808   17.7315 H   0  0  0  0  0  0
  -27.8613  -11.3078   18.8567 H   0  0  0  0  0  0
  -27.3759  -12.6005   17.7953 H   0  0  0  0  0  0
  -27.6530  -14.2603   19.5149 H   0  0  0  0  0  0
  -28.7235  -12.1110   21.4032 H   0  0  0  0  0  0
  -28.4310  -13.7750   21.8326 H   0  0  0  0  0  0
  -25.2726   -9.5778   22.4738 H   0  0  0  0  0  0
  -24.0019   -7.4690   22.7426 H   0  0  0  0  0  0
  -21.0805   -8.8660   19.8939 H   0  0  0  0  0  0
  -22.3547  -10.9631   19.6120 H   0  0  0  0  0  0
  -21.2011   -7.6144   23.9714 H   0  0  0  0  0  0
  -21.1537   -6.0522   25.9070 H   0  0  0  0  0  0
  -22.0569   -2.7601   23.2817 H   0  0  0  0  0  0
  -22.4103  -11.9852   22.4684 H   0  0  0  0  0  0
  -21.1123  -13.1249   22.2651 H   0  0  0  0  0  0
  -24.6664  -15.8490   20.5131 H   0  0  0  0  0  0
  -26.2836  -15.6226   20.0785 H   0  0  0  0  0  0
  -26.7202  -32.5358   23.0992 H   0  0  0  0  0  0
  -25.0191  -33.9710   25.0409 H   0  0  0  0  0  0
  -22.7265  -31.2987   21.3886 H   0  0  0  0  0  0
  -23.3801  -35.9620   23.3256 H   0  0  0  0  0  0
  -24.3618  -36.8955   22.2065 H   0  0  0  0  0  0
  -23.7254  -37.6473   23.6697 H   0  0  0  0  0  0
  -26.1273  -31.5206   20.6146 H   0  0  0  0  0  0
  -26.8518  -30.7973   22.0173 H   0  0  0  0  0  0
  -28.1123  -28.9105   21.2009 H   0  0  0  0  0  0
  -25.8995  -25.8973   19.0039 H   0  0  0  0  0  0
  -23.9667  -27.3124   18.9930 H   0  0  0  0  0  0
  -23.7727  -30.5864   19.3979 H   0  0  0  0  0  0
  -22.7644  -29.2426   19.8464 H   0  0  0  0  0  0
  -25.1345  -36.1879   25.0802 H   0  0  0  0  0  0
  -21.0013  -28.3279   24.1392 H   0  0  0  0  0  0
  -20.5806  -26.2305   23.3604 H   0  0  0  0  0  0
  -21.6682  -26.7492   22.1136 H   0  0  0  0  0  0
  -19.6983  -25.6269   21.1289 H   0  0  0  0  0  0
  -19.6766  -27.3163   20.6747 H   0  0  0  0  0  0
  -17.4259  -26.6705   21.3989 H   0  0  0  0  0  0
  -18.0350  -26.0066   22.8988 H   0  0  0  0  0  0
  -19.7960  -30.7302   24.2222 H   0  0  0  0  0  0
  -17.5031  -31.6261   24.5159 H   0  0  0  0  0  0
  -15.5373  -30.2979   23.7674 H   0  0  0  0  0  0
  -15.8687  -28.0830   22.7035 H   0  0  0  0  0  0
  -24.5844  -30.7187   25.7650 H   0  0  0  0  0  0
  -24.8933  -32.2973   26.4808 H   0  0  0  0  0  0
  -25.7946  -30.8887   27.0160 H   0  0  0  0  0  0
  -26.2974  -29.6764   24.1255 H   0  0  0  0  0  0
  -27.4073  -29.7318   25.4736 H   0  0  0  0  0  0
  -27.8820  -30.4331   23.9453 H   0  0  0  0  0  0
  -27.2636  -33.3701   26.1987 H   0  0  0  0  0  0
  -28.3849  -32.6935   25.0282 H   0  0  0  0  0  0
  -28.0720  -31.8562   26.5403 H   0  0  0  0  0  0
  -28.2579  -38.0150   24.7524 H   0  0  0  0  0  0
  -28.1141  -36.2665   24.6261 H   0  0  0  0  0  0
  -27.2315  -37.1394   25.8865 H   0  0  0  0  0  0
  -20.9416  -29.8742   21.6812 H   0  0  0  0  0  0
  -26.0202  -38.2819   24.1384 H   0  0  0  0  0  0
  -29.8558  -18.5466   21.7017 H   0  0  0  0  0  0
  -29.1361  -15.9467   18.3505 H   0  0  0  0  0  0
  -30.7754  -23.7398   17.3929 H   0  0  0  0  0  0
  -29.0547  -23.4549   17.3631 H   0  0  0  0  0  0
  -29.5705  -25.8039   18.0038 H   0  0  0  0  0  0
  -30.5365  -25.2593   19.3527 H   0  0  0  0  0  0
  -30.9396  -22.6785   19.6616 H   0  0  0  0  0  0
  -30.2891  -21.5795   18.4745 H   0  0  0  0  0  0
  -27.6044  -23.5530   21.1392 H   0  0  0  0  0  0
  -29.3054  -23.8463   21.3293 H   0  0  0  0  0  0
  -27.5867  -24.8005   18.9617 H   0  0  0  0  0  0
  -27.0065  -20.9654   18.6886 H   0  0  0  0  0  0
  -26.7736  -19.8951   17.3666 H   0  0  0  0  0  0
  -28.1644  -20.9637   17.3254 H   0  0  0  0  0  0
  -29.7197  -21.0825   21.3768 H   0  0  0  0  0  0
  -27.9893  -21.0057   21.2934 H   0  0  0  0  0  0
  -29.1238  -15.5542   21.5153 H   0  0  0  0  0  0
  -28.0965  -22.1882   19.2233 H   0  0  0  0  0  0
  1 25  1  0  0  0
  1 30  2  0  0  0
  1 85  1  0  0  0
  2  3  1  0  0  0
  2 25  1  0  0  0
  2 90  1  0  0  0
  2 91  1  0  0  0
  3  4  1  0  0  0
  3 92  1  0  0  0
  3 93  1  0  0  0
  4  5  1  0  0  0
  4 94  1  0  0  0
  4 95  1  0  0  0
  5  6  1  0  0  0
  5 26  1  0  0  0
  5 96  1  0  0  0
  6 25  1  0  0  0
  6 97  1  0  0  0
  6 98  1  0  0  0
  7  8  2  0  0  0
  7 26  1  0  0  0
  7 29  1  0  0  0
  8  9  1  0  0  0
  8 22  1  0  0  0
  9 10  1  0  0  0
  9 27  2  0  0  0
 10 11  2  0  0  0
 10 15  1  0  0  0
 11 12  1  0  0  0
 11 99  1  0  0  0
 12 13  2  0  0  0
 12100  1  0  0  0
 13 14  1  0  0  0
 13 31  1  0  0  0
 14 15  2  0  0  0
 14101  1  0  0  0
 15102  1  0  0  0
 16 17  2  0  0  0
 16 21  1  0  0  0
 16 31  1  0  0  0
 17 18  1  0  0  0
 17103  1  0  0  0
 18 19  2  0  0  0
 18104  1  0  0  0
 19 20  1  0  0  0
 19 24  1  0  0  0
 20 21  2  0  0  0
 20105  1  0  0  0
 21 23  1  0  0  0
 22 28  1  0  0  0
 22 32  2  0  0  0
 26 27  1  0  0  0
 28106  1  0  0  0
 28107  1  0  0  0
 29108  1  0  0  0
 29109  1  0  0  0
 33 34  1  0  0  0
 33 66  1  0  0  0
 33 70  2  0  0  0
 34 36  1  0  0  0
 34 59  1  0  0  0
 34110  1  0  0  0
 35 44  2  0  0  0
 35 45  1  0  0  0
 35 68  1  0  0  0
 36 56  1  0  0  0
 36111  1  0  0  0
 37 39  1  0  0  0
 37 47  1  0  0  0
 37 66  1  0  0  0
 37112  1  0  0  0
 38 43  2  0  0  0
 38 46  1  0  0  0
 38 47  1  0  0  0
 39 64  1  0  0  0
 39 67  2  0  0  0
 40 52  1  0  0  0
 40 53  2  0  0  0
 40 58  1  0  0  0
 41113  1  0  0  0
 41114  1  0  0  0
 41115  1  0  0  0
 41 48  1  0  0  0
 42 43  1  0  0  0
 42 66  1  0  0  0
 42116  1  0  0  0
 42117  1  0  0  0
 43 44  1  0  0  0
 44118  1  0  0  0
 45 46  2  0  0  0
 45119  1  0  0  0
 46120  1  0  0  0
 47121  1  0  0  0
 47122  1  0  0  0
 48 56  1  0  0  0
 48 65  1  0  0  0
 48123  1  0  0  0
 49 50  1  0  0  0
 49 53  1  0  0  0
 49 64  1  0  0  0
 49124  1  0  0  0
 50 51  1  0  0  0
 50125  1  0  0  0
 50126  1  0  0  0
 51 52  1  0  0  0
 51127  1  0  0  0
 51128  1  0  0  0
 52129  1  0  0  0
 52130  1  0  0  0
 53 54  1  0  0  0
 54 55  2  0  0  0
 54131  1  0  0  0
 55 57  1  0  0  0
 55132  1  0  0  0
 56 69  2  0  0  0
 57 58  2  0  0  0
 57133  1  0  0  0
 58134  1  0  0  0
 59 60  1  0  0  0
 59 61  1  0  0  0
 59 62  1  0  0  0
 60135  1  0  0  0
 60136  1  0  0  0
 60137  1  0  0  0
 61138  1  0  0  0
 61139  1  0  0  0
 61140  1  0  0  0
 62141  1  0  0  0
 62142  1  0  0  0
 62143  1  0  0  0
 63 65  1  0  0  0
 63144  1  0  0  0
 63145  1  0  0  0
 63146  1  0  0  0
 64147  1  0  0  0
 65148  1  0  0  0
 68 81  1  0  0  0
 71 73  2  0  0  0
 71 76  1  0  0  0
 71149  1  0  0  0
 72 74  1  0  0  0
 72 76  2  0  0  0
 72150  1  0  0  0
 73 75  1  0  0  0
 73 83  1  0  0  0
 74 75  2  0  0  0
 74 84  1  0  0  0
 75 82  1  0  0  0
 76 85  1  0  0  0
 77 78  1  0  0  0
 77 79  1  0  0  0
 77151  1  0  0  0
 77152  1  0  0  0
 78 81  1  0  0  0
 78153  1  0  0  0
 78154  1  0  0  0
 79 86  1  0  0  0
 79155  1  0  0  0
 79156  1  0  0  0
 80 81  1  0  0  0
 80 86  1  0  0  0
 80157  1  0  0  0
 80158  1  0  0  0
 81159  1  0  0  0
 82160  1  0  0  0
 82161  1  0  0  0
 82162  1  0  0  0
 83163  1  0  0  0
 83164  1  0  0  0
 83 86  1  0  0  0
 84 87  1  0  0  0
 84 88  1  0  0  0
 84 89  1  0  0  0
 85165  1  0  0  0
 86166  1  0  0  0
M  CHG  1  86   1
M  ISO  4   1 100  68 101  81 101  85 100
M  END
> <chiral flag>
0

> <version>
0

> <s_m_source_file>
/data/baiqing/PycharmProjects/Reinvent-master-3.2/result/LINK_invent/BTK/process_docking_weight1_custom_product_contain_oxygen_bond_distance_aromatic_linkinvent_7_9_3/rearranged_h_0034.sdf

> <i_m_source_file_index>
64

> <r_mmod_Potential_Energy-OPLS-2005>
178.73405456543

> <r_mmod_Stretch_Energy-OPLS-2005>
132.515182495117

> <r_mmod_Bend_Energy-OPLS-2005>
180.322311401367

> <r_mmod_Torsional_Energy-OPLS-2005>
279.505035400391

> <r_mmod_Improper_Torsional_Energy-OPLS-2005>
6.44999313354492

> <r_mmod_Van_der_Waal_Energy-OPLS-2005>
142.684371948242

> <r_mmod_Electrostatic_Energy-OPLS-2005>
-195.76579284668

> <r_mmod_Solvation_Energy-OPLS-2005>
-445.647583007812

> <b_mmod_Minimization_Converged-OPLS-2005>
0

> <r_mmod_RMS_Derivative-OPLS-2005>
3.99334311485291

$$$$
64
                    3D
 Structure written by MMmdl.
154162  0  0  1  0            999 V2000
  -30.6880  -14.5250   20.5161 C   0  0  0  0  0  0
  -30.4285  -12.3292   19.4290 C   0  0  0  0  0  0
  -29.4867  -12.4736   18.2151 C   0  0  0  0  0  0
  -28.0130  -12.3381   18.6418 C   0  0  0  0  0  0
  -27.6568  -13.2073   19.8754 C   0  0  2  0  0  0
  -28.7077  -13.0354   20.9973 C   0  0  0  0  0  0
  -25.2554  -13.8139   20.5708 C   0  0  0  0  0  0
  -24.1836  -13.0422   20.9261 C   0  0  0  0  0  0
  -24.6396  -11.6892   20.8813 C   0  0  0  0  0  0
  -23.9073  -10.4285   21.0443 C   0  0  0  0  0  0
  -24.3632   -9.4186   21.9212 C   0  0  0  0  0  0
  -23.6303   -8.2228   22.0765 C   0  0  0  0  0  0
  -22.4287   -8.0288   21.3555 C   0  0  0  0  0  0
  -21.9940   -9.0260   20.4657 C   0  0  0  0  0  0
  -22.7257  -10.2133   20.3078 C   0  0  0  0  0  0
  -21.6832   -6.0748   22.5281 C   0  0  0  0  0  0
  -21.3978   -6.5640   23.8217 C   0  0  0  0  0  0
  -21.3660   -5.6792   24.9184 C   0  0  0  0  0  0
  -21.6054   -4.3061   24.7228 C   0  0  0  0  0  0
  -21.8810   -3.8154   23.4345 C   0  0  0  0  0  0
  -21.9185   -4.6975   22.3403 C   0  0  0  0  0  0
  -22.7845  -13.5209   21.1882 C   0  0  0  0  0  0
  -22.1648   -4.2163   21.0979 F   0  0  0  0  0  0
  -21.5671   -3.4550   25.7744 F   0  0  0  0  0  0
  -30.0276  -13.3370   20.4249 N   0  0  0  0  0  0
  -26.3007  -12.9328   20.3434 N   0  0  0  0  0  0
  -25.9331  -11.6484   20.5888 N   0  0  0  0  0  0
  -22.0482  -12.8228   22.0439 N   0  0  0  0  0  0
  -25.4208  -15.1854   20.3935 N   0  0  0  0  0  0
  -31.8452  -14.6677   20.1164 O   0  0  0  0  0  0
  -21.6623   -6.8900   21.4252 O   0  0  0  0  0  0
  -22.3532  -14.5499   20.6674 O   0  0  0  0  0  0
  -24.6186  -31.8645   23.2097 C   0  0  0  0  0  0
  -25.9053  -32.4812   23.8391 C   0  0  1  0  0  0
  -27.2111  -27.3720   20.0918 C   0  0  0  0  0  0
  -25.5918  -33.8617   24.2320 N   0  0  0  0  0  0
  -23.4087  -30.4903   21.5521 C   0  0  2  0  0  0
  -24.8476  -28.9523   20.1099 C   0  0  0  0  0  0
  -22.7435  -29.4627   22.4980 C   0  0  0  0  0  0
  -18.0253  -28.1297   22.8449 C   0  0  0  0  0  0
  -24.1483  -36.7320   23.2643 C   0  0  0  0  0  0
  -25.9446  -30.8072   21.3724 C   0  0  0  0  0  0
  -26.0128  -29.4395   20.7131 C   0  0  0  0  0  0
  -27.1953  -28.6555   20.7012 C   0  0  0  0  0  0
  -26.0193  -26.9118   19.4857 C   0  0  0  0  0  0
  -24.8481  -27.6905   19.4945 C   0  0  0  0  0  0
  -23.6178  -29.8314   20.1640 C   0  0  0  0  0  0
  -25.4104  -36.3119   24.0340 C   0  0  1  0  0  0
  -20.5831  -28.3664   23.1271 C   0  0  2  0  0  0
  -20.6750  -26.9417   22.5263 C   0  0  0  0  0  0
  -19.5692  -26.6373   21.5101 C   0  0  0  0  0  0
  -18.1884  -26.7863   22.1541 C   0  0  0  0  0  0
  -19.1482  -28.8787   23.2852 C   0  0  0  0  0  0
  -18.9383  -30.1381   23.8866 C   0  0  0  0  0  0
  -17.6362  -30.6486   24.0531 C   0  0  0  0  0  0
  -25.9033  -34.9475   23.5122 C   0  0  0  0  0  0
  -16.5271  -29.8974   23.6251 C   0  0  0  0  0  0
  -16.7222  -28.6406   23.0267 C   0  0  0  0  0  0
  -26.4473  -31.6615   25.0738 C   0  0  0  0  0  0
  -25.3745  -31.3724   26.1493 C   0  0  0  0  0  0
  -27.0306  -30.3051   24.6138 C   0  0  0  0  0  0
  -27.6035  -32.4355   25.7514 C   0  0  0  0  0  0
  -27.5580  -37.1829   24.8470 C   0  0  0  0  0  0
  -21.4130  -29.3142   22.3805 N   0  0  0  0  0  0
  -26.4289  -37.3806   23.9416 N   0  0  0  0  0  0
  -24.6770  -31.0689   22.1030 N   0  0  0  0  0  0
  -23.4190  -28.8046   23.2939 O   0  0  0  0  0  0
  -28.3712  -26.6071   20.1282 O   0  0  0  0  0  0
  -26.5590  -34.8926   22.4684 O   0  0  0  0  0  0
  -23.5369  -32.1435   23.7460 O   0  0  0  0  0  0
  -27.9797  -17.9703   20.6588 C   0  0  0  0  0  0
  -27.2574  -19.2078   20.7548 C   0  0  0  0  0  0
  -29.3398  -18.0932   20.7438 C   0  0  0  0  0  0
  -28.0779  -20.3126   20.8891 C   0  0  0  0  0  0
  -27.8659  -24.1580   20.5895 C   0  0  0  0  0  0
  -25.7541  -19.2310   20.7603 C   0  0  0  0  0  0
  -30.4078  -17.0055   20.7421 C   0  0  0  0  0  0
  -27.6595  -21.7472   21.2151 C   0  0  0  0  0  0
  -28.4089  -25.2420   19.6070 C   0  0  0  0  0  0
  -28.1576  -22.8500   20.3652 N   0  0  0  0  0  0
  -29.9497  -15.6002   20.8728 N   0  0  0  0  0  0
  -27.1762  -24.4995   21.5544 O   0  0  0  0  0  0
  -29.7604  -19.7979   20.8735 S   0  0  0  0  0  0
  -31.4637  -12.4496   19.1053 H   0  0  0  0  0  0
  -30.3678  -11.3285   19.8585 H   0  0  0  0  0  0
  -29.7250  -11.7183   17.4645 H   0  0  0  0  0  0
  -29.6399  -13.4416   17.7376 H   0  0  0  0  0  0
  -27.8338  -11.2871   18.8716 H   0  0  0  0  0  0
  -27.3548  -12.5856   17.8085 H   0  0  0  0  0  0
  -27.6881  -14.2461   19.5458 H   0  0  0  0  0  0
  -28.7031  -12.0134   21.3786 H   0  0  0  0  0  0
  -28.4837  -13.6738   21.8536 H   0  0  0  0  0  0
  -25.2782   -9.5652   22.4787 H   0  0  0  0  0  0
  -24.0006   -7.4599   22.7466 H   0  0  0  0  0  0
  -21.0892   -8.8775   19.8950 H   0  0  0  0  0  0
  -22.3730  -10.9680   19.6195 H   0  0  0  0  0  0
  -21.1914   -7.6139   23.9726 H   0  0  0  0  0  0
  -21.1507   -6.0525   25.9093 H   0  0  0  0  0  0
  -22.0590   -2.7621   23.2834 H   0  0  0  0  0  0
  -22.4077  -11.9869   22.4817 H   0  0  0  0  0  0
  -21.1087  -13.1248   22.2626 H   0  0  0  0  0  0
  -24.6323  -15.8201   20.4573 H   0  0  0  0  0  0
  -26.2211  -15.5917   19.9290 H   0  0  0  0  0  0
  -26.7107  -32.5449   23.1129 H   0  0  0  0  0  0
  -25.0095  -33.9766   25.0483 H   0  0  0  0  0  0
  -22.6989  -31.3094   21.4173 H   0  0  0  0  0  0
  -23.3740  -35.9662   23.3325 H   0  0  0  0  0  0
  -24.3568  -36.8922   22.2059 H   0  0  0  0  0  0
  -23.7234  -37.6529   23.6639 H   0  0  0  0  0  0
  -26.0701  -31.5708   20.6035 H   0  0  0  0  0  0
  -26.8310  -30.8507   21.9938 H   0  0  0  0  0  0
  -28.0924  -29.0227   21.1780 H   0  0  0  0  0  0
  -25.9562  -25.9422   19.0148 H   0  0  0  0  0  0
  -23.9494  -27.3052   19.0316 H   0  0  0  0  0  0
  -23.7441  -30.6130   19.4133 H   0  0  0  0  0  0
  -22.7358  -29.2669   19.8564 H   0  0  0  0  0  0
  -25.1284  -36.2000   25.0835 H   0  0  0  0  0  0
  -20.9870  -28.3143   24.1419 H   0  0  0  0  0  0
  -20.5833  -26.2151   23.3353 H   0  0  0  0  0  0
  -21.6600  -26.7608   22.0957 H   0  0  0  0  0  0
  -19.6870  -25.6280   21.1119 H   0  0  0  0  0  0
  -19.6576  -27.3180   20.6626 H   0  0  0  0  0  0
  -17.4121  -26.6656   21.3958 H   0  0  0  0  0  0
  -18.0327  -25.9943   22.8879 H   0  0  0  0  0  0
  -19.7856  -30.7241   24.2159 H   0  0  0  0  0  0
  -17.4828  -31.6157   24.5104 H   0  0  0  0  0  0
  -15.5229  -30.2817   23.7477 H   0  0  0  0  0  0
  -15.8629  -28.0768   22.6883 H   0  0  0  0  0  0
  -24.5903  -30.7076   25.7856 H   0  0  0  0  0  0
  -24.8944  -32.2876   26.4975 H   0  0  0  0  0  0
  -25.8119  -30.8887   27.0238 H   0  0  0  0  0  0
  -26.2847  -29.6817   24.1187 H   0  0  0  0  0  0
  -27.4061  -29.7290   25.4611 H   0  0  0  0  0  0
  -27.8701  -30.4374   23.9305 H   0  0  0  0  0  0
  -27.2633  -33.3641   26.2112 H   0  0  0  0  0  0
  -28.3849  -32.6950   25.0356 H   0  0  0  0  0  0
  -28.0697  -31.8467   26.5429 H   0  0  0  0  0  0
  -28.2623  -38.0104   24.7495 H   0  0  0  0  0  0
  -28.1057  -36.2635   24.6334 H   0  0  0  0  0  0
  -27.2292  -37.1543   25.8872 H   0  0  0  0  0  0
  -20.9293  -29.9195   21.7319 H   0  0  0  0  0  0
  -26.0187  -38.2889   24.1408 H   0  0  0  0  0  0
  -27.4651  -17.0256   20.5713 H   0  0  0  0  0  0
  -25.3561  -19.8400   21.5720 H   0  0  0  0  0  0
  -25.3481  -18.2283   20.9012 H   0  0  0  0  0  0
  -25.3508  -19.6060   19.8202 H   0  0  0  0  0  0
  -30.9946  -17.1057   19.8269 H   0  0  0  0  0  0
  -31.1085  -17.2017   21.5537 H   0  0  0  0  0  0
  -27.9684  -21.9492   22.2407 H   0  0  0  0  0  0
  -26.5696  -21.8154   21.2366 H   0  0  0  0  0  0
  -27.9284  -25.1571   18.6322 H   0  0  0  0  0  0
  -29.4575  -25.0093   19.4226 H   0  0  0  0  0  0
  -28.7246  -22.6085   19.5629 H   0  0  0  0  0  0
  -29.0184  -15.4282   21.2159 H   0  0  0  0  0  0
  1 25  1  0  0  0
  1 30  2  0  0  0
  1 81  1  0  0  0
  2  3  1  0  0  0
  2 25  1  0  0  0
  2 84  1  0  0  0
  2 85  1  0  0  0
  3  4  1  0  0  0
  3 86  1  0  0  0
  3 87  1  0  0  0
  4  5  1  0  0  0
  4 88  1  0  0  0
  4 89  1  0  0  0
  5  6  1  0  0  0
  5 26  1  0  0  0
  5 90  1  0  0  0
  6 25  1  0  0  0
  6 91  1  0  0  0
  6 92  1  0  0  0
  7  8  2  0  0  0
  7 26  1  0  0  0
  7 29  1  0  0  0
  8  9  1  0  0  0
  8 22  1  0  0  0
  9 10  1  0  0  0
  9 27  2  0  0  0
 10 11  2  0  0  0
 10 15  1  0  0  0
 11 12  1  0  0  0
 11 93  1  0  0  0
 12 13  2  0  0  0
 12 94  1  0  0  0
 13 14  1  0  0  0
 13 31  1  0  0  0
 14 15  2  0  0  0
 14 95  1  0  0  0
 15 96  1  0  0  0
 16 17  2  0  0  0
 16 21  1  0  0  0
 16 31  1  0  0  0
 17 18  1  0  0  0
 17 97  1  0  0  0
 18 19  2  0  0  0
 18 98  1  0  0  0
 19 20  1  0  0  0
 19 24  1  0  0  0
 20 21  2  0  0  0
 20 99  1  0  0  0
 21 23  1  0  0  0
 22 28  1  0  0  0
 22 32  2  0  0  0
 26 27  1  0  0  0
 28100  1  0  0  0
 28101  1  0  0  0
 29102  1  0  0  0
 29103  1  0  0  0
 33 34  1  0  0  0
 33 66  1  0  0  0
 33 70  2  0  0  0
 34 36  1  0  0  0
 34 59  1  0  0  0
 34104  1  0  0  0
 35 44  2  0  0  0
 35 45  1  0  0  0
 35 68  1  0  0  0
 36 56  1  0  0  0
 36105  1  0  0  0
 37 39  1  0  0  0
 37 47  1  0  0  0
 37 66  1  0  0  0
 37106  1  0  0  0
 38 43  2  0  0  0
 38 46  1  0  0  0
 38 47  1  0  0  0
 39 64  1  0  0  0
 39 67  2  0  0  0
 40 52  1  0  0  0
 40 53  2  0  0  0
 40 58  1  0  0  0
 41107  1  0  0  0
 41108  1  0  0  0
 41109  1  0  0  0
 41 48  1  0  0  0
 42 43  1  0  0  0
 42 66  1  0  0  0
 42110  1  0  0  0
 42111  1  0  0  0
 43 44  1  0  0  0
 44112  1  0  0  0
 45 46  2  0  0  0
 45113  1  0  0  0
 46114  1  0  0  0
 47115  1  0  0  0
 47116  1  0  0  0
 48 56  1  0  0  0
 48 65  1  0  0  0
 48117  1  0  0  0
 49 50  1  0  0  0
 49 53  1  0  0  0
 49 64  1  0  0  0
 49118  1  0  0  0
 50 51  1  0  0  0
 50119  1  0  0  0
 50120  1  0  0  0
 51 52  1  0  0  0
 51121  1  0  0  0
 51122  1  0  0  0
 52123  1  0  0  0
 52124  1  0  0  0
 53 54  1  0  0  0
 54 55  2  0  0  0
 54125  1  0  0  0
 55 57  1  0  0  0
 55126  1  0  0  0
 56 69  2  0  0  0
 57 58  2  0  0  0
 57127  1  0  0  0
 58128  1  0  0  0
 59 60  1  0  0  0
 59 61  1  0  0  0
 59 62  1  0  0  0
 60129  1  0  0  0
 60130  1  0  0  0
 60131  1  0  0  0
 61132  1  0  0  0
 61133  1  0  0  0
 61134  1  0  0  0
 62135  1  0  0  0
 62136  1  0  0  0
 62137  1  0  0  0
 63 65  1  0  0  0
 63138  1  0  0  0
 63139  1  0  0  0
 63140  1  0  0  0
 64141  1  0  0  0
 65142  1  0  0  0
 68 79  1  0  0  0
 71 72  1  0  0  0
 71 73  2  0  0  0
 71143  1  0  0  0
 72 74  2  0  0  0
 72 76  1  0  0  0
 73 77  1  0  0  0
 73 83  1  0  0  0
 74 78  1  0  0  0
 74 83  1  0  0  0
 75 79  1  0  0  0
 75 80  1  0  0  0
 75 82  2  0  0  0
 76144  1  0  0  0
 76145  1  0  0  0
 76146  1  0  0  0
 77 81  1  0  0  0
 77147  1  0  0  0
 77148  1  0  0  0
 78 80  1  0  0  0
 78149  1  0  0  0
 78150  1  0  0  0
 79151  1  0  0  0
 79152  1  0  0  0
 80153  1  0  0  0
 81154  1  0  0  0
M  ISO  4   1 100  68 101  79 101  81 100
M  END
> <chiral flag>
0

> <version>
0

> <s_m_source_file>
/data/baiqing/PycharmProjects/Reinvent-master-3.2/result/LINK_invent/BTK/process_docking_weight1_custom_product_contain_oxygen_bond_distance_aromatic_linkinvent_7_9_3/rearranged_h_0034.sdf

> <i_m_source_file_index>
65

> <r_mmod_Potential_Energy-OPLS-2005>
-158.282470703125

> <r_mmod_Stretch_Energy-OPLS-2005>
46.9127044677734

> <r_mmod_Bend_Energy-OPLS-2005>
115.648284912109

> <r_mmod_Torsional_Energy-OPLS-2005>
191.961868286133

> <r_mmod_Improper_Torsional_Energy-OPLS-2005>
6.15099096298218

> <r_mmod_Van_der_Waal_Energy-OPLS-2005>
123.328948974609

> <r_mmod_Electrostatic_Energy-OPLS-2005>
-425.644592285156

> <r_mmod_Solvation_Energy-OPLS-2005>
-241.384307861328

> <b_mmod_Minimization_Converged-OPLS-2005>
0

> <r_mmod_RMS_Derivative-OPLS-2005>
3.57835626602173

$$$$
65
                    3D
 Structure written by MMmdl.
156164  0  0  1  0            999 V2000
  -30.6926  -14.4629   20.5043 C   0  0  0  0  0  0
  -30.4177  -12.2839   19.4010 C   0  0  0  0  0  0
  -29.4877  -12.4930   18.1885 C   0  0  0  0  0  0
  -28.0080  -12.3700   18.6035 C   0  0  0  0  0  0
  -27.6613  -13.2013   19.8689 C   0  0  2  0  0  0
  -28.7128  -12.9855   20.9813 C   0  0  0  0  0  0
  -25.2626  -13.8175   20.5720 C   0  0  0  0  0  0
  -24.1861  -13.0452   20.9203 C   0  0  0  0  0  0
  -24.6388  -11.6913   20.8730 C   0  0  0  0  0  0
  -23.9031  -10.4301   21.0388 C   0  0  0  0  0  0
  -24.3594   -9.4218   21.9168 C   0  0  0  0  0  0
  -23.6282   -8.2238   22.0751 C   0  0  0  0  0  0
  -22.4258   -8.0265   21.3543 C   0  0  0  0  0  0
  -21.9875   -9.0228   20.4637 C   0  0  0  0  0  0
  -22.7200  -10.2118   20.3036 C   0  0  0  0  0  0
  -21.6860   -6.0724   22.5277 C   0  0  0  0  0  0
  -21.4031   -6.5640   23.8208 C   0  0  0  0  0  0
  -21.3661   -5.6791   24.9166 C   0  0  0  0  0  0
  -21.6030   -4.3051   24.7222 C   0  0  0  0  0  0
  -21.8813   -3.8142   23.4345 C   0  0  0  0  0  0
  -21.9201   -4.6953   22.3399 C   0  0  0  0  0  0
  -22.7881  -13.5252   21.1832 C   0  0  0  0  0  0
  -22.1671   -4.2141   21.0973 F   0  0  0  0  0  0
  -21.5597   -3.4531   25.7730 F   0  0  0  0  0  0
  -30.0348  -13.2794   20.4109 N   0  0  0  0  0  0
  -26.3043  -12.9319   20.3377 N   0  0  0  0  0  0
  -25.9318  -11.6485   20.5759 N   0  0  0  0  0  0
  -22.0507  -12.8250   22.0388 N   0  0  0  0  0  0
  -25.4387  -15.1891   20.4121 N   0  0  0  0  0  0
  -31.8627  -14.6166   20.1512 O   0  0  0  0  0  0
  -21.6640   -6.8856   21.4236 O   0  0  0  0  0  0
  -22.3564  -14.5552   20.6684 O   0  0  0  0  0  0
  -24.6131  -31.8671   23.2143 C   0  0  0  0  0  0
  -25.9031  -32.4820   23.8438 C   0  0  1  0  0  0
  -27.2397  -27.4262   20.0724 C   0  0  0  0  0  0
  -25.5899  -33.8623   24.2370 N   0  0  0  0  0  0
  -23.4008  -30.4922   21.5532 C   0  0  2  0  0  0
  -24.8476  -28.9526   20.1174 C   0  0  0  0  0  0
  -22.7397  -29.4660   22.5000 C   0  0  0  0  0  0
  -18.0265  -28.1422   22.8656 C   0  0  0  0  0  0
  -24.1477  -36.7318   23.2647 C   0  0  0  0  0  0
  -25.9308  -30.8222   21.3716 C   0  0  0  0  0  0
  -26.0073  -29.4550   20.7192 C   0  0  0  0  0  0
  -27.1996  -28.6960   20.7006 C   0  0  0  0  0  0
  -26.0590  -26.9402   19.4639 C   0  0  0  0  0  0
  -24.8694  -27.6969   19.4861 C   0  0  0  0  0  0
  -23.6140  -29.8266   20.1658 C   0  0  0  0  0  0
  -25.4101  -36.3118   24.0349 C   0  0  1  0  0  0
  -20.5872  -28.3701   23.1392 C   0  0  2  0  0  0
  -20.6664  -26.9322   22.5799 C   0  0  0  0  0  0
  -19.5739  -26.6418   21.5452 C   0  0  0  0  0  0
  -18.1938  -26.7901   22.1936 C   0  0  0  0  0  0
  -19.1531  -28.8938   23.2929 C   0  0  0  0  0  0
  -18.9480  -30.1612   23.8786 C   0  0  0  0  0  0
  -17.6493  -30.6758   24.0433 C   0  0  0  0  0  0
  -25.9031  -34.9475   23.5160 C   0  0  0  0  0  0
  -16.5375  -29.9227   23.6356 C   0  0  0  0  0  0
  -16.7271  -28.6555   23.0542 C   0  0  0  0  0  0
  -26.4460  -31.6602   25.0760 C   0  0  0  0  0  0
  -25.3735  -31.3668   26.1514 C   0  0  0  0  0  0
  -27.0278  -30.3056   24.6100 C   0  0  0  0  0  0
  -27.6062  -32.4298   25.7503 C   0  0  0  0  0  0
  -27.5575  -37.1812   24.8476 C   0  0  0  0  0  0
  -21.4156  -29.2885   22.3601 N   0  0  0  0  0  0
  -26.4289  -37.3799   23.9416 N   0  0  0  0  0  0
  -24.6664  -31.0756   22.1053 N   0  0  0  0  0  0
  -23.4118  -28.8340   23.3181 O   0  0  0  0  0  0
  -28.4355  -26.7290   20.0771 O   0  0  0  0  0  0
  -26.5578  -34.8891   22.4709 O   0  0  0  0  0  0
  -23.5328  -32.1448   23.7548 O   0  0  0  0  0  0
  -28.2376  -18.0743   20.4961 C   0  0  0  0  0  0
  -29.9818  -18.9040   21.9668 C   0  0  0  0  0  0
  -27.7941  -19.3972   20.2745 C   0  0  0  0  0  0
  -29.5367  -20.2289   21.7493 C   0  0  0  0  0  0
  -29.3140  -17.8108   21.3707 C   0  0  0  0  0  0
  -28.4189  -20.4887   20.9229 C   0  0  0  0  0  0
  -29.7075  -16.3712   21.7139 C   0  0  0  0  0  0
  -27.7950  -21.8920   20.8599 C   0  0  0  0  0  0
  -27.9656  -24.2934   20.3283 C   0  0  0  0  0  0
  -28.5601  -25.4318   19.4607 C   0  0  0  0  0  0
  -29.8938  -15.5376   20.5336 N   0  0  0  0  0  0
  -28.5209  -22.9253   20.0796 N   0  3  0  0  0  0
  -31.4634  -12.3680   19.1016 H   0  0  0  0  0  0
  -30.3038  -11.2741   19.7983 H   0  0  0  0  0  0
  -29.7133  -11.7639   17.4095 H   0  0  0  0  0  0
  -29.6643  -13.4750   17.7455 H   0  0  0  0  0  0
  -27.8021  -11.3158   18.7833 H   0  0  0  0  0  0
  -27.3608  -12.6702   17.7765 H   0  0  0  0  0  0
  -27.6972  -14.2484   19.5722 H   0  0  0  0  0  0
  -28.6876  -11.9551   21.3378 H   0  0  0  0  0  0
  -28.5078  -13.6108   21.8497 H   0  0  0  0  0  0
  -25.2738   -9.5701   22.4750 H   0  0  0  0  0  0
  -23.9992   -7.4637   22.7489 H   0  0  0  0  0  0
  -21.0799   -8.8730   19.8959 H   0  0  0  0  0  0
  -22.3644  -10.9640   19.6136 H   0  0  0  0  0  0
  -21.2046   -7.6155   23.9713 H   0  0  0  0  0  0
  -21.1497   -6.0522   25.9068 H   0  0  0  0  0  0
  -22.0605   -2.7606   23.2845 H   0  0  0  0  0  0
  -22.4125  -11.9897   22.4759 H   0  0  0  0  0  0
  -21.1116  -13.1275   22.2593 H   0  0  0  0  0  0
  -24.6852  -15.8607   20.5145 H   0  0  0  0  0  0
  -26.3036  -15.6105   20.0986 H   0  0  0  0  0  0
  -26.7071  -32.5496   23.1171 H   0  0  0  0  0  0
  -25.0069  -33.9831   25.0526 H   0  0  0  0  0  0
  -22.6885  -31.3092   21.4144 H   0  0  0  0  0  0
  -23.3732  -35.9661   23.3327 H   0  0  0  0  0  0
  -24.3582  -36.8902   22.2058 H   0  0  0  0  0  0
  -23.7199  -37.6517   23.6640 H   0  0  0  0  0  0
  -26.0450  -31.5838   20.6008 H   0  0  0  0  0  0
  -26.8214  -30.8817   21.9838 H   0  0  0  0  0  0
  -28.0950  -29.0795   21.1692 H   0  0  0  0  0  0
  -26.0339  -25.9898   18.9546 H   0  0  0  0  0  0
  -23.9806  -27.3160   19.0011 H   0  0  0  0  0  0
  -23.7435  -30.6072   19.4165 H   0  0  0  0  0  0
  -22.7341  -29.2595   19.8550 H   0  0  0  0  0  0
  -25.1261  -36.2016   25.0840 H   0  0  0  0  0  0
  -20.9970  -28.3424   24.1522 H   0  0  0  0  0  0
  -20.5138  -26.2384   23.4122 H   0  0  0  0  0  0
  -21.6607  -26.7047   22.1974 H   0  0  0  0  0  0
  -19.6658  -27.3342   20.7069 H   0  0  0  0  0  0
  -19.6936  -25.6369   21.1407 H   0  0  0  0  0  0
  -17.4109  -26.6382   21.4516 H   0  0  0  0  0  0
  -18.0536  -26.0214   22.9562 H   0  0  0  0  0  0
  -19.7943  -30.7501   24.2037 H   0  0  0  0  0  0
  -17.5069  -31.6547   24.4856 H   0  0  0  0  0  0
  -15.5386  -30.3194   23.7680 H   0  0  0  0  0  0
  -15.8638  -28.0845   22.7420 H   0  0  0  0  0  0
  -24.5962  -30.6956   25.7837 H   0  0  0  0  0  0
  -24.8872  -32.2791   26.4979 H   0  0  0  0  0  0
  -25.8132  -30.8839   27.0256 H   0  0  0  0  0  0
  -26.2822  -29.6836   24.1128 H   0  0  0  0  0  0
  -27.4022  -29.7274   25.4554 H   0  0  0  0  0  0
  -27.8670  -30.4385   23.9272 H   0  0  0  0  0  0
  -27.2747  -33.3620   26.2090 H   0  0  0  0  0  0
  -28.3870  -32.6805   25.0316 H   0  0  0  0  0  0
  -28.0712  -31.8385   26.5394 H   0  0  0  0  0  0
  -28.2605  -38.0097   24.7512 H   0  0  0  0  0  0
  -28.1056  -36.2628   24.6326 H   0  0  0  0  0  0
  -27.2309  -37.1483   25.8883 H   0  0  0  0  0  0
  -20.9377  -29.8223   21.6465 H   0  0  0  0  0  0
  -26.0193  -38.2889   24.1387 H   0  0  0  0  0  0
  -27.7141  -17.2552   20.0219 H   0  0  0  0  0  0
  -30.8175  -18.7240   22.6292 H   0  0  0  0  0  0
  -26.9278  -19.5549   19.6447 H   0  0  0  0  0  0
  -30.0243  -21.0445   22.2660 H   0  0  0  0  0  0
  -28.9120  -15.9365   22.3233 H   0  0  0  0  0  0
  -30.6083  -16.3616   22.3307 H   0  0  0  0  0  0
  -27.6751  -22.2421   21.8866 H   0  0  0  0  0  0
  -26.7843  -21.8109   20.4537 H   0  0  0  0  0  0
  -26.8855  -24.2670   20.1855 H   0  0  0  0  0  0
  -28.1298  -24.5288   21.3800 H   0  0  0  0  0  0
  -28.1575  -25.4245   18.4466 H   0  0  0  0  0  0
  -29.6303  -25.2652   19.3423 H   0  0  0  0  0  0
  -30.1053  -16.1375   19.7523 H   0  0  0  0  0  0
  -28.4565  -22.6861   19.1020 H   0  0  0  0  0  0
  -29.4989  -22.8958   20.3281 H   0  0  0  0  0  0
  1 25  1  0  0  0
  1 30  2  0  0  0
  1 81  1  0  0  0
  2  3  1  0  0  0
  2 25  1  0  0  0
  2 83  1  0  0  0
  2 84  1  0  0  0
  3  4  1  0  0  0
  3 85  1  0  0  0
  3 86  1  0  0  0
  4  5  1  0  0  0
  4 87  1  0  0  0
  4 88  1  0  0  0
  5  6  1  0  0  0
  5 26  1  0  0  0
  5 89  1  0  0  0
  6 25  1  0  0  0
  6 90  1  0  0  0
  6 91  1  0  0  0
  7  8  2  0  0  0
  7 26  1  0  0  0
  7 29  1  0  0  0
  8  9  1  0  0  0
  8 22  1  0  0  0
  9 10  1  0  0  0
  9 27  2  0  0  0
 10 11  2  0  0  0
 10 15  1  0  0  0
 11 12  1  0  0  0
 11 92  1  0  0  0
 12 13  2  0  0  0
 12 93  1  0  0  0
 13 14  1  0  0  0
 13 31  1  0  0  0
 14 15  2  0  0  0
 14 94  1  0  0  0
 15 95  1  0  0  0
 16 17  2  0  0  0
 16 21  1  0  0  0
 16 31  1  0  0  0
 17 18  1  0  0  0
 17 96  1  0  0  0
 18 19  2  0  0  0
 18 97  1  0  0  0
 19 20  1  0  0  0
 19 24  1  0  0  0
 20 21  2  0  0  0
 20 98  1  0  0  0
 21 23  1  0  0  0
 22 28  1  0  0  0
 22 32  2  0  0  0
 26 27  1  0  0  0
 28 99  1  0  0  0
 28100  1  0  0  0
 29101  1  0  0  0
 29102  1  0  0  0
 33 34  1  0  0  0
 33 66  1  0  0  0
 33 70  2  0  0  0
 34 36  1  0  0  0
 34 59  1  0  0  0
 34103  1  0  0  0
 35 44  2  0  0  0
 35 45  1  0  0  0
 35 68  1  0  0  0
 36 56  1  0  0  0
 36104  1  0  0  0
 37 39  1  0  0  0
 37 47  1  0  0  0
 37 66  1  0  0  0
 37105  1  0  0  0
 38 43  2  0  0  0
 38 46  1  0  0  0
 38 47  1  0  0  0
 39 64  1  0  0  0
 39 67  2  0  0  0
 40 52  1  0  0  0
 40 53  2  0  0  0
 40 58  1  0  0  0
 41106  1  0  0  0
 41107  1  0  0  0
 41108  1  0  0  0
 41 48  1  0  0  0
 42 43  1  0  0  0
 42 66  1  0  0  0
 42109  1  0  0  0
 42110  1  0  0  0
 43 44  1  0  0  0
 44111  1  0  0  0
 45 46  2  0  0  0
 45112  1  0  0  0
 46113  1  0  0  0
 47114  1  0  0  0
 47115  1  0  0  0
 48 56  1  0  0  0
 48 65  1  0  0  0
 48116  1  0  0  0
 49 50  1  0  0  0
 49 53  1  0  0  0
 49 64  1  0  0  0
 49117  1  0  0  0
 50 51  1  0  0  0
 50118  1  0  0  0
 50119  1  0  0  0
 51 52  1  0  0  0
 51120  1  0  0  0
 51121  1  0  0  0
 52122  1  0  0  0
 52123  1  0  0  0
 53 54  1  0  0  0
 54 55  2  0  0  0
 54124  1  0  0  0
 55 57  1  0  0  0
 55125  1  0  0  0
 56 69  2  0  0  0
 57 58  2  0  0  0
 57126  1  0  0  0
 58127  1  0  0  0
 59 60  1  0  0  0
 59 61  1  0  0  0
 59 62  1  0  0  0
 60128  1  0  0  0
 60129  1  0  0  0
 60130  1  0  0  0
 61131  1  0  0  0
 61132  1  0  0  0
 61133  1  0  0  0
 62134  1  0  0  0
 62135  1  0  0  0
 62136  1  0  0  0
 63 65  1  0  0  0
 63137  1  0  0  0
 63138  1  0  0  0
 63139  1  0  0  0
 64140  1  0  0  0
 65141  1  0  0  0
 68 80  1  0  0  0
 71 73  2  0  0  0
 71 75  1  0  0  0
 71142  1  0  0  0
 72 74  1  0  0  0
 72 75  2  0  0  0
 72143  1  0  0  0
 73 76  1  0  0  0
 73144  1  0  0  0
 74 76  2  0  0  0
 74145  1  0  0  0
 75 77  1  0  0  0
 76 78  1  0  0  0
 77 81  1  0  0  0
 77146  1  0  0  0
 77147  1  0  0  0
 78 82  1  0  0  0
 78148  1  0  0  0
 78149  1  0  0  0
 79 80  1  0  0  0
 79 82  1  0  0  0
 79150  1  0  0  0
 79151  1  0  0  0
 80152  1  0  0  0
 80153  1  0  0  0
 81154  1  0  0  0
 82155  1  0  0  0
 82156  1  0  0  0
M  CHG  1  82   1
M  ISO  4   1 100  68 101  80 101  81 100
M  END
> <chiral flag>
0

> <version>
0

> <s_m_source_file>
/data/baiqing/PycharmProjects/Reinvent-master-3.2/result/LINK_invent/BTK/process_docking_weight1_custom_product_contain_oxygen_bond_distance_aromatic_linkinvent_7_9_3/rearranged_h_0034.sdf

> <i_m_source_file_index>
66

> <r_mmod_Potential_Energy-OPLS-2005>
-202.220474243164

> <r_mmod_Stretch_Energy-OPLS-2005>
37.0215187072754

> <r_mmod_Bend_Energy-OPLS-2005>
111.59415435791

> <r_mmod_Torsional_Energy-OPLS-2005>
255.336517333984

> <r_mmod_Improper_Torsional_Energy-OPLS-2005>
20.0457649230957

> <r_mmod_Van_der_Waal_Energy-OPLS-2005>
143.251159667969

> <r_mmod_Electrostatic_Energy-OPLS-2005>
-327.447845458984

> <r_mmod_Solvation_Energy-OPLS-2005>
-458.637969970703

> <b_mmod_Minimization_Converged-OPLS-2005>
0

> <r_mmod_RMS_Derivative-OPLS-2005>
4.54406356811523

$$$$
66
                    3D
 Structure written by MMmdl.
166175  0  0  1  0            999 V2000
  -30.5904  -14.6472   20.4771 C   0  0  0  0  0  0
  -30.4426  -12.3895   19.4237 C   0  0  0  0  0  0
  -29.4964  -12.4862   18.2027 C   0  0  0  0  0  0
  -28.0204  -12.3362   18.6240 C   0  0  0  0  0  0
  -27.6552  -13.2079   19.8526 C   0  0  2  0  0  0
  -28.7058  -13.0345   20.9723 C   0  0  0  0  0  0
  -25.2584  -13.8183   20.5590 C   0  0  0  0  0  0
  -24.1851  -13.0477   20.9192 C   0  0  0  0  0  0
  -24.6405  -11.6930   20.8739 C   0  0  0  0  0  0
  -23.9068  -10.4336   21.0408 C   0  0  0  0  0  0
  -24.3635   -9.4255   21.9178 C   0  0  0  0  0  0
  -23.6325   -8.2281   22.0757 C   0  0  0  0  0  0
  -22.4305   -8.0314   21.3550 C   0  0  0  0  0  0
  -21.9930   -9.0279   20.4649 C   0  0  0  0  0  0
  -22.7251  -10.2160   20.3042 C   0  0  0  0  0  0
  -21.6873   -6.0767   22.5278 C   0  0  0  0  0  0
  -21.4025   -6.5667   23.8214 C   0  0  0  0  0  0
  -21.3637   -5.6807   24.9166 C   0  0  0  0  0  0
  -21.6026   -4.3074   24.7204 C   0  0  0  0  0  0
  -21.8836   -3.8176   23.4334 C   0  0  0  0  0  0
  -21.9212   -4.6995   22.3396 C   0  0  0  0  0  0
  -22.7871  -13.5266   21.1864 C   0  0  0  0  0  0
  -22.1690   -4.2185   21.0972 F   0  0  0  0  0  0
  -21.5594   -3.4548   25.7713 F   0  0  0  0  0  0
  -30.0161  -13.4021   20.4112 N   0  0  0  0  0  0
  -26.3001  -12.9338   20.3250 N   0  0  0  0  0  0
  -25.9322  -11.6521   20.5736 N   0  0  0  0  0  0
  -22.0511  -12.8222   22.0398 N   0  0  0  0  0  0
  -25.4358  -15.1883   20.3863 N   0  0  0  0  0  0
  -31.7453  -14.8476   20.0888 O   0  0  0  0  0  0
  -21.6665   -6.8907   21.4248 O   0  0  0  0  0  0
  -22.3551  -14.5580   20.6743 O   0  0  0  0  0  0
  -24.6184  -31.8649   23.1971 C   0  0  0  0  0  0
  -25.9035  -32.4822   23.8320 C   0  0  1  0  0  0
  -27.2586  -27.3527   20.1291 C   0  0  0  0  0  0
  -25.5858  -33.8613   24.2264 N   0  0  0  0  0  0
  -23.4173  -30.4763   21.5396 C   0  0  2  0  0  0
  -24.8720  -28.9189   20.1256 C   0  0  0  0  0  0
  -22.7476  -29.4645   22.4982 C   0  0  0  0  0  0
  -18.0315  -28.1459   22.8555 C   0  0  0  0  0  0
  -24.1473  -36.7252   23.2644 C   0  0  0  0  0  0
  -25.9495  -30.8052   21.3595 C   0  0  0  0  0  0
  -26.0330  -29.4242   20.7202 C   0  0  0  0  0  0
  -27.2304  -28.6592   20.7044 C   0  0  0  0  0  0
  -26.0689  -26.8665   19.5494 C   0  0  0  0  0  0
  -24.8906  -27.6439   19.5301 C   0  0  0  0  0  0
  -23.6361  -29.7944   20.1603 C   0  0  0  0  0  0
  -25.4123  -36.3116   24.0338 C   0  0  1  0  0  0
  -20.5929  -28.3716   23.1350 C   0  0  2  0  0  0
  -20.6837  -26.9459   22.5462 C   0  0  0  0  0  0
  -19.5790  -26.6455   21.5288 C   0  0  0  0  0  0
  -18.1948  -26.8025   22.1674 C   0  0  0  0  0  0
  -19.1582  -28.8912   23.2953 C   0  0  0  0  0  0
  -18.9505  -30.1533   23.8950 C   0  0  0  0  0  0
  -17.6506  -30.6666   24.0617 C   0  0  0  0  0  0
  -25.9075  -34.9493   23.5117 C   0  0  0  0  0  0
  -16.5388  -29.9177   23.6363 C   0  0  0  0  0  0
  -16.7318  -28.6595   23.0386 C   0  0  0  0  0  0
  -26.4445  -31.6604   25.0643 C   0  0  0  0  0  0
  -25.3638  -31.3754   26.1333 C   0  0  0  0  0  0
  -27.0296  -30.3058   24.6027 C   0  0  0  0  0  0
  -27.6008  -32.4320   25.7385 C   0  0  0  0  0  0
  -27.5598  -37.1790   24.8500 C   0  0  0  0  0  0
  -21.4208  -29.3046   22.3719 N   0  0  0  0  0  0
  -26.4314  -37.3810   23.9426 N   0  0  0  0  0  0
  -24.6800  -31.0670   22.0892 N   0  0  0  0  0  0
  -23.4193  -28.8225   23.3103 O   0  0  0  0  0  0
  -28.4557  -26.6525   19.9816 O   0  0  0  0  0  0
  -26.5687  -34.8959   22.4713 O   0  0  0  0  0  0
  -23.5364  -32.1427   23.7313 O   0  0  0  0  0  0
  -28.5032  -19.2126   21.3287 C   0  0  0  0  0  0
  -30.3561  -17.8718   19.7209 C   0  0  0  0  0  0
  -28.7844  -17.8325   21.5473 C   0  0  0  0  0  0
  -29.1171  -19.9714   20.3021 C   0  0  0  0  0  0
  -29.6886  -17.1074   20.7206 C   0  0  0  0  0  0
  -30.0780  -19.2673   19.5163 C   0  0  0  0  0  0
  -28.4358  -25.3015   22.0703 C   0  0  0  0  0  0
  -29.2451  -24.1574   22.6928 C   0  0  0  0  0  0
  -28.3997  -23.9606   19.9343 C   0  0  0  0  0  0
  -28.7710  -25.3521   20.5885 C   0  0  1  0  0  0
  -29.0346  -22.7488   22.0657 C   0  0  2  0  0  0
  -28.0728  -17.1342   22.6946 C   0  0  0  0  0  0
  -30.1283  -21.8512   22.6912 C   0  0  0  0  0  0
  -28.5608  -21.4166   19.9466 C   0  0  0  0  0  0
  -29.7531  -15.6481   20.8908 N   0  0  0  0  0  0
  -29.0693  -22.7249   20.5597 N   0  3  1  0  0  0
  -30.8809  -20.0856   18.2232 Cl  0  0  0  0  0  0
  -31.4762  -12.5349   19.1067 H   0  0  0  0  0  0
  -30.3990  -11.3906   19.8609 H   0  0  0  0  0  0
  -29.7499  -11.7151   17.4731 H   0  0  0  0  0  0
  -29.6368  -13.4412   17.6956 H   0  0  0  0  0  0
  -27.8559  -11.2852   18.8623 H   0  0  0  0  0  0
  -27.3600  -12.5615   17.7850 H   0  0  0  0  0  0
  -27.6840  -14.2423   19.5135 H   0  0  0  0  0  0
  -28.7215  -11.9984   21.3130 H   0  0  0  0  0  0
  -28.4549  -13.6323   21.8473 H   0  0  0  0  0  0
  -25.2807   -9.5737   22.4718 H   0  0  0  0  0  0
  -24.0050   -7.4689   22.7490 H   0  0  0  0  0  0
  -21.0847   -8.8797   19.8963 H   0  0  0  0  0  0
  -22.3736  -10.9681   19.6110 H   0  0  0  0  0  0
  -21.2038   -7.6178   23.9721 H   0  0  0  0  0  0
  -21.1413   -6.0534   25.9060 H   0  0  0  0  0  0
  -22.0631   -2.7644   23.2817 H   0  0  0  0  0  0
  -22.4147  -11.9874   22.4759 H   0  0  0  0  0  0
  -21.1107  -13.1190   22.2585 H   0  0  0  0  0  0
  -24.6752  -15.8536   20.4749 H   0  0  0  0  0  0
  -26.2687  -15.6012   19.9867 H   0  0  0  0  0  0
  -26.7100  -32.5586   23.1093 H   0  0  0  0  0  0
  -24.9916  -33.9759   25.0347 H   0  0  0  0  0  0
  -22.7119  -31.2948   21.3926 H   0  0  0  0  0  0
  -23.3807  -35.9524   23.3357 H   0  0  0  0  0  0
  -24.3560  -36.8812   22.2049 H   0  0  0  0  0  0
  -23.7124  -37.6412   23.6646 H   0  0  0  0  0  0
  -26.0684  -31.5604   20.5815 H   0  0  0  0  0  0
  -26.8324  -30.8714   21.9821 H   0  0  0  0  0  0
  -28.1342  -29.0743   21.1309 H   0  0  0  0  0  0
  -26.0669  -25.8934   19.0820 H   0  0  0  0  0  0
  -23.9976  -27.2545   19.0567 H   0  0  0  0  0  0
  -23.7451  -30.5588   19.3884 H   0  0  0  0  0  0
  -22.7645  -29.2033   19.8737 H   0  0  0  0  0  0
  -25.1309  -36.1980   25.0837 H   0  0  0  0  0  0
  -21.0054  -28.3302   24.1456 H   0  0  0  0  0  0
  -20.5854  -26.2292   23.3640 H   0  0  0  0  0  0
  -21.6676  -26.7581   22.1157 H   0  0  0  0  0  0
  -19.6906  -25.6377   21.1277 H   0  0  0  0  0  0
  -19.6715  -27.3325   20.6877 H   0  0  0  0  0  0
  -17.4240  -26.6880   21.4028 H   0  0  0  0  0  0
  -18.0265  -26.0171   22.9068 H   0  0  0  0  0  0
  -19.7973  -30.7391   24.2270 H   0  0  0  0  0  0
  -17.5059  -31.6342   24.5263 H   0  0  0  0  0  0
  -15.5400  -30.3109   23.7676 H   0  0  0  0  0  0
  -15.8720  -28.0953   22.7037 H   0  0  0  0  0  0
  -24.5827  -30.7114   25.7621 H   0  0  0  0  0  0
  -24.8809  -32.2948   26.4683 H   0  0  0  0  0  0
  -25.7883  -30.8954   27.0156 H   0  0  0  0  0  0
  -26.2863  -29.6795   24.1095 H   0  0  0  0  0  0
  -27.4104  -29.7305   25.4466 H   0  0  0  0  0  0
  -27.8666  -30.4417   23.9165 H   0  0  0  0  0  0
  -27.2659  -33.3659   26.1935 H   0  0  0  0  0  0
  -28.3823  -32.6811   25.0182 H   0  0  0  0  0  0
  -28.0687  -31.8444   26.5305 H   0  0  0  0  0  0
  -28.2665  -38.0054   24.7615 H   0  0  0  0  0  0
  -28.1042  -36.2596   24.6301 H   0  0  0  0  0  0
  -27.2325  -37.1414   25.8905 H   0  0  0  0  0  0
  -20.9399  -29.8603   21.6790 H   0  0  0  0  0  0
  -26.0210  -38.2877   24.1480 H   0  0  0  0  0  0
  -27.7717  -19.7023   21.9546 H   0  0  0  0  0  0
  -31.0476  -17.3806   19.0500 H   0  0  0  0  0  0
  -28.7146  -26.2444   22.5409 H   0  0  0  0  0  0
  -27.3647  -25.1724   22.2239 H   0  0  0  0  0  0
  -29.0135  -24.1044   23.7580 H   0  0  0  0  0  0
  -30.3046  -24.4189   22.6307 H   0  0  0  0  0  0
  -28.6524  -24.0009   18.8749 H   0  0  0  0  0  0
  -27.3172  -23.8434   19.9804 H   0  0  0  0  0  0
  -29.8607  -25.3953   20.5291 H   0  0  0  0  0  0
  -28.0538  -22.3904   22.3816 H   0  0  0  0  0  0
  -27.3208  -17.7685   23.1661 H   0  0  0  0  0  0
  -28.7922  -16.8483   23.4648 H   0  0  0  0  0  0
  -27.5632  -16.2376   22.3483 H   0  0  0  0  0  0
  -31.0738  -21.9140   22.1517 H   0  0  0  0  0  0
  -29.8347  -20.8098   22.7604 H   0  0  0  0  0  0
  -30.3382  -22.1462   23.7203 H   0  0  0  0  0  0
  -27.4938  -21.3786   20.1674 H   0  0  0  0  0  0
  -28.5997  -21.5193   18.8622 H   0  0  0  0  0  0
  -28.9119  -15.2648   21.2909 H   0  0  0  0  0  0
  -30.0423  -22.7919   20.3018 H   0  0  0  0  0  0
  1 25  1  0  0  0
  1 30  2  0  0  0
  1 85  1  0  0  0
  2  3  1  0  0  0
  2 25  1  0  0  0
  2 88  1  0  0  0
  2 89  1  0  0  0
  3  4  1  0  0  0
  3 90  1  0  0  0
  3 91  1  0  0  0
  4  5  1  0  0  0
  4 92  1  0  0  0
  4 93  1  0  0  0
  5  6  1  0  0  0
  5 26  1  0  0  0
  5 94  1  0  0  0
  6 25  1  0  0  0
  6 95  1  0  0  0
  6 96  1  0  0  0
  7  8  2  0  0  0
  7 26  1  0  0  0
  7 29  1  0  0  0
  8  9  1  0  0  0
  8 22  1  0  0  0
  9 10  1  0  0  0
  9 27  2  0  0  0
 10 11  2  0  0  0
 10 15  1  0  0  0
 11 12  1  0  0  0
 11 97  1  0  0  0
 12 13  2  0  0  0
 12 98  1  0  0  0
 13 14  1  0  0  0
 13 31  1  0  0  0
 14 15  2  0  0  0
 14 99  1  0  0  0
 15100  1  0  0  0
 16 17  2  0  0  0
 16 21  1  0  0  0
 16 31  1  0  0  0
 17 18  1  0  0  0
 17101  1  0  0  0
 18 19  2  0  0  0
 18102  1  0  0  0
 19 20  1  0  0  0
 19 24  1  0  0  0
 20 21  2  0  0  0
 20103  1  0  0  0
 21 23  1  0  0  0
 22 28  1  0  0  0
 22 32  2  0  0  0
 26 27  1  0  0  0
 28104  1  0  0  0
 28105  1  0  0  0
 29106  1  0  0  0
 29107  1  0  0  0
 33 34  1  0  0  0
 33 66  1  0  0  0
 33 70  2  0  0  0
 34 36  1  0  0  0
 34 59  1  0  0  0
 34108  1  0  0  0
 35 44  2  0  0  0
 35 45  1  0  0  0
 35 68  1  0  0  0
 36 56  1  0  0  0
 36109  1  0  0  0
 37 39  1  0  0  0
 37 47  1  0  0  0
 37 66  1  0  0  0
 37110  1  0  0  0
 38 43  2  0  0  0
 38 46  1  0  0  0
 38 47  1  0  0  0
 39 64  1  0  0  0
 39 67  2  0  0  0
 40 52  1  0  0  0
 40 53  2  0  0  0
 40 58  1  0  0  0
 41111  1  0  0  0
 41112  1  0  0  0
 41113  1  0  0  0
 41 48  1  0  0  0
 42 43  1  0  0  0
 42 66  1  0  0  0
 42114  1  0  0  0
 42115  1  0  0  0
 43 44  1  0  0  0
 44116  1  0  0  0
 45 46  2  0  0  0
 45117  1  0  0  0
 46118  1  0  0  0
 47119  1  0  0  0
 47120  1  0  0  0
 48 56  1  0  0  0
 48 65  1  0  0  0
 48121  1  0  0  0
 49 50  1  0  0  0
 49 53  1  0  0  0
 49 64  1  0  0  0
 49122  1  0  0  0
 50 51  1  0  0  0
 50123  1  0  0  0
 50124  1  0  0  0
 51 52  1  0  0  0
 51125  1  0  0  0
 51126  1  0  0  0
 52127  1  0  0  0
 52128  1  0  0  0
 53 54  1  0  0  0
 54 55  2  0  0  0
 54129  1  0  0  0
 55 57  1  0  0  0
 55130  1  0  0  0
 56 69  2  0  0  0
 57 58  2  0  0  0
 57131  1  0  0  0
 58132  1  0  0  0
 59 60  1  0  0  0
 59 61  1  0  0  0
 59 62  1  0  0  0
 60133  1  0  0  0
 60134  1  0  0  0
 60135  1  0  0  0
 61136  1  0  0  0
 61137  1  0  0  0
 61138  1  0  0  0
 62139  1  0  0  0
 62140  1  0  0  0
 62141  1  0  0  0
 63 65  1  0  0  0
 63142  1  0  0  0
 63143  1  0  0  0
 63144  1  0  0  0
 64145  1  0  0  0
 65146  1  0  0  0
 68 80  1  0  0  0
 71 73  2  0  0  0
 71 74  1  0  0  0
 71147  1  0  0  0
 72 75  2  0  0  0
 72 76  1  0  0  0
 72148  1  0  0  0
 73 75  1  0  0  0
 73 82  1  0  0  0
 74 76  2  0  0  0
 74 84  1  0  0  0
 75 85  1  0  0  0
 76 87  1  0  0  0
 77 78  1  0  0  0
 77 80  1  0  0  0
 77149  1  0  0  0
 77150  1  0  0  0
 78 81  1  0  0  0
 78151  1  0  0  0
 78152  1  0  0  0
 79 80  1  0  0  0
 79 86  1  0  0  0
 79153  1  0  0  0
 79154  1  0  0  0
 80155  1  0  0  0
 81 83  1  0  0  0
 81 86  1  0  0  0
 81156  1  0  0  0
 82157  1  0  0  0
 82158  1  0  0  0
 82159  1  0  0  0
 83160  1  0  0  0
 83161  1  0  0  0
 83162  1  0  0  0
 84163  1  0  0  0
 84164  1  0  0  0
 84 86  1  0  0  0
 85165  1  0  0  0
 86166  1  0  0  0
M  CHG  1  86   1
M  ISO  4   1 100  68 101  80 101  85 100
M  END
> <chiral flag>
0

> <version>
0

> <s_m_source_file>
/data/baiqing/PycharmProjects/Reinvent-master-3.2/result/LINK_invent/BTK/process_docking_weight1_custom_product_contain_oxygen_bond_distance_aromatic_linkinvent_7_9_3/rearranged_h_0034.sdf

> <i_m_source_file_index>
67

> <r_mmod_Potential_Energy-OPLS-2005>
36.0158920288086

> <r_mmod_Stretch_Energy-OPLS-2005>
85.3219604492188

> <r_mmod_Bend_Energy-OPLS-2005>
191.233200073242

> <r_mmod_Torsional_Energy-OPLS-2005>
271.426208496094

> <r_mmod_Improper_Torsional_Energy-OPLS-2005>
5.98897457122803

> <r_mmod_Van_der_Waal_Energy-OPLS-2005>
138.428680419922

> <r_mmod_Electrostatic_Energy-OPLS-2005>
-278.688812255859

> <r_mmod_Solvation_Energy-OPLS-2005>
-418.017181396484

> <b_mmod_Minimization_Converged-OPLS-2005>
0

> <r_mmod_RMS_Derivative-OPLS-2005>
5.17816781997681

$$$$
67
                    3D
 Structure written by MMmdl.
170179  0  0  1  0            999 V2000
  -29.9149  -15.2656   20.5163 C   0  0  0  0  0  0
  -30.4297  -12.9111   19.5816 C   0  0  0  0  0  0
  -29.5490  -12.5973   18.3063 C   0  0  0  0  0  0
  -28.0837  -12.2571   18.6940 C   0  0  0  0  0  0
  -27.5454  -13.2150   19.7898 C   0  0  2  0  0  0
  -28.5081  -13.3032   20.9871 C   0  0  0  0  0  0
  -25.2144  -13.7884   20.5764 C   0  0  0  0  0  0
  -24.1654  -13.0330   20.9249 C   0  0  0  0  0  0
  -24.6118  -11.6782   20.8637 C   0  0  0  0  0  0
  -23.8890  -10.4262   21.0398 C   0  0  0  0  0  0
  -24.3486   -9.4227   21.9206 C   0  0  0  0  0  0
  -23.6269   -8.2175   22.0780 C   0  0  0  0  0  0
  -22.4234   -8.0207   21.3524 C   0  0  0  0  0  0
  -21.9754   -9.0136   20.4618 C   0  0  0  0  0  0
  -22.7006  -10.2097   20.3067 C   0  0  0  0  0  0
  -21.6838   -6.0694   22.5239 C   0  0  0  0  0  0
  -21.3984   -6.5577   23.8221 C   0  0  0  0  0  0
  -21.3664   -5.6793   24.9147 C   0  0  0  0  0  0
  -21.6023   -4.3013   24.7274 C   0  0  0  0  0  0
  -21.8829   -3.8120   23.4352 C   0  0  0  0  0  0
  -21.9179   -4.6875   22.3451 C   0  0  0  0  0  0
  -22.7617  -13.5154   21.2054 C   0  0  0  0  0  0
  -22.1659   -4.2050   21.0996 F   0  0  0  0  0  0
  -21.5641   -3.4540   25.7781 F   0  0  0  0  0  0
  -29.7123  -13.8766   20.5109 N   0  0  0  0  0  0
  -26.2374  -12.9034   20.2814 N   0  0  0  0  0  0
  -25.8975  -11.6293   20.5393 N   0  0  0  0  0  0
  -22.0383  -12.8271   22.0598 N   0  0  0  0  0  0
  -25.3825  -15.1755   20.3885 N   0  0  0  0  0  0
  -31.0165  -15.5532   20.0397 O   0  0  0  0  0  0
  -21.6611   -6.8761   21.4262 O   0  0  0  0  0  0
  -22.3438  -14.5560   20.6829 O   0  0  0  0  0  0
  -24.6224  -31.8441   23.2345 C   0  0  0  0  0  0
  -25.9200  -32.4639   23.8452 C   0  0  1  0  0  0
  -26.7418  -27.0272   20.2755 C   0  0  0  0  0  0
  -25.6085  -33.8479   24.2314 N   0  0  0  0  0  0
  -23.4138  -30.5087   21.5539 C   0  0  2  0  0  0
  -24.8314  -29.0333   20.0148 C   0  0  0  0  0  0
  -22.6956  -29.4717   22.4790 C   0  0  0  0  0  0
  -17.8859  -28.2668   22.8340 C   0  0  0  0  0  0
  -24.1543  -36.7294   23.2613 C   0  0  0  0  0  0
  -25.9664  -30.6694   21.4536 C   0  0  0  0  0  0
  -25.9860  -29.3222   20.7776 C   0  0  0  0  0  0
  -26.9407  -28.2834   20.9616 C   0  0  0  0  0  0
  -25.8468  -27.0146   19.2193 C   0  0  0  0  0  0
  -24.7790  -27.8976   19.2184 C   0  0  0  0  0  0
  -23.6329  -29.9368   20.1209 C   0  0  0  0  0  0
  -25.4157  -36.3031   24.0306 C   0  0  1  0  0  0
  -20.4426  -28.4522   23.1260 C   0  0  2  0  0  0
  -20.4894  -26.9632   22.6227 C   0  0  0  0  0  0
  -19.4473  -26.6180   21.5175 C   0  0  0  0  0  0
  -18.0085  -26.9940   22.0035 C   0  0  0  0  0  0
  -19.0183  -29.0129   23.3075 C   0  0  0  0  0  0
  -18.8115  -30.2775   23.9493 C   0  0  0  0  0  0
  -17.4561  -30.7513   24.1493 C   0  0  0  0  0  0
  -25.9081  -34.9393   23.5064 C   0  0  0  0  0  0
  -16.3465  -29.9990   23.6888 C   0  0  0  0  0  0
  -16.5645  -28.7844   23.0397 C   0  0  0  0  0  0
  -26.4629  -31.6519   25.0885 C   0  0  0  0  0  0
  -25.3765  -31.3787   26.1551 C   0  0  0  0  0  0
  -27.0390  -30.2889   24.6416 C   0  0  0  0  0  0
  -27.6149  -32.4238   25.7659 C   0  0  0  0  0  0
  -27.5609  -37.1851   24.8470 C   0  0  0  0  0  0
  -21.3435  -29.3815   22.3996 N   0  0  0  0  0  0
  -26.4309  -37.3750   23.9380 N   0  0  0  0  0  0
  -24.6776  -31.0291   22.1428 N   0  0  0  0  0  0
  -23.3569  -28.7560   23.2357 O   0  0  0  0  0  0
  -26.9724  -25.7323   20.7815 O   0  0  0  0  0  0
  -26.5538  -34.8787   22.4600 O   0  0  0  0  0  0
  -23.5380  -32.1296   23.7624 O   0  0  0  0  0  0
  -26.4858  -20.0593   19.9102 C   0  0  0  0  0  0
  -27.2212  -19.3267   18.9637 C   0  0  0  0  0  0
  -27.3503  -18.4448   21.5282 C   0  0  0  0  0  0
  -26.5084  -19.6369   21.2466 C   0  0  0  0  0  0
  -28.0554  -18.2260   19.2664 C   0  0  0  0  0  0
  -28.1602  -17.6167   20.5838 C   0  0  0  0  0  0
  -24.4270  -22.6745   23.1682 C   0  0  0  0  0  0
  -24.5822  -23.2315   24.3927 C   0  0  0  0  0  0
  -23.1183  -23.0658   22.4766 C   0  0  0  0  0  0
  -23.0559  -24.6159   22.1717 C   0  0  0  0  0  0
  -24.1140  -25.3712   21.2250 C   0  0  0  0  0  0
  -25.6018  -23.1023   20.9898 C   0  0  0  0  0  0
  -25.6569  -24.7737   20.9333 C   0  0  2  0  0  0
  -28.7189  -17.7308   18.0543 C   0  0  0  0  0  0
  -25.8411  -23.7351   25.0905 C   0  0  0  0  0  0
  -25.5395  -20.5351   22.1697 C   0  0  0  0  0  0
  -28.8289  -16.2069   20.9278 N   0  0  0  0  0  0
  -25.5807  -22.1513   22.2204 N   0  3  2  0  0  0
  -31.3864  -13.3162   19.2021 H   0  0  0  0  0  0
  -30.6230  -11.9657   20.1481 H   0  0  0  0  0  0
  -29.9756  -11.7645   17.7138 H   0  0  0  0  0  0
  -29.5306  -13.4805   17.6427 H   0  0  0  0  0  0
  -28.0717  -11.2212   19.1074 H   0  0  0  0  0  0
  -27.4157  -12.2853   17.8174 H   0  0  0  0  0  0
  -27.4923  -14.1985   19.3157 H   0  0  0  0  0  0
  -28.7209  -12.3268   21.4571 H   0  0  0  0  0  0
  -28.1012  -13.9156   21.7699 H   0  0  0  0  0  0
  -25.2647   -9.5708   22.4725 H   0  0  0  0  0  0
  -23.9931   -7.4607   22.7534 H   0  0  0  0  0  0
  -21.0613   -8.8614   19.9012 H   0  0  0  0  0  0
  -22.3417  -10.9588   19.6157 H   0  0  0  0  0  0
  -21.1959   -7.6092   23.9649 H   0  0  0  0  0  0
  -21.1488   -6.0523   25.9060 H   0  0  0  0  0  0
  -22.0602   -2.7549   23.2939 H   0  0  0  0  0  0
  -22.3898  -11.9820   22.4990 H   0  0  0  0  0  0
  -21.0963  -13.1343   22.2757 H   0  0  0  0  0  0
  -24.5657  -15.7455   20.4380 H   0  0  0  0  0  0
  -26.0304  -15.4703   19.6738 H   0  0  0  0  0  0
  -26.7138  -32.5128   23.0971 H   0  0  0  0  0  0
  -25.0640  -33.9676   25.0739 H   0  0  0  0  0  0
  -22.7409  -31.3759   21.4193 H   0  0  0  0  0  0
  -23.3781  -35.9658   23.3237 H   0  0  0  0  0  0
  -24.3656  -36.8963   22.2037 H   0  0  0  0  0  0
  -23.7321  -37.6495   23.6650 H   0  0  0  0  0  0
  -26.1313  -31.4144   20.6863 H   0  0  0  0  0  0
  -26.8502  -30.6964   22.0930 H   0  0  0  0  0  0
  -27.5878  -28.3084   21.8289 H   0  0  0  0  0  0
  -25.7767  -26.1869   18.5321 H   0  0  0  0  0  0
  -23.9574  -27.7157   18.5622 H   0  0  0  0  0  0
  -23.7813  -30.7569   19.3978 H   0  0  0  0  0  0
  -22.7435  -29.4033   19.7850 H   0  0  0  0  0  0
  -25.1331  -36.1871   25.0795 H   0  0  0  0  0  0
  -20.9131  -28.5111   24.0935 H   0  0  0  0  0  0
  -20.3440  -26.2718   23.4899 H   0  0  0  0  0  0
  -21.5211  -26.8123   22.3698 H   0  0  0  0  0  0
  -19.4772  -25.5897   21.1746 H   0  0  0  0  0  0
  -19.6746  -27.2688   20.5961 H   0  0  0  0  0  0
  -17.5740  -27.3152   21.0902 H   0  0  0  0  0  0
  -17.2619  -26.2496   22.3807 H   0  0  0  0  0  0
  -19.5817  -30.9391   24.3365 H   0  0  0  0  0  0
  -17.2198  -31.6727   24.7101 H   0  0  0  0  0  0
  -15.3533  -30.3804   23.9047 H   0  0  0  0  0  0
  -15.6551  -28.2814   22.6700 H   0  0  0  0  0  0
  -24.5904  -30.7202   25.7892 H   0  0  0  0  0  0
  -24.9048  -32.3021   26.4882 H   0  0  0  0  0  0
  -25.7986  -30.8980   27.0376 H   0  0  0  0  0  0
  -26.2983  -29.6698   24.1352 H   0  0  0  0  0  0
  -27.3908  -29.7090   25.4957 H   0  0  0  0  0  0
  -27.8998  -30.4097   23.9826 H   0  0  0  0  0  0
  -27.2800  -33.3530   26.2220 H   0  0  0  0  0  0
  -28.4063  -32.6738   25.0612 H   0  0  0  0  0  0
  -28.0681  -31.8347   26.5607 H   0  0  0  0  0  0
  -28.2579  -38.0182   24.7489 H   0  0  0  0  0  0
  -28.1123  -36.2703   24.6313 H   0  0  0  0  0  0
  -27.2315  -37.1553   25.8864 H   0  0  0  0  0  0
  -20.8693  -30.0842   21.8749 H   0  0  0  0  0  0
  -26.0165  -38.2806   24.1398 H   0  0  0  0  0  0
  -25.8106  -20.8078   19.5068 H   0  0  0  0  0  0
  -27.1602  -19.7711   17.9472 H   0  0  0  0  0  0
  -27.1234  -18.0667   22.5169 H   0  0  0  0  0  0
  -23.6840  -23.6180   24.8795 H   0  0  0  0  0  0
  -22.3365  -22.8305   23.1676 H   0  0  0  0  0  0
  -22.8740  -22.4604   21.6321 H   0  0  0  0  0  0
  -23.0004  -25.1200   23.1451 H   0  0  0  0  0  0
  -22.0060  -24.7964   21.8026 H   0  0  0  0  0  0
  -24.2055  -26.4266   21.6132 H   0  0  0  0  0  0
  -23.5920  -25.4667   20.2646 H   0  0  0  0  0  0
  -24.6276  -22.9690   20.5832 H   0  0  0  0  0  0
  -26.2035  -22.7700   20.1682 H   0  0  0  0  0  0
  -25.5830  -24.5529   19.8686 H   0  0  0  0  0  0
  -28.0446  -16.9660   17.6652 H   0  0  0  0  0  0
  -29.7316  -17.3814   18.2636 H   0  0  0  0  0  0
  -28.7817  -18.5331   17.2976 H   0  0  0  0  0  0
  -26.3564  -24.4444   24.4056 H   0  0  0  0  0  0
  -26.5247  -22.9249   25.3983 H   0  0  0  0  0  0
  -25.4659  -24.2816   25.9729 H   0  0  0  0  0  0
  -25.6238  -20.1476   23.1678 H   0  0  0  0  0  0
  -24.4984  -20.2884   21.7955 H   0  0  0  0  0  0
  -28.1799  -15.6713   21.5191 H   0  0  0  0  0  0
  -26.4494  -22.3484   22.6719 H   0  0  0  0  0  0
  1 25  1  0  0  0
  1 30  2  0  0  0
  1 87  1  0  0  0
  2  3  1  0  0  0
  2 25  1  0  0  0
  2 89  1  0  0  0
  2 90  1  0  0  0
  3  4  1  0  0  0
  3 91  1  0  0  0
  3 92  1  0  0  0
  4  5  1  0  0  0
  4 93  1  0  0  0
  4 94  1  0  0  0
  5  6  1  0  0  0
  5 26  1  0  0  0
  5 95  1  0  0  0
  6 25  1  0  0  0
  6 96  1  0  0  0
  6 97  1  0  0  0
  7  8  2  0  0  0
  7 26  1  0  0  0
  7 29  1  0  0  0
  8  9  1  0  0  0
  8 22  1  0  0  0
  9 10  1  0  0  0
  9 27  2  0  0  0
 10 11  2  0  0  0
 10 15  1  0  0  0
 11 12  1  0  0  0
 11 98  1  0  0  0
 12 13  2  0  0  0
 12 99  1  0  0  0
 13 14  1  0  0  0
 13 31  1  0  0  0
 14 15  2  0  0  0
 14100  1  0  0  0
 15101  1  0  0  0
 16 17  2  0  0  0
 16 21  1  0  0  0
 16 31  1  0  0  0
 17 18  1  0  0  0
 17102  1  0  0  0
 18 19  2  0  0  0
 18103  1  0  0  0
 19 20  1  0  0  0
 19 24  1  0  0  0
 20 21  2  0  0  0
 20104  1  0  0  0
 21 23  1  0  0  0
 22 28  1  0  0  0
 22 32  2  0  0  0
 26 27  1  0  0  0
 28105  1  0  0  0
 28106  1  0  0  0
 29107  1  0  0  0
 29108  1  0  0  0
 33 34  1  0  0  0
 33 66  1  0  0  0
 33 70  2  0  0  0
 34 36  1  0  0  0
 34 59  1  0  0  0
 34109  1  0  0  0
 35 44  2  0  0  0
 35 45  1  0  0  0
 35 68  1  0  0  0
 36 56  1  0  0  0
 36110  1  0  0  0
 37 39  1  0  0  0
 37 47  1  0  0  0
 37 66  1  0  0  0
 37111  1  0  0  0
 38 43  2  0  0  0
 38 46  1  0  0  0
 38 47  1  0  0  0
 39 64  1  0  0  0
 39 67  2  0  0  0
 40 52  1  0  0  0
 40 53  2  0  0  0
 40 58  1  0  0  0
 41112  1  0  0  0
 41113  1  0  0  0
 41114  1  0  0  0
 41 48  1  0  0  0
 42 43  1  0  0  0
 42 66  1  0  0  0
 42115  1  0  0  0
 42116  1  0  0  0
 43 44  1  0  0  0
 44117  1  0  0  0
 45 46  2  0  0  0
 45118  1  0  0  0
 46119  1  0  0  0
 47120  1  0  0  0
 47121  1  0  0  0
 48 56  1  0  0  0
 48 65  1  0  0  0
 48122  1  0  0  0
 49 50  1  0  0  0
 49 53  1  0  0  0
 49 64  1  0  0  0
 49123  1  0  0  0
 50 51  1  0  0  0
 50124  1  0  0  0
 50125  1  0  0  0
 51 52  1  0  0  0
 51126  1  0  0  0
 51127  1  0  0  0
 52128  1  0  0  0
 52129  1  0  0  0
 53 54  1  0  0  0
 54 55  2  0  0  0
 54130  1  0  0  0
 55 57  1  0  0  0
 55131  1  0  0  0
 56 69  2  0  0  0
 57 58  2  0  0  0
 57132  1  0  0  0
 58133  1  0  0  0
 59 60  1  0  0  0
 59 61  1  0  0  0
 59 62  1  0  0  0
 60134  1  0  0  0
 60135  1  0  0  0
 60136  1  0  0  0
 61137  1  0  0  0
 61138  1  0  0  0
 61139  1  0  0  0
 62140  1  0  0  0
 62141  1  0  0  0
 62142  1  0  0  0
 63 65  1  0  0  0
 63143  1  0  0  0
 63144  1  0  0  0
 63145  1  0  0  0
 64146  1  0  0  0
 65147  1  0  0  0
 68 83  1  0  0  0
 71 72  2  0  0  0
 71 74  1  0  0  0
 71148  1  0  0  0
 72 75  1  0  0  0
 72149  1  0  0  0
 73 74  2  0  0  0
 73 76  1  0  0  0
 73150  1  0  0  0
 74 86  1  0  0  0
 75 76  2  0  0  0
 75 84  1  0  0  0
 76 87  1  0  0  0
 77 78  2  0  0  0
 77 79  1  0  0  0
 77 88  1  0  0  0
 78 85  1  0  0  0
 78151  1  0  0  0
 79 80  1  0  0  0
 79152  1  0  0  0
 79153  1  0  0  0
 80 81  1  0  0  0
 80154  1  0  0  0
 80155  1  0  0  0
 81 83  1  0  0  0
 81156  1  0  0  0
 81157  1  0  0  0
 82 83  1  0  0  0
 82 88  1  0  0  0
 82158  1  0  0  0
 82159  1  0  0  0
 83160  1  0  0  0
 84161  1  0  0  0
 84162  1  0  0  0
 84163  1  0  0  0
 85164  1  0  0  0
 85165  1  0  0  0
 85166  1  0  0  0
 86167  1  0  0  0
 86168  1  0  0  0
 86 88  1  0  0  0
 87169  1  0  0  0
 88170  1  0  0  0
M  CHG  1  88   1
M  ISO  4   1 100  68 101  83 101  87 100
M  END
> <chiral flag>
0

> <version>
0

> <s_m_source_file>
/data/baiqing/PycharmProjects/Reinvent-master-3.2/result/LINK_invent/BTK/process_docking_weight1_custom_product_contain_oxygen_bond_distance_aromatic_linkinvent_7_9_3/rearranged_h_0034.sdf

> <i_m_source_file_index>
68

> <r_mmod_Potential_Energy-OPLS-2005>
1851.8076171875

> <r_mmod_Stretch_Energy-OPLS-2005>
464.559906005859

> <r_mmod_Bend_Energy-OPLS-2005>
539.846008300781

> <r_mmod_Torsional_Energy-OPLS-2005>
421.67529296875

> <r_mmod_Improper_Torsional_Energy-OPLS-2005>
20.3540229797363

> <r_mmod_Van_der_Waal_Energy-OPLS-2005>
150.800521850586

> <r_mmod_Electrostatic_Energy-OPLS-2005>
-307.633392333984

> <r_mmod_Solvation_Energy-OPLS-2005>
-404.429595947266

> <b_mmod_Minimization_Converged-OPLS-2005>
0

> <r_mmod_RMS_Derivative-OPLS-2005>
73.300537109375

$$$$
68
                    3D
 Structure written by MMmdl.
164173  0  0  1  0            999 V2000
  -30.7422  -14.4999   20.5603 C   0  0  0  0  0  0
  -30.4043  -12.3354   19.4286 C   0  0  0  0  0  0
  -29.4817  -12.5208   18.2079 C   0  0  0  0  0  0
  -28.0058  -12.3791   18.6194 C   0  0  0  0  0  0
  -27.6500  -13.2260   19.8696 C   0  0  2  0  0  0
  -28.6963  -13.0586   20.9938 C   0  0  0  0  0  0
  -25.2496  -13.8213   20.5720 C   0  0  0  0  0  0
  -24.1748  -13.0480   20.9141 C   0  0  0  0  0  0
  -24.6334  -11.6952   20.8742 C   0  0  0  0  0  0
  -23.9017  -10.4331   21.0435 C   0  0  0  0  0  0
  -24.3549   -9.4273   21.9243 C   0  0  0  0  0  0
  -23.6262   -8.2280   22.0791 C   0  0  0  0  0  0
  -22.4267   -8.0272   21.3547 C   0  0  0  0  0  0
  -21.9933   -9.0236   20.4620 C   0  0  0  0  0  0
  -22.7232  -10.2122   20.3030 C   0  0  0  0  0  0
  -21.6847   -6.0733   22.5290 C   0  0  0  0  0  0
  -21.3978   -6.5622   23.8220 C   0  0  0  0  0  0
  -21.3675   -5.6774   24.9184 C   0  0  0  0  0  0
  -21.6063   -4.3040   24.7225 C   0  0  0  0  0  0
  -21.8826   -3.8144   23.4344 C   0  0  0  0  0  0
  -21.9194   -4.6965   22.3405 C   0  0  0  0  0  0
  -22.7742  -13.5213   21.1776 C   0  0  0  0  0  0
  -22.1690   -4.2179   21.0990 F   0  0  0  0  0  0
  -21.5678   -3.4516   25.7740 F   0  0  0  0  0  0
  -30.0248  -13.3468   20.4322 N   0  0  0  0  0  0
  -26.2940  -12.9422   20.3379 N   0  0  0  0  0  0
  -25.9258  -11.6575   20.5775 N   0  0  0  0  0  0
  -22.0457  -12.8204   22.0394 N   0  0  0  0  0  0
  -25.4261  -15.1944   20.4199 N   0  0  0  0  0  0
  -31.8748  -14.6129   20.0852 O   0  0  0  0  0  0
  -21.6635   -6.8876   21.4253 O   0  0  0  0  0  0
  -22.3395  -14.5458   20.6508 O   0  0  0  0  0  0
  -24.6169  -31.8677   23.2087 C   0  0  0  0  0  0
  -25.9060  -32.4822   23.8375 C   0  0  1  0  0  0
  -27.2357  -27.4020   20.1208 C   0  0  0  0  0  0
  -25.5908  -33.8621   24.2329 N   0  0  0  0  0  0
  -23.4038  -30.4934   21.5503 C   0  0  2  0  0  0
  -24.8495  -28.9423   20.1337 C   0  0  0  0  0  0
  -22.7405  -29.4681   22.4988 C   0  0  0  0  0  0
  -18.0271  -28.1368   22.8496 C   0  0  0  0  0  0
  -24.1486  -36.7320   23.2643 C   0  0  0  0  0  0
  -25.9352  -30.8225   21.3654 C   0  0  0  0  0  0
  -26.0113  -29.4449   20.7345 C   0  0  0  0  0  0
  -27.2080  -28.6838   20.7276 C   0  0  0  0  0  0
  -26.0573  -26.9262   19.5092 C   0  0  0  0  0  0
  -24.8659  -27.6765   19.5252 C   0  0  0  0  0  0
  -23.6161  -29.8210   20.1681 C   0  0  0  0  0  0
  -25.4104  -36.3118   24.0352 C   0  0  1  0  0  0
  -20.5864  -28.3673   23.1302 C   0  0  2  0  0  0
  -20.6762  -26.9407   22.5410 C   0  0  0  0  0  0
  -19.5740  -26.6381   21.5207 C   0  0  0  0  0  0
  -18.1921  -26.7908   22.1624 C   0  0  0  0  0  0
  -19.1528  -28.8829   23.2895 C   0  0  0  0  0  0
  -18.9454  -30.1428   23.8916 C   0  0  0  0  0  0
  -17.6463  -30.6580   24.0564 C   0  0  0  0  0  0
  -25.9036  -34.9486   23.5130 C   0  0  0  0  0  0
  -16.5351  -29.9091   23.6317 C   0  0  0  0  0  0
  -16.7260  -28.6501   23.0348 C   0  0  0  0  0  0
  -26.4477  -31.6578   25.0692 C   0  0  0  0  0  0
  -25.3759  -31.3656   26.1449 C   0  0  0  0  0  0
  -27.0314  -30.3031   24.6041 C   0  0  0  0  0  0
  -27.6043  -32.4289   25.7467 C   0  0  0  0  0  0
  -27.5580  -37.1815   24.8476 C   0  0  0  0  0  0
  -21.4140  -29.3054   22.3725 N   0  0  0  0  0  0
  -26.4294  -37.3798   23.9413 N   0  0  0  0  0  0
  -24.6703  -31.0764   22.0998 N   0  0  0  0  0  0
  -23.4171  -28.8237   23.3048 O   0  0  0  0  0  0
  -28.4176  -26.7114   19.9154 O   0  0  0  0  0  0
  -26.5605  -34.8932   22.4702 O   0  0  0  0  0  0
  -23.5360  -32.1465   23.7468 O   0  0  0  0  0  0
  -29.8496  -18.7167   22.6850 C   0  0  0  0  0  0
  -28.9173  -20.2050   20.5130 C   0  0  0  0  0  0
  -29.2393  -19.9736   22.9096 C   0  0  0  0  0  0
  -30.0079  -18.1787   21.3901 C   0  0  0  0  0  0
  -28.7595  -20.7475   21.8120 C   0  0  0  0  0  0
  -29.5271  -18.9458   20.2966 C   0  0  0  0  0  0
  -28.2083  -24.3016   20.7834 C   0  0  0  0  0  0
  -29.6595  -25.0221   23.1834 C   0  0  0  0  0  0
  -29.2400  -26.1762   22.2389 C   0  0  0  0  0  0
  -29.8698  -23.6772   22.4513 C   0  0  0  0  0  0
  -28.9267  -25.6898   20.8086 C   0  0  1  0  0  0
  -29.1407  -20.4305   24.3580 C   0  0  0  0  0  0
  -28.0003  -22.0891   21.9762 C   0  0  0  0  0  0
  -30.8343  -16.8904   21.2064 C   0  0  0  0  0  0
  -28.7040  -23.3483   21.6244 N   0  0  0  0  0  0
  -30.1421  -15.5815   21.1081 N   0  0  0  0  0  0
  -27.2373  -24.0977   20.0502 O   0  0  0  0  0  0
  -29.6969  -18.3851   18.6711 Cl  0  0  0  0  0  0
  -31.4491  -12.4132   19.1214 H   0  0  0  0  0  0
  -30.2912  -11.3342   19.8446 H   0  0  0  0  0  0
  -29.7297  -11.7996   17.4273 H   0  0  0  0  0  0
  -29.6309  -13.5106   17.7767 H   0  0  0  0  0  0
  -27.8162  -11.3240   18.8164 H   0  0  0  0  0  0
  -27.3590  -12.6563   17.7843 H   0  0  0  0  0  0
  -27.6812  -14.2692   19.5530 H   0  0  0  0  0  0
  -28.6779  -12.0387   21.3761 H   0  0  0  0  0  0
  -28.4597  -13.7060   21.8378 H   0  0  0  0  0  0
  -25.2642   -9.5796   22.4858 H   0  0  0  0  0  0
  -23.9950   -7.4699   22.7528 H   0  0  0  0  0  0
  -21.0933   -8.8710   19.8838 H   0  0  0  0  0  0
  -22.3661  -10.9607   19.6089 H   0  0  0  0  0  0
  -21.1896   -7.6112   23.9736 H   0  0  0  0  0  0
  -21.1503   -6.0483   25.9111 H   0  0  0  0  0  0
  -22.0560   -2.7611   23.2827 H   0  0  0  0  0  0
  -22.4089  -11.9862   22.4768 H   0  0  0  0  0  0
  -21.1080  -13.1206   22.2660 H   0  0  0  0  0  0
  -24.6601  -15.8515   20.5060 H   0  0  0  0  0  0
  -26.2850  -15.6288   20.1119 H   0  0  0  0  0  0
  -26.7138  -32.5526   23.1137 H   0  0  0  0  0  0
  -25.0036  -33.9755   25.0463 H   0  0  0  0  0  0
  -22.6944  -31.3128   21.4111 H   0  0  0  0  0  0
  -23.3732  -35.9666   23.3323 H   0  0  0  0  0  0
  -24.3585  -36.8911   22.2051 H   0  0  0  0  0  0
  -23.7250  -37.6543   23.6636 H   0  0  0  0  0  0
  -26.0462  -31.5731   20.5809 H   0  0  0  0  0  0
  -26.8252  -30.8865   21.9781 H   0  0  0  0  0  0
  -28.1125  -29.0916   21.1591 H   0  0  0  0  0  0
  -26.0627  -25.9822   18.9863 H   0  0  0  0  0  0
  -23.9796  -27.2827   19.0481 H   0  0  0  0  0  0
  -23.7371  -30.5968   19.4112 H   0  0  0  0  0  0
  -22.7338  -29.2544   19.8653 H   0  0  0  0  0  0
  -25.1273  -36.1986   25.0847 H   0  0  0  0  0  0
  -20.9960  -28.3236   24.1417 H   0  0  0  0  0  0
  -20.5645  -26.2292   23.3606 H   0  0  0  0  0  0
  -21.6635  -26.7433   22.1218 H   0  0  0  0  0  0
  -19.6900  -25.6296   21.1226 H   0  0  0  0  0  0
  -19.6659  -27.3202   20.6745 H   0  0  0  0  0  0
  -17.4186  -26.6657   21.4028 H   0  0  0  0  0  0
  -18.0322  -26.0043   22.9015 H   0  0  0  0  0  0
  -19.7939  -30.7229   24.2304 H   0  0  0  0  0  0
  -17.5026  -31.6262   24.5162 H   0  0  0  0  0  0
  -15.5358  -30.3004   23.7611 H   0  0  0  0  0  0
  -15.8661  -28.0819   22.7053 H   0  0  0  0  0  0
  -24.5928  -30.7006   25.7787 H   0  0  0  0  0  0
  -24.8952  -32.2795   26.4946 H   0  0  0  0  0  0
  -25.8128  -30.8794   27.0183 H   0  0  0  0  0  0
  -26.2842  -29.6770   24.1146 H   0  0  0  0  0  0
  -27.4174  -29.7269   25.4460 H   0  0  0  0  0  0
  -27.8634  -30.4368   23.9123 H   0  0  0  0  0  0
  -27.2655  -33.3575   26.2074 H   0  0  0  0  0  0
  -28.3838  -32.6872   25.0288 H   0  0  0  0  0  0
  -28.0728  -31.8397   26.5363 H   0  0  0  0  0  0
  -28.2620  -38.0089   24.7500 H   0  0  0  0  0  0
  -28.1045  -36.2622   24.6321 H   0  0  0  0  0  0
  -27.2299  -37.1502   25.8880 H   0  0  0  0  0  0
  -20.9298  -29.8796   21.6970 H   0  0  0  0  0  0
  -26.0185  -38.2885   24.1379 H   0  0  0  0  0  0
  -30.2466  -18.1730   23.5326 H   0  0  0  0  0  0
  -28.5633  -20.7581   19.6563 H   0  0  0  0  0  0
  -28.8798  -24.8843   23.9349 H   0  0  0  0  0  0
  -30.5586  -25.2924   23.7391 H   0  0  0  0  0  0
  -30.0516  -26.9041   22.1876 H   0  0  0  0  0  0
  -28.3795  -26.6991   22.6568 H   0  0  0  0  0  0
  -30.0667  -22.8874   23.1750 H   0  0  0  0  0  0
  -30.7521  -23.7197   21.8101 H   0  0  0  0  0  0
  -29.8973  -25.4684   20.3607 H   0  0  0  0  0  0
  -28.1993  -20.9237   24.5821 H   0  0  0  0  0  0
  -29.9606  -21.1011   24.6122 H   0  0  0  0  0  0
  -29.2002  -19.5812   25.0424 H   0  0  0  0  0  0
  -27.0707  -21.9991   21.4123 H   0  0  0  0  0  0
  -27.6608  -22.2138   23.0023 H   0  0  0  0  0  0
  -31.5256  -16.8246   22.0474 H   0  0  0  0  0  0
  -31.4809  -17.0438   20.3379 H   0  0  0  0  0  0
  -29.2127  -15.4938   21.4914 H   0  0  0  0  0  0
  1 25  1  0  0  0
  1 30  2  0  0  0
  1 86  1  0  0  0
  2  3  1  0  0  0
  2 25  1  0  0  0
  2 89  1  0  0  0
  2 90  1  0  0  0
  3  4  1  0  0  0
  3 91  1  0  0  0
  3 92  1  0  0  0
  4  5  1  0  0  0
  4 93  1  0  0  0
  4 94  1  0  0  0
  5  6  1  0  0  0
  5 26  1  0  0  0
  5 95  1  0  0  0
  6 25  1  0  0  0
  6 96  1  0  0  0
  6 97  1  0  0  0
  7  8  2  0  0  0
  7 26  1  0  0  0
  7 29  1  0  0  0
  8  9  1  0  0  0
  8 22  1  0  0  0
  9 10  1  0  0  0
  9 27  2  0  0  0
 10 11  2  0  0  0
 10 15  1  0  0  0
 11 12  1  0  0  0
 11 98  1  0  0  0
 12 13  2  0  0  0
 12 99  1  0  0  0
 13 14  1  0  0  0
 13 31  1  0  0  0
 14 15  2  0  0  0
 14100  1  0  0  0
 15101  1  0  0  0
 16 17  2  0  0  0
 16 21  1  0  0  0
 16 31  1  0  0  0
 17 18  1  0  0  0
 17102  1  0  0  0
 18 19  2  0  0  0
 18103  1  0  0  0
 19 20  1  0  0  0
 19 24  1  0  0  0
 20 21  2  0  0  0
 20104  1  0  0  0
 21 23  1  0  0  0
 22 28  1  0  0  0
 22 32  2  0  0  0
 26 27  1  0  0  0
 28105  1  0  0  0
 28106  1  0  0  0
 29107  1  0  0  0
 29108  1  0  0  0
 33 34  1  0  0  0
 33 66  1  0  0  0
 33 70  2  0  0  0
 34 36  1  0  0  0
 34 59  1  0  0  0
 34109  1  0  0  0
 35 44  2  0  0  0
 35 45  1  0  0  0
 35 68  1  0  0  0
 36 56  1  0  0  0
 36110  1  0  0  0
 37 39  1  0  0  0
 37 47  1  0  0  0
 37 66  1  0  0  0
 37111  1  0  0  0
 38 43  2  0  0  0
 38 46  1  0  0  0
 38 47  1  0  0  0
 39 64  1  0  0  0
 39 67  2  0  0  0
 40 52  1  0  0  0
 40 53  2  0  0  0
 40 58  1  0  0  0
 41112  1  0  0  0
 41113  1  0  0  0
 41114  1  0  0  0
 41 48  1  0  0  0
 42 43  1  0  0  0
 42 66  1  0  0  0
 42115  1  0  0  0
 42116  1  0  0  0
 43 44  1  0  0  0
 44117  1  0  0  0
 45 46  2  0  0  0
 45118  1  0  0  0
 46119  1  0  0  0
 47120  1  0  0  0
 47121  1  0  0  0
 48 56  1  0  0  0
 48 65  1  0  0  0
 48122  1  0  0  0
 49 50  1  0  0  0
 49 53  1  0  0  0
 49 64  1  0  0  0
 49123  1  0  0  0
 50 51  1  0  0  0
 50124  1  0  0  0
 50125  1  0  0  0
 51 52  1  0  0  0
 51126  1  0  0  0
 51127  1  0  0  0
 52128  1  0  0  0
 52129  1  0  0  0
 53 54  1  0  0  0
 54 55  2  0  0  0
 54130  1  0  0  0
 55 57  1  0  0  0
 55131  1  0  0  0
 56 69  2  0  0  0
 57 58  2  0  0  0
 57132  1  0  0  0
 58133  1  0  0  0
 59 60  1  0  0  0
 59 61  1  0  0  0
 59 62  1  0  0  0
 60134  1  0  0  0
 60135  1  0  0  0
 60136  1  0  0  0
 61137  1  0  0  0
 61138  1  0  0  0
 61139  1  0  0  0
 62140  1  0  0  0
 62141  1  0  0  0
 62142  1  0  0  0
 63 65  1  0  0  0
 63143  1  0  0  0
 63144  1  0  0  0
 63145  1  0  0  0
 64146  1  0  0  0
 65147  1  0  0  0
 68 81  1  0  0  0
 71 73  2  0  0  0
 71 74  1  0  0  0
 71148  1  0  0  0
 72 75  2  0  0  0
 72 76  1  0  0  0
 72149  1  0  0  0
 73 75  1  0  0  0
 73 82  1  0  0  0
 74 76  2  0  0  0
 74 84  1  0  0  0
 75 83  1  0  0  0
 76 88  1  0  0  0
 77 81  1  0  0  0
 77 85  1  0  0  0
 77 87  2  0  0  0
 78 79  1  0  0  0
 78 80  1  0  0  0
 78150  1  0  0  0
 78151  1  0  0  0
 79 81  1  0  0  0
 79152  1  0  0  0
 79153  1  0  0  0
 80 85  1  0  0  0
 80154  1  0  0  0
 80155  1  0  0  0
 81156  1  0  0  0
 82157  1  0  0  0
 82158  1  0  0  0
 82159  1  0  0  0
 83 85  1  0  0  0
 83160  1  0  0  0
 83161  1  0  0  0
 84 86  1  0  0  0
 84162  1  0  0  0
 84163  1  0  0  0
 86164  1  0  0  0
M  ISO  4   1 100  68 101  81 101  86 100
M  END
> <chiral flag>
0

> <version>
0

> <s_m_source_file>
/data/baiqing/PycharmProjects/Reinvent-master-3.2/result/LINK_invent/BTK/process_docking_weight1_custom_product_contain_oxygen_bond_distance_aromatic_linkinvent_7_9_3/rearranged_h_0034.sdf

> <i_m_source_file_index>
69

> <r_mmod_Potential_Energy-OPLS-2005>
39.6863746643066

> <r_mmod_Stretch_Energy-OPLS-2005>
50.0804443359375

> <r_mmod_Bend_Energy-OPLS-2005>
138.930633544922

> <r_mmod_Torsional_Energy-OPLS-2005>
262.711059570312

> <r_mmod_Improper_Torsional_Energy-OPLS-2005>
5.26872062683105

> <r_mmod_Van_der_Waal_Energy-OPLS-2005>
158.759765625

> <r_mmod_Electrostatic_Energy-OPLS-2005>
-371.722320556641

> <r_mmod_Solvation_Energy-OPLS-2005>
-222.270874023438

> <b_mmod_Minimization_Converged-OPLS-2005>
0

> <r_mmod_RMS_Derivative-OPLS-2005>
4.42003154754639

$$$$
69
                    3D
 Structure written by MMmdl.
165174  0  0  1  0            999 V2000
  -30.7282  -14.4620   20.5339 C   0  0  0  0  0  0
  -30.4031  -12.2872   19.4333 C   0  0  0  0  0  0
  -29.4913  -12.4949   18.2076 C   0  0  0  0  0  0
  -28.0095  -12.3674   18.6111 C   0  0  0  0  0  0
  -27.6522  -13.2195   19.8589 C   0  0  2  0  0  0
  -28.6916  -13.0447   20.9855 C   0  0  0  0  0  0
  -25.2559  -13.8207   20.5672 C   0  0  0  0  0  0
  -24.1815  -13.0458   20.9164 C   0  0  0  0  0  0
  -24.6389  -11.6932   20.8721 C   0  0  0  0  0  0
  -23.9070  -10.4305   21.0402 C   0  0  0  0  0  0
  -24.3632   -9.4222   21.9180 C   0  0  0  0  0  0
  -23.6311   -8.2252   22.0750 C   0  0  0  0  0  0
  -22.4287   -8.0290   21.3546 C   0  0  0  0  0  0
  -21.9919   -9.0261   20.4645 C   0  0  0  0  0  0
  -22.7246  -10.2140   20.3051 C   0  0  0  0  0  0
  -21.6856   -6.0745   22.5285 C   0  0  0  0  0  0
  -21.4016   -6.5646   23.8221 C   0  0  0  0  0  0
  -21.3652   -5.6793   24.9180 C   0  0  0  0  0  0
  -21.6046   -4.3056   24.7230 C   0  0  0  0  0  0
  -21.8818   -3.8151   23.4349 C   0  0  0  0  0  0
  -21.9197   -4.6972   22.3407 C   0  0  0  0  0  0
  -22.7845  -13.5252   21.1859 C   0  0  0  0  0  0
  -22.1663   -4.2158   21.0984 F   0  0  0  0  0  0
  -21.5622   -3.4535   25.7739 F   0  0  0  0  0  0
  -30.0279  -13.2997   20.4334 N   0  0  0  0  0  0
  -26.2979  -12.9391   20.3298 N   0  0  0  0  0  0
  -25.9315  -11.6538   20.5729 N   0  0  0  0  0  0
  -22.0501  -12.8220   22.0417 N   0  0  0  0  0  0
  -25.4314  -15.1920   20.4107 N   0  0  0  0  0  0
  -31.9056  -14.5265   20.1723 O   0  0  0  0  0  0
  -21.6649   -6.8885   21.4244 O   0  0  0  0  0  0
  -22.3526  -14.5567   20.6737 O   0  0  0  0  0  0
  -24.6157  -31.8721   23.2125 C   0  0  0  0  0  0
  -25.9053  -32.4842   23.8402 C   0  0  1  0  0  0
  -27.2018  -27.4030   20.0883 C   0  0  0  0  0  0
  -25.5942  -33.8648   24.2348 N   0  0  0  0  0  0
  -23.3991  -30.5043   21.5565 C   0  0  2  0  0  0
  -24.8362  -28.9794   20.1150 C   0  0  0  0  0  0
  -22.7388  -29.4715   22.4974 C   0  0  0  0  0  0
  -18.0275  -28.1376   22.8502 C   0  0  0  0  0  0
  -24.1493  -36.7309   23.2638 C   0  0  0  0  0  0
  -25.9375  -30.8251   21.3745 C   0  0  0  0  0  0
  -26.0048  -29.4629   20.7134 C   0  0  0  0  0  0
  -27.1899  -28.6828   20.7010 C   0  0  0  0  0  0
  -25.9985  -26.9539   19.4838 C   0  0  0  0  0  0
  -24.8295  -27.7242   19.4994 C   0  0  0  0  0  0
  -23.6041  -29.8522   20.1677 C   0  0  0  0  0  0
  -25.4123  -36.3128   24.0336 C   0  0  1  0  0  0
  -20.5871  -28.3685   23.1306 C   0  0  2  0  0  0
  -20.6798  -26.9425   22.5413 C   0  0  0  0  0  0
  -19.5766  -26.6388   21.5228 C   0  0  0  0  0  0
  -18.1935  -26.7923   22.1631 C   0  0  0  0  0  0
  -19.1525  -28.8843   23.2901 C   0  0  0  0  0  0
  -18.9464  -30.1456   23.8911 C   0  0  0  0  0  0
  -17.6464  -30.6595   24.0571 C   0  0  0  0  0  0
  -25.9048  -34.9495   23.5129 C   0  0  0  0  0  0
  -16.5351  -29.9097   23.6342 C   0  0  0  0  0  0
  -16.7268  -28.6507   23.0370 C   0  0  0  0  0  0
  -26.4475  -31.6608   25.0722 C   0  0  0  0  0  0
  -25.3738  -31.3684   26.1447 C   0  0  0  0  0  0
  -27.0302  -30.3045   24.6120 C   0  0  0  0  0  0
  -27.6050  -32.4338   25.7469 C   0  0  0  0  0  0
  -27.5583  -37.1813   24.8469 C   0  0  0  0  0  0
  -21.4123  -29.3065   22.3706 N   0  0  0  0  0  0
  -26.4308  -37.3815   23.9398 N   0  0  0  0  0  0
  -24.6693  -31.0815   22.1044 N   0  0  0  0  0  0
  -23.4171  -28.8254   23.3003 O   0  0  0  0  0  0
  -28.3566  -26.6243   20.1166 O   0  0  0  0  0  0
  -26.5575  -34.8941   22.4671 O   0  0  0  0  0  0
  -23.5347  -32.1485   23.7517 O   0  0  0  0  0  0
  -28.8771  -18.4927   20.5948 C   0  0  0  0  0  0
  -28.5575  -19.8596   20.4518 C   0  0  0  0  0  0
  -29.5924  -17.8072   19.5902 C   0  0  0  0  0  0
  -28.9974  -20.6152   19.3390 C   0  0  0  0  0  0
  -30.0448  -18.5510   18.4586 C   0  0  0  0  0  0
  -29.8298  -19.9598   18.3804 C   0  0  0  0  0  0
  -28.8311  -23.9526   17.6215 C   0  0  0  0  0  0
  -28.7292  -23.4492   16.3783 C   0  0  0  0  0  0
  -29.9162  -16.3514   19.7217 C   0  0  0  0  0  0
  -28.4390  -25.3479   18.0439 C   0  0  0  0  0  0
  -29.3133  -24.2335   19.9468 C   0  0  0  0  0  0
  -28.2698  -25.2917   19.5585 C   0  0  1  0  0  0
  -30.7702  -17.8297   17.3074 C   0  0  0  0  0  0
  -30.5326  -20.7180   17.2606 C   0  0  0  0  0  0
  -28.3664  -22.0232   19.1583 C   0  0  0  0  0  0
  -29.9868  -15.6189   20.7764 N   0  0  0  0  0  0
  -29.2416  -23.2045   18.8638 N   0  3  1  0  0  0
  -31.4512  -12.3455   19.1344 H   0  0  0  0  0  0
  -30.2671  -11.2861   19.8445 H   0  0  0  0  0  0
  -29.7276  -11.7626   17.4346 H   0  0  0  0  0  0
  -29.6726  -13.4758   17.7664 H   0  0  0  0  0  0
  -27.8094  -11.3140   18.8075 H   0  0  0  0  0  0
  -27.3677  -12.6448   17.7741 H   0  0  0  0  0  0
  -27.6845  -14.2614   19.5417 H   0  0  0  0  0  0
  -28.6517  -12.0341   21.3947 H   0  0  0  0  0  0
  -28.4697  -13.7160   21.8172 H   0  0  0  0  0  0
  -25.2777   -9.5698   22.4757 H   0  0  0  0  0  0
  -24.0021   -7.4643   22.7464 H   0  0  0  0  0  0
  -21.0850   -8.8781   19.8955 H   0  0  0  0  0  0
  -22.3707  -10.9680   19.6160 H   0  0  0  0  0  0
  -21.2005   -7.6152   23.9730 H   0  0  0  0  0  0
  -21.1469   -6.0518   25.9083 H   0  0  0  0  0  0
  -22.0601   -2.7613   23.2849 H   0  0  0  0  0  0
  -22.4125  -11.9858   22.4746 H   0  0  0  0  0  0
  -21.1140  -13.1248   22.2679 H   0  0  0  0  0  0
  -24.6787  -15.8606   20.5327 H   0  0  0  0  0  0
  -26.3077  -15.6236   20.1445 H   0  0  0  0  0  0
  -26.7115  -32.5522   23.1143 H   0  0  0  0  0  0
  -25.0181  -33.9845   25.0557 H   0  0  0  0  0  0
  -22.6886  -31.3234   21.4264 H   0  0  0  0  0  0
  -23.3773  -35.9628   23.3328 H   0  0  0  0  0  0
  -24.3568  -36.8887   22.2044 H   0  0  0  0  0  0
  -23.7228  -37.6518   23.6625 H   0  0  0  0  0  0
  -26.0691  -31.5953   20.6115 H   0  0  0  0  0  0
  -26.8192  -30.8620   22.0018 H   0  0  0  0  0  0
  -28.0887  -29.0494   21.1773 H   0  0  0  0  0  0
  -25.8930  -26.0040   18.9849 H   0  0  0  0  0  0
  -23.9278  -27.3430   19.0393 H   0  0  0  0  0  0
  -23.7155  -30.6354   19.4179 H   0  0  0  0  0  0
  -22.7226  -29.2820   19.8656 H   0  0  0  0  0  0
  -25.1301  -36.2009   25.0832 H   0  0  0  0  0  0
  -20.9991  -28.3287   24.1412 H   0  0  0  0  0  0
  -20.5784  -26.2294   23.3611 H   0  0  0  0  0  0
  -21.6660  -26.7519   22.1149 H   0  0  0  0  0  0
  -19.6953  -25.6305   21.1245 H   0  0  0  0  0  0
  -19.6705  -27.3222   20.6779 H   0  0  0  0  0  0
  -17.4218  -26.6700   21.4015 H   0  0  0  0  0  0
  -18.0322  -26.0049   22.9010 H   0  0  0  0  0  0
  -19.7943  -30.7272   24.2283 H   0  0  0  0  0  0
  -17.5025  -31.6282   24.5163 H   0  0  0  0  0  0
  -15.5362  -30.3018   23.7653 H   0  0  0  0  0  0
  -15.8655  -28.0830   22.7096 H   0  0  0  0  0  0
  -24.5954  -30.7006   25.7748 H   0  0  0  0  0  0
  -24.8876  -32.2808   26.4907 H   0  0  0  0  0  0
  -25.8072  -30.8828   27.0198 H   0  0  0  0  0  0
  -26.2830  -29.6795   24.1213 H   0  0  0  0  0  0
  -27.4085  -29.7306   25.4589 H   0  0  0  0  0  0
  -27.8673  -30.4330   23.9256 H   0  0  0  0  0  0
  -27.2678  -33.3659   26.2020 H   0  0  0  0  0  0
  -28.3826  -32.6884   25.0260 H   0  0  0  0  0  0
  -28.0750  -31.8490   26.5381 H   0  0  0  0  0  0
  -28.2622  -38.0096   24.7513 H   0  0  0  0  0  0
  -28.1056  -36.2621   24.6311 H   0  0  0  0  0  0
  -27.2269  -37.1469   25.8866 H   0  0  0  0  0  0
  -20.9284  -29.8756   21.6897 H   0  0  0  0  0  0
  -26.0204  -38.2896   24.1413 H   0  0  0  0  0  0
  -28.5238  -17.9594   21.4667 H   0  0  0  0  0  0
  -27.9255  -20.3176   21.2019 H   0  0  0  0  0  0
  -28.3893  -24.0720   15.5639 H   0  0  0  0  0  0
  -28.9492  -22.4264   16.1323 H   0  0  0  0  0  0
  -30.1658  -15.8903   18.7612 H   0  0  0  0  0  0
  -27.5373  -25.6743   17.5276 H   0  0  0  0  0  0
  -29.2436  -26.0335   17.7800 H   0  0  0  0  0  0
  -29.1627  -23.8241   20.9461 H   0  0  0  0  0  0
  -30.3041  -24.6883   19.9274 H   0  0  0  0  0  0
  -27.3272  -24.8156   19.8349 H   0  0  0  0  0  0
  -31.7643  -17.5051   17.6132 H   0  0  0  0  0  0
  -30.8857  -18.4173   16.4004 H   0  0  0  0  0  0
  -30.2091  -16.9590   16.9692 H   0  0  0  0  0  0
  -30.6467  -21.7785   17.4350 H   0  0  0  0  0  0
  -30.0348  -20.5528   16.3052 H   0  0  0  0  0  0
  -31.5624  -20.3724   17.1672 H   0  0  0  0  0  0
  -27.7584  -22.2527   20.0337 H   0  0  0  0  0  0
  -27.6287  -21.9138   18.3623 H   0  0  0  0  0  0
  -30.1737  -22.8336   18.7492 H   0  0  0  0  0  0
  1 25  1  0  0  0
  1 30  2  0  0  0
  1 86  1  0  0  0
  2  3  1  0  0  0
  2 25  1  0  0  0
  2 88  1  0  0  0
  2 89  1  0  0  0
  3  4  1  0  0  0
  3 90  1  0  0  0
  3 91  1  0  0  0
  4  5  1  0  0  0
  4 92  1  0  0  0
  4 93  1  0  0  0
  5  6  1  0  0  0
  5 26  1  0  0  0
  5 94  1  0  0  0
  6 25  1  0  0  0
  6 95  1  0  0  0
  6 96  1  0  0  0
  7  8  2  0  0  0
  7 26  1  0  0  0
  7 29  1  0  0  0
  8  9  1  0  0  0
  8 22  1  0  0  0
  9 10  1  0  0  0
  9 27  2  0  0  0
 10 11  2  0  0  0
 10 15  1  0  0  0
 11 12  1  0  0  0
 11 97  1  0  0  0
 12 13  2  0  0  0
 12 98  1  0  0  0
 13 14  1  0  0  0
 13 31  1  0  0  0
 14 15  2  0  0  0
 14 99  1  0  0  0
 15100  1  0  0  0
 16 17  2  0  0  0
 16 21  1  0  0  0
 16 31  1  0  0  0
 17 18  1  0  0  0
 17101  1  0  0  0
 18 19  2  0  0  0
 18102  1  0  0  0
 19 20  1  0  0  0
 19 24  1  0  0  0
 20 21  2  0  0  0
 20103  1  0  0  0
 21 23  1  0  0  0
 22 28  1  0  0  0
 22 32  2  0  0  0
 26 27  1  0  0  0
 28104  1  0  0  0
 28105  1  0  0  0
 29106  1  0  0  0
 29107  1  0  0  0
 33 34  1  0  0  0
 33 66  1  0  0  0
 33 70  2  0  0  0
 34 36  1  0  0  0
 34 59  1  0  0  0
 34108  1  0  0  0
 35 44  2  0  0  0
 35 45  1  0  0  0
 35 68  1  0  0  0
 36 56  1  0  0  0
 36109  1  0  0  0
 37 39  1  0  0  0
 37 47  1  0  0  0
 37 66  1  0  0  0
 37110  1  0  0  0
 38 43  2  0  0  0
 38 46  1  0  0  0
 38 47  1  0  0  0
 39 64  1  0  0  0
 39 67  2  0  0  0
 40 52  1  0  0  0
 40 53  2  0  0  0
 40 58  1  0  0  0
 41111  1  0  0  0
 41112  1  0  0  0
 41113  1  0  0  0
 41 48  1  0  0  0
 42 43  1  0  0  0
 42 66  1  0  0  0
 42114  1  0  0  0
 42115  1  0  0  0
 43 44  1  0  0  0
 44116  1  0  0  0
 45 46  2  0  0  0
 45117  1  0  0  0
 46118  1  0  0  0
 47119  1  0  0  0
 47120  1  0  0  0
 48 56  1  0  0  0
 48 65  1  0  0  0
 48121  1  0  0  0
 49 50  1  0  0  0
 49 53  1  0  0  0
 49 64  1  0  0  0
 49122  1  0  0  0
 50 51  1  0  0  0
 50123  1  0  0  0
 50124  1  0  0  0
 51 52  1  0  0  0
 51125  1  0  0  0
 51126  1  0  0  0
 52127  1  0  0  0
 52128  1  0  0  0
 53 54  1  0  0  0
 54 55  2  0  0  0
 54129  1  0  0  0
 55 57  1  0  0  0
 55130  1  0  0  0
 56 69  2  0  0  0
 57 58  2  0  0  0
 57131  1  0  0  0
 58132  1  0  0  0
 59 60  1  0  0  0
 59 61  1  0  0  0
 59 62  1  0  0  0
 60133  1  0  0  0
 60134  1  0  0  0
 60135  1  0  0  0
 61136  1  0  0  0
 61137  1  0  0  0
 61138  1  0  0  0
 62139  1  0  0  0
 62140  1  0  0  0
 62141  1  0  0  0
 63 65  1  0  0  0
 63142  1  0  0  0
 63143  1  0  0  0
 63144  1  0  0  0
 64145  1  0  0  0
 65146  1  0  0  0
 68 82  1  0  0  0
 71 72  2  0  0  0
 71 73  1  0  0  0
 71147  1  0  0  0
 72 74  1  0  0  0
 72148  1  0  0  0
 73 75  2  0  0  0
 73 79  1  0  0  0
 74 76  2  0  0  0
 74 85  1  0  0  0
 75 76  1  0  0  0
 75 83  1  0  0  0
 76 84  1  0  0  0
 77 78  2  0  0  0
 77 80  1  0  0  0
 77 87  1  0  0  0
 78149  1  0  0  0
 78150  1  0  0  0
 79 86  2  0  0  0
 79151  1  0  0  0
 80 82  1  0  0  0
 80152  1  0  0  0
 80153  1  0  0  0
 81 82  1  0  0  0
 81 87  1  0  0  0
 81154  1  0  0  0
 81155  1  0  0  0
 82156  1  0  0  0
 83157  1  0  0  0
 83158  1  0  0  0
 83159  1  0  0  0
 84160  1  0  0  0
 84161  1  0  0  0
 84162  1  0  0  0
 85163  1  0  0  0
 85164  1  0  0  0
 85 87  1  0  0  0
 87165  1  0  0  0
M  CHG  1  87   1
M  ISO  4   1 100  68 101  82 101  86 100
M  END
> <chiral flag>
0

> <version>
0

> <s_m_source_file>
/data/baiqing/PycharmProjects/Reinvent-master-3.2/result/LINK_invent/BTK/process_docking_weight1_custom_product_contain_oxygen_bond_distance_aromatic_linkinvent_7_9_3/rearranged_h_0034.sdf

> <i_m_source_file_index>
70

> <r_mmod_Potential_Energy-OPLS-2005>
9.33760452270508

> <r_mmod_Stretch_Energy-OPLS-2005>
50.1488571166992

> <r_mmod_Bend_Energy-OPLS-2005>
153.407699584961

> <r_mmod_Torsional_Energy-OPLS-2005>
217.912231445312

> <r_mmod_Improper_Torsional_Energy-OPLS-2005>
7.91689014434814

> <r_mmod_Van_der_Waal_Energy-OPLS-2005>
195.023284912109

> <r_mmod_Electrostatic_Energy-OPLS-2005>
-228.697067260742

> <r_mmod_Solvation_Energy-OPLS-2005>
-409.238006591797

> <b_mmod_Minimization_Converged-OPLS-2005>
0

> <r_mmod_RMS_Derivative-OPLS-2005>
2.48309898376465

$$$$
70
                    3D
 Structure written by MMmdl.
166175  0  0  1  0            999 V2000
  -30.6076  -14.7472   20.4481 C   0  0  0  0  0  0
  -30.4330  -12.4474   19.4923 C   0  0  0  0  0  0
  -29.5210  -12.5139   18.2457 C   0  0  0  0  0  0
  -28.0435  -12.3411   18.6498 C   0  0  0  0  0  0
  -27.6447  -13.2348   19.8547 C   0  0  2  0  0  0
  -28.6854  -13.1660   20.9956 C   0  0  0  0  0  0
  -25.2497  -13.8199   20.5680 C   0  0  0  0  0  0
  -24.1799  -13.0438   20.9202 C   0  0  0  0  0  0
  -24.6409  -11.6922   20.8740 C   0  0  0  0  0  0
  -23.9085  -10.4299   21.0406 C   0  0  0  0  0  0
  -24.3633   -9.4210   21.9187 C   0  0  0  0  0  0
  -23.6291   -8.2253   22.0771 C   0  0  0  0  0  0
  -22.4266   -8.0297   21.3566 C   0  0  0  0  0  0
  -21.9902   -9.0271   20.4663 C   0  0  0  0  0  0
  -22.7252  -10.2137   20.3055 C   0  0  0  0  0  0
  -21.6858   -6.0736   22.5290 C   0  0  0  0  0  0
  -21.4018   -6.5636   23.8226 C   0  0  0  0  0  0
  -21.3658   -5.6788   24.9185 C   0  0  0  0  0  0
  -21.6045   -4.3053   24.7237 C   0  0  0  0  0  0
  -21.8814   -3.8148   23.4356 C   0  0  0  0  0  0
  -21.9190   -4.6962   22.3411 C   0  0  0  0  0  0
  -22.7816  -13.5226   21.1876 C   0  0  0  0  0  0
  -22.1663   -4.2147   21.0987 F   0  0  0  0  0  0
  -21.5623   -3.4537   25.7751 F   0  0  0  0  0  0
  -29.9951  -13.5125   20.4255 N   0  0  0  0  0  0
  -26.2940  -12.9419   20.3260 N   0  0  0  0  0  0
  -25.9335  -11.6557   20.5721 N   0  0  0  0  0  0
  -22.0447  -12.8216   22.0420 N   0  0  0  0  0  0
  -25.4152  -15.1925   20.4117 N   0  0  0  0  0  0
  -31.7791  -14.8569   20.0756 O   0  0  0  0  0  0
  -21.6644   -6.8882   21.4253 O   0  0  0  0  0  0
  -22.3501  -14.5548   20.6750 O   0  0  0  0  0  0
  -24.6320  -31.8544   23.1992 C   0  0  0  0  0  0
  -25.9153  -32.4750   23.8330 C   0  0  1  0  0  0
  -27.2106  -27.2516   20.1436 C   0  0  0  0  0  0
  -25.5947  -33.8551   24.2269 N   0  0  0  0  0  0
  -23.4303  -30.4774   21.5405 C   0  0  2  0  0  0
  -24.8791  -28.9249   20.1072 C   0  0  0  0  0  0
  -22.7519  -29.4586   22.4877 C   0  0  0  0  0  0
  -18.0303  -28.1391   22.8492 C   0  0  0  0  0  0
  -24.1485  -36.7275   23.2635 C   0  0  0  0  0  0
  -25.9747  -30.7681   21.3774 C   0  0  0  0  0  0
  -26.0487  -29.3874   20.7249 C   0  0  0  0  0  0
  -27.2211  -28.5616   20.7332 C   0  0  0  0  0  0
  -26.0344  -26.8748   19.4648 C   0  0  0  0  0  0
  -24.8767  -27.6774   19.4637 C   0  0  0  0  0  0
  -23.6514  -29.8162   20.1543 C   0  0  0  0  0  0
  -25.4111  -36.3070   24.0328 C   0  0  1  0  0  0
  -20.5910  -28.3703   23.1254 C   0  0  2  0  0  0
  -20.6788  -26.9414   22.5408 C   0  0  0  0  0  0
  -19.5767  -26.6394   21.5205 C   0  0  0  0  0  0
  -18.1944  -26.7937   22.1623 C   0  0  0  0  0  0
  -19.1556  -28.8866   23.2874 C   0  0  0  0  0  0
  -18.9476  -30.1459   23.8896 C   0  0  0  0  0  0
  -17.6471  -30.6588   24.0565 C   0  0  0  0  0  0
  -25.9064  -34.9440   23.5105 C   0  0  0  0  0  0
  -16.5367  -29.9088   23.6320 C   0  0  0  0  0  0
  -16.7286  -28.6511   23.0343 C   0  0  0  0  0  0
  -26.4518  -31.6560   25.0711 C   0  0  0  0  0  0
  -25.3749  -31.3707   26.1441 C   0  0  0  0  0  0
  -27.0355  -30.2981   24.6173 C   0  0  0  0  0  0
  -27.6085  -32.4284   25.7489 C   0  0  0  0  0  0
  -27.5580  -37.1782   24.8466 C   0  0  0  0  0  0
  -21.4223  -29.3043   22.3634 N   0  0  0  0  0  0
  -26.4281  -37.3775   23.9425 N   0  0  0  0  0  0
  -24.6981  -31.0514   22.0959 N   0  0  0  0  0  0
  -23.4215  -28.8109   23.2978 O   0  0  0  0  0  0
  -28.2756  -26.3194   20.1948 O   0  0  0  0  0  0
  -26.5624  -34.8922   22.4669 O   0  0  0  0  0  0
  -23.5470  -32.1381   23.7277 O   0  0  0  0  0  0
  -30.6866  -19.9960   22.6203 C   0  0  0  0  0  0
  -30.5961  -18.7734   21.9282 C   0  0  0  0  0  0
  -29.9579  -21.1317   22.2140 C   0  0  0  0  0  0
  -29.8187  -18.6481   20.7611 C   0  0  0  0  0  0
  -29.0962  -19.8533   20.3262 C   0  0  0  0  0  0
  -29.0985  -21.1026   21.0946 C   0  0  0  0  0  0
  -27.0968  -22.2784   21.8959 C   0  0  0  0  0  0
  -26.3352  -21.2360   22.3089 C   0  0  0  0  0  0
  -26.7951  -23.6284   22.5360 C   0  0  0  0  0  0
  -26.7472  -24.7774   21.5417 C   0  0  0  0  0  0
  -28.5929  -23.5351   20.2756 C   0  0  0  0  0  0
  -28.1238  -24.9767   20.8988 C   0  0  1  0  0  0
  -28.2853  -19.8029   19.0400 C   0  0  0  0  0  0
  -26.3805  -19.7792   21.9031 C   0  0  0  0  0  0
  -29.9307  -17.2520   19.9866 C   0  0  0  0  0  0
  -28.1851  -22.2365   20.9901 N   0  0  0  0  0  0
  -29.8233  -15.8738   20.6533 N   0  0  0  0  0  0
  -31.4813  -12.5504   19.2068 H   0  0  0  0  0  0
  -30.3536  -11.4715   19.9731 H   0  0  0  0  0  0
  -29.8049  -11.7407   17.5299 H   0  0  0  0  0  0
  -29.6591  -13.4680   17.7336 H   0  0  0  0  0  0
  -27.8955  -11.2912   18.9063 H   0  0  0  0  0  0
  -27.3928  -12.5400   17.7981 H   0  0  0  0  0  0
  -27.6386  -14.2574   19.4777 H   0  0  0  0  0  0
  -28.7110  -12.1682   21.4364 H   0  0  0  0  0  0
  -28.4173  -13.8490   21.8023 H   0  0  0  0  0  0
  -25.2779   -9.5677   22.4763 H   0  0  0  0  0  0
  -24.0007   -7.4630   22.7479 H   0  0  0  0  0  0
  -21.0836   -8.8799   19.8956 H   0  0  0  0  0  0
  -22.3731  -10.9680   19.6163 H   0  0  0  0  0  0
  -21.2022   -7.6147   23.9730 H   0  0  0  0  0  0
  -21.1477   -6.0519   25.9089 H   0  0  0  0  0  0
  -22.0586   -2.7607   23.2863 H   0  0  0  0  0  0
  -22.4057  -11.9894   22.4837 H   0  0  0  0  0  0
  -21.1074  -13.1271   22.2635 H   0  0  0  0  0  0
  -24.6427  -15.8392   20.5315 H   0  0  0  0  0  0
  -26.2557  -15.6407   20.0722 H   0  0  0  0  0  0
  -26.7208  -32.5416   23.1058 H   0  0  0  0  0  0
  -25.0078  -33.9671   25.0403 H   0  0  0  0  0  0
  -22.7274  -31.2998   21.3953 H   0  0  0  0  0  0
  -23.3748  -35.9603   23.3297 H   0  0  0  0  0  0
  -24.3582  -36.8912   22.2053 H   0  0  0  0  0  0
  -23.7234  -37.6473   23.6662 H   0  0  0  0  0  0
  -26.1059  -31.5241   20.6011 H   0  0  0  0  0  0
  -26.8541  -30.8241   22.0069 H   0  0  0  0  0  0
  -28.1157  -28.9043   21.2310 H   0  0  0  0  0  0
  -25.9964  -25.9149   18.9691 H   0  0  0  0  0  0
  -23.9854  -27.3245   18.9655 H   0  0  0  0  0  0
  -23.7842  -30.5973   19.4038 H   0  0  0  0  0  0
  -22.7691  -29.2563   19.8402 H   0  0  0  0  0  0
  -25.1280  -36.1916   25.0814 H   0  0  0  0  0  0
  -21.0007  -28.3296   24.1372 H   0  0  0  0  0  0
  -20.5665  -26.2311   23.3611 H   0  0  0  0  0  0
  -21.6651  -26.7423   22.1201 H   0  0  0  0  0  0
  -19.6921  -25.6303   21.1233 H   0  0  0  0  0  0
  -19.6699  -27.3193   20.6721 H   0  0  0  0  0  0
  -17.4203  -26.6681   21.4032 H   0  0  0  0  0  0
  -18.0352  -26.0071   22.9014 H   0  0  0  0  0  0
  -19.7951  -30.7282   24.2261 H   0  0  0  0  0  0
  -17.5026  -31.6257   24.5178 H   0  0  0  0  0  0
  -15.5365  -30.2988   23.7644 H   0  0  0  0  0  0
  -15.8690  -28.0827   22.7046 H   0  0  0  0  0  0
  -24.5947  -30.7018   25.7784 H   0  0  0  0  0  0
  -24.8898  -32.2864   26.4837 H   0  0  0  0  0  0
  -25.8086  -30.8933   27.0239 H   0  0  0  0  0  0
  -26.2924  -29.6725   24.1210 H   0  0  0  0  0  0
  -27.4060  -29.7251   25.4680 H   0  0  0  0  0  0
  -27.8796  -30.4252   23.9390 H   0  0  0  0  0  0
  -27.2709  -33.3596   26.2051 H   0  0  0  0  0  0
  -28.3909  -32.6817   25.0319 H   0  0  0  0  0  0
  -28.0721  -31.8403   26.5420 H   0  0  0  0  0  0
  -28.2570  -38.0102   24.7532 H   0  0  0  0  0  0
  -28.1099  -36.2633   24.6252 H   0  0  0  0  0  0
  -27.2309  -37.1395   25.8871 H   0  0  0  0  0  0
  -20.9410  -29.8787   21.6849 H   0  0  0  0  0  0
  -26.0162  -38.2843   24.1463 H   0  0  0  0  0  0
  -31.3104  -20.0602   23.5006 H   0  0  0  0  0  0
  -31.1682  -17.9235   22.2778 H   0  0  0  0  0  0
  -30.0142  -22.0274   22.8155 H   0  0  0  0  0  0
  -25.5751  -21.4301   23.0542 H   0  0  0  0  0  0
  -27.5312  -23.8243   23.3167 H   0  0  0  0  0  0
  -25.8292  -23.5997   23.0449 H   0  0  0  0  0  0
  -26.4298  -25.6733   22.0773 H   0  0  0  0  0  0
  -25.9885  -24.5584   20.7902 H   0  0  0  0  0  0
  -29.6766  -23.5449   20.1541 H   0  0  0  0  0  0
  -28.1889  -23.4644   19.2652 H   0  0  0  0  0  0
  -28.8011  -25.1166   21.7429 H   0  0  0  0  0  0
  -28.9427  -19.8986   18.1761 H   0  0  0  0  0  0
  -27.5573  -20.6116   18.9906 H   0  0  0  0  0  0
  -27.7276  -18.8705   18.9570 H   0  0  0  0  0  0
  -27.2594  -19.2842   22.3167 H   0  0  0  0  0  0
  -26.3641  -19.6766   20.8216 H   0  0  0  0  0  0
  -25.4997  -19.2642   22.2854 H   0  0  0  0  0  0
  -30.8921  -17.2893   19.4705 H   0  0  0  0  0  0
  -29.2009  -17.2403   19.1793 H   0  0  0  0  0  0
  -28.9084  -15.6616   21.0193 H   0  0  0  0  0  0
  1 25  1  0  0  0
  1 30  2  0  0  0
  1 87  1  0  0  0
  2  3  1  0  0  0
  2 25  1  0  0  0
  2 88  1  0  0  0
  2 89  1  0  0  0
  3  4  1  0  0  0
  3 90  1  0  0  0
  3 91  1  0  0  0
  4  5  1  0  0  0
  4 92  1  0  0  0
  4 93  1  0  0  0
  5  6  1  0  0  0
  5 26  1  0  0  0
  5 94  1  0  0  0
  6 25  1  0  0  0
  6 95  1  0  0  0
  6 96  1  0  0  0
  7  8  2  0  0  0
  7 26  1  0  0  0
  7 29  1  0  0  0
  8  9  1  0  0  0
  8 22  1  0  0  0
  9 10  1  0  0  0
  9 27  2  0  0  0
 10 11  2  0  0  0
 10 15  1  0  0  0
 11 12  1  0  0  0
 11 97  1  0  0  0
 12 13  2  0  0  0
 12 98  1  0  0  0
 13 14  1  0  0  0
 13 31  1  0  0  0
 14 15  2  0  0  0
 14 99  1  0  0  0
 15100  1  0  0  0
 16 17  2  0  0  0
 16 21  1  0  0  0
 16 31  1  0  0  0
 17 18  1  0  0  0
 17101  1  0  0  0
 18 19  2  0  0  0
 18102  1  0  0  0
 19 20  1  0  0  0
 19 24  1  0  0  0
 20 21  2  0  0  0
 20103  1  0  0  0
 21 23  1  0  0  0
 22 28  1  0  0  0
 22 32  2  0  0  0
 26 27  1  0  0  0
 28104  1  0  0  0
 28105  1  0  0  0
 29106  1  0  0  0
 29107  1  0  0  0
 33 34  1  0  0  0
 33 66  1  0  0  0
 33 70  2  0  0  0
 34 36  1  0  0  0
 34 59  1  0  0  0
 34108  1  0  0  0
 35 44  2  0  0  0
 35 45  1  0  0  0
 35 68  1  0  0  0
 36 56  1  0  0  0
 36109  1  0  0  0
 37 39  1  0  0  0
 37 47  1  0  0  0
 37 66  1  0  0  0
 37110  1  0  0  0
 38 43  2  0  0  0
 38 46  1  0  0  0
 38 47  1  0  0  0
 39 64  1  0  0  0
 39 67  2  0  0  0
 40 52  1  0  0  0
 40 53  2  0  0  0
 40 58  1  0  0  0
 41111  1  0  0  0
 41112  1  0  0  0
 41113  1  0  0  0
 41 48  1  0  0  0
 42 43  1  0  0  0
 42 66  1  0  0  0
 42114  1  0  0  0
 42115  1  0  0  0
 43 44  1  0  0  0
 44116  1  0  0  0
 45 46  2  0  0  0
 45117  1  0  0  0
 46118  1  0  0  0
 47119  1  0  0  0
 47120  1  0  0  0
 48 56  1  0  0  0
 48 65  1  0  0  0
 48121  1  0  0  0
 49 50  1  0  0  0
 49 53  1  0  0  0
 49 64  1  0  0  0
 49122  1  0  0  0
 50 51  1  0  0  0
 50123  1  0  0  0
 50124  1  0  0  0
 51 52  1  0  0  0
 51125  1  0  0  0
 51126  1  0  0  0
 52127  1  0  0  0
 52128  1  0  0  0
 53 54  1  0  0  0
 54 55  2  0  0  0
 54129  1  0  0  0
 55 57  1  0  0  0
 55130  1  0  0  0
 56 69  2  0  0  0
 57 58  2  0  0  0
 57131  1  0  0  0
 58132  1  0  0  0
 59 60  1  0  0  0
 59 61  1  0  0  0
 59 62  1  0  0  0
 60133  1  0  0  0
 60134  1  0  0  0
 60135  1  0  0  0
 61136  1  0  0  0
 61137  1  0  0  0
 61138  1  0  0  0
 62139  1  0  0  0
 62140  1  0  0  0
 62141  1  0  0  0
 63 65  1  0  0  0
 63142  1  0  0  0
 63143  1  0  0  0
 63144  1  0  0  0
 64145  1  0  0  0
 65146  1  0  0  0
 68 82  1  0  0  0
 71 72  2  0  0  0
 71 73  1  0  0  0
 71147  1  0  0  0
 72 74  1  0  0  0
 72148  1  0  0  0
 73 76  2  0  0  0
 73149  1  0  0  0
 74 75  2  0  0  0
 74 85  1  0  0  0
 75 76  1  0  0  0
 75 83  1  0  0  0
 76 86  1  0  0  0
 77 78  2  0  0  0
 77 79  1  0  0  0
 77 86  1  0  0  0
 78 84  1  0  0  0
 78150  1  0  0  0
 79 80  1  0  0  0
 79151  1  0  0  0
 79152  1  0  0  0
 80 82  1  0  0  0
 80153  1  0  0  0
 80154  1  0  0  0
 81 82  1  0  0  0
 81 86  1  0  0  0
 81155  1  0  0  0
 81156  1  0  0  0
 82157  1  0  0  0
 83158  1  0  0  0
 83159  1  0  0  0
 83160  1  0  0  0
 84161  1  0  0  0
 84162  1  0  0  0
 84163  1  0  0  0
 85 87  1  0  0  0
 85164  1  0  0  0
 85165  1  0  0  0
 87166  1  0  0  0
M  ISO  4   1 100  68 101  82 101  87 100
M  END
> <chiral flag>
0

> <version>
0

> <s_m_source_file>
/data/baiqing/PycharmProjects/Reinvent-master-3.2/result/LINK_invent/BTK/process_docking_weight1_custom_product_contain_oxygen_bond_distance_aromatic_linkinvent_7_9_3/rearranged_h_0034.sdf

> <i_m_source_file_index>
71

> <r_mmod_Potential_Energy-OPLS-2005>
251.50227355957

> <r_mmod_Stretch_Energy-OPLS-2005>
146.576110839844

> <r_mmod_Bend_Energy-OPLS-2005>
199.480224609375

> <r_mmod_Torsional_Energy-OPLS-2005>
312.862396240234

> <r_mmod_Improper_Torsional_Energy-OPLS-2005>
9.53664112091064

> <r_mmod_Van_der_Waal_Energy-OPLS-2005>
146.242660522461

> <r_mmod_Electrostatic_Energy-OPLS-2005>
-452.569183349609

> <r_mmod_Solvation_Energy-OPLS-2005>
-202.318725585938

> <b_mmod_Minimization_Converged-OPLS-2005>
0

> <r_mmod_RMS_Derivative-OPLS-2005>
2.54340410232544

$$$$
71
                    3D
 Structure written by MMmdl.
159167  0  0  1  0            999 V2000
  -30.6227  -14.6140   20.5227 C   0  0  0  0  0  0
  -30.4421  -12.3795   19.4474 C   0  0  0  0  0  0
  -29.5102  -12.5134   18.2223 C   0  0  0  0  0  0
  -28.0315  -12.3527   18.6317 C   0  0  0  0  0  0
  -27.6577  -13.2118   19.8686 C   0  0  2  0  0  0
  -28.7014  -13.0395   20.9959 C   0  0  0  0  0  0
  -25.2579  -13.8165   20.5671 C   0  0  0  0  0  0
  -24.1840  -13.0440   20.9187 C   0  0  0  0  0  0
  -24.6397  -11.6907   20.8737 C   0  0  0  0  0  0
  -23.9062  -10.4292   21.0404 C   0  0  0  0  0  0
  -24.3611   -9.4208   21.9187 C   0  0  0  0  0  0
  -23.6286   -8.2245   22.0754 C   0  0  0  0  0  0
  -22.4272   -8.0282   21.3542 C   0  0  0  0  0  0
  -21.9906   -9.0254   20.4646 C   0  0  0  0  0  0
  -22.7233  -10.2135   20.3057 C   0  0  0  0  0  0
  -21.6851   -6.0737   22.5280 C   0  0  0  0  0  0
  -21.4010   -6.5639   23.8213 C   0  0  0  0  0  0
  -21.3660   -5.6793   24.9176 C   0  0  0  0  0  0
  -21.6043   -4.3055   24.7228 C   0  0  0  0  0  0
  -21.8819   -3.8146   23.4350 C   0  0  0  0  0  0
  -21.9189   -4.6963   22.3404 C   0  0  0  0  0  0
  -22.7862  -13.5240   21.1855 C   0  0  0  0  0  0
  -22.1659   -4.2152   21.0980 F   0  0  0  0  0  0
  -21.5631   -3.4538   25.7739 F   0  0  0  0  0  0
  -30.0212  -13.3861   20.4411 N   0  0  0  0  0  0
  -26.3008  -12.9334   20.3330 N   0  0  0  0  0  0
  -25.9323  -11.6492   20.5752 N   0  0  0  0  0  0
  -22.0491  -12.8234   22.0405 N   0  0  0  0  0  0
  -25.4303  -15.1886   20.4058 N   0  0  0  0  0  0
  -31.7729  -14.7986   20.1122 O   0  0  0  0  0  0
  -21.6636   -6.8881   21.4244 O   0  0  0  0  0  0
  -22.3554  -14.5549   20.6705 O   0  0  0  0  0  0
  -24.6251  -31.8607   23.2040 C   0  0  0  0  0  0
  -25.9109  -32.4785   23.8360 C   0  0  1  0  0  0
  -27.2264  -27.3296   20.1083 C   0  0  0  0  0  0
  -25.5936  -33.8589   24.2286 N   0  0  0  0  0  0
  -23.4178  -30.4847   21.5461 C   0  0  2  0  0  0
  -24.8645  -28.9434   20.1098 C   0  0  0  0  0  0
  -22.7472  -29.4618   22.4936 C   0  0  0  0  0  0
  -18.0284  -28.1383   22.8468 C   0  0  0  0  0  0
  -24.1492  -36.7301   23.2641 C   0  0  0  0  0  0
  -25.9584  -30.7940   21.3732 C   0  0  0  0  0  0
  -26.0324  -29.4223   20.7154 C   0  0  0  0  0  0
  -27.2147  -28.6263   20.7078 C   0  0  0  0  0  0
  -26.0341  -26.9061   19.4725 C   0  0  0  0  0  0
  -24.8670  -27.6908   19.4799 C   0  0  0  0  0  0
  -23.6329  -29.8223   20.1603 C   0  0  0  0  0  0
  -25.4114  -36.3089   24.0335 C   0  0  1  0  0  0
  -20.5885  -28.3680   23.1287 C   0  0  2  0  0  0
  -20.6773  -26.9411   22.5403 C   0  0  0  0  0  0
  -19.5751  -26.6379   21.5206 C   0  0  0  0  0  0
  -18.1926  -26.7918   22.1616 C   0  0  0  0  0  0
  -19.1538  -28.8849   23.2865 C   0  0  0  0  0  0
  -18.9470  -30.1444   23.8889 C   0  0  0  0  0  0
  -17.6472  -30.6587   24.0554 C   0  0  0  0  0  0
  -25.9054  -34.9461   23.5108 C   0  0  0  0  0  0
  -16.5363  -29.9086   23.6325 C   0  0  0  0  0  0
  -16.7272  -28.6505   23.0331 C   0  0  0  0  0  0
  -26.4495  -31.6595   25.0722 C   0  0  0  0  0  0
  -25.3737  -31.3737   26.1456 C   0  0  0  0  0  0
  -27.0324  -30.3025   24.6146 C   0  0  0  0  0  0
  -27.6046  -32.4334   25.7501 C   0  0  0  0  0  0
  -27.5580  -37.1802   24.8464 C   0  0  0  0  0  0
  -21.4188  -29.3042   22.3693 N   0  0  0  0  0  0
  -26.4293  -37.3781   23.9413 N   0  0  0  0  0  0
  -24.6863  -31.0628   22.0983 N   0  0  0  0  0  0
  -23.4208  -28.8139   23.2997 O   0  0  0  0  0  0
  -28.3513  -26.4921   20.1653 O   0  0  0  0  0  0
  -26.5614  -34.8919   22.4666 O   0  0  0  0  0  0
  -23.5419  -32.1398   23.7375 O   0  0  0  0  0  0
  -28.7520  -17.8283   21.3197 C   0  0  0  0  0  0
  -30.9342  -17.8525   20.3124 C   0  0  0  0  0  0
  -28.7023  -19.2545   21.3030 C   0  0  0  0  0  0
  -29.7929  -20.0230   20.8040 C   0  0  0  0  0  0
  -29.8663  -17.0860   20.8483 C   0  0  0  0  0  0
  -30.8965  -19.2802   20.2926 C   0  0  0  0  0  0
  -27.4670  -19.9395   21.8658 C   0  0  0  0  0  0
  -29.1994  -22.2204   18.6754 C   0  0  0  0  0  0
  -29.8871  -21.5912   20.9708 C   0  0  0  0  0  0
  -29.2730  -24.0211   20.4186 C   0  0  0  0  0  0
  -28.1652  -25.0453   19.9150 C   0  0  0  0  0  0
  -29.8122  -15.6286   20.9502 N   0  0  0  0  0  0
  -29.0556  -22.5339   20.1180 N   0  3  1  0  0  0
  -31.9684  -19.9462   19.8011 F   0  0  0  0  0  0
  -31.4838  -12.5072   19.1480 H   0  0  0  0  0  0
  -30.3752  -11.3772   19.8737 H   0  0  0  0  0  0
  -29.7707  -11.7705   17.4675 H   0  0  0  0  0  0
  -29.6579  -13.4880   17.7546 H   0  0  0  0  0  0
  -27.8629  -11.2977   18.8522 H   0  0  0  0  0  0
  -27.3795  -12.5951   17.7918 H   0  0  0  0  0  0
  -27.6841  -14.2516   19.5419 H   0  0  0  0  0  0
  -28.7084  -12.0089   21.3536 H   0  0  0  0  0  0
  -28.4462  -13.6478   21.8649 H   0  0  0  0  0  0
  -25.2754   -9.5688   22.4764 H   0  0  0  0  0  0
  -23.9995   -7.4637   22.7473 H   0  0  0  0  0  0
  -21.0839   -8.8773   19.8950 H   0  0  0  0  0  0
  -22.3690  -10.9675   19.6166 H   0  0  0  0  0  0
  -21.2000   -7.6145   23.9720 H   0  0  0  0  0  0
  -21.1483   -6.0520   25.9082 H   0  0  0  0  0  0
  -22.0596   -2.7607   23.2847 H   0  0  0  0  0  0
  -22.4082  -11.9883   22.4793 H   0  0  0  0  0  0
  -21.1112  -13.1274   22.2604 H   0  0  0  0  0  0
  -24.6576  -15.8396   20.4931 H   0  0  0  0  0  0
  -26.2715  -15.6202   20.0447 H   0  0  0  0  0  0
  -26.7166  -32.5465   23.1106 H   0  0  0  0  0  0
  -25.0096  -33.9741   25.0439 H   0  0  0  0  0  0
  -22.7108  -31.3046   21.4040 H   0  0  0  0  0  0
  -23.3752  -35.9637   23.3301 H   0  0  0  0  0  0
  -24.3583  -36.8922   22.2052 H   0  0  0  0  0  0
  -23.7240  -37.6504   23.6661 H   0  0  0  0  0  0
  -26.0870  -31.5567   20.6036 H   0  0  0  0  0  0
  -26.8407  -30.8445   21.9995 H   0  0  0  0  0  0
  -28.1101  -28.9881   21.1935 H   0  0  0  0  0  0
  -25.9683  -25.9548   18.9648 H   0  0  0  0  0  0
  -23.9735  -27.3210   18.9955 H   0  0  0  0  0  0
  -23.7531  -30.6002   19.4051 H   0  0  0  0  0  0
  -22.7527  -29.2544   19.8544 H   0  0  0  0  0  0
  -25.1286  -36.1948   25.0827 H   0  0  0  0  0  0
  -20.9964  -28.3255   24.1417 H   0  0  0  0  0  0
  -20.5673  -26.2302   23.3603 H   0  0  0  0  0  0
  -21.6640  -26.7432   22.1205 H   0  0  0  0  0  0
  -19.6919  -25.6290   21.1241 H   0  0  0  0  0  0
  -19.6695  -27.3179   20.6729 H   0  0  0  0  0  0
  -17.4192  -26.6656   21.4016 H   0  0  0  0  0  0
  -18.0327  -26.0065   22.9021 H   0  0  0  0  0  0
  -19.7950  -30.7242   24.2272 H   0  0  0  0  0  0
  -17.5035  -31.6265   24.5153 H   0  0  0  0  0  0
  -15.5361  -30.2987   23.7658 H   0  0  0  0  0  0
  -15.8666  -28.0830   22.7049 H   0  0  0  0  0  0
  -24.5919  -30.7072   25.7800 H   0  0  0  0  0  0
  -24.8919  -32.2906   26.4867 H   0  0  0  0  0  0
  -25.8073  -30.8935   27.0239 H   0  0  0  0  0  0
  -26.2876  -29.6798   24.1173 H   0  0  0  0  0  0
  -27.4041  -29.7257   25.4625 H   0  0  0  0  0  0
  -27.8748  -30.4320   23.9345 H   0  0  0  0  0  0
  -27.2649  -33.3641   26.2058 H   0  0  0  0  0  0
  -28.3880  -32.6883   25.0354 H   0  0  0  0  0  0
  -28.0689  -31.8476   26.5443 H   0  0  0  0  0  0
  -28.2581  -38.0107   24.7512 H   0  0  0  0  0  0
  -28.1083  -36.2638   24.6286 H   0  0  0  0  0  0
  -27.2300  -37.1452   25.8864 H   0  0  0  0  0  0
  -20.9369  -29.8828   21.6953 H   0  0  0  0  0  0
  -26.0176  -38.2859   24.1409 H   0  0  0  0  0  0
  -27.9091  -17.2885   21.7296 H   0  0  0  0  0  0
  -31.8133  -17.3589   19.9261 H   0  0  0  0  0  0
  -26.6786  -19.2199   22.0904 H   0  0  0  0  0  0
  -27.0554  -20.6511   21.1501 H   0  0  0  0  0  0
  -27.7044  -20.4679   22.7893 H   0  0  0  0  0  0
  -28.9754  -21.1726   18.4740 H   0  0  0  0  0  0
  -30.2159  -22.4166   18.3316 H   0  0  0  0  0  0
  -28.5164  -22.8079   18.0638 H   0  0  0  0  0  0
  -30.9313  -21.8786   20.8429 H   0  0  0  0  0  0
  -29.6714  -21.8107   22.0169 H   0  0  0  0  0  0
  -29.3464  -24.1382   21.5003 H   0  0  0  0  0  0
  -30.2442  -24.3195   20.0224 H   0  0  0  0  0  0
  -27.2294  -24.7280   20.3765 H   0  0  0  0  0  0
  -28.0387  -24.9260   18.8389 H   0  0  0  0  0  0
  -28.9391  -15.2753   21.3109 H   0  0  0  0  0  0
  -28.0969  -22.3281   20.3558 H   0  0  0  0  0  0
  1 25  1  0  0  0
  1 30  2  0  0  0
  1 82  1  0  0  0
  2  3  1  0  0  0
  2 25  1  0  0  0
  2 85  1  0  0  0
  2 86  1  0  0  0
  3  4  1  0  0  0
  3 87  1  0  0  0
  3 88  1  0  0  0
  4  5  1  0  0  0
  4 89  1  0  0  0
  4 90  1  0  0  0
  5  6  1  0  0  0
  5 26  1  0  0  0
  5 91  1  0  0  0
  6 25  1  0  0  0
  6 92  1  0  0  0
  6 93  1  0  0  0
  7  8  2  0  0  0
  7 26  1  0  0  0
  7 29  1  0  0  0
  8  9  1  0  0  0
  8 22  1  0  0  0
  9 10  1  0  0  0
  9 27  2  0  0  0
 10 11  2  0  0  0
 10 15  1  0  0  0
 11 12  1  0  0  0
 11 94  1  0  0  0
 12 13  2  0  0  0
 12 95  1  0  0  0
 13 14  1  0  0  0
 13 31  1  0  0  0
 14 15  2  0  0  0
 14 96  1  0  0  0
 15 97  1  0  0  0
 16 17  2  0  0  0
 16 21  1  0  0  0
 16 31  1  0  0  0
 17 18  1  0  0  0
 17 98  1  0  0  0
 18 19  2  0  0  0
 18 99  1  0  0  0
 19 20  1  0  0  0
 19 24  1  0  0  0
 20 21  2  0  0  0
 20100  1  0  0  0
 21 23  1  0  0  0
 22 28  1  0  0  0
 22 32  2  0  0  0
 26 27  1  0  0  0
 28101  1  0  0  0
 28102  1  0  0  0
 29103  1  0  0  0
 29104  1  0  0  0
 33 34  1  0  0  0
 33 66  1  0  0  0
 33 70  2  0  0  0
 34 36  1  0  0  0
 34 59  1  0  0  0
 34105  1  0  0  0
 35 44  2  0  0  0
 35 45  1  0  0  0
 35 68  1  0  0  0
 36 56  1  0  0  0
 36106  1  0  0  0
 37 39  1  0  0  0
 37 47  1  0  0  0
 37 66  1  0  0  0
 37107  1  0  0  0
 38 43  2  0  0  0
 38 46  1  0  0  0
 38 47  1  0  0  0
 39 64  1  0  0  0
 39 67  2  0  0  0
 40 52  1  0  0  0
 40 53  2  0  0  0
 40 58  1  0  0  0
 41108  1  0  0  0
 41109  1  0  0  0
 41110  1  0  0  0
 41 48  1  0  0  0
 42 43  1  0  0  0
 42 66  1  0  0  0
 42111  1  0  0  0
 42112  1  0  0  0
 43 44  1  0  0  0
 44113  1  0  0  0
 45 46  2  0  0  0
 45114  1  0  0  0
 46115  1  0  0  0
 47116  1  0  0  0
 47117  1  0  0  0
 48 56  1  0  0  0
 48 65  1  0  0  0
 48118  1  0  0  0
 49 50  1  0  0  0
 49 53  1  0  0  0
 49 64  1  0  0  0
 49119  1  0  0  0
 50 51  1  0  0  0
 50120  1  0  0  0
 50121  1  0  0  0
 51 52  1  0  0  0
 51122  1  0  0  0
 51123  1  0  0  0
 52124  1  0  0  0
 52125  1  0  0  0
 53 54  1  0  0  0
 54 55  2  0  0  0
 54126  1  0  0  0
 55 57  1  0  0  0
 55127  1  0  0  0
 56 69  2  0  0  0
 57 58  2  0  0  0
 57128  1  0  0  0
 58129  1  0  0  0
 59 60  1  0  0  0
 59 61  1  0  0  0
 59 62  1  0  0  0
 60130  1  0  0  0
 60131  1  0  0  0
 60132  1  0  0  0
 61133  1  0  0  0
 61134  1  0  0  0
 61135  1  0  0  0
 62136  1  0  0  0
 62137  1  0  0  0
 62138  1  0  0  0
 63 65  1  0  0  0
 63139  1  0  0  0
 63140  1  0  0  0
 63141  1  0  0  0
 64142  1  0  0  0
 65143  1  0  0  0
 68 81  1  0  0  0
 71 73  2  0  0  0
 71 75  1  0  0  0
 71144  1  0  0  0
 72 75  2  0  0  0
 72 76  1  0  0  0
 72145  1  0  0  0
 73 74  1  0  0  0
 73 77  1  0  0  0
 74 76  2  0  0  0
 74 79  1  0  0  0
 75 82  1  0  0  0
 76 84  1  0  0  0
 77146  1  0  0  0
 77147  1  0  0  0
 77148  1  0  0  0
 78149  1  0  0  0
 78150  1  0  0  0
 78151  1  0  0  0
 78 83  1  0  0  0
 79 83  1  0  0  0
 79152  1  0  0  0
 79153  1  0  0  0
 80 81  1  0  0  0
 80 83  1  0  0  0
 80154  1  0  0  0
 80155  1  0  0  0
 81156  1  0  0  0
 81157  1  0  0  0
 82158  1  0  0  0
 83159  1  0  0  0
M  CHG  1  83   1
M  ISO  4   1 100  68 101  81 101  82 100
M  END
> <chiral flag>
0

> <version>
0

> <s_m_source_file>
/data/baiqing/PycharmProjects/Reinvent-master-3.2/result/LINK_invent/BTK/process_docking_weight1_custom_product_contain_oxygen_bond_distance_aromatic_linkinvent_7_9_3/rearranged_h_0034.sdf

> <i_m_source_file_index>
72

> <r_mmod_Potential_Energy-OPLS-2005>
-54.4989051818848

> <r_mmod_Stretch_Energy-OPLS-2005>
78.2164916992188

> <r_mmod_Bend_Energy-OPLS-2005>
139.393493652344

> <r_mmod_Torsional_Energy-OPLS-2005>
204.062133789062

> <r_mmod_Improper_Torsional_Energy-OPLS-2005>
4.47924947738647

> <r_mmod_Van_der_Waal_Energy-OPLS-2005>
145.205902099609

> <r_mmod_Electrostatic_Energy-OPLS-2005>
-234.24299621582

> <r_mmod_Solvation_Energy-OPLS-2005>
-433.540954589844

> <b_mmod_Minimization_Converged-OPLS-2005>
0

> <r_mmod_RMS_Derivative-OPLS-2005>
1.22002685070038

$$$$
72
                    3D
 Structure written by MMmdl.
170179  0  0  1  0            999 V2000
  -30.5994  -14.7364   20.5149 C   0  0  0  0  0  0
  -30.4446  -12.4583   19.4868 C   0  0  0  0  0  0
  -29.5234  -12.5391   18.2486 C   0  0  0  0  0  0
  -28.0526  -12.3312   18.6549 C   0  0  0  0  0  0
  -27.6434  -13.2185   19.8587 C   0  0  2  0  0  0
  -28.6853  -13.1345   21.0009 C   0  0  0  0  0  0
  -25.2296  -13.7917   20.5461 C   0  0  0  0  0  0
  -24.1696  -13.0227   20.9215 C   0  0  0  0  0  0
  -24.6360  -11.6761   20.8796 C   0  0  0  0  0  0
  -23.9036  -10.4188   21.0447 C   0  0  0  0  0  0
  -24.3565   -9.4130   21.9232 C   0  0  0  0  0  0
  -23.6250   -8.2188   22.0762 C   0  0  0  0  0  0
  -22.4240   -8.0247   21.3537 C   0  0  0  0  0  0
  -21.9863   -9.0217   20.4640 C   0  0  0  0  0  0
  -22.7207  -10.2093   20.3077 C   0  0  0  0  0  0
  -21.6858   -6.0713   22.5304 C   0  0  0  0  0  0
  -21.4020   -6.5630   23.8227 C   0  0  0  0  0  0
  -21.3648   -5.6779   24.9194 C   0  0  0  0  0  0
  -21.6046   -4.3048   24.7237 C   0  0  0  0  0  0
  -21.8814   -3.8125   23.4362 C   0  0  0  0  0  0
  -21.9183   -4.6940   22.3413 C   0  0  0  0  0  0
  -22.7741  -13.5113   21.1864 C   0  0  0  0  0  0
  -22.1661   -4.2127   21.0991 F   0  0  0  0  0  0
  -21.5608   -3.4532   25.7748 F   0  0  0  0  0  0
  -29.9987  -13.4967   20.4426 N   0  0  0  0  0  0
  -26.2894  -12.9256   20.3253 N   0  0  0  0  0  0
  -25.9325  -11.6404   20.5819 N   0  0  0  0  0  0
  -22.0379  -12.8187   22.0485 N   0  0  0  0  0  0
  -25.3493  -15.1517   20.3337 N   0  0  0  0  0  0
  -31.7641  -14.8924   20.1391 O   0  0  0  0  0  0
  -21.6604   -6.8867   21.4267 O   0  0  0  0  0  0
  -22.3491  -14.5450   20.6710 O   0  0  0  0  0  0
  -24.6235  -31.8598   23.2025 C   0  0  0  0  0  0
  -25.9085  -32.4788   23.8365 C   0  0  1  0  0  0
  -27.2476  -27.3233   20.1377 C   0  0  0  0  0  0
  -25.5914  -33.8592   24.2309 N   0  0  0  0  0  0
  -23.4199  -30.4785   21.5430 C   0  0  2  0  0  0
  -24.8724  -28.9131   20.1332 C   0  0  0  0  0  0
  -22.7450  -29.4632   22.4942 C   0  0  0  0  0  0
  -18.0288  -28.1365   22.8486 C   0  0  0  0  0  0
  -24.1486  -36.7290   23.2643 C   0  0  0  0  0  0
  -25.9571  -30.7878   21.3752 C   0  0  0  0  0  0
  -26.0371  -29.4078   20.7333 C   0  0  0  0  0  0
  -27.2275  -28.6247   20.7256 C   0  0  0  0  0  0
  -26.0611  -26.8649   19.5285 C   0  0  0  0  0  0
  -24.8820  -27.6424   19.5306 C   0  0  0  0  0  0
  -23.6423  -29.8011   20.1642 C   0  0  0  0  0  0
  -25.4108  -36.3097   24.0346 C   0  0  1  0  0  0
  -20.5877  -28.3678   23.1283 C   0  0  2  0  0  0
  -20.6770  -26.9407   22.5396 C   0  0  0  0  0  0
  -19.5754  -26.6374   21.5194 C   0  0  0  0  0  0
  -18.1933  -26.7907   22.1617 C   0  0  0  0  0  0
  -19.1536  -28.8836   23.2882 C   0  0  0  0  0  0
  -18.9468  -30.1430   23.8909 C   0  0  0  0  0  0
  -17.6473  -30.6567   24.0572 C   0  0  0  0  0  0
  -25.9041  -34.9459   23.5129 C   0  0  0  0  0  0
  -16.5365  -29.9073   23.6322 C   0  0  0  0  0  0
  -16.7278  -28.6486   23.0351 C   0  0  0  0  0  0
  -26.4489  -31.6593   25.0726 C   0  0  0  0  0  0
  -25.3745  -31.3718   26.1473 C   0  0  0  0  0  0
  -27.0328  -30.3021   24.6171 C   0  0  0  0  0  0
  -27.6084  -32.4300   25.7476 C   0  0  0  0  0  0
  -27.5586  -37.1799   24.8466 C   0  0  0  0  0  0
  -21.4162  -29.3050   22.3677 N   0  0  0  0  0  0
  -26.4297  -37.3783   23.9419 N   0  0  0  0  0  0
  -24.6853  -31.0602   22.0976 N   0  0  0  0  0  0
  -23.4161  -28.8183   23.3041 O   0  0  0  0  0  0
  -28.4132  -26.5633   20.0065 O   0  0  0  0  0  0
  -26.5601  -34.8926   22.4692 O   0  0  0  0  0  0
  -23.5395  -32.1413   23.7339 O   0  0  0  0  0  0
  -28.5507  -19.4357   20.9853 C   0  0  0  0  0  0
  -30.9949  -18.0956   20.7505 C   0  0  0  0  0  0
  -28.6134  -18.0141   20.9334 C   0  0  0  0  0  0
  -29.6991  -20.2533   20.9306 C   0  0  0  0  0  0
  -29.8318  -17.2756   20.8305 C   0  0  0  0  0  0
  -30.9331  -19.5364   20.8010 C   0  0  0  0  0  0
  -29.9611  -22.9611   18.9228 C   0  0  0  0  0  0
  -29.6223  -22.5287   17.6927 C   0  0  0  0  0  0
  -31.2430  -23.6967   19.3030 C   0  0  0  0  0  0
  -31.0325  -25.1661   19.7112 C   0  0  0  0  0  0
  -30.2250  -25.3799   21.0078 C   0  0  0  0  0  0
  -28.1355  -23.9276   20.3864 C   0  0  0  0  0  0
  -28.6974  -25.3610   20.8172 C   0  0  2  0  0  0
  -27.3000  -17.2887   20.9586 C   0  0  0  0  0  0
  -28.3234  -21.8263   17.3175 C   0  0  0  0  0  0
  -29.5579  -21.8177   21.1824 C   0  0  0  0  0  0
  -29.7704  -15.7896   20.8592 N   0  0  0  0  0  0
  -29.0491  -22.7333   20.0724 N   0  3  2  0  0  0
  -32.4205  -20.4089   20.7485 Cl  0  0  0  0  0  0
  -31.4893  -12.5877   19.2016 H   0  0  0  0  0  0
  -30.3813  -11.4737   19.9520 H   0  0  0  0  0  0
  -29.8154  -11.7998   17.5034 H   0  0  0  0  0  0
  -29.6380  -13.5127   17.7688 H   0  0  0  0  0  0
  -27.9327  -11.2794   18.9180 H   0  0  0  0  0  0
  -27.3924  -12.5156   17.8082 H   0  0  0  0  0  0
  -27.6415  -14.2412   19.4835 H   0  0  0  0  0  0
  -28.7177  -12.1268   21.4177 H   0  0  0  0  0  0
  -28.4044  -13.7914   21.8260 H   0  0  0  0  0  0
  -25.2725   -9.5626   22.4780 H   0  0  0  0  0  0
  -23.9961   -7.4572   22.7454 H   0  0  0  0  0  0
  -21.0812   -8.8746   19.8927 H   0  0  0  0  0  0
  -22.3703  -10.9624   19.6158 H   0  0  0  0  0  0
  -21.2046   -7.6139   23.9743 H   0  0  0  0  0  0
  -21.1468   -6.0503   25.9097 H   0  0  0  0  0  0
  -22.0589   -2.7581   23.2873 H   0  0  0  0  0  0
  -22.3968  -11.9865   22.4925 H   0  0  0  0  0  0
  -21.0993  -13.1244   22.2659 H   0  0  0  0  0  0
  -24.5151  -15.7298   20.3350 H   0  0  0  0  0  0
  -26.0902  -15.5350   19.7655 H   0  0  0  0  0  0
  -26.7145  -32.5478   23.1109 H   0  0  0  0  0  0
  -25.0075  -33.9749   25.0463 H   0  0  0  0  0  0
  -22.7141  -31.2975   21.3915 H   0  0  0  0  0  0
  -23.3761  -35.9607   23.3292 H   0  0  0  0  0  0
  -24.3581  -36.8920   22.2061 H   0  0  0  0  0  0
  -23.7220  -37.6489   23.6650 H   0  0  0  0  0  0
  -26.0846  -31.5457   20.6012 H   0  0  0  0  0  0
  -26.8365  -30.8442   22.0042 H   0  0  0  0  0  0
  -28.1321  -29.0189   21.1682 H   0  0  0  0  0  0
  -26.0493  -25.9076   19.0268 H   0  0  0  0  0  0
  -23.9886  -27.2554   19.0620 H   0  0  0  0  0  0
  -23.7743  -30.5734   19.4053 H   0  0  0  0  0  0
  -22.7598  -29.2364   19.8595 H   0  0  0  0  0  0
  -25.1277  -36.1967   25.0835 H   0  0  0  0  0  0
  -20.9970  -28.3255   24.1410 H   0  0  0  0  0  0
  -20.5639  -26.2305   23.3595 H   0  0  0  0  0  0
  -21.6648  -26.7412   22.1229 H   0  0  0  0  0  0
  -19.6921  -25.6281   21.1234 H   0  0  0  0  0  0
  -19.6688  -27.3179   20.6721 H   0  0  0  0  0  0
  -17.4194  -26.6647   21.4030 H   0  0  0  0  0  0
  -18.0351  -26.0041   22.9008 H   0  0  0  0  0  0
  -19.7944  -30.7228   24.2297 H   0  0  0  0  0  0
  -17.5034  -31.6256   24.5163 H   0  0  0  0  0  0
  -15.5369  -30.2993   23.7612 H   0  0  0  0  0  0
  -15.8678  -28.0800   22.7071 H   0  0  0  0  0  0
  -24.5875  -30.7124   25.7786 H   0  0  0  0  0  0
  -24.8997  -32.2885   26.4984 H   0  0  0  0  0  0
  -25.8086  -30.8812   27.0198 H   0  0  0  0  0  0
  -26.2886  -29.6753   24.1244 H   0  0  0  0  0  0
  -27.4083  -29.7302   25.4668 H   0  0  0  0  0  0
  -27.8733  -30.4311   23.9351 H   0  0  0  0  0  0
  -27.2747  -33.3620   26.2043 H   0  0  0  0  0  0
  -28.3896  -32.6814   25.0290 H   0  0  0  0  0  0
  -28.0731  -31.8418   26.5401 H   0  0  0  0  0  0
  -28.2600  -38.0098   24.7524 H   0  0  0  0  0  0
  -28.1093  -36.2644   24.6267 H   0  0  0  0  0  0
  -27.2313  -37.1410   25.8870 H   0  0  0  0  0  0
  -20.9308  -29.8813   21.6936 H   0  0  0  0  0  0
  -26.0191  -38.2867   24.1418 H   0  0  0  0  0  0
  -27.5888  -19.9114   21.0981 H   0  0  0  0  0  0
  -31.9652  -17.6286   20.6817 H   0  0  0  0  0  0
  -30.3143  -22.6802   16.8765 H   0  0  0  0  0  0
  -31.9093  -23.6722   18.4397 H   0  0  0  0  0  0
  -31.7777  -23.1602   20.0844 H   0  0  0  0  0  0
  -30.5834  -25.7240   18.8889 H   0  0  0  0  0  0
  -32.0178  -25.6111   19.8525 H   0  0  0  0  0  0
  -30.4896  -26.3604   21.4069 H   0  0  0  0  0  0
  -30.5261  -24.6665   21.7746 H   0  0  0  0  0  0
  -27.5314  -24.0903   19.4940 H   0  0  0  0  0  0
  -27.4154  -23.6031   21.1369 H   0  0  0  0  0  0
  -28.2640  -25.5749   21.7969 H   0  0  0  0  0  0
  -26.4467  -17.9684   20.9916 H   0  0  0  0  0  0
  -27.2311  -16.6129   21.8120 H   0  0  0  0  0  0
  -27.2359  -16.7380   20.0239 H   0  0  0  0  0  0
  -27.6060  -21.7662   18.1355 H   0  0  0  0  0  0
  -28.5217  -20.8115   16.9706 H   0  0  0  0  0  0
  -27.8410  -22.3631   16.4988 H   0  0  0  0  0  0
  -30.4893  -22.2080   21.5892 H   0  0  0  0  0  0
  -28.8573  -21.9168   22.0121 H   0  0  0  0  0  0
  -28.8535  -15.4503   21.1015 H   0  0  0  0  0  0
  -28.3562  -22.1117   19.6836 H   0  0  0  0  0  0
  1 25  1  0  0  0
  1 30  2  0  0  0
  1 87  1  0  0  0
  2  3  1  0  0  0
  2 25  1  0  0  0
  2 90  1  0  0  0
  2 91  1  0  0  0
  3  4  1  0  0  0
  3 92  1  0  0  0
  3 93  1  0  0  0
  4  5  1  0  0  0
  4 94  1  0  0  0
  4 95  1  0  0  0
  5  6  1  0  0  0
  5 26  1  0  0  0
  5 96  1  0  0  0
  6 25  1  0  0  0
  6 97  1  0  0  0
  6 98  1  0  0  0
  7  8  2  0  0  0
  7 26  1  0  0  0
  7 29  1  0  0  0
  8  9  1  0  0  0
  8 22  1  0  0  0
  9 10  1  0  0  0
  9 27  2  0  0  0
 10 11  2  0  0  0
 10 15  1  0  0  0
 11 12  1  0  0  0
 11 99  1  0  0  0
 12 13  2  0  0  0
 12100  1  0  0  0
 13 14  1  0  0  0
 13 31  1  0  0  0
 14 15  2  0  0  0
 14101  1  0  0  0
 15102  1  0  0  0
 16 17  2  0  0  0
 16 21  1  0  0  0
 16 31  1  0  0  0
 17 18  1  0  0  0
 17103  1  0  0  0
 18 19  2  0  0  0
 18104  1  0  0  0
 19 20  1  0  0  0
 19 24  1  0  0  0
 20 21  2  0  0  0
 20105  1  0  0  0
 21 23  1  0  0  0
 22 28  1  0  0  0
 22 32  2  0  0  0
 26 27  1  0  0  0
 28106  1  0  0  0
 28107  1  0  0  0
 29108  1  0  0  0
 29109  1  0  0  0
 33 34  1  0  0  0
 33 66  1  0  0  0
 33 70  2  0  0  0
 34 36  1  0  0  0
 34 59  1  0  0  0
 34110  1  0  0  0
 35 44  2  0  0  0
 35 45  1  0  0  0
 35 68  1  0  0  0
 36 56  1  0  0  0
 36111  1  0  0  0
 37 39  1  0  0  0
 37 47  1  0  0  0
 37 66  1  0  0  0
 37112  1  0  0  0
 38 43  2  0  0  0
 38 46  1  0  0  0
 38 47  1  0  0  0
 39 64  1  0  0  0
 39 67  2  0  0  0
 40 52  1  0  0  0
 40 53  2  0  0  0
 40 58  1  0  0  0
 41113  1  0  0  0
 41114  1  0  0  0
 41115  1  0  0  0
 41 48  1  0  0  0
 42 43  1  0  0  0
 42 66  1  0  0  0
 42116  1  0  0  0
 42117  1  0  0  0
 43 44  1  0  0  0
 44118  1  0  0  0
 45 46  2  0  0  0
 45119  1  0  0  0
 46120  1  0  0  0
 47121  1  0  0  0
 47122  1  0  0  0
 48 56  1  0  0  0
 48 65  1  0  0  0
 48123  1  0  0  0
 49 50  1  0  0  0
 49 53  1  0  0  0
 49 64  1  0  0  0
 49124  1  0  0  0
 50 51  1  0  0  0
 50125  1  0  0  0
 50126  1  0  0  0
 51 52  1  0  0  0
 51127  1  0  0  0
 51128  1  0  0  0
 52129  1  0  0  0
 52130  1  0  0  0
 53 54  1  0  0  0
 54 55  2  0  0  0
 54131  1  0  0  0
 55 57  1  0  0  0
 55132  1  0  0  0
 56 69  2  0  0  0
 57 58  2  0  0  0
 57133  1  0  0  0
 58134  1  0  0  0
 59 60  1  0  0  0
 59 61  1  0  0  0
 59 62  1  0  0  0
 60135  1  0  0  0
 60136  1  0  0  0
 60137  1  0  0  0
 61138  1  0  0  0
 61139  1  0  0  0
 61140  1  0  0  0
 62141  1  0  0  0
 62142  1  0  0  0
 62143  1  0  0  0
 63 65  1  0  0  0
 63144  1  0  0  0
 63145  1  0  0  0
 63146  1  0  0  0
 64147  1  0  0  0
 65148  1  0  0  0
 68 83  1  0  0  0
 71 73  2  0  0  0
 71 74  1  0  0  0
 71149  1  0  0  0
 72 75  2  0  0  0
 72 76  1  0  0  0
 72150  1  0  0  0
 73 75  1  0  0  0
 73 84  1  0  0  0
 74 76  2  0  0  0
 74 86  1  0  0  0
 75 87  1  0  0  0
 76 89  1  0  0  0
 77 78  2  0  0  0
 77 79  1  0  0  0
 77 88  1  0  0  0
 78 85  1  0  0  0
 78151  1  0  0  0
 79 80  1  0  0  0
 79152  1  0  0  0
 79153  1  0  0  0
 80 81  1  0  0  0
 80154  1  0  0  0
 80155  1  0  0  0
 81 83  1  0  0  0
 81156  1  0  0  0
 81157  1  0  0  0
 82 83  1  0  0  0
 82 88  1  0  0  0
 82158  1  0  0  0
 82159  1  0  0  0
 83160  1  0  0  0
 84161  1  0  0  0
 84162  1  0  0  0
 84163  1  0  0  0
 85164  1  0  0  0
 85165  1  0  0  0
 85166  1  0  0  0
 86167  1  0  0  0
 86168  1  0  0  0
 86 88  1  0  0  0
 87169  1  0  0  0
 88170  1  0  0  0
M  CHG  1  88   1
M  ISO  4   1 100  68 101  83 101  87 100
M  END
> <chiral flag>
0

> <version>
0

> <s_m_source_file>
/data/baiqing/PycharmProjects/Reinvent-master-3.2/result/LINK_invent/BTK/process_docking_weight1_custom_product_contain_oxygen_bond_distance_aromatic_linkinvent_7_9_3/rearranged_h_0034.sdf

> <i_m_source_file_index>
73

> <r_mmod_Potential_Energy-OPLS-2005>
74.1480178833008

> <r_mmod_Stretch_Energy-OPLS-2005>
96.1704940795898

> <r_mmod_Bend_Energy-OPLS-2005>
209.171524047852

> <r_mmod_Torsional_Energy-OPLS-2005>
273.729278564453

> <r_mmod_Improper_Torsional_Energy-OPLS-2005>
7.47602987289429

> <r_mmod_Van_der_Waal_Energy-OPLS-2005>
130.910003662109

> <r_mmod_Electrostatic_Energy-OPLS-2005>
-299.57958984375

> <r_mmod_Solvation_Energy-OPLS-2005>
-407.572998046875

> <b_mmod_Minimization_Converged-OPLS-2005>
0

> <r_mmod_RMS_Derivative-OPLS-2005>
4.19708681106567

$$$$
73
                    3D
 Structure written by MMmdl.
158167  0  0  1  0            999 V2000
  -30.4787  -15.1456   20.3040 C   0  0  0  0  0  0
  -30.4546  -12.6912   19.5271 C   0  0  0  0  0  0
  -29.5479  -12.3746   18.3098 C   0  0  0  0  0  0
  -28.0607  -12.2604   18.7016 C   0  0  0  0  0  0
  -27.6118  -13.2543   19.8066 C   0  0  2  0  0  0
  -28.6525  -13.4132   20.9253 C   0  0  0  0  0  0
  -25.2434  -13.8236   20.5738 C   0  0  0  0  0  0
  -24.1755  -13.0453   20.9253 C   0  0  0  0  0  0
  -24.6372  -11.6938   20.8785 C   0  0  0  0  0  0
  -23.9068  -10.4300   21.0424 C   0  0  0  0  0  0
  -24.3623   -9.4208   21.9192 C   0  0  0  0  0  0
  -23.6299   -8.2240   22.0754 C   0  0  0  0  0  0
  -22.4281   -8.0280   21.3544 C   0  0  0  0  0  0
  -21.9919   -9.0255   20.4647 C   0  0  0  0  0  0
  -22.7246  -10.2137   20.3064 C   0  0  0  0  0  0
  -21.6853   -6.0735   22.5278 C   0  0  0  0  0  0
  -21.4015   -6.5640   23.8211 C   0  0  0  0  0  0
  -21.3660   -5.6793   24.9173 C   0  0  0  0  0  0
  -21.6044   -4.3055   24.7224 C   0  0  0  0  0  0
  -21.8820   -3.8147   23.4346 C   0  0  0  0  0  0
  -21.9193   -4.6963   22.3401 C   0  0  0  0  0  0
  -22.7775  -13.5217   21.1898 C   0  0  0  0  0  0
  -22.1662   -4.2148   21.0979 F   0  0  0  0  0  0
  -21.5629   -3.4540   25.7737 F   0  0  0  0  0  0
  -29.8983  -13.8579   20.2869 N   0  0  0  0  0  0
  -26.2826  -12.9462   20.3196 N   0  0  0  0  0  0
  -25.9300  -11.6599   20.5776 N   0  0  0  0  0  0
  -22.0431  -12.8196   22.0450 N   0  0  0  0  0  0
  -25.4134  -15.1963   20.4187 N   0  0  0  0  0  0
  -31.7154  -15.1322   20.2563 O   0  0  0  0  0  0
  -21.6645   -6.8878   21.4239 O   0  0  0  0  0  0
  -22.3454  -14.5516   20.6736 O   0  0  0  0  0  0
  -24.6513  -31.8347   23.1789 C   0  0  0  0  0  0
  -25.9245  -32.4646   23.8218 C   0  0  1  0  0  0
  -27.2204  -27.0457   20.1848 C   0  0  0  0  0  0
  -25.5959  -33.8454   24.2133 N   0  0  0  0  0  0
  -23.4601  -30.4487   21.5258 C   0  0  2  0  0  0
  -24.9115  -28.8510   20.1170 C   0  0  0  0  0  0
  -22.7608  -29.4497   22.4827 C   0  0  0  0  0  0
  -18.0312  -28.1401   22.8473 C   0  0  0  0  0  0
  -24.1490  -36.7232   23.2646 C   0  0  0  0  0  0
  -26.0205  -30.6818   21.3883 C   0  0  0  0  0  0
  -26.0916  -29.2813   20.7369 C   0  0  0  0  0  0
  -27.2472  -28.3994   20.7423 C   0  0  0  0  0  0
  -26.0120  -26.7285   19.5307 C   0  0  0  0  0  0
  -24.8895  -27.5914   19.4948 C   0  0  0  0  0  0
  -23.6930  -29.7662   20.1503 C   0  0  0  0  0  0
  -25.4127  -36.3002   24.0310 C   0  0  1  0  0  0
  -20.5929  -28.3733   23.1217 C   0  0  2  0  0  0
  -20.6791  -26.9426   22.5405 C   0  0  0  0  0  0
  -19.5766  -26.6379   21.5213 C   0  0  0  0  0  0
  -18.1948  -26.7938   22.1622 C   0  0  0  0  0  0
  -19.1570  -28.8887   23.2834 C   0  0  0  0  0  0
  -18.9484  -30.1481   23.8862 C   0  0  0  0  0  0
  -17.6479  -30.6594   24.0558 C   0  0  0  0  0  0
  -25.9082  -34.9381   23.5038 C   0  0  0  0  0  0
  -16.5370  -29.9084   23.6339 C   0  0  0  0  0  0
  -16.7296  -28.6505   23.0357 C   0  0  0  0  0  0
  -26.4539  -31.6549   25.0697 C   0  0  0  0  0  0
  -25.3702  -31.3765   26.1380 C   0  0  0  0  0  0
  -27.0419  -30.2936   24.6337 C   0  0  0  0  0  0
  -27.6050  -32.4337   25.7492 C   0  0  0  0  0  0
  -27.5572  -37.1773   24.8468 C   0  0  0  0  0  0
  -21.4291  -29.3044   22.3578 N   0  0  0  0  0  0
  -26.4282  -37.3726   23.9411 N   0  0  0  0  0  0
  -24.7311  -31.0126   22.0857 N   0  0  0  0  0  0
  -23.4212  -28.8060   23.3021 O   0  0  0  0  0  0
  -28.2746  -26.0346   20.2126 O   0  0  0  0  0  0
  -26.5680  -34.8898   22.4625 O   0  0  0  0  0  0
  -23.5612  -32.1256   23.6960 O   0  0  0  0  0  0
  -29.6965  -17.9460   20.5840 C   0  0  0  0  0  0
  -28.5838  -17.8675   18.0973 C   0  0  0  0  0  0
  -29.7374  -16.5801   19.9053 C   0  0  0  0  0  0
  -29.0981  -19.2560   20.0630 C   0  0  0  0  0  0
  -29.2191  -16.7013   18.5779 C   0  0  0  0  0  0
  -28.4906  -19.0851   18.7960 C   0  0  0  0  0  0
  -27.8686  -23.1791   19.6293 C   0  0  0  0  0  0
  -29.2664  -23.5193   21.0805 C   0  0  0  0  0  0
  -28.0918  -24.4800   20.5539 C   0  0  1  0  0  0
  -29.3928  -15.6294   17.5197 C   0  0  0  0  0  0
  -27.7098  -20.1976   18.1164 C   0  0  0  0  0  0
  -28.9134  -20.7866   20.7949 C   0  0  0  0  0  0
  -28.9991  -22.3034   20.1924 N   0  3  1  0  0  0
  -31.4705  -12.8858   19.1805 H   0  0  0  0  0  0
  -30.5303  -11.8217   20.1820 H   0  0  0  0  0  0
  -29.8671  -11.4266   17.8748 H   0  0  0  0  0  0
  -29.6898  -13.0810   17.5024 H   0  0  0  0  0  0
  -27.9223  -11.2406   19.0616 H   0  0  0  0  0  0
  -27.4240  -12.3526   17.8211 H   0  0  0  0  0  0
  -27.5284  -14.2246   19.3221 H   0  0  0  0  0  0
  -28.7890  -12.4833   21.4789 H   0  0  0  0  0  0
  -28.3218  -14.1626   21.6460 H   0  0  0  0  0  0
  -25.2764   -9.5683   22.4773 H   0  0  0  0  0  0
  -24.0008   -7.4628   22.7470 H   0  0  0  0  0  0
  -21.0853   -8.8774   19.8950 H   0  0  0  0  0  0
  -22.3702  -10.9679   19.6179 H   0  0  0  0  0  0
  -21.2008   -7.6148   23.9714 H   0  0  0  0  0  0
  -21.1481   -6.0524   25.9076 H   0  0  0  0  0  0
  -22.0599   -2.7609   23.2846 H   0  0  0  0  0  0
  -22.4067  -11.9864   22.4835 H   0  0  0  0  0  0
  -21.1040  -13.1196   22.2653 H   0  0  0  0  0  0
  -24.6522  -15.8541   20.5447 H   0  0  0  0  0  0
  -26.2736  -15.6385   20.1186 H   0  0  0  0  0  0
  -26.7310  -32.5225   23.0940 H   0  0  0  0  0  0
  -25.0078  -33.9552   25.0264 H   0  0  0  0  0  0
  -22.7672  -31.2764   21.3615 H   0  0  0  0  0  0
  -23.3760  -35.9554   23.3288 H   0  0  0  0  0  0
  -24.3571  -36.8889   22.2063 H   0  0  0  0  0  0
  -23.7237  -37.6416   23.6702 H   0  0  0  0  0  0
  -26.1832  -31.4281   20.6095 H   0  0  0  0  0  0
  -26.8876  -30.7387   22.0347 H   0  0  0  0  0  0
  -28.1496  -28.7305   21.2366 H   0  0  0  0  0  0
  -25.9193  -25.7620   19.0557 H   0  0  0  0  0  0
  -23.9897  -27.2556   18.9980 H   0  0  0  0  0  0
  -23.8400  -30.5347   19.3906 H   0  0  0  0  0  0
  -22.8055  -29.2134   19.8371 H   0  0  0  0  0  0
  -25.1321  -36.1813   25.0801 H   0  0  0  0  0  0
  -21.0019  -28.3328   24.1340 H   0  0  0  0  0  0
  -20.5674  -26.2349   23.3632 H   0  0  0  0  0  0
  -21.6657  -26.7417   22.1210 H   0  0  0  0  0  0
  -19.6926  -25.6281   21.1263 H   0  0  0  0  0  0
  -19.6705  -27.3172   20.6728 H   0  0  0  0  0  0
  -17.4217  -26.6681   21.4024 H   0  0  0  0  0  0
  -18.0344  -26.0089   22.9026 H   0  0  0  0  0  0
  -19.7960  -30.7308   24.2214 H   0  0  0  0  0  0
  -17.5031  -31.6270   24.5166 H   0  0  0  0  0  0
  -15.5368  -30.2975   23.7684 H   0  0  0  0  0  0
  -15.8696  -28.0813   22.7091 H   0  0  0  0  0  0
  -24.5897  -30.7095   25.7702 H   0  0  0  0  0  0
  -24.8875  -32.2953   26.4717 H   0  0  0  0  0  0
  -25.7970  -30.9000   27.0215 H   0  0  0  0  0  0
  -26.3057  -29.6638   24.1331 H   0  0  0  0  0  0
  -27.3990  -29.7264   25.4944 H   0  0  0  0  0  0
  -27.8980  -30.4155   23.9699 H   0  0  0  0  0  0
  -27.2631  -33.3670   26.1979 H   0  0  0  0  0  0
  -28.3909  -32.6845   25.0354 H   0  0  0  0  0  0
  -28.0666  -31.8523   26.5483 H   0  0  0  0  0  0
  -28.2578  -38.0079   24.7511 H   0  0  0  0  0  0
  -28.1077  -36.2606   24.6298 H   0  0  0  0  0  0
  -27.2289  -37.1422   25.8870 H   0  0  0  0  0  0
  -20.9519  -29.8741   21.6731 H   0  0  0  0  0  0
  -26.0138  -38.2789   24.1417 H   0  0  0  0  0  0
  -30.1478  -17.9886   21.5655 H   0  0  0  0  0  0
  -28.1660  -17.8350   17.0996 H   0  0  0  0  0  0
  -28.0193  -23.3887   18.5702 H   0  0  0  0  0  0
  -26.8859  -22.7340   19.7850 H   0  0  0  0  0  0
  -29.1636  -23.2833   22.1401 H   0  0  0  0  0  0
  -30.2590  -23.9276   20.8901 H   0  0  0  0  0  0
  -27.3063  -24.4617   21.3110 H   0  0  0  0  0  0
  -29.4108  -16.0667   16.5205 H   0  0  0  0  0  0
  -28.5600  -14.9315   17.5339 H   0  0  0  0  0  0
  -30.3467  -15.1150   17.6198 H   0  0  0  0  0  0
  -27.1749  -19.8334   17.2384 H   0  0  0  0  0  0
  -28.3740  -20.9906   17.7755 H   0  0  0  0  0  0
  -26.9539  -20.6064   18.7856 H   0  0  0  0  0  0
  -29.6723  -20.7779   21.5767 H   0  0  0  0  0  0
  -27.9709  -20.7424   21.3396 H   0  0  0  0  0  0
  -29.7477  -22.2880   19.5172 H   0  0  0  0  0  0
  1 25  1  0  0  0
  1 30  2  0  0  0
  1 73  1  0  0  0
  2  3  1  0  0  0
  2 25  1  0  0  0
  2 84  1  0  0  0
  2 85  1  0  0  0
  3  4  1  0  0  0
  3 86  1  0  0  0
  3 87  1  0  0  0
  4  5  1  0  0  0
  4 88  1  0  0  0
  4 89  1  0  0  0
  5  6  1  0  0  0
  5 26  1  0  0  0
  5 90  1  0  0  0
  6 25  1  0  0  0
  6 91  1  0  0  0
  6 92  1  0  0  0
  7  8  2  0  0  0
  7 26  1  0  0  0
  7 29  1  0  0  0
  8  9  1  0  0  0
  8 22  1  0  0  0
  9 10  1  0  0  0
  9 27  2  0  0  0
 10 11  2  0  0  0
 10 15  1  0  0  0
 11 12  1  0  0  0
 11 93  1  0  0  0
 12 13  2  0  0  0
 12 94  1  0  0  0
 13 14  1  0  0  0
 13 31  1  0  0  0
 14 15  2  0  0  0
 14 95  1  0  0  0
 15 96  1  0  0  0
 16 17  2  0  0  0
 16 21  1  0  0  0
 16 31  1  0  0  0
 17 18  1  0  0  0
 17 97  1  0  0  0
 18 19  2  0  0  0
 18 98  1  0  0  0
 19 20  1  0  0  0
 19 24  1  0  0  0
 20 21  2  0  0  0
 20 99  1  0  0  0
 21 23  1  0  0  0
 22 28  1  0  0  0
 22 32  2  0  0  0
 26 27  1  0  0  0
 28100  1  0  0  0
 28101  1  0  0  0
 29102  1  0  0  0
 29103  1  0  0  0
 33 34  1  0  0  0
 33 66  1  0  0  0
 33 70  2  0  0  0
 34 36  1  0  0  0
 34 59  1  0  0  0
 34104  1  0  0  0
 35 44  2  0  0  0
 35 45  1  0  0  0
 35 68  1  0  0  0
 36 56  1  0  0  0
 36105  1  0  0  0
 37 39  1  0  0  0
 37 47  1  0  0  0
 37 66  1  0  0  0
 37106  1  0  0  0
 38 43  2  0  0  0
 38 46  1  0  0  0
 38 47  1  0  0  0
 39 64  1  0  0  0
 39 67  2  0  0  0
 40 52  1  0  0  0
 40 53  2  0  0  0
 40 58  1  0  0  0
 41107  1  0  0  0
 41108  1  0  0  0
 41109  1  0  0  0
 41 48  1  0  0  0
 42 43  1  0  0  0
 42 66  1  0  0  0
 42110  1  0  0  0
 42111  1  0  0  0
 43 44  1  0  0  0
 44112  1  0  0  0
 45 46  2  0  0  0
 45113  1  0  0  0
 46114  1  0  0  0
 47115  1  0  0  0
 47116  1  0  0  0
 48 56  1  0  0  0
 48 65  1  0  0  0
 48117  1  0  0  0
 49 50  1  0  0  0
 49 53  1  0  0  0
 49 64  1  0  0  0
 49118  1  0  0  0
 50 51  1  0  0  0
 50119  1  0  0  0
 50120  1  0  0  0
 51 52  1  0  0  0
 51121  1  0  0  0
 51122  1  0  0  0
 52123  1  0  0  0
 52124  1  0  0  0
 53 54  1  0  0  0
 54 55  2  0  0  0
 54125  1  0  0  0
 55 57  1  0  0  0
 55126  1  0  0  0
 56 69  2  0  0  0
 57 58  2  0  0  0
 57127  1  0  0  0
 58128  1  0  0  0
 59 60  1  0  0  0
 59 61  1  0  0  0
 59 62  1  0  0  0
 60129  1  0  0  0
 60130  1  0  0  0
 60131  1  0  0  0
 61132  1  0  0  0
 61133  1  0  0  0
 61134  1  0  0  0
 62135  1  0  0  0
 62136  1  0  0  0
 62137  1  0  0  0
 63 65  1  0  0  0
 63138  1  0  0  0
 63139  1  0  0  0
 63140  1  0  0  0
 64141  1  0  0  0
 65142  1  0  0  0
 68 79  1  0  0  0
 71 73  2  0  0  0
 71 74  1  0  0  0
 71143  1  0  0  0
 72 75  2  0  0  0
 72 76  1  0  0  0
 72144  1  0  0  0
 73 75  1  0  0  0
 74 76  2  0  0  0
 74 82  1  0  0  0
 75 80  1  0  0  0
 76 81  1  0  0  0
 77 79  1  0  0  0
 77 83  1  0  0  0
 77145  1  0  0  0
 77146  1  0  0  0
 78 79  1  0  0  0
 78 83  1  0  0  0
 78147  1  0  0  0
 78148  1  0  0  0
 79149  1  0  0  0
 80150  1  0  0  0
 80151  1  0  0  0
 80152  1  0  0  0
 81153  1  0  0  0
 81154  1  0  0  0
 81155  1  0  0  0
 82156  1  0  0  0
 82157  1  0  0  0
 82 83  1  0  0  0
 83158  1  0  0  0
M  CHG  1  83   1
M  ISO  4   1 100  68 101  73 100  79 101
M  END
> <chiral flag>
0

> <version>
0

> <s_m_source_file>
/data/baiqing/PycharmProjects/Reinvent-master-3.2/result/LINK_invent/BTK/process_docking_weight1_custom_product_contain_oxygen_bond_distance_aromatic_linkinvent_7_9_3/rearranged_h_0034.sdf

> <i_m_source_file_index>
74

> <r_mmod_Potential_Energy-OPLS-2005>
814.176147460938

> <r_mmod_Stretch_Energy-OPLS-2005>
373.373779296875

> <r_mmod_Bend_Energy-OPLS-2005>
380.438842773438

> <r_mmod_Torsional_Energy-OPLS-2005>
274.488189697266

> <r_mmod_Improper_Torsional_Energy-OPLS-2005>
14.5035161972046

> <r_mmod_Van_der_Waal_Energy-OPLS-2005>
130.673950195312

> <r_mmod_Electrostatic_Energy-OPLS-2005>
-234.184875488281

> <r_mmod_Solvation_Energy-OPLS-2005>
-454.562561035156

> <b_mmod_Minimization_Converged-OPLS-2005>
0

> <r_mmod_RMS_Derivative-OPLS-2005>
0.294912457466125

$$$$
74
                    3D
 Structure written by MMmdl.
170179  0  0  1  0            999 V2000
  -30.6202  -14.5704   20.4274 C   0  0  0  0  0  0
  -30.4243  -12.3345   19.4570 C   0  0  0  0  0  0
  -29.4902  -12.4621   18.2334 C   0  0  0  0  0  0
  -28.0139  -12.3401   18.6520 C   0  0  0  0  0  0
  -27.6526  -13.1902   19.9013 C   0  0  2  0  0  0
  -28.7008  -13.0449   21.0220 C   0  0  0  0  0  0
  -25.2574  -13.8139   20.5869 C   0  0  0  0  0  0
  -24.1804  -13.0439   20.9291 C   0  0  0  0  0  0
  -24.6334  -11.6891   20.8820 C   0  0  0  0  0  0
  -23.9012  -10.4301   21.0476 C   0  0  0  0  0  0
  -24.3591   -9.4239   21.9256 C   0  0  0  0  0  0
  -23.6270   -8.2268   22.0805 C   0  0  0  0  0  0
  -22.4270   -8.0302   21.3561 C   0  0  0  0  0  0
  -21.9933   -9.0265   20.4637 C   0  0  0  0  0  0
  -22.7223  -10.2159   20.3111 C   0  0  0  0  0  0
  -21.6851   -6.0764   22.5282 C   0  0  0  0  0  0
  -21.4010   -6.5679   23.8199 C   0  0  0  0  0  0
  -21.3657   -5.6859   24.9180 C   0  0  0  0  0  0
  -21.6044   -4.3117   24.7254 C   0  0  0  0  0  0
  -21.8801   -3.8184   23.4382 C   0  0  0  0  0  0
  -21.9179   -4.6987   22.3418 C   0  0  0  0  0  0
  -22.7830  -13.5210   21.1936 C   0  0  0  0  0  0
  -22.1642   -4.2141   21.1007 F   0  0  0  0  0  0
  -21.5668   -3.4626   25.7787 F   0  0  0  0  0  0
  -30.0087  -13.3554   20.4298 N   0  0  0  0  0  0
  -26.2974  -12.9255   20.3583 N   0  0  0  0  0  0
  -25.9255  -11.6433   20.5910 N   0  0  0  0  0  0
  -22.0495  -12.8199   22.0510 N   0  0  0  0  0  0
  -25.4332  -15.1897   20.4396 N   0  0  0  0  0  0
  -31.8110  -14.7098   20.1302 O   0  0  0  0  0  0
  -21.6654   -6.8895   21.4239 O   0  0  0  0  0  0
  -22.3491  -14.5461   20.6679 O   0  0  0  0  0  0
  -24.6106  -31.8676   23.2088 C   0  0  0  0  0  0
  -25.9019  -32.4818   23.8382 C   0  0  1  0  0  0
  -27.2188  -27.4246   20.1156 C   0  0  0  0  0  0
  -25.5880  -33.8619   24.2326 N   0  0  0  0  0  0
  -23.3986  -30.4891   21.5520 C   0  0  2  0  0  0
  -24.8477  -28.9636   20.1002 C   0  0  0  0  0  0
  -22.7406  -29.4620   22.5002 C   0  0  0  0  0  0
  -18.0249  -28.1365   22.8499 C   0  0  0  0  0  0
  -24.1496  -36.7310   23.2643 C   0  0  0  0  0  0
  -25.9254  -30.8340   21.3626 C   0  0  0  0  0  0
  -26.0051  -29.4688   20.7047 C   0  0  0  0  0  0
  -27.1958  -28.7080   20.7078 C   0  0  0  0  0  0
  -26.0569  -26.9517   19.4656 C   0  0  0  0  0  0
  -24.8706  -27.7077   19.4712 C   0  0  0  0  0  0
  -23.6066  -29.8259   20.1631 C   0  0  0  0  0  0
  -25.4115  -36.3102   24.0341 C   0  0  1  0  0  0
  -20.5853  -28.3639   23.1337 C   0  0  2  0  0  0
  -20.6766  -26.9384   22.5422 C   0  0  0  0  0  0
  -19.5741  -26.6382   21.5222 C   0  0  0  0  0  0
  -18.1912  -26.7906   22.1634 C   0  0  0  0  0  0
  -19.1508  -28.8814   23.2916 C   0  0  0  0  0  0
  -18.9441  -30.1426   23.8917 C   0  0  0  0  0  0
  -17.6449  -30.6588   24.0558 C   0  0  0  0  0  0
  -25.9025  -34.9472   23.5124 C   0  0  0  0  0  0
  -16.5337  -29.9087   23.6341 C   0  0  0  0  0  0
  -16.7237  -28.6503   23.0363 C   0  0  0  0  0  0
  -26.4448  -31.6562   25.0688 C   0  0  0  0  0  0
  -25.3738  -31.3635   26.1445 C   0  0  0  0  0  0
  -27.0269  -30.3010   24.6039 C   0  0  0  0  0  0
  -27.6044  -32.4265   25.7450 C   0  0  0  0  0  0
  -27.5589  -37.1807   24.8478 C   0  0  0  0  0  0
  -21.4136  -29.2996   22.3743 N   0  0  0  0  0  0
  -26.4302  -37.3787   23.9406 N   0  0  0  0  0  0
  -24.6624  -31.0791   22.0990 N   0  0  0  0  0  0
  -23.4204  -28.8184   23.3041 O   0  0  0  0  0  0
  -28.3703  -26.6628   20.2016 O   0  0  0  0  0  0
  -26.5601  -34.8933   22.4690 O   0  0  0  0  0  0
  -23.5309  -32.1433   23.7489 O   0  0  0  0  0  0
  -26.8830  -18.3303   18.2638 C   0  0  0  0  0  0
  -27.9466  -17.4811   18.6212 C   0  0  0  0  0  0
  -26.9070  -19.6992   18.5575 C   0  0  0  0  0  0
  -28.9941  -17.9509   19.4646 C   0  0  0  0  0  0
  -28.0693  -20.2627   19.1456 C   0  0  0  0  0  0
  -29.0677  -19.3737   19.6585 C   0  0  0  0  0  0
  -28.3062  -24.2644   19.4905 C   0  0  0  0  0  0
  -28.4558  -24.6236   18.1968 C   0  0  0  0  0  0
  -27.0891  -23.5215   22.1020 C   0  0  0  0  0  0
  -27.1817  -25.0022   21.7048 C   0  0  0  0  0  0
  -27.0018  -22.6158   20.8636 C   0  0  0  0  0  0
  -28.2826  -25.2802   20.6463 C   0  0  2  0  0  0
  -27.9598  -16.1484   17.9010 C   0  0  0  0  0  0
  -25.7253  -20.5297   18.0751 C   0  0  0  0  0  0
  -30.1232  -17.0109   20.0022 C   0  0  0  0  0  0
  -28.3584  -21.7744   18.9205 C   0  0  0  0  0  0
  -29.7820  -15.6406   20.4652 N   0  0  0  0  0  0
  -28.1827  -22.8163   19.9860 N   0  3  1  0  0  0
  -30.4603  -20.0681   20.4147 Cl  0  0  0  0  0  0
  -31.4635  -12.4540   19.1512 H   0  0  0  0  0  0
  -30.3560  -11.3425   19.9073 H   0  0  0  0  0  0
  -29.7245  -11.6862   17.5036 H   0  0  0  0  0  0
  -29.6572  -13.4141   17.7298 H   0  0  0  0  0  0
  -27.8172  -11.2874   18.8581 H   0  0  0  0  0  0
  -27.3636  -12.6040   17.8183 H   0  0  0  0  0  0
  -27.6811  -14.2282   19.6105 H   0  0  0  0  0  0
  -28.6953  -12.0337   21.4332 H   0  0  0  0  0  0
  -28.4738  -13.7152   21.8544 H   0  0  0  0  0  0
  -25.2710   -9.5786   22.4862 H   0  0  0  0  0  0
  -23.9943   -7.4647   22.7533 H   0  0  0  0  0  0
  -21.0914   -8.8794   19.8896 H   0  0  0  0  0  0
  -22.3786  -10.9729   19.6194 H   0  0  0  0  0  0
  -21.2018   -7.6197   23.9687 H   0  0  0  0  0  0
  -21.1463   -6.0649   25.9070 H   0  0  0  0  0  0
  -22.0571   -2.7648   23.2916 H   0  0  0  0  0  0
  -22.4054  -11.9800   22.4854 H   0  0  0  0  0  0
  -21.1096  -13.1227   22.2670 H   0  0  0  0  0  0
  -26.2996  -15.6487   20.1964 H   0  0  0  0  0  0
  -24.6709  -15.8443   20.5699 H   0  0  0  0  0  0
  -26.7087  -32.5524   23.1144 H   0  0  0  0  0  0
  -25.0019  -33.9794   25.0467 H   0  0  0  0  0  0
  -22.6843  -31.3030   21.4173 H   0  0  0  0  0  0
  -23.3760  -35.9646   23.3324 H   0  0  0  0  0  0
  -24.3578  -36.8905   22.2055 H   0  0  0  0  0  0
  -23.7259  -37.6530   23.6630 H   0  0  0  0  0  0
  -26.0355  -31.6036   20.5975 H   0  0  0  0  0  0
  -26.8129  -30.8848   21.9802 H   0  0  0  0  0  0
  -28.0859  -29.0860   21.1936 H   0  0  0  0  0  0
  -26.0501  -25.9848   18.9826 H   0  0  0  0  0  0
  -23.9799  -27.3205   18.9919 H   0  0  0  0  0  0
  -23.7010  -30.6020   19.4030 H   0  0  0  0  0  0
  -22.7320  -29.2417   19.8764 H   0  0  0  0  0  0
  -25.1291  -36.1985   25.0837 H   0  0  0  0  0  0
  -20.9918  -28.3186   24.1471 H   0  0  0  0  0  0
  -20.5707  -26.2218   23.3596 H   0  0  0  0  0  0
  -21.6627  -26.7457   22.1186 H   0  0  0  0  0  0
  -19.6912  -25.6308   21.1213 H   0  0  0  0  0  0
  -19.6691  -27.3227   20.6791 H   0  0  0  0  0  0
  -17.4191  -26.6646   21.4040 H   0  0  0  0  0  0
  -18.0321  -26.0049   22.9034 H   0  0  0  0  0  0
  -19.7920  -30.7227   24.2319 H   0  0  0  0  0  0
  -17.5010  -31.6278   24.5129 H   0  0  0  0  0  0
  -15.5343  -30.3002   23.7648 H   0  0  0  0  0  0
  -15.8639  -28.0826   22.7085 H   0  0  0  0  0  0
  -24.5943  -30.6941   25.7781 H   0  0  0  0  0  0
  -24.8879  -32.2759   26.4903 H   0  0  0  0  0  0
  -25.8111  -30.8806   27.0191 H   0  0  0  0  0  0
  -26.2796  -29.6805   24.1079 H   0  0  0  0  0  0
  -27.4040  -29.7195   25.4462 H   0  0  0  0  0  0
  -27.8629  -30.4339   23.9179 H   0  0  0  0  0  0
  -27.2690  -33.3576   26.2029 H   0  0  0  0  0  0
  -28.3842  -32.6809   25.0259 H   0  0  0  0  0  0
  -28.0711  -31.8373   26.5350 H   0  0  0  0  0  0
  -28.2616  -38.0097   24.7504 H   0  0  0  0  0  0
  -28.1066  -36.2622   24.6319 H   0  0  0  0  0  0
  -27.2286  -37.1485   25.8878 H   0  0  0  0  0  0
  -20.9284  -29.8699   21.6961 H   0  0  0  0  0  0
  -26.0202  -38.2866   24.1406 H   0  0  0  0  0  0
  -26.0717  -17.9507   17.6573 H   0  0  0  0  0  0
  -28.5600  -25.6677   17.9398 H   0  0  0  0  0  0
  -28.4997  -23.9312   17.3679 H   0  0  0  0  0  0
  -26.2040  -23.3738   22.7235 H   0  0  0  0  0  0
  -27.9440  -23.2402   22.7151 H   0  0  0  0  0  0
  -27.3611  -25.6119   22.5921 H   0  0  0  0  0  0
  -26.1950  -25.2851   21.3500 H   0  0  0  0  0  0
  -26.0838  -22.8391   20.3197 H   0  0  0  0  0  0
  -26.9366  -21.5789   21.1927 H   0  0  0  0  0  0
  -29.2287  -25.1105   21.1621 H   0  0  0  0  0  0
  -27.9595  -16.3437   16.8277 H   0  0  0  0  0  0
  -27.0494  -15.5872   18.1003 H   0  0  0  0  0  0
  -28.8441  -15.5470   18.0958 H   0  0  0  0  0  0
  -25.9179  -20.9494   17.0871 H   0  0  0  0  0  0
  -25.4794  -21.3389   18.7586 H   0  0  0  0  0  0
  -24.8238  -19.9195   18.0054 H   0  0  0  0  0  0
  -30.6417  -17.4814   20.8368 H   0  0  0  0  0  0
  -30.8500  -16.9342   19.1922 H   0  0  0  0  0  0
  -27.7412  -22.0727   18.0802 H   0  0  0  0  0  0
  -29.3779  -21.8585   18.5441 H   0  0  0  0  0  0
  -28.8253  -15.4678   20.7218 H   0  0  0  0  0  0
  -28.9695  -22.6529   20.5979 H   0  0  0  0  0  0
  1 25  1  0  0  0
  1 30  2  0  0  0
  1 87  1  0  0  0
  2  3  1  0  0  0
  2 25  1  0  0  0
  2 90  1  0  0  0
  2 91  1  0  0  0
  3  4  1  0  0  0
  3 92  1  0  0  0
  3 93  1  0  0  0
  4  5  1  0  0  0
  4 94  1  0  0  0
  4 95  1  0  0  0
  5  6  1  0  0  0
  5 26  1  0  0  0
  5 96  1  0  0  0
  6 25  1  0  0  0
  6 97  1  0  0  0
  6 98  1  0  0  0
  7  8  2  0  0  0
  7 26  1  0  0  0
  7 29  1  0  0  0
  8  9  1  0  0  0
  8 22  1  0  0  0
  9 10  1  0  0  0
  9 27  2  0  0  0
 10 11  2  0  0  0
 10 15  1  0  0  0
 11 12  1  0  0  0
 11 99  1  0  0  0
 12 13  2  0  0  0
 12100  1  0  0  0
 13 14  1  0  0  0
 13 31  1  0  0  0
 14 15  2  0  0  0
 14101  1  0  0  0
 15102  1  0  0  0
 16 17  2  0  0  0
 16 21  1  0  0  0
 16 31  1  0  0  0
 17 18  1  0  0  0
 17103  1  0  0  0
 18 19  2  0  0  0
 18104  1  0  0  0
 19 20  1  0  0  0
 19 24  1  0  0  0
 20 21  2  0  0  0
 20105  1  0  0  0
 21 23  1  0  0  0
 22 28  1  0  0  0
 22 32  2  0  0  0
 26 27  1  0  0  0
 28106  1  0  0  0
 28107  1  0  0  0
 29108  1  0  0  0
 29109  1  0  0  0
 33 34  1  0  0  0
 33 66  1  0  0  0
 33 70  2  0  0  0
 34 36  1  0  0  0
 34 59  1  0  0  0
 34110  1  0  0  0
 35 44  2  0  0  0
 35 45  1  0  0  0
 35 68  1  0  0  0
 36 56  1  0  0  0
 36111  1  0  0  0
 37 39  1  0  0  0
 37 47  1  0  0  0
 37 66  1  0  0  0
 37112  1  0  0  0
 38 43  2  0  0  0
 38 46  1  0  0  0
 38 47  1  0  0  0
 39 64  1  0  0  0
 39 67  2  0  0  0
 40 52  1  0  0  0
 40 53  2  0  0  0
 40 58  1  0  0  0
 41113  1  0  0  0
 41114  1  0  0  0
 41115  1  0  0  0
 41 48  1  0  0  0
 42 43  1  0  0  0
 42 66  1  0  0  0
 42116  1  0  0  0
 42117  1  0  0  0
 43 44  1  0  0  0
 44118  1  0  0  0
 45 46  2  0  0  0
 45119  1  0  0  0
 46120  1  0  0  0
 47121  1  0  0  0
 47122  1  0  0  0
 48 56  1  0  0  0
 48 65  1  0  0  0
 48123  1  0  0  0
 49 50  1  0  0  0
 49 53  1  0  0  0
 49 64  1  0  0  0
 49124  1  0  0  0
 50 51  1  0  0  0
 50125  1  0  0  0
 50126  1  0  0  0
 51 52  1  0  0  0
 51127  1  0  0  0
 51128  1  0  0  0
 52129  1  0  0  0
 52130  1  0  0  0
 53 54  1  0  0  0
 54 55  2  0  0  0
 54131  1  0  0  0
 55 57  1  0  0  0
 55132  1  0  0  0
 56 69  2  0  0  0
 57 58  2  0  0  0
 57133  1  0  0  0
 58134  1  0  0  0
 59 60  1  0  0  0
 59 61  1  0  0  0
 59 62  1  0  0  0
 60135  1  0  0  0
 60136  1  0  0  0
 60137  1  0  0  0
 61138  1  0  0  0
 61139  1  0  0  0
 61140  1  0  0  0
 62141  1  0  0  0
 62142  1  0  0  0
 62143  1  0  0  0
 63 65  1  0  0  0
 63144  1  0  0  0
 63145  1  0  0  0
 63146  1  0  0  0
 64147  1  0  0  0
 65148  1  0  0  0
 68 82  1  0  0  0
 71 72  2  0  0  0
 71 73  1  0  0  0
 71149  1  0  0  0
 72 74  1  0  0  0
 72 83  1  0  0  0
 73 75  2  0  0  0
 73 84  1  0  0  0
 74 76  2  0  0  0
 74 85  1  0  0  0
 75 76  1  0  0  0
 75 86  1  0  0  0
 76 89  1  0  0  0
 77 78  2  0  0  0
 77 82  1  0  0  0
 77 88  1  0  0  0
 78150  1  0  0  0
 78151  1  0  0  0
 79 80  1  0  0  0
 79 81  1  0  0  0
 79152  1  0  0  0
 79153  1  0  0  0
 80 82  1  0  0  0
 80154  1  0  0  0
 80155  1  0  0  0
 81 88  1  0  0  0
 81156  1  0  0  0
 81157  1  0  0  0
 82158  1  0  0  0
 83159  1  0  0  0
 83160  1  0  0  0
 83161  1  0  0  0
 84162  1  0  0  0
 84163  1  0  0  0
 84164  1  0  0  0
 85 87  1  0  0  0
 85165  1  0  0  0
 85166  1  0  0  0
 86167  1  0  0  0
 86168  1  0  0  0
 86 88  1  0  0  0
 87169  1  0  0  0
 88170  1  0  0  0
M  CHG  1  88   1
M  ISO  4   1 100  68 101  82 101  87 100
M  END
> <chiral flag>
0

> <version>
0

> <s_m_source_file>
/data/baiqing/PycharmProjects/Reinvent-master-3.2/result/LINK_invent/BTK/process_docking_weight1_custom_product_contain_oxygen_bond_distance_aromatic_linkinvent_7_9_3/rearranged_h_0034.sdf

> <i_m_source_file_index>
75

> <r_mmod_Potential_Energy-OPLS-2005>
-74.1155700683594

> <r_mmod_Stretch_Energy-OPLS-2005>
57.1682205200195

> <r_mmod_Bend_Energy-OPLS-2005>
143.190155029297

> <r_mmod_Torsional_Energy-OPLS-2005>
258.927825927734

> <r_mmod_Improper_Torsional_Energy-OPLS-2005>
11.8293733596802

> <r_mmod_Van_der_Waal_Energy-OPLS-2005>
163.008331298828

> <r_mmod_Electrostatic_Energy-OPLS-2005>
-323.664093017578

> <r_mmod_Solvation_Energy-OPLS-2005>
-415.260101318359

> <b_mmod_Minimization_Converged-OPLS-2005>
0

> <r_mmod_RMS_Derivative-OPLS-2005>
5.65629482269287

$$$$
75
                    3D
 Structure written by MMmdl.
164173  0  0  1  0            999 V2000
  -30.6261  -14.6318   20.5153 C   0  0  0  0  0  0
  -30.4415  -12.3890   19.4626 C   0  0  0  0  0  0
  -29.5145  -12.5142   18.2326 C   0  0  0  0  0  0
  -28.0361  -12.3553   18.6392 C   0  0  0  0  0  0
  -27.6603  -13.2180   19.8735 C   0  0  2  0  0  0
  -28.7014  -13.0600   21.0059 C   0  0  0  0  0  0
  -25.2597  -13.8178   20.5715 C   0  0  0  0  0  0
  -24.1853  -13.0442   20.9198 C   0  0  0  0  0  0
  -24.6428  -11.6917   20.8753 C   0  0  0  0  0  0
  -23.9096  -10.4294   21.0407 C   0  0  0  0  0  0
  -24.3636   -9.4200   21.9182 C   0  0  0  0  0  0
  -23.6304   -8.2239   22.0745 C   0  0  0  0  0  0
  -22.4284   -8.0287   21.3543 C   0  0  0  0  0  0
  -21.9930   -9.0264   20.4641 C   0  0  0  0  0  0
  -22.7267  -10.2138   20.3051 C   0  0  0  0  0  0
  -21.6849   -6.0751   22.5289 C   0  0  0  0  0  0
  -21.4012   -6.5650   23.8226 C   0  0  0  0  0  0
  -21.3656   -5.6795   24.9182 C   0  0  0  0  0  0
  -21.6045   -4.3062   24.7226 C   0  0  0  0  0  0
  -21.8824   -3.8160   23.4346 C   0  0  0  0  0  0
  -21.9191   -4.6978   22.3405 C   0  0  0  0  0  0
  -22.7875  -13.5230   21.1859 C   0  0  0  0  0  0
  -22.1657   -4.2169   21.0979 F   0  0  0  0  0  0
  -21.5626   -3.4540   25.7735 F   0  0  0  0  0  0
  -30.0213  -13.4025   20.4517 N   0  0  0  0  0  0
  -26.3034  -12.9363   20.3367 N   0  0  0  0  0  0
  -25.9358  -11.6514   20.5773 N   0  0  0  0  0  0
  -22.0515  -12.8210   22.0405 N   0  0  0  0  0  0
  -25.4340  -15.1899   20.4145 N   0  0  0  0  0  0
  -31.7603  -14.8113   20.0614 O   0  0  0  0  0  0
  -21.6633   -6.8894   21.4252 O   0  0  0  0  0  0
  -22.3563  -14.5546   20.6721 O   0  0  0  0  0  0
  -24.6240  -31.8586   23.2011 C   0  0  0  0  0  0
  -25.9089  -32.4768   23.8338 C   0  0  1  0  0  0
  -27.2331  -27.3307   20.1242 C   0  0  0  0  0  0
  -25.5928  -33.8574   24.2268 N   0  0  0  0  0  0
  -23.4184  -30.4788   21.5428 C   0  0  2  0  0  0
  -24.8670  -28.9275   20.1135 C   0  0  0  0  0  0
  -22.7460  -29.4610   22.4944 C   0  0  0  0  0  0
  -18.0282  -28.1381   22.8478 C   0  0  0  0  0  0
  -24.1484  -36.7296   23.2639 C   0  0  0  0  0  0
  -25.9553  -30.7933   21.3685 C   0  0  0  0  0  0
  -26.0316  -29.4179   20.7182 C   0  0  0  0  0  0
  -27.2182  -28.6307   20.7120 C   0  0  0  0  0  0
  -26.0553  -26.8892   19.4877 C   0  0  0  0  0  0
  -24.8804  -27.6687   19.4876 C   0  0  0  0  0  0
  -23.6328  -29.8057   20.1607 C   0  0  0  0  0  0
  -25.4109  -36.3074   24.0322 C   0  0  1  0  0  0
  -20.5877  -28.3676   23.1285 C   0  0  2  0  0  0
  -20.6763  -26.9404   22.5392 C   0  0  0  0  0  0
  -19.5743  -26.6377   21.5194 C   0  0  0  0  0  0
  -18.1927  -26.7928   22.1606 C   0  0  0  0  0  0
  -19.1533  -28.8841   23.2882 C   0  0  0  0  0  0
  -18.9458  -30.1438   23.8908 C   0  0  0  0  0  0
  -17.6460  -30.6567   24.0589 C   0  0  0  0  0  0
  -25.9046  -34.9447   23.5092 C   0  0  0  0  0  0
  -16.5351  -29.9071   23.6347 C   0  0  0  0  0  0
  -16.7270  -28.6498   23.0349 C   0  0  0  0  0  0
  -26.4482  -31.6574   25.0707 C   0  0  0  0  0  0
  -25.3713  -31.3700   26.1431 C   0  0  0  0  0  0
  -27.0335  -30.3007   24.6143 C   0  0  0  0  0  0
  -27.6046  -32.4305   25.7480 C   0  0  0  0  0  0
  -27.5568  -37.1796   24.8464 C   0  0  0  0  0  0
  -21.4174  -29.3031   22.3685 N   0  0  0  0  0  0
  -26.4284  -37.3772   23.9406 N   0  0  0  0  0  0
  -24.6844  -31.0608   22.0953 N   0  0  0  0  0  0
  -23.4189  -28.8152   23.3019 O   0  0  0  0  0  0
  -28.3737  -26.5206   20.1238 O   0  0  0  0  0  0
  -26.5615  -34.8914   22.4657 O   0  0  0  0  0  0
  -23.5406  -32.1395   23.7338 O   0  0  0  0  0  0
  -29.6266  -18.9471   19.0843 C   0  0  0  0  0  0
  -29.7966  -17.5624   19.3767 C   0  0  0  0  0  0
  -29.6692  -19.4757   21.4275 C   0  0  0  0  0  0
  -29.5507  -19.9489   20.0922 C   0  0  0  0  0  0
  -29.8052  -18.0811   21.7319 C   0  0  0  0  0  0
  -29.8808  -17.0883   20.7090 C   0  0  0  0  0  0
  -27.1882  -22.2871   20.7285 C   0  0  0  0  0  0
  -26.6191  -21.0689   20.7922 C   0  0  0  0  0  0
  -26.3891  -23.5708   20.9933 C   0  0  0  0  0  0
  -27.1944  -24.7338   21.6045 C   0  0  0  0  0  0
  -28.8565  -23.9370   19.8271 C   0  0  0  0  0  0
  -28.3950  -25.1586   20.7294 C   0  0  1  0  0  0
  -29.8698  -17.6556   23.1886 C   0  0  0  0  0  0
  -29.4239  -21.4695   19.6596 C   0  0  0  0  0  0
  -29.8796  -15.6599   21.0222 N   0  0  0  0  0  0
  -28.6580  -22.5446   20.4327 N   0  3  2  0  0  0
  -31.4842  -12.5123   19.1646 H   0  0  0  0  0  0
  -30.3741  -11.3897   19.8957 H   0  0  0  0  0  0
  -29.7796  -11.7656   17.4848 H   0  0  0  0  0  0
  -29.6646  -13.4851   17.7588 H   0  0  0  0  0  0
  -27.8686  -11.3012   18.8617 H   0  0  0  0  0  0
  -27.3874  -12.5964   17.7966 H   0  0  0  0  0  0
  -27.6844  -14.2577   19.5452 H   0  0  0  0  0  0
  -28.7095  -12.0354   21.3794 H   0  0  0  0  0  0
  -28.4441  -13.6828   21.8643 H   0  0  0  0  0  0
  -25.2781   -9.5664   22.4758 H   0  0  0  0  0  0
  -24.0011   -7.4621   22.7458 H   0  0  0  0  0  0
  -21.0861   -8.8797   19.8939 H   0  0  0  0  0  0
  -22.3742  -10.9682   19.6158 H   0  0  0  0  0  0
  -21.2007   -7.6156   23.9742 H   0  0  0  0  0  0
  -21.1469   -6.0518   25.9088 H   0  0  0  0  0  0
  -22.0609   -2.7623   23.2842 H   0  0  0  0  0  0
  -22.4107  -11.9846   22.4754 H   0  0  0  0  0  0
  -21.1137  -13.1247   22.2620 H   0  0  0  0  0  0
  -24.6780  -15.8533   20.5406 H   0  0  0  0  0  0
  -26.2926  -15.6253   20.1004 H   0  0  0  0  0  0
  -26.7156  -32.5455   23.1086 H   0  0  0  0  0  0
  -25.0108  -33.9724   25.0437 H   0  0  0  0  0  0
  -22.7124  -31.2986   21.3952 H   0  0  0  0  0  0
  -23.3740  -35.9638   23.3308 H   0  0  0  0  0  0
  -24.3569  -36.8922   22.2051 H   0  0  0  0  0  0
  -23.7245  -37.6501   23.6666 H   0  0  0  0  0  0
  -26.0799  -31.5514   20.5937 H   0  0  0  0  0  0
  -26.8375  -30.8489   21.9935 H   0  0  0  0  0  0
  -28.1159  -29.0042   21.1835 H   0  0  0  0  0  0
  -26.0440  -25.9303   18.9905 H   0  0  0  0  0  0
  -23.9910  -27.2932   18.9999 H   0  0  0  0  0  0
  -23.7460  -30.5778   19.3987 H   0  0  0  0  0  0
  -22.7544  -29.2291   19.8652 H   0  0  0  0  0  0
  -25.1279  -36.1926   25.0813 H   0  0  0  0  0  0
  -20.9970  -28.3232   24.1409 H   0  0  0  0  0  0
  -20.5689  -26.2267   23.3575 H   0  0  0  0  0  0
  -21.6629  -26.7440   22.1174 H   0  0  0  0  0  0
  -19.6903  -25.6280   21.1233 H   0  0  0  0  0  0
  -19.6692  -27.3188   20.6721 H   0  0  0  0  0  0
  -17.4199  -26.6703   21.3999 H   0  0  0  0  0  0
  -18.0304  -26.0060   22.8986 H   0  0  0  0  0  0
  -19.7939  -30.7248   24.2293 H   0  0  0  0  0  0
  -17.5018  -31.6243   24.5207 H   0  0  0  0  0  0
  -15.5353  -30.2973   23.7677 H   0  0  0  0  0  0
  -15.8669  -28.0824   22.7051 H   0  0  0  0  0  0
  -24.5903  -30.7033   25.7749 H   0  0  0  0  0  0
  -24.8884  -32.2860   26.4845 H   0  0  0  0  0  0
  -25.8035  -30.8884   27.0213 H   0  0  0  0  0  0
  -26.2902  -29.6729   24.1213 H   0  0  0  0  0  0
  -27.4101  -29.7275   25.4626 H   0  0  0  0  0  0
  -27.8732  -30.4302   23.9310 H   0  0  0  0  0  0
  -27.2669  -33.3619   26.2040 H   0  0  0  0  0  0
  -28.3868  -32.6847   25.0310 H   0  0  0  0  0  0
  -28.0701  -31.8441   26.5410 H   0  0  0  0  0  0
  -28.2578  -38.0095   24.7505 H   0  0  0  0  0  0
  -28.1060  -36.2623   24.6290 H   0  0  0  0  0  0
  -27.2285  -37.1446   25.8867 H   0  0  0  0  0  0
  -20.9344  -29.8769   21.6916 H   0  0  0  0  0  0
  -26.0160  -38.2846   24.1419 H   0  0  0  0  0  0
  -29.5598  -19.2394   18.0449 H   0  0  0  0  0  0
  -29.8255  -16.8576   18.5581 H   0  0  0  0  0  0
  -29.6390  -20.1891   22.2396 H   0  0  0  0  0  0
  -25.5679  -20.9794   21.0252 H   0  0  0  0  0  0
  -27.1379  -20.1417   20.6218 H   0  0  0  0  0  0
  -25.5666  -23.3288   21.6677 H   0  0  0  0  0  0
  -25.9263  -23.8805   20.0563 H   0  0  0  0  0  0
  -27.5756  -24.4038   22.5718 H   0  0  0  0  0  0
  -26.5384  -25.5679   21.8472 H   0  0  0  0  0  0
  -29.9070  -24.0784   19.5707 H   0  0  0  0  0  0
  -28.3128  -23.9730   18.8820 H   0  0  0  0  0  0
  -29.2074  -25.2783   21.4483 H   0  0  0  0  0  0
  -29.9108  -18.5160   23.8566 H   0  0  0  0  0  0
  -30.7581  -17.0489   23.3723 H   0  0  0  0  0  0
  -28.9907  -17.0676   23.4535 H   0  0  0  0  0  0
  -29.0138  -21.4781   18.6489 H   0  0  0  0  0  0
  -30.4510  -21.8178   19.5495 H   0  0  0  0  0  0
  -29.0825  -15.3505   21.5575 H   0  0  0  0  0  0
  -29.1391  -22.5731   21.3203 H   0  0  0  0  0  0
  1 25  1  0  0  0
  1 30  2  0  0  0
  1 85  1  0  0  0
  2  3  1  0  0  0
  2 25  1  0  0  0
  2 87  1  0  0  0
  2 88  1  0  0  0
  3  4  1  0  0  0
  3 89  1  0  0  0
  3 90  1  0  0  0
  4  5  1  0  0  0
  4 91  1  0  0  0
  4 92  1  0  0  0
  5  6  1  0  0  0
  5 26  1  0  0  0
  5 93  1  0  0  0
  6 25  1  0  0  0
  6 94  1  0  0  0
  6 95  1  0  0  0
  7  8  2  0  0  0
  7 26  1  0  0  0
  7 29  1  0  0  0
  8  9  1  0  0  0
  8 22  1  0  0  0
  9 10  1  0  0  0
  9 27  2  0  0  0
 10 11  2  0  0  0
 10 15  1  0  0  0
 11 12  1  0  0  0
 11 96  1  0  0  0
 12 13  2  0  0  0
 12 97  1  0  0  0
 13 14  1  0  0  0
 13 31  1  0  0  0
 14 15  2  0  0  0
 14 98  1  0  0  0
 15 99  1  0  0  0
 16 17  2  0  0  0
 16 21  1  0  0  0
 16 31  1  0  0  0
 17 18  1  0  0  0
 17100  1  0  0  0
 18 19  2  0  0  0
 18101  1  0  0  0
 19 20  1  0  0  0
 19 24  1  0  0  0
 20 21  2  0  0  0
 20102  1  0  0  0
 21 23  1  0  0  0
 22 28  1  0  0  0
 22 32  2  0  0  0
 26 27  1  0  0  0
 28103  1  0  0  0
 28104  1  0  0  0
 29105  1  0  0  0
 29106  1  0  0  0
 33 34  1  0  0  0
 33 66  1  0  0  0
 33 70  2  0  0  0
 34 36  1  0  0  0
 34 59  1  0  0  0
 34107  1  0  0  0
 35 44  2  0  0  0
 35 45  1  0  0  0
 35 68  1  0  0  0
 36 56  1  0  0  0
 36108  1  0  0  0
 37 39  1  0  0  0
 37 47  1  0  0  0
 37 66  1  0  0  0
 37109  1  0  0  0
 38 43  2  0  0  0
 38 46  1  0  0  0
 38 47  1  0  0  0
 39 64  1  0  0  0
 39 67  2  0  0  0
 40 52  1  0  0  0
 40 53  2  0  0  0
 40 58  1  0  0  0
 41110  1  0  0  0
 41111  1  0  0  0
 41112  1  0  0  0
 41 48  1  0  0  0
 42 43  1  0  0  0
 42 66  1  0  0  0
 42113  1  0  0  0
 42114  1  0  0  0
 43 44  1  0  0  0
 44115  1  0  0  0
 45 46  2  0  0  0
 45116  1  0  0  0
 46117  1  0  0  0
 47118  1  0  0  0
 47119  1  0  0  0
 48 56  1  0  0  0
 48 65  1  0  0  0
 48120  1  0  0  0
 49 50  1  0  0  0
 49 53  1  0  0  0
 49 64  1  0  0  0
 49121  1  0  0  0
 50 51  1  0  0  0
 50122  1  0  0  0
 50123  1  0  0  0
 51 52  1  0  0  0
 51124  1  0  0  0
 51125  1  0  0  0
 52126  1  0  0  0
 52127  1  0  0  0
 53 54  1  0  0  0
 54 55  2  0  0  0
 54128  1  0  0  0
 55 57  1  0  0  0
 55129  1  0  0  0
 56 69  2  0  0  0
 57 58  2  0  0  0
 57130  1  0  0  0
 58131  1  0  0  0
 59 60  1  0  0  0
 59 61  1  0  0  0
 59 62  1  0  0  0
 60132  1  0  0  0
 60133  1  0  0  0
 60134  1  0  0  0
 61135  1  0  0  0
 61136  1  0  0  0
 61137  1  0  0  0
 62138  1  0  0  0
 62139  1  0  0  0
 62140  1  0  0  0
 63 65  1  0  0  0
 63141  1  0  0  0
 63142  1  0  0  0
 63143  1  0  0  0
 64144  1  0  0  0
 65145  1  0  0  0
 68 82  1  0  0  0
 71 72  2  0  0  0
 71 74  1  0  0  0
 71146  1  0  0  0
 72 76  1  0  0  0
 72147  1  0  0  0
 73 74  2  0  0  0
 73 75  1  0  0  0
 73148  1  0  0  0
 74 84  1  0  0  0
 75 76  2  0  0  0
 75 83  1  0  0  0
 76 85  1  0  0  0
 77 78  2  0  0  0
 77 79  1  0  0  0
 77 86  1  0  0  0
 78149  1  0  0  0
 78150  1  0  0  0
 79 80  1  0  0  0
 79151  1  0  0  0
 79152  1  0  0  0
 80 82  1  0  0  0
 80153  1  0  0  0
 80154  1  0  0  0
 81 82  1  0  0  0
 81 86  1  0  0  0
 81155  1  0  0  0
 81156  1  0  0  0
 82157  1  0  0  0
 83158  1  0  0  0
 83159  1  0  0  0
 83160  1  0  0  0
 84161  1  0  0  0
 84162  1  0  0  0
 84 86  1  0  0  0
 85163  1  0  0  0
 86164  1  0  0  0
M  CHG  1  86   1
M  ISO  4   1 100  68 101  82 101  85 100
M  END
> <chiral flag>
0

> <version>
0

> <s_m_source_file>
/data/baiqing/PycharmProjects/Reinvent-master-3.2/result/LINK_invent/BTK/process_docking_weight1_custom_product_contain_oxygen_bond_distance_aromatic_linkinvent_7_9_3/rearranged_h_0034.sdf

> <i_m_source_file_index>
76

> <r_mmod_Potential_Energy-OPLS-2005>
17.8619117736816

> <r_mmod_Stretch_Energy-OPLS-2005>
86.4916915893555

> <r_mmod_Bend_Energy-OPLS-2005>
172.074661254883

> <r_mmod_Torsional_Energy-OPLS-2005>
281.33056640625

> <r_mmod_Improper_Torsional_Energy-OPLS-2005>
3.79075479507446

> <r_mmod_Van_der_Waal_Energy-OPLS-2005>
149.144943237305

> <r_mmod_Electrostatic_Energy-OPLS-2005>
-288.106048583984

> <r_mmod_Solvation_Energy-OPLS-2005>
-428.574127197266

> <b_mmod_Minimization_Converged-OPLS-2005>
0

> <r_mmod_RMS_Derivative-OPLS-2005>
1.59667181968689

$$$$
76
                    3D
 Structure written by MMmdl.
167176  0  0  1  0            999 V2000
  -30.6807  -14.5416   20.5096 C   0  0  0  0  0  0
  -30.4186  -12.3305   19.4494 C   0  0  0  0  0  0
  -29.4987  -12.4954   18.2213 C   0  0  0  0  0  0
  -28.0201  -12.3522   18.6309 C   0  0  0  0  0  0
  -27.6543  -13.2155   19.8688 C   0  0  2  0  0  0
  -28.6968  -13.0543   20.9996 C   0  0  0  0  0  0
  -25.2553  -13.8181   20.5700 C   0  0  0  0  0  0
  -24.1817  -13.0442   20.9196 C   0  0  0  0  0  0
  -24.6385  -11.6913   20.8747 C   0  0  0  0  0  0
  -23.9058  -10.4296   21.0408 C   0  0  0  0  0  0
  -24.3614   -9.4212   21.9185 C   0  0  0  0  0  0
  -23.6288   -8.2249   22.0753 C   0  0  0  0  0  0
  -22.4272   -8.0282   21.3545 C   0  0  0  0  0  0
  -21.9905   -9.0256   20.4650 C   0  0  0  0  0  0
  -22.7231  -10.2135   20.3058 C   0  0  0  0  0  0
  -21.6854   -6.0736   22.5279 C   0  0  0  0  0  0
  -21.4011   -6.5641   23.8212 C   0  0  0  0  0  0
  -21.3661   -5.6796   24.9176 C   0  0  0  0  0  0
  -21.6043   -4.3057   24.7229 C   0  0  0  0  0  0
  -21.8816   -3.8147   23.4352 C   0  0  0  0  0  0
  -21.9193   -4.6961   22.3404 C   0  0  0  0  0  0
  -22.7841  -13.5233   21.1858 C   0  0  0  0  0  0
  -22.1658   -4.2150   21.0981 F   0  0  0  0  0  0
  -21.5631   -3.4537   25.7739 F   0  0  0  0  0  0
  -30.0217  -13.3503   20.4366 N   0  0  0  0  0  0
  -26.2986  -12.9364   20.3354 N   0  0  0  0  0  0
  -25.9312  -11.6516   20.5777 N   0  0  0  0  0  0
  -22.0488  -12.8223   22.0417 N   0  0  0  0  0  0
  -25.4274  -15.1902   20.4115 N   0  0  0  0  0  0
  -31.8398  -14.6687   20.1075 O   0  0  0  0  0  0
  -21.6642   -6.8875   21.4239 O   0  0  0  0  0  0
  -22.3523  -14.5542   20.6708 O   0  0  0  0  0  0
  -24.6187  -31.8649   23.2080 C   0  0  0  0  0  0
  -25.9065  -32.4805   23.8384 C   0  0  1  0  0  0
  -27.2238  -27.3788   20.1056 C   0  0  0  0  0  0
  -25.5908  -33.8605   24.2311 N   0  0  0  0  0  0
  -23.4082  -30.4897   21.5494 C   0  0  2  0  0  0
  -24.8524  -28.9532   20.1102 C   0  0  0  0  0  0
  -22.7431  -29.4644   22.4966 C   0  0  0  0  0  0
  -18.0276  -28.1377   22.8489 C   0  0  0  0  0  0
  -24.1485  -36.7309   23.2637 C   0  0  0  0  0  0
  -25.9426  -30.8132   21.3703 C   0  0  0  0  0  0
  -26.0151  -29.4449   20.7146 C   0  0  0  0  0  0
  -27.2001  -28.6654   20.7088 C   0  0  0  0  0  0
  -26.0425  -26.9293   19.4684 C   0  0  0  0  0  0
  -24.8647  -27.6983   19.4819 C   0  0  0  0  0  0
  -23.6179  -29.8260   20.1626 C   0  0  0  0  0  0
  -25.4106  -36.3101   24.0334 C   0  0  1  0  0  0
  -20.5871  -28.3668   23.1307 C   0  0  2  0  0  0
  -20.6766  -26.9398   22.5417 C   0  0  0  0  0  0
  -19.5744  -26.6381   21.5213 C   0  0  0  0  0  0
  -18.1922  -26.7924   22.1620 C   0  0  0  0  0  0
  -19.1526  -28.8839   23.2896 C   0  0  0  0  0  0
  -18.9453  -30.1445   23.8908 C   0  0  0  0  0  0
  -17.6455  -30.6583   24.0565 C   0  0  0  0  0  0
  -25.9041  -34.9467   23.5123 C   0  0  0  0  0  0
  -16.5346  -29.9084   23.6327 C   0  0  0  0  0  0
  -16.7266  -28.6501   23.0348 C   0  0  0  0  0  0
  -26.4477  -31.6596   25.0730 C   0  0  0  0  0  0
  -25.3737  -31.3716   26.1477 C   0  0  0  0  0  0
  -27.0308  -30.3028   24.6139 C   0  0  0  0  0  0
  -27.6049  -32.4319   25.7489 C   0  0  0  0  0  0
  -27.5582  -37.1806   24.8460 C   0  0  0  0  0  0
  -21.4153  -29.3033   22.3710 N   0  0  0  0  0  0
  -26.4289  -37.3790   23.9411 N   0  0  0  0  0  0
  -24.6750  -31.0715   22.1001 N   0  0  0  0  0  0
  -23.4190  -28.8182   23.3017 O   0  0  0  0  0  0
  -28.3827  -26.6110   20.1742 O   0  0  0  0  0  0
  -26.5606  -34.8922   22.4687 O   0  0  0  0  0  0
  -23.5370  -32.1422   23.7450 O   0  0  0  0  0  0
  -29.3823  -19.4246   20.7039 C   0  0  0  0  0  0
  -29.8633  -19.3726   23.4510 C   0  0  0  0  0  0
  -29.1076  -20.5995   21.4687 C   0  0  0  0  0  0
  -29.8933  -18.2246   21.2913 C   0  0  0  0  0  0
  -29.3494  -20.5501   22.8663 C   0  0  0  0  0  0
  -30.1444  -18.2256   22.6849 C   0  0  0  0  0  0
  -30.0649  -22.8324   19.0981 C   0  0  0  0  0  0
  -31.2138  -22.1832   18.8511 C   0  0  0  0  0  0
  -29.1909  -23.5542   18.0794 C   0  0  0  0  0  0
  -28.9556  -25.0270   18.4544 C   0  0  0  0  0  0
  -29.1945  -24.3550   20.8933 C   0  0  0  0  0  0
  -28.3669  -25.1852   19.8642 C   0  0  1  0  0  0
  -29.0618  -21.7368   23.7748 C   0  0  0  0  0  0
  -30.2780  -17.0226   20.3906 C   0  0  0  0  0  0
  -28.5082  -21.8774   20.8150 C   0  0  0  0  0  0
  -29.9305  -15.6331   20.8003 N   0  0  0  0  0  0
  -29.5142  -22.9385   20.4800 N   0  3  1  0  0  0
  -30.8397  -16.8661   23.4962 Cl  0  0  0  0  0  0
  -31.4653  -12.4160   19.1524 H   0  0  0  0  0  0
  -30.3125  -11.3324   19.8775 H   0  0  0  0  0  0
  -29.7483  -11.7541   17.4612 H   0  0  0  0  0  0
  -29.6622  -13.4722   17.7630 H   0  0  0  0  0  0
  -27.8405  -11.2986   18.8488 H   0  0  0  0  0  0
  -27.3694  -12.6021   17.7923 H   0  0  0  0  0  0
  -27.6798  -14.2542   19.5386 H   0  0  0  0  0  0
  -28.6816  -12.0371   21.3935 H   0  0  0  0  0  0
  -28.4625  -13.7056   21.8432 H   0  0  0  0  0  0
  -25.2764   -9.5682   22.4757 H   0  0  0  0  0  0
  -24.0001   -7.4637   22.7465 H   0  0  0  0  0  0
  -21.0840   -8.8763   19.8955 H   0  0  0  0  0  0
  -22.3688  -10.9668   19.6163 H   0  0  0  0  0  0
  -21.2001   -7.6147   23.9713 H   0  0  0  0  0  0
  -21.1484   -6.0529   25.9078 H   0  0  0  0  0  0
  -22.0596   -2.7608   23.2856 H   0  0  0  0  0  0
  -22.4097  -11.9877   22.4792 H   0  0  0  0  0  0
  -21.1105  -13.1242   22.2624 H   0  0  0  0  0  0
  -24.6621  -15.8465   20.5218 H   0  0  0  0  0  0
  -26.2798  -15.6287   20.0868 H   0  0  0  0  0  0
  -26.7132  -32.5493   23.1137 H   0  0  0  0  0  0
  -25.0052  -33.9763   25.0452 H   0  0  0  0  0  0
  -22.6989  -31.3083   21.4108 H   0  0  0  0  0  0
  -23.3745  -35.9645   23.3303 H   0  0  0  0  0  0
  -24.3581  -36.8923   22.2051 H   0  0  0  0  0  0
  -23.7239  -37.6515   23.6653 H   0  0  0  0  0  0
  -26.0653  -31.5781   20.6023 H   0  0  0  0  0  0
  -26.8272  -30.8625   21.9937 H   0  0  0  0  0  0
  -28.0933  -29.0379   21.1910 H   0  0  0  0  0  0
  -25.9935  -25.9869   18.9461 H   0  0  0  0  0  0
  -23.9741  -27.3209   18.9983 H   0  0  0  0  0  0
  -23.7301  -30.6031   19.4055 H   0  0  0  0  0  0
  -22.7397  -29.2507   19.8639 H   0  0  0  0  0  0
  -25.1283  -36.1962   25.0828 H   0  0  0  0  0  0
  -20.9963  -28.3235   24.1428 H   0  0  0  0  0  0
  -20.5661  -26.2277   23.3607 H   0  0  0  0  0  0
  -21.6636  -26.7436   22.1212 H   0  0  0  0  0  0
  -19.6905  -25.6295   21.1235 H   0  0  0  0  0  0
  -19.6688  -27.3200   20.6749 H   0  0  0  0  0  0
  -17.4195  -26.6677   21.4021 H   0  0  0  0  0  0
  -18.0319  -26.0062   22.9011 H   0  0  0  0  0  0
  -19.7930  -30.7258   24.2282 H   0  0  0  0  0  0
  -17.5011  -31.6265   24.5160 H   0  0  0  0  0  0
  -15.5347  -30.2991   23.7647 H   0  0  0  0  0  0
  -15.8663  -28.0827   22.7057 H   0  0  0  0  0  0
  -24.5903  -30.7069   25.7816 H   0  0  0  0  0  0
  -24.8940  -32.2878   26.4932 H   0  0  0  0  0  0
  -25.8087  -30.8878   27.0232 H   0  0  0  0  0  0
  -26.2863  -29.6791   24.1178 H   0  0  0  0  0  0
  -27.4040  -29.7266   25.4615 H   0  0  0  0  0  0
  -27.8717  -30.4327   23.9322 H   0  0  0  0  0  0
  -27.2666  -33.3604   26.2097 H   0  0  0  0  0  0
  -28.3844  -32.6903   25.0309 H   0  0  0  0  0  0
  -28.0738  -31.8429   26.5382 H   0  0  0  0  0  0
  -28.2593  -38.0109   24.7521 H   0  0  0  0  0  0
  -28.1085  -36.2645   24.6265 H   0  0  0  0  0  0
  -27.2308  -37.1428   25.8864 H   0  0  0  0  0  0
  -20.9312  -29.8767   21.6941 H   0  0  0  0  0  0
  -26.0177  -38.2865   24.1424 H   0  0  0  0  0  0
  -29.2060  -19.4455   19.6372 H   0  0  0  0  0  0
  -30.0616  -19.3425   24.5134 H   0  0  0  0  0  0
  -31.6131  -22.1211   17.8491 H   0  0  0  0  0  0
  -31.7791  -21.7028   19.6374 H   0  0  0  0  0  0
  -28.2387  -23.0306   17.9866 H   0  0  0  0  0  0
  -29.6631  -23.4987   17.0981 H   0  0  0  0  0  0
  -28.2973  -25.4973   17.7237 H   0  0  0  0  0  0
  -29.9040  -25.5632   18.4008 H   0  0  0  0  0  0
  -28.7100  -24.3716   21.8699 H   0  0  0  0  0  0
  -30.1514  -24.8590   21.0321 H   0  0  0  0  0  0
  -27.3657  -24.7596   19.8936 H   0  0  0  0  0  0
  -29.3609  -21.5317   24.8034 H   0  0  0  0  0  0
  -27.9961  -21.9663   23.7887 H   0  0  0  0  0  0
  -29.6072  -22.6236   23.4545 H   0  0  0  0  0  0
  -31.3550  -17.1072   20.2373 H   0  0  0  0  0  0
  -29.8362  -17.1767   19.4054 H   0  0  0  0  0  0
  -27.7487  -22.2863   21.4809 H   0  0  0  0  0  0
  -27.9560  -21.5940   19.9182 H   0  0  0  0  0  0
  -28.9862  -15.4677   21.1121 H   0  0  0  0  0  0
  -30.2681  -22.6966   21.1050 H   0  0  0  0  0  0
  1 25  1  0  0  0
  1 30  2  0  0  0
  1 86  1  0  0  0
  2  3  1  0  0  0
  2 25  1  0  0  0
  2 89  1  0  0  0
  2 90  1  0  0  0
  3  4  1  0  0  0
  3 91  1  0  0  0
  3 92  1  0  0  0
  4  5  1  0  0  0
  4 93  1  0  0  0
  4 94  1  0  0  0
  5  6  1  0  0  0
  5 26  1  0  0  0
  5 95  1  0  0  0
  6 25  1  0  0  0
  6 96  1  0  0  0
  6 97  1  0  0  0
  7  8  2  0  0  0
  7 26  1  0  0  0
  7 29  1  0  0  0
  8  9  1  0  0  0
  8 22  1  0  0  0
  9 10  1  0  0  0
  9 27  2  0  0  0
 10 11  2  0  0  0
 10 15  1  0  0  0
 11 12  1  0  0  0
 11 98  1  0  0  0
 12 13  2  0  0  0
 12 99  1  0  0  0
 13 14  1  0  0  0
 13 31  1  0  0  0
 14 15  2  0  0  0
 14100  1  0  0  0
 15101  1  0  0  0
 16 17  2  0  0  0
 16 21  1  0  0  0
 16 31  1  0  0  0
 17 18  1  0  0  0
 17102  1  0  0  0
 18 19  2  0  0  0
 18103  1  0  0  0
 19 20  1  0  0  0
 19 24  1  0  0  0
 20 21  2  0  0  0
 20104  1  0  0  0
 21 23  1  0  0  0
 22 28  1  0  0  0
 22 32  2  0  0  0
 26 27  1  0  0  0
 28105  1  0  0  0
 28106  1  0  0  0
 29107  1  0  0  0
 29108  1  0  0  0
 33 34  1  0  0  0
 33 66  1  0  0  0
 33 70  2  0  0  0
 34 36  1  0  0  0
 34 59  1  0  0  0
 34109  1  0  0  0
 35 44  2  0  0  0
 35 45  1  0  0  0
 35 68  1  0  0  0
 36 56  1  0  0  0
 36110  1  0  0  0
 37 39  1  0  0  0
 37 47  1  0  0  0
 37 66  1  0  0  0
 37111  1  0  0  0
 38 43  2  0  0  0
 38 46  1  0  0  0
 38 47  1  0  0  0
 39 64  1  0  0  0
 39 67  2  0  0  0
 40 52  1  0  0  0
 40 53  2  0  0  0
 40 58  1  0  0  0
 41112  1  0  0  0
 41113  1  0  0  0
 41114  1  0  0  0
 41 48  1  0  0  0
 42 43  1  0  0  0
 42 66  1  0  0  0
 42115  1  0  0  0
 42116  1  0  0  0
 43 44  1  0  0  0
 44117  1  0  0  0
 45 46  2  0  0  0
 45118  1  0  0  0
 46119  1  0  0  0
 47120  1  0  0  0
 47121  1  0  0  0
 48 56  1  0  0  0
 48 65  1  0  0  0
 48122  1  0  0  0
 49 50  1  0  0  0
 49 53  1  0  0  0
 49 64  1  0  0  0
 49123  1  0  0  0
 50 51  1  0  0  0
 50124  1  0  0  0
 50125  1  0  0  0
 51 52  1  0  0  0
 51126  1  0  0  0
 51127  1  0  0  0
 52128  1  0  0  0
 52129  1  0  0  0
 53 54  1  0  0  0
 54 55  2  0  0  0
 54130  1  0  0  0
 55 57  1  0  0  0
 55131  1  0  0  0
 56 69  2  0  0  0
 57 58  2  0  0  0
 57132  1  0  0  0
 58133  1  0  0  0
 59 60  1  0  0  0
 59 61  1  0  0  0
 59 62  1  0  0  0
 60134  1  0  0  0
 60135  1  0  0  0
 60136  1  0  0  0
 61137  1  0  0  0
 61138  1  0  0  0
 61139  1  0  0  0
 62140  1  0  0  0
 62141  1  0  0  0
 62142  1  0  0  0
 63 65  1  0  0  0
 63143  1  0  0  0
 63144  1  0  0  0
 63145  1  0  0  0
 64146  1  0  0  0
 65147  1  0  0  0
 68 82  1  0  0  0
 71 73  2  0  0  0
 71 74  1  0  0  0
 71148  1  0  0  0
 72 75  2  0  0  0
 72 76  1  0  0  0
 72149  1  0  0  0
 73 75  1  0  0  0
 73 85  1  0  0  0
 74 76  2  0  0  0
 74 84  1  0  0  0
 75 83  1  0  0  0
 76 88  1  0  0  0
 77 78  2  0  0  0
 77 79  1  0  0  0
 77 87  1  0  0  0
 78150  1  0  0  0
 78151  1  0  0  0
 79 80  1  0  0  0
 79152  1  0  0  0
 79153  1  0  0  0
 80 82  1  0  0  0
 80154  1  0  0  0
 80155  1  0  0  0
 81 82  1  0  0  0
 81 87  1  0  0  0
 81156  1  0  0  0
 81157  1  0  0  0
 82158  1  0  0  0
 83159  1  0  0  0
 83160  1  0  0  0
 83161  1  0  0  0
 84 86  1  0  0  0
 84162  1  0  0  0
 84163  1  0  0  0
 85164  1  0  0  0
 85165  1  0  0  0
 85 87  1  0  0  0
 86166  1  0  0  0
 87167  1  0  0  0
M  CHG  1  87   1
M  ISO  4   1 100  68 101  82 101  86 100
M  END
> <chiral flag>
0

> <version>
0

> <s_m_source_file>
/data/baiqing/PycharmProjects/Reinvent-master-3.2/result/LINK_invent/BTK/process_docking_weight1_custom_product_contain_oxygen_bond_distance_aromatic_linkinvent_7_9_3/rearranged_h_0034.sdf

> <i_m_source_file_index>
77

> <r_mmod_Potential_Energy-OPLS-2005>
-122.021980285645

> <r_mmod_Stretch_Energy-OPLS-2005>
54.3268928527832

> <r_mmod_Bend_Energy-OPLS-2005>
124.169471740723

> <r_mmod_Torsional_Energy-OPLS-2005>
220.941482543945

> <r_mmod_Improper_Torsional_Energy-OPLS-2005>
6.90004062652588

> <r_mmod_Van_der_Waal_Energy-OPLS-2005>
147.892150878906

> <r_mmod_Electrostatic_Energy-OPLS-2005>
-275.033050537109

> <r_mmod_Solvation_Energy-OPLS-2005>
-427.342956542969

> <b_mmod_Minimization_Converged-OPLS-2005>
0

> <r_mmod_RMS_Derivative-OPLS-2005>
0.687633097171783

$$$$
77
                    3D
 Structure written by MMmdl.
160168  0  0  1  0            999 V2000
  -30.6869  -14.5025   20.5397 C   0  0  0  0  0  0
  -30.4228  -12.3204   19.4193 C   0  0  0  0  0  0
  -29.4923  -12.4907   18.2008 C   0  0  0  0  0  0
  -28.0131  -12.3511   18.6127 C   0  0  0  0  0  0
  -27.6535  -13.2059   19.8584 C   0  0  2  0  0  0
  -28.6979  -13.0194   20.9816 C   0  0  0  0  0  0
  -25.2561  -13.8153   20.5619 C   0  0  0  0  0  0
  -24.1832  -13.0439   20.9160 C   0  0  0  0  0  0
  -24.6379  -11.6910   20.8714 C   0  0  0  0  0  0
  -23.9037  -10.4308   21.0388 C   0  0  0  0  0  0
  -24.3595   -9.4229   21.9167 C   0  0  0  0  0  0
  -23.6287   -8.2251   22.0743 C   0  0  0  0  0  0
  -22.4270   -8.0268   21.3534 C   0  0  0  0  0  0
  -21.9893   -9.0242   20.4640 C   0  0  0  0  0  0
  -22.7204  -10.2131   20.3045 C   0  0  0  0  0  0
  -21.6857   -6.0720   22.5278 C   0  0  0  0  0  0
  -21.4021   -6.5633   23.8209 C   0  0  0  0  0  0
  -21.3664   -5.6787   24.9173 C   0  0  0  0  0  0
  -21.6049   -4.3050   24.7231 C   0  0  0  0  0  0
  -21.8827   -3.8132   23.4357 C   0  0  0  0  0  0
  -21.9199   -4.6948   22.3410 C   0  0  0  0  0  0
  -22.7857  -13.5244   21.1836 C   0  0  0  0  0  0
  -22.1657   -4.2127   21.0985 F   0  0  0  0  0  0
  -21.5631   -3.4542   25.7749 F   0  0  0  0  0  0
  -30.0197  -13.3236   20.4159 N   0  0  0  0  0  0
  -26.2980  -12.9313   20.3264 N   0  0  0  0  0  0
  -25.9297  -11.6481   20.5720 N   0  0  0  0  0  0
  -22.0495  -12.8255   22.0408 N   0  0  0  0  0  0
  -25.4303  -15.1866   20.4013 N   0  0  0  0  0  0
  -31.8628  -14.6363   20.1942 O   0  0  0  0  0  0
  -21.6636   -6.8858   21.4238 O   0  0  0  0  0  0
  -22.3556  -14.5543   20.6674 O   0  0  0  0  0  0
  -24.6150  -31.8668   23.2089 C   0  0  0  0  0  0
  -25.9033  -32.4813   23.8401 C   0  0  1  0  0  0
  -27.2309  -27.3979   20.0972 C   0  0  0  0  0  0
  -25.5894  -33.8619   24.2336 N   0  0  0  0  0  0
  -23.4047  -30.4889   21.5498 C   0  0  2  0  0  0
  -24.8483  -28.9464   20.1176 C   0  0  0  0  0  0
  -22.7410  -29.4658   22.4993 C   0  0  0  0  0  0
  -18.0270  -28.1362   22.8489 C   0  0  0  0  0  0
  -24.1486  -36.7297   23.2639 C   0  0  0  0  0  0
  -25.9373  -30.8172   21.3703 C   0  0  0  0  0  0
  -26.0105  -29.4500   20.7131 C   0  0  0  0  0  0
  -27.2003  -28.6831   20.6971 C   0  0  0  0  0  0
  -26.0408  -26.9083   19.5096 C   0  0  0  0  0  0
  -24.8599  -27.6762   19.5163 C   0  0  0  0  0  0
  -23.6126  -29.8166   20.1668 C   0  0  0  0  0  0
  -25.4112  -36.3108   24.0343 C   0  0  1  0  0  0
  -20.5859  -28.3661   23.1299 C   0  0  2  0  0  0
  -20.6764  -26.9400   22.5396 C   0  0  0  0  0  0
  -19.5751  -26.6373   21.5187 C   0  0  0  0  0  0
  -18.1933  -26.7910   22.1606 C   0  0  0  0  0  0
  -19.1520  -28.8825   23.2890 C   0  0  0  0  0  0
  -18.9453  -30.1432   23.8905 C   0  0  0  0  0  0
  -17.6463  -30.6576   24.0549 C   0  0  0  0  0  0
  -25.9040  -34.9474   23.5139 C   0  0  0  0  0  0
  -16.5350  -29.9078   23.6321 C   0  0  0  0  0  0
  -16.7263  -28.6479   23.0364 C   0  0  0  0  0  0
  -26.4463  -31.6608   25.0741 C   0  0  0  0  0  0
  -25.3717  -31.3735   26.1481 C   0  0  0  0  0  0
  -27.0307  -30.3044   24.6161 C   0  0  0  0  0  0
  -27.6052  -32.4329   25.7485 C   0  0  0  0  0  0
  -27.5591  -37.1803   24.8470 C   0  0  0  0  0  0
  -21.4138  -29.3032   22.3710 N   0  0  0  0  0  0
  -26.4303  -37.3791   23.9410 N   0  0  0  0  0  0
  -24.6705  -31.0731   22.1008 N   0  0  0  0  0  0
  -23.4171  -28.8198   23.3039 O   0  0  0  0  0  0
  -28.4206  -26.6853   20.1148 O   0  0  0  0  0  0
  -26.5605  -34.8923   22.4702 O   0  0  0  0  0  0
  -23.5332  -32.1454   23.7454 O   0  0  0  0  0  0
  -29.3990  -19.2887   20.7191 C   0  0  0  0  0  0
  -29.7817  -19.1259   17.9695 C   0  0  0  0  0  0
  -29.0550  -20.4213   19.9183 C   0  0  0  0  0  0
  -29.9463  -18.0876   20.1784 C   0  0  0  0  0  0
  -29.2260  -20.3048   18.5078 C   0  0  0  0  0  0
  -30.1560  -18.0345   18.7777 C   0  0  0  0  0  0
  -28.4811  -21.6678   20.5921 C   0  0  0  0  0  0
  -28.8414  -21.3940   17.5119 C   0  0  0  0  0  0
  -30.8210  -16.8532   18.0955 C   0  0  0  0  0  0
  -30.4048  -16.9530   21.1314 C   0  0  0  0  0  0
  -28.2588  -24.1863   20.5363 C   0  0  0  0  0  0
  -28.5373  -25.3586   19.5478 C   0  0  0  0  0  0
  -28.7355  -22.8745   20.0430 N   0  0  0  0  0  0
  -29.9335  -15.5699   20.8835 N   0  0  0  0  0  0
  -27.8478  -21.5623   21.6441 O   0  0  0  0  0  0
  -31.4640  -12.4301   19.1112 H   0  0  0  0  0  0
  -30.3378  -11.3158   19.8373 H   0  0  0  0  0  0
  -29.7380  -11.7537   17.4356 H   0  0  0  0  0  0
  -29.6558  -13.4707   17.7472 H   0  0  0  0  0  0
  -27.8235  -11.2971   18.8186 H   0  0  0  0  0  0
  -27.3655  -12.6154   17.7757 H   0  0  0  0  0  0
  -27.6857  -14.2466   19.5385 H   0  0  0  0  0  0
  -28.6826  -11.9931   21.3523 H   0  0  0  0  0  0
  -28.4638  -13.6488   21.8411 H   0  0  0  0  0  0
  -25.2734   -9.5723   22.4739 H   0  0  0  0  0  0
  -24.0011   -7.4649   22.7463 H   0  0  0  0  0  0
  -21.0816   -8.8749   19.8960 H   0  0  0  0  0  0
  -22.3633  -10.9663   19.6158 H   0  0  0  0  0  0
  -21.2007   -7.6140   23.9716 H   0  0  0  0  0  0
  -21.1470   -6.0509   25.9078 H   0  0  0  0  0  0
  -22.0601   -2.7595   23.2863 H   0  0  0  0  0  0
  -22.4089  -11.9928   22.4821 H   0  0  0  0  0  0
  -21.1113  -13.1303   22.2583 H   0  0  0  0  0  0
  -24.6666  -15.8448   20.5097 H   0  0  0  0  0  0
  -26.2802  -15.6249   20.0686 H   0  0  0  0  0  0
  -26.7095  -32.5504   23.1156 H   0  0  0  0  0  0
  -25.0059  -33.9800   25.0487 H   0  0  0  0  0  0
  -22.6959  -31.3080   21.4084 H   0  0  0  0  0  0
  -23.3765  -35.9612   23.3304 H   0  0  0  0  0  0
  -24.3579  -36.8904   22.2054 H   0  0  0  0  0  0
  -23.7222  -37.6494   23.6647 H   0  0  0  0  0  0
  -26.0665  -31.5877   20.6091 H   0  0  0  0  0  0
  -26.8182  -30.8599   22.0000 H   0  0  0  0  0  0
  -28.0990  -29.0711   21.1572 H   0  0  0  0  0  0
  -25.9903  -25.9315   19.0528 H   0  0  0  0  0  0
  -23.9610  -27.2803   19.0644 H   0  0  0  0  0  0
  -23.7215  -30.5885   19.4044 H   0  0  0  0  0  0
  -22.7357  -29.2359   19.8725 H   0  0  0  0  0  0
  -25.1288  -36.1984   25.0838 H   0  0  0  0  0  0
  -20.9956  -28.3217   24.1416 H   0  0  0  0  0  0
  -20.5642  -26.2279   23.3583 H   0  0  0  0  0  0
  -21.6643  -26.7438   22.1204 H   0  0  0  0  0  0
  -19.6922  -25.6281   21.1224 H   0  0  0  0  0  0
  -19.6690  -27.3166   20.6706 H   0  0  0  0  0  0
  -17.4203  -26.6650   21.4009 H   0  0  0  0  0  0
  -18.0356  -26.0038   22.8989 H   0  0  0  0  0  0
  -19.7937  -30.7226   24.2292 H   0  0  0  0  0  0
  -17.5026  -31.6261   24.5139 H   0  0  0  0  0  0
  -15.5356  -30.2986   23.7632 H   0  0  0  0  0  0
  -15.8661  -28.0779   22.7120 H   0  0  0  0  0  0
  -24.5845  -30.7151   25.7799 H   0  0  0  0  0  0
  -24.8954  -32.2897   26.4975 H   0  0  0  0  0  0
  -25.8022  -30.8841   27.0223 H   0  0  0  0  0  0
  -26.2878  -29.6800   24.1183 H   0  0  0  0  0  0
  -27.4032  -29.7295   25.4651 H   0  0  0  0  0  0
  -27.8730  -30.4365   23.9368 H   0  0  0  0  0  0
  -27.2693  -33.3619   26.2109 H   0  0  0  0  0  0
  -28.3815  -32.6913   25.0271 H   0  0  0  0  0  0
  -28.0773  -31.8430   26.5352 H   0  0  0  0  0  0
  -28.2614  -38.0099   24.7521 H   0  0  0  0  0  0
  -28.1087  -36.2632   24.6290 H   0  0  0  0  0  0
  -27.2309  -37.1441   25.8874 H   0  0  0  0  0  0
  -20.9311  -29.8752   21.6921 H   0  0  0  0  0  0
  -26.0199  -38.2873   24.1399 H   0  0  0  0  0  0
  -29.2580  -19.3564   21.7897 H   0  0  0  0  0  0
  -29.9445  -19.0633   16.9014 H   0  0  0  0  0  0
  -28.7486  -20.9923   16.5019 H   0  0  0  0  0  0
  -29.6056  -22.1721   17.4831 H   0  0  0  0  0  0
  -27.8782  -21.8439   17.7540 H   0  0  0  0  0  0
  -31.0112  -17.0517   17.0392 H   0  0  0  0  0  0
  -30.1827  -15.9723   18.1491 H   0  0  0  0  0  0
  -31.7838  -16.6375   18.5603 H   0  0  0  0  0  0
  -30.0967  -17.2039   22.1463 H   0  0  0  0  0  0
  -31.4956  -16.9736   21.1595 H   0  0  0  0  0  0
  -27.1915  -24.1337   20.7559 H   0  0  0  0  0  0
  -28.7597  -24.3926   21.4824 H   0  0  0  0  0  0
  -27.9687  -25.2458   18.6249 H   0  0  0  0  0  0
  -29.5790  -25.2839   19.2347 H   0  0  0  0  0  0
  -29.2897  -22.8671   19.1989 H   0  0  0  0  0  0
  -28.9607  -15.3838   21.0707 H   0  0  0  0  0  0
  1 25  1  0  0  0
  1 30  2  0  0  0
  1 84  1  0  0  0
  2  3  1  0  0  0
  2 25  1  0  0  0
  2 86  1  0  0  0
  2 87  1  0  0  0
  3  4  1  0  0  0
  3 88  1  0  0  0
  3 89  1  0  0  0
  4  5  1  0  0  0
  4 90  1  0  0  0
  4 91  1  0  0  0
  5  6  1  0  0  0
  5 26  1  0  0  0
  5 92  1  0  0  0
  6 25  1  0  0  0
  6 93  1  0  0  0
  6 94  1  0  0  0
  7  8  2  0  0  0
  7 26  1  0  0  0
  7 29  1  0  0  0
  8  9  1  0  0  0
  8 22  1  0  0  0
  9 10  1  0  0  0
  9 27  2  0  0  0
 10 11  2  0  0  0
 10 15  1  0  0  0
 11 12  1  0  0  0
 11 95  1  0  0  0
 12 13  2  0  0  0
 12 96  1  0  0  0
 13 14  1  0  0  0
 13 31  1  0  0  0
 14 15  2  0  0  0
 14 97  1  0  0  0
 15 98  1  0  0  0
 16 17  2  0  0  0
 16 21  1  0  0  0
 16 31  1  0  0  0
 17 18  1  0  0  0
 17 99  1  0  0  0
 18 19  2  0  0  0
 18100  1  0  0  0
 19 20  1  0  0  0
 19 24  1  0  0  0
 20 21  2  0  0  0
 20101  1  0  0  0
 21 23  1  0  0  0
 22 28  1  0  0  0
 22 32  2  0  0  0
 26 27  1  0  0  0
 28102  1  0  0  0
 28103  1  0  0  0
 29104  1  0  0  0
 29105  1  0  0  0
 33 34  1  0  0  0
 33 66  1  0  0  0
 33 70  2  0  0  0
 34 36  1  0  0  0
 34 59  1  0  0  0
 34106  1  0  0  0
 35 44  2  0  0  0
 35 45  1  0  0  0
 35 68  1  0  0  0
 36 56  1  0  0  0
 36107  1  0  0  0
 37 39  1  0  0  0
 37 47  1  0  0  0
 37 66  1  0  0  0
 37108  1  0  0  0
 38 43  2  0  0  0
 38 46  1  0  0  0
 38 47  1  0  0  0
 39 64  1  0  0  0
 39 67  2  0  0  0
 40 52  1  0  0  0
 40 53  2  0  0  0
 40 58  1  0  0  0
 41109  1  0  0  0
 41110  1  0  0  0
 41111  1  0  0  0
 41 48  1  0  0  0
 42 43  1  0  0  0
 42 66  1  0  0  0
 42112  1  0  0  0
 42113  1  0  0  0
 43 44  1  0  0  0
 44114  1  0  0  0
 45 46  2  0  0  0
 45115  1  0  0  0
 46116  1  0  0  0
 47117  1  0  0  0
 47118  1  0  0  0
 48 56  1  0  0  0
 48 65  1  0  0  0
 48119  1  0  0  0
 49 50  1  0  0  0
 49 53  1  0  0  0
 49 64  1  0  0  0
 49120  1  0  0  0
 50 51  1  0  0  0
 50121  1  0  0  0
 50122  1  0  0  0
 51 52  1  0  0  0
 51123  1  0  0  0
 51124  1  0  0  0
 52125  1  0  0  0
 52126  1  0  0  0
 53 54  1  0  0  0
 54 55  2  0  0  0
 54127  1  0  0  0
 55 57  1  0  0  0
 55128  1  0  0  0
 56 69  2  0  0  0
 57 58  2  0  0  0
 57129  1  0  0  0
 58130  1  0  0  0
 59 60  1  0  0  0
 59 61  1  0  0  0
 59 62  1  0  0  0
 60131  1  0  0  0
 60132  1  0  0  0
 60133  1  0  0  0
 61134  1  0  0  0
 61135  1  0  0  0
 61136  1  0  0  0
 62137  1  0  0  0
 62138  1  0  0  0
 62139  1  0  0  0
 63 65  1  0  0  0
 63140  1  0  0  0
 63141  1  0  0  0
 63142  1  0  0  0
 64143  1  0  0  0
 65144  1  0  0  0
 68 82  1  0  0  0
 71 73  2  0  0  0
 71 74  1  0  0  0
 71145  1  0  0  0
 72 75  2  0  0  0
 72 76  1  0  0  0
 72146  1  0  0  0
 73 75  1  0  0  0
 73 77  1  0  0  0
 74 76  2  0  0  0
 74 80  1  0  0  0
 75 78  1  0  0  0
 76 79  1  0  0  0
 77 83  1  0  0  0
 77 85  2  0  0  0
 78147  1  0  0  0
 78148  1  0  0  0
 78149  1  0  0  0
 79150  1  0  0  0
 79151  1  0  0  0
 79152  1  0  0  0
 80 84  1  0  0  0
 80153  1  0  0  0
 80154  1  0  0  0
 81 82  1  0  0  0
 81 83  1  0  0  0
 81155  1  0  0  0
 81156  1  0  0  0
 82157  1  0  0  0
 82158  1  0  0  0
 83159  1  0  0  0
 84160  1  0  0  0
M  ISO  4   1 100  68 101  82 101  84 100
M  END
> <chiral flag>
0

> <version>
0

> <s_m_source_file>
/data/baiqing/PycharmProjects/Reinvent-master-3.2/result/LINK_invent/BTK/process_docking_weight1_custom_product_contain_oxygen_bond_distance_aromatic_linkinvent_7_9_3/rearranged_h_0034.sdf

> <i_m_source_file_index>
78

> <r_mmod_Potential_Energy-OPLS-2005>
-145.403747558594

> <r_mmod_Stretch_Energy-OPLS-2005>
47.8553695678711

> <r_mmod_Bend_Energy-OPLS-2005>
117.645133972168

> <r_mmod_Torsional_Energy-OPLS-2005>
201.252700805664

> <r_mmod_Improper_Torsional_Energy-OPLS-2005>
4.7385425567627

> <r_mmod_Van_der_Waal_Energy-OPLS-2005>
155.472198486328

> <r_mmod_Electrostatic_Energy-OPLS-2005>
-464.680236816406

> <r_mmod_Solvation_Energy-OPLS-2005>
-228.23112487793

> <b_mmod_Minimization_Converged-OPLS-2005>
0

> <r_mmod_RMS_Derivative-OPLS-2005>
2.35455107688904

$$$$
78
                    3D
 Structure written by MMmdl.
167176  0  0  1  0            999 V2000
  -30.5936  -14.6636   20.5038 C   0  0  0  0  0  0
  -30.4453  -12.4100   19.4540 C   0  0  0  0  0  0
  -29.5103  -12.5130   18.2265 C   0  0  0  0  0  0
  -28.0333  -12.3480   18.6378 C   0  0  0  0  0  0
  -27.6550  -13.2146   19.8678 C   0  0  2  0  0  0
  -28.6990  -13.0599   20.9965 C   0  0  0  0  0  0
  -25.2572  -13.8161   20.5684 C   0  0  0  0  0  0
  -24.1830  -13.0428   20.9172 C   0  0  0  0  0  0
  -24.6399  -11.6903   20.8736 C   0  0  0  0  0  0
  -23.9066  -10.4287   21.0409 C   0  0  0  0  0  0
  -24.3615   -9.4205   21.9188 C   0  0  0  0  0  0
  -23.6289   -8.2240   22.0759 C   0  0  0  0  0  0
  -22.4276   -8.0277   21.3542 C   0  0  0  0  0  0
  -21.9911   -9.0251   20.4645 C   0  0  0  0  0  0
  -22.7240  -10.2131   20.3056 C   0  0  0  0  0  0
  -21.6850   -6.0732   22.5274 C   0  0  0  0  0  0
  -21.4016   -6.5639   23.8207 C   0  0  0  0  0  0
  -21.3657   -5.6793   24.9172 C   0  0  0  0  0  0
  -21.6040   -4.3054   24.7225 C   0  0  0  0  0  0
  -21.8821   -3.8148   23.4346 C   0  0  0  0  0  0
  -21.9195   -4.6962   22.3399 C   0  0  0  0  0  0
  -22.7857  -13.5228   21.1838 C   0  0  0  0  0  0
  -22.1663   -4.2147   21.0975 F   0  0  0  0  0  0
  -21.5628   -3.4540   25.7740 F   0  0  0  0  0  0
  -30.0125  -13.4222   20.4389 N   0  0  0  0  0  0
  -26.2996  -12.9337   20.3332 N   0  0  0  0  0  0
  -25.9325  -11.6494   20.5754 N   0  0  0  0  0  0
  -22.0500  -12.8216   22.0397 N   0  0  0  0  0  0
  -25.4293  -15.1882   20.4119 N   0  0  0  0  0  0
  -31.7437  -14.8534   20.0954 O   0  0  0  0  0  0
  -21.6635   -6.8878   21.4237 O   0  0  0  0  0  0
  -22.3547  -14.5537   20.6692 O   0  0  0  0  0  0
  -24.6250  -31.8579   23.2004 C   0  0  0  0  0  0
  -25.9097  -32.4764   23.8337 C   0  0  1  0  0  0
  -27.2313  -27.3189   20.1188 C   0  0  0  0  0  0
  -25.5914  -33.8569   24.2267 N   0  0  0  0  0  0
  -23.4192  -30.4783   21.5434 C   0  0  2  0  0  0
  -24.8677  -28.9263   20.1143 C   0  0  0  0  0  0
  -22.7469  -29.4603   22.4945 C   0  0  0  0  0  0
  -18.0280  -28.1380   22.8470 C   0  0  0  0  0  0
  -24.1488  -36.7296   23.2640 C   0  0  0  0  0  0
  -25.9581  -30.7903   21.3682 C   0  0  0  0  0  0
  -26.0363  -29.4154   20.7125 C   0  0  0  0  0  0
  -27.2233  -28.6262   20.6966 C   0  0  0  0  0  0
  -26.0404  -26.8707   19.5105 C   0  0  0  0  0  0
  -24.8715  -27.6597   19.5047 C   0  0  0  0  0  0
  -23.6346  -29.8077   20.1606 C   0  0  0  0  0  0
  -25.4112  -36.3079   24.0328 C   0  0  1  0  0  0
  -20.5875  -28.3679   23.1284 C   0  0  2  0  0  0
  -20.6770  -26.9407   22.5408 C   0  0  0  0  0  0
  -19.5754  -26.6387   21.5200 C   0  0  0  0  0  0
  -18.1930  -26.7922   22.1605 C   0  0  0  0  0  0
  -19.1531  -28.8847   23.2863 C   0  0  0  0  0  0
  -18.9462  -30.1445   23.8888 C   0  0  0  0  0  0
  -17.6466  -30.6581   24.0559 C   0  0  0  0  0  0
  -25.9049  -34.9446   23.5101 C   0  0  0  0  0  0
  -16.5355  -29.9082   23.6329 C   0  0  0  0  0  0
  -16.7269  -28.6500   23.0340 C   0  0  0  0  0  0
  -26.4485  -31.6576   25.0710 C   0  0  0  0  0  0
  -25.3713  -31.3697   26.1432 C   0  0  0  0  0  0
  -27.0339  -30.3011   24.6142 C   0  0  0  0  0  0
  -27.6043  -32.4309   25.7485 C   0  0  0  0  0  0
  -27.5577  -37.1800   24.8462 C   0  0  0  0  0  0
  -21.4187  -29.3033   22.3690 N   0  0  0  0  0  0
  -26.4290  -37.3775   23.9407 N   0  0  0  0  0  0
  -24.6867  -31.0583   22.0951 N   0  0  0  0  0  0
  -23.4191  -28.8144   23.3027 O   0  0  0  0  0  0
  -28.3695  -26.5021   20.1089 O   0  0  0  0  0  0
  -26.5631  -34.8920   22.4675 O   0  0  0  0  0  0
  -23.5420  -32.1383   23.7334 O   0  0  0  0  0  0
  -29.3436  -19.1698   19.3775 C   0  0  0  0  0  0
  -29.0777  -20.0120   20.4938 C   0  0  0  0  0  0
  -29.6527  -17.7767   19.4923 C   0  0  0  0  0  0
  -29.2423  -19.3874   21.7737 C   0  0  0  0  0  0
  -29.5880  -17.9917   21.8968 C   0  0  0  0  0  0
  -29.7595  -17.1408   20.7620 C   0  0  0  0  0  0
  -29.8761  -23.3045   21.2860 C   0  0  0  0  0  0
  -30.8471  -22.6603   21.9556 C   0  0  0  0  0  0
  -29.4211  -24.7509   21.4971 C   0  0  0  0  0  0
  -28.4131  -23.9087   19.4911 C   0  0  0  0  0  0
  -28.2739  -25.0790   20.5309 C   0  0  2  0  0  0
  -29.7711  -16.9591   18.2184 C   0  0  0  0  0  0
  -28.9855  -20.1776   23.0569 C   0  0  0  0  0  0
  -29.7202  -17.3759   23.2885 C   0  0  0  0  0  0
  -28.3941  -21.4387   20.2705 C   0  0  0  0  0  0
  -29.7749  -15.6781   20.9345 N   0  0  0  0  0  0
  -29.1728  -22.7406   20.0974 N   0  3  2  0  0  0
  -31.4841  -12.5527   19.1506 H   0  0  0  0  0  0
  -30.3975  -11.4124   19.8930 H   0  0  0  0  0  0
  -29.7769  -11.7562   17.4876 H   0  0  0  0  0  0
  -29.6472  -13.4783   17.7363 H   0  0  0  0  0  0
  -27.8712  -11.2944   18.8667 H   0  0  0  0  0  0
  -27.3788  -12.5796   17.7969 H   0  0  0  0  0  0
  -27.6752  -14.2512   19.5322 H   0  0  0  0  0  0
  -28.7185  -12.0317   21.3604 H   0  0  0  0  0  0
  -28.4370  -13.6714   21.8608 H   0  0  0  0  0  0
  -25.2761   -9.5676   22.4766 H   0  0  0  0  0  0
  -23.9993   -7.4634   22.7484 H   0  0  0  0  0  0
  -21.0840   -8.8762   19.8958 H   0  0  0  0  0  0
  -22.3692  -10.9665   19.6165 H   0  0  0  0  0  0
  -21.2009   -7.6149   23.9707 H   0  0  0  0  0  0
  -21.1476   -6.0527   25.9070 H   0  0  0  0  0  0
  -22.0606   -2.7610   23.2845 H   0  0  0  0  0  0
  -22.4113  -11.9866   22.4765 H   0  0  0  0  0  0
  -21.1119  -13.1237   22.2613 H   0  0  0  0  0  0
  -24.6636  -15.8437   20.5245 H   0  0  0  0  0  0
  -26.2847  -15.6295   20.0980 H   0  0  0  0  0  0
  -26.7163  -32.5433   23.1088 H   0  0  0  0  0  0
  -25.0032  -33.9711   25.0389 H   0  0  0  0  0  0
  -22.7129  -31.2978   21.3977 H   0  0  0  0  0  0
  -23.3752  -35.9625   23.3300 H   0  0  0  0  0  0
  -24.3583  -36.8926   22.2057 H   0  0  0  0  0  0
  -23.7238  -37.6491   23.6674 H   0  0  0  0  0  0
  -26.0829  -31.5539   20.5988 H   0  0  0  0  0  0
  -26.8397  -30.8436   21.9958 H   0  0  0  0  0  0
  -28.1268  -29.0035   21.1557 H   0  0  0  0  0  0
  -26.0095  -25.9016   19.0328 H   0  0  0  0  0  0
  -23.9763  -27.2801   19.0309 H   0  0  0  0  0  0
  -23.7529  -30.5831   19.4026 H   0  0  0  0  0  0
  -22.7538  -29.2365   19.8599 H   0  0  0  0  0  0
  -25.1289  -36.1939   25.0821 H   0  0  0  0  0  0
  -20.9945  -28.3260   24.1410 H   0  0  0  0  0  0
  -20.5675  -26.2290   23.3602 H   0  0  0  0  0  0
  -21.6638  -26.7444   22.1203 H   0  0  0  0  0  0
  -19.6933  -25.6301   21.1222 H   0  0  0  0  0  0
  -19.6706  -27.3199   20.6729 H   0  0  0  0  0  0
  -17.4202  -26.6661   21.4005 H   0  0  0  0  0  0
  -18.0331  -26.0057   22.8996 H   0  0  0  0  0  0
  -19.7943  -30.7243   24.2274 H   0  0  0  0  0  0
  -17.5029  -31.6264   24.5156 H   0  0  0  0  0  0
  -15.5356  -30.2984   23.7666 H   0  0  0  0  0  0
  -15.8663  -28.0829   22.7055 H   0  0  0  0  0  0
  -24.5913  -30.7020   25.7754 H   0  0  0  0  0  0
  -24.8871  -32.2851   26.4840 H   0  0  0  0  0  0
  -25.8036  -30.8892   27.0220 H   0  0  0  0  0  0
  -26.2913  -29.6752   24.1180 H   0  0  0  0  0  0
  -27.4074  -29.7268   25.4630 H   0  0  0  0  0  0
  -27.8759  -30.4319   23.9341 H   0  0  0  0  0  0
  -27.2661  -33.3624   26.2036 H   0  0  0  0  0  0
  -28.3866  -32.6840   25.0316 H   0  0  0  0  0  0
  -28.0694  -31.8443   26.5418 H   0  0  0  0  0  0
  -28.2575  -38.0114   24.7516 H   0  0  0  0  0  0
  -28.1089  -36.2640   24.6278 H   0  0  0  0  0  0
  -27.2296  -37.1433   25.8865 H   0  0  0  0  0  0
  -20.9378  -29.8767   21.6903 H   0  0  0  0  0  0
  -26.0174  -38.2849   24.1418 H   0  0  0  0  0  0
  -29.2136  -19.5814   18.3860 H   0  0  0  0  0  0
  -31.3636  -23.1384   22.7753 H   0  0  0  0  0  0
  -31.1506  -21.6552   21.6991 H   0  0  0  0  0  0
  -30.2731  -25.3993   21.2940 H   0  0  0  0  0  0
  -29.1256  -24.9231   22.5321 H   0  0  0  0  0  0
  -29.0041  -24.2675   18.6482 H   0  0  0  0  0  0
  -27.4441  -23.6145   19.0875 H   0  0  0  0  0  0
  -27.3406  -24.9269   21.0772 H   0  0  0  0  0  0
  -29.5253  -17.5501   17.3364 H   0  0  0  0  0  0
  -29.0903  -16.1079   18.2415 H   0  0  0  0  0  0
  -30.7884  -16.5861   18.0995 H   0  0  0  0  0  0
  -28.5878  -21.1765   22.9019 H   0  0  0  0  0  0
  -29.9148  -20.2969   23.6154 H   0  0  0  0  0  0
  -28.2721  -19.6552   23.6953 H   0  0  0  0  0  0
  -30.2485  -18.0408   23.9704 H   0  0  0  0  0  0
  -30.2926  -16.4489   23.2839 H   0  0  0  0  0  0
  -28.7354  -17.1623   23.7046 H   0  0  0  0  0  0
  -27.6286  -21.6003   21.0275 H   0  0  0  0  0  0
  -27.8165  -21.3233   19.3525 H   0  0  0  0  0  0
  -28.9468  -15.3207   21.3865 H   0  0  0  0  0  0
  -29.8700  -22.5057   19.4058 H   0  0  0  0  0  0
  1 25  1  0  0  0
  1 30  2  0  0  0
  1 86  1  0  0  0
  2  3  1  0  0  0
  2 25  1  0  0  0
  2 88  1  0  0  0
  2 89  1  0  0  0
  3  4  1  0  0  0
  3 90  1  0  0  0
  3 91  1  0  0  0
  4  5  1  0  0  0
  4 92  1  0  0  0
  4 93  1  0  0  0
  5  6  1  0  0  0
  5 26  1  0  0  0
  5 94  1  0  0  0
  6 25  1  0  0  0
  6 95  1  0  0  0
  6 96  1  0  0  0
  7  8  2  0  0  0
  7 26  1  0  0  0
  7 29  1  0  0  0
  8  9  1  0  0  0
  8 22  1  0  0  0
  9 10  1  0  0  0
  9 27  2  0  0  0
 10 11  2  0  0  0
 10 15  1  0  0  0
 11 12  1  0  0  0
 11 97  1  0  0  0
 12 13  2  0  0  0
 12 98  1  0  0  0
 13 14  1  0  0  0
 13 31  1  0  0  0
 14 15  2  0  0  0
 14 99  1  0  0  0
 15100  1  0  0  0
 16 17  2  0  0  0
 16 21  1  0  0  0
 16 31  1  0  0  0
 17 18  1  0  0  0
 17101  1  0  0  0
 18 19  2  0  0  0
 18102  1  0  0  0
 19 20  1  0  0  0
 19 24  1  0  0  0
 20 21  2  0  0  0
 20103  1  0  0  0
 21 23  1  0  0  0
 22 28  1  0  0  0
 22 32  2  0  0  0
 26 27  1  0  0  0
 28104  1  0  0  0
 28105  1  0  0  0
 29106  1  0  0  0
 29107  1  0  0  0
 33 34  1  0  0  0
 33 66  1  0  0  0
 33 70  2  0  0  0
 34 36  1  0  0  0
 34 59  1  0  0  0
 34108  1  0  0  0
 35 44  2  0  0  0
 35 45  1  0  0  0
 35 68  1  0  0  0
 36 56  1  0  0  0
 36109  1  0  0  0
 37 39  1  0  0  0
 37 47  1  0  0  0
 37 66  1  0  0  0
 37110  1  0  0  0
 38 43  2  0  0  0
 38 46  1  0  0  0
 38 47  1  0  0  0
 39 64  1  0  0  0
 39 67  2  0  0  0
 40 52  1  0  0  0
 40 53  2  0  0  0
 40 58  1  0  0  0
 41111  1  0  0  0
 41112  1  0  0  0
 41113  1  0  0  0
 41 48  1  0  0  0
 42 43  1  0  0  0
 42 66  1  0  0  0
 42114  1  0  0  0
 42115  1  0  0  0
 43 44  1  0  0  0
 44116  1  0  0  0
 45 46  2  0  0  0
 45117  1  0  0  0
 46118  1  0  0  0
 47119  1  0  0  0
 47120  1  0  0  0
 48 56  1  0  0  0
 48 65  1  0  0  0
 48121  1  0  0  0
 49 50  1  0  0  0
 49 53  1  0  0  0
 49 64  1  0  0  0
 49122  1  0  0  0
 50 51  1  0  0  0
 50123  1  0  0  0
 50124  1  0  0  0
 51 52  1  0  0  0
 51125  1  0  0  0
 51126  1  0  0  0
 52127  1  0  0  0
 52128  1  0  0  0
 53 54  1  0  0  0
 54 55  2  0  0  0
 54129  1  0  0  0
 55 57  1  0  0  0
 55130  1  0  0  0
 56 69  2  0  0  0
 57 58  2  0  0  0
 57131  1  0  0  0
 58132  1  0  0  0
 59 60  1  0  0  0
 59 61  1  0  0  0
 59 62  1  0  0  0
 60133  1  0  0  0
 60134  1  0  0  0
 60135  1  0  0  0
 61136  1  0  0  0
 61137  1  0  0  0
 61138  1  0  0  0
 62139  1  0  0  0
 62140  1  0  0  0
 62141  1  0  0  0
 63 65  1  0  0  0
 63142  1  0  0  0
 63143  1  0  0  0
 63144  1  0  0  0
 64145  1  0  0  0
 65146  1  0  0  0
 68 81  1  0  0  0
 71 72  2  0  0  0
 71 73  1  0  0  0
 71147  1  0  0  0
 72 74  1  0  0  0
 72 85  1  0  0  0
 73 76  2  0  0  0
 73 82  1  0  0  0
 74 75  2  0  0  0
 74 83  1  0  0  0
 75 76  1  0  0  0
 75 84  1  0  0  0
 76 86  1  0  0  0
 77 78  2  0  0  0
 77 79  1  0  0  0
 77 87  1  0  0  0
 78148  1  0  0  0
 78149  1  0  0  0
 79 81  1  0  0  0
 79150  1  0  0  0
 79151  1  0  0  0
 80 81  1  0  0  0
 80 87  1  0  0  0
 80152  1  0  0  0
 80153  1  0  0  0
 81154  1  0  0  0
 82155  1  0  0  0
 82156  1  0  0  0
 82157  1  0  0  0
 83158  1  0  0  0
 83159  1  0  0  0
 83160  1  0  0  0
 84161  1  0  0  0
 84162  1  0  0  0
 84163  1  0  0  0
 85164  1  0  0  0
 85165  1  0  0  0
 85 87  1  0  0  0
 86166  1  0  0  0
 87167  1  0  0  0
M  CHG  1  87   1
M  ISO  4   1 100  68 101  81 101  86 100
M  END
> <chiral flag>
0

> <version>
0

> <s_m_source_file>
/data/baiqing/PycharmProjects/Reinvent-master-3.2/result/LINK_invent/BTK/process_docking_weight1_custom_product_contain_oxygen_bond_distance_aromatic_linkinvent_7_9_3/rearranged_h_0034.sdf

> <i_m_source_file_index>
79

> <r_mmod_Potential_Energy-OPLS-2005>
1.5978856086731

> <r_mmod_Stretch_Energy-OPLS-2005>
89.8256225585938

> <r_mmod_Bend_Energy-OPLS-2005>
176.188018798828

> <r_mmod_Torsional_Energy-OPLS-2005>
288.313323974609

> <r_mmod_Improper_Torsional_Energy-OPLS-2005>
6.51687669754028

> <r_mmod_Van_der_Waal_Energy-OPLS-2005>
135.841934204102

> <r_mmod_Electrostatic_Energy-OPLS-2005>
-319.170257568359

> <r_mmod_Solvation_Energy-OPLS-2005>
-425.741302490234

> <b_mmod_Minimization_Converged-OPLS-2005>
0

> <r_mmod_RMS_Derivative-OPLS-2005>
1.26514208316803

$$$$
79
                    3D
 Structure written by MMmdl.
159167  0  0  1  0            999 V2000
  -31.7018  -14.6362   20.0589 C   0  0  0  0  0  0
  -30.3941  -12.4587   20.0467 C   0  0  0  0  0  0
  -29.0598  -11.8900   18.9688 C   0  0  0  0  0  0
  -27.5447  -12.6718   18.4356 C   0  0  0  0  0  0
  -26.9347  -14.2807   19.1815 C   0  0  2  0  0  0
  -29.7098  -15.3212   20.8972 C   0  0  0  0  0  0
  -24.8290  -14.0677   20.4776 C   0  0  0  0  0  0
  -23.9819  -13.1302   20.9529 C   0  0  0  0  0  0
  -24.5884  -11.8423   20.8261 C   0  0  0  0  0  0
  -23.9514  -10.4977   21.0015 C   0  0  0  0  0  0
  -24.4030   -9.4861   21.8890 C   0  0  0  0  0  0
  -23.6730   -8.2787   22.0603 C   0  0  0  0  0  0
  -22.4666   -8.0611   21.3542 C   0  0  0  0  0  0
  -22.0373   -9.0438   20.4478 C   0  0  0  0  0  0
  -22.7673  -10.2342   20.2684 C   0  0  0  0  0  0
  -21.7095   -6.0918   22.5340 C   0  0  0  0  0  0
  -21.4201   -6.5703   23.8327 C   0  0  0  0  0  0
  -21.3735   -5.6780   24.9187 C   0  0  0  0  0  0
  -21.6031   -4.3060   24.7184 C   0  0  0  0  0  0
  -21.8765   -3.8195   23.4281 C   0  0  0  0  0  0
  -21.9246   -4.7096   22.3362 C   0  0  0  0  0  0
  -22.5829  -13.4840   21.2703 C   0  0  0  0  0  0
  -22.1632   -4.2293   21.0961 F   0  0  0  0  0  0
  -21.5593   -3.4486   25.7681 F   0  0  0  0  0  0
  -30.7292  -13.9877   20.6952 N   0  0  0  0  0  0
  -25.8605  -13.4293   19.9492 N   0  0  0  0  0  0
  -25.8260  -12.0574   20.3371 N   0  0  0  0  0  0
  -21.9408  -12.7298   22.1482 N   0  0  0  0  0  0
  -24.7651  -15.4363   20.3236 N   0  0  0  0  0  0
  -32.8179  -14.3883   20.3631 O   0  0  0  0  0  0
  -21.7001   -6.9121   21.4333 O   0  0  0  0  0  0
  -22.0813  -14.4857   20.7617 O   0  0  0  0  0  0
  -24.6816  -31.8027   23.1584 C   0  0  0  0  0  0
  -25.9449  -32.4435   23.8101 C   0  0  1  0  0  0
  -27.0052  -26.6333   20.2946 C   0  0  0  0  0  0
  -25.6040  -33.8279   24.1992 N   0  0  0  0  0  0
  -23.4948  -30.4251   21.5164 C   0  0  2  0  0  0
  -24.9115  -28.7715   20.1126 C   0  0  0  0  0  0
  -22.7704  -29.4381   22.4753 C   0  0  0  0  0  0
  -18.0338  -28.1392   22.8466 C   0  0  0  0  0  0
  -24.1502  -36.7134   23.2658 C   0  0  0  0  0  0
  -26.0748  -30.5198   21.4229 C   0  0  0  0  0  0
  -26.0998  -29.0805   20.7814 C   0  0  0  0  0  0
  -27.1564  -28.0380   20.8286 C   0  0  0  0  0  0
  -25.8348  -26.5505   19.5234 C   0  0  0  0  0  0
  -24.8265  -27.5445   19.4397 C   0  0  0  0  0  0
  -23.7343  -29.7457   20.1387 C   0  0  0  0  0  0
  -25.4148  -36.2896   24.0310 C   0  0  1  0  0  0
  -20.5946  -28.3754   23.1164 C   0  0  2  0  0  0
  -20.6799  -26.9435   22.5388 C   0  0  0  0  0  0
  -19.5765  -26.6371   21.5210 C   0  0  0  0  0  0
  -18.1959  -26.7928   22.1625 C   0  0  0  0  0  0
  -19.1590  -28.8913   23.2789 C   0  0  0  0  0  0
  -18.9502  -30.1502   23.8843 C   0  0  0  0  0  0
  -17.6486  -30.6591   24.0559 C   0  0  0  0  0  0
  -25.9141  -34.9263   23.4979 C   0  0  0  0  0  0
  -16.5387  -29.9083   23.6318 C   0  0  0  0  0  0
  -16.7321  -28.6486   23.0377 C   0  0  0  0  0  0
  -26.4611  -31.6423   25.0682 C   0  0  0  0  0  0
  -25.3685  -31.3696   26.1284 C   0  0  0  0  0  0
  -27.0505  -30.2762   24.6535 C   0  0  0  0  0  0
  -27.6107  -32.4231   25.7463 C   0  0  0  0  0  0
  -27.5561  -37.1721   24.8477 C   0  0  0  0  0  0
  -21.4377  -29.3017   22.3470 N   0  0  0  0  0  0
  -26.4271  -37.3652   23.9425 N   0  0  0  0  0  0
  -24.7771  -30.9512   22.0835 N   0  0  0  0  0  0
  -23.4176  -28.7935   23.3039 O   0  0  0  0  0  0
  -27.8212  -25.3315   20.3428 O   0  0  0  0  0  0
  -26.5749  -34.8835   22.4581 O   0  0  0  0  0  0
  -23.5867  -32.1169   23.6565 O   0  0  0  0  0  0
  -29.0964  -14.3577   19.0288 C   0  0  0  0  0  0
  -28.2009  -13.8075   20.8340 C   0  0  0  0  0  0
  -28.2718  -16.8393   19.2413 C   0  0  0  0  0  0
  -27.5723  -16.8658   20.5518 C   0  0  0  0  0  0
  -29.0389  -15.7571   18.5675 C   0  0  0  0  0  0
  -27.4215  -15.3511   21.3177 C   0  0  0  0  0  0
  -27.1514  -18.6025   20.8517 C   0  0  0  0  0  0
  -26.7377  -15.3721   22.6757 C   0  0  0  0  0  0
  -30.4569  -16.0376   18.0825 C   0  0  0  0  0  0
  -27.1634  -21.8053   20.2930 C   0  0  0  0  0  0
  -27.5326  -23.6438   20.8293 C   0  0  0  0  0  0
  -26.0174  -18.7350   21.5405 N   0  0  0  0  0  0
  -31.5410  -15.5613   19.0309 N   0  0  0  0  0  0
  -27.6444  -20.0683   20.5458 N   0  3  0  0  0  0
  -31.3260  -12.1119   19.5998 H   0  0  0  0  0  0
  -30.3206  -11.8462   20.9427 H   0  0  0  0  0  0
  -28.7295  -10.9673   19.4483 H   0  0  0  0  0  0
  -29.5401  -11.5257   18.0576 H   0  0  0  0  0  0
  -26.7796  -11.9320   18.1724 H   0  0  0  0  0  0
  -27.7718  -12.9657   17.4042 H   0  0  0  0  0  0
  -26.4774  -14.9512   18.4385 H   0  0  0  0  0  0
  -29.6628  -15.3588   22.0003 H   0  0  0  0  0  0
  -30.1084  -16.3355   20.7756 H   0  0  0  0  0  0
  -25.3157   -9.6442   22.4482 H   0  0  0  0  0  0
  -24.0445   -7.5271   22.7430 H   0  0  0  0  0  0
  -21.1323   -8.8811   19.8813 H   0  0  0  0  0  0
  -22.4005  -10.9642   19.5612 H   0  0  0  0  0  0
  -21.2263   -7.6224   23.9882 H   0  0  0  0  0  0
  -21.1594   -6.0465   25.9124 H   0  0  0  0  0  0
  -22.0442   -2.7686   23.2693 H   0  0  0  0  0  0
  -22.3932  -11.9323   22.5701 H   0  0  0  0  0  0
  -20.9918  -12.9574   22.4081 H   0  0  0  0  0  0
  -24.3535  -15.8552   21.1424 H   0  0  0  0  0  0
  -24.0245  -15.5739   19.6403 H   0  0  0  0  0  0
  -26.7465  -32.4866   23.0743 H   0  0  0  0  0  0
  -25.0123  -33.9302   25.0109 H   0  0  0  0  0  0
  -22.8221  -31.2654   21.3445 H   0  0  0  0  0  0
  -23.3784  -35.9435   23.3276 H   0  0  0  0  0  0
  -24.3587  -36.8836   22.2074 H   0  0  0  0  0  0
  -23.7216  -37.6293   23.6758 H   0  0  0  0  0  0
  -26.2892  -31.2355   20.6278 H   0  0  0  0  0  0
  -26.9287  -30.5712   22.0864 H   0  0  0  0  0  0
  -28.0578  -28.2700   21.3813 H   0  0  0  0  0  0
  -25.6451  -25.6212   19.0075 H   0  0  0  0  0  0
  -23.9387  -27.3186   18.8718 H   0  0  0  0  0  0
  -23.9289  -30.5130   19.3885 H   0  0  0  0  0  0
  -22.8295  -29.2351   19.8038 H   0  0  0  0  0  0
  -25.1345  -36.1671   25.0802 H   0  0  0  0  0  0
  -21.0062  -28.3382   24.1279 H   0  0  0  0  0  0
  -20.5672  -26.2395   23.3640 H   0  0  0  0  0  0
  -21.6661  -26.7383   22.1188 H   0  0  0  0  0  0
  -19.6910  -25.6273   21.1265 H   0  0  0  0  0  0
  -19.6679  -27.3163   20.6725 H   0  0  0  0  0  0
  -17.4208  -26.6682   21.4047 H   0  0  0  0  0  0
  -18.0355  -26.0094   22.9042 H   0  0  0  0  0  0
  -19.8001  -30.7327   24.2184 H   0  0  0  0  0  0
  -17.5059  -31.6277   24.5170 H   0  0  0  0  0  0
  -15.5387  -30.2967   23.7704 H   0  0  0  0  0  0
  -15.8720  -28.0794   22.7132 H   0  0  0  0  0  0
  -24.5905  -30.7014   25.7543 H   0  0  0  0  0  0
  -24.8825  -32.2887   26.4567 H   0  0  0  0  0  0
  -25.7869  -30.8923   27.0149 H   0  0  0  0  0  0
  -26.3179  -29.6359   24.1586 H   0  0  0  0  0  0
  -27.3965  -29.7193   25.5244 H   0  0  0  0  0  0
  -27.9187  -30.3858   24.0030 H   0  0  0  0  0  0
  -27.2693  -33.3562   26.1939 H   0  0  0  0  0  0
  -28.3951  -32.6705   25.0302 H   0  0  0  0  0  0
  -28.0724  -31.8408   26.5436 H   0  0  0  0  0  0
  -28.2556  -38.0034   24.7531 H   0  0  0  0  0  0
  -28.1080  -36.2559   24.6320 H   0  0  0  0  0  0
  -27.2276  -37.1372   25.8877 H   0  0  0  0  0  0
  -20.9683  -29.8707   21.6566 H   0  0  0  0  0  0
  -26.0103  -38.2704   24.1451 H   0  0  0  0  0  0
  -29.7485  -13.8528   18.3254 H   0  0  0  0  0  0
  -28.1821  -12.8644   21.3570 H   0  0  0  0  0  0
  -28.4191  -17.8184   18.7919 H   0  0  0  0  0  0
  -27.4809  -15.2702   23.4634 H   0  0  0  0  0  0
  -26.0004  -14.5752   22.7721 H   0  0  0  0  0  0
  -26.2263  -16.3205   22.8324 H   0  0  0  0  0  0
  -30.6299  -15.5033   17.1493 H   0  0  0  0  0  0
  -30.5766  -17.0995   17.8440 H   0  0  0  0  0  0
  -27.2692  -21.8965   19.2092 H   0  0  0  0  0  0
  -26.0796  -21.7523   20.4210 H   0  0  0  0  0  0
  -28.3741  -23.5065   21.5064 H   0  0  0  0  0  0
  -26.7057  -23.8112   21.5259 H   0  0  0  0  0  0
  -25.6780  -19.6426   21.8048 H   0  0  0  0  0  0
  -25.5533  -17.9154   21.9000 H   0  0  0  0  0  0
  -32.4383  -15.9654   18.7964 H   0  0  0  0  0  0
  -28.5936  -20.0014   20.1855 H   0  0  0  0  0  0
  1 25  1  0  0  0
  1 30  2  0  0  0
  1 83  1  0  0  0
  2  3  1  0  0  0
  2 25  1  0  0  0
  2 85  1  0  0  0
  2 86  1  0  0  0
  3  4  1  0  0  0
  3 87  1  0  0  0
  3 88  1  0  0  0
  4  5  1  0  0  0
  4 89  1  0  0  0
  4 90  1  0  0  0
  5  6  1  0  0  0
  5 26  1  0  0  0
  5 91  1  0  0  0
  6 25  1  0  0  0
  6 92  1  0  0  0
  6 93  1  0  0  0
  7  8  2  0  0  0
  7 26  1  0  0  0
  7 29  1  0  0  0
  8  9  1  0  0  0
  8 22  1  0  0  0
  9 10  1  0  0  0
  9 27  2  0  0  0
 10 11  2  0  0  0
 10 15  1  0  0  0
 11 12  1  0  0  0
 11 94  1  0  0  0
 12 13  2  0  0  0
 12 95  1  0  0  0
 13 14  1  0  0  0
 13 31  1  0  0  0
 14 15  2  0  0  0
 14 96  1  0  0  0
 15 97  1  0  0  0
 16 17  2  0  0  0
 16 21  1  0  0  0
 16 31  1  0  0  0
 17 18  1  0  0  0
 17 98  1  0  0  0
 18 19  2  0  0  0
 18 99  1  0  0  0
 19 20  1  0  0  0
 19 24  1  0  0  0
 20 21  2  0  0  0
 20100  1  0  0  0
 21 23  1  0  0  0
 22 28  1  0  0  0
 22 32  2  0  0  0
 26 27  1  0  0  0
 28101  1  0  0  0
 28102  1  0  0  0
 29103  1  0  0  0
 29104  1  0  0  0
 33 34  1  0  0  0
 33 66  1  0  0  0
 33 70  2  0  0  0
 34 36  1  0  0  0
 34 59  1  0  0  0
 34105  1  0  0  0
 35 44  2  0  0  0
 35 45  1  0  0  0
 35 68  1  0  0  0
 36 56  1  0  0  0
 36106  1  0  0  0
 37 39  1  0  0  0
 37 47  1  0  0  0
 37 66  1  0  0  0
 37107  1  0  0  0
 38 43  2  0  0  0
 38 46  1  0  0  0
 38 47  1  0  0  0
 39 64  1  0  0  0
 39 67  2  0  0  0
 40 52  1  0  0  0
 40 53  2  0  0  0
 40 58  1  0  0  0
 41108  1  0  0  0
 41109  1  0  0  0
 41110  1  0  0  0
 41 48  1  0  0  0
 42 43  1  0  0  0
 42 66  1  0  0  0
 42111  1  0  0  0
 42112  1  0  0  0
 43 44  1  0  0  0
 44113  1  0  0  0
 45 46  2  0  0  0
 45114  1  0  0  0
 46115  1  0  0  0
 47116  1  0  0  0
 47117  1  0  0  0
 48 56  1  0  0  0
 48 65  1  0  0  0
 48118  1  0  0  0
 49 50  1  0  0  0
 49 53  1  0  0  0
 49 64  1  0  0  0
 49119  1  0  0  0
 50 51  1  0  0  0
 50120  1  0  0  0
 50121  1  0  0  0
 51 52  1  0  0  0
 51122  1  0  0  0
 51123  1  0  0  0
 52124  1  0  0  0
 52125  1  0  0  0
 53 54  1  0  0  0
 54 55  2  0  0  0
 54126  1  0  0  0
 55 57  1  0  0  0
 55127  1  0  0  0
 56 69  2  0  0  0
 57 58  2  0  0  0
 57128  1  0  0  0
 58129  1  0  0  0
 59 60  1  0  0  0
 59 61  1  0  0  0
 59 62  1  0  0  0
 60130  1  0  0  0
 60131  1  0  0  0
 60132  1  0  0  0
 61133  1  0  0  0
 61134  1  0  0  0
 61135  1  0  0  0
 62136  1  0  0  0
 62137  1  0  0  0
 62138  1  0  0  0
 63 65  1  0  0  0
 63139  1  0  0  0
 63140  1  0  0  0
 63141  1  0  0  0
 64142  1  0  0  0
 65143  1  0  0  0
 68 81  1  0  0  0
 71 72  2  0  0  0
 71 75  1  0  0  0
 71144  1  0  0  0
 72 76  1  0  0  0
 72145  1  0  0  0
 73 74  1  0  0  0
 73 75  2  0  0  0
 73146  1  0  0  0
 74 76  2  0  0  0
 74 77  1  0  0  0
 75 79  1  0  0  0
 76 78  1  0  0  0
 77 82  1  0  0  0
 77 84  2  0  0  0
 78147  1  0  0  0
 78148  1  0  0  0
 78149  1  0  0  0
 79 83  1  0  0  0
 79150  1  0  0  0
 79151  1  0  0  0
 80 81  1  0  0  0
 80 84  1  0  0  0
 80152  1  0  0  0
 80153  1  0  0  0
 81154  1  0  0  0
 81155  1  0  0  0
 82156  1  0  0  0
 82157  1  0  0  0
 83158  1  0  0  0
 84159  1  0  0  0
M  CHG  1  84   1
M  ISO  4   1 100  68 101  81 101  83 100
M  END
> <chiral flag>
0

> <version>
0

> <s_m_source_file>
/data/baiqing/PycharmProjects/Reinvent-master-3.2/result/LINK_invent/BTK/process_docking_weight1_custom_product_contain_oxygen_bond_distance_aromatic_linkinvent_7_9_3/rearranged_h_0034.sdf

> <i_m_source_file_index>
80

> <r_mmod_Potential_Energy-OPLS-2005>
12611.25390625

> <r_mmod_Stretch_Energy-OPLS-2005>
7005.78759765625

> <r_mmod_Bend_Energy-OPLS-2005>
1044.20166015625

> <r_mmod_Torsional_Energy-OPLS-2005>
468.855865478516

> <r_mmod_Improper_Torsional_Energy-OPLS-2005>
29.8338623046875

> <r_mmod_Van_der_Waal_Energy-OPLS-2005>
2791.6298828125

> <r_mmod_Electrostatic_Energy-OPLS-2005>
-419.410705566406

> <r_mmod_Solvation_Energy-OPLS-2005>
-415.229888916016

> <b_mmod_Minimization_Converged-OPLS-2005>
0

> <r_mmod_RMS_Derivative-OPLS-2005>
19.0654258728027

$$$$
80
                    3D
 Structure written by MMmdl.
167176  0  0  1  0            999 V2000
  -29.9279  -15.0598   20.5841 C   0  0  0  0  0  0
  -30.3821  -12.7193   19.5812 C   0  0  0  0  0  0
  -29.5140  -12.5989   18.2912 C   0  0  0  0  0  0
  -28.0585  -12.3277   18.6274 C   0  0  0  0  0  0
  -27.5715  -13.1854   19.8333 C   0  0  2  0  0  0
  -28.5325  -13.0876   21.0078 C   0  0  0  0  0  0
  -25.2155  -13.7989   20.5571 C   0  0  0  0  0  0
  -24.1621  -13.0493   20.9204 C   0  0  0  0  0  0
  -24.6068  -11.6832   20.8617 C   0  0  0  0  0  0
  -23.8827  -10.4337   21.0421 C   0  0  0  0  0  0
  -24.3483   -9.4233   21.9203 C   0  0  0  0  0  0
  -23.6315   -8.2175   22.0754 C   0  0  0  0  0  0
  -22.4246   -8.0163   21.3554 C   0  0  0  0  0  0
  -21.9745   -9.0100   20.4592 C   0  0  0  0  0  0
  -22.6981  -10.2049   20.3100 C   0  0  0  0  0  0
  -21.6823   -6.0654   22.5339 C   0  0  0  0  0  0
  -21.3939   -6.5591   23.8205 C   0  0  0  0  0  0
  -21.3658   -5.6745   24.9157 C   0  0  0  0  0  0
  -21.6091   -4.3033   24.7253 C   0  0  0  0  0  0
  -21.8806   -3.8143   23.4377 C   0  0  0  0  0  0
  -21.9158   -4.6922   22.3412 C   0  0  0  0  0  0
  -22.7646  -13.5215   21.2056 C   0  0  0  0  0  0
  -22.1672   -4.2107   21.0967 F   0  0  0  0  0  0
  -21.5625   -3.4530   25.7735 F   0  0  0  0  0  0
  -29.7352  -13.6846   20.4936 N   0  0  0  0  0  0
  -26.2301  -12.9181   20.2637 N   0  0  0  0  0  0
  -25.8890  -11.6310   20.5502 N   0  0  0  0  0  0
  -22.0319  -12.8290   22.0564 N   0  0  0  0  0  0
  -25.4032  -15.1636   20.4184 N   0  0  0  0  0  0
  -31.1306  -15.3929   20.2526 O   0  0  0  0  0  0
  -21.6593   -6.8766   21.4342 O   0  0  0  0  0  0
  -22.3379  -14.5523   20.6742 O   0  0  0  0  0  0
  -24.6504  -31.8995   23.2289 C   0  0  0  0  0  0
  -25.9335  -32.4954   23.8542 C   0  0  1  0  0  0
  -26.5939  -27.1271   20.2556 C   0  0  0  0  0  0
  -25.6207  -33.8720   24.2387 N   0  0  0  0  0  0
  -23.4310  -30.6199   21.5337 C   0  0  2  0  0  0
  -24.7809  -29.1451   19.9795 C   0  0  0  0  0  0
  -22.7317  -29.6206   22.4824 C   0  0  0  0  0  0
  -18.0501  -28.3139   22.7279 C   0  0  0  0  0  0
  -24.1510  -36.7407   23.2603 C   0  0  0  0  0  0
  -25.9793  -30.7868   21.4141 C   0  0  0  0  0  0
  -25.9208  -29.4108   20.7388 C   0  0  0  0  0  0
  -26.8727  -28.3810   20.8810 C   0  0  0  0  0  0
  -25.8813  -27.1576   19.1015 C   0  0  0  0  0  0
  -24.8155  -28.0746   19.0681 C   0  0  0  0  0  0
  -23.5936  -30.0446   20.1297 C   0  0  0  0  0  0
  -25.4168  -36.3233   24.0310 C   0  0  1  0  0  0
  -20.5423  -28.7213   23.2356 C   0  0  2  0  0  0
  -20.6499  -27.2641   22.7942 C   0  0  0  0  0  0
  -19.8378  -26.8926   21.4918 C   0  0  0  0  0  0
  -18.3516  -27.2321   21.6958 C   0  0  0  0  0  0
  -19.0498  -29.0784   23.3438 C   0  0  0  0  0  0
  -18.7380  -30.1863   24.1093 C   0  0  0  0  0  0
  -17.4084  -30.6219   24.1592 C   0  0  0  0  0  0
  -25.9075  -34.9572   23.5084 C   0  0  0  0  0  0
  -16.4043  -29.8750   23.5511 C   0  0  0  0  0  0
  -16.7124  -28.6768   22.8733 C   0  0  0  0  0  0
  -26.4507  -31.6662   25.0848 C   0  0  0  0  0  0
  -25.3784  -31.3863   26.1508 C   0  0  0  0  0  0
  -27.0330  -30.3149   24.6294 C   0  0  0  0  0  0
  -27.6196  -32.4296   25.7618 C   0  0  0  0  0  0
  -27.5577  -37.1889   24.8450 C   0  0  0  0  0  0
  -21.3836  -29.6739   22.4750 N   0  0  0  0  0  0
  -26.4303  -37.3967   23.9359 N   0  0  0  0  0  0
  -24.7083  -31.1353   22.1105 N   0  0  0  0  0  0
  -23.3754  -28.8362   23.1839 O   0  0  0  0  0  0
  -26.1147  -25.9457   20.9251 O   0  0  0  0  0  0
  -26.5601  -34.9064   22.4635 O   0  0  0  0  0  0
  -23.5733  -32.1856   23.7448 O   0  0  0  0  0  0
  -26.7745  -19.6878   20.3616 C   0  0  0  0  0  0
  -25.2333  -19.6819   22.6026 C   0  0  0  0  0  0
  -27.0778  -18.5558   21.2024 C   0  0  0  0  0  0
  -25.0149  -20.7813   21.7593 C   0  0  0  0  0  0
  -26.1998  -18.6320   22.3678 C   0  0  0  0  0  0
  -25.7827  -20.7140   20.5583 C   0  0  0  0  0  0
  -22.2419  -23.4606   22.6864 C   0  0  0  0  0  0
  -21.2939  -22.8378   23.4787 C   0  0  0  0  0  0
  -21.9729  -24.9522   22.2865 C   0  0  0  0  0  0
  -23.0372  -25.8758   21.3182 C   0  0  0  0  0  0
  -24.0753  -23.8863   20.9480 C   0  0  0  0  0  0
  -24.5293  -25.4053   20.9119 C   0  0  1  0  0  0
  -21.0318  -21.4727   24.0380 C   0  0  0  0  0  0
  -28.4060  -17.5434   20.8118 C   0  0  0  0  0  0
  -23.8268  -21.6445   22.2035 C   0  0  0  0  0  0
  -28.8100  -15.9579   20.9002 N   0  0  0  0  0  0
  -23.6567  -23.1328   22.1440 N   0  3  2  0  0  0
  -26.2389  -17.3766   23.5887 Cl  0  0  0  0  0  0
  -25.6629  -21.7444   19.1797 Cl  0  0  0  0  0  0
  -31.3950  -13.0675   19.3207 H   0  0  0  0  0  0
  -30.5085  -11.7673   20.0512 H   0  0  0  0  0  0
  -29.9218  -11.8396   17.6366 H   0  0  0  0  0  0
  -29.5917  -13.5406   17.7365 H   0  0  0  0  0  0
  -27.9348  -11.2856   18.8690 H   0  0  0  0  0  0
  -27.4168  -12.5297   17.7563 H   0  0  0  0  0  0
  -27.5508  -14.2023   19.4422 H   0  0  0  0  0  0
  -28.6985  -12.0399   21.2895 H   0  0  0  0  0  0
  -28.1540  -13.5966   21.8927 H   0  0  0  0  0  0
  -25.2646   -9.5640   22.4737 H   0  0  0  0  0  0
  -23.9934   -7.4540   22.7463 H   0  0  0  0  0  0
  -21.0663   -8.8656   19.8959 H   0  0  0  0  0  0
  -22.3499  -10.9589   19.6204 H   0  0  0  0  0  0
  -21.1973   -7.6128   23.9699 H   0  0  0  0  0  0
  -21.1474   -6.0482   25.9010 H   0  0  0  0  0  0
  -22.0626   -2.7653   23.2876 H   0  0  0  0  0  0
  -22.3946  -11.9938   22.5014 H   0  0  0  0  0  0
  -21.1047  -13.1343   22.2948 H   0  0  0  0  0  0
  -24.6742  -15.8308   20.5955 H   0  0  0  0  0  0
  -26.1689  -15.6042   19.9218 H   0  0  0  0  0  0
  -26.7494  -32.5545   23.1263 H   0  0  0  0  0  0
  -25.0493  -33.9892   25.0561 H   0  0  0  0  0  0
  -22.7316  -31.4605   21.4645 H   0  0  0  0  0  0
  -23.3785  -35.9702   23.3231 H   0  0  0  0  0  0
  -24.3630  -36.9020   22.2057 H   0  0  0  0  0  0
  -23.7189  -37.6530   23.6644 H   0  0  0  0  0  0
  -26.1766  -31.5587   20.6578 H   0  0  0  0  0  0
  -26.8287  -30.7811   22.0256 H   0  0  0  0  0  0
  -27.6908  -28.5008   21.5951 H   0  0  0  0  0  0
  -25.8131  -26.3026   18.4170 H   0  0  0  0  0  0
  -24.0485  -27.9893   18.2908 H   0  0  0  0  0  0
  -23.7656  -30.8948   19.4538 H   0  0  0  0  0  0
  -22.6779  -29.5703   19.7681 H   0  0  0  0  0  0
  -25.1252  -36.2100   25.0832 H   0  0  0  0  0  0
  -20.8401  -28.7629   24.2338 H   0  0  0  0  0  0
  -20.5086  -26.6837   23.7632 H   0  0  0  0  0  0
  -21.6463  -27.3827   22.5344 H   0  0  0  0  0  0
  -19.6009  -25.8740   21.3565 H   0  0  0  0  0  0
  -20.3589  -27.4203   20.6229 H   0  0  0  0  0  0
  -17.9818  -27.6977   20.7738 H   0  0  0  0  0  0
  -17.6838  -26.3385   21.8433 H   0  0  0  0  0  0
  -19.5901  -30.6828   24.6066 H   0  0  0  0  0  0
  -17.2380  -31.5167   24.7477 H   0  0  0  0  0  0
  -15.3654  -30.1520   23.5315 H   0  0  0  0  0  0
  -15.9834  -28.0866   22.2997 H   0  0  0  0  0  0
  -24.5894  -30.7156   25.7684 H   0  0  0  0  0  0
  -24.8917  -32.3161   26.4844 H   0  0  0  0  0  0
  -25.8057  -30.9049   27.0317 H   0  0  0  0  0  0
  -26.2875  -29.6941   24.1251 H   0  0  0  0  0  0
  -27.3957  -29.7289   25.4665 H   0  0  0  0  0  0
  -27.8806  -30.4256   23.9516 H   0  0  0  0  0  0
  -27.2903  -33.3662   26.2197 H   0  0  0  0  0  0
  -28.4120  -32.6780   25.0516 H   0  0  0  0  0  0
  -28.0801  -31.8423   26.5532 H   0  0  0  0  0  0
  -28.2584  -38.0222   24.7568 H   0  0  0  0  0  0
  -28.1145  -36.2725   24.6190 H   0  0  0  0  0  0
  -27.2352  -37.1455   25.8889 H   0  0  0  0  0  0
  -20.9253  -30.4449   21.9532 H   0  0  0  0  0  0
  -26.0177  -38.2967   24.1518 H   0  0  0  0  0  0
  -27.2829  -19.8949   19.4309 H   0  0  0  0  0  0
  -24.5906  -19.6392   23.4835 H   0  0  0  0  0  0
  -20.4607  -23.4101   23.7739 H   0  0  0  0  0  0
  -22.0446  -25.1893   23.3365 H   0  0  0  0  0  0
  -21.0324  -24.5490   21.7283 H   0  0  0  0  0  0
  -23.0088  -26.9289   21.2840 H   0  0  0  0  0  0
  -22.3319  -25.5238   20.5618 H   0  0  0  0  0  0
  -25.0138  -23.5132   20.6130 H   0  0  0  0  0  0
  -23.3357  -23.6545   20.1992 H   0  0  0  0  0  0
  -24.2416  -25.6915   19.8948 H   0  0  0  0  0  0
  -20.6856  -20.9362   23.2155 H   0  0  0  0  0  0
  -20.4386  -21.3900   24.9897 H   0  0  0  0  0  0
  -21.8323  -20.9637   24.4542 H   0  0  0  0  0  0
  -29.1890  -18.0960   21.2936 H   0  0  0  0  0  0
  -28.4877  -17.7769   19.7394 H   0  0  0  0  0  0
  -23.7398  -21.6518   23.2771 H   0  0  0  0  0  0
  -22.8492  -21.3272   21.8356 H   0  0  0  0  0  0
  -27.9826  -15.4094   21.1988 H   0  0  0  0  0  0
  -24.2315  -23.6065   22.8125 H   0  0  0  0  0  0
  1 25  1  0  0  0
  1 30  2  0  0  0
  1 86  1  0  0  0
  2  3  1  0  0  0
  2 25  1  0  0  0
  2 90  1  0  0  0
  2 91  1  0  0  0
  3  4  1  0  0  0
  3 92  1  0  0  0
  3 93  1  0  0  0
  4  5  1  0  0  0
  4 94  1  0  0  0
  4 95  1  0  0  0
  5  6  1  0  0  0
  5 26  1  0  0  0
  5 96  1  0  0  0
  6 25  1  0  0  0
  6 97  1  0  0  0
  6 98  1  0  0  0
  7  8  2  0  0  0
  7 26  1  0  0  0
  7 29  1  0  0  0
  8  9  1  0  0  0
  8 22  1  0  0  0
  9 10  1  0  0  0
  9 27  2  0  0  0
 10 11  2  0  0  0
 10 15  1  0  0  0
 11 12  1  0  0  0
 11 99  1  0  0  0
 12 13  2  0  0  0
 12100  1  0  0  0
 13 14  1  0  0  0
 13 31  1  0  0  0
 14 15  2  0  0  0
 14101  1  0  0  0
 15102  1  0  0  0
 16 17  2  0  0  0
 16 21  1  0  0  0
 16 31  1  0  0  0
 17 18  1  0  0  0
 17103  1  0  0  0
 18 19  2  0  0  0
 18104  1  0  0  0
 19 20  1  0  0  0
 19 24  1  0  0  0
 20 21  2  0  0  0
 20105  1  0  0  0
 21 23  1  0  0  0
 22 28  1  0  0  0
 22 32  2  0  0  0
 26 27  1  0  0  0
 28106  1  0  0  0
 28107  1  0  0  0
 29108  1  0  0  0
 29109  1  0  0  0
 33 34  1  0  0  0
 33 66  1  0  0  0
 33 70  2  0  0  0
 34 36  1  0  0  0
 34 59  1  0  0  0
 34110  1  0  0  0
 35 44  2  0  0  0
 35 45  1  0  0  0
 35 68  1  0  0  0
 36 56  1  0  0  0
 36111  1  0  0  0
 37 39  1  0  0  0
 37 47  1  0  0  0
 37 66  1  0  0  0
 37112  1  0  0  0
 38 43  2  0  0  0
 38 46  1  0  0  0
 38 47  1  0  0  0
 39 64  1  0  0  0
 39 67  2  0  0  0
 40 52  1  0  0  0
 40 53  2  0  0  0
 40 58  1  0  0  0
 41113  1  0  0  0
 41114  1  0  0  0
 41115  1  0  0  0
 41 48  1  0  0  0
 42 43  1  0  0  0
 42 66  1  0  0  0
 42116  1  0  0  0
 42117  1  0  0  0
 43 44  1  0  0  0
 44118  1  0  0  0
 45 46  2  0  0  0
 45119  1  0  0  0
 46120  1  0  0  0
 47121  1  0  0  0
 47122  1  0  0  0
 48 56  1  0  0  0
 48 65  1  0  0  0
 48123  1  0  0  0
 49 50  1  0  0  0
 49 53  1  0  0  0
 49 64  1  0  0  0
 49124  1  0  0  0
 50 51  1  0  0  0
 50125  1  0  0  0
 50126  1  0  0  0
 51 52  1  0  0  0
 51127  1  0  0  0
 51128  1  0  0  0
 52129  1  0  0  0
 52130  1  0  0  0
 53 54  1  0  0  0
 54 55  2  0  0  0
 54131  1  0  0  0
 55 57  1  0  0  0
 55132  1  0  0  0
 56 69  2  0  0  0
 57 58  2  0  0  0
 57133  1  0  0  0
 58134  1  0  0  0
 59 60  1  0  0  0
 59 61  1  0  0  0
 59 62  1  0  0  0
 60135  1  0  0  0
 60136  1  0  0  0
 60137  1  0  0  0
 61138  1  0  0  0
 61139  1  0  0  0
 61140  1  0  0  0
 62141  1  0  0  0
 62142  1  0  0  0
 62143  1  0  0  0
 63 65  1  0  0  0
 63144  1  0  0  0
 63145  1  0  0  0
 63146  1  0  0  0
 64147  1  0  0  0
 65148  1  0  0  0
 68 82  1  0  0  0
 71 73  2  0  0  0
 71 76  1  0  0  0
 71149  1  0  0  0
 72 74  1  0  0  0
 72 75  2  0  0  0
 72150  1  0  0  0
 73 75  1  0  0  0
 73 84  1  0  0  0
 74 76  2  0  0  0
 74 85  1  0  0  0
 75 88  1  0  0  0
 76 89  1  0  0  0
 77 78  2  0  0  0
 77 79  1  0  0  0
 77 87  1  0  0  0
 78 83  1  0  0  0
 78151  1  0  0  0
 79 80  1  0  0  0
 79152  1  0  0  0
 79153  1  0  0  0
 80 82  1  0  0  0
 80154  1  0  0  0
 80155  1  0  0  0
 81 82  1  0  0  0
 81 87  1  0  0  0
 81156  1  0  0  0
 81157  1  0  0  0
 82158  1  0  0  0
 83159  1  0  0  0
 83160  1  0  0  0
 83161  1  0  0  0
 84 86  1  0  0  0
 84162  1  0  0  0
 84163  1  0  0  0
 85164  1  0  0  0
 85165  1  0  0  0
 85 87  1  0  0  0
 86166  1  0  0  0
 87167  1  0  0  0
M  CHG  1  87   1
M  ISO  4   1 100  68 101  82 101  86 100
M  END
> <chiral flag>
0

> <version>
0

> <s_m_source_file>
/data/baiqing/PycharmProjects/Reinvent-master-3.2/result/LINK_invent/BTK/process_docking_weight1_custom_product_contain_oxygen_bond_distance_aromatic_linkinvent_7_9_3/rearranged_h_0034.sdf

> <i_m_source_file_index>
81

> <r_mmod_Potential_Energy-OPLS-2005>
2616.62084960938

> <r_mmod_Stretch_Energy-OPLS-2005>
438.948638916016

> <r_mmod_Bend_Energy-OPLS-2005>
921.516235351562

> <r_mmod_Torsional_Energy-OPLS-2005>
446.050628662109

> <r_mmod_Improper_Torsional_Energy-OPLS-2005>
25.6401119232178

> <r_mmod_Van_der_Waal_Energy-OPLS-2005>
282.275909423828

> <r_mmod_Electrostatic_Energy-OPLS-2005>
-340.791809082031

> <r_mmod_Solvation_Energy-OPLS-2005>
-420.738006591797

> <b_mmod_Minimization_Converged-OPLS-2005>
0

> <r_mmod_RMS_Derivative-OPLS-2005>
99.9990005493164

$$$$
81
                    3D
 Structure written by MMmdl.
169178  0  0  1  0            999 V2000
  -30.6397  -14.6204   20.5314 C   0  0  0  0  0  0
  -30.4364  -12.3797   19.4734 C   0  0  0  0  0  0
  -29.5150  -12.5117   18.2404 C   0  0  0  0  0  0
  -28.0372  -12.3466   18.6446 C   0  0  0  0  0  0
  -27.6576  -13.2165   19.8731 C   0  0  2  0  0  0
  -28.6969  -13.0686   21.0083 C   0  0  0  0  0  0
  -25.2563  -13.8173   20.5672 C   0  0  0  0  0  0
  -24.1827  -13.0434   20.9155 C   0  0  0  0  0  0
  -24.6405  -11.6907   20.8739 C   0  0  0  0  0  0
  -23.9075  -10.4288   21.0404 C   0  0  0  0  0  0
  -24.3618   -9.4198   21.9182 C   0  0  0  0  0  0
  -23.6285   -8.2241   22.0765 C   0  0  0  0  0  0
  -22.4269   -8.0286   21.3552 C   0  0  0  0  0  0
  -21.9908   -9.0256   20.4646 C   0  0  0  0  0  0
  -22.7247  -10.2129   20.3052 C   0  0  0  0  0  0
  -21.6854   -6.0731   22.5282 C   0  0  0  0  0  0
  -21.4020   -6.5643   23.8209 C   0  0  0  0  0  0
  -21.3654   -5.6797   24.9179 C   0  0  0  0  0  0
  -21.6047   -4.3062   24.7222 C   0  0  0  0  0  0
  -21.8822   -3.8146   23.4349 C   0  0  0  0  0  0
  -21.9186   -4.6962   22.3400 C   0  0  0  0  0  0
  -22.7844  -13.5214   21.1821 C   0  0  0  0  0  0
  -22.1655   -4.2151   21.0978 F   0  0  0  0  0  0
  -21.5618   -3.4544   25.7732 F   0  0  0  0  0  0
  -30.0191  -13.4020   20.4531 N   0  0  0  0  0  0
  -26.3009  -12.9358   20.3354 N   0  0  0  0  0  0
  -25.9334  -11.6509   20.5779 N   0  0  0  0  0  0
  -22.0506  -12.8201   22.0395 N   0  0  0  0  0  0
  -25.4257  -15.1900   20.4082 N   0  0  0  0  0  0
  -31.7875  -14.7851   20.1082 O   0  0  0  0  0  0
  -21.6642   -6.8882   21.4244 O   0  0  0  0  0  0
  -22.3517  -14.5521   20.6682 O   0  0  0  0  0  0
  -24.6203  -31.8616   23.2084 C   0  0  0  0  0  0
  -25.9060  -32.4798   23.8387 C   0  0  1  0  0  0
  -27.2107  -27.3175   20.1330 C   0  0  0  0  0  0
  -25.5903  -33.8607   24.2301 N   0  0  0  0  0  0
  -23.4155  -30.4862   21.5505 C   0  0  2  0  0  0
  -24.8653  -28.9506   20.1122 C   0  0  0  0  0  0
  -22.7452  -29.4615   22.4962 C   0  0  0  0  0  0
  -18.0285  -28.1391   22.8505 C   0  0  0  0  0  0
  -24.1488  -36.7293   23.2640 C   0  0  0  0  0  0
  -25.9571  -30.7884   21.3893 C   0  0  0  0  0  0
  -26.0298  -29.4151   20.7368 C   0  0  0  0  0  0
  -27.2045  -28.6033   20.7539 C   0  0  0  0  0  0
  -26.0522  -26.9513   19.4142 C   0  0  0  0  0  0
  -24.8772  -27.7217   19.4404 C   0  0  0  0  0  0
  -23.6297  -29.8248   20.1650 C   0  0  0  0  0  0
  -25.4124  -36.3101   24.0330 C   0  0  1  0  0  0
  -20.5873  -28.3701   23.1301 C   0  0  2  0  0  0
  -20.6777  -26.9439   22.5414 C   0  0  0  0  0  0
  -19.5755  -26.6399   21.5217 C   0  0  0  0  0  0
  -18.1925  -26.7936   22.1623 C   0  0  0  0  0  0
  -19.1533  -28.8867   23.2889 C   0  0  0  0  0  0
  -18.9455  -30.1468   23.8905 C   0  0  0  0  0  0
  -17.6454  -30.6602   24.0567 C   0  0  0  0  0  0
  -25.9058  -34.9465   23.5124 C   0  0  0  0  0  0
  -16.5346  -29.9102   23.6346 C   0  0  0  0  0  0
  -16.7264  -28.6508   23.0387 C   0  0  0  0  0  0
  -26.4478  -31.6601   25.0738 C   0  0  0  0  0  0
  -25.3725  -31.3696   26.1467 C   0  0  0  0  0  0
  -27.0342  -30.3035   24.6182 C   0  0  0  0  0  0
  -27.6038  -32.4353   25.7487 C   0  0  0  0  0  0
  -27.5592  -37.1806   24.8473 C   0  0  0  0  0  0
  -21.4173  -29.3034   22.3678 N   0  0  0  0  0  0
  -26.4307  -37.3788   23.9409 N   0  0  0  0  0  0
  -24.6828  -31.0620   22.1051 N   0  0  0  0  0  0
  -23.4169  -28.8144   23.3042 O   0  0  0  0  0  0
  -28.3080  -26.4424   20.1537 O   0  0  0  0  0  0
  -26.5632  -34.8919   22.4693 O   0  0  0  0  0  0
  -23.5372  -32.1424   23.7405 O   0  0  0  0  0  0
  -30.0323  -19.1730   19.4757 C   0  0  0  0  0  0
  -30.0117  -20.0387   20.6009 C   0  0  0  0  0  0
  -30.0286  -17.7534   19.5777 C   0  0  0  0  0  0
  -29.9812  -19.3987   21.8784 C   0  0  0  0  0  0
  -29.9321  -17.9635   21.9923 C   0  0  0  0  0  0
  -29.9956  -17.1074   20.8465 C   0  0  0  0  0  0
  -26.7711  -23.0556   21.4836 C   0  0  0  0  0  0
  -26.7911  -24.4276   20.7903 C   0  0  0  0  0  0
  -27.7371  -22.0807   20.7971 C   0  0  0  0  0  0
  -29.2402  -24.0048   20.2703 C   0  0  0  0  0  0
  -28.1949  -25.0906   20.7913 C   0  0  1  0  0  0
  -30.0421  -16.9497   18.2865 C   0  0  0  0  0  0
  -30.0040  -20.2463   23.1502 C   0  0  0  0  0  0
  -29.8329  -17.3355   23.3825 C   0  0  0  0  0  0
  -30.1549  -21.5966   20.3585 C   0  0  0  0  0  0
  -29.8693  -15.6562   20.9859 N   0  0  0  0  0  0
  -29.1240  -22.5950   20.8599 N   0  3  2  0  0  0
  -31.4838  -12.4865   19.1840 H   0  0  0  0  0  0
  -30.3504  -11.3852   19.9146 H   0  0  0  0  0  0
  -29.7848  -11.7683   17.4893 H   0  0  0  0  0  0
  -29.6613  -13.4872   17.7744 H   0  0  0  0  0  0
  -27.8743  -11.2923   18.8735 H   0  0  0  0  0  0
  -27.3866  -12.5802   17.8016 H   0  0  0  0  0  0
  -27.6798  -14.2538   19.5379 H   0  0  0  0  0  0
  -28.6979  -12.0504   21.4013 H   0  0  0  0  0  0
  -28.4357  -13.7062   21.8534 H   0  0  0  0  0  0
  -25.2767   -9.5664   22.4748 H   0  0  0  0  0  0
  -23.9989   -7.4635   22.7487 H   0  0  0  0  0  0
  -21.0846   -8.8771   19.8938 H   0  0  0  0  0  0
  -22.3716  -10.9662   19.6156 H   0  0  0  0  0  0
  -21.2039   -7.6157   23.9719 H   0  0  0  0  0  0
  -21.1470   -6.0530   25.9078 H   0  0  0  0  0  0
  -22.0608   -2.7609   23.2853 H   0  0  0  0  0  0
  -22.4142  -11.9850   22.4739 H   0  0  0  0  0  0
  -21.1136  -13.1223   22.2641 H   0  0  0  0  0  0
  -24.6569  -15.8432   20.5105 H   0  0  0  0  0  0
  -26.2801  -15.6338   20.0965 H   0  0  0  0  0  0
  -26.7104  -32.5469   23.1121 H   0  0  0  0  0  0
  -25.0063  -33.9792   25.0451 H   0  0  0  0  0  0
  -22.7072  -31.3047   21.4094 H   0  0  0  0  0  0
  -23.3773  -35.9602   23.3303 H   0  0  0  0  0  0
  -24.3554  -36.8931   22.2052 H   0  0  0  0  0  0
  -23.7225  -37.6491   23.6664 H   0  0  0  0  0  0
  -26.0910  -31.5543   20.6241 H   0  0  0  0  0  0
  -26.8356  -30.8347   22.0208 H   0  0  0  0  0  0
  -28.0936  -28.9436   21.2656 H   0  0  0  0  0  0
  -26.0343  -26.0534   18.8187 H   0  0  0  0  0  0
  -23.9989  -27.3776   18.9128 H   0  0  0  0  0  0
  -23.7354  -30.5996   19.4056 H   0  0  0  0  0  0
  -22.7513  -29.2471   19.8710 H   0  0  0  0  0  0
  -25.1290  -36.1968   25.0825 H   0  0  0  0  0  0
  -20.9948  -28.3292   24.1436 H   0  0  0  0  0  0
  -20.5722  -26.2313   23.3604 H   0  0  0  0  0  0
  -21.6642  -26.7509   22.1186 H   0  0  0  0  0  0
  -19.6925  -25.6312   21.1264 H   0  0  0  0  0  0
  -19.6688  -27.3197   20.6728 H   0  0  0  0  0  0
  -17.4194  -26.6707   21.4012 H   0  0  0  0  0  0
  -18.0325  -26.0065   22.9007 H   0  0  0  0  0  0
  -19.7934  -30.7282   24.2274 H   0  0  0  0  0  0
  -17.5017  -31.6289   24.5165 H   0  0  0  0  0  0
  -15.5355  -30.3007   23.7670 H   0  0  0  0  0  0
  -15.8653  -28.0805   22.7144 H   0  0  0  0  0  0
  -24.5897  -30.7058   25.7771 H   0  0  0  0  0  0
  -24.8914  -32.2848   26.4922 H   0  0  0  0  0  0
  -25.8067  -30.8837   27.0218 H   0  0  0  0  0  0
  -26.2926  -29.6768   24.1223 H   0  0  0  0  0  0
  -27.4082  -29.7281   25.4660 H   0  0  0  0  0  0
  -27.8760  -30.4321   23.9379 H   0  0  0  0  0  0
  -27.2640  -33.3652   26.2052 H   0  0  0  0  0  0
  -28.3837  -32.6942   25.0312 H   0  0  0  0  0  0
  -28.0720  -31.8503   26.5418 H   0  0  0  0  0  0
  -28.2611  -38.0104   24.7552 H   0  0  0  0  0  0
  -28.1111  -36.2651   24.6292 H   0  0  0  0  0  0
  -27.2300  -37.1421   25.8872 H   0  0  0  0  0  0
  -20.9355  -29.8713   21.6853 H   0  0  0  0  0  0
  -26.0207  -38.2874   24.1425 H   0  0  0  0  0  0
  -30.0809  -19.6090   18.4870 H   0  0  0  0  0  0
  -25.7639  -22.6378   21.4444 H   0  0  0  0  0  0
  -27.0173  -23.1569   22.5422 H   0  0  0  0  0  0
  -26.0681  -25.0752   21.2852 H   0  0  0  0  0  0
  -26.4541  -24.2679   19.7682 H   0  0  0  0  0  0
  -27.4425  -21.9271   19.7575 H   0  0  0  0  0  0
  -27.6643  -21.1090   21.2861 H   0  0  0  0  0  0
  -30.2440  -24.3808   20.4698 H   0  0  0  0  0  0
  -29.1500  -23.9296   19.1862 H   0  0  0  0  0  0
  -28.4359  -25.2732   21.8388 H   0  0  0  0  0  0
  -29.8246  -17.5732   17.4188 H   0  0  0  0  0  0
  -29.3017  -16.1508   18.3047 H   0  0  0  0  0  0
  -31.0259  -16.5085   18.1308 H   0  0  0  0  0  0
  -30.3459  -21.2650   22.9790 H   0  0  0  0  0  0
  -30.6839  -19.8303   23.8948 H   0  0  0  0  0  0
  -29.0083  -20.2907   23.5953 H   0  0  0  0  0  0
  -29.1550  -17.8995   24.0223 H   0  0  0  0  0  0
  -30.8158  -17.3164   23.8546 H   0  0  0  0  0  0
  -29.4470  -16.3178   23.3677 H   0  0  0  0  0  0
  -30.2173  -21.7448   19.2797 H   0  0  0  0  0  0
  -31.1328  -21.9017   20.7323 H   0  0  0  0  0  0
  -29.0145  -15.3507   21.4243 H   0  0  0  0  0  0
  -29.3279  -22.6917   21.8433 H   0  0  0  0  0  0
  1 25  1  0  0  0
  1 30  2  0  0  0
  1 86  1  0  0  0
  2  3  1  0  0  0
  2 25  1  0  0  0
  2 88  1  0  0  0
  2 89  1  0  0  0
  3  4  1  0  0  0
  3 90  1  0  0  0
  3 91  1  0  0  0
  4  5  1  0  0  0
  4 92  1  0  0  0
  4 93  1  0  0  0
  5  6  1  0  0  0
  5 26  1  0  0  0
  5 94  1  0  0  0
  6 25  1  0  0  0
  6 95  1  0  0  0
  6 96  1  0  0  0
  7  8  2  0  0  0
  7 26  1  0  0  0
  7 29  1  0  0  0
  8  9  1  0  0  0
  8 22  1  0  0  0
  9 10  1  0  0  0
  9 27  2  0  0  0
 10 11  2  0  0  0
 10 15  1  0  0  0
 11 12  1  0  0  0
 11 97  1  0  0  0
 12 13  2  0  0  0
 12 98  1  0  0  0
 13 14  1  0  0  0
 13 31  1  0  0  0
 14 15  2  0  0  0
 14 99  1  0  0  0
 15100  1  0  0  0
 16 17  2  0  0  0
 16 21  1  0  0  0
 16 31  1  0  0  0
 17 18  1  0  0  0
 17101  1  0  0  0
 18 19  2  0  0  0
 18102  1  0  0  0
 19 20  1  0  0  0
 19 24  1  0  0  0
 20 21  2  0  0  0
 20103  1  0  0  0
 21 23  1  0  0  0
 22 28  1  0  0  0
 22 32  2  0  0  0
 26 27  1  0  0  0
 28104  1  0  0  0
 28105  1  0  0  0
 29106  1  0  0  0
 29107  1  0  0  0
 33 34  1  0  0  0
 33 66  1  0  0  0
 33 70  2  0  0  0
 34 36  1  0  0  0
 34 59  1  0  0  0
 34108  1  0  0  0
 35 44  2  0  0  0
 35 45  1  0  0  0
 35 68  1  0  0  0
 36 56  1  0  0  0
 36109  1  0  0  0
 37 39  1  0  0  0
 37 47  1  0  0  0
 37 66  1  0  0  0
 37110  1  0  0  0
 38 43  2  0  0  0
 38 46  1  0  0  0
 38 47  1  0  0  0
 39 64  1  0  0  0
 39 67  2  0  0  0
 40 52  1  0  0  0
 40 53  2  0  0  0
 40 58  1  0  0  0
 41111  1  0  0  0
 41112  1  0  0  0
 41113  1  0  0  0
 41 48  1  0  0  0
 42 43  1  0  0  0
 42 66  1  0  0  0
 42114  1  0  0  0
 42115  1  0  0  0
 43 44  1  0  0  0
 44116  1  0  0  0
 45 46  2  0  0  0
 45117  1  0  0  0
 46118  1  0  0  0
 47119  1  0  0  0
 47120  1  0  0  0
 48 56  1  0  0  0
 48 65  1  0  0  0
 48121  1  0  0  0
 49 50  1  0  0  0
 49 53  1  0  0  0
 49 64  1  0  0  0
 49122  1  0  0  0
 50 51  1  0  0  0
 50123  1  0  0  0
 50124  1  0  0  0
 51 52  1  0  0  0
 51125  1  0  0  0
 51126  1  0  0  0
 52127  1  0  0  0
 52128  1  0  0  0
 53 54  1  0  0  0
 54 55  2  0  0  0
 54129  1  0  0  0
 55 57  1  0  0  0
 55130  1  0  0  0
 56 69  2  0  0  0
 57 58  2  0  0  0
 57131  1  0  0  0
 58132  1  0  0  0
 59 60  1  0  0  0
 59 61  1  0  0  0
 59 62  1  0  0  0
 60133  1  0  0  0
 60134  1  0  0  0
 60135  1  0  0  0
 61136  1  0  0  0
 61137  1  0  0  0
 61138  1  0  0  0
 62139  1  0  0  0
 62140  1  0  0  0
 62141  1  0  0  0
 63 65  1  0  0  0
 63142  1  0  0  0
 63143  1  0  0  0
 63144  1  0  0  0
 64145  1  0  0  0
 65146  1  0  0  0
 68 81  1  0  0  0
 71 72  2  0  0  0
 71 73  1  0  0  0
 71147  1  0  0  0
 72 74  1  0  0  0
 72 85  1  0  0  0
 73 76  2  0  0  0
 73 82  1  0  0  0
 74 75  2  0  0  0
 74 83  1  0  0  0
 75 76  1  0  0  0
 75 84  1  0  0  0
 76 86  1  0  0  0
 77 78  1  0  0  0
 77 79  1  0  0  0
 77148  1  0  0  0
 77149  1  0  0  0
 78 81  1  0  0  0
 78150  1  0  0  0
 78151  1  0  0  0
 79 87  1  0  0  0
 79152  1  0  0  0
 79153  1  0  0  0
 80 81  1  0  0  0
 80 87  1  0  0  0
 80154  1  0  0  0
 80155  1  0  0  0
 81156  1  0  0  0
 82157  1  0  0  0
 82158  1  0  0  0
 82159  1  0  0  0
 83160  1  0  0  0
 83161  1  0  0  0
 83162  1  0  0  0
 84163  1  0  0  0
 84164  1  0  0  0
 84165  1  0  0  0
 85166  1  0  0  0
 85167  1  0  0  0
 85 87  1  0  0  0
 86168  1  0  0  0
 87169  1  0  0  0
M  CHG  1  87   1
M  ISO  4   1 100  68 101  81 101  86 100
M  END
> <chiral flag>
0

> <version>
0

> <s_m_source_file>
/data/baiqing/PycharmProjects/Reinvent-master-3.2/result/LINK_invent/BTK/process_docking_weight1_custom_product_contain_oxygen_bond_distance_aromatic_linkinvent_7_9_3/rearranged_h_0034.sdf

> <i_m_source_file_index>
82

> <r_mmod_Potential_Energy-OPLS-2005>
3.01434969902039

> <r_mmod_Stretch_Energy-OPLS-2005>
87.8123550415039

> <r_mmod_Bend_Energy-OPLS-2005>
145.929183959961

> <r_mmod_Torsional_Energy-OPLS-2005>
278.594970703125

> <r_mmod_Improper_Torsional_Energy-OPLS-2005>
4.06275415420532

> <r_mmod_Van_der_Waal_Energy-OPLS-2005>
157.027160644531

> <r_mmod_Electrostatic_Energy-OPLS-2005>
-298.324737548828

> <r_mmod_Solvation_Energy-OPLS-2005>
-420.011413574219

> <b_mmod_Minimization_Converged-OPLS-2005>
0

> <r_mmod_RMS_Derivative-OPLS-2005>
2.86834287643433

$$$$
82
                    3D
 Structure written by MMmdl.
164173  0  0  1  0            999 V2000
  -30.6504  -14.7213   20.4422 C   0  0  0  0  0  0
  -30.4216  -12.4340   19.4791 C   0  0  0  0  0  0
  -29.5064  -12.5032   18.2381 C   0  0  0  0  0  0
  -28.0322  -12.3346   18.6495 C   0  0  0  0  0  0
  -27.6406  -13.2372   19.8500 C   0  0  2  0  0  0
  -28.6863  -13.1855   20.9856 C   0  0  0  0  0  0
  -25.2507  -13.8217   20.5717 C   0  0  0  0  0  0
  -24.1800  -13.0441   20.9201 C   0  0  0  0  0  0
  -24.6405  -11.6929   20.8752 C   0  0  0  0  0  0
  -23.9088  -10.4291   21.0398 C   0  0  0  0  0  0
  -24.3628   -9.4209   21.9176 C   0  0  0  0  0  0
  -23.6293   -8.2248   22.0754 C   0  0  0  0  0  0
  -22.4280   -8.0281   21.3537 C   0  0  0  0  0  0
  -21.9916   -9.0258   20.4638 C   0  0  0  0  0  0
  -22.7255  -10.2131   20.3047 C   0  0  0  0  0  0
  -21.6860   -6.0739   22.5277 C   0  0  0  0  0  0
  -21.4014   -6.5637   23.8214 C   0  0  0  0  0  0
  -21.3657   -5.6790   24.9174 C   0  0  0  0  0  0
  -21.6046   -4.3057   24.7219 C   0  0  0  0  0  0
  -21.8815   -3.8149   23.4341 C   0  0  0  0  0  0
  -21.9196   -4.6968   22.3402 C   0  0  0  0  0  0
  -22.7823  -13.5218   21.1863 C   0  0  0  0  0  0
  -22.1663   -4.2160   21.0977 F   0  0  0  0  0  0
  -21.5630   -3.4538   25.7728 F   0  0  0  0  0  0
  -29.9929  -13.5123   20.4019 N   0  0  0  0  0  0
  -26.2940  -12.9429   20.3304 N   0  0  0  0  0  0
  -25.9330  -11.6561   20.5759 N   0  0  0  0  0  0
  -22.0481  -12.8197   22.0410 N   0  0  0  0  0  0
  -25.4210  -15.1943   20.4159 N   0  0  0  0  0  0
  -31.8502  -14.7566   20.1627 O   0  0  0  0  0  0
  -21.6647   -6.8883   21.4238 O   0  0  0  0  0  0
  -22.3503  -14.5543   20.6746 O   0  0  0  0  0  0
  -24.6304  -31.8529   23.1977 C   0  0  0  0  0  0
  -25.9135  -32.4745   23.8311 C   0  0  1  0  0  0
  -27.2239  -27.2622   20.1179 C   0  0  0  0  0  0
  -25.5935  -33.8542   24.2252 N   0  0  0  0  0  0
  -23.4272  -30.4746   21.5439 C   0  0  2  0  0  0
  -24.8738  -28.9236   20.1142 C   0  0  0  0  0  0
  -22.7515  -29.4550   22.4921 C   0  0  0  0  0  0
  -18.0296  -28.1350   22.8469 C   0  0  0  0  0  0
  -24.1505  -36.7258   23.2637 C   0  0  0  0  0  0
  -25.9759  -30.7658   21.3803 C   0  0  0  0  0  0
  -26.0485  -29.3906   20.7159 C   0  0  0  0  0  0
  -27.2254  -28.5747   20.7034 C   0  0  0  0  0  0
  -26.0250  -26.8684   19.4806 C   0  0  0  0  0  0
  -24.8664  -27.6689   19.4896 C   0  0  0  0  0  0
  -23.6459  -29.8106   20.1609 C   0  0  0  0  0  0
  -25.4126  -36.3058   24.0340 C   0  0  1  0  0  0
  -20.5907  -28.3639   23.1279 C   0  0  2  0  0  0
  -20.6789  -26.9356   22.5412 C   0  0  0  0  0  0
  -19.5776  -26.6342   21.5209 C   0  0  0  0  0  0
  -18.1937  -26.7889   22.1599 C   0  0  0  0  0  0
  -19.1550  -28.8817   23.2860 C   0  0  0  0  0  0
  -18.9476  -30.1419   23.8875 C   0  0  0  0  0  0
  -17.6476  -30.6549   24.0540 C   0  0  0  0  0  0
  -25.9069  -34.9431   23.5098 C   0  0  0  0  0  0
  -16.5364  -29.9035   23.6347 C   0  0  0  0  0  0
  -16.7283  -28.6459   23.0355 C   0  0  0  0  0  0
  -26.4511  -31.6560   25.0697 C   0  0  0  0  0  0
  -25.3740  -31.3703   26.1427 C   0  0  0  0  0  0
  -27.0367  -30.2983   24.6173 C   0  0  0  0  0  0
  -27.6049  -32.4327   25.7476 C   0  0  0  0  0  0
  -27.5607  -37.1755   24.8451 C   0  0  0  0  0  0
  -21.4218  -29.2988   22.3675 N   0  0  0  0  0  0
  -26.4283  -37.3771   23.9448 N   0  0  0  0  0  0
  -24.6973  -31.0488   22.0959 N   0  0  0  0  0  0
  -23.4229  -28.8090   23.3007 O   0  0  0  0  0  0
  -28.3272  -26.3742   20.1891 O   0  0  0  0  0  0
  -26.5625  -34.8909   22.4665 O   0  0  0  0  0  0
  -23.5455  -32.1338   23.7281 O   0  0  0  0  0  0
  -30.8695  -19.9793   19.3423 C   0  0  0  0  0  0
  -31.2596  -17.5579   19.3032 C   0  0  0  0  0  0
  -31.5841  -18.8579   18.8728 C   0  0  0  0  0  0
  -29.7886  -19.8469   20.2435 C   0  0  0  0  0  0
  -29.4963  -18.4810   20.6981 C   0  0  0  0  0  0
  -30.2250  -17.3034   20.2330 C   0  0  0  0  0  0
  -28.7402  -22.8597   18.7064 C   0  0  0  0  0  0
  -28.6340  -21.9603   17.7120 C   0  0  0  0  0  0
  -28.3629  -24.3463   18.6255 C   0  0  0  0  0  0
  -28.9780  -23.8274   20.8916 C   0  0  0  0  0  0
  -28.1373  -24.8799   20.0474 C   0  0  1  0  0  0
  -32.7102  -19.0353   17.8711 C   0  0  0  0  0  0
  -28.4021  -18.2534   21.7286 C   0  0  0  0  0  0
  -29.0127  -21.1776   20.7127 C   0  0  0  0  0  0
  -29.9164  -15.8918   20.6190 N   0  0  0  0  0  0
  -29.2724  -22.5691   20.0799 N   0  3  1  0  0  0
  -31.4671  -12.5291   19.1818 H   0  0  0  0  0  0
  -30.3391  -11.4613   19.9669 H   0  0  0  0  0  0
  -29.7840  -11.7313   17.5192 H   0  0  0  0  0  0
  -29.6411  -13.4597   17.7319 H   0  0  0  0  0  0
  -27.8828  -11.2862   18.9111 H   0  0  0  0  0  0
  -27.3776  -12.5298   17.7986 H   0  0  0  0  0  0
  -27.6316  -14.2560   19.4636 H   0  0  0  0  0  0
  -28.7094  -12.1988   21.4521 H   0  0  0  0  0  0
  -28.4295  -13.8926   21.7759 H   0  0  0  0  0  0
  -25.2761   -9.5708   22.4751 H   0  0  0  0  0  0
  -24.0023   -7.4644   22.7475 H   0  0  0  0  0  0
  -21.0858   -8.8755   19.8933 H   0  0  0  0  0  0
  -22.3695  -10.9670   19.6155 H   0  0  0  0  0  0
  -21.1993   -7.6145   23.9723 H   0  0  0  0  0  0
  -21.1490   -6.0515   25.9081 H   0  0  0  0  0  0
  -22.0598   -2.7606   23.2835 H   0  0  0  0  0  0
  -22.4122  -11.9847   22.4764 H   0  0  0  0  0  0
  -21.1097  -13.1203   22.2631 H   0  0  0  0  0  0
  -24.6514  -15.8467   20.5219 H   0  0  0  0  0  0
  -26.2669  -15.6331   20.0769 H   0  0  0  0  0  0
  -26.7190  -32.5389   23.1025 H   0  0  0  0  0  0
  -25.0155  -33.9692   25.0448 H   0  0  0  0  0  0
  -22.7226  -31.2955   21.3968 H   0  0  0  0  0  0
  -23.3813  -35.9538   23.3227 H   0  0  0  0  0  0
  -24.3623  -36.8942   22.2067 H   0  0  0  0  0  0
  -23.7204  -37.6414   23.6698 H   0  0  0  0  0  0
  -26.1259  -31.5315   20.6185 H   0  0  0  0  0  0
  -26.8499  -30.8018   22.0182 H   0  0  0  0  0  0
  -28.1270  -28.9282   21.1838 H   0  0  0  0  0  0
  -25.9448  -25.9184   18.9779 H   0  0  0  0  0  0
  -23.9636  -27.3038   19.0207 H   0  0  0  0  0  0
  -23.7788  -30.5899   19.4102 H   0  0  0  0  0  0
  -22.7636  -29.2472   19.8496 H   0  0  0  0  0  0
  -25.1302  -36.1875   25.0826 H   0  0  0  0  0  0
  -20.9974  -28.3186   24.1413 H   0  0  0  0  0  0
  -20.5712  -26.2226   23.3597 H   0  0  0  0  0  0
  -21.6652  -26.7387   22.1183 H   0  0  0  0  0  0
  -19.6949  -25.6256   21.1224 H   0  0  0  0  0  0
  -19.6737  -27.3161   20.6751 H   0  0  0  0  0  0
  -17.4229  -26.6654   21.3979 H   0  0  0  0  0  0
  -18.0303  -26.0008   22.8978 H   0  0  0  0  0  0
  -19.7952  -30.7224   24.2225 H   0  0  0  0  0  0
  -17.5032  -31.6243   24.5106 H   0  0  0  0  0  0
  -15.5357  -30.2923   23.7683 H   0  0  0  0  0  0
  -15.8688  -28.0763   22.7101 H   0  0  0  0  0  0
  -24.5935  -30.7027   25.7754 H   0  0  0  0  0  0
  -24.8920  -32.2874   26.4820 H   0  0  0  0  0  0
  -25.8059  -30.8904   27.0220 H   0  0  0  0  0  0
  -26.2933  -29.6722   24.1221 H   0  0  0  0  0  0
  -27.4098  -29.7242   25.4659 H   0  0  0  0  0  0
  -27.8788  -30.4283   23.9381 H   0  0  0  0  0  0
  -27.2643  -33.3654   26.1981 H   0  0  0  0  0  0
  -28.3875  -32.6842   25.0311 H   0  0  0  0  0  0
  -28.0689  -31.8506   26.5446 H   0  0  0  0  0  0
  -28.2506  -38.0161   24.7650 H   0  0  0  0  0  0
  -28.1225  -36.2704   24.6084 H   0  0  0  0  0  0
  -27.2352  -37.1155   25.8847 H   0  0  0  0  0  0
  -20.9395  -29.8737   21.6913 H   0  0  0  0  0  0
  -26.0160  -38.2821   24.1531 H   0  0  0  0  0  0
  -31.1608  -20.9536   18.9780 H   0  0  0  0  0  0
  -31.8318  -16.7485   18.8778 H   0  0  0  0  0  0
  -28.2570  -22.2602   16.7453 H   0  0  0  0  0  0
  -28.9191  -20.9250   17.8204 H   0  0  0  0  0  0
  -27.4792  -24.4879   18.0030 H   0  0  0  0  0  0
  -29.1850  -24.8794   18.1487 H   0  0  0  0  0  0
  -28.4626  -23.5928   21.8241 H   0  0  0  0  0  0
  -29.9370  -24.2679   21.1656 H   0  0  0  0  0  0
  -27.1081  -24.6497   20.3240 H   0  0  0  0  0  0
  -33.1636  -20.0257   17.9363 H   0  0  0  0  0  0
  -32.3378  -18.8945   16.8556 H   0  0  0  0  0  0
  -33.4986  -18.3010   18.0431 H   0  0  0  0  0  0
  -27.5187  -17.8165   21.2637 H   0  0  0  0  0  0
  -28.1051  -19.1690   22.2381 H   0  0  0  0  0  0
  -28.7532  -17.5655   22.4988 H   0  0  0  0  0  0
  -29.2440  -21.2759   21.7735 H   0  0  0  0  0  0
  -27.9406  -20.9905   20.6554 H   0  0  0  0  0  0
  -28.9799  -15.7371   20.9568 H   0  0  0  0  0  0
  -30.2800  -22.5930   20.0196 H   0  0  0  0  0  0
  1 25  1  0  0  0
  1 30  2  0  0  0
  1 85  1  0  0  0
  2  3  1  0  0  0
  2 25  1  0  0  0
  2 87  1  0  0  0
  2 88  1  0  0  0
  3  4  1  0  0  0
  3 89  1  0  0  0
  3 90  1  0  0  0
  4  5  1  0  0  0
  4 91  1  0  0  0
  4 92  1  0  0  0
  5  6  1  0  0  0
  5 26  1  0  0  0
  5 93  1  0  0  0
  6 25  1  0  0  0
  6 94  1  0  0  0
  6 95  1  0  0  0
  7  8  2  0  0  0
  7 26  1  0  0  0
  7 29  1  0  0  0
  8  9  1  0  0  0
  8 22  1  0  0  0
  9 10  1  0  0  0
  9 27  2  0  0  0
 10 11  2  0  0  0
 10 15  1  0  0  0
 11 12  1  0  0  0
 11 96  1  0  0  0
 12 13  2  0  0  0
 12 97  1  0  0  0
 13 14  1  0  0  0
 13 31  1  0  0  0
 14 15  2  0  0  0
 14 98  1  0  0  0
 15 99  1  0  0  0
 16 17  2  0  0  0
 16 21  1  0  0  0
 16 31  1  0  0  0
 17 18  1  0  0  0
 17100  1  0  0  0
 18 19  2  0  0  0
 18101  1  0  0  0
 19 20  1  0  0  0
 19 24  1  0  0  0
 20 21  2  0  0  0
 20102  1  0  0  0
 21 23  1  0  0  0
 22 28  1  0  0  0
 22 32  2  0  0  0
 26 27  1  0  0  0
 28103  1  0  0  0
 28104  1  0  0  0
 29105  1  0  0  0
 29106  1  0  0  0
 33 34  1  0  0  0
 33 66  1  0  0  0
 33 70  2  0  0  0
 34 36  1  0  0  0
 34 59  1  0  0  0
 34107  1  0  0  0
 35 44  2  0  0  0
 35 45  1  0  0  0
 35 68  1  0  0  0
 36 56  1  0  0  0
 36108  1  0  0  0
 37 39  1  0  0  0
 37 47  1  0  0  0
 37 66  1  0  0  0
 37109  1  0  0  0
 38 43  2  0  0  0
 38 46  1  0  0  0
 38 47  1  0  0  0
 39 64  1  0  0  0
 39 67  2  0  0  0
 40 52  1  0  0  0
 40 53  2  0  0  0
 40 58  1  0  0  0
 41110  1  0  0  0
 41111  1  0  0  0
 41112  1  0  0  0
 41 48  1  0  0  0
 42 43  1  0  0  0
 42 66  1  0  0  0
 42113  1  0  0  0
 42114  1  0  0  0
 43 44  1  0  0  0
 44115  1  0  0  0
 45 46  2  0  0  0
 45116  1  0  0  0
 46117  1  0  0  0
 47118  1  0  0  0
 47119  1  0  0  0
 48 56  1  0  0  0
 48 65  1  0  0  0
 48120  1  0  0  0
 49 50  1  0  0  0
 49 53  1  0  0  0
 49 64  1  0  0  0
 49121  1  0  0  0
 50 51  1  0  0  0
 50122  1  0  0  0
 50123  1  0  0  0
 51 52  1  0  0  0
 51124  1  0  0  0
 51125  1  0  0  0
 52126  1  0  0  0
 52127  1  0  0  0
 53 54  1  0  0  0
 54 55  2  0  0  0
 54128  1  0  0  0
 55 57  1  0  0  0
 55129  1  0  0  0
 56 69  2  0  0  0
 57 58  2  0  0  0
 57130  1  0  0  0
 58131  1  0  0  0
 59 60  1  0  0  0
 59 61  1  0  0  0
 59 62  1  0  0  0
 60132  1  0  0  0
 60133  1  0  0  0
 60134  1  0  0  0
 61135  1  0  0  0
 61136  1  0  0  0
 61137  1  0  0  0
 62138  1  0  0  0
 62139  1  0  0  0
 62140  1  0  0  0
 63 65  1  0  0  0
 63141  1  0  0  0
 63142  1  0  0  0
 63143  1  0  0  0
 64144  1  0  0  0
 65145  1  0  0  0
 68 81  1  0  0  0
 71 73  2  0  0  0
 71 74  1  0  0  0
 71146  1  0  0  0
 72 73  1  0  0  0
 72 76  2  0  0  0
 72147  1  0  0  0
 73 82  1  0  0  0
 74 75  2  0  0  0
 74 84  1  0  0  0
 75 76  1  0  0  0
 75 83  1  0  0  0
 76 85  1  0  0  0
 77 78  2  0  0  0
 77 79  1  0  0  0
 77 86  1  0  0  0
 78148  1  0  0  0
 78149  1  0  0  0
 79 81  1  0  0  0
 79150  1  0  0  0
 79151  1  0  0  0
 80 81  1  0  0  0
 80 86  1  0  0  0
 80152  1  0  0  0
 80153  1  0  0  0
 81154  1  0  0  0
 82155  1  0  0  0
 82156  1  0  0  0
 82157  1  0  0  0
 83158  1  0  0  0
 83159  1  0  0  0
 83160  1  0  0  0
 84161  1  0  0  0
 84162  1  0  0  0
 84 86  1  0  0  0
 85163  1  0  0  0
 86164  1  0  0  0
M  CHG  1  86   1
M  ISO  4   1 100  68 101  81 101  85 100
M  END
> <chiral flag>
0

> <version>
0

> <s_m_source_file>
/data/baiqing/PycharmProjects/Reinvent-master-3.2/result/LINK_invent/BTK/process_docking_weight1_custom_product_contain_oxygen_bond_distance_aromatic_linkinvent_7_9_3/rearranged_h_0034.sdf

> <i_m_source_file_index>
83

> <r_mmod_Potential_Energy-OPLS-2005>
84.8942489624023

> <r_mmod_Stretch_Energy-OPLS-2005>
128.858978271484

> <r_mmod_Bend_Energy-OPLS-2005>
190.001708984375

> <r_mmod_Torsional_Energy-OPLS-2005>
254.39111328125

> <r_mmod_Improper_Torsional_Energy-OPLS-2005>
4.13144493103027

> <r_mmod_Van_der_Waal_Energy-OPLS-2005>
140.047271728516

> <r_mmod_Electrostatic_Energy-OPLS-2005>
-282.906311035156

> <r_mmod_Solvation_Energy-OPLS-2005>
-430.874389648438

> <b_mmod_Minimization_Converged-OPLS-2005>
0

> <r_mmod_RMS_Derivative-OPLS-2005>
2.91187143325806

$$$$
83
                    3D
 Structure written by MMmdl.
175184  0  0  1  0            999 V2000
  -30.7505  -14.4899   20.5858 C   0  0  0  0  0  0
  -30.4095  -12.3299   19.4311 C   0  0  0  0  0  0
  -29.4880  -12.5144   18.2107 C   0  0  0  0  0  0
  -28.0138  -12.3642   18.6262 C   0  0  0  0  0  0
  -27.6568  -13.2172   19.8719 C   0  0  2  0  0  0
  -28.7018  -13.0443   20.9995 C   0  0  0  0  0  0
  -25.2560  -13.8186   20.5702 C   0  0  0  0  0  0
  -24.1829  -13.0444   20.9200 C   0  0  0  0  0  0
  -24.6401  -11.6917   20.8753 C   0  0  0  0  0  0
  -23.9070  -10.4296   21.0411 C   0  0  0  0  0  0
  -24.3620   -9.4210   21.9185 C   0  0  0  0  0  0
  -23.6294   -8.2245   22.0754 C   0  0  0  0  0  0
  -22.4276   -8.0284   21.3543 C   0  0  0  0  0  0
  -21.9916   -9.0259   20.4646 C   0  0  0  0  0  0
  -22.7244  -10.2138   20.3057 C   0  0  0  0  0  0
  -21.6851   -6.0739   22.5279 C   0  0  0  0  0  0
  -21.4014   -6.5642   23.8214 C   0  0  0  0  0  0
  -21.3659   -5.6794   24.9177 C   0  0  0  0  0  0
  -21.6045   -4.3057   24.7226 C   0  0  0  0  0  0
  -21.8818   -3.8150   23.4347 C   0  0  0  0  0  0
  -21.9193   -4.6966   22.3403 C   0  0  0  0  0  0
  -22.7849  -13.5232   21.1854 C   0  0  0  0  0  0
  -22.1660   -4.2152   21.0980 F   0  0  0  0  0  0
  -21.5630   -3.4541   25.7739 F   0  0  0  0  0  0
  -30.0316  -13.3364   20.4417 N   0  0  0  0  0  0
  -26.3007  -12.9379   20.3378 N   0  0  0  0  0  0
  -25.9333  -11.6529   20.5789 N   0  0  0  0  0  0
  -22.0489  -12.8220   22.0406 N   0  0  0  0  0  0
  -25.4243  -15.1903   20.4077 N   0  0  0  0  0  0
  -31.8483  -14.6381   20.0387 O   0  0  0  0  0  0
  -21.6640   -6.8881   21.4240 O   0  0  0  0  0  0
  -22.3532  -14.5536   20.6697 O   0  0  0  0  0  0
  -24.6203  -31.8661   23.2119 C   0  0  0  0  0  0
  -25.9083  -32.4807   23.8415 C   0  0  1  0  0  0
  -27.2160  -27.3863   20.0918 C   0  0  0  0  0  0
  -25.5921  -33.8608   24.2333 N   0  0  0  0  0  0
  -23.4096  -30.4947   21.5535 C   0  0  2  0  0  0
  -24.8546  -28.9732   20.1034 C   0  0  0  0  0  0
  -22.7444  -29.4652   22.4967 C   0  0  0  0  0  0
  -18.0278  -28.1378   22.8489 C   0  0  0  0  0  0
  -24.1484  -36.7307   23.2632 C   0  0  0  0  0  0
  -25.9473  -30.8159   21.3774 C   0  0  0  0  0  0
  -26.0206  -29.4534   20.7122 C   0  0  0  0  0  0
  -27.2045  -28.6681   20.7055 C   0  0  0  0  0  0
  -26.0370  -26.9691   19.4240 C   0  0  0  0  0  0
  -24.8616  -27.7334   19.4529 C   0  0  0  0  0  0
  -23.6188  -29.8412   20.1639 C   0  0  0  0  0  0
  -25.4101  -36.3097   24.0334 C   0  0  1  0  0  0
  -20.5877  -28.3675   23.1300 C   0  0  2  0  0  0
  -20.6767  -26.9407   22.5412 C   0  0  0  0  0  0
  -19.5748  -26.6390   21.5204 C   0  0  0  0  0  0
  -18.1925  -26.7929   22.1614 C   0  0  0  0  0  0
  -19.1530  -28.8842   23.2893 C   0  0  0  0  0  0
  -18.9456  -30.1447   23.8907 C   0  0  0  0  0  0
  -17.6457  -30.6583   24.0566 C   0  0  0  0  0  0
  -25.9039  -34.9466   23.5124 C   0  0  0  0  0  0
  -16.5349  -29.9081   23.6331 C   0  0  0  0  0  0
  -16.7268  -28.6498   23.0355 C   0  0  0  0  0  0
  -26.4500  -31.6591   25.0753 C   0  0  0  0  0  0
  -25.3754  -31.3698   26.1490 C   0  0  0  0  0  0
  -27.0355  -30.3031   24.6166 C   0  0  0  0  0  0
  -27.6071  -32.4323   25.7506 C   0  0  0  0  0  0
  -27.5584  -37.1790   24.8465 C   0  0  0  0  0  0
  -21.4164  -29.3039   22.3703 N   0  0  0  0  0  0
  -26.4286  -37.3784   23.9425 N   0  0  0  0  0  0
  -24.6774  -31.0732   22.1045 N   0  0  0  0  0  0
  -23.4196  -28.8176   23.3010 O   0  0  0  0  0  0
  -28.3213  -26.5403   20.2000 O   0  0  0  0  0  0
  -26.5596  -34.8922   22.4685 O   0  0  0  0  0  0
  -23.5381  -32.1435   23.7483 O   0  0  0  0  0  0
  -28.5851  -19.2399   23.4374 C   0  0  0  0  0  0
  -28.5914  -17.9932   22.7898 C   0  0  0  0  0  0
  -29.0894  -20.3956   22.8161 C   0  0  0  0  0  0
  -29.6989  -19.0380   20.8671 C   0  0  0  0  0  0
  -29.2050  -17.8563   21.5190 C   0  0  0  0  0  0
  -29.5697  -20.3352   21.4775 C   0  0  0  0  0  0
  -26.4915  -23.2827   21.0976 C   0  0  0  0  0  0
  -27.0267  -24.7111   21.3308 C   0  0  0  0  0  0
  -27.5318  -22.3534   20.4393 C   0  0  0  0  0  0
  -29.2820  -24.1351   20.3912 C   0  0  0  0  0  0
  -28.0465  -25.0993   20.2273 C   0  0  1  0  0  0
  -27.9200  -16.8188   23.4906 C   0  0  0  0  0  0
  -29.0794  -21.6772   23.6406 C   0  0  0  0  0  0
  -30.3853  -18.9055   19.5098 C   0  0  0  0  0  0
  -31.2543  -16.0320   22.3480 C   0  0  0  0  0  0
  -29.2731  -16.4375   20.8770 C   0  0  0  0  0  0
  -29.9230  -21.6594   20.7245 C   0  0  0  0  0  0
  -30.2746  -15.4651   21.4063 N   0  0  0  0  0  0
  -28.8984  -22.7456   20.8665 N   0  3  2  0  0  0
  -31.4546  -12.4056   19.1259 H   0  0  0  0  0  0
  -30.2987  -11.3267   19.8449 H   0  0  0  0  0  0
  -29.7337  -11.7867   17.4361 H   0  0  0  0  0  0
  -29.6494  -13.4991   17.7684 H   0  0  0  0  0  0
  -27.8344  -11.3089   18.8344 H   0  0  0  0  0  0
  -27.3592  -12.6239   17.7935 H   0  0  0  0  0  0
  -27.6846  -14.2565   19.5469 H   0  0  0  0  0  0
  -28.6826  -12.0235   21.3834 H   0  0  0  0  0  0
  -28.4606  -13.6835   21.8495 H   0  0  0  0  0  0
  -25.2766   -9.5686   22.4759 H   0  0  0  0  0  0
  -24.0005   -7.4639   22.7473 H   0  0  0  0  0  0
  -21.0849   -8.8778   19.8950 H   0  0  0  0  0  0
  -22.3703  -10.9677   19.6168 H   0  0  0  0  0  0
  -21.2004   -7.6150   23.9718 H   0  0  0  0  0  0
  -21.1482   -6.0525   25.9080 H   0  0  0  0  0  0
  -22.0597   -2.7612   23.2847 H   0  0  0  0  0  0
  -22.4104  -11.9881   22.4796 H   0  0  0  0  0  0
  -21.1102  -13.1238   22.2601 H   0  0  0  0  0  0
  -24.6516  -15.8393   20.5085 H   0  0  0  0  0  0
  -26.2669  -15.6303   20.0632 H   0  0  0  0  0  0
  -26.7145  -32.5500   23.1163 H   0  0  0  0  0  0
  -25.0076  -33.9771   25.0479 H   0  0  0  0  0  0
  -22.7003  -31.3143   21.4198 H   0  0  0  0  0  0
  -23.3747  -35.9637   23.3281 H   0  0  0  0  0  0
  -24.3583  -36.8942   22.2051 H   0  0  0  0  0  0
  -23.7236  -37.6507   23.6658 H   0  0  0  0  0  0
  -26.0743  -31.5862   20.6155 H   0  0  0  0  0  0
  -26.8295  -30.8581   22.0045 H   0  0  0  0  0  0
  -28.0935  -29.0226   21.2086 H   0  0  0  0  0  0
  -25.9740  -26.0307   18.8961 H   0  0  0  0  0  0
  -23.9698  -27.3667   18.9635 H   0  0  0  0  0  0
  -23.7282  -30.6234   19.4121 H   0  0  0  0  0  0
  -22.7408  -29.2664   19.8638 H   0  0  0  0  0  0
  -25.1268  -36.1947   25.0823 H   0  0  0  0  0  0
  -20.9966  -28.3240   24.1421 H   0  0  0  0  0  0
  -20.5662  -26.2282   23.3601 H   0  0  0  0  0  0
  -21.6637  -26.7438   22.1212 H   0  0  0  0  0  0
  -19.6912  -25.6301   21.1228 H   0  0  0  0  0  0
  -19.6693  -27.3198   20.6733 H   0  0  0  0  0  0
  -17.4201  -26.6691   21.4009 H   0  0  0  0  0  0
  -18.0321  -26.0056   22.8994 H   0  0  0  0  0  0
  -19.7936  -30.7259   24.2280 H   0  0  0  0  0  0
  -17.5018  -31.6265   24.5167 H   0  0  0  0  0  0
  -15.5351  -30.2989   23.7656 H   0  0  0  0  0  0
  -15.8668  -28.0823   22.7066 H   0  0  0  0  0  0
  -24.5932  -30.7039   25.7824 H   0  0  0  0  0  0
  -24.8934  -32.2850   26.4938 H   0  0  0  0  0  0
  -25.8101  -30.8868   27.0251 H   0  0  0  0  0  0
  -26.2926  -29.6764   24.1218 H   0  0  0  0  0  0
  -27.4121  -29.7294   25.4646 H   0  0  0  0  0  0
  -27.8761  -30.4357   23.9350 H   0  0  0  0  0  0
  -27.2692  -33.3623   26.2094 H   0  0  0  0  0  0
  -28.3862  -32.6885   25.0312 H   0  0  0  0  0  0
  -28.0760  -31.8445   26.5410 H   0  0  0  0  0  0
  -28.2575  -38.0113   24.7546 H   0  0  0  0  0  0
  -28.1107  -36.2649   24.6234 H   0  0  0  0  0  0
  -27.2318  -37.1367   25.8871 H   0  0  0  0  0  0
  -20.9318  -29.8779   21.6942 H   0  0  0  0  0  0
  -26.0173  -38.2856   24.1449 H   0  0  0  0  0  0
  -28.1665  -19.3162   24.4323 H   0  0  0  0  0  0
  -25.6049  -23.3149   20.4633 H   0  0  0  0  0  0
  -26.1601  -22.8672   22.0494 H   0  0  0  0  0  0
  -27.5193  -24.7780   22.3015 H   0  0  0  0  0  0
  -26.1741  -25.3818   21.4074 H   0  0  0  0  0  0
  -27.4686  -22.4016   19.3509 H   0  0  0  0  0  0
  -27.2931  -21.3230   20.7041 H   0  0  0  0  0  0
  -29.9857  -24.5563   21.1100 H   0  0  0  0  0  0
  -29.8118  -24.0719   19.4400 H   0  0  0  0  0  0
  -27.6307  -24.8419   19.2535 H   0  0  0  0  0  0
  -27.6258  -17.0753   24.5088 H   0  0  0  0  0  0
  -28.5690  -15.9470   23.5527 H   0  0  0  0  0  0
  -27.0156  -16.5302   22.9535 H   0  0  0  0  0  0
  -29.1427  -21.4461   24.7049 H   0  0  0  0  0  0
  -28.1551  -22.2351   23.4910 H   0  0  0  0  0  0
  -29.9313  -22.3190   23.4152 H   0  0  0  0  0  0
  -30.9242  -17.9635   19.4178 H   0  0  0  0  0  0
  -31.1468  -19.6678   19.3558 H   0  0  0  0  0  0
  -29.6569  -18.9699   18.7011 H   0  0  0  0  0  0
  -30.7828  -16.3933   23.2596 H   0  0  0  0  0  0
  -31.7936  -16.8633   21.8903 H   0  0  0  0  0  0
  -31.9967  -15.2943   22.6607 H   0  0  0  0  0  0
  -29.3628  -16.5143   19.7934 H   0  0  0  0  0  0
  -28.2926  -15.9828   21.0058 H   0  0  0  0  0  0
  -30.0433  -21.4919   19.6558 H   0  0  0  0  0  0
  -30.8861  -22.0159   21.0920 H   0  0  0  0  0  0
  -28.8151  -22.8263   21.8690 H   0  0  0  0  0  0
  1 25  1  0  0  0
  1 30  2  0  0  0
  1 88  1  0  0  0
  2  3  1  0  0  0
  2 25  1  0  0  0
  2 90  1  0  0  0
  2 91  1  0  0  0
  3  4  1  0  0  0
  3 92  1  0  0  0
  3 93  1  0  0  0
  4  5  1  0  0  0
  4 94  1  0  0  0
  4 95  1  0  0  0
  5  6  1  0  0  0
  5 26  1  0  0  0
  5 96  1  0  0  0
  6 25  1  0  0  0
  6 97  1  0  0  0
  6 98  1  0  0  0
  7  8  2  0  0  0
  7 26  1  0  0  0
  7 29  1  0  0  0
  8  9  1  0  0  0
  8 22  1  0  0  0
  9 10  1  0  0  0
  9 27  2  0  0  0
 10 11  2  0  0  0
 10 15  1  0  0  0
 11 12  1  0  0  0
 11 99  1  0  0  0
 12 13  2  0  0  0
 12100  1  0  0  0
 13 14  1  0  0  0
 13 31  1  0  0  0
 14 15  2  0  0  0
 14101  1  0  0  0
 15102  1  0  0  0
 16 17  2  0  0  0
 16 21  1  0  0  0
 16 31  1  0  0  0
 17 18  1  0  0  0
 17103  1  0  0  0
 18 19  2  0  0  0
 18104  1  0  0  0
 19 20  1  0  0  0
 19 24  1  0  0  0
 20 21  2  0  0  0
 20105  1  0  0  0
 21 23  1  0  0  0
 22 28  1  0  0  0
 22 32  2  0  0  0
 26 27  1  0  0  0
 28106  1  0  0  0
 28107  1  0  0  0
 29108  1  0  0  0
 29109  1  0  0  0
 33 34  1  0  0  0
 33 66  1  0  0  0
 33 70  2  0  0  0
 34 36  1  0  0  0
 34 59  1  0  0  0
 34110  1  0  0  0
 35 44  2  0  0  0
 35 45  1  0  0  0
 35 68  1  0  0  0
 36 56  1  0  0  0
 36111  1  0  0  0
 37 39  1  0  0  0
 37 47  1  0  0  0
 37 66  1  0  0  0
 37112  1  0  0  0
 38 43  2  0  0  0
 38 46  1  0  0  0
 38 47  1  0  0  0
 39 64  1  0  0  0
 39 67  2  0  0  0
 40 52  1  0  0  0
 40 53  2  0  0  0
 40 58  1  0  0  0
 41113  1  0  0  0
 41114  1  0  0  0
 41115  1  0  0  0
 41 48  1  0  0  0
 42 43  1  0  0  0
 42 66  1  0  0  0
 42116  1  0  0  0
 42117  1  0  0  0
 43 44  1  0  0  0
 44118  1  0  0  0
 45 46  2  0  0  0
 45119  1  0  0  0
 46120  1  0  0  0
 47121  1  0  0  0
 47122  1  0  0  0
 48 56  1  0  0  0
 48 65  1  0  0  0
 48123  1  0  0  0
 49 50  1  0  0  0
 49 53  1  0  0  0
 49 64  1  0  0  0
 49124  1  0  0  0
 50 51  1  0  0  0
 50125  1  0  0  0
 50126  1  0  0  0
 51 52  1  0  0  0
 51127  1  0  0  0
 51128  1  0  0  0
 52129  1  0  0  0
 52130  1  0  0  0
 53 54  1  0  0  0
 54 55  2  0  0  0
 54131  1  0  0  0
 55 57  1  0  0  0
 55132  1  0  0  0
 56 69  2  0  0  0
 57 58  2  0  0  0
 57133  1  0  0  0
 58134  1  0  0  0
 59 60  1  0  0  0
 59 61  1  0  0  0
 59 62  1  0  0  0
 60135  1  0  0  0
 60136  1  0  0  0
 60137  1  0  0  0
 61138  1  0  0  0
 61139  1  0  0  0
 61140  1  0  0  0
 62141  1  0  0  0
 62142  1  0  0  0
 62143  1  0  0  0
 63 65  1  0  0  0
 63144  1  0  0  0
 63145  1  0  0  0
 63146  1  0  0  0
 64147  1  0  0  0
 65148  1  0  0  0
 68 81  1  0  0  0
 71 72  2  0  0  0
 71 73  1  0  0  0
 71149  1  0  0  0
 72 75  1  0  0  0
 72 82  1  0  0  0
 73 76  2  0  0  0
 73 83  1  0  0  0
 74 75  2  0  0  0
 74 76  1  0  0  0
 74 84  1  0  0  0
 75 86  1  0  0  0
 76 87  1  0  0  0
 77 78  1  0  0  0
 77 79  1  0  0  0
 77150  1  0  0  0
 77151  1  0  0  0
 78 81  1  0  0  0
 78152  1  0  0  0
 78153  1  0  0  0
 79 89  1  0  0  0
 79154  1  0  0  0
 79155  1  0  0  0
 80 81  1  0  0  0
 80 89  1  0  0  0
 80156  1  0  0  0
 80157  1  0  0  0
 81158  1  0  0  0
 82159  1  0  0  0
 82160  1  0  0  0
 82161  1  0  0  0
 83162  1  0  0  0
 83163  1  0  0  0
 83164  1  0  0  0
 84165  1  0  0  0
 84166  1  0  0  0
 84167  1  0  0  0
 85 88  1  0  0  0
 85168  1  0  0  0
 85169  1  0  0  0
 85170  1  0  0  0
 86 88  1  0  0  0
 86171  1  0  0  0
 86172  1  0  0  0
 87173  1  0  0  0
 87174  1  0  0  0
 87 89  1  0  0  0
 89175  1  0  0  0
M  CHG  1  89   1
M  ISO  4   1 100  68 101  81 101  88 100
M  END
> <chiral flag>
0

> <version>
0

> <s_m_source_file>
/data/baiqing/PycharmProjects/Reinvent-master-3.2/result/LINK_invent/BTK/process_docking_weight1_custom_product_contain_oxygen_bond_distance_aromatic_linkinvent_7_9_3/rearranged_h_0034.sdf

> <i_m_source_file_index>
84

> <r_mmod_Potential_Energy-OPLS-2005>
107.249443054199

> <r_mmod_Stretch_Energy-OPLS-2005>
66.301139831543

> <r_mmod_Bend_Energy-OPLS-2005>
127.40665435791

> <r_mmod_Torsional_Energy-OPLS-2005>
320.654327392578

> <r_mmod_Improper_Torsional_Energy-OPLS-2005>
5.24428749084473

> <r_mmod_Van_der_Waal_Energy-OPLS-2005>
181.629959106445

> <r_mmod_Electrostatic_Energy-OPLS-2005>
-230.050994873047

> <r_mmod_Solvation_Energy-OPLS-2005>
-389.488708496094

> <b_mmod_Minimization_Converged-OPLS-2005>
0

> <r_mmod_RMS_Derivative-OPLS-2005>
0.811125159263611

$$$$
84
                    3D
 Structure written by MMmdl.
162171  0  0  1  0            999 V2000
  -30.6318  -14.7114   20.4601 C   0  0  0  0  0  0
  -30.4256  -12.4336   19.4752 C   0  0  0  0  0  0
  -29.5075  -12.4996   18.2359 C   0  0  0  0  0  0
  -28.0324  -12.3322   18.6480 C   0  0  0  0  0  0
  -27.6416  -13.2313   19.8518 C   0  0  2  0  0  0
  -28.6836  -13.1627   20.9886 C   0  0  0  0  0  0
  -25.2511  -13.8203   20.5691 C   0  0  0  0  0  0
  -24.1798  -13.0445   20.9194 C   0  0  0  0  0  0
  -24.6391  -11.6922   20.8749 C   0  0  0  0  0  0
  -23.9070  -10.4295   21.0407 C   0  0  0  0  0  0
  -24.3619   -9.4210   21.9184 C   0  0  0  0  0  0
  -23.6293   -8.2246   22.0756 C   0  0  0  0  0  0
  -22.4278   -8.0284   21.3545 C   0  0  0  0  0  0
  -21.9912   -9.0254   20.4647 C   0  0  0  0  0  0
  -22.7240  -10.2134   20.3055 C   0  0  0  0  0  0
  -21.6855   -6.0734   22.5278 C   0  0  0  0  0  0
  -21.4011   -6.5639   23.8210 C   0  0  0  0  0  0
  -21.3657   -5.6791   24.9173 C   0  0  0  0  0  0
  -21.6042   -4.3056   24.7223 C   0  0  0  0  0  0
  -21.8823   -3.8148   23.4346 C   0  0  0  0  0  0
  -21.9194   -4.6962   22.3402 C   0  0  0  0  0  0
  -22.7820  -13.5229   21.1857 C   0  0  0  0  0  0
  -22.1664   -4.2148   21.0979 F   0  0  0  0  0  0
  -21.5627   -3.4540   25.7738 F   0  0  0  0  0  0
  -29.9866  -13.4983   20.4066 N   0  0  0  0  0  0
  -26.2934  -12.9407   20.3287 N   0  0  0  0  0  0
  -25.9320  -11.6552   20.5754 N   0  0  0  0  0  0
  -22.0469  -12.8213   22.0410 N   0  0  0  0  0  0
  -25.4205  -15.1921   20.4103 N   0  0  0  0  0  0
  -31.8210  -14.7836   20.1400 O   0  0  0  0  0  0
  -21.6644   -6.8879   21.4241 O   0  0  0  0  0  0
  -22.3502  -14.5533   20.6705 O   0  0  0  0  0  0
  -24.6313  -31.8563   23.2008 C   0  0  0  0  0  0
  -25.9149  -32.4763   23.8339 C   0  0  1  0  0  0
  -27.2140  -27.2846   20.1309 C   0  0  0  0  0  0
  -25.5950  -33.8563   24.2261 N   0  0  0  0  0  0
  -23.4251  -30.4793   21.5455 C   0  0  2  0  0  0
  -24.8706  -28.9277   20.1136 C   0  0  0  0  0  0
  -22.7484  -29.4614   22.4949 C   0  0  0  0  0  0
  -18.0276  -28.1394   22.8488 C   0  0  0  0  0  0
  -24.1482  -36.7273   23.2641 C   0  0  0  0  0  0
  -25.9680  -30.7794   21.3729 C   0  0  0  0  0  0
  -26.0423  -29.4035   20.7154 C   0  0  0  0  0  0
  -27.2218  -28.5953   20.7098 C   0  0  0  0  0  0
  -26.0234  -26.8681   19.5022 C   0  0  0  0  0  0
  -24.8651  -27.6682   19.4936 C   0  0  0  0  0  0
  -23.6401  -29.8117   20.1619 C   0  0  0  0  0  0
  -25.4111  -36.3065   24.0323 C   0  0  1  0  0  0
  -20.5883  -28.3702   23.1286 C   0  0  2  0  0  0
  -20.6778  -26.9427   22.5418 C   0  0  0  0  0  0
  -19.5750  -26.6390   21.5229 C   0  0  0  0  0  0
  -18.1922  -26.7941   22.1625 C   0  0  0  0  0  0
  -19.1533  -28.8865   23.2882 C   0  0  0  0  0  0
  -18.9459  -30.1467   23.8897 C   0  0  0  0  0  0
  -17.6460  -30.6606   24.0571 C   0  0  0  0  0  0
  -25.9055  -34.9439   23.5088 C   0  0  0  0  0  0
  -16.5351  -29.9100   23.6348 C   0  0  0  0  0  0
  -16.7266  -28.6519   23.0368 C   0  0  0  0  0  0
  -26.4525  -31.6588   25.0723 C   0  0  0  0  0  0
  -25.3742  -31.3732   26.1437 C   0  0  0  0  0  0
  -27.0387  -30.3014   24.6197 C   0  0  0  0  0  0
  -27.6066  -32.4338   25.7505 C   0  0  0  0  0  0
  -27.5565  -37.1784   24.8467 C   0  0  0  0  0  0
  -21.4199  -29.3046   22.3680 N   0  0  0  0  0  0
  -26.4275  -37.3770   23.9413 N   0  0  0  0  0  0
  -24.6944  -31.0550   22.0969 N   0  0  0  0  0  0
  -23.4186  -28.8162   23.3056 O   0  0  0  0  0  0
  -28.2966  -26.3883   20.1798 O   0  0  0  0  0  0
  -26.5625  -34.8916   22.4659 O   0  0  0  0  0  0
  -23.5468  -32.1371   23.7322 O   0  0  0  0  0  0
  -29.7189  -19.5748   19.3567 C   0  0  0  0  0  0
  -29.2717  -20.9303   19.4419 C   0  0  0  0  0  0
  -29.6773  -18.6594   20.4450 C   0  0  0  0  0  0
  -29.1043  -19.2016   21.6325 C   0  0  0  0  0  0
  -28.6156  -20.5663   21.6932 C   0  0  0  0  0  0
  -28.7253  -21.5189   20.6149 C   0  0  0  0  0  0
  -27.7850  -23.7740   19.6236 C   0  0  0  0  0  0
  -27.9904  -24.9849   20.6039 C   0  0  1  0  0  0
  -29.1264  -24.0468   21.1410 C   0  0  1  0  0  0
  -29.0506  -18.3201   22.8762 C   0  0  0  0  0  0
  -27.9379  -21.0336   22.9821 C   0  0  0  0  0  0
  -29.4718  -24.0258   22.6225 C   0  0  0  0  0  0
  -30.4446  -17.2614   20.3238 C   0  0  0  0  0  0
  -28.2522  -22.9209   20.7405 N   0  0  0  0  0  0
  -29.9003  -15.8744   20.6330 N   0  0  0  0  0  0
  -31.4687  -12.5444   19.1738 H   0  0  0  0  0  0
  -30.3585  -11.4566   19.9562 H   0  0  0  0  0  0
  -29.7858  -11.7268   17.5180 H   0  0  0  0  0  0
  -29.6416  -13.4547   17.7260 H   0  0  0  0  0  0
  -27.8825  -11.2833   18.9063 H   0  0  0  0  0  0
  -27.3775  -12.5311   17.7992 H   0  0  0  0  0  0
  -27.6387  -14.2537   19.4738 H   0  0  0  0  0  0
  -28.7102  -12.1668   21.4332 H   0  0  0  0  0  0
  -28.4261  -13.8521   21.7941 H   0  0  0  0  0  0
  -25.2767   -9.5687   22.4753 H   0  0  0  0  0  0
  -24.0003   -7.4641   22.7478 H   0  0  0  0  0  0
  -21.0842   -8.8771   19.8951 H   0  0  0  0  0  0
  -22.3700  -10.9669   19.6159 H   0  0  0  0  0  0
  -21.2002   -7.6146   23.9711 H   0  0  0  0  0  0
  -21.1471   -6.0523   25.9074 H   0  0  0  0  0  0
  -22.0603   -2.7609   23.2848 H   0  0  0  0  0  0
  -22.4096  -11.9878   22.4794 H   0  0  0  0  0  0
  -21.1084  -13.1228   22.2621 H   0  0  0  0  0  0
  -24.6520  -15.8457   20.5163 H   0  0  0  0  0  0
  -26.2677  -15.6314   20.0726 H   0  0  0  0  0  0
  -26.7213  -32.5418   23.1076 H   0  0  0  0  0  0
  -25.0123  -33.9716   25.0424 H   0  0  0  0  0  0
  -22.7221  -31.3023   21.3997 H   0  0  0  0  0  0
  -23.3755  -35.9597   23.3313 H   0  0  0  0  0  0
  -24.3556  -36.8895   22.2052 H   0  0  0  0  0  0
  -23.7231  -37.6470   23.6669 H   0  0  0  0  0  0
  -26.0984  -31.5408   20.6033 H   0  0  0  0  0  0
  -26.8484  -30.8308   22.0010 H   0  0  0  0  0  0
  -28.1198  -28.9520   21.1928 H   0  0  0  0  0  0
  -25.9767  -25.8992   19.0277 H   0  0  0  0  0  0
  -23.9664  -27.2989   19.0193 H   0  0  0  0  0  0
  -23.7622  -30.5877   19.4052 H   0  0  0  0  0  0
  -22.7585  -29.2435   19.8597 H   0  0  0  0  0  0
  -25.1294  -36.1901   25.0813 H   0  0  0  0  0  0
  -20.9954  -28.3280   24.1416 H   0  0  0  0  0  0
  -20.5708  -26.2316   23.3624 H   0  0  0  0  0  0
  -21.6644  -26.7480   22.1192 H   0  0  0  0  0  0
  -19.6933  -25.6303   21.1259 H   0  0  0  0  0  0
  -19.6696  -27.3206   20.6765 H   0  0  0  0  0  0
  -17.4205  -26.6709   21.4012 H   0  0  0  0  0  0
  -18.0302  -26.0071   22.9004 H   0  0  0  0  0  0
  -19.7936  -30.7286   24.2258 H   0  0  0  0  0  0
  -17.5021  -31.6286   24.5171 H   0  0  0  0  0  0
  -15.5355  -30.3009   23.7688 H   0  0  0  0  0  0
  -15.8658  -28.0847   22.7098 H   0  0  0  0  0  0
  -24.5946  -30.7049   25.7772 H   0  0  0  0  0  0
  -24.8904  -32.2898   26.4817 H   0  0  0  0  0  0
  -25.8050  -30.8951   27.0242 H   0  0  0  0  0  0
  -26.2975  -29.6740   24.1233 H   0  0  0  0  0  0
  -27.4110  -29.7291   25.4707 H   0  0  0  0  0  0
  -27.8823  -30.4318   23.9414 H   0  0  0  0  0  0
  -27.2679  -33.3667   26.2027 H   0  0  0  0  0  0
  -28.3910  -32.6856   25.0355 H   0  0  0  0  0  0
  -28.0700  -31.8501   26.5471 H   0  0  0  0  0  0
  -28.2581  -38.0080   24.7511 H   0  0  0  0  0  0
  -28.1050  -36.2608   24.6290 H   0  0  0  0  0  0
  -27.2274  -37.1429   25.8866 H   0  0  0  0  0  0
  -20.9404  -29.8752   21.6860 H   0  0  0  0  0  0
  -26.0150  -38.2836   24.1435 H   0  0  0  0  0  0
  -30.1564  -19.2523   18.4221 H   0  0  0  0  0  0
  -29.3714  -21.5456   18.5594 H   0  0  0  0  0  0
  -28.4549  -23.7817   18.7608 H   0  0  0  0  0  0
  -26.7469  -23.6004   19.3364 H   0  0  0  0  0  0
  -27.1742  -25.0217   21.3327 H   0  0  0  0  0  0
  -30.0161  -24.0898   20.5070 H   0  0  0  0  0  0
  -29.7975  -17.5284   22.8557 H   0  0  0  0  0  0
  -28.0688  -17.8550   22.9677 H   0  0  0  0  0  0
  -29.2498  -18.8925   23.7822 H   0  0  0  0  0  0
  -28.6793  -21.3889   23.6974 H   0  0  0  0  0  0
  -27.3638  -20.2370   23.4539 H   0  0  0  0  0  0
  -27.2232  -21.8371   22.8073 H   0  0  0  0  0  0
  -28.5803  -24.0041   23.2492 H   0  0  0  0  0  0
  -30.0408  -24.9140   22.8963 H   0  0  0  0  0  0
  -30.0844  -23.1604   22.8753 H   0  0  0  0  0  0
  -31.3482  -17.3761   20.9248 H   0  0  0  0  0  0
  -30.8125  -17.2054   19.2980 H   0  0  0  0  0  0
  -28.9208  -15.7904   20.8588 H   0  0  0  0  0  0
  1 25  1  0  0  0
  1 30  2  0  0  0
  1 85  1  0  0  0
  2  3  1  0  0  0
  2 25  1  0  0  0
  2 86  1  0  0  0
  2 87  1  0  0  0
  3  4  1  0  0  0
  3 88  1  0  0  0
  3 89  1  0  0  0
  4  5  1  0  0  0
  4 90  1  0  0  0
  4 91  1  0  0  0
  5  6  1  0  0  0
  5 26  1  0  0  0
  5 92  1  0  0  0
  6 25  1  0  0  0
  6 93  1  0  0  0
  6 94  1  0  0  0
  7  8  2  0  0  0
  7 26  1  0  0  0
  7 29  1  0  0  0
  8  9  1  0  0  0
  8 22  1  0  0  0
  9 10  1  0  0  0
  9 27  2  0  0  0
 10 11  2  0  0  0
 10 15  1  0  0  0
 11 12  1  0  0  0
 11 95  1  0  0  0
 12 13  2  0  0  0
 12 96  1  0  0  0
 13 14  1  0  0  0
 13 31  1  0  0  0
 14 15  2  0  0  0
 14 97  1  0  0  0
 15 98  1  0  0  0
 16 17  2  0  0  0
 16 21  1  0  0  0
 16 31  1  0  0  0
 17 18  1  0  0  0
 17 99  1  0  0  0
 18 19  2  0  0  0
 18100  1  0  0  0
 19 20  1  0  0  0
 19 24  1  0  0  0
 20 21  2  0  0  0
 20101  1  0  0  0
 21 23  1  0  0  0
 22 28  1  0  0  0
 22 32  2  0  0  0
 26 27  1  0  0  0
 28102  1  0  0  0
 28103  1  0  0  0
 29104  1  0  0  0
 29105  1  0  0  0
 33 34  1  0  0  0
 33 66  1  0  0  0
 33 70  2  0  0  0
 34 36  1  0  0  0
 34 59  1  0  0  0
 34106  1  0  0  0
 35 44  2  0  0  0
 35 45  1  0  0  0
 35 68  1  0  0  0
 36 56  1  0  0  0
 36107  1  0  0  0
 37 39  1  0  0  0
 37 47  1  0  0  0
 37 66  1  0  0  0
 37108  1  0  0  0
 38 43  2  0  0  0
 38 46  1  0  0  0
 38 47  1  0  0  0
 39 64  1  0  0  0
 39 67  2  0  0  0
 40 52  1  0  0  0
 40 53  2  0  0  0
 40 58  1  0  0  0
 41109  1  0  0  0
 41110  1  0  0  0
 41111  1  0  0  0
 41 48  1  0  0  0
 42 43  1  0  0  0
 42 66  1  0  0  0
 42112  1  0  0  0
 42113  1  0  0  0
 43 44  1  0  0  0
 44114  1  0  0  0
 45 46  2  0  0  0
 45115  1  0  0  0
 46116  1  0  0  0
 47117  1  0  0  0
 47118  1  0  0  0
 48 56  1  0  0  0
 48 65  1  0  0  0
 48119  1  0  0  0
 49 50  1  0  0  0
 49 53  1  0  0  0
 49 64  1  0  0  0
 49120  1  0  0  0
 50 51  1  0  0  0
 50121  1  0  0  0
 50122  1  0  0  0
 51 52  1  0  0  0
 51123  1  0  0  0
 51124  1  0  0  0
 52125  1  0  0  0
 52126  1  0  0  0
 53 54  1  0  0  0
 54 55  2  0  0  0
 54127  1  0  0  0
 55 57  1  0  0  0
 55128  1  0  0  0
 56 69  2  0  0  0
 57 58  2  0  0  0
 57129  1  0  0  0
 58130  1  0  0  0
 59 60  1  0  0  0
 59 61  1  0  0  0
 59 62  1  0  0  0
 60131  1  0  0  0
 60132  1  0  0  0
 60133  1  0  0  0
 61134  1  0  0  0
 61135  1  0  0  0
 61136  1  0  0  0
 62137  1  0  0  0
 62138  1  0  0  0
 62139  1  0  0  0
 63 65  1  0  0  0
 63140  1  0  0  0
 63141  1  0  0  0
 63142  1  0  0  0
 64143  1  0  0  0
 65144  1  0  0  0
 68 78  1  0  0  0
 71 72  2  0  0  0
 71 73  1  0  0  0
 71145  1  0  0  0
 72 76  1  0  0  0
 72146  1  0  0  0
 73 74  2  0  0  0
 73 83  1  0  0  0
 74 75  1  0  0  0
 74 80  1  0  0  0
 75 76  2  0  0  0
 75 81  1  0  0  0
 76 84  1  0  0  0
 77 78  1  0  0  0
 77 84  1  0  0  0
 77147  1  0  0  0
 77148  1  0  0  0
 78 79  1  0  0  0
 78149  1  0  0  0
 79 82  1  0  0  0
 79 84  1  0  0  0
 79150  1  0  0  0
 80151  1  0  0  0
 80152  1  0  0  0
 80153  1  0  0  0
 81154  1  0  0  0
 81155  1  0  0  0
 81156  1  0  0  0
 82157  1  0  0  0
 82158  1  0  0  0
 82159  1  0  0  0
 83 85  1  0  0  0
 83160  1  0  0  0
 83161  1  0  0  0
 85162  1  0  0  0
M  ISO  4   1 100  68 101  78 101  85 100
M  END
> <chiral flag>
0

> <version>
0

> <s_m_source_file>
/data/baiqing/PycharmProjects/Reinvent-master-3.2/result/LINK_invent/BTK/process_docking_weight1_custom_product_contain_oxygen_bond_distance_aromatic_linkinvent_7_9_3/rearranged_h_0034.sdf

> <i_m_source_file_index>
85

> <r_mmod_Potential_Energy-OPLS-2005>
150.071319580078

> <r_mmod_Stretch_Energy-OPLS-2005>
103.827247619629

> <r_mmod_Bend_Energy-OPLS-2005>
219.224548339844

> <r_mmod_Torsional_Energy-OPLS-2005>
253.998519897461

> <r_mmod_Improper_Torsional_Energy-OPLS-2005>
13.822452545166

> <r_mmod_Van_der_Waal_Energy-OPLS-2005>
147.40934753418

> <r_mmod_Electrostatic_Energy-OPLS-2005>
-448.640197753906

> <r_mmod_Solvation_Energy-OPLS-2005>
-213.827163696289

> <b_mmod_Minimization_Converged-OPLS-2005>
0

> <r_mmod_RMS_Derivative-OPLS-2005>
1.45251405239105

$$$$
85
                    3D
 Structure written by MMmdl.
164173  0  0  1  0            999 V2000
  -29.5653  -15.9133   20.3490 C   0  0  0  0  0  0
  -30.2949  -13.3385   19.6002 C   0  0  0  0  0  0
  -29.5377  -12.7474   18.3678 C   0  0  0  0  0  0
  -28.1237  -12.2862   18.7621 C   0  0  0  0  0  0
  -27.5125  -13.2719   19.7799 C   0  0  2  0  0  0
  -28.4229  -13.6260   20.9515 C   0  0  0  0  0  0
  -25.1999  -13.8145   20.5625 C   0  0  0  0  0  0
  -24.1475  -13.0346   20.9322 C   0  0  0  0  0  0
  -24.6141  -11.6842   20.8745 C   0  0  0  0  0  0
  -23.8915  -10.4232   21.0431 C   0  0  0  0  0  0
  -24.3547   -9.4174   21.9188 C   0  0  0  0  0  0
  -23.6260   -8.2194   22.0751 C   0  0  0  0  0  0
  -22.4243   -8.0222   21.3545 C   0  0  0  0  0  0
  -21.9840   -9.0167   20.4649 C   0  0  0  0  0  0
  -22.7113  -10.2063   20.3062 C   0  0  0  0  0  0
  -21.6844   -6.0695   22.5271 C   0  0  0  0  0  0
  -21.4001   -6.5619   23.8195 C   0  0  0  0  0  0
  -21.3656   -5.6785   24.9165 C   0  0  0  0  0  0
  -21.6044   -4.3046   24.7227 C   0  0  0  0  0  0
  -21.8820   -3.8123   23.4355 C   0  0  0  0  0  0
  -21.9195   -4.6928   22.3405 C   0  0  0  0  0  0
  -22.7566  -13.5145   21.2015 C   0  0  0  0  0  0
  -22.1671   -4.2126   21.0980 F   0  0  0  0  0  0
  -21.5639   -3.4536   25.7741 F   0  0  0  0  0  0
  -29.4478  -14.4335   20.3166 N   0  0  0  0  0  0
  -26.2139  -12.9297   20.2706 N   0  0  0  0  0  0
  -25.8958  -11.6456   20.5406 N   0  0  0  0  0  0
  -22.0279  -12.8111   22.0577 N   0  0  0  0  0  0
  -25.3759  -15.1886   20.4042 N   0  0  0  0  0  0
  -30.8170  -16.0512   20.1957 O   0  0  0  0  0  0
  -21.6627   -6.8821   21.4229 O   0  0  0  0  0  0
  -22.3287  -14.5464   20.6856 O   0  0  0  0  0  0
  -24.7575  -31.7225   22.7143 C   0  0  0  0  0  0
  -25.9661  -32.3917   23.5737 C   0  0  1  0  0  0
  -26.3327  -28.2331   21.6958 C   0  0  0  0  0  0
  -25.5679  -33.7604   24.0195 N   0  0  0  0  0  0
  -24.1556  -29.3359   20.8084 C   0  0  2  0  0  0
  -25.5552  -28.9538   19.3772 C   0  0  0  0  0  0
  -23.7089  -27.4546   22.3035 C   0  0  0  0  0  0
  -18.1906  -28.1318   22.8212 C   0  0  0  0  0  0
  -24.1504  -36.6873   23.2725 C   0  0  0  0  0  0
  -26.0267  -31.1087   20.6952 C   0  0  0  0  0  0
  -26.4757  -29.7582   20.1532 C   0  0  0  0  0  0
  -27.2577  -29.0537   21.0604 C   0  0  0  0  0  0
  -26.0934  -27.1683   20.7020 C   0  0  0  0  0  0
  -25.5930  -27.5570   19.4577 C   0  0  0  0  0  0
  -24.1895  -29.3923   19.3320 C   0  0  0  0  0  0
  -25.4234  -36.2500   24.0162 C   0  0  1  0  0  0
  -20.7877  -27.5775   23.2487 C   0  0  2  0  0  0
  -20.3577  -26.2794   22.6298 C   0  0  0  0  0  0
  -19.3552  -26.4088   21.5102 C   0  0  0  0  0  0
  -18.0580  -26.8130   22.1242 C   0  0  0  0  0  0
  -19.4852  -28.6458   23.2416 C   0  0  0  0  0  0
  -19.3439  -29.9279   23.8768 C   0  0  0  0  0  0
  -18.0787  -30.5849   24.0692 C   0  0  0  0  0  0
  -25.9279  -34.9086   23.4308 C   0  0  0  0  0  0
  -16.8648  -30.0006   23.6649 C   0  0  0  0  0  0
  -16.9363  -28.7608   23.0350 C   0  0  0  0  0  0
  -26.4378  -31.6537   24.9283 C   0  0  0  0  0  0
  -25.3140  -31.4155   25.9700 C   0  0  0  0  0  0
  -27.0944  -30.2949   24.6397 C   0  0  0  0  0  0
  -27.5492  -32.4768   25.6510 C   0  0  0  0  0  0
  -27.5551  -37.1531   24.8478 C   0  0  0  0  0  0
  -22.3938  -27.3434   23.0979 N   0  0  0  0  0  0
  -26.4211  -37.3440   23.9479 N   0  0  0  0  0  0
  -24.7875  -30.9259   21.4307 N   0  0  0  0  0  0
  -24.3041  -27.1311   23.3105 O   0  0  0  0  0  0
  -25.2924  -29.0594   22.6445 O   0  0  0  0  0  0
  -26.6316  -34.9190   22.4214 O   0  0  0  0  0  0
  -23.7103  -32.0297   23.3323 O   0  0  0  0  0  0
  -26.6592  -21.3220   21.3900 C   0  0  0  0  0  0
  -27.4795  -19.9624   21.3607 C   0  0  0  0  0  0
  -26.5915  -19.4927   19.4935 C   0  0  0  0  0  0
  -25.6410  -22.0424   20.4812 C   0  0  0  0  0  0
  -25.7890  -20.8720   19.4929 C   0  0  0  0  0  0
  -27.6163  -18.7719   20.3963 C   0  0  0  0  0  0
  -22.3296  -26.8925   20.2590 C   0  0  0  0  0  0
  -21.9518  -28.3926   20.9443 C   0  0  0  0  0  0
  -21.6157  -26.5444   18.9664 C   0  0  0  0  0  0
  -21.3023  -25.0426   18.9679 C   0  0  0  0  0  0
  -22.5367  -24.2652   19.4177 C   0  0  0  0  0  0
  -25.0145  -21.1393   18.2155 C   0  0  0  0  0  0
  -24.8150  -23.9024   20.5040 C   0  0  0  0  0  0
  -22.9605  -29.6115   22.6317 C   0  0  0  0  0  0
  -28.3677  -17.0649   20.3955 N   0  0  0  0  0  0
  -23.2775  -25.0224   20.4505 N   0  3  1  0  0  0
  -31.2449  -13.7556   19.2637 H   0  0  0  0  0  0
  -30.5752  -12.5387   20.2897 H   0  0  0  0  0  0
  -30.1004  -11.9329   17.9116 H   0  0  0  0  0  0
  -29.4585  -13.5243   17.6069 H   0  0  0  0  0  0
  -28.1884  -11.2897   19.2026 H   0  0  0  0  0  0
  -27.4920  -12.1948   17.8779 H   0  0  0  0  0  0
  -27.3583  -14.1741   19.1846 H   0  0  0  0  0  0
  -28.7854  -12.7556   21.5019 H   0  0  0  0  0  0
  -27.8984  -14.2526   21.6753 H   0  0  0  0  0  0
  -25.2699   -9.5687   22.4747 H   0  0  0  0  0  0
  -23.9992   -7.4595   22.7465 H   0  0  0  0  0  0
  -21.0775   -8.8642   19.8977 H   0  0  0  0  0  0
  -22.3538  -10.9598   19.6189 H   0  0  0  0  0  0
  -21.1979   -7.6129   23.9680 H   0  0  0  0  0  0
  -21.1487   -6.0527   25.9067 H   0  0  0  0  0  0
  -22.0609   -2.7589   23.2851 H   0  0  0  0  0  0
  -22.3952  -11.9736   22.4868 H   0  0  0  0  0  0
  -21.0895  -13.1086   22.2836 H   0  0  0  0  0  0
  -24.5496  -15.7733   20.4782 H   0  0  0  0  0  0
  -25.9901  -15.5055   19.6681 H   0  0  0  0  0  0
  -26.8595  -32.5095   22.9701 H   0  0  0  0  0  0
  -24.9313  -33.8106   24.8011 H   0  0  0  0  0  0
  -23.3474  -30.0260   20.5191 H   0  0  0  0  0  0
  -23.3904  -35.9046   23.3072 H   0  0  0  0  0  0
  -24.3528  -36.8935   22.2199 H   0  0  0  0  0  0
  -23.7148  -37.5826   23.7175 H   0  0  0  0  0  0
  -25.8258  -31.7832   19.8623 H   0  0  0  0  0  0
  -26.8599  -31.5690   21.2129 H   0  0  0  0  0  0
  -27.8172  -29.6996   21.7170 H   0  0  0  0  0  0
  -25.9418  -26.1622   21.0430 H   0  0  0  0  0  0
  -25.0011  -26.8770   18.8634 H   0  0  0  0  0  0
  -24.1426  -30.3762   18.8379 H   0  0  0  0  0  0
  -23.5378  -28.7134   18.7902 H   0  0  0  0  0  0
  -25.1587  -36.0845   25.0628 H   0  0  0  0  0  0
  -20.7630  -27.3971   24.3242 H   0  0  0  0  0  0
  -19.8890  -25.6867   23.4190 H   0  0  0  0  0  0
  -21.1587  -25.6198   22.3006 H   0  0  0  0  0  0
  -19.1698  -25.4399   21.0588 H   0  0  0  0  0  0
  -19.6440  -27.1092   20.7333 H   0  0  0  0  0  0
  -17.2980  -26.8801   21.3450 H   0  0  0  0  0  0
  -17.7062  -26.0655   22.8372 H   0  0  0  0  0  0
  -20.2283  -30.3861   24.2949 H   0  0  0  0  0  0
  -18.0609  -31.5369   24.5850 H   0  0  0  0  0  0
  -15.9186  -30.4995   23.8376 H   0  0  0  0  0  0
  -16.0188  -28.2941   22.7082 H   0  0  0  0  0  0
  -24.5465  -30.7476   25.5759 H   0  0  0  0  0  0
  -24.8157  -32.3468   26.2422 H   0  0  0  0  0  0
  -25.6954  -30.9684   26.8887 H   0  0  0  0  0  0
  -26.3670  -29.4947   24.5724 H   0  0  0  0  0  0
  -27.7558  -29.9830   25.4478 H   0  0  0  0  0  0
  -27.7032  -30.3283   23.7415 H   0  0  0  0  0  0
  -27.1830  -33.4264   26.0451 H   0  0  0  0  0  0
  -28.3746  -32.7014   24.9748 H   0  0  0  0  0  0
  -27.9720  -31.9382   26.5006 H   0  0  0  0  0  0
  -28.2418  -37.9957   24.7636 H   0  0  0  0  0  0
  -28.1209  -36.2480   24.6184 H   0  0  0  0  0  0
  -27.2312  -37.0968   25.8884 H   0  0  0  0  0  0
  -22.6645  -26.7582   23.8773 H   0  0  0  0  0  0
  -25.9901  -38.2390   24.1632 H   0  0  0  0  0  0
  -26.8976  -21.9059   22.2681 H   0  0  0  0  0  0
  -28.0857  -19.8366   22.2473 H   0  0  0  0  0  0
  -26.3718  -18.8924   18.6231 H   0  0  0  0  0  0
  -21.2466  -28.9995   20.3940 H   0  0  0  0  0  0
  -22.2913  -26.7573   18.1375 H   0  0  0  0  0  0
  -20.7221  -27.1436   18.7984 H   0  0  0  0  0  0
  -20.9671  -24.7044   17.9896 H   0  0  0  0  0  0
  -20.4925  -24.8063   19.6474 H   0  0  0  0  0  0
  -22.2807  -23.2561   19.7513 H   0  0  0  0  0  0
  -23.1977  -24.1456   18.5598 H   0  0  0  0  0  0
  -25.1662  -20.3670   17.4615 H   0  0  0  0  0  0
  -25.3446  -22.0844   17.7788 H   0  0  0  0  0  0
  -23.9463  -21.2050   18.4262 H   0  0  0  0  0  0
  -25.4593  -24.3861   19.7710 H   0  0  0  0  0  0
  -25.2008  -24.2076   21.4768 H   0  0  0  0  0  0
  -22.5434  -29.6045   23.6466 H   0  0  0  0  0  0
  -22.5124  -30.5444   22.2902 H   0  0  0  0  0  0
  -27.5665  -16.4498   20.4299 H   0  0  0  0  0  0
  -22.8929  -24.6933   21.3230 H   0  0  0  0  0  0
  1 25  1  0  0  0
  1 30  2  0  0  0
  1 85  1  0  0  0
  2  3  1  0  0  0
  2 25  1  0  0  0
  2 87  1  0  0  0
  2 88  1  0  0  0
  3  4  1  0  0  0
  3 89  1  0  0  0
  3 90  1  0  0  0
  4  5  1  0  0  0
  4 91  1  0  0  0
  4 92  1  0  0  0
  5  6  1  0  0  0
  5 26  1  0  0  0
  5 93  1  0  0  0
  6 25  1  0  0  0
  6 94  1  0  0  0
  6 95  1  0  0  0
  7  8  2  0  0  0
  7 26  1  0  0  0
  7 29  1  0  0  0
  8  9  1  0  0  0
  8 22  1  0  0  0
  9 10  1  0  0  0
  9 27  2  0  0  0
 10 11  2  0  0  0
 10 15  1  0  0  0
 11 12  1  0  0  0
 11 96  1  0  0  0
 12 13  2  0  0  0
 12 97  1  0  0  0
 13 14  1  0  0  0
 13 31  1  0  0  0
 14 15  2  0  0  0
 14 98  1  0  0  0
 15 99  1  0  0  0
 16 17  2  0  0  0
 16 21  1  0  0  0
 16 31  1  0  0  0
 17 18  1  0  0  0
 17100  1  0  0  0
 18 19  2  0  0  0
 18101  1  0  0  0
 19 20  1  0  0  0
 19 24  1  0  0  0
 20 21  2  0  0  0
 20102  1  0  0  0
 21 23  1  0  0  0
 22 28  1  0  0  0
 22 32  2  0  0  0
 26 27  1  0  0  0
 28103  1  0  0  0
 28104  1  0  0  0
 29105  1  0  0  0
 29106  1  0  0  0
 33 34  1  0  0  0
 33 66  1  0  0  0
 33 70  2  0  0  0
 34 36  1  0  0  0
 34 59  1  0  0  0
 34107  1  0  0  0
 35 44  2  0  0  0
 35 45  1  0  0  0
 35 68  1  0  0  0
 36 56  1  0  0  0
 36108  1  0  0  0
 37 39  1  0  0  0
 37 47  1  0  0  0
 37 66  1  0  0  0
 37109  1  0  0  0
 38 43  2  0  0  0
 38 46  1  0  0  0
 38 47  1  0  0  0
 39 64  1  0  0  0
 39 67  2  0  0  0
 40 52  1  0  0  0
 40 53  2  0  0  0
 40 58  1  0  0  0
 41110  1  0  0  0
 41111  1  0  0  0
 41112  1  0  0  0
 41 48  1  0  0  0
 42 43  1  0  0  0
 42 66  1  0  0  0
 42113  1  0  0  0
 42114  1  0  0  0
 43 44  1  0  0  0
 44115  1  0  0  0
 45 46  2  0  0  0
 45116  1  0  0  0
 46117  1  0  0  0
 47118  1  0  0  0
 47119  1  0  0  0
 48 56  1  0  0  0
 48 65  1  0  0  0
 48120  1  0  0  0
 49 50  1  0  0  0
 49 53  1  0  0  0
 49 64  1  0  0  0
 49121  1  0  0  0
 50 51  1  0  0  0
 50122  1  0  0  0
 50123  1  0  0  0
 51 52  1  0  0  0
 51124  1  0  0  0
 51125  1  0  0  0
 52126  1  0  0  0
 52127  1  0  0  0
 53 54  1  0  0  0
 54 55  2  0  0  0
 54128  1  0  0  0
 55 57  1  0  0  0
 55129  1  0  0  0
 56 69  2  0  0  0
 57 58  2  0  0  0
 57130  1  0  0  0
 58131  1  0  0  0
 59 60  1  0  0  0
 59 61  1  0  0  0
 59 62  1  0  0  0
 60132  1  0  0  0
 60133  1  0  0  0
 60134  1  0  0  0
 61135  1  0  0  0
 61136  1  0  0  0
 61137  1  0  0  0
 62138  1  0  0  0
 62139  1  0  0  0
 62140  1  0  0  0
 63 65  1  0  0  0
 63141  1  0  0  0
 63142  1  0  0  0
 63143  1  0  0  0
 64144  1  0  0  0
 65145  1  0  0  0
 68 84  1  0  0  0
 71 72  2  0  0  0
 71 74  1  0  0  0
 71146  1  0  0  0
 72 76  1  0  0  0
 72147  1  0  0  0
 73 75  1  0  0  0
 73 76  2  0  0  0
 73148  1  0  0  0
 74 75  2  0  0  0
 74 83  1  0  0  0
 75 82  1  0  0  0
 76 85  1  0  0  0
 77 78  2  0  0  0
 77 79  1  0  0  0
 77 86  1  0  0  0
 78 84  1  0  0  0
 78149  1  0  0  0
 79 80  1  0  0  0
 79150  1  0  0  0
 79151  1  0  0  0
 80 81  1  0  0  0
 80152  1  0  0  0
 80153  1  0  0  0
 81 86  1  0  0  0
 81154  1  0  0  0
 81155  1  0  0  0
 82156  1  0  0  0
 82157  1  0  0  0
 82158  1  0  0  0
 83159  1  0  0  0
 83160  1  0  0  0
 83 86  1  0  0  0
 84161  1  0  0  0
 84162  1  0  0  0
 85163  1  0  0  0
 86164  1  0  0  0
M  CHG  1  86   1
M  ISO  4   1 100  68 101  84 101  85 100
M  END
> <chiral flag>
0

> <version>
0

> <s_m_source_file>
/data/baiqing/PycharmProjects/Reinvent-master-3.2/result/LINK_invent/BTK/process_docking_weight1_custom_product_contain_oxygen_bond_distance_aromatic_linkinvent_7_9_3/rearranged_h_0034.sdf

> <i_m_source_file_index>
86

> <r_mmod_Potential_Energy-OPLS-2005>
16782.61328125

> <r_mmod_Stretch_Energy-OPLS-2005>
6246.5146484375

> <r_mmod_Bend_Energy-OPLS-2005>
2077.19140625

> <r_mmod_Torsional_Energy-OPLS-2005>
679.650634765625

> <r_mmod_Improper_Torsional_Energy-OPLS-2005>
113.85196685791

> <r_mmod_Van_der_Waal_Energy-OPLS-2005>
2154.19750976562

> <r_mmod_Electrostatic_Energy-OPLS-2005>
-242.983154296875

> <r_mmod_Solvation_Energy-OPLS-2005>
-449.32568359375

> <b_mmod_Minimization_Converged-OPLS-2005>
0

> <r_mmod_RMS_Derivative-OPLS-2005>
7.3353099822998

$$$$
86
                    3D
 Structure written by MMmdl.
163172  0  0  1  0            999 V2000
  -30.6233  -14.6305   20.5131 C   0  0  0  0  0  0
  -30.4427  -12.3880   19.4513 C   0  0  0  0  0  0
  -29.5110  -12.5001   18.2242 C   0  0  0  0  0  0
  -28.0335  -12.3415   18.6370 C   0  0  0  0  0  0
  -27.6559  -13.2121   19.8657 C   0  0  2  0  0  0
  -28.7004  -13.0591   20.9937 C   0  0  0  0  0  0
  -25.2571  -13.8156   20.5658 C   0  0  0  0  0  0
  -24.1829  -13.0423   20.9153 C   0  0  0  0  0  0
  -24.6399  -11.6898   20.8722 C   0  0  0  0  0  0
  -23.9067  -10.4288   21.0389 C   0  0  0  0  0  0
  -24.3611   -9.4213   21.9181 C   0  0  0  0  0  0
  -23.6276   -8.2254   22.0748 C   0  0  0  0  0  0
  -22.4267   -8.0290   21.3534 C   0  0  0  0  0  0
  -21.9887   -9.0270   20.4639 C   0  0  0  0  0  0
  -22.7220  -10.2145   20.3045 C   0  0  0  0  0  0
  -21.6857   -6.0733   22.5275 C   0  0  0  0  0  0
  -21.4032   -6.5640   23.8212 C   0  0  0  0  0  0
  -21.3648   -5.6783   24.9168 C   0  0  0  0  0  0
  -21.6031   -4.3050   24.7218 C   0  0  0  0  0  0
  -21.8828   -3.8141   23.4342 C   0  0  0  0  0  0
  -21.9195   -4.6955   22.3396 C   0  0  0  0  0  0
  -22.7863  -13.5240   21.1837 C   0  0  0  0  0  0
  -22.1663   -4.2138   21.0972 F   0  0  0  0  0  0
  -21.5603   -3.4537   25.7730 F   0  0  0  0  0  0
  -30.0191  -13.4035   20.4334 N   0  0  0  0  0  0
  -26.3004  -12.9333   20.3320 N   0  0  0  0  0  0
  -25.9335  -11.6497   20.5765 N   0  0  0  0  0  0
  -22.0487  -12.8255   22.0395 N   0  0  0  0  0  0
  -25.4278  -15.1881   20.4125 N   0  0  0  0  0  0
  -31.7810  -14.8090   20.1220 O   0  0  0  0  0  0
  -21.6638   -6.8881   21.4239 O   0  0  0  0  0  0
  -22.3555  -14.5544   20.6680 O   0  0  0  0  0  0
  -24.6250  -31.8618   23.2046 C   0  0  0  0  0  0
  -25.9106  -32.4780   23.8369 C   0  0  1  0  0  0
  -27.2269  -27.3315   20.1153 C   0  0  0  0  0  0
  -25.5928  -33.8582   24.2288 N   0  0  0  0  0  0
  -23.4178  -30.4868   21.5466 C   0  0  2  0  0  0
  -24.8642  -28.9472   20.1114 C   0  0  0  0  0  0
  -22.7473  -29.4633   22.4932 C   0  0  0  0  0  0
  -18.0296  -28.1382   22.8483 C   0  0  0  0  0  0
  -24.1479  -36.7285   23.2621 C   0  0  0  0  0  0
  -25.9585  -30.7978   21.3733 C   0  0  0  0  0  0
  -26.0332  -29.4270   20.7150 C   0  0  0  0  0  0
  -27.2157  -28.6311   20.7091 C   0  0  0  0  0  0
  -26.0283  -26.9044   19.4918 C   0  0  0  0  0  0
  -24.8636  -27.6908   19.4924 C   0  0  0  0  0  0
  -23.6320  -29.8265   20.1602 C   0  0  0  0  0  0
  -25.4087  -36.3067   24.0335 C   0  0  1  0  0  0
  -20.5892  -28.3687   23.1266 C   0  0  2  0  0  0
  -20.6778  -26.9409   22.5395 C   0  0  0  0  0  0
  -19.5752  -26.6381   21.5197 C   0  0  0  0  0  0
  -18.1937  -26.7920   22.1626 C   0  0  0  0  0  0
  -19.1546  -28.8851   23.2870 C   0  0  0  0  0  0
  -18.9476  -30.1442   23.8902 C   0  0  0  0  0  0
  -17.6475  -30.6575   24.0573 C   0  0  0  0  0  0
  -25.9058  -34.9450   23.5106 C   0  0  0  0  0  0
  -16.5363  -29.9083   23.6321 C   0  0  0  0  0  0
  -16.7283  -28.6501   23.0344 C   0  0  0  0  0  0
  -26.4494  -31.6587   25.0733 C   0  0  0  0  0  0
  -25.3738  -31.3746   26.1470 C   0  0  0  0  0  0
  -27.0331  -30.3012   24.6170 C   0  0  0  0  0  0
  -27.6054  -32.4334   25.7485 C   0  0  0  0  0  0
  -27.5605  -37.1720   24.8410 C   0  0  0  0  0  0
  -21.4188  -29.3037   22.3659 N   0  0  0  0  0  0
  -26.4227  -37.3797   23.9491 N   0  0  0  0  0  0
  -24.6856  -31.0651   22.0985 N   0  0  0  0  0  0
  -23.4204  -28.8167   23.3006 O   0  0  0  0  0  0
  -28.3611  -26.5034   20.1741 O   0  0  0  0  0  0
  -26.5638  -34.8926   22.4682 O   0  0  0  0  0  0
  -23.5417  -32.1406   23.7390 O   0  0  0  0  0  0
  -30.9661  -19.3233   20.5672 C   0  0  0  0  0  0
  -31.0236  -17.8967   20.5313 C   0  0  0  0  0  0
  -29.7855  -20.0478   20.9094 C   0  0  0  0  0  0
  -28.6317  -19.2503   21.1766 C   0  0  0  0  0  0
  -29.8824  -17.1106   20.8301 C   0  0  0  0  0  0
  -28.6946  -17.8239   21.1284 C   0  0  0  0  0  0
  -28.1269  -23.2836   18.1127 C   0  0  0  0  0  0
  -28.3869  -24.7706   18.4170 C   0  0  0  0  0  0
  -29.0947  -22.3589   18.8793 C   0  0  0  0  0  0
  -29.2011  -24.0604   20.6901 C   0  0  0  0  0  0
  -28.2256  -25.0498   19.9243 C   0  0  1  0  0  0
  -27.3064  -19.8780   21.5799 C   0  0  0  0  0  0
  -29.8602  -21.6109   21.1433 C   0  0  0  0  0  0
  -29.8037  -15.6542   20.8903 N   0  0  0  0  0  0
  -29.0104  -22.5837   20.3448 N   0  3  2  0  0  0
  -27.5794  -17.1026   21.4005 F   0  0  0  0  0  0
  -31.4833  -12.5226   19.1475 H   0  0  0  0  0  0
  -30.3847  -11.3919   19.8932 H   0  0  0  0  0  0
  -29.7725  -11.7422   17.4839 H   0  0  0  0  0  0
  -29.6555  -13.4676   17.7399 H   0  0  0  0  0  0
  -27.8721  -11.2877   18.8707 H   0  0  0  0  0  0
  -27.3799  -12.5672   17.7949 H   0  0  0  0  0  0
  -27.6747  -14.2478   19.5255 H   0  0  0  0  0  0
  -28.7121  -12.0361   21.3717 H   0  0  0  0  0  0
  -28.4426  -13.6835   21.8504 H   0  0  0  0  0  0
  -25.2761   -9.5678   22.4755 H   0  0  0  0  0  0
  -23.9973   -7.4647   22.7476 H   0  0  0  0  0  0
  -21.0805   -8.8809   19.8956 H   0  0  0  0  0  0
  -22.3695  -10.9689   19.6154 H   0  0  0  0  0  0
  -21.2067   -7.6150   23.9722 H   0  0  0  0  0  0
  -21.1436   -6.0506   25.9065 H   0  0  0  0  0  0
  -22.0613   -2.7598   23.2852 H   0  0  0  0  0  0
  -22.4098  -11.9920   22.4792 H   0  0  0  0  0  0
  -21.1115  -13.1326   22.2607 H   0  0  0  0  0  0
  -24.6718  -15.8432   20.5699 H   0  0  0  0  0  0
  -26.3092  -15.6480   20.2213 H   0  0  0  0  0  0
  -26.7172  -32.5458   23.1119 H   0  0  0  0  0  0
  -25.0052  -33.9730   25.0413 H   0  0  0  0  0  0
  -22.7100  -31.3063   21.4059 H   0  0  0  0  0  0
  -23.3775  -35.9571   23.3138 H   0  0  0  0  0  0
  -24.3616  -36.9057   22.2066 H   0  0  0  0  0  0
  -23.7170  -37.6416   23.6740 H   0  0  0  0  0  0
  -26.0890  -31.5633   20.6067 H   0  0  0  0  0  0
  -26.8384  -30.8455   22.0029 H   0  0  0  0  0  0
  -28.1098  -28.9966   21.1949 H   0  0  0  0  0  0
  -25.9457  -25.9478   19.0018 H   0  0  0  0  0  0
  -23.9679  -27.3154   19.0159 H   0  0  0  0  0  0
  -23.7507  -30.6055   19.4057 H   0  0  0  0  0  0
  -22.7515  -29.2581   19.8548 H   0  0  0  0  0  0
  -25.1228  -36.1873   25.0814 H   0  0  0  0  0  0
  -20.9987  -28.3268   24.1385 H   0  0  0  0  0  0
  -20.5650  -26.2314   23.3601 H   0  0  0  0  0  0
  -21.6654  -26.7420   22.1207 H   0  0  0  0  0  0
  -19.6913  -25.6292   21.1215 H   0  0  0  0  0  0
  -19.6670  -27.3197   20.6730 H   0  0  0  0  0  0
  -17.4192  -26.6647   21.4042 H   0  0  0  0  0  0
  -18.0355  -26.0062   22.9026 H   0  0  0  0  0  0
  -19.7949  -30.7254   24.2278 H   0  0  0  0  0  0
  -17.5031  -31.6244   24.5192 H   0  0  0  0  0  0
  -15.5367  -30.2996   23.7629 H   0  0  0  0  0  0
  -15.8684  -28.0817   22.7068 H   0  0  0  0  0  0
  -24.5919  -30.7065   25.7836 H   0  0  0  0  0  0
  -24.8924  -32.2927   26.4860 H   0  0  0  0  0  0
  -25.8081  -30.8975   27.0264 H   0  0  0  0  0  0
  -26.2897  -29.6755   24.1208 H   0  0  0  0  0  0
  -27.4056  -29.7273   25.4665 H   0  0  0  0  0  0
  -27.8756  -30.4306   23.9368 H   0  0  0  0  0  0
  -27.2656  -33.3635   26.2052 H   0  0  0  0  0  0
  -28.3853  -32.6892   25.0301 H   0  0  0  0  0  0
  -28.0721  -31.8471   26.5405 H   0  0  0  0  0  0
  -28.2397  -38.0234   24.7794 H   0  0  0  0  0  0
  -28.1318  -36.2806   24.5769 H   0  0  0  0  0  0
  -27.2404  -37.0794   25.8804 H   0  0  0  0  0  0
  -20.9371  -29.8785   21.6884 H   0  0  0  0  0  0
  -26.0077  -38.2801   24.1730 H   0  0  0  0  0  0
  -31.8801  -19.8686   20.3767 H   0  0  0  0  0  0
  -31.9654  -17.4178   20.3020 H   0  0  0  0  0  0
  -28.2237  -23.1061   17.0415 H   0  0  0  0  0  0
  -27.0958  -23.0317   18.3686 H   0  0  0  0  0  0
  -27.7173  -25.3899   17.8232 H   0  0  0  0  0  0
  -29.3959  -25.0416   18.1029 H   0  0  0  0  0  0
  -30.1195  -22.5248   18.5447 H   0  0  0  0  0  0
  -28.8531  -21.3203   18.6507 H   0  0  0  0  0  0
  -29.0654  -24.1939   21.7643 H   0  0  0  0  0  0
  -30.2343  -24.3422   20.4772 H   0  0  0  0  0  0
  -27.2299  -24.7433   20.2474 H   0  0  0  0  0  0
  -27.1919  -20.9004   21.2299 H   0  0  0  0  0  0
  -27.2067  -19.8729   22.6657 H   0  0  0  0  0  0
  -26.4708  -19.3116   21.1661 H   0  0  0  0  0  0
  -30.8987  -21.9154   21.0061 H   0  0  0  0  0  0
  -29.6550  -21.7828   22.2013 H   0  0  0  0  0  0
  -28.8904  -15.3323   21.1723 H   0  0  0  0  0  0
  -28.0605  -22.3606   20.6013 H   0  0  0  0  0  0
  1 25  1  0  0  0
  1 30  2  0  0  0
  1 84  1  0  0  0
  2  3  1  0  0  0
  2 25  1  0  0  0
  2 87  1  0  0  0
  2 88  1  0  0  0
  3  4  1  0  0  0
  3 89  1  0  0  0
  3 90  1  0  0  0
  4  5  1  0  0  0
  4 91  1  0  0  0
  4 92  1  0  0  0
  5  6  1  0  0  0
  5 26  1  0  0  0
  5 93  1  0  0  0
  6 25  1  0  0  0
  6 94  1  0  0  0
  6 95  1  0  0  0
  7  8  2  0  0  0
  7 26  1  0  0  0
  7 29  1  0  0  0
  8  9  1  0  0  0
  8 22  1  0  0  0
  9 10  1  0  0  0
  9 27  2  0  0  0
 10 11  2  0  0  0
 10 15  1  0  0  0
 11 12  1  0  0  0
 11 96  1  0  0  0
 12 13  2  0  0  0
 12 97  1  0  0  0
 13 14  1  0  0  0
 13 31  1  0  0  0
 14 15  2  0  0  0
 14 98  1  0  0  0
 15 99  1  0  0  0
 16 17  2  0  0  0
 16 21  1  0  0  0
 16 31  1  0  0  0
 17 18  1  0  0  0
 17100  1  0  0  0
 18 19  2  0  0  0
 18101  1  0  0  0
 19 20  1  0  0  0
 19 24  1  0  0  0
 20 21  2  0  0  0
 20102  1  0  0  0
 21 23  1  0  0  0
 22 28  1  0  0  0
 22 32  2  0  0  0
 26 27  1  0  0  0
 28103  1  0  0  0
 28104  1  0  0  0
 29105  1  0  0  0
 29106  1  0  0  0
 33 34  1  0  0  0
 33 66  1  0  0  0
 33 70  2  0  0  0
 34 36  1  0  0  0
 34 59  1  0  0  0
 34107  1  0  0  0
 35 44  2  0  0  0
 35 45  1  0  0  0
 35 68  1  0  0  0
 36 56  1  0  0  0
 36108  1  0  0  0
 37 39  1  0  0  0
 37 47  1  0  0  0
 37 66  1  0  0  0
 37109  1  0  0  0
 38 43  2  0  0  0
 38 46  1  0  0  0
 38 47  1  0  0  0
 39 64  1  0  0  0
 39 67  2  0  0  0
 40 52  1  0  0  0
 40 53  2  0  0  0
 40 58  1  0  0  0
 41110  1  0  0  0
 41111  1  0  0  0
 41112  1  0  0  0
 41 48  1  0  0  0
 42 43  1  0  0  0
 42 66  1  0  0  0
 42113  1  0  0  0
 42114  1  0  0  0
 43 44  1  0  0  0
 44115  1  0  0  0
 45 46  2  0  0  0
 45116  1  0  0  0
 46117  1  0  0  0
 47118  1  0  0  0
 47119  1  0  0  0
 48 56  1  0  0  0
 48 65  1  0  0  0
 48120  1  0  0  0
 49 50  1  0  0  0
 49 53  1  0  0  0
 49 64  1  0  0  0
 49121  1  0  0  0
 50 51  1  0  0  0
 50122  1  0  0  0
 50123  1  0  0  0
 51 52  1  0  0  0
 51124  1  0  0  0
 51125  1  0  0  0
 52126  1  0  0  0
 52127  1  0  0  0
 53 54  1  0  0  0
 54 55  2  0  0  0
 54128  1  0  0  0
 55 57  1  0  0  0
 55129  1  0  0  0
 56 69  2  0  0  0
 57 58  2  0  0  0
 57130  1  0  0  0
 58131  1  0  0  0
 59 60  1  0  0  0
 59 61  1  0  0  0
 59 62  1  0  0  0
 60132  1  0  0  0
 60133  1  0  0  0
 60134  1  0  0  0
 61135  1  0  0  0
 61136  1  0  0  0
 61137  1  0  0  0
 62138  1  0  0  0
 62139  1  0  0  0
 62140  1  0  0  0
 63 65  1  0  0  0
 63141  1  0  0  0
 63142  1  0  0  0
 63143  1  0  0  0
 64144  1  0  0  0
 65145  1  0  0  0
 68 81  1  0  0  0
 71 72  2  0  0  0
 71 73  1  0  0  0
 71146  1  0  0  0
 72 75  1  0  0  0
 72147  1  0  0  0
 73 74  2  0  0  0
 73 83  1  0  0  0
 74 76  1  0  0  0
 74 82  1  0  0  0
 75 76  2  0  0  0
 75 84  1  0  0  0
 76 86  1  0  0  0
 77 78  1  0  0  0
 77 79  1  0  0  0
 77148  1  0  0  0
 77149  1  0  0  0
 78 81  1  0  0  0
 78150  1  0  0  0
 78151  1  0  0  0
 79 85  1  0  0  0
 79152  1  0  0  0
 79153  1  0  0  0
 80 81  1  0  0  0
 80 85  1  0  0  0
 80154  1  0  0  0
 80155  1  0  0  0
 81156  1  0  0  0
 82157  1  0  0  0
 82158  1  0  0  0
 82159  1  0  0  0
 83160  1  0  0  0
 83161  1  0  0  0
 83 85  1  0  0  0
 84162  1  0  0  0
 85163  1  0  0  0
M  CHG  1  85   1
M  ISO  4   1 100  68 101  81 101  84 100
M  END
> <chiral flag>
0

> <version>
0

> <s_m_source_file>
/data/baiqing/PycharmProjects/Reinvent-master-3.2/result/LINK_invent/BTK/process_docking_weight1_custom_product_contain_oxygen_bond_distance_aromatic_linkinvent_7_9_3/rearranged_h_0034.sdf

> <i_m_source_file_index>
87

> <r_mmod_Potential_Energy-OPLS-2005>
-49.7778739929199

> <r_mmod_Stretch_Energy-OPLS-2005>
77.8927383422852

> <r_mmod_Bend_Energy-OPLS-2005>
148.509826660156

> <r_mmod_Torsional_Energy-OPLS-2005>
227.205535888672

> <r_mmod_Improper_Torsional_Energy-OPLS-2005>
4.65271377563477

> <r_mmod_Van_der_Waal_Energy-OPLS-2005>
148.754119873047

> <r_mmod_Electrostatic_Energy-OPLS-2005>
-274.738006591797

> <r_mmod_Solvation_Energy-OPLS-2005>
-426.570068359375

> <b_mmod_Minimization_Converged-OPLS-2005>
0

> <r_mmod_RMS_Derivative-OPLS-2005>
2.38056993484497

$$$$
87
                    3D
 Structure written by MMmdl.
159168  0  0  1  0            999 V2000
  -30.6448  -14.6640   20.4706 C   0  0  0  0  0  0
  -30.4214  -12.4070   19.4541 C   0  0  0  0  0  0
  -29.4998  -12.5012   18.2207 C   0  0  0  0  0  0
  -28.0234  -12.3452   18.6351 C   0  0  0  0  0  0
  -27.6418  -13.2301   19.8526 C   0  0  2  0  0  0
  -28.6887  -13.1319   20.9827 C   0  0  0  0  0  0
  -25.2494  -13.8196   20.5698 C   0  0  0  0  0  0
  -24.1787  -13.0438   20.9201 C   0  0  0  0  0  0
  -24.6384  -11.6919   20.8748 C   0  0  0  0  0  0
  -23.9065  -10.4295   21.0399 C   0  0  0  0  0  0
  -24.3616   -9.4208   21.9172 C   0  0  0  0  0  0
  -23.6294   -8.2240   22.0748 C   0  0  0  0  0  0
  -22.4274   -8.0274   21.3548 C   0  0  0  0  0  0
  -21.9909   -9.0243   20.4643 C   0  0  0  0  0  0
  -22.7238  -10.2123   20.3049 C   0  0  0  0  0  0
  -21.6854   -6.0721   22.5277 C   0  0  0  0  0  0
  -21.4011   -6.5630   23.8207 C   0  0  0  0  0  0
  -21.3664   -5.6786   24.9171 C   0  0  0  0  0  0
  -21.6046   -4.3047   24.7225 C   0  0  0  0  0  0
  -21.8821   -3.8136   23.4348 C   0  0  0  0  0  0
  -21.9194   -4.6949   22.3401 C   0  0  0  0  0  0
  -22.7809  -13.5205   21.1872 C   0  0  0  0  0  0
  -22.1661   -4.2129   21.0981 F   0  0  0  0  0  0
  -21.5635   -3.4537   25.7740 F   0  0  0  0  0  0
  -29.9935  -13.4597   20.3965 N   0  0  0  0  0  0
  -26.2929  -12.9407   20.3297 N   0  0  0  0  0  0
  -25.9314  -11.6552   20.5761 N   0  0  0  0  0  0
  -22.0477  -12.8181   22.0439 N   0  0  0  0  0  0
  -25.4179  -15.1919   20.4129 N   0  0  0  0  0  0
  -31.8355  -14.7483   20.1625 O   0  0  0  0  0  0
  -21.6645   -6.8862   21.4237 O   0  0  0  0  0  0
  -22.3487  -14.5512   20.6733 O   0  0  0  0  0  0
  -24.6252  -31.8570   23.1969 C   0  0  0  0  0  0
  -25.9101  -32.4765   23.8305 C   0  0  1  0  0  0
  -27.2321  -27.3196   20.1188 C   0  0  0  0  0  0
  -25.5934  -33.8568   24.2247 N   0  0  0  0  0  0
  -23.4194  -30.4777   21.5370 C   0  0  2  0  0  0
  -24.8639  -28.9205   20.1083 C   0  0  0  0  0  0
  -22.7476  -29.4602   22.4891 C   0  0  0  0  0  0
  -18.0291  -28.1393   22.8477 C   0  0  0  0  0  0
  -24.1490  -36.7273   23.2644 C   0  0  0  0  0  0
  -25.9555  -30.7916   21.3592 C   0  0  0  0  0  0
  -26.0273  -29.4154   20.7066 C   0  0  0  0  0  0
  -27.2093  -28.6253   20.6974 C   0  0  0  0  0  0
  -26.0421  -26.8562   19.5208 C   0  0  0  0  0  0
  -24.8718  -27.6473   19.5082 C   0  0  0  0  0  0
  -23.6334  -29.8035   20.1537 C   0  0  0  0  0  0
  -25.4116  -36.3068   24.0344 C   0  0  1  0  0  0
  -20.5885  -28.3682   23.1278 C   0  0  2  0  0  0
  -20.6765  -26.9397   22.5419 C   0  0  0  0  0  0
  -19.5757  -26.6373   21.5208 C   0  0  0  0  0  0
  -18.1929  -26.7941   22.1594 C   0  0  0  0  0  0
  -19.1544  -28.8854   23.2876 C   0  0  0  0  0  0
  -18.9469  -30.1452   23.8896 C   0  0  0  0  0  0
  -17.6468  -30.6591   24.0560 C   0  0  0  0  0  0
  -25.9058  -34.9449   23.5090 C   0  0  0  0  0  0
  -16.5357  -29.9099   23.6317 C   0  0  0  0  0  0
  -16.7281  -28.6520   23.0338 C   0  0  0  0  0  0
  -26.4485  -31.6608   25.0690 C   0  0  0  0  0  0
  -25.3735  -31.3779   26.1434 C   0  0  0  0  0  0
  -27.0311  -30.3041   24.6127 C   0  0  0  0  0  0
  -27.6055  -32.4344   25.7458 C   0  0  0  0  0  0
  -27.5583  -37.1782   24.8466 C   0  0  0  0  0  0
  -21.4185  -29.3040   22.3669 N   0  0  0  0  0  0
  -26.4279  -37.3775   23.9440 N   0  0  0  0  0  0
  -24.6862  -31.0603   22.0893 N   0  0  0  0  0  0
  -23.4216  -28.8140   23.2959 O   0  0  0  0  0  0
  -28.4084  -26.5674   20.1896 O   0  0  0  0  0  0
  -26.5598  -34.8915   22.4638 O   0  0  0  0  0  0
  -23.5419  -32.1338   23.7328 O   0  0  0  0  0  0
  -30.3533  -19.3368   19.4476 C   0  0  0  0  0  0
  -29.9437  -20.6715   19.1824 C   0  0  0  0  0  0
  -29.7541  -18.5382   20.4505 C   0  0  0  0  0  0
  -28.2353  -20.5042   20.8660 C   0  0  0  0  0  0
  -28.9025  -21.3273   19.8974 C   0  0  0  0  0  0
  -28.6648  -19.1492   21.1429 C   0  0  0  0  0  0
  -28.4878  -24.7663   18.3033 C   0  0  0  0  0  0
  -28.9965  -23.3079   18.3208 C   0  0  0  0  0  0
  -28.2703  -23.8317   20.5254 C   0  0  0  0  0  0
  -28.6488  -25.1687   19.7672 C   0  0  2  0  0  0
  -27.0277  -21.0760   21.6023 C   0  0  0  0  0  0
  -30.4648  -17.1919   20.8908 C   0  0  0  0  0  0
  -28.5520  -22.7032   19.5837 N   0  0  0  0  0  0
  -29.9051  -15.8000   20.7039 N   0  0  0  0  0  0
  -27.8916  -18.2230   22.3868 Cl  0  0  0  0  0  0
  -31.4656  -12.5122   19.1545 H   0  0  0  0  0  0
  -30.3424  -11.4242   19.9208 H   0  0  0  0  0  0
  -29.7658  -11.7370   17.4890 H   0  0  0  0  0  0
  -29.6425  -13.4623   17.7240 H   0  0  0  0  0  0
  -27.8587  -11.2946   18.8747 H   0  0  0  0  0  0
  -27.3690  -12.5668   17.7913 H   0  0  0  0  0  0
  -27.6440  -14.2586   19.4918 H   0  0  0  0  0  0
  -28.7078  -12.1283   21.4080 H   0  0  0  0  0  0
  -28.4415  -13.8081   21.8026 H   0  0  0  0  0  0
  -25.2763   -9.5676   22.4751 H   0  0  0  0  0  0
  -24.0001   -7.4621   22.7459 H   0  0  0  0  0  0
  -21.0845   -8.8753   19.8949 H   0  0  0  0  0  0
  -22.3689  -10.9657   19.6154 H   0  0  0  0  0  0
  -21.1999   -7.6142   23.9702 H   0  0  0  0  0  0
  -21.1488   -6.0521   25.9072 H   0  0  0  0  0  0
  -22.0598   -2.7600   23.2855 H   0  0  0  0  0  0
  -22.4115  -11.9840   22.4805 H   0  0  0  0  0  0
  -21.1091  -13.1183   22.2659 H   0  0  0  0  0  0
  -24.6514  -15.8448   20.5298 H   0  0  0  0  0  0
  -26.2693  -15.6400   20.1011 H   0  0  0  0  0  0
  -26.7161  -32.5423   23.1042 H   0  0  0  0  0  0
  -25.0220  -33.9730   25.0481 H   0  0  0  0  0  0
  -22.7136  -31.2973   21.3876 H   0  0  0  0  0  0
  -23.3770  -35.9584   23.3303 H   0  0  0  0  0  0
  -24.3612  -36.8882   22.2061 H   0  0  0  0  0  0
  -23.7194  -37.6464   23.6654 H   0  0  0  0  0  0
  -26.0813  -31.5514   20.5861 H   0  0  0  0  0  0
  -26.8402  -30.8443   21.9834 H   0  0  0  0  0  0
  -28.1076  -29.0062   21.1614 H   0  0  0  0  0  0
  -25.9910  -25.8716   19.0853 H   0  0  0  0  0  0
  -23.9734  -27.2583   19.0488 H   0  0  0  0  0  0
  -23.7579  -30.5765   19.3941 H   0  0  0  0  0  0
  -22.7532  -29.2331   19.8505 H   0  0  0  0  0  0
  -25.1283  -36.1910   25.0833 H   0  0  0  0  0  0
  -20.9989  -28.3245   24.1392 H   0  0  0  0  0  0
  -20.5613  -26.2295   23.3625 H   0  0  0  0  0  0
  -21.6642  -26.7389   22.1241 H   0  0  0  0  0  0
  -19.6923  -25.6283   21.1248 H   0  0  0  0  0  0
  -19.6736  -27.3175   20.6740 H   0  0  0  0  0  0
  -17.4212  -26.6716   21.3977 H   0  0  0  0  0  0
  -18.0293  -26.0070   22.8965 H   0  0  0  0  0  0
  -19.7954  -30.7253   24.2266 H   0  0  0  0  0  0
  -17.5039  -31.6272   24.5163 H   0  0  0  0  0  0
  -15.5360  -30.2998   23.7676 H   0  0  0  0  0  0
  -15.8673  -28.0848   22.7050 H   0  0  0  0  0  0
  -24.6018  -30.6956   25.7847 H   0  0  0  0  0  0
  -24.8775  -32.2928   26.4692 H   0  0  0  0  0  0
  -25.8092  -30.9178   27.0307 H   0  0  0  0  0  0
  -26.2854  -29.6805   24.1169 H   0  0  0  0  0  0
  -27.4041  -29.7297   25.4613 H   0  0  0  0  0  0
  -27.8707  -30.4359   23.9300 H   0  0  0  0  0  0
  -27.2722  -33.3724   26.1920 H   0  0  0  0  0  0
  -28.3933  -32.6766   25.0313 H   0  0  0  0  0  0
  -28.0623  -31.8515   26.5466 H   0  0  0  0  0  0
  -28.2574  -38.0102   24.7535 H   0  0  0  0  0  0
  -28.1085  -36.2634   24.6230 H   0  0  0  0  0  0
  -27.2322  -37.1346   25.8869 H   0  0  0  0  0  0
  -20.9342  -29.8807   21.6928 H   0  0  0  0  0  0
  -26.0158  -38.2837   24.1479 H   0  0  0  0  0  0
  -31.1978  -18.9480   18.8951 H   0  0  0  0  0  0
  -30.4911  -21.1963   18.4141 H   0  0  0  0  0  0
  -27.4489  -24.7907   17.9827 H   0  0  0  0  0  0
  -29.0611  -25.4043   17.6295 H   0  0  0  0  0  0
  -30.0885  -23.3214   18.2950 H   0  0  0  0  0  0
  -28.6511  -22.7490   17.4504 H   0  0  0  0  0  0
  -27.2143  -23.8397   20.7973 H   0  0  0  0  0  0
  -28.8499  -23.7211   21.4438 H   0  0  0  0  0  0
  -29.7339  -25.1847   19.8894 H   0  0  0  0  0  0
  -26.4104  -21.6549   20.9145 H   0  0  0  0  0  0
  -27.3530  -21.7274   22.4135 H   0  0  0  0  0  0
  -26.3700  -20.3137   22.0186 H   0  0  0  0  0  0
  -30.6603  -17.2935   21.9593 H   0  0  0  0  0  0
  -31.4600  -17.2172   20.4441 H   0  0  0  0  0  0
  -28.9207  -15.6770   20.8834 H   0  0  0  0  0  0
  1 25  1  0  0  0
  1 30  2  0  0  0
  1 84  1  0  0  0
  2  3  1  0  0  0
  2 25  1  0  0  0
  2 86  1  0  0  0
  2 87  1  0  0  0
  3  4  1  0  0  0
  3 88  1  0  0  0
  3 89  1  0  0  0
  4  5  1  0  0  0
  4 90  1  0  0  0
  4 91  1  0  0  0
  5  6  1  0  0  0
  5 26  1  0  0  0
  5 92  1  0  0  0
  6 25  1  0  0  0
  6 93  1  0  0  0
  6 94  1  0  0  0
  7  8  2  0  0  0
  7 26  1  0  0  0
  7 29  1  0  0  0
  8  9  1  0  0  0
  8 22  1  0  0  0
  9 10  1  0  0  0
  9 27  2  0  0  0
 10 11  2  0  0  0
 10 15  1  0  0  0
 11 12  1  0  0  0
 11 95  1  0  0  0
 12 13  2  0  0  0
 12 96  1  0  0  0
 13 14  1  0  0  0
 13 31  1  0  0  0
 14 15  2  0  0  0
 14 97  1  0  0  0
 15 98  1  0  0  0
 16 17  2  0  0  0
 16 21  1  0  0  0
 16 31  1  0  0  0
 17 18  1  0  0  0
 17 99  1  0  0  0
 18 19  2  0  0  0
 18100  1  0  0  0
 19 20  1  0  0  0
 19 24  1  0  0  0
 20 21  2  0  0  0
 20101  1  0  0  0
 21 23  1  0  0  0
 22 28  1  0  0  0
 22 32  2  0  0  0
 26 27  1  0  0  0
 28102  1  0  0  0
 28103  1  0  0  0
 29104  1  0  0  0
 29105  1  0  0  0
 33 34  1  0  0  0
 33 66  1  0  0  0
 33 70  2  0  0  0
 34 36  1  0  0  0
 34 59  1  0  0  0
 34106  1  0  0  0
 35 44  2  0  0  0
 35 45  1  0  0  0
 35 68  1  0  0  0
 36 56  1  0  0  0
 36107  1  0  0  0
 37 39  1  0  0  0
 37 47  1  0  0  0
 37 66  1  0  0  0
 37108  1  0  0  0
 38 43  2  0  0  0
 38 46  1  0  0  0
 38 47  1  0  0  0
 39 64  1  0  0  0
 39 67  2  0  0  0
 40 52  1  0  0  0
 40 53  2  0  0  0
 40 58  1  0  0  0
 41109  1  0  0  0
 41110  1  0  0  0
 41111  1  0  0  0
 41 48  1  0  0  0
 42 43  1  0  0  0
 42 66  1  0  0  0
 42112  1  0  0  0
 42113  1  0  0  0
 43 44  1  0  0  0
 44114  1  0  0  0
 45 46  2  0  0  0
 45115  1  0  0  0
 46116  1  0  0  0
 47117  1  0  0  0
 47118  1  0  0  0
 48 56  1  0  0  0
 48 65  1  0  0  0
 48119  1  0  0  0
 49 50  1  0  0  0
 49 53  1  0  0  0
 49 64  1  0  0  0
 49120  1  0  0  0
 50 51  1  0  0  0
 50121  1  0  0  0
 50122  1  0  0  0
 51 52  1  0  0  0
 51123  1  0  0  0
 51124  1  0  0  0
 52125  1  0  0  0
 52126  1  0  0  0
 53 54  1  0  0  0
 54 55  2  0  0  0
 54127  1  0  0  0
 55 57  1  0  0  0
 55128  1  0  0  0
 56 69  2  0  0  0
 57 58  2  0  0  0
 57129  1  0  0  0
 58130  1  0  0  0
 59 60  1  0  0  0
 59 61  1  0  0  0
 59 62  1  0  0  0
 60131  1  0  0  0
 60132  1  0  0  0
 60133  1  0  0  0
 61134  1  0  0  0
 61135  1  0  0  0
 61136  1  0  0  0
 62137  1  0  0  0
 62138  1  0  0  0
 62139  1  0  0  0
 63 65  1  0  0  0
 63140  1  0  0  0
 63141  1  0  0  0
 63142  1  0  0  0
 64143  1  0  0  0
 65144  1  0  0  0
 68 80  1  0  0  0
 71 72  2  0  0  0
 71 73  1  0  0  0
 71145  1  0  0  0
 72 75  1  0  0  0
 72146  1  0  0  0
 73 76  2  0  0  0
 73 82  1  0  0  0
 74 75  2  0  0  0
 74 76  1  0  0  0
 74 81  1  0  0  0
 75 83  1  0  0  0
 76 85  1  0  0  0
 77 78  1  0  0  0
 77 80  1  0  0  0
 77147  1  0  0  0
 77148  1  0  0  0
 78 83  1  0  0  0
 78149  1  0  0  0
 78150  1  0  0  0
 79 80  1  0  0  0
 79 83  1  0  0  0
 79151  1  0  0  0
 79152  1  0  0  0
 80153  1  0  0  0
 81154  1  0  0  0
 81155  1  0  0  0
 81156  1  0  0  0
 82 84  1  0  0  0
 82157  1  0  0  0
 82158  1  0  0  0
 84159  1  0  0  0
M  ISO  4   1 100  68 101  80 101  84 100
M  END
> <chiral flag>
0

> <version>
0

> <s_m_source_file>
/data/baiqing/PycharmProjects/Reinvent-master-3.2/result/LINK_invent/BTK/process_docking_weight1_custom_product_contain_oxygen_bond_distance_aromatic_linkinvent_7_9_3/rearranged_h_0034.sdf

> <i_m_source_file_index>
88

> <r_mmod_Potential_Energy-OPLS-2005>
164.372970581055

> <r_mmod_Stretch_Energy-OPLS-2005>
85.9247360229492

> <r_mmod_Bend_Energy-OPLS-2005>
251.998199462891

> <r_mmod_Torsional_Energy-OPLS-2005>
246.861145019531

> <r_mmod_Improper_Torsional_Energy-OPLS-2005>
7.39066886901855

> <r_mmod_Van_der_Waal_Energy-OPLS-2005>
143.158874511719

> <r_mmod_Electrostatic_Energy-OPLS-2005>
-408.396697998047

> <r_mmod_Solvation_Energy-OPLS-2005>
-214.904220581055

> <b_mmod_Minimization_Converged-OPLS-2005>
0

> <r_mmod_RMS_Derivative-OPLS-2005>
2.35381102561951

$$$$
88
                    3D
 Structure written by MMmdl.
167176  0  0  1  0            999 V2000
  -30.5899  -14.7652   20.4545 C   0  0  0  0  0  0
  -30.4496  -12.4647   19.4624 C   0  0  0  0  0  0
  -29.5124  -12.4820   18.2358 C   0  0  0  0  0  0
  -28.0420  -12.3006   18.6635 C   0  0  0  0  0  0
  -27.6405  -13.2231   19.8443 C   0  0  2  0  0  0
  -28.6909  -13.1736   20.9737 C   0  0  0  0  0  0
  -25.2525  -13.8205   20.5741 C   0  0  0  0  0  0
  -24.1798  -13.0456   20.9235 C   0  0  0  0  0  0
  -24.6385  -11.6929   20.8788 C   0  0  0  0  0  0
  -23.9068  -10.4312   21.0454 C   0  0  0  0  0  0
  -24.3609   -9.4207   21.9207 C   0  0  0  0  0  0
  -23.6288   -8.2236   22.0750 C   0  0  0  0  0  0
  -22.4268   -8.0289   21.3536 C   0  0  0  0  0  0
  -21.9917   -9.0279   20.4642 C   0  0  0  0  0  0
  -22.7261  -10.2163   20.3071 C   0  0  0  0  0  0
  -21.6856   -6.0723   22.5268 C   0  0  0  0  0  0
  -21.4031   -6.5622   23.8199 C   0  0  0  0  0  0
  -21.3656   -5.6776   24.9156 C   0  0  0  0  0  0
  -21.6049   -4.3039   24.7220 C   0  0  0  0  0  0
  -21.8814   -3.8133   23.4339 C   0  0  0  0  0  0
  -21.9201   -4.6953   22.3397 C   0  0  0  0  0  0
  -22.7816  -13.5229   21.1912 C   0  0  0  0  0  0
  -22.1657   -4.2128   21.0978 F   0  0  0  0  0  0
  -21.5634   -3.4529   25.7737 F   0  0  0  0  0  0
  -29.9826  -13.5330   20.3728 N   0  0  0  0  0  0
  -26.2931  -12.9376   20.3289 N   0  0  0  0  0  0
  -25.9305  -11.6533   20.5793 N   0  0  0  0  0  0
  -22.0453  -12.8193   22.0457 N   0  0  0  0  0  0
  -25.4278  -15.1940   20.4181 N   0  0  0  0  0  0
  -31.7998  -14.8724   20.2389 O   0  0  0  0  0  0
  -21.6633   -6.8885   21.4227 O   0  0  0  0  0  0
  -22.3489  -14.5534   20.6787 O   0  0  0  0  0  0
  -24.6333  -31.8483   23.1908 C   0  0  0  0  0  0
  -25.9166  -32.4711   23.8268 C   0  0  1  0  0  0
  -27.2150  -27.2348   20.1284 C   0  0  0  0  0  0
  -25.5938  -33.8507   24.2179 N   0  0  0  0  0  0
  -23.4273  -30.4793   21.5307 C   0  0  2  0  0  0
  -24.8719  -28.9111   20.1025 C   0  0  0  0  0  0
  -22.7507  -29.4600   22.4776 C   0  0  0  0  0  0
  -18.0311  -28.1384   22.8446 C   0  0  0  0  0  0
  -24.1502  -36.7270   23.2654 C   0  0  0  0  0  0
  -25.9730  -30.7584   21.3659 C   0  0  0  0  0  0
  -26.0417  -29.3755   20.7130 C   0  0  0  0  0  0
  -27.2127  -28.5506   20.7113 C   0  0  0  0  0  0
  -26.0183  -26.8339   19.4987 C   0  0  0  0  0  0
  -24.8663  -27.6484   19.4861 C   0  0  0  0  0  0
  -23.6473  -29.8100   20.1450 C   0  0  0  0  0  0
  -25.4116  -36.3013   24.0320 C   0  0  1  0  0  0
  -20.5918  -28.3719   23.1192 C   0  0  2  0  0  0
  -20.6810  -26.9417   22.5362 C   0  0  0  0  0  0
  -19.5799  -26.6360   21.5174 C   0  0  0  0  0  0
  -18.1975  -26.7918   22.1584 C   0  0  0  0  0  0
  -19.1576  -28.8849   23.2841 C   0  0  0  0  0  0
  -18.9525  -30.1442   23.8870 C   0  0  0  0  0  0
  -17.6542  -30.6583   24.0568 C   0  0  0  0  0  0
  -25.9071  -34.9408   23.5046 C   0  0  0  0  0  0
  -16.5416  -29.9104   23.6327 C   0  0  0  0  0  0
  -16.7310  -28.6528   23.0325 C   0  0  0  0  0  0
  -26.4512  -31.6573   25.0697 C   0  0  0  0  0  0
  -25.3742  -31.3768   26.1437 C   0  0  0  0  0  0
  -27.0374  -30.3000   24.6165 C   0  0  0  0  0  0
  -27.6034  -32.4335   25.7477 C   0  0  0  0  0  0
  -27.5573  -37.1765   24.8468 C   0  0  0  0  0  0
  -21.4202  -29.3069   22.3566 N   0  0  0  0  0  0
  -26.4278  -37.3720   23.9424 N   0  0  0  0  0  0
  -24.6995  -31.0464   22.0868 N   0  0  0  0  0  0
  -23.4235  -28.8128   23.2836 O   0  0  0  0  0  0
  -28.3350  -26.3678   20.2079 O   0  0  0  0  0  0
  -26.5649  -34.8892   22.4613 O   0  0  0  0  0  0
  -23.5487  -32.1297   23.7200 O   0  0  0  0  0  0
  -29.3280  -18.4462   20.3440 C   0  0  0  0  0  0
  -29.1451  -19.7567   20.9588 C   0  0  0  0  0  0
  -29.4489  -19.8180   22.3477 C   0  0  0  0  0  0
  -30.0493  -18.7131   23.0236 C   0  0  0  0  0  0
  -30.2087  -17.4429   22.3920 C   0  0  0  0  0  0
  -29.8288  -17.2574   21.0307 C   0  0  0  0  0  0
  -29.9904  -23.0227   19.4623 C   0  0  0  0  0  0
  -30.8902  -22.2784   18.7948 C   0  0  0  0  0  0
  -29.8269  -24.5468   19.4011 C   0  0  0  0  0  0
  -27.9875  -23.6481   20.6186 C   0  0  0  0  0  0
  -28.3767  -24.9265   19.7358 C   0  0  1  0  0  0
  -29.0440  -21.0419   23.1665 C   0  0  0  0  0  0
  -30.4670  -18.8928   24.4886 C   0  0  0  0  0  0
  -30.7186  -16.2484   23.2085 C   0  0  0  0  0  0
  -28.4610  -21.0267   20.2242 C   0  0  0  0  0  0
  -29.7507  -15.8791   20.4625 N   0  0  0  0  0  0
  -28.9728  -22.4853   20.4144 N   0  3  2  0  0  0
  -31.4831  -12.6173   19.1478 H   0  0  0  0  0  0
  -30.4275  -11.4969   19.9633 H   0  0  0  0  0  0
  -29.7984  -11.6955   17.5366 H   0  0  0  0  0  0
  -29.6252  -13.4257   17.7003 H   0  0  0  0  0  0
  -27.9183  -11.2583   18.9600 H   0  0  0  0  0  0
  -27.3770  -12.4566   17.8136 H   0  0  0  0  0  0
  -27.6299  -14.2361   19.4420 H   0  0  0  0  0  0
  -28.7376  -12.1825   21.4271 H   0  0  0  0  0  0
  -28.4264  -13.8711   21.7705 H   0  0  0  0  0  0
  -25.2762   -9.5662   22.4772 H   0  0  0  0  0  0
  -23.9997   -7.4613   22.7438 H   0  0  0  0  0  0
  -21.0855   -8.8821   19.8928 H   0  0  0  0  0  0
  -22.3750  -10.9705   19.6159 H   0  0  0  0  0  0
  -21.2017   -7.6131   23.9707 H   0  0  0  0  0  0
  -21.1486   -6.0501   25.9067 H   0  0  0  0  0  0
  -22.0606   -2.7592   23.2852 H   0  0  0  0  0  0
  -22.4040  -11.9806   22.4775 H   0  0  0  0  0  0
  -21.1079  -13.1219   22.2695 H   0  0  0  0  0  0
  -24.6773  -15.8637   20.5535 H   0  0  0  0  0  0
  -26.2888  -15.6351   20.1225 H   0  0  0  0  0  0
  -26.7215  -32.5313   23.0985 H   0  0  0  0  0  0
  -25.0076  -33.9607   25.0329 H   0  0  0  0  0  0
  -22.7246  -31.3044   21.3800 H   0  0  0  0  0  0
  -23.3739  -35.9640   23.3285 H   0  0  0  0  0  0
  -24.3619  -36.8924   22.2083 H   0  0  0  0  0  0
  -23.7281  -37.6475   23.6699 H   0  0  0  0  0  0
  -26.1096  -31.5125   20.5899 H   0  0  0  0  0  0
  -26.8530  -30.8062   21.9971 H   0  0  0  0  0  0
  -28.1098  -28.9012   21.2005 H   0  0  0  0  0  0
  -25.9338  -25.8648   19.0308 H   0  0  0  0  0  0
  -23.9675  -27.2861   19.0068 H   0  0  0  0  0  0
  -23.7804  -30.5909   19.3936 H   0  0  0  0  0  0
  -22.7598  -29.2619   19.8299 H   0  0  0  0  0  0
  -25.1283  -36.1841   25.0809 H   0  0  0  0  0  0
  -21.0049  -28.3324   24.1297 H   0  0  0  0  0  0
  -20.5687  -26.2336   23.3584 H   0  0  0  0  0  0
  -21.6688  -26.7393   22.1190 H   0  0  0  0  0  0
  -19.6997  -25.6268   21.1219 H   0  0  0  0  0  0
  -19.6771  -27.3142   20.6686 H   0  0  0  0  0  0
  -17.4244  -26.6636   21.4000 H   0  0  0  0  0  0
  -18.0423  -26.0061   22.8982 H   0  0  0  0  0  0
  -19.8034  -30.7240   24.2227 H   0  0  0  0  0  0
  -17.5134  -31.6271   24.5175 H   0  0  0  0  0  0
  -15.5436  -30.3037   23.7662 H   0  0  0  0  0  0
  -15.8702  -28.0867   22.7022 H   0  0  0  0  0  0
  -24.5921  -30.7077   25.7806 H   0  0  0  0  0  0
  -24.8956  -32.2988   26.4774 H   0  0  0  0  0  0
  -25.8094  -30.9050   27.0261 H   0  0  0  0  0  0
  -26.2966  -29.6709   24.1206 H   0  0  0  0  0  0
  -27.4152  -29.7257   25.4636 H   0  0  0  0  0  0
  -27.8779  -30.4299   23.9331 H   0  0  0  0  0  0
  -27.2590  -33.3655   26.1949 H   0  0  0  0  0  0
  -28.3898  -32.6840   25.0352 H   0  0  0  0  0  0
  -28.0619  -31.8533   26.5491 H   0  0  0  0  0  0
  -28.2503  -38.0122   24.7479 H   0  0  0  0  0  0
  -28.1113  -36.2628   24.6284 H   0  0  0  0  0  0
  -27.2291  -37.1390   25.8867 H   0  0  0  0  0  0
  -20.9379  -29.8883   21.6848 H   0  0  0  0  0  0
  -26.0136  -38.2783   24.1482 H   0  0  0  0  0  0
  -29.0157  -18.3328   19.3124 H   0  0  0  0  0  0
  -31.6006  -22.7406   18.1240 H   0  0  0  0  0  0
  -30.9516  -21.2042   18.8992 H   0  0  0  0  0  0
  -30.1278  -24.9428   18.4311 H   0  0  0  0  0  0
  -30.4993  -24.9718   20.1462 H   0  0  0  0  0  0
  -26.9611  -23.3470   20.4080 H   0  0  0  0  0  0
  -28.0257  -23.9273   21.6699 H   0  0  0  0  0  0
  -27.8289  -24.8497   18.7979 H   0  0  0  0  0  0
  -29.8724  -21.7415   23.2877 H   0  0  0  0  0  0
  -28.6835  -20.7549   24.1558 H   0  0  0  0  0  0
  -28.1933  -21.5630   22.7357 H   0  0  0  0  0  0
  -30.7306  -19.9226   24.7320 H   0  0  0  0  0  0
  -31.3591  -18.3203   24.7450 H   0  0  0  0  0  0
  -29.6524  -18.5882   25.1471 H   0  0  0  0  0  0
  -30.6530  -16.3774   24.2851 H   0  0  0  0  0  0
  -31.7586  -16.0450   22.9509 H   0  0  0  0  0  0
  -30.1334  -15.3469   23.0312 H   0  0  0  0  0  0
  -27.4255  -21.0139   20.5624 H   0  0  0  0  0  0
  -28.3852  -20.8233   19.1564 H   0  0  0  0  0  0
  -28.8159  -15.6286   20.1856 H   0  0  0  0  0  0
  -29.4315  -22.4209   21.3122 H   0  0  0  0  0  0
  1 25  1  0  0  0
  1 30  2  0  0  0
  1 86  1  0  0  0
  2  3  1  0  0  0
  2 25  1  0  0  0
  2 88  1  0  0  0
  2 89  1  0  0  0
  3  4  1  0  0  0
  3 90  1  0  0  0
  3 91  1  0  0  0
  4  5  1  0  0  0
  4 92  1  0  0  0
  4 93  1  0  0  0
  5  6  1  0  0  0
  5 26  1  0  0  0
  5 94  1  0  0  0
  6 25  1  0  0  0
  6 95  1  0  0  0
  6 96  1  0  0  0
  7  8  2  0  0  0
  7 26  1  0  0  0
  7 29  1  0  0  0
  8  9  1  0  0  0
  8 22  1  0  0  0
  9 10  1  0  0  0
  9 27  2  0  0  0
 10 11  2  0  0  0
 10 15  1  0  0  0
 11 12  1  0  0  0
 11 97  1  0  0  0
 12 13  2  0  0  0
 12 98  1  0  0  0
 13 14  1  0  0  0
 13 31  1  0  0  0
 14 15  2  0  0  0
 14 99  1  0  0  0
 15100  1  0  0  0
 16 17  2  0  0  0
 16 21  1  0  0  0
 16 31  1  0  0  0
 17 18  1  0  0  0
 17101  1  0  0  0
 18 19  2  0  0  0
 18102  1  0  0  0
 19 20  1  0  0  0
 19 24  1  0  0  0
 20 21  2  0  0  0
 20103  1  0  0  0
 21 23  1  0  0  0
 22 28  1  0  0  0
 22 32  2  0  0  0
 26 27  1  0  0  0
 28104  1  0  0  0
 28105  1  0  0  0
 29106  1  0  0  0
 29107  1  0  0  0
 33 34  1  0  0  0
 33 66  1  0  0  0
 33 70  2  0  0  0
 34 36  1  0  0  0
 34 59  1  0  0  0
 34108  1  0  0  0
 35 44  2  0  0  0
 35 45  1  0  0  0
 35 68  1  0  0  0
 36 56  1  0  0  0
 36109  1  0  0  0
 37 39  1  0  0  0
 37 47  1  0  0  0
 37 66  1  0  0  0
 37110  1  0  0  0
 38 43  2  0  0  0
 38 46  1  0  0  0
 38 47  1  0  0  0
 39 64  1  0  0  0
 39 67  2  0  0  0
 40 52  1  0  0  0
 40 53  2  0  0  0
 40 58  1  0  0  0
 41111  1  0  0  0
 41112  1  0  0  0
 41113  1  0  0  0
 41 48  1  0  0  0
 42 43  1  0  0  0
 42 66  1  0  0  0
 42114  1  0  0  0
 42115  1  0  0  0
 43 44  1  0  0  0
 44116  1  0  0  0
 45 46  2  0  0  0
 45117  1  0  0  0
 46118  1  0  0  0
 47119  1  0  0  0
 47120  1  0  0  0
 48 56  1  0  0  0
 48 65  1  0  0  0
 48121  1  0  0  0
 49 50  1  0  0  0
 49 53  1  0  0  0
 49 64  1  0  0  0
 49122  1  0  0  0
 50 51  1  0  0  0
 50123  1  0  0  0
 50124  1  0  0  0
 51 52  1  0  0  0
 51125  1  0  0  0
 51126  1  0  0  0
 52127  1  0  0  0
 52128  1  0  0  0
 53 54  1  0  0  0
 54 55  2  0  0  0
 54129  1  0  0  0
 55 57  1  0  0  0
 55130  1  0  0  0
 56 69  2  0  0  0
 57 58  2  0  0  0
 57131  1  0  0  0
 58132  1  0  0  0
 59 60  1  0  0  0
 59 61  1  0  0  0
 59 62  1  0  0  0
 60133  1  0  0  0
 60134  1  0  0  0
 60135  1  0  0  0
 61136  1  0  0  0
 61137  1  0  0  0
 61138  1  0  0  0
 62139  1  0  0  0
 62140  1  0  0  0
 62141  1  0  0  0
 63 65  1  0  0  0
 63142  1  0  0  0
 63143  1  0  0  0
 63144  1  0  0  0
 64145  1  0  0  0
 65146  1  0  0  0
 68 81  1  0  0  0
 71 72  2  0  0  0
 71 76  1  0  0  0
 71147  1  0  0  0
 72 73  1  0  0  0
 72 85  1  0  0  0
 73 74  2  0  0  0
 73 82  1  0  0  0
 74 75  1  0  0  0
 74 83  1  0  0  0
 75 76  2  0  0  0
 75 84  1  0  0  0
 76 86  1  0  0  0
 77 78  2  0  0  0
 77 79  1  0  0  0
 77 87  1  0  0  0
 78148  1  0  0  0
 78149  1  0  0  0
 79 81  1  0  0  0
 79150  1  0  0  0
 79151  1  0  0  0
 80 81  1  0  0  0
 80 87  1  0  0  0
 80152  1  0  0  0
 80153  1  0  0  0
 81154  1  0  0  0
 82155  1  0  0  0
 82156  1  0  0  0
 82157  1  0  0  0
 83158  1  0  0  0
 83159  1  0  0  0
 83160  1  0  0  0
 84161  1  0  0  0
 84162  1  0  0  0
 84163  1  0  0  0
 85164  1  0  0  0
 85165  1  0  0  0
 85 87  1  0  0  0
 86166  1  0  0  0
 87167  1  0  0  0
M  CHG  1  87   1
M  ISO  4   1 100  68 101  81 101  86 100
M  END
> <chiral flag>
0

> <version>
0

> <s_m_source_file>
/data/baiqing/PycharmProjects/Reinvent-master-3.2/result/LINK_invent/BTK/process_docking_weight1_custom_product_contain_oxygen_bond_distance_aromatic_linkinvent_7_9_3/rearranged_h_0034.sdf

> <i_m_source_file_index>
89

> <r_mmod_Potential_Energy-OPLS-2005>
165.131164550781

> <r_mmod_Stretch_Energy-OPLS-2005>
141.490356445312

> <r_mmod_Bend_Energy-OPLS-2005>
219.338806152344

> <r_mmod_Torsional_Energy-OPLS-2005>
279.530059814453

> <r_mmod_Improper_Torsional_Energy-OPLS-2005>
10.3496990203857

> <r_mmod_Van_der_Waal_Energy-OPLS-2005>
148.54264831543

> <r_mmod_Electrostatic_Energy-OPLS-2005>
-307.901611328125

> <r_mmod_Solvation_Energy-OPLS-2005>
-426.041931152344

> <b_mmod_Minimization_Converged-OPLS-2005>
0

> <r_mmod_RMS_Derivative-OPLS-2005>
4.45530033111572

$$$$
89
                    3D
 Structure written by MMmdl.
172181  0  0  1  0            999 V2000
  -30.7076  -14.5412   20.5426 C   0  0  0  0  0  0
  -30.4275  -12.3443   19.4374 C   0  0  0  0  0  0
  -29.5035  -12.5091   18.2137 C   0  0  0  0  0  0
  -28.0259  -12.3603   18.6253 C   0  0  0  0  0  0
  -27.6605  -13.2190   19.8662 C   0  0  2  0  0  0
  -28.7080  -13.0571   20.9931 C   0  0  0  0  0  0
  -25.2612  -13.8187   20.5698 C   0  0  0  0  0  0
  -24.1872  -13.0446   20.9185 C   0  0  0  0  0  0
  -24.6440  -11.6924   20.8741 C   0  0  0  0  0  0
  -23.9106  -10.4312   21.0410 C   0  0  0  0  0  0
  -24.3651   -9.4218   21.9184 C   0  0  0  0  0  0
  -23.6325   -8.2249   22.0746 C   0  0  0  0  0  0
  -22.4298   -8.0296   21.3542 C   0  0  0  0  0  0
  -21.9945   -9.0275   20.4638 C   0  0  0  0  0  0
  -22.7283  -10.2151   20.3050 C   0  0  0  0  0  0
  -21.6862   -6.0757   22.5297 C   0  0  0  0  0  0
  -21.4016   -6.5660   23.8227 C   0  0  0  0  0  0
  -21.3642   -5.6805   24.9183 C   0  0  0  0  0  0
  -21.6039   -4.3073   24.7228 C   0  0  0  0  0  0
  -21.8818   -3.8167   23.4353 C   0  0  0  0  0  0
  -21.9193   -4.6986   22.3410 C   0  0  0  0  0  0
  -22.7890  -13.5232   21.1857 C   0  0  0  0  0  0
  -22.1671   -4.2172   21.0986 F   0  0  0  0  0  0
  -21.5610   -3.4542   25.7737 F   0  0  0  0  0  0
  -30.0333  -13.3607   20.4297 N   0  0  0  0  0  0
  -26.3050  -12.9378   20.3342 N   0  0  0  0  0  0
  -25.9373  -11.6522   20.5765 N   0  0  0  0  0  0
  -22.0539  -12.8209   22.0406 N   0  0  0  0  0  0
  -25.4333  -15.1909   20.4122 N   0  0  0  0  0  0
  -31.8515  -14.6876   20.1054 O   0  0  0  0  0  0
  -21.6647   -6.8908   21.4256 O   0  0  0  0  0  0
  -22.3572  -14.5527   20.6698 O   0  0  0  0  0  0
  -24.6203  -31.8659   23.2113 C   0  0  0  0  0  0
  -25.9076  -32.4819   23.8413 C   0  0  1  0  0  0
  -27.2195  -27.3814   20.1072 C   0  0  0  0  0  0
  -25.5925  -33.8616   24.2345 N   0  0  0  0  0  0
  -23.4098  -30.4916   21.5537 C   0  0  2  0  0  0
  -24.8555  -28.9609   20.1105 C   0  0  0  0  0  0
  -22.7434  -29.4652   22.4985 C   0  0  0  0  0  0
  -18.0283  -28.1387   22.8508 C   0  0  0  0  0  0
  -24.1483  -36.7303   23.2641 C   0  0  0  0  0  0
  -25.9451  -30.8132   21.3743 C   0  0  0  0  0  0
  -26.0210  -29.4459   20.7186 C   0  0  0  0  0  0
  -27.2083  -28.6642   20.7178 C   0  0  0  0  0  0
  -26.0458  -26.9539   19.4447 C   0  0  0  0  0  0
  -24.8661  -27.7163   19.4659 C   0  0  0  0  0  0
  -23.6204  -29.8330   20.1659 C   0  0  0  0  0  0
  -25.4101  -36.3104   24.0353 C   0  0  1  0  0  0
  -20.5877  -28.3681   23.1316 C   0  0  2  0  0  0
  -20.6778  -26.9413   22.5418 C   0  0  0  0  0  0
  -19.5748  -26.6389   21.5230 C   0  0  0  0  0  0
  -18.1929  -26.7937   22.1634 C   0  0  0  0  0  0
  -19.1534  -28.8855   23.2911 C   0  0  0  0  0  0
  -18.9450  -30.1462   23.8913 C   0  0  0  0  0  0
  -17.6448  -30.6593   24.0575 C   0  0  0  0  0  0
  -25.9033  -34.9474   23.5144 C   0  0  0  0  0  0
  -16.5344  -29.9087   23.6335 C   0  0  0  0  0  0
  -16.7270  -28.6509   23.0354 C   0  0  0  0  0  0
  -26.4490  -31.6590   25.0739 C   0  0  0  0  0  0
  -25.3746  -31.3688   26.1474 C   0  0  0  0  0  0
  -27.0342  -30.3042   24.6126 C   0  0  0  0  0  0
  -27.6081  -32.4300   25.7486 C   0  0  0  0  0  0
  -27.5577  -37.1804   24.8463 C   0  0  0  0  0  0
  -21.4161  -29.3046   22.3720 N   0  0  0  0  0  0
  -26.4286  -37.3788   23.9416 N   0  0  0  0  0  0
  -24.6772  -31.0711   22.1045 N   0  0  0  0  0  0
  -23.4184  -28.8191   23.3048 O   0  0  0  0  0  0
  -28.3140  -26.5248   20.1781 O   0  0  0  0  0  0
  -26.5568  -34.8935   22.4685 O   0  0  0  0  0  0
  -23.5385  -32.1430   23.7478 O   0  0  0  0  0  0
  -29.4416  -17.6558   18.9663 C   0  0  0  0  0  0
  -28.8336  -18.5512   18.0797 C   0  0  0  0  0  0
  -29.8339  -18.0708   20.2492 C   0  0  0  0  0  0
  -29.6340  -19.4498   20.6129 C   0  0  0  0  0  0
  -28.9407  -20.3660   19.7400 C   0  0  0  0  0  0
  -28.5574  -19.8867   18.4481 C   0  0  0  0  0  0
  -29.0555  -24.1096   20.7169 C   0  0  0  0  0  0
  -26.0504  -20.5647   15.9372 C   0  0  0  0  0  0
  -27.2497  -21.2852   15.3253 C   0  0  0  0  0  0
  -26.4226  -20.3665   17.4138 C   0  0  0  0  0  0
  -28.4031  -20.7886   16.1859 C   0  0  0  0  0  0
  -30.1478  -19.9459   21.9608 C   0  0  0  0  0  0
  -28.8034  -23.4418   18.4239 C   0  0  0  0  0  0
  -30.4742  -17.0042   21.1790 C   0  0  0  0  0  0
  -28.4153  -21.7505   20.2730 C   0  0  0  0  0  0
  -27.9488  -25.2091   20.7070 C   0  0  0  0  0  0
  -27.8446  -20.6820   17.5336 N   0  0  0  0  0  0
  -30.0101  -15.5981   21.0217 N   0  0  0  0  0  0
  -28.9505  -23.0805   19.8309 N   0  0  0  0  0  0
  -29.8772  -24.0855   21.6384 O   0  0  0  0  0  0
  -31.4721  -12.4374   19.1349 H   0  0  0  0  0  0
  -30.3292  -11.3435   19.8626 H   0  0  0  0  0  0
  -29.7591  -11.7779   17.4456 H   0  0  0  0  0  0
  -29.6626  -13.4908   17.7658 H   0  0  0  0  0  0
  -27.8495  -11.3061   18.8402 H   0  0  0  0  0  0
  -27.3743  -12.6128   17.7876 H   0  0  0  0  0  0
  -27.6876  -14.2586   19.5388 H   0  0  0  0  0  0
  -28.7024  -12.0388   21.3846 H   0  0  0  0  0  0
  -28.4671  -13.7015   21.8399 H   0  0  0  0  0  0
  -25.2793   -9.5680   22.4761 H   0  0  0  0  0  0
  -24.0031   -7.4632   22.7458 H   0  0  0  0  0  0
  -21.0872   -8.8802   19.8954 H   0  0  0  0  0  0
  -22.3755  -10.9684   19.6154 H   0  0  0  0  0  0
  -21.2023   -7.6171   23.9743 H   0  0  0  0  0  0
  -21.1455   -6.0533   25.9087 H   0  0  0  0  0  0
  -22.0610   -2.7631   23.2846 H   0  0  0  0  0  0
  -22.4143  -11.9848   22.4767 H   0  0  0  0  0  0
  -21.1149  -13.1214   22.2599 H   0  0  0  0  0  0
  -24.6679  -15.8479   20.5181 H   0  0  0  0  0  0
  -26.2896  -15.6292   20.0974 H   0  0  0  0  0  0
  -26.7131  -32.5521   23.1167 H   0  0  0  0  0  0
  -25.0159  -33.9772   25.0549 H   0  0  0  0  0  0
  -22.7031  -31.3132   21.4194 H   0  0  0  0  0  0
  -23.3761  -35.9614   23.3291 H   0  0  0  0  0  0
  -24.3595  -36.8914   22.2054 H   0  0  0  0  0  0
  -23.7209  -37.6508   23.6646 H   0  0  0  0  0  0
  -26.0613  -31.5769   20.6036 H   0  0  0  0  0  0
  -26.8324  -30.8662   21.9945 H   0  0  0  0  0  0
  -28.0962  -29.0232   21.2186 H   0  0  0  0  0  0
  -26.0226  -26.0177   18.9067 H   0  0  0  0  0  0
  -23.9787  -27.3452   18.9714 H   0  0  0  0  0  0
  -23.7353  -30.6145   19.4135 H   0  0  0  0  0  0
  -22.7408  -29.2607   19.8651 H   0  0  0  0  0  0
  -25.1273  -36.1979   25.0847 H   0  0  0  0  0  0
  -20.9976  -28.3239   24.1437 H   0  0  0  0  0  0
  -20.5709  -26.2282   23.3606 H   0  0  0  0  0  0
  -21.6643  -26.7472   22.1195 H   0  0  0  0  0  0
  -19.6897  -25.6301   21.1260 H   0  0  0  0  0  0
  -19.6684  -27.3206   20.6768 H   0  0  0  0  0  0
  -17.4202  -26.6722   21.4025 H   0  0  0  0  0  0
  -18.0303  -26.0071   22.9018 H   0  0  0  0  0  0
  -19.7918  -30.7292   24.2273 H   0  0  0  0  0  0
  -17.4995  -31.6271   24.5170 H   0  0  0  0  0  0
  -15.5341  -30.2986   23.7651 H   0  0  0  0  0  0
  -15.8678  -28.0834   22.7041 H   0  0  0  0  0  0
  -24.5949  -30.6998   25.7802 H   0  0  0  0  0  0
  -24.8899  -32.2831   26.4904 H   0  0  0  0  0  0
  -25.8093  -30.8875   27.0242 H   0  0  0  0  0  0
  -26.2902  -29.6783   24.1181 H   0  0  0  0  0  0
  -27.4125  -29.7294   25.4588 H   0  0  0  0  0  0
  -27.8728  -30.4390   23.9295 H   0  0  0  0  0  0
  -27.2739  -33.3624   26.2057 H   0  0  0  0  0  0
  -28.3888  -32.6800   25.0283 H   0  0  0  0  0  0
  -28.0747  -31.8407   26.5395 H   0  0  0  0  0  0
  -28.2588  -38.0107   24.7542 H   0  0  0  0  0  0
  -28.1083  -36.2652   24.6251 H   0  0  0  0  0  0
  -27.2314  -37.1404   25.8868 H   0  0  0  0  0  0
  -20.9316  -29.8763   21.6947 H   0  0  0  0  0  0
  -26.0187  -38.2870   24.1416 H   0  0  0  0  0  0
  -29.6012  -16.6370   18.6445 H   0  0  0  0  0  0
  -28.5275  -18.1729   17.1160 H   0  0  0  0  0  0
  -25.9259  -19.5929   15.4579 H   0  0  0  0  0  0
  -25.1203  -21.1172   15.8033 H   0  0  0  0  0  0
  -27.1392  -22.3663   15.4308 H   0  0  0  0  0  0
  -27.3854  -21.0625   14.2662 H   0  0  0  0  0  0
  -26.1924  -19.3496   17.7374 H   0  0  0  0  0  0
  -25.8500  -21.0462   18.0463 H   0  0  0  0  0  0
  -29.2544  -21.4679   16.1462 H   0  0  0  0  0  0
  -28.7488  -19.8287   15.8016 H   0  0  0  0  0  0
  -31.0269  -19.3950   22.2945 H   0  0  0  0  0  0
  -29.3760  -19.8609   22.7266 H   0  0  0  0  0  0
  -30.4653  -20.9877   21.9063 H   0  0  0  0  0  0
  -29.0466  -24.4873   18.2264 H   0  0  0  0  0  0
  -27.7800  -23.2794   18.0843 H   0  0  0  0  0  0
  -29.4852  -22.8470   17.8219 H   0  0  0  0  0  0
  -30.2904  -17.2667   22.2209 H   0  0  0  0  0  0
  -31.5560  -17.0585   21.0425 H   0  0  0  0  0  0
  -28.3914  -21.7248   21.3615 H   0  0  0  0  0  0
  -27.3539  -21.7703   20.0251 H   0  0  0  0  0  0
  -27.6239  -25.3479   21.7396 H   0  0  0  0  0  0
  -27.0957  -24.7647   20.1978 H   0  0  0  0  0  0
  -29.0719  -15.4039   21.3366 H   0  0  0  0  0  0
  1 25  1  0  0  0
  1 30  2  0  0  0
  1 88  1  0  0  0
  2  3  1  0  0  0
  2 25  1  0  0  0
  2 91  1  0  0  0
  2 92  1  0  0  0
  3  4  1  0  0  0
  3 93  1  0  0  0
  3 94  1  0  0  0
  4  5  1  0  0  0
  4 95  1  0  0  0
  4 96  1  0  0  0
  5  6  1  0  0  0
  5 26  1  0  0  0
  5 97  1  0  0  0
  6 25  1  0  0  0
  6 98  1  0  0  0
  6 99  1  0  0  0
  7  8  2  0  0  0
  7 26  1  0  0  0
  7 29  1  0  0  0
  8  9  1  0  0  0
  8 22  1  0  0  0
  9 10  1  0  0  0
  9 27  2  0  0  0
 10 11  2  0  0  0
 10 15  1  0  0  0
 11 12  1  0  0  0
 11100  1  0  0  0
 12 13  2  0  0  0
 12101  1  0  0  0
 13 14  1  0  0  0
 13 31  1  0  0  0
 14 15  2  0  0  0
 14102  1  0  0  0
 15103  1  0  0  0
 16 17  2  0  0  0
 16 21  1  0  0  0
 16 31  1  0  0  0
 17 18  1  0  0  0
 17104  1  0  0  0
 18 19  2  0  0  0
 18105  1  0  0  0
 19 20  1  0  0  0
 19 24  1  0  0  0
 20 21  2  0  0  0
 20106  1  0  0  0
 21 23  1  0  0  0
 22 28  1  0  0  0
 22 32  2  0  0  0
 26 27  1  0  0  0
 28107  1  0  0  0
 28108  1  0  0  0
 29109  1  0  0  0
 29110  1  0  0  0
 33 34  1  0  0  0
 33 66  1  0  0  0
 33 70  2  0  0  0
 34 36  1  0  0  0
 34 59  1  0  0  0
 34111  1  0  0  0
 35 44  2  0  0  0
 35 45  1  0  0  0
 35 68  1  0  0  0
 36 56  1  0  0  0
 36112  1  0  0  0
 37 39  1  0  0  0
 37 47  1  0  0  0
 37 66  1  0  0  0
 37113  1  0  0  0
 38 43  2  0  0  0
 38 46  1  0  0  0
 38 47  1  0  0  0
 39 64  1  0  0  0
 39 67  2  0  0  0
 40 52  1  0  0  0
 40 53  2  0  0  0
 40 58  1  0  0  0
 41114  1  0  0  0
 41115  1  0  0  0
 41116  1  0  0  0
 41 48  1  0  0  0
 42 43  1  0  0  0
 42 66  1  0  0  0
 42117  1  0  0  0
 42118  1  0  0  0
 43 44  1  0  0  0
 44119  1  0  0  0
 45 46  2  0  0  0
 45120  1  0  0  0
 46121  1  0  0  0
 47122  1  0  0  0
 47123  1  0  0  0
 48 56  1  0  0  0
 48 65  1  0  0  0
 48124  1  0  0  0
 49 50  1  0  0  0
 49 53  1  0  0  0
 49 64  1  0  0  0
 49125  1  0  0  0
 50 51  1  0  0  0
 50126  1  0  0  0
 50127  1  0  0  0
 51 52  1  0  0  0
 51128  1  0  0  0
 51129  1  0  0  0
 52130  1  0  0  0
 52131  1  0  0  0
 53 54  1  0  0  0
 54 55  2  0  0  0
 54132  1  0  0  0
 55 57  1  0  0  0
 55133  1  0  0  0
 56 69  2  0  0  0
 57 58  2  0  0  0
 57134  1  0  0  0
 58135  1  0  0  0
 59 60  1  0  0  0
 59 61  1  0  0  0
 59 62  1  0  0  0
 60136  1  0  0  0
 60137  1  0  0  0
 60138  1  0  0  0
 61139  1  0  0  0
 61140  1  0  0  0
 61141  1  0  0  0
 62142  1  0  0  0
 62143  1  0  0  0
 62144  1  0  0  0
 63 65  1  0  0  0
 63145  1  0  0  0
 63146  1  0  0  0
 63147  1  0  0  0
 64148  1  0  0  0
 65149  1  0  0  0
 68 86  1  0  0  0
 71 72  2  0  0  0
 71 73  1  0  0  0
 71150  1  0  0  0
 72 76  1  0  0  0
 72151  1  0  0  0
 73 74  2  0  0  0
 73 84  1  0  0  0
 74 75  1  0  0  0
 74 82  1  0  0  0
 75 76  2  0  0  0
 75 85  1  0  0  0
 76 87  1  0  0  0
 77 86  1  0  0  0
 77 89  1  0  0  0
 77 90  2  0  0  0
 78 79  1  0  0  0
 78 80  1  0  0  0
 78152  1  0  0  0
 78153  1  0  0  0
 79 81  1  0  0  0
 79154  1  0  0  0
 79155  1  0  0  0
 80 87  1  0  0  0
 80156  1  0  0  0
 80157  1  0  0  0
 81 87  1  0  0  0
 81158  1  0  0  0
 81159  1  0  0  0
 82160  1  0  0  0
 82161  1  0  0  0
 82162  1  0  0  0
 83 89  1  0  0  0
 83163  1  0  0  0
 83164  1  0  0  0
 83165  1  0  0  0
 84 88  1  0  0  0
 84166  1  0  0  0
 84167  1  0  0  0
 85 89  1  0  0  0
 85168  1  0  0  0
 85169  1  0  0  0
 86170  1  0  0  0
 86171  1  0  0  0
 88172  1  0  0  0
M  ISO  4   1 100  68 101  86 101  88 100
M  END
> <chiral flag>
0

> <version>
0

> <s_m_source_file>
/data/baiqing/PycharmProjects/Reinvent-master-3.2/result/LINK_invent/BTK/process_docking_weight1_custom_product_contain_oxygen_bond_distance_aromatic_linkinvent_7_9_3/rearranged_h_0034.sdf

> <i_m_source_file_index>
90

> <r_mmod_Potential_Energy-OPLS-2005>
150.058074951172

> <r_mmod_Stretch_Energy-OPLS-2005>
64.8691482543945

> <r_mmod_Bend_Energy-OPLS-2005>
152.430084228516

> <r_mmod_Torsional_Energy-OPLS-2005>
375.043609619141

> <r_mmod_Improper_Torsional_Energy-OPLS-2005>
14.2740135192871

> <r_mmod_Van_der_Waal_Energy-OPLS-2005>
157.879013061523

> <r_mmod_Electrostatic_Energy-OPLS-2005>
-408.588775634766

> <r_mmod_Solvation_Energy-OPLS-2005>
-235.149185180664

> <b_mmod_Minimization_Converged-OPLS-2005>
0

> <r_mmod_RMS_Derivative-OPLS-2005>
2.2176673412323

$$$$
90
                    3D
 Structure written by MMmdl.
173183  0  0  1  0            999 V2000
  -30.7372  -14.6535   20.6012 C   0  0  0  0  0  0
  -30.4082  -12.4293   19.4992 C   0  0  0  0  0  0
  -29.5131  -12.5334   18.2478 C   0  0  0  0  0  0
  -28.0395  -12.3414   18.6428 C   0  0  0  0  0  0
  -27.6410  -13.2351   19.8448 C   0  0  2  0  0  0
  -28.6660  -13.1656   20.9943 C   0  0  0  0  0  0
  -25.2501  -13.8201   20.5657 C   0  0  0  0  0  0
  -24.1800  -13.0441   20.9183 C   0  0  0  0  0  0
  -24.6385  -11.6916   20.8703 C   0  0  0  0  0  0
  -23.9054  -10.4300   21.0384 C   0  0  0  0  0  0
  -24.3609   -9.4221   21.9176 C   0  0  0  0  0  0
  -23.6292   -8.2254   22.0746 C   0  0  0  0  0  0
  -22.4273   -8.0279   21.3534 C   0  0  0  0  0  0
  -21.9907   -9.0245   20.4636 C   0  0  0  0  0  0
  -22.7229  -10.2128   20.3041 C   0  0  0  0  0  0
  -21.6862   -6.0733   22.5274 C   0  0  0  0  0  0
  -21.4007   -6.5633   23.8210 C   0  0  0  0  0  0
  -21.3666   -5.6786   24.9170 C   0  0  0  0  0  0
  -21.6046   -4.3051   24.7218 C   0  0  0  0  0  0
  -21.8824   -3.8141   23.4347 C   0  0  0  0  0  0
  -21.9188   -4.6959   22.3399 C   0  0  0  0  0  0
  -22.7820  -13.5224   21.1872 C   0  0  0  0  0  0
  -22.1664   -4.2145   21.0984 F   0  0  0  0  0  0
  -21.5629   -3.4535   25.7738 F   0  0  0  0  0  0
  -30.0007  -13.4890   20.4603 N   0  0  0  0  0  0
  -26.2913  -12.9412   20.3176 N   0  0  0  0  0  0
  -25.9306  -11.6550   20.5658 N   0  0  0  0  0  0
  -22.0464  -12.8198   22.0416 N   0  0  0  0  0  0
  -25.4213  -15.1925   20.4142 N   0  0  0  0  0  0
  -31.8286  -14.7182   20.0266 O   0  0  0  0  0  0
  -21.6633   -6.8870   21.4239 O   0  0  0  0  0  0
  -22.3499  -14.5546   20.6747 O   0  0  0  0  0  0
  -24.6272  -31.8630   23.2014 C   0  0  0  0  0  0
  -25.9120  -32.4809   23.8310 C   0  0  1  0  0  0
  -27.2010  -27.3039   20.1258 C   0  0  0  0  0  0
  -25.5941  -33.8597   24.2248 N   0  0  0  0  0  0
  -23.4196  -30.4892   21.5447 C   0  0  2  0  0  0
  -24.8590  -28.9521   20.1039 C   0  0  0  0  0  0
  -22.7499  -29.4650   22.4919 C   0  0  0  0  0  0
  -18.0298  -28.1436   22.8506 C   0  0  0  0  0  0
  -24.1468  -36.7249   23.2631 C   0  0  0  0  0  0
  -25.9597  -30.7978   21.3646 C   0  0  0  0  0  0
  -26.0305  -29.4218   20.7103 C   0  0  0  0  0  0
  -27.2051  -28.6118   20.7097 C   0  0  0  0  0  0
  -26.0077  -26.9086   19.4749 C   0  0  0  0  0  0
  -24.8509  -27.7028   19.4725 C   0  0  0  0  0  0
  -23.6286  -29.8315   20.1565 C   0  0  0  0  0  0
  -25.4095  -36.3079   24.0332 C   0  0  1  0  0  0
  -20.5912  -28.3729   23.1295 C   0  0  2  0  0  0
  -20.6781  -26.9451   22.5436 C   0  0  0  0  0  0
  -19.5751  -26.6431   21.5246 C   0  0  0  0  0  0
  -18.1934  -26.7979   22.1652 C   0  0  0  0  0  0
  -19.1557  -28.8895   23.2906 C   0  0  0  0  0  0
  -18.9474  -30.1492   23.8925 C   0  0  0  0  0  0
  -17.6480  -30.6639   24.0585 C   0  0  0  0  0  0
  -25.9056  -34.9469   23.5089 C   0  0  0  0  0  0
  -16.5361  -29.9167   23.6336 C   0  0  0  0  0  0
  -16.7289  -28.6587   23.0359 C   0  0  0  0  0  0
  -26.4490  -31.6611   25.0677 C   0  0  0  0  0  0
  -25.3717  -31.3765   26.1401 C   0  0  0  0  0  0
  -27.0253  -30.3015   24.6079 C   0  0  0  0  0  0
  -27.6069  -32.4308   25.7475 C   0  0  0  0  0  0
  -27.5550  -37.1782   24.8475 C   0  0  0  0  0  0
  -21.4209  -29.3070   22.3665 N   0  0  0  0  0  0
  -26.4245  -37.3796   23.9448 N   0  0  0  0  0  0
  -24.6884  -31.0667   22.0938 N   0  0  0  0  0  0
  -23.4240  -28.8185   23.2980 O   0  0  0  0  0  0
  -28.2931  -26.4190   20.2266 O   0  0  0  0  0  0
  -26.5647  -34.8973   22.4661 O   0  0  0  0  0  0
  -23.5445  -32.1395   23.7377 O   0  0  0  0  0  0
  -28.9698  -18.8785   20.9028 C   0  0  0  0  0  0
  -30.3483  -18.5541   20.8141 C   0  0  0  0  0  0
  -28.4695  -20.2032   20.6669 C   0  0  0  0  0  0
  -31.2139  -19.6520   20.4711 C   0  0  0  0  0  0
  -30.7157  -20.9844   20.2344 C   0  0  0  0  0  0
  -29.3261  -21.2974   20.3269 C   0  0  0  0  0  0
  -28.4756  -22.9895   18.6756 C   0  0  0  0  0  0
  -28.3396  -22.1700   17.6200 C   0  0  0  0  0  0
  -28.2549  -24.4941   18.6095 C   0  0  0  0  0  0
  -31.2455  -16.0969   23.4278 C   0  0  0  0  0  0
  -31.6185  -17.3175   22.6164 C   0  0  0  0  0  0
  -30.0019  -15.5777   22.7197 C   0  0  0  0  0  0
  -28.8257  -23.8154   20.8367 C   0  0  0  0  0  0
  -30.9663  -17.1379   21.2238 C   0  0  1  0  0  0
  -28.0473  -24.9551   20.0572 C   0  0  1  0  0  0
  -26.9696  -20.4321   20.7629 C   0  0  0  0  0  0
  -32.7305  -19.4169   20.3872 C   0  0  0  0  0  0
  -31.7040  -22.0829   19.8383 C   0  0  0  0  0  0
  -28.8033  -22.6003   19.9690 N   0  0  0  0  0  0
  -30.2509  -15.7740   21.2812 N   0  0  0  0  0  0
  -31.4595  -12.4889   19.2158 H   0  0  0  0  0  0
  -30.2952  -11.4478   19.9615 H   0  0  0  0  0  0
  -29.8060  -11.7879   17.5071 H   0  0  0  0  0  0
  -29.6516  -13.5083   17.7754 H   0  0  0  0  0  0
  -27.9034  -11.2899   18.9012 H   0  0  0  0  0  0
  -27.3890  -12.5368   17.7885 H   0  0  0  0  0  0
  -27.6423  -14.2603   19.4721 H   0  0  0  0  0  0
  -28.6721  -12.1785   21.4596 H   0  0  0  0  0  0
  -28.3290  -13.8602   21.7586 H   0  0  0  0  0  0
  -25.2755   -9.5706   22.4749 H   0  0  0  0  0  0
  -24.0001   -7.4643   22.7472 H   0  0  0  0  0  0
  -21.0838   -8.8756   19.8941 H   0  0  0  0  0  0
  -22.3685  -10.9654   19.6137 H   0  0  0  0  0  0
  -21.1997   -7.6143   23.9712 H   0  0  0  0  0  0
  -21.1484   -6.0517   25.9080 H   0  0  0  0  0  0
  -22.0594   -2.7602   23.2843 H   0  0  0  0  0  0
  -22.4060  -11.9833   22.4776 H   0  0  0  0  0  0
  -21.1076  -13.1205   22.2606 H   0  0  0  0  0  0
  -24.6597  -15.8510   20.5343 H   0  0  0  0  0  0
  -26.2815  -15.6333   20.1135 H   0  0  0  0  0  0
  -26.7199  -32.5463   23.1067 H   0  0  0  0  0  0
  -25.0093  -33.9723   25.0401 H   0  0  0  0  0  0
  -22.7104  -31.3065   21.4037 H   0  0  0  0  0  0
  -23.3762  -35.9547   23.3308 H   0  0  0  0  0  0
  -24.3547  -36.8851   22.2037 H   0  0  0  0  0  0
  -23.7196  -37.6450   23.6622 H   0  0  0  0  0  0
  -26.0788  -31.5600   20.5924 H   0  0  0  0  0  0
  -26.8483  -30.8542   21.9819 H   0  0  0  0  0  0
  -28.0973  -28.9696   21.2027 H   0  0  0  0  0  0
  -25.9133  -25.9600   18.9742 H   0  0  0  0  0  0
  -23.9576  -27.3388   18.9838 H   0  0  0  0  0  0
  -23.7512  -30.6100   19.4032 H   0  0  0  0  0  0
  -22.7464  -29.2652   19.8528 H   0  0  0  0  0  0
  -25.1288  -36.1883   25.0821 H   0  0  0  0  0  0
  -20.9992  -28.3290   24.1425 H   0  0  0  0  0  0
  -20.5706  -26.2339   23.3645 H   0  0  0  0  0  0
  -21.6634  -26.7529   22.1185 H   0  0  0  0  0  0
  -19.6914  -25.6362   21.1261 H   0  0  0  0  0  0
  -19.6658  -27.3251   20.6782 H   0  0  0  0  0  0
  -17.4195  -26.6743   21.4058 H   0  0  0  0  0  0
  -18.0315  -26.0148   22.9064 H   0  0  0  0  0  0
  -19.7949  -30.7307   24.2278 H   0  0  0  0  0  0
  -17.5053  -31.6301   24.5212 H   0  0  0  0  0  0
  -15.5370  -30.3082   23.7665 H   0  0  0  0  0  0
  -15.8687  -28.0930   22.7048 H   0  0  0  0  0  0
  -24.5948  -30.7044   25.7751 H   0  0  0  0  0  0
  -24.8822  -32.2914   26.4728 H   0  0  0  0  0  0
  -25.8039  -30.9051   27.0227 H   0  0  0  0  0  0
  -26.2761  -29.6851   24.1084 H   0  0  0  0  0  0
  -27.3928  -29.7212   25.4553 H   0  0  0  0  0  0
  -27.8668  -30.4312   23.9274 H   0  0  0  0  0  0
  -27.2715  -33.3656   26.1988 H   0  0  0  0  0  0
  -28.3919  -32.6767   25.0311 H   0  0  0  0  0  0
  -28.0648  -31.8433   26.5449 H   0  0  0  0  0  0
  -28.2606  -38.0052   24.7544 H   0  0  0  0  0  0
  -28.1022  -36.2598   24.6267 H   0  0  0  0  0  0
  -27.2290  -37.1401   25.8889 H   0  0  0  0  0  0
  -20.9379  -29.8761   21.6849 H   0  0  0  0  0  0
  -26.0116  -38.2852   24.1508 H   0  0  0  0  0  0
  -28.2801  -18.0930   21.1784 H   0  0  0  0  0  0
  -28.0648  -22.5549   16.6481 H   0  0  0  0  0  0
  -28.4926  -21.1034   17.7029 H   0  0  0  0  0  0
  -27.4057  -24.7410   17.9742 H   0  0  0  0  0  0
  -29.1405  -24.9631   18.1782 H   0  0  0  0  0  0
  -31.0830  -16.3195   24.4821 H   0  0  0  0  0  0
  -32.0471  -15.3575   23.3654 H   0  0  0  0  0  0
  -32.7002  -17.4513   22.5634 H   0  0  0  0  0  0
  -31.2138  -18.1971   23.1207 H   0  0  0  0  0  0
  -29.1210  -16.1488   23.0158 H   0  0  0  0  0  0
  -29.8478  -14.5453   23.0325 H   0  0  0  0  0  0
  -28.3407  -23.6113   21.7926 H   0  0  0  0  0  0
  -29.8488  -24.1203   21.0556 H   0  0  0  0  0  0
  -31.7658  -16.9961   20.5073 H   0  0  0  0  0  0
  -27.0153  -24.7409   20.3336 H   0  0  0  0  0  0
  -26.4449  -19.5316   21.0832 H   0  0  0  0  0  0
  -26.5701  -20.7249   19.7919 H   0  0  0  0  0  0
  -26.7432  -21.2244   21.4769 H   0  0  0  0  0  0
  -32.9879  -18.4983   19.8661 H   0  0  0  0  0  0
  -33.1603  -19.3896   21.3888 H   0  0  0  0  0  0
  -33.2775  -20.1749   19.8330 H   0  0  0  0  0  0
  -32.4919  -22.1723   20.5890 H   0  0  0  0  0  0
  -31.2668  -23.0716   19.7231 H   0  0  0  0  0  0
  -32.1577  -21.8360   18.8772 H   0  0  0  0  0  0
  1 25  1  0  0  0
  1 30  2  0  0  0
  1 90  1  0  0  0
  2  3  1  0  0  0
  2 25  1  0  0  0
  2 91  1  0  0  0
  2 92  1  0  0  0
  3  4  1  0  0  0
  3 93  1  0  0  0
  3 94  1  0  0  0
  4  5  1  0  0  0
  4 95  1  0  0  0
  4 96  1  0  0  0
  5  6  1  0  0  0
  5 26  1  0  0  0
  5 97  1  0  0  0
  6 25  1  0  0  0
  6 98  1  0  0  0
  6 99  1  0  0  0
  7  8  2  0  0  0
  7 26  1  0  0  0
  7 29  1  0  0  0
  8  9  1  0  0  0
  8 22  1  0  0  0
  9 10  1  0  0  0
  9 27  2  0  0  0
 10 11  2  0  0  0
 10 15  1  0  0  0
 11 12  1  0  0  0
 11100  1  0  0  0
 12 13  2  0  0  0
 12101  1  0  0  0
 13 14  1  0  0  0
 13 31  1  0  0  0
 14 15  2  0  0  0
 14102  1  0  0  0
 15103  1  0  0  0
 16 17  2  0  0  0
 16 21  1  0  0  0
 16 31  1  0  0  0
 17 18  1  0  0  0
 17104  1  0  0  0
 18 19  2  0  0  0
 18105  1  0  0  0
 19 20  1  0  0  0
 19 24  1  0  0  0
 20 21  2  0  0  0
 20106  1  0  0  0
 21 23  1  0  0  0
 22 28  1  0  0  0
 22 32  2  0  0  0
 26 27  1  0  0  0
 28107  1  0  0  0
 28108  1  0  0  0
 29109  1  0  0  0
 29110  1  0  0  0
 33 34  1  0  0  0
 33 66  1  0  0  0
 33 70  2  0  0  0
 34 36  1  0  0  0
 34 59  1  0  0  0
 34111  1  0  0  0
 35 44  2  0  0  0
 35 45  1  0  0  0
 35 68  1  0  0  0
 36 56  1  0  0  0
 36112  1  0  0  0
 37 39  1  0  0  0
 37 47  1  0  0  0
 37 66  1  0  0  0
 37113  1  0  0  0
 38 43  2  0  0  0
 38 46  1  0  0  0
 38 47  1  0  0  0
 39 64  1  0  0  0
 39 67  2  0  0  0
 40 52  1  0  0  0
 40 53  2  0  0  0
 40 58  1  0  0  0
 41114  1  0  0  0
 41115  1  0  0  0
 41116  1  0  0  0
 41 48  1  0  0  0
 42 43  1  0  0  0
 42 66  1  0  0  0
 42117  1  0  0  0
 42118  1  0  0  0
 43 44  1  0  0  0
 44119  1  0  0  0
 45 46  2  0  0  0
 45120  1  0  0  0
 46121  1  0  0  0
 47122  1  0  0  0
 47123  1  0  0  0
 48 56  1  0  0  0
 48 65  1  0  0  0
 48124  1  0  0  0
 49 50  1  0  0  0
 49 53  1  0  0  0
 49 64  1  0  0  0
 49125  1  0  0  0
 50 51  1  0  0  0
 50126  1  0  0  0
 50127  1  0  0  0
 51 52  1  0  0  0
 51128  1  0  0  0
 51129  1  0  0  0
 52130  1  0  0  0
 52131  1  0  0  0
 53 54  1  0  0  0
 54 55  2  0  0  0
 54132  1  0  0  0
 55 57  1  0  0  0
 55133  1  0  0  0
 56 69  2  0  0  0
 57 58  2  0  0  0
 57134  1  0  0  0
 58135  1  0  0  0
 59 60  1  0  0  0
 59 61  1  0  0  0
 59 62  1  0  0  0
 60136  1  0  0  0
 60137  1  0  0  0
 60138  1  0  0  0
 61139  1  0  0  0
 61140  1  0  0  0
 61141  1  0  0  0
 62142  1  0  0  0
 62143  1  0  0  0
 62144  1  0  0  0
 63 65  1  0  0  0
 63145  1  0  0  0
 63146  1  0  0  0
 63147  1  0  0  0
 64148  1  0  0  0
 65149  1  0  0  0
 68 85  1  0  0  0
 71 72  2  0  0  0
 71 73  1  0  0  0
 71150  1  0  0  0
 72 74  1  0  0  0
 72 84  1  0  0  0
 73 76  2  0  0  0
 73 86  1  0  0  0
 74 75  2  0  0  0
 74 87  1  0  0  0
 75 76  1  0  0  0
 75 88  1  0  0  0
 76 89  1  0  0  0
 77 78  2  0  0  0
 77 79  1  0  0  0
 77 89  1  0  0  0
 78151  1  0  0  0
 78152  1  0  0  0
 79 85  1  0  0  0
 79153  1  0  0  0
 79154  1  0  0  0
 80 81  1  0  0  0
 80 82  1  0  0  0
 80155  1  0  0  0
 80156  1  0  0  0
 81 84  1  0  0  0
 81157  1  0  0  0
 81158  1  0  0  0
 82 90  1  0  0  0
 82159  1  0  0  0
 82160  1  0  0  0
 83 85  1  0  0  0
 83 89  1  0  0  0
 83161  1  0  0  0
 83162  1  0  0  0
 84 90  1  0  0  0
 84163  1  0  0  0
 85164  1  0  0  0
 86165  1  0  0  0
 86166  1  0  0  0
 86167  1  0  0  0
 87168  1  0  0  0
 87169  1  0  0  0
 87170  1  0  0  0
 88171  1  0  0  0
 88172  1  0  0  0
 88173  1  0  0  0
M  ISO  4   1 100  68 101  85 101  90 100
M  END
> <chiral flag>
0

> <version>
0

> <s_m_source_file>
/data/baiqing/PycharmProjects/Reinvent-master-3.2/result/LINK_invent/BTK/process_docking_weight1_custom_product_contain_oxygen_bond_distance_aromatic_linkinvent_7_9_3/rearranged_h_0034.sdf

> <i_m_source_file_index>
91

> <r_mmod_Potential_Energy-OPLS-2005>
432.274719238281

> <r_mmod_Stretch_Energy-OPLS-2005>
111.705757141113

> <r_mmod_Bend_Energy-OPLS-2005>
249.03352355957

> <r_mmod_Torsional_Energy-OPLS-2005>
358.994018554688

> <r_mmod_Improper_Torsional_Energy-OPLS-2005>
8.96223068237305

> <r_mmod_Van_der_Waal_Energy-OPLS-2005>
170.262603759766

> <r_mmod_Electrostatic_Energy-OPLS-2005>
-341.621978759766

> <r_mmod_Solvation_Energy-OPLS-2005>
-185.667587280273

> <b_mmod_Minimization_Converged-OPLS-2005>
0

> <r_mmod_RMS_Derivative-OPLS-2005>
3.51912140846252

$$$$
91
                    3D
 Structure written by MMmdl.
165174  0  0  1  0            999 V2000
  -30.7135  -14.5064   20.5765 C   0  0  0  0  0  0
  -30.4141  -12.3338   19.4337 C   0  0  0  0  0  0
  -29.4931  -12.5103   18.2105 C   0  0  0  0  0  0
  -28.0156  -12.3644   18.6211 C   0  0  0  0  0  0
  -27.6549  -13.2177   19.8667 C   0  0  2  0  0  0
  -28.6947  -13.0403   20.9949 C   0  0  0  0  0  0
  -25.2564  -13.8191   20.5687 C   0  0  0  0  0  0
  -24.1830  -13.0453   20.9180 C   0  0  0  0  0  0
  -24.6393  -11.6923   20.8729 C   0  0  0  0  0  0
  -23.9069  -10.4303   21.0397 C   0  0  0  0  0  0
  -24.3627   -9.4222   21.9176 C   0  0  0  0  0  0
  -23.6305   -8.2255   22.0751 C   0  0  0  0  0  0
  -22.4285   -8.0284   21.3546 C   0  0  0  0  0  0
  -21.9917   -9.0253   20.4647 C   0  0  0  0  0  0
  -22.7241  -10.2133   20.3048 C   0  0  0  0  0  0
  -21.6856   -6.0738   22.5278 C   0  0  0  0  0  0
  -21.4008   -6.5639   23.8210 C   0  0  0  0  0  0
  -21.3662   -5.6794   24.9175 C   0  0  0  0  0  0
  -21.6046   -4.3056   24.7224 C   0  0  0  0  0  0
  -21.8817   -3.8147   23.4345 C   0  0  0  0  0  0
  -21.9199   -4.6966   22.3402 C   0  0  0  0  0  0
  -22.7853  -13.5243   21.1846 C   0  0  0  0  0  0
  -22.1665   -4.2150   21.0979 F   0  0  0  0  0  0
  -21.5640   -3.4539   25.7735 F   0  0  0  0  0  0
  -30.0193  -13.3421   20.4350 N   0  0  0  0  0  0
  -26.2994  -12.9378   20.3323 N   0  0  0  0  0  0
  -25.9319  -11.6529   20.5741 N   0  0  0  0  0  0
  -22.0496  -12.8232   22.0402 N   0  0  0  0  0  0
  -25.4297  -15.1909   20.4125 N   0  0  0  0  0  0
  -31.8504  -14.6403   20.1184 O   0  0  0  0  0  0
  -21.6651   -6.8878   21.4238 O   0  0  0  0  0  0
  -22.3536  -14.5551   20.6697 O   0  0  0  0  0  0
  -24.6181  -31.8671   23.2105 C   0  0  0  0  0  0
  -25.9069  -32.4815   23.8402 C   0  0  1  0  0  0
  -27.2216  -27.3857   20.1170 C   0  0  0  0  0  0
  -25.5923  -33.8614   24.2330 N   0  0  0  0  0  0
  -23.4074  -30.4907   21.5518 C   0  0  2  0  0  0
  -24.8524  -28.9519   20.1197 C   0  0  0  0  0  0
  -22.7424  -29.4657   22.4994 C   0  0  0  0  0  0
  -18.0271  -28.1386   22.8491 C   0  0  0  0  0  0
  -24.1485  -36.7307   23.2634 C   0  0  0  0  0  0
  -25.9412  -30.8138   21.3748 C   0  0  0  0  0  0
  -26.0141  -29.4434   20.7278 C   0  0  0  0  0  0
  -27.2020  -28.6675   20.7260 C   0  0  0  0  0  0
  -26.0516  -26.9437   19.4636 C   0  0  0  0  0  0
  -24.8675  -27.7015   19.4831 C   0  0  0  0  0  0
  -23.6184  -29.8251   20.1666 C   0  0  0  0  0  0
  -25.4110  -36.3109   24.0336 C   0  0  1  0  0  0
  -20.5863  -28.3678   23.1317 C   0  0  2  0  0  0
  -20.6768  -26.9415   22.5419 C   0  0  0  0  0  0
  -19.5748  -26.6392   21.5219 C   0  0  0  0  0  0
  -18.1922  -26.7934   22.1623 C   0  0  0  0  0  0
  -19.1520  -28.8846   23.2898 C   0  0  0  0  0  0
  -18.9442  -30.1451   23.8908 C   0  0  0  0  0  0
  -17.6447  -30.6592   24.0562 C   0  0  0  0  0  0
  -25.9048  -34.9473   23.5129 C   0  0  0  0  0  0
  -16.5337  -29.9089   23.6331 C   0  0  0  0  0  0
  -16.7262  -28.6505   23.0350 C   0  0  0  0  0  0
  -26.4484  -31.6594   25.0734 C   0  0  0  0  0  0
  -25.3743  -31.3694   26.1471 C   0  0  0  0  0  0
  -27.0317  -30.3029   24.6133 C   0  0  0  0  0  0
  -27.6062  -32.4311   25.7490 C   0  0  0  0  0  0
  -27.5587  -37.1804   24.8462 C   0  0  0  0  0  0
  -21.4149  -29.3037   22.3721 N   0  0  0  0  0  0
  -26.4294  -37.3801   23.9417 N   0  0  0  0  0  0
  -24.6736  -31.0734   22.1031 N   0  0  0  0  0  0
  -23.4176  -28.8204   23.3056 O   0  0  0  0  0  0
  -28.3764  -26.6189   20.0848 O   0  0  0  0  0  0
  -26.5602  -34.8926   22.4684 O   0  0  0  0  0  0
  -23.5364  -32.1452   23.7472 O   0  0  0  0  0  0
  -29.5363  -20.4759   22.1090 C   0  0  0  0  0  0
  -29.8256  -18.7190   19.9288 C   0  0  0  0  0  0
  -29.4650  -20.0900   19.7187 C   0  0  0  0  0  0
  -30.0763  -18.2203   21.2444 C   0  0  0  0  0  0
  -29.3603  -20.9971   20.8108 C   0  0  0  0  0  0
  -29.8800  -19.1229   22.3294 C   0  0  0  0  0  0
  -27.4844  -24.2020   20.0807 C   0  0  0  0  0  0
  -29.8389  -24.7710   20.6914 C   0  0  0  0  0  0
  -27.7043  -22.7854   20.6754 C   0  0  0  0  0  0
  -29.9962  -23.3394   21.2760 C   0  0  0  0  0  0
  -28.3828  -25.3020   20.7166 C   0  0  0  0  0  0
  -29.9960  -17.8236   18.7031 C   0  0  0  0  0  0
  -29.2408  -20.5875   18.2902 C   0  0  0  0  0  0
  -30.7450  -16.8348   21.5060 C   0  0  0  0  0  0
  -29.1072  -22.3831   20.6087 N   0  0  0  0  0  0
  -30.0727  -15.5598   21.1422 N   0  0  0  0  0  0
  -30.1002  -18.6317   23.9746 Cl  0  0  0  0  0  0
  -31.4596  -12.4221   19.1333 H   0  0  0  0  0  0
  -30.3111  -11.3305   19.8489 H   0  0  0  0  0  0
  -29.7418  -11.7781   17.4411 H   0  0  0  0  0  0
  -29.6559  -13.4926   17.7640 H   0  0  0  0  0  0
  -27.8314  -11.3101   18.8278 H   0  0  0  0  0  0
  -27.3651  -12.6267   17.7861 H   0  0  0  0  0  0
  -27.6872  -14.2604   19.5493 H   0  0  0  0  0  0
  -28.6785  -12.0164   21.3712 H   0  0  0  0  0  0
  -28.4529  -13.6739   21.8494 H   0  0  0  0  0  0
  -25.2771   -9.5711   22.4753 H   0  0  0  0  0  0
  -24.0022   -7.4650   22.7476 H   0  0  0  0  0  0
  -21.0847   -8.8771   19.8954 H   0  0  0  0  0  0
  -22.3696  -10.9676   19.6161 H   0  0  0  0  0  0
  -21.1977   -7.6144   23.9715 H   0  0  0  0  0  0
  -21.1494   -6.0520   25.9080 H   0  0  0  0  0  0
  -22.0591   -2.7608   23.2841 H   0  0  0  0  0  0
  -22.4108  -11.9885   22.4779 H   0  0  0  0  0  0
  -21.1110  -13.1253   22.2601 H   0  0  0  0  0  0
  -24.6665  -15.8493   20.5254 H   0  0  0  0  0  0
  -26.2870  -15.6300   20.1006 H   0  0  0  0  0  0
  -26.7128  -32.5508   23.1152 H   0  0  0  0  0  0
  -25.0088  -33.9774   25.0485 H   0  0  0  0  0  0
  -22.6979  -31.3088   21.4127 H   0  0  0  0  0  0
  -23.3758  -35.9628   23.3288 H   0  0  0  0  0  0
  -24.3585  -36.8931   22.2053 H   0  0  0  0  0  0
  -23.7220  -37.6500   23.6655 H   0  0  0  0  0  0
  -26.0613  -31.5741   20.6018 H   0  0  0  0  0  0
  -26.8271  -30.8675   21.9959 H   0  0  0  0  0  0
  -28.0981  -29.0422   21.2002 H   0  0  0  0  0  0
  -26.0442  -26.0236   18.9018 H   0  0  0  0  0  0
  -23.9841  -27.3283   18.9835 H   0  0  0  0  0  0
  -23.7325  -30.6003   19.4081 H   0  0  0  0  0  0
  -22.7405  -29.2492   19.8682 H   0  0  0  0  0  0
  -25.1282  -36.1970   25.0830 H   0  0  0  0  0  0
  -20.9946  -28.3239   24.1445 H   0  0  0  0  0  0
  -20.5692  -26.2281   23.3604 H   0  0  0  0  0  0
  -21.6634  -26.7478   22.1194 H   0  0  0  0  0  0
  -19.6908  -25.6306   21.1245 H   0  0  0  0  0  0
  -19.6691  -27.3203   20.6752 H   0  0  0  0  0  0
  -17.4201  -26.6689   21.4016 H   0  0  0  0  0  0
  -18.0312  -26.0070   22.9012 H   0  0  0  0  0  0
  -19.7916  -30.7261   24.2288 H   0  0  0  0  0  0
  -17.5002  -31.6272   24.5154 H   0  0  0  0  0  0
  -15.5340  -30.2991   23.7663 H   0  0  0  0  0  0
  -15.8657  -28.0834   22.7067 H   0  0  0  0  0  0
  -24.5915  -30.7050   25.7790 H   0  0  0  0  0  0
  -24.8936  -32.2846   26.4944 H   0  0  0  0  0  0
  -25.8092  -30.8833   27.0217 H   0  0  0  0  0  0
  -26.2866  -29.6783   24.1193 H   0  0  0  0  0  0
  -27.4073  -29.7276   25.4607 H   0  0  0  0  0  0
  -27.8713  -30.4329   23.9300 H   0  0  0  0  0  0
  -27.2691  -33.3606   26.2092 H   0  0  0  0  0  0
  -28.3863  -32.6881   25.0310 H   0  0  0  0  0  0
  -28.0743  -31.8420   26.5387 H   0  0  0  0  0  0
  -28.2591  -38.0118   24.7548 H   0  0  0  0  0  0
  -28.1103  -36.2658   24.6240 H   0  0  0  0  0  0
  -27.2315  -37.1384   25.8865 H   0  0  0  0  0  0
  -20.9324  -29.8739   21.6916 H   0  0  0  0  0  0
  -26.0180  -38.2875   24.1434 H   0  0  0  0  0  0
  -29.4332  -21.1264   22.9649 H   0  0  0  0  0  0
  -26.4340  -24.4362   20.2396 H   0  0  0  0  0  0
  -27.6500  -24.1708   19.0033 H   0  0  0  0  0  0
  -30.2027  -24.7731   19.6628 H   0  0  0  0  0  0
  -30.4868  -25.4572   21.2387 H   0  0  0  0  0  0
  -27.0818  -22.0620   20.1458 H   0  0  0  0  0  0
  -27.3791  -22.7729   21.7180 H   0  0  0  0  0  0
  -29.7817  -23.3584   22.3455 H   0  0  0  0  0  0
  -31.0320  -23.0125   21.1709 H   0  0  0  0  0  0
  -28.0851  -25.4299   21.7586 H   0  0  0  0  0  0
  -29.0735  -17.7964   18.1233 H   0  0  0  0  0  0
  -30.2447  -16.7939   18.9287 H   0  0  0  0  0  0
  -30.7914  -18.2018   18.0606 H   0  0  0  0  0  0
  -30.1321  -20.4260   17.6853 H   0  0  0  0  0  0
  -29.0086  -21.6488   18.2246 H   0  0  0  0  0  0
  -28.4097  -20.0537   17.8308 H   0  0  0  0  0  0
  -31.0198  -16.7243   22.5523 H   0  0  0  0  0  0
  -31.7103  -16.9052   21.0032 H   0  0  0  0  0  0
  -29.1244  -15.4202   21.4561 H   0  0  0  0  0  0
  1 25  1  0  0  0
  1 30  2  0  0  0
  1 86  1  0  0  0
  2  3  1  0  0  0
  2 25  1  0  0  0
  2 88  1  0  0  0
  2 89  1  0  0  0
  3  4  1  0  0  0
  3 90  1  0  0  0
  3 91  1  0  0  0
  4  5  1  0  0  0
  4 92  1  0  0  0
  4 93  1  0  0  0
  5  6  1  0  0  0
  5 26  1  0  0  0
  5 94  1  0  0  0
  6 25  1  0  0  0
  6 95  1  0  0  0
  6 96  1  0  0  0
  7  8  2  0  0  0
  7 26  1  0  0  0
  7 29  1  0  0  0
  8  9  1  0  0  0
  8 22  1  0  0  0
  9 10  1  0  0  0
  9 27  2  0  0  0
 10 11  2  0  0  0
 10 15  1  0  0  0
 11 12  1  0  0  0
 11 97  1  0  0  0
 12 13  2  0  0  0
 12 98  1  0  0  0
 13 14  1  0  0  0
 13 31  1  0  0  0
 14 15  2  0  0  0
 14 99  1  0  0  0
 15100  1  0  0  0
 16 17  2  0  0  0
 16 21  1  0  0  0
 16 31  1  0  0  0
 17 18  1  0  0  0
 17101  1  0  0  0
 18 19  2  0  0  0
 18102  1  0  0  0
 19 20  1  0  0  0
 19 24  1  0  0  0
 20 21  2  0  0  0
 20103  1  0  0  0
 21 23  1  0  0  0
 22 28  1  0  0  0
 22 32  2  0  0  0
 26 27  1  0  0  0
 28104  1  0  0  0
 28105  1  0  0  0
 29106  1  0  0  0
 29107  1  0  0  0
 33 34  1  0  0  0
 33 66  1  0  0  0
 33 70  2  0  0  0
 34 36  1  0  0  0
 34 59  1  0  0  0
 34108  1  0  0  0
 35 44  2  0  0  0
 35 45  1  0  0  0
 35 68  1  0  0  0
 36 56  1  0  0  0
 36109  1  0  0  0
 37 39  1  0  0  0
 37 47  1  0  0  0
 37 66  1  0  0  0
 37110  1  0  0  0
 38 43  2  0  0  0
 38 46  1  0  0  0
 38 47  1  0  0  0
 39 64  1  0  0  0
 39 67  2  0  0  0
 40 52  1  0  0  0
 40 53  2  0  0  0
 40 58  1  0  0  0
 41111  1  0  0  0
 41112  1  0  0  0
 41113  1  0  0  0
 41 48  1  0  0  0
 42 43  1  0  0  0
 42 66  1  0  0  0
 42114  1  0  0  0
 42115  1  0  0  0
 43 44  1  0  0  0
 44116  1  0  0  0
 45 46  2  0  0  0
 45117  1  0  0  0
 46118  1  0  0  0
 47119  1  0  0  0
 47120  1  0  0  0
 48 56  1  0  0  0
 48 65  1  0  0  0
 48121  1  0  0  0
 49 50  1  0  0  0
 49 53  1  0  0  0
 49 64  1  0  0  0
 49122  1  0  0  0
 50 51  1  0  0  0
 50123  1  0  0  0
 50124  1  0  0  0
 51 52  1  0  0  0
 51125  1  0  0  0
 51126  1  0  0  0
 52127  1  0  0  0
 52128  1  0  0  0
 53 54  1  0  0  0
 54 55  2  0  0  0
 54129  1  0  0  0
 55 57  1  0  0  0
 55130  1  0  0  0
 56 69  2  0  0  0
 57 58  2  0  0  0
 57131  1  0  0  0
 58132  1  0  0  0
 59 60  1  0  0  0
 59 61  1  0  0  0
 59 62  1  0  0  0
 60133  1  0  0  0
 60134  1  0  0  0
 60135  1  0  0  0
 61136  1  0  0  0
 61137  1  0  0  0
 61138  1  0  0  0
 62139  1  0  0  0
 62140  1  0  0  0
 62141  1  0  0  0
 63 65  1  0  0  0
 63142  1  0  0  0
 63143  1  0  0  0
 63144  1  0  0  0
 64145  1  0  0  0
 65146  1  0  0  0
 68 81  1  0  0  0
 71 75  2  0  0  0
 71 76  1  0  0  0
 71147  1  0  0  0
 72 73  2  0  0  0
 72 74  1  0  0  0
 72 82  1  0  0  0
 73 75  1  0  0  0
 73 83  1  0  0  0
 74 76  2  0  0  0
 74 84  1  0  0  0
 75 85  1  0  0  0
 76 87  1  0  0  0
 77 79  1  0  0  0
 77 81  1  0  0  0
 77148  1  0  0  0
 77149  1  0  0  0
 78 80  1  0  0  0
 78 81  1  0  0  0
 78150  1  0  0  0
 78151  1  0  0  0
 79 85  1  0  0  0
 79152  1  0  0  0
 79153  1  0  0  0
 80 85  1  0  0  0
 80154  1  0  0  0
 80155  1  0  0  0
 81156  1  0  0  0
 82157  1  0  0  0
 82158  1  0  0  0
 82159  1  0  0  0
 83160  1  0  0  0
 83161  1  0  0  0
 83162  1  0  0  0
 84 86  1  0  0  0
 84163  1  0  0  0
 84164  1  0  0  0
 86165  1  0  0  0
M  ISO  4   1 100  68 101  81 101  86 100
M  END
> <chiral flag>
0

> <version>
0

> <s_m_source_file>
/data/baiqing/PycharmProjects/Reinvent-master-3.2/result/LINK_invent/BTK/process_docking_weight1_custom_product_contain_oxygen_bond_distance_aromatic_linkinvent_7_9_3/rearranged_h_0034.sdf

> <i_m_source_file_index>
92

> <r_mmod_Potential_Energy-OPLS-2005>
3.50068426132202

> <r_mmod_Stretch_Energy-OPLS-2005>
53.6470031738281

> <r_mmod_Bend_Energy-OPLS-2005>
122.276626586914

> <r_mmod_Torsional_Energy-OPLS-2005>
268.119598388672

> <r_mmod_Improper_Torsional_Energy-OPLS-2005>
7.83335113525391

> <r_mmod_Van_der_Waal_Energy-OPLS-2005>
167.25456237793

> <r_mmod_Electrostatic_Energy-OPLS-2005>
-430.523468017578

> <r_mmod_Solvation_Energy-OPLS-2005>
-204.632049560547

> <b_mmod_Minimization_Converged-OPLS-2005>
0

> <r_mmod_RMS_Derivative-OPLS-2005>
1.23842406272888

$$$$
92
                    3D
 Structure written by MMmdl.
167176  0  0  1  0            999 V2000
  -30.6068  -14.7070   20.4885 C   0  0  0  0  0  0
  -30.4432  -12.4342   19.4628 C   0  0  0  0  0  0
  -29.5119  -12.5139   18.2316 C   0  0  0  0  0  0
  -28.0358  -12.3410   18.6433 C   0  0  0  0  0  0
  -27.6463  -13.2221   19.8599 C   0  0  2  0  0  0
  -28.6952  -13.1128   20.9910 C   0  0  0  0  0  0
  -25.2380  -13.7977   20.5542 C   0  0  0  0  0  0
  -24.1740  -13.0275   20.9222 C   0  0  0  0  0  0
  -24.6397  -11.6798   20.8793 C   0  0  0  0  0  0
  -23.9078  -10.4205   21.0435 C   0  0  0  0  0  0
  -24.3620   -9.4129   21.9215 C   0  0  0  0  0  0
  -23.6279   -8.2180   22.0770 C   0  0  0  0  0  0
  -22.4262   -8.0243   21.3547 C   0  0  0  0  0  0
  -21.9910   -9.0220   20.4650 C   0  0  0  0  0  0
  -22.7256  -10.2083   20.3069 C   0  0  0  0  0  0
  -21.6836   -6.0721   22.5282 C   0  0  0  0  0  0
  -21.4001   -6.5631   23.8214 C   0  0  0  0  0  0
  -21.3653   -5.6786   24.9179 C   0  0  0  0  0  0
  -21.6045   -4.3049   24.7231 C   0  0  0  0  0  0
  -21.8819   -3.8138   23.4352 C   0  0  0  0  0  0
  -21.9188   -4.6953   22.3407 C   0  0  0  0  0  0
  -22.7772  -13.5102   21.1868 C   0  0  0  0  0  0
  -22.1661   -4.2143   21.0984 F   0  0  0  0  0  0
  -21.5630   -3.4534   25.7743 F   0  0  0  0  0  0
  -30.0056  -13.4703   20.4230 N   0  0  0  0  0  0
  -26.2937  -12.9290   20.3304 N   0  0  0  0  0  0
  -25.9348  -11.6441   20.5832 N   0  0  0  0  0  0
  -22.0418  -12.8133   22.0451 N   0  0  0  0  0  0
  -25.3710  -15.1603   20.3587 N   0  0  0  0  0  0
  -31.7781  -14.8562   20.1284 O   0  0  0  0  0  0
  -21.6610   -6.8857   21.4244 O   0  0  0  0  0  0
  -22.3476  -14.5421   20.6712 O   0  0  0  0  0  0
  -24.6234  -31.8576   23.1977 C   0  0  0  0  0  0
  -25.9079  -32.4778   23.8314 C   0  0  1  0  0  0
  -27.2487  -27.3212   20.1391 C   0  0  0  0  0  0
  -25.5892  -33.8571   24.2260 N   0  0  0  0  0  0
  -23.4186  -30.4744   21.5395 C   0  0  2  0  0  0
  -24.8695  -28.9087   20.1261 C   0  0  0  0  0  0
  -22.7460  -29.4604   22.4944 C   0  0  0  0  0  0
  -18.0285  -28.1382   22.8499 C   0  0  0  0  0  0
  -24.1487  -36.7286   23.2642 C   0  0  0  0  0  0
  -25.9537  -30.7908   21.3631 C   0  0  0  0  0  0
  -26.0324  -29.4096   20.7225 C   0  0  0  0  0  0
  -27.2220  -28.6296   20.7112 C   0  0  0  0  0  0
  -26.0618  -26.8499   19.5407 C   0  0  0  0  0  0
  -24.8841  -27.6330   19.5295 C   0  0  0  0  0  0
  -23.6359  -29.7899   20.1615 C   0  0  0  0  0  0
  -25.4112  -36.3080   24.0334 C   0  0  1  0  0  0
  -20.5885  -28.3670   23.1300 C   0  0  2  0  0  0
  -20.6774  -26.9392   22.5418 C   0  0  0  0  0  0
  -19.5750  -26.6380   21.5214 C   0  0  0  0  0  0
  -18.1929  -26.7935   22.1622 C   0  0  0  0  0  0
  -19.1541  -28.8843   23.2903 C   0  0  0  0  0  0
  -18.9463  -30.1452   23.8905 C   0  0  0  0  0  0
  -17.6465  -30.6586   24.0564 C   0  0  0  0  0  0
  -25.9040  -34.9450   23.5102 C   0  0  0  0  0  0
  -16.5353  -29.9085   23.6331 C   0  0  0  0  0  0
  -16.7274  -28.6505   23.0348 C   0  0  0  0  0  0
  -26.4474  -31.6587   25.0681 C   0  0  0  0  0  0
  -25.3718  -31.3722   26.1417 C   0  0  0  0  0  0
  -27.0315  -30.3022   24.6102 C   0  0  0  0  0  0
  -27.6033  -32.4312   25.7461 C   0  0  0  0  0  0
  -27.5579  -37.1803   24.8469 C   0  0  0  0  0  0
  -21.4177  -29.3029   22.3700 N   0  0  0  0  0  0
  -26.4294  -37.3768   23.9409 N   0  0  0  0  0  0
  -24.6842  -31.0591   22.0911 N   0  0  0  0  0  0
  -23.4192  -28.8160   23.3030 O   0  0  0  0  0  0
  -28.4440  -26.5998   20.0591 O   0  0  0  0  0  0
  -26.5614  -34.8923   22.4673 O   0  0  0  0  0  0
  -23.5404  -32.1357   23.7323 O   0  0  0  0  0  0
  -28.6582  -19.4519   20.6179 C   0  0  0  0  0  0
  -31.0464  -17.9985   20.4933 C   0  0  0  0  0  0
  -29.8374  -20.2118   20.4470 C   0  0  0  0  0  0
  -28.6687  -18.0313   20.7610 C   0  0  0  0  0  0
  -31.0421  -19.4333   20.3959 C   0  0  0  0  0  0
  -29.8582  -17.2400   20.6743 C   0  0  0  0  0  0
  -28.5032  -23.2762   21.9941 C   0  0  0  0  0  0
  -28.6420  -22.6382   23.1746 C   0  0  0  0  0  0
  -28.1758  -24.7701   21.8736 C   0  0  0  0  0  0
  -28.4737  -23.9020   19.6694 C   0  0  0  0  0  0
  -28.6762  -25.2037   20.5090 C   0  0  1  0  0  0
  -27.3277  -17.3833   20.9880 C   0  0  0  0  0  0
  -32.3828  -20.1322   20.2314 C   0  0  0  0  0  0
  -28.9605  -21.1841   23.4400 C   0  0  0  0  0  0
  -29.8479  -21.7987   20.2789 C   0  0  0  0  0  0
  -29.7790  -15.7661   20.7995 N   0  0  0  0  0  0
  -28.6487  -22.7026   20.5922 N   0  3  1  0  0  0
  -31.4823  -12.5694   19.1574 H   0  0  0  0  0  0
  -30.3936  -11.4457   19.9219 H   0  0  0  0  0  0
  -29.7867  -11.7519   17.5008 H   0  0  0  0  0  0
  -29.6428  -13.4764   17.7344 H   0  0  0  0  0  0
  -27.8835  -11.2891   18.8872 H   0  0  0  0  0  0
  -27.3801  -12.5538   17.7981 H   0  0  0  0  0  0
  -27.6483  -14.2529   19.5048 H   0  0  0  0  0  0
  -28.7230  -12.0997   21.3943 H   0  0  0  0  0  0
  -28.4323  -13.7593   21.8297 H   0  0  0  0  0  0
  -25.2765   -9.5596   22.4797 H   0  0  0  0  0  0
  -23.9971   -7.4564   22.7492 H   0  0  0  0  0  0
  -21.0840   -8.8752   19.8953 H   0  0  0  0  0  0
  -22.3736  -10.9631   19.6176 H   0  0  0  0  0  0
  -21.1984   -7.6139   23.9718 H   0  0  0  0  0  0
  -21.1479   -6.0516   25.9082 H   0  0  0  0  0  0
  -22.0606   -2.7603   23.2852 H   0  0  0  0  0  0
  -22.4016  -11.9787   22.4834 H   0  0  0  0  0  0
  -21.1048  -13.1185   22.2669 H   0  0  0  0  0  0
  -24.5680  -15.7771   20.4174 H   0  0  0  0  0  0
  -26.1671  -15.5841   19.9044 H   0  0  0  0  0  0
  -26.7140  -32.5451   23.1060 H   0  0  0  0  0  0
  -25.0051  -33.9709   25.0415 H   0  0  0  0  0  0
  -22.7129  -31.2940   21.3872 H   0  0  0  0  0  0
  -23.3754  -35.9613   23.3305 H   0  0  0  0  0  0
  -24.3579  -36.8897   22.2057 H   0  0  0  0  0  0
  -23.7243  -37.6492   23.6656 H   0  0  0  0  0  0
  -26.0735  -31.5462   20.5847 H   0  0  0  0  0  0
  -26.8387  -30.8527   21.9845 H   0  0  0  0  0  0
  -28.1267  -29.0267   21.1510 H   0  0  0  0  0  0
  -26.0486  -25.8818   19.0606 H   0  0  0  0  0  0
  -23.9908  -27.2439   19.0606 H   0  0  0  0  0  0
  -23.7553  -30.5556   19.3940 H   0  0  0  0  0  0
  -22.7582  -29.2126   19.8651 H   0  0  0  0  0  0
  -25.1301  -36.1924   25.0828 H   0  0  0  0  0  0
  -20.9985  -28.3227   24.1414 H   0  0  0  0  0  0
  -20.5663  -26.2265   23.3609 H   0  0  0  0  0  0
  -21.6646  -26.7416   22.1208 H   0  0  0  0  0  0
  -19.6902  -25.6292   21.1227 H   0  0  0  0  0  0
  -19.6698  -27.3209   20.6763 H   0  0  0  0  0  0
  -17.4204  -26.6692   21.4017 H   0  0  0  0  0  0
  -18.0320  -26.0075   22.9013 H   0  0  0  0  0  0
  -19.7937  -30.7275   24.2270 H   0  0  0  0  0  0
  -17.5013  -31.6268   24.5162 H   0  0  0  0  0  0
  -15.5352  -30.2986   23.7658 H   0  0  0  0  0  0
  -15.8675  -28.0828   22.7048 H   0  0  0  0  0  0
  -24.5898  -30.7063   25.7749 H   0  0  0  0  0  0
  -24.8906  -32.2892   26.4826 H   0  0  0  0  0  0
  -25.8050  -30.8917   27.0197 H   0  0  0  0  0  0
  -26.2879  -29.6783   24.1130 H   0  0  0  0  0  0
  -27.4052  -29.7253   25.4571 H   0  0  0  0  0  0
  -27.8716  -30.4336   23.9280 H   0  0  0  0  0  0
  -27.2645  -33.3612   26.2033 H   0  0  0  0  0  0
  -28.3853  -32.6867   25.0301 H   0  0  0  0  0  0
  -28.0681  -31.8438   26.5389 H   0  0  0  0  0  0
  -28.2601  -38.0096   24.7509 H   0  0  0  0  0  0
  -28.1073  -36.2629   24.6303 H   0  0  0  0  0  0
  -27.2296  -37.1459   25.8872 H   0  0  0  0  0  0
  -20.9346  -29.8747   21.6912 H   0  0  0  0  0  0
  -26.0177  -38.2839   24.1408 H   0  0  0  0  0  0
  -27.7075  -19.9641   20.6585 H   0  0  0  0  0  0
  -31.9902  -17.4750   20.4380 H   0  0  0  0  0  0
  -28.4958  -23.2238   24.0715 H   0  0  0  0  0  0
  -28.6519  -25.3446   22.6680 H   0  0  0  0  0  0
  -27.0985  -24.9118   21.9561 H   0  0  0  0  0  0
  -29.1418  -23.8821   18.8087 H   0  0  0  0  0  0
  -27.4563  -23.8786   19.2799 H   0  0  0  0  0  0
  -29.7606  -25.2362   20.6311 H   0  0  0  0  0  0
  -26.6573  -18.0442   21.5382 H   0  0  0  0  0  0
  -27.4035  -16.4591   21.5594 H   0  0  0  0  0  0
  -26.8806  -17.1909   20.0147 H   0  0  0  0  0  0
  -33.1889  -19.4207   20.0498 H   0  0  0  0  0  0
  -32.6334  -20.6893   21.1346 H   0  0  0  0  0  0
  -32.3670  -20.8258   19.3904 H   0  0  0  0  0  0
  -28.1608  -20.5392   23.0786 H   0  0  0  0  0  0
  -29.0523  -21.0207   24.5145 H   0  0  0  0  0  0
  -29.9090  -20.8929   22.9929 H   0  0  0  0  0  0
  -30.0966  -21.9404   19.2275 H   0  0  0  0  0  0
  -30.6981  -22.2038   20.8267 H   0  0  0  0  0  0
  -28.8616  -15.4388   21.0556 H   0  0  0  0  0  0
  -27.8456  -22.1219   20.4071 H   0  0  0  0  0  0
  1 25  1  0  0  0
  1 30  2  0  0  0
  1 86  1  0  0  0
  2  3  1  0  0  0
  2 25  1  0  0  0
  2 88  1  0  0  0
  2 89  1  0  0  0
  3  4  1  0  0  0
  3 90  1  0  0  0
  3 91  1  0  0  0
  4  5  1  0  0  0
  4 92  1  0  0  0
  4 93  1  0  0  0
  5  6  1  0  0  0
  5 26  1  0  0  0
  5 94  1  0  0  0
  6 25  1  0  0  0
  6 95  1  0  0  0
  6 96  1  0  0  0
  7  8  2  0  0  0
  7 26  1  0  0  0
  7 29  1  0  0  0
  8  9  1  0  0  0
  8 22  1  0  0  0
  9 10  1  0  0  0
  9 27  2  0  0  0
 10 11  2  0  0  0
 10 15  1  0  0  0
 11 12  1  0  0  0
 11 97  1  0  0  0
 12 13  2  0  0  0
 12 98  1  0  0  0
 13 14  1  0  0  0
 13 31  1  0  0  0
 14 15  2  0  0  0
 14 99  1  0  0  0
 15100  1  0  0  0
 16 17  2  0  0  0
 16 21  1  0  0  0
 16 31  1  0  0  0
 17 18  1  0  0  0
 17101  1  0  0  0
 18 19  2  0  0  0
 18102  1  0  0  0
 19 20  1  0  0  0
 19 24  1  0  0  0
 20 21  2  0  0  0
 20103  1  0  0  0
 21 23  1  0  0  0
 22 28  1  0  0  0
 22 32  2  0  0  0
 26 27  1  0  0  0
 28104  1  0  0  0
 28105  1  0  0  0
 29106  1  0  0  0
 29107  1  0  0  0
 33 34  1  0  0  0
 33 66  1  0  0  0
 33 70  2  0  0  0
 34 36  1  0  0  0
 34 59  1  0  0  0
 34108  1  0  0  0
 35 44  2  0  0  0
 35 45  1  0  0  0
 35 68  1  0  0  0
 36 56  1  0  0  0
 36109  1  0  0  0
 37 39  1  0  0  0
 37 47  1  0  0  0
 37 66  1  0  0  0
 37110  1  0  0  0
 38 43  2  0  0  0
 38 46  1  0  0  0
 38 47  1  0  0  0
 39 64  1  0  0  0
 39 67  2  0  0  0
 40 52  1  0  0  0
 40 53  2  0  0  0
 40 58  1  0  0  0
 41111  1  0  0  0
 41112  1  0  0  0
 41113  1  0  0  0
 41 48  1  0  0  0
 42 43  1  0  0  0
 42 66  1  0  0  0
 42114  1  0  0  0
 42115  1  0  0  0
 43 44  1  0  0  0
 44116  1  0  0  0
 45 46  2  0  0  0
 45117  1  0  0  0
 46118  1  0  0  0
 47119  1  0  0  0
 47120  1  0  0  0
 48 56  1  0  0  0
 48 65  1  0  0  0
 48121  1  0  0  0
 49 50  1  0  0  0
 49 53  1  0  0  0
 49 64  1  0  0  0
 49122  1  0  0  0
 50 51  1  0  0  0
 50123  1  0  0  0
 50124  1  0  0  0
 51 52  1  0  0  0
 51125  1  0  0  0
 51126  1  0  0  0
 52127  1  0  0  0
 52128  1  0  0  0
 53 54  1  0  0  0
 54 55  2  0  0  0
 54129  1  0  0  0
 55 57  1  0  0  0
 55130  1  0  0  0
 56 69  2  0  0  0
 57 58  2  0  0  0
 57131  1  0  0  0
 58132  1  0  0  0
 59 60  1  0  0  0
 59 61  1  0  0  0
 59 62  1  0  0  0
 60133  1  0  0  0
 60134  1  0  0  0
 60135  1  0  0  0
 61136  1  0  0  0
 61137  1  0  0  0
 61138  1  0  0  0
 62139  1  0  0  0
 62140  1  0  0  0
 62141  1  0  0  0
 63 65  1  0  0  0
 63142  1  0  0  0
 63143  1  0  0  0
 63144  1  0  0  0
 64145  1  0  0  0
 65146  1  0  0  0
 68 81  1  0  0  0
 71 73  2  0  0  0
 71 74  1  0  0  0
 71147  1  0  0  0
 72 75  2  0  0  0
 72 76  1  0  0  0
 72148  1  0  0  0
 73 75  1  0  0  0
 73 85  1  0  0  0
 74 76  2  0  0  0
 74 82  1  0  0  0
 75 83  1  0  0  0
 76 86  1  0  0  0
 77 78  2  0  0  0
 77 79  1  0  0  0
 77 87  1  0  0  0
 78 84  1  0  0  0
 78149  1  0  0  0
 79 81  1  0  0  0
 79150  1  0  0  0
 79151  1  0  0  0
 80 81  1  0  0  0
 80 87  1  0  0  0
 80152  1  0  0  0
 80153  1  0  0  0
 81154  1  0  0  0
 82155  1  0  0  0
 82156  1  0  0  0
 82157  1  0  0  0
 83158  1  0  0  0
 83159  1  0  0  0
 83160  1  0  0  0
 84161  1  0  0  0
 84162  1  0  0  0
 84163  1  0  0  0
 85164  1  0  0  0
 85165  1  0  0  0
 85 87  1  0  0  0
 86166  1  0  0  0
 87167  1  0  0  0
M  CHG  1  87   1
M  ISO  4   1 100  68 101  81 101  86 100
M  END
> <chiral flag>
0

> <version>
0

> <s_m_source_file>
/data/baiqing/PycharmProjects/Reinvent-master-3.2/result/LINK_invent/BTK/process_docking_weight1_custom_product_contain_oxygen_bond_distance_aromatic_linkinvent_7_9_3/rearranged_h_0034.sdf

> <i_m_source_file_index>
93

> <r_mmod_Potential_Energy-OPLS-2005>
65.6894302368164

> <r_mmod_Stretch_Energy-OPLS-2005>
93.5884552001953

> <r_mmod_Bend_Energy-OPLS-2005>
235.723770141602

> <r_mmod_Torsional_Energy-OPLS-2005>
258.936492919922

> <r_mmod_Improper_Torsional_Energy-OPLS-2005>
5.47296190261841

> <r_mmod_Van_der_Waal_Energy-OPLS-2005>
133.086868286133

> <r_mmod_Electrostatic_Energy-OPLS-2005>
-294.226867675781

> <r_mmod_Solvation_Energy-OPLS-2005>
-422.041809082031

> <b_mmod_Minimization_Converged-OPLS-2005>
0

> <r_mmod_RMS_Derivative-OPLS-2005>
1.19751679897308

$$$$
