0
                    3D
 Structure written by MMmdl.
155164  0  0  1  0            999 V2000
  -30.6267  -14.6392   20.5050 C   0  0  0  0  0  0
  -30.4428  -12.3931   19.4555 C   0  0  0  0  0  0
  -29.5088  -12.5032   18.2295 C   0  0  0  0  0  0
  -28.0339  -12.3357   18.6467 C   0  0  0  0  0  0
  -27.6555  -13.2151   19.8681 C   0  0  2  0  0  0
  -28.7011  -13.0714   20.9976 C   0  0  0  0  0  0
  -25.2560  -13.8163   20.5698 C   0  0  0  0  0  0
  -24.1817  -13.0426   20.9165 C   0  0  0  0  0  0
  -24.6392  -11.6900   20.8740 C   0  0  0  0  0  0
  -23.9064  -10.4284   21.0403 C   0  0  0  0  0  0
  -24.3618   -9.4202   21.9187 C   0  0  0  0  0  0
  -23.6289   -8.2241   22.0760 C   0  0  0  0  0  0
  -22.4274   -8.0276   21.3547 C   0  0  0  0  0  0
  -21.9909   -9.0249   20.4652 C   0  0  0  0  0  0
  -22.7237  -10.2125   20.3054 C   0  0  0  0  0  0
  -21.6847   -6.0729   22.5281 C   0  0  0  0  0  0
  -21.4002   -6.5636   23.8213 C   0  0  0  0  0  0
  -21.3663   -5.6790   24.9177 C   0  0  0  0  0  0
  -21.6045   -4.3050   24.7226 C   0  0  0  0  0  0
  -21.8817   -3.8143   23.4348 C   0  0  0  0  0  0
  -21.9191   -4.6959   22.3405 C   0  0  0  0  0  0
  -22.7841  -13.5227   21.1839 C   0  0  0  0  0  0
  -22.1659   -4.2145   21.0979 F   0  0  0  0  0  0
  -21.5640   -3.4535   25.7741 F   0  0  0  0  0  0
  -30.0186  -13.4130   20.4349 N   0  0  0  0  0  0
  -26.3004  -12.9348   20.3371 N   0  0  0  0  0  0
  -25.9326  -11.6499   20.5790 N   0  0  0  0  0  0
  -22.0487  -12.8228   22.0401 N   0  0  0  0  0  0
  -25.4255  -15.1890   20.4174 N   0  0  0  0  0  0
  -31.7851  -14.8053   20.1122 O   0  0  0  0  0  0
  -21.6637   -6.8874   21.4242 O   0  0  0  0  0  0
  -22.3529  -14.5545   20.6710 O   0  0  0  0  0  0
  -24.6254  -31.8592   23.2010 C   0  0  0  0  0  0
  -25.9109  -32.4782   23.8329 C   0  0  1  0  0  0
  -27.2325  -27.3239   20.1132 C   0  0  0  0  0  0
  -25.5930  -33.8580   24.2253 N   0  0  0  0  0  0
  -23.4196  -30.4833   21.5436 C   0  0  2  0  0  0
  -24.8670  -28.9380   20.1102 C   0  0  0  0  0  0
  -22.7474  -29.4628   22.4932 C   0  0  0  0  0  0
  -18.0292  -28.1391   22.8490 C   0  0  0  0  0  0
  -24.1481  -36.7274   23.2637 C   0  0  0  0  0  0
  -25.9593  -30.7920   21.3703 C   0  0  0  0  0  0
  -26.0356  -29.4191   20.7141 C   0  0  0  0  0  0
  -27.2204  -28.6245   20.7052 C   0  0  0  0  0  0
  -26.0378  -26.8980   19.4840 C   0  0  0  0  0  0
  -24.8700  -27.6825   19.4861 C   0  0  0  0  0  0
  -23.6343  -29.8168   20.1597 C   0  0  0  0  0  0
  -25.4111  -36.3075   24.0328 C   0  0  1  0  0  0
  -20.5896  -28.3692   23.1275 C   0  0  2  0  0  0
  -20.6779  -26.9419   22.5394 C   0  0  0  0  0  0
  -19.5755  -26.6393   21.5203 C   0  0  0  0  0  0
  -18.1936  -26.7935   22.1621 C   0  0  0  0  0  0
  -19.1547  -28.8858   23.2881 C   0  0  0  0  0  0
  -18.9482  -30.1467   23.8885 C   0  0  0  0  0  0
  -17.6483  -30.6591   24.0582 C   0  0  0  0  0  0
  -25.9057  -34.9456   23.5085 C   0  0  0  0  0  0
  -16.5371  -29.9099   23.6343 C   0  0  0  0  0  0
  -16.7282  -28.6520   23.0350 C   0  0  0  0  0  0
  -26.4494  -31.6595   25.0695 C   0  0  0  0  0  0
  -25.3727  -31.3742   26.1425 C   0  0  0  0  0  0
  -27.0345  -30.3030   24.6122 C   0  0  0  0  0  0
  -27.6042  -32.4347   25.7473 C   0  0  0  0  0  0
  -27.5576  -37.1796   24.8482 C   0  0  0  0  0  0
  -21.4188  -29.3050   22.3674 N   0  0  0  0  0  0
  -26.4278  -37.3782   23.9430 N   0  0  0  0  0  0
  -24.6868  -31.0612   22.0959 N   0  0  0  0  0  0
  -23.4199  -28.8171   23.3010 O   0  0  0  0  0  0
  -28.3540  -26.4773   20.1669 O   0  0  0  0  0  0
  -26.5632  -34.8936   22.4660 O   0  0  0  0  0  0
  -23.5419  -32.1385   23.7344 O   0  0  0  0  0  0
  -28.6925  -19.3057   20.8797 C   0  0  0  0  0  0
  -31.0273  -17.8800   20.3039 C   0  0  0  0  0  0
  -29.8120  -20.0787   20.4536 C   0  0  0  0  0  0
  -29.8974  -17.1298   20.7194 C   0  0  0  0  0  0
  -28.7353  -17.8870   21.0074 C   0  0  0  0  0  0
  -30.9883  -19.3036   20.1781 C   0  0  0  0  0  0
  -28.8130  -22.4681   20.6729 C   0  0  0  0  0  0
  -30.4092  -23.7754   19.5097 C   0  0  0  0  0  0
  -30.8848  -22.3203   19.7200 C   0  0  0  0  0  0
  -29.2361  -23.9644   20.4702 C   0  0  1  0  0  0
  -28.1271  -25.0186   20.0196 C   0  0  0  0  0  0
  -29.7726  -21.5594   20.3035 N   0  0  0  0  0  0
  -29.8191  -15.6767   20.8792 N   0  0  0  0  0  0
  -27.7069  -22.1870   21.1411 O   0  0  0  0  0  0
  -27.6215  -17.2302   21.4119 F   0  0  0  0  0  0
  -32.1346  -19.9099   19.7899 F   0  0  0  0  0  0
  -31.4836  -12.5215   19.1521 H   0  0  0  0  0  0
  -30.3826  -11.3978   19.8995 H   0  0  0  0  0  0
  -29.7744  -11.7478   17.4881 H   0  0  0  0  0  0
  -29.6453  -13.4707   17.7432 H   0  0  0  0  0  0
  -27.8840  -11.2836   18.8940 H   0  0  0  0  0  0
  -27.3718  -12.5454   17.8062 H   0  0  0  0  0  0
  -27.6720  -14.2498   19.5234 H   0  0  0  0  0  0
  -28.7126  -12.0502   21.3819 H   0  0  0  0  0  0
  -28.4450  -13.7023   21.8498 H   0  0  0  0  0  0
  -25.2760   -9.5678   22.4766 H   0  0  0  0  0  0
  -23.9994   -7.4632   22.7476 H   0  0  0  0  0  0
  -21.0842   -8.8762   19.8956 H   0  0  0  0  0  0
  -22.3696  -10.9663   19.6163 H   0  0  0  0  0  0
  -21.1978   -7.6143   23.9714 H   0  0  0  0  0  0
  -21.1492   -6.0521   25.9082 H   0  0  0  0  0  0
  -22.0595   -2.7602   23.2846 H   0  0  0  0  0  0
  -22.4085  -11.9867   22.4764 H   0  0  0  0  0  0
  -21.1122  -13.1280   22.2640 H   0  0  0  0  0  0
  -24.6643  -15.8419   20.5664 H   0  0  0  0  0  0
  -26.3039  -15.6516   20.2213 H   0  0  0  0  0  0
  -26.7168  -32.5451   23.1068 H   0  0  0  0  0  0
  -25.0128  -33.9734   25.0430 H   0  0  0  0  0  0
  -22.7139  -31.3040   21.4000 H   0  0  0  0  0  0
  -23.3763  -35.9589   23.3294 H   0  0  0  0  0  0
  -24.3567  -36.8889   22.2052 H   0  0  0  0  0  0
  -23.7205  -37.6461   23.6658 H   0  0  0  0  0  0
  -26.0864  -31.5536   20.5997 H   0  0  0  0  0  0
  -26.8402  -30.8430   21.9974 H   0  0  0  0  0  0
  -28.1165  -28.9909   21.1870 H   0  0  0  0  0  0
  -25.9761  -25.9411   18.9885 H   0  0  0  0  0  0
  -23.9762  -27.3072   19.0057 H   0  0  0  0  0  0
  -23.7544  -30.5925   19.4025 H   0  0  0  0  0  0
  -22.7545  -29.2458   19.8574 H   0  0  0  0  0  0
  -25.1287  -36.1899   25.0815 H   0  0  0  0  0  0
  -20.9997  -28.3247   24.1394 H   0  0  0  0  0  0
  -20.5675  -26.2309   23.3593 H   0  0  0  0  0  0
  -21.6648  -26.7447   22.1188 H   0  0  0  0  0  0
  -19.6923  -25.6304   21.1235 H   0  0  0  0  0  0
  -19.6687  -27.3205   20.6731 H   0  0  0  0  0  0
  -17.4208  -26.6696   21.4023 H   0  0  0  0  0  0
  -18.0341  -26.0058   22.8998 H   0  0  0  0  0  0
  -19.7964  -30.7301   24.2216 H   0  0  0  0  0  0
  -17.5047  -31.6271   24.5194 H   0  0  0  0  0  0
  -15.5372  -30.3018   23.7672 H   0  0  0  0  0  0
  -15.8678  -28.0858   22.7052 H   0  0  0  0  0  0
  -24.5905  -30.7088   25.7758 H   0  0  0  0  0  0
  -24.8936  -32.2925   26.4832 H   0  0  0  0  0  0
  -25.8050  -30.8935   27.0210 H   0  0  0  0  0  0
  -26.2914  -29.6778   24.1163 H   0  0  0  0  0  0
  -27.4100  -29.7271   25.4590 H   0  0  0  0  0  0
  -27.8746  -30.4346   23.9298 H   0  0  0  0  0  0
  -27.2632  -33.3662   26.2001 H   0  0  0  0  0  0
  -28.3871  -32.6882   25.0314 H   0  0  0  0  0  0
  -28.0679  -31.8508   26.5427 H   0  0  0  0  0  0
  -28.2591  -38.0101   24.7544 H   0  0  0  0  0  0
  -28.1068  -36.2634   24.6268 H   0  0  0  0  0  0
  -27.2310  -37.1386   25.8890 H   0  0  0  0  0  0
  -20.9355  -29.8791   21.6907 H   0  0  0  0  0  0
  -26.0146  -38.2843   24.1464 H   0  0  0  0  0  0
  -27.7556  -19.7816   21.1178 H   0  0  0  0  0  0
  -31.9536  -17.3751   20.0760 H   0  0  0  0  0  0
  -30.0786  -23.9088   18.4785 H   0  0  0  0  0  0
  -31.2086  -24.4947   19.6897 H   0  0  0  0  0  0
  -31.7300  -22.2991   20.4097 H   0  0  0  0  0  0
  -31.2091  -21.8885   18.7724 H   0  0  0  0  0  0
  -29.6209  -24.2802   21.4401 H   0  0  0  0  0  0
  -27.2268  -24.7763   20.5869 H   0  0  0  0  0  0
  -27.8904  -24.8197   18.9739 H   0  0  0  0  0  0
  -28.9146  -15.3675   21.2042 H   0  0  0  0  0  0
  1 25  1  0  0  0
  1 30  2  0  0  0
  1 83  1  0  0  0
  2  3  1  0  0  0
  2 25  1  0  0  0
  2 87  1  0  0  0
  2 88  1  0  0  0
  3  4  1  0  0  0
  3 89  1  0  0  0
  3 90  1  0  0  0
  4  5  1  0  0  0
  4 91  1  0  0  0
  4 92  1  0  0  0
  5  6  1  0  0  0
  5 26  1  0  0  0
  5 93  1  0  0  0
  6 25  1  0  0  0
  6 94  1  0  0  0
  6 95  1  0  0  0
  7  8  2  0  0  0
  7 26  1  0  0  0
  7 29  1  0  0  0
  8  9  1  0  0  0
  8 22  1  0  0  0
  9 10  1  0  0  0
  9 27  2  0  0  0
 10 11  2  0  0  0
 10 15  1  0  0  0
 11 12  1  0  0  0
 11 96  1  0  0  0
 12 13  2  0  0  0
 12 97  1  0  0  0
 13 14  1  0  0  0
 13 31  1  0  0  0
 14 15  2  0  0  0
 14 98  1  0  0  0
 15 99  1  0  0  0
 16 17  2  0  0  0
 16 21  1  0  0  0
 16 31  1  0  0  0
 17 18  1  0  0  0
 17100  1  0  0  0
 18 19  2  0  0  0
 18101  1  0  0  0
 19 20  1  0  0  0
 19 24  1  0  0  0
 20 21  2  0  0  0
 20102  1  0  0  0
 21 23  1  0  0  0
 22 28  1  0  0  0
 22 32  2  0  0  0
 26 27  1  0  0  0
 28103  1  0  0  0
 28104  1  0  0  0
 29105  1  0  0  0
 29106  1  0  0  0
 33 34  1  0  0  0
 33 66  1  0  0  0
 33 70  2  0  0  0
 34 36  1  0  0  0
 34 59  1  0  0  0
 34107  1  0  0  0
 35 44  2  0  0  0
 35 45  1  0  0  0
 35 68  1  0  0  0
 36 56  1  0  0  0
 36108  1  0  0  0
 37 39  1  0  0  0
 37 47  1  0  0  0
 37 66  1  0  0  0
 37109  1  0  0  0
 38 43  2  0  0  0
 38 46  1  0  0  0
 38 47  1  0  0  0
 39 64  1  0  0  0
 39 67  2  0  0  0
 40 52  1  0  0  0
 40 53  2  0  0  0
 40 58  1  0  0  0
 41110  1  0  0  0
 41111  1  0  0  0
 41112  1  0  0  0
 41 48  1  0  0  0
 42 43  1  0  0  0
 42 66  1  0  0  0
 42113  1  0  0  0
 42114  1  0  0  0
 43 44  1  0  0  0
 44115  1  0  0  0
 45 46  2  0  0  0
 45116  1  0  0  0
 46117  1  0  0  0
 47118  1  0  0  0
 47119  1  0  0  0
 48 56  1  0  0  0
 48 65  1  0  0  0
 48120  1  0  0  0
 49 50  1  0  0  0
 49 53  1  0  0  0
 49 64  1  0  0  0
 49121  1  0  0  0
 50 51  1  0  0  0
 50122  1  0  0  0
 50123  1  0  0  0
 51 52  1  0  0  0
 51124  1  0  0  0
 51125  1  0  0  0
 52126  1  0  0  0
 52127  1  0  0  0
 53 54  1  0  0  0
 54 55  2  0  0  0
 54128  1  0  0  0
 55 57  1  0  0  0
 55129  1  0  0  0
 56 69  2  0  0  0
 57 58  2  0  0  0
 57130  1  0  0  0
 58131  1  0  0  0
 59 60  1  0  0  0
 59 61  1  0  0  0
 59 62  1  0  0  0
 60132  1  0  0  0
 60133  1  0  0  0
 60134  1  0  0  0
 61135  1  0  0  0
 61136  1  0  0  0
 61137  1  0  0  0
 62138  1  0  0  0
 62139  1  0  0  0
 62140  1  0  0  0
 63 65  1  0  0  0
 63141  1  0  0  0
 63142  1  0  0  0
 63143  1  0  0  0
 64144  1  0  0  0
 65145  1  0  0  0
 68 81  1  0  0  0
 71 73  2  0  0  0
 71 75  1  0  0  0
 71146  1  0  0  0
 72 74  1  0  0  0
 72 76  2  0  0  0
 72147  1  0  0  0
 73 76  1  0  0  0
 73 82  1  0  0  0
 74 75  2  0  0  0
 74 83  1  0  0  0
 75 85  1  0  0  0
 76 86  1  0  0  0
 77 80  1  0  0  0
 77 82  1  0  0  0
 77 84  2  0  0  0
 78 79  1  0  0  0
 78 80  1  0  0  0
 78148  1  0  0  0
 78149  1  0  0  0
 79 82  1  0  0  0
 79150  1  0  0  0
 79151  1  0  0  0
 80 81  1  0  0  0
 80152  1  0  0  0
 81153  1  0  0  0
 81154  1  0  0  0
 83155  1  0  0  0
M  ISO  4   1 100  68 101  81 101  83 100
M  END
> <chiral flag>
0

> <version>
0

> <s_m_source_file>
/data/baiqing/PycharmProjects/Reinvent-master-3.2/result/LINK_invent/BTK/process_docking_weight1_custom_product_contain_oxygen_bond_distance_aromatic_linkinvent_7_9_3/rearranged_h_0071.sdf

> <i_m_source_file_index>
1

> <r_mmod_Potential_Energy-OPLS-2005>
87.1417617797852

> <r_mmod_Stretch_Energy-OPLS-2005>
82.6937789916992

> <r_mmod_Bend_Energy-OPLS-2005>
170.257904052734

> <r_mmod_Torsional_Energy-OPLS-2005>
252.325698852539

> <r_mmod_Improper_Torsional_Energy-OPLS-2005>
3.86073160171509

> <r_mmod_Van_der_Waal_Energy-OPLS-2005>
152.293182373047

> <r_mmod_Electrostatic_Energy-OPLS-2005>
-416.605163574219

> <r_mmod_Solvation_Energy-OPLS-2005>
-205.30500793457

> <b_mmod_Minimization_Converged-OPLS-2005>
0

> <r_mmod_RMS_Derivative-OPLS-2005>
1.43809568881989

$$$$
1
                    3D
 Structure written by MMmdl.
152160  0  0  1  0            999 V2000
  -30.4664  -15.0103   20.4245 C   0  0  0  0  0  0
  -30.4505  -12.6280   19.5106 C   0  0  0  0  0  0
  -29.5316  -12.5495   18.2664 C   0  0  0  0  0  0
  -28.0654  -12.3197   18.6786 C   0  0  0  0  0  0
  -27.6321  -13.2456   19.8435 C   0  0  2  0  0  0
  -28.6689  -13.2659   20.9874 C   0  0  0  0  0  0
  -25.2469  -13.8211   20.5701 C   0  0  0  0  0  0
  -24.1784  -13.0447   20.9236 C   0  0  0  0  0  0
  -24.6394  -11.6928   20.8764 C   0  0  0  0  0  0
  -23.9070  -10.4301   21.0422 C   0  0  0  0  0  0
  -24.3617   -9.4212   21.9196 C   0  0  0  0  0  0
  -23.6292   -8.2246   22.0763 C   0  0  0  0  0  0
  -22.4270   -8.0288   21.3552 C   0  0  0  0  0  0
  -21.9907   -9.0266   20.4658 C   0  0  0  0  0  0
  -22.7241  -10.2145   20.3072 C   0  0  0  0  0  0
  -21.6859   -6.0737   22.5281 C   0  0  0  0  0  0
  -21.4016   -6.5641   23.8213 C   0  0  0  0  0  0
  -21.3660   -5.6792   24.9175 C   0  0  0  0  0  0
  -21.6048   -4.3053   24.7230 C   0  0  0  0  0  0
  -21.8817   -3.8146   23.4348 C   0  0  0  0  0  0
  -21.9195   -4.6964   22.3405 C   0  0  0  0  0  0
  -22.7811  -13.5238   21.1887 C   0  0  0  0  0  0
  -22.1669   -4.2152   21.0982 F   0  0  0  0  0  0
  -21.5624   -3.4533   25.7738 F   0  0  0  0  0  0
  -29.9409  -13.7124   20.4036 N   0  0  0  0  0  0
  -26.2887  -12.9428   20.3233 N   0  0  0  0  0  0
  -25.9318  -11.6565   20.5723 N   0  0  0  0  0  0
  -22.0445  -12.8236   22.0434 N   0  0  0  0  0  0
  -25.4136  -15.1939   20.4113 N   0  0  0  0  0  0
  -31.6501  -15.1328   20.0844 O   0  0  0  0  0  0
  -21.6641   -6.8881   21.4242 O   0  0  0  0  0  0
  -22.3502  -14.5545   20.6729 O   0  0  0  0  0  0
  -24.6438  -31.8382   23.1810 C   0  0  0  0  0  0
  -25.9201  -32.4658   23.8218 C   0  0  1  0  0  0
  -27.2283  -27.0904   20.1679 C   0  0  0  0  0  0
  -25.5936  -33.8463   24.2145 N   0  0  0  0  0  0
  -23.4491  -30.4505   21.5268 C   0  0  2  0  0  0
  -24.8978  -28.8512   20.1167 C   0  0  0  0  0  0
  -22.7564  -29.4504   22.4853 C   0  0  0  0  0  0
  -18.0299  -28.1397   22.8465 C   0  0  0  0  0  0
  -24.1490  -36.7245   23.2642 C   0  0  0  0  0  0
  -26.0027  -30.6957   21.3825 C   0  0  0  0  0  0
  -26.0701  -29.2960   20.7377 C   0  0  0  0  0  0
  -27.2264  -28.4302   20.7444 C   0  0  0  0  0  0
  -26.0279  -26.7408   19.5141 C   0  0  0  0  0  0
  -24.8905  -27.5892   19.4920 C   0  0  0  0  0  0
  -23.6777  -29.7628   20.1511 C   0  0  0  0  0  0
  -25.4124  -36.3007   24.0305 C   0  0  1  0  0  0
  -20.5907  -28.3716   23.1251 C   0  0  2  0  0  0
  -20.6781  -26.9410   22.5450 C   0  0  0  0  0  0
  -19.5782  -26.6373   21.5229 C   0  0  0  0  0  0
  -18.1943  -26.7941   22.1596 C   0  0  0  0  0  0
  -19.1555  -28.8876   23.2846 C   0  0  0  0  0  0
  -18.9466  -30.1462   23.8883 C   0  0  0  0  0  0
  -17.6465  -30.6584   24.0555 C   0  0  0  0  0  0
  -25.9078  -34.9383   23.5044 C   0  0  0  0  0  0
  -16.5356  -29.9080   23.6328 C   0  0  0  0  0  0
  -16.7281  -28.6499   23.0348 C   0  0  0  0  0  0
  -26.4520  -31.6547   25.0682 C   0  0  0  0  0  0
  -25.3695  -31.3762   26.1377 C   0  0  0  0  0  0
  -27.0380  -30.2935   24.6283 C   0  0  0  0  0  0
  -27.6043  -32.4323   25.7475 C   0  0  0  0  0  0
  -27.5572  -37.1781   24.8464 C   0  0  0  0  0  0
  -21.4257  -29.3024   22.3609 N   0  0  0  0  0  0
  -26.4286  -37.3722   23.9404 N   0  0  0  0  0  0
  -24.7184  -31.0193   22.0854 N   0  0  0  0  0  0
  -23.4195  -28.8067   23.3021 O   0  0  0  0  0  0
  -28.3758  -26.2109   20.1945 O   0  0  0  0  0  0
  -26.5677  -34.8892   22.4633 O   0  0  0  0  0  0
  -23.5551  -32.1286   23.7014 O   0  0  0  0  0  0
  -28.5342  -19.8553   21.5968 C   0  0  0  0  0  0
  -29.3568  -19.9676   19.4138 C   0  0  0  0  0  0
  -28.9046  -18.4447   21.6686 C   0  0  0  0  0  0
  -29.7485  -18.5453   19.4910 C   0  0  0  0  0  0
  -28.7059  -20.7301   20.4621 C   0  0  0  0  0  0
  -29.5166  -17.6683   20.6206 C   0  0  0  0  0  0
  -27.7919  -22.0519   20.3086 C   0  0  0  0  0  0
  -28.7631  -24.6614   20.2158 C   0  0  0  0  0  0
  -25.2397  -22.3125   20.1089 C   0  0  0  0  0  0
  -29.6053  -16.1161   20.7199 N   0  0  0  0  0  0
  -27.7936  -23.4989   20.2375 N   0  0  0  0  0  0
  -26.5245  -21.5971   20.2487 N   0  3  0  0  0  0
  -29.9558  -24.3482   20.2250 O   0  0  0  0  0  0
  -31.4800  -12.8108   19.2002 H   0  0  0  0  0  0
  -30.4663  -11.6746   20.0403 H   0  0  0  0  0  0
  -29.8628  -11.7541   17.5978 H   0  0  0  0  0  0
  -29.6076  -13.4776   17.6977 H   0  0  0  0  0  0
  -27.9686  -11.2768   18.9828 H   0  0  0  0  0  0
  -27.4045  -12.4520   17.8213 H   0  0  0  0  0  0
  -27.5968  -14.2498   19.4191 H   0  0  0  0  0  0
  -28.7692  -12.2823   21.4490 H   0  0  0  0  0  0
  -28.3504  -13.9429   21.7809 H   0  0  0  0  0  0
  -25.2763   -9.5687   22.4776 H   0  0  0  0  0  0
  -24.0006   -7.4633   22.7476 H   0  0  0  0  0  0
  -21.0841   -8.8794   19.8961 H   0  0  0  0  0  0
  -22.3702  -10.9691   19.6189 H   0  0  0  0  0  0
  -21.2002   -7.6147   23.9720 H   0  0  0  0  0  0
  -21.1486   -6.0518   25.9080 H   0  0  0  0  0  0
  -22.0588   -2.7608   23.2849 H   0  0  0  0  0  0
  -22.4050  -11.9907   22.4845 H   0  0  0  0  0  0
  -21.1073  -13.1287   22.2638 H   0  0  0  0  0  0
  -24.6329  -15.8354   20.5020 H   0  0  0  0  0  0
  -26.2383  -15.6306   20.0216 H   0  0  0  0  0  0
  -26.7261  -32.5249   23.0934 H   0  0  0  0  0  0
  -25.0026  -33.9566   25.0254 H   0  0  0  0  0  0
  -22.7531  -31.2764   21.3645 H   0  0  0  0  0  0
  -23.3745  -35.9583   23.3290 H   0  0  0  0  0  0
  -24.3569  -36.8904   22.2061 H   0  0  0  0  0  0
  -23.7271  -37.6442   23.6701 H   0  0  0  0  0  0
  -26.1567  -31.4395   20.5990 H   0  0  0  0  0  0
  -26.8730  -30.7559   22.0239 H   0  0  0  0  0  0
  -28.1282  -28.7741   21.2303 H   0  0  0  0  0  0
  -25.9610  -25.7844   19.0169 H   0  0  0  0  0  0
  -23.9951  -27.2482   18.9903 H   0  0  0  0  0  0
  -23.8209  -30.5292   19.3887 H   0  0  0  0  0  0
  -22.7916  -29.2052   19.8427 H   0  0  0  0  0  0
  -25.1322  -36.1815   25.0797 H   0  0  0  0  0  0
  -20.9993  -28.3328   24.1373 H   0  0  0  0  0  0
  -20.5645  -26.2332   23.3679 H   0  0  0  0  0  0
  -21.6658  -26.7400   22.1284 H   0  0  0  0  0  0
  -19.6943  -25.6280   21.1268 H   0  0  0  0  0  0
  -19.6754  -27.3181   20.6759 H   0  0  0  0  0  0
  -17.4237  -26.6710   21.3970 H   0  0  0  0  0  0
  -18.0297  -26.0083   22.8982 H   0  0  0  0  0  0
  -19.7940  -30.7272   24.2264 H   0  0  0  0  0  0
  -17.5023  -31.6257   24.5167 H   0  0  0  0  0  0
  -15.5358  -30.2972   23.7674 H   0  0  0  0  0  0
  -15.8683  -28.0803   22.7079 H   0  0  0  0  0  0
  -24.5871  -30.7118   25.7700 H   0  0  0  0  0  0
  -24.8888  -32.2952   26.4739 H   0  0  0  0  0  0
  -25.7956  -30.8982   27.0205 H   0  0  0  0  0  0
  -26.2995  -29.6655   24.1286 H   0  0  0  0  0  0
  -27.3970  -29.7250   25.4874 H   0  0  0  0  0  0
  -27.8915  -30.4156   23.9608 H   0  0  0  0  0  0
  -27.2624  -33.3635   26.2005 H   0  0  0  0  0  0
  -28.3874  -32.6869   25.0320 H   0  0  0  0  0  0
  -28.0680  -31.8486   26.5439 H   0  0  0  0  0  0
  -28.2583  -38.0078   24.7478 H   0  0  0  0  0  0
  -28.1072  -36.2605   24.6320 H   0  0  0  0  0  0
  -27.2281  -37.1462   25.8864 H   0  0  0  0  0  0
  -20.9476  -29.8712   21.6764 H   0  0  0  0  0  0
  -26.0143  -38.2790   24.1389 H   0  0  0  0  0  0
  -27.9992  -20.2550   22.4483 H   0  0  0  0  0  0
  -29.4826  -20.4572   18.4585 H   0  0  0  0  0  0
  -28.6374  -17.9240   22.5778 H   0  0  0  0  0  0
  -30.1614  -18.1009   18.5962 H   0  0  0  0  0  0
  -24.4088  -21.6219   20.2615 H   0  0  0  0  0  0
  -25.1282  -22.7394   19.1103 H   0  0  0  0  0  0
  -25.1360  -23.1119   20.8449 H   0  0  0  0  0  0
  -28.7681  -15.7415   21.1384 H   0  0  0  0  0  0
  -26.8279  -23.7575   20.2209 H   0  0  0  0  0  0
  -26.4547  -20.5851   20.2713 H   0  0  0  0  0  0
  1 25  1  0  0  0
  1 30  2  0  0  0
  1 80  1  0  0  0
  2  3  1  0  0  0
  2 25  1  0  0  0
  2 84  1  0  0  0
  2 85  1  0  0  0
  3  4  1  0  0  0
  3 86  1  0  0  0
  3 87  1  0  0  0
  4  5  1  0  0  0
  4 88  1  0  0  0
  4 89  1  0  0  0
  5  6  1  0  0  0
  5 26  1  0  0  0
  5 90  1  0  0  0
  6 25  1  0  0  0
  6 91  1  0  0  0
  6 92  1  0  0  0
  7  8  2  0  0  0
  7 26  1  0  0  0
  7 29  1  0  0  0
  8  9  1  0  0  0
  8 22  1  0  0  0
  9 10  1  0  0  0
  9 27  2  0  0  0
 10 11  2  0  0  0
 10 15  1  0  0  0
 11 12  1  0  0  0
 11 93  1  0  0  0
 12 13  2  0  0  0
 12 94  1  0  0  0
 13 14  1  0  0  0
 13 31  1  0  0  0
 14 15  2  0  0  0
 14 95  1  0  0  0
 15 96  1  0  0  0
 16 17  2  0  0  0
 16 21  1  0  0  0
 16 31  1  0  0  0
 17 18  1  0  0  0
 17 97  1  0  0  0
 18 19  2  0  0  0
 18 98  1  0  0  0
 19 20  1  0  0  0
 19 24  1  0  0  0
 20 21  2  0  0  0
 20 99  1  0  0  0
 21 23  1  0  0  0
 22 28  1  0  0  0
 22 32  2  0  0  0
 26 27  1  0  0  0
 28100  1  0  0  0
 28101  1  0  0  0
 29102  1  0  0  0
 29103  1  0  0  0
 33 34  1  0  0  0
 33 66  1  0  0  0
 33 70  2  0  0  0
 34 36  1  0  0  0
 34 59  1  0  0  0
 34104  1  0  0  0
 35 44  2  0  0  0
 35 45  1  0  0  0
 35 68  1  0  0  0
 36 56  1  0  0  0
 36105  1  0  0  0
 37 39  1  0  0  0
 37 47  1  0  0  0
 37 66  1  0  0  0
 37106  1  0  0  0
 38 43  2  0  0  0
 38 46  1  0  0  0
 38 47  1  0  0  0
 39 64  1  0  0  0
 39 67  2  0  0  0
 40 52  1  0  0  0
 40 53  2  0  0  0
 40 58  1  0  0  0
 41107  1  0  0  0
 41108  1  0  0  0
 41109  1  0  0  0
 41 48  1  0  0  0
 42 43  1  0  0  0
 42 66  1  0  0  0
 42110  1  0  0  0
 42111  1  0  0  0
 43 44  1  0  0  0
 44112  1  0  0  0
 45 46  2  0  0  0
 45113  1  0  0  0
 46114  1  0  0  0
 47115  1  0  0  0
 47116  1  0  0  0
 48 56  1  0  0  0
 48 65  1  0  0  0
 48117  1  0  0  0
 49 50  1  0  0  0
 49 53  1  0  0  0
 49 64  1  0  0  0
 49118  1  0  0  0
 50 51  1  0  0  0
 50119  1  0  0  0
 50120  1  0  0  0
 51 52  1  0  0  0
 51121  1  0  0  0
 51122  1  0  0  0
 52123  1  0  0  0
 52124  1  0  0  0
 53 54  1  0  0  0
 54 55  2  0  0  0
 54125  1  0  0  0
 55 57  1  0  0  0
 55126  1  0  0  0
 56 69  2  0  0  0
 57 58  2  0  0  0
 57127  1  0  0  0
 58128  1  0  0  0
 59 60  1  0  0  0
 59 61  1  0  0  0
 59 62  1  0  0  0
 60129  1  0  0  0
 60130  1  0  0  0
 60131  1  0  0  0
 61132  1  0  0  0
 61133  1  0  0  0
 61134  1  0  0  0
 62135  1  0  0  0
 62136  1  0  0  0
 62137  1  0  0  0
 63 65  1  0  0  0
 63138  1  0  0  0
 63139  1  0  0  0
 63140  1  0  0  0
 64141  1  0  0  0
 65142  1  0  0  0
 68 78  1  0  0  0
 71 73  2  0  0  0
 71 75  1  0  0  0
 71143  1  0  0  0
 72 74  1  0  0  0
 72 75  2  0  0  0
 72144  1  0  0  0
 73 76  1  0  0  0
 73145  1  0  0  0
 74 76  2  0  0  0
 74146  1  0  0  0
 75 77  1  0  0  0
 76 80  1  0  0  0
 77 81  1  0  0  0
 77 82  2  0  0  0
 78 81  1  0  0  0
 78 83  2  0  0  0
 79 82  1  0  0  0
 79147  1  0  0  0
 79148  1  0  0  0
 79149  1  0  0  0
 80150  1  0  0  0
 81151  1  0  0  0
 82152  1  0  0  0
M  CHG  1  82   1
M  ISO  4   1 100  68 101  78 101  80 100
M  END
> <chiral flag>
0

> <version>
0

> <s_m_source_file>
/data/baiqing/PycharmProjects/Reinvent-master-3.2/result/LINK_invent/BTK/process_docking_weight1_custom_product_contain_oxygen_bond_distance_aromatic_linkinvent_7_9_3/rearranged_h_0071.sdf

> <i_m_source_file_index>
2

> <r_mmod_Potential_Energy-OPLS-2005>
560.971313476562

> <r_mmod_Stretch_Energy-OPLS-2005>
296.686065673828

> <r_mmod_Bend_Energy-OPLS-2005>
456.263336181641

> <r_mmod_Torsional_Energy-OPLS-2005>
253.831039428711

> <r_mmod_Improper_Torsional_Energy-OPLS-2005>
11.2784643173218

> <r_mmod_Van_der_Waal_Energy-OPLS-2005>
124.455558776855

> <r_mmod_Electrostatic_Energy-OPLS-2005>
-357.361938476562

> <r_mmod_Solvation_Energy-OPLS-2005>
-446.730194091797

> <b_mmod_Minimization_Converged-OPLS-2005>
0

> <r_mmod_RMS_Derivative-OPLS-2005>
1.43794512748718

$$$$
2
                    3D
 Structure written by MMmdl.
157165  0  0  1  0            999 V2000
  -30.6305  -14.8772   20.3990 C   0  0  0  0  0  0
  -30.4131  -12.5303   19.5171 C   0  0  0  0  0  0
  -29.5155  -12.5120   18.2613 C   0  0  0  0  0  0
  -28.0453  -12.3182   18.6690 C   0  0  0  0  0  0
  -27.6236  -13.2584   19.8289 C   0  0  2  0  0  0
  -28.6609  -13.3153   20.9692 C   0  0  0  0  0  0
  -25.2429  -13.8245   20.5707 C   0  0  0  0  0  0
  -24.1762  -13.0448   20.9229 C   0  0  0  0  0  0
  -24.6397  -11.6941   20.8756 C   0  0  0  0  0  0
  -23.9093  -10.4299   21.0408 C   0  0  0  0  0  0
  -24.3641   -9.4210   21.9181 C   0  0  0  0  0  0
  -23.6307   -8.2247   22.0754 C   0  0  0  0  0  0
  -22.4286   -8.0289   21.3548 C   0  0  0  0  0  0
  -21.9926   -9.0265   20.4647 C   0  0  0  0  0  0
  -22.7264  -10.2140   20.3055 C   0  0  0  0  0  0
  -21.6859   -6.0742   22.5280 C   0  0  0  0  0  0
  -21.4018   -6.5644   23.8216 C   0  0  0  0  0  0
  -21.3660   -5.6797   24.9177 C   0  0  0  0  0  0
  -21.6044   -4.3059   24.7227 C   0  0  0  0  0  0
  -21.8819   -3.8151   23.4347 C   0  0  0  0  0  0
  -21.9193   -4.6968   22.3403 C   0  0  0  0  0  0
  -22.7779  -13.5206   21.1887 C   0  0  0  0  0  0
  -22.1658   -4.2153   21.0979 F   0  0  0  0  0  0
  -21.5628   -3.4541   25.7739 F   0  0  0  0  0  0
  -29.9575  -13.6598   20.3801 N   0  0  0  0  0  0
  -26.2858  -12.9504   20.3213 N   0  0  0  0  0  0
  -25.9333  -11.6622   20.5734 N   0  0  0  0  0  0
  -22.0441  -12.8186   22.0446 N   0  0  0  0  0  0
  -25.4076  -15.1969   20.4135 N   0  0  0  0  0  0
  -31.8405  -14.8021   20.1629 O   0  0  0  0  0  0
  -21.6646   -6.8887   21.4244 O   0  0  0  0  0  0
  -22.3452  -14.5504   20.6730 O   0  0  0  0  0  0
  -24.6388  -31.8482   23.1923 C   0  0  0  0  0  0
  -25.9179  -32.4716   23.8298 C   0  0  1  0  0  0
  -27.2106  -27.1754   20.1547 C   0  0  0  0  0  0
  -25.5944  -33.8523   24.2214 N   0  0  0  0  0  0
  -23.4402  -30.4688   21.5364 C   0  0  2  0  0  0
  -24.8896  -28.9025   20.1105 C   0  0  0  0  0  0
  -22.7545  -29.4566   22.4873 C   0  0  0  0  0  0
  -18.0300  -28.1395   22.8480 C   0  0  0  0  0  0
  -24.1491  -36.7266   23.2640 C   0  0  0  0  0  0
  -25.9927  -30.7333   21.3873 C   0  0  0  0  0  0
  -26.0638  -29.3470   20.7330 C   0  0  0  0  0  0
  -27.2270  -28.4964   20.7441 C   0  0  0  0  0  0
  -26.0194  -26.8275   19.4826 C   0  0  0  0  0  0
  -24.8773  -27.6539   19.4710 C   0  0  0  0  0  0
  -23.6650  -29.8006   20.1542 C   0  0  0  0  0  0
  -25.4121  -36.3046   24.0318 C   0  0  1  0  0  0
  -20.5911  -28.3716   23.1247 C   0  0  2  0  0  0
  -20.6786  -26.9423   22.5406 C   0  0  0  0  0  0
  -19.5759  -26.6383   21.5213 C   0  0  0  0  0  0
  -18.1940  -26.7934   22.1626 C   0  0  0  0  0  0
  -19.1556  -28.8873   23.2856 C   0  0  0  0  0  0
  -18.9474  -30.1470   23.8880 C   0  0  0  0  0  0
  -17.6470  -30.6593   24.0561 C   0  0  0  0  0  0
  -25.9068  -34.9418   23.5072 C   0  0  0  0  0  0
  -16.5363  -29.9086   23.6336 C   0  0  0  0  0  0
  -16.7287  -28.6505   23.0357 C   0  0  0  0  0  0
  -26.4515  -31.6572   25.0723 C   0  0  0  0  0  0
  -25.3713  -31.3754   26.1426 C   0  0  0  0  0  0
  -27.0370  -30.2971   24.6277 C   0  0  0  0  0  0
  -27.6054  -32.4330   25.7502 C   0  0  0  0  0  0
  -27.5578  -37.1789   24.8463 C   0  0  0  0  0  0
  -21.4242  -29.3048   22.3622 N   0  0  0  0  0  0
  -26.4287  -37.3755   23.9409 N   0  0  0  0  0  0
  -24.7099  -31.0373   22.0939 N   0  0  0  0  0  0
  -23.4207  -28.8115   23.3010 O   0  0  0  0  0  0
  -28.2605  -26.2015   20.1978 O   0  0  0  0  0  0
  -26.5653  -34.8906   22.4650 O   0  0  0  0  0  0
  -23.5518  -32.1341   23.7168 O   0  0  0  0  0  0
  -30.0128  -18.8196   21.5924 C   0  0  0  0  0  0
  -30.4674  -17.5104   21.5427 C   0  0  0  0  0  0
  -27.9734  -24.7881   20.4109 C   0  0  0  0  0  0
  -28.7849  -23.6400   20.2796 C   0  0  0  0  0  0
  -28.3348  -22.1890   20.5600 C   0  0  0  0  0  0
  -28.7435  -18.5550   19.4726 C   0  0  0  0  0  0
  -28.7532  -16.9753   19.7911 C   0  0  0  0  0  0
  -28.9636  -19.5434   20.6884 C   0  0  2  0  0  0
  -30.0691  -16.4448   20.4640 C   0  0  2  0  0  0
  -31.4784  -17.0290   22.5687 C   0  0  0  0  0  0
  -29.1870  -21.0731   20.3936 N   0  0  0  0  0  0
  -30.1690  -23.9021   19.8469 N   0  3  0  0  0  0
  -27.1908  -21.9607   20.9567 O   0  0  0  0  0  0
  -31.4585  -12.6150   19.2180 H   0  0  0  0  0  0
  -30.3410  -11.5848   20.0568 H   0  0  0  0  0  0
  -29.8243  -11.7139   17.5848 H   0  0  0  0  0  0
  -29.6300  -13.4468   17.7106 H   0  0  0  0  0  0
  -27.9265  -11.2780   18.9743 H   0  0  0  0  0  0
  -27.3905  -12.4586   17.8083 H   0  0  0  0  0  0
  -27.5813  -14.2546   19.3905 H   0  0  0  0  0  0
  -28.7159  -12.3638   21.4999 H   0  0  0  0  0  0
  -28.3742  -14.0689   21.7045 H   0  0  0  0  0  0
  -25.2785   -9.5684   22.4760 H   0  0  0  0  0  0
  -24.0017   -7.4638   22.7473 H   0  0  0  0  0  0
  -21.0859   -8.8789   19.8951 H   0  0  0  0  0  0
  -22.3721  -10.9682   19.6168 H   0  0  0  0  0  0
  -21.2012   -7.6153   23.9722 H   0  0  0  0  0  0
  -21.1481   -6.0524   25.9081 H   0  0  0  0  0  0
  -22.0596   -2.7612   23.2849 H   0  0  0  0  0  0
  -22.4076  -11.9856   22.4831 H   0  0  0  0  0  0
  -21.1052  -13.1195   22.2652 H   0  0  0  0  0  0
  -24.6414  -15.8512   20.5296 H   0  0  0  0  0  0
  -26.2588  -15.6367   20.0899 H   0  0  0  0  0  0
  -26.7244  -32.5339   23.1030 H   0  0  0  0  0  0
  -25.0070  -33.9650   25.0345 H   0  0  0  0  0  0
  -22.7404  -31.2933   21.3854 H   0  0  0  0  0  0
  -23.3758  -35.9593   23.3291 H   0  0  0  0  0  0
  -24.3579  -36.8908   22.2057 H   0  0  0  0  0  0
  -23.7238  -37.6457   23.6683 H   0  0  0  0  0  0
  -26.1424  -31.4876   20.6138 H   0  0  0  0  0  0
  -26.8652  -30.7851   22.0266 H   0  0  0  0  0  0
  -28.1223  -28.8278   21.2516 H   0  0  0  0  0  0
  -25.9511  -25.8722   18.9822 H   0  0  0  0  0  0
  -23.9827  -27.3109   18.9694 H   0  0  0  0  0  0
  -23.7992  -30.5755   19.3986 H   0  0  0  0  0  0
  -22.7808  -29.2406   19.8449 H   0  0  0  0  0  0
  -25.1306  -36.1880   25.0811 H   0  0  0  0  0  0
  -21.0002  -28.3302   24.1369 H   0  0  0  0  0  0
  -20.5683  -26.2329   23.3620 H   0  0  0  0  0  0
  -21.6652  -26.7435   22.1202 H   0  0  0  0  0  0
  -19.6918  -25.6288   21.1255 H   0  0  0  0  0  0
  -19.6693  -27.3182   20.6734 H   0  0  0  0  0  0
  -17.4208  -26.6680   21.4032 H   0  0  0  0  0  0
  -18.0339  -26.0079   22.9026 H   0  0  0  0  0  0
  -19.7948  -30.7293   24.2241 H   0  0  0  0  0  0
  -17.5024  -31.6271   24.5166 H   0  0  0  0  0  0
  -15.5361  -30.2985   23.7666 H   0  0  0  0  0  0
  -15.8688  -28.0819   22.7082 H   0  0  0  0  0  0
  -24.5873  -30.7130   25.7742 H   0  0  0  0  0  0
  -24.8928  -32.2940   26.4834 H   0  0  0  0  0  0
  -25.8000  -30.8923   27.0216 H   0  0  0  0  0  0
  -26.2975  -29.6704   24.1278 H   0  0  0  0  0  0
  -27.3986  -29.7261   25.4839 H   0  0  0  0  0  0
  -27.8886  -30.4217   23.9585 H   0  0  0  0  0  0
  -27.2649  -33.3643   26.2043 H   0  0  0  0  0  0
  -28.3880  -32.6868   25.0341 H   0  0  0  0  0  0
  -28.0701  -31.8478   26.5447 H   0  0  0  0  0  0
  -28.2582  -38.0098   24.7518 H   0  0  0  0  0  0
  -28.1085  -36.2626   24.6279 H   0  0  0  0  0  0
  -27.2296  -37.1424   25.8866 H   0  0  0  0  0  0
  -20.9444  -29.8768   21.6814 H   0  0  0  0  0  0
  -26.0156  -38.2823   24.1418 H   0  0  0  0  0  0
  -30.3817  -19.4426   22.3949 H   0  0  0  0  0  0
  -26.9498  -24.6597   20.7366 H   0  0  0  0  0  0
  -27.8033  -18.8114   18.9826 H   0  0  0  0  0  0
  -29.5188  -18.7504   18.7312 H   0  0  0  0  0  0
  -28.5701  -16.4205   18.8701 H   0  0  0  0  0  0
  -27.9165  -16.7502   20.4521 H   0  0  0  0  0  0
  -28.0494  -19.5017   21.2827 H   0  0  0  0  0  0
  -30.7650  -16.8010   19.7029 H   0  0  0  0  0  0
  -31.7098  -17.7994   23.3051 H   0  0  0  0  0  0
  -32.4121  -16.7469   22.0810 H   0  0  0  0  0  0
  -31.0939  -16.1611   23.1052 H   0  0  0  0  0  0
  -30.1136  -21.2731   20.0471 H   0  0  0  0  0  0
  -30.3135  -24.8891   19.7481 H   0  0  0  0  0  0
  -30.8282  -23.5625   20.5227 H   0  0  0  0  0  0
  -30.3587  -23.4719   18.9605 H   0  0  0  0  0  0
  1 25  1  0  0  0
  1 30  2  0  0  0
  1 79  1  0  0  0
  2  3  1  0  0  0
  2 25  1  0  0  0
  2 84  1  0  0  0
  2 85  1  0  0  0
  3  4  1  0  0  0
  3 86  1  0  0  0
  3 87  1  0  0  0
  4  5  1  0  0  0
  4 88  1  0  0  0
  4 89  1  0  0  0
  5  6  1  0  0  0
  5 26  1  0  0  0
  5 90  1  0  0  0
  6 25  1  0  0  0
  6 91  1  0  0  0
  6 92  1  0  0  0
  7  8  2  0  0  0
  7 26  1  0  0  0
  7 29  1  0  0  0
  8  9  1  0  0  0
  8 22  1  0  0  0
  9 10  1  0  0  0
  9 27  2  0  0  0
 10 11  2  0  0  0
 10 15  1  0  0  0
 11 12  1  0  0  0
 11 93  1  0  0  0
 12 13  2  0  0  0
 12 94  1  0  0  0
 13 14  1  0  0  0
 13 31  1  0  0  0
 14 15  2  0  0  0
 14 95  1  0  0  0
 15 96  1  0  0  0
 16 17  2  0  0  0
 16 21  1  0  0  0
 16 31  1  0  0  0
 17 18  1  0  0  0
 17 97  1  0  0  0
 18 19  2  0  0  0
 18 98  1  0  0  0
 19 20  1  0  0  0
 19 24  1  0  0  0
 20 21  2  0  0  0
 20 99  1  0  0  0
 21 23  1  0  0  0
 22 28  1  0  0  0
 22 32  2  0  0  0
 26 27  1  0  0  0
 28100  1  0  0  0
 28101  1  0  0  0
 29102  1  0  0  0
 29103  1  0  0  0
 33 34  1  0  0  0
 33 66  1  0  0  0
 33 70  2  0  0  0
 34 36  1  0  0  0
 34 59  1  0  0  0
 34104  1  0  0  0
 35 44  2  0  0  0
 35 45  1  0  0  0
 35 68  1  0  0  0
 36 56  1  0  0  0
 36105  1  0  0  0
 37 39  1  0  0  0
 37 47  1  0  0  0
 37 66  1  0  0  0
 37106  1  0  0  0
 38 43  2  0  0  0
 38 46  1  0  0  0
 38 47  1  0  0  0
 39 64  1  0  0  0
 39 67  2  0  0  0
 40 52  1  0  0  0
 40 53  2  0  0  0
 40 58  1  0  0  0
 41107  1  0  0  0
 41108  1  0  0  0
 41109  1  0  0  0
 41 48  1  0  0  0
 42 43  1  0  0  0
 42 66  1  0  0  0
 42110  1  0  0  0
 42111  1  0  0  0
 43 44  1  0  0  0
 44112  1  0  0  0
 45 46  2  0  0  0
 45113  1  0  0  0
 46114  1  0  0  0
 47115  1  0  0  0
 47116  1  0  0  0
 48 56  1  0  0  0
 48 65  1  0  0  0
 48117  1  0  0  0
 49 50  1  0  0  0
 49 53  1  0  0  0
 49 64  1  0  0  0
 49118  1  0  0  0
 50 51  1  0  0  0
 50119  1  0  0  0
 50120  1  0  0  0
 51 52  1  0  0  0
 51121  1  0  0  0
 51122  1  0  0  0
 52123  1  0  0  0
 52124  1  0  0  0
 53 54  1  0  0  0
 54 55  2  0  0  0
 54125  1  0  0  0
 55 57  1  0  0  0
 55126  1  0  0  0
 56 69  2  0  0  0
 57 58  2  0  0  0
 57127  1  0  0  0
 58128  1  0  0  0
 59 60  1  0  0  0
 59 61  1  0  0  0
 59 62  1  0  0  0
 60129  1  0  0  0
 60130  1  0  0  0
 60131  1  0  0  0
 61132  1  0  0  0
 61133  1  0  0  0
 61134  1  0  0  0
 62135  1  0  0  0
 62136  1  0  0  0
 62137  1  0  0  0
 63 65  1  0  0  0
 63138  1  0  0  0
 63139  1  0  0  0
 63140  1  0  0  0
 64141  1  0  0  0
 65142  1  0  0  0
 68 73  1  0  0  0
 71 72  2  0  0  0
 71 78  1  0  0  0
 71143  1  0  0  0
 72 79  1  0  0  0
 72 80  1  0  0  0
 73 74  2  0  0  0
 73144  1  0  0  0
 74 75  1  0  0  0
 74 82  1  0  0  0
 75 81  1  0  0  0
 75 83  2  0  0  0
 76 77  1  0  0  0
 76 78  1  0  0  0
 76145  1  0  0  0
 76146  1  0  0  0
 77 79  1  0  0  0
 77147  1  0  0  0
 77148  1  0  0  0
 78 81  1  0  0  0
 78149  1  0  0  0
 79150  1  0  0  0
 80151  1  0  0  0
 80152  1  0  0  0
 80153  1  0  0  0
 81154  1  0  0  0
 82155  1  0  0  0
 82156  1  0  0  0
 82157  1  0  0  0
M  CHG  1  82   1
M  ISO  4   1 100  68 101  73 101  79 100
M  END
> <chiral flag>
0

> <version>
0

> <s_m_source_file>
/data/baiqing/PycharmProjects/Reinvent-master-3.2/result/LINK_invent/BTK/process_docking_weight1_custom_product_contain_oxygen_bond_distance_aromatic_linkinvent_7_9_3/rearranged_h_0071.sdf

> <i_m_source_file_index>
3

> <r_mmod_Potential_Energy-OPLS-2005>
36.4891014099121

> <r_mmod_Stretch_Energy-OPLS-2005>
190.278717041016

> <r_mmod_Bend_Energy-OPLS-2005>
260.355316162109

> <r_mmod_Torsional_Energy-OPLS-2005>
196.652633666992

> <r_mmod_Improper_Torsional_Energy-OPLS-2005>
4.29546356201172

> <r_mmod_Van_der_Waal_Energy-OPLS-2005>
122.527893066406

> <r_mmod_Electrostatic_Energy-OPLS-2005>
-368.194793701172

> <r_mmod_Solvation_Energy-OPLS-2005>
-525.628356933594

> <b_mmod_Minimization_Converged-OPLS-2005>
0

> <r_mmod_RMS_Derivative-OPLS-2005>
0.580470740795135

$$$$
3
                    3D
 Structure written by MMmdl.
164173  0  0  1  0            999 V2000
  -30.6974  -14.5881   20.4662 C   0  0  0  0  0  0
  -30.4135  -12.3535   19.4668 C   0  0  0  0  0  0
  -29.5072  -12.4883   18.2270 C   0  0  0  0  0  0
  -28.0258  -12.3558   18.6291 C   0  0  0  0  0  0
  -27.6480  -13.2310   19.8552 C   0  0  2  0  0  0
  -28.6905  -13.1182   20.9897 C   0  0  0  0  0  0
  -25.2528  -13.8197   20.5682 C   0  0  0  0  0  0
  -24.1816  -13.0452   20.9183 C   0  0  0  0  0  0
  -24.6385  -11.6925   20.8704 C   0  0  0  0  0  0
  -23.9048  -10.4311   21.0382 C   0  0  0  0  0  0
  -24.3609   -9.4244   21.9181 C   0  0  0  0  0  0
  -23.6303   -8.2270   22.0760 C   0  0  0  0  0  0
  -22.4285   -8.0288   21.3548 C   0  0  0  0  0  0
  -21.9897   -9.0253   20.4647 C   0  0  0  0  0  0
  -22.7201  -10.2149   20.3050 C   0  0  0  0  0  0
  -21.6885   -6.0717   22.5261 C   0  0  0  0  0  0
  -21.4030   -6.5625   23.8187 C   0  0  0  0  0  0
  -21.3670   -5.6783   24.9155 C   0  0  0  0  0  0
  -21.6050   -4.3041   24.7212 C   0  0  0  0  0  0
  -21.8828   -3.8129   23.4334 C   0  0  0  0  0  0
  -21.9205   -4.6942   22.3387 C   0  0  0  0  0  0
  -22.7833  -13.5227   21.1853 C   0  0  0  0  0  0
  -22.1683   -4.2123   21.0968 F   0  0  0  0  0  0
  -21.5630   -3.4529   25.7728 F   0  0  0  0  0  0
  -30.0087  -13.4089   20.4154 N   0  0  0  0  0  0
  -26.2966  -12.9415   20.3283 N   0  0  0  0  0  0
  -25.9319  -11.6549   20.5715 N   0  0  0  0  0  0
  -22.0482  -12.8239   22.0416 N   0  0  0  0  0  0
  -25.4201  -15.1939   20.4115 N   0  0  0  0  0  0
  -31.9020  -14.6140   20.2144 O   0  0  0  0  0  0
  -21.6682   -6.8866   21.4224 O   0  0  0  0  0  0
  -22.3517  -14.5534   20.6691 O   0  0  0  0  0  0
  -24.6206  -31.8651   23.2093 C   0  0  0  0  0  0
  -25.9063  -32.4825   23.8405 C   0  0  1  0  0  0
  -27.2179  -27.3332   20.1121 C   0  0  0  0  0  0
  -25.5894  -33.8624   24.2334 N   0  0  0  0  0  0
  -23.4131  -30.4911   21.5521 C   0  0  2  0  0  0
  -24.8614  -28.9584   20.1124 C   0  0  0  0  0  0
  -22.7421  -29.4646   22.4953 C   0  0  0  0  0  0
  -18.0264  -28.1374   22.8487 C   0  0  0  0  0  0
  -24.1488  -36.7286   23.2637 C   0  0  0  0  0  0
  -25.9581  -30.7944   21.3878 C   0  0  0  0  0  0
  -26.0303  -29.4279   20.7237 C   0  0  0  0  0  0
  -27.2103  -28.6245   20.7217 C   0  0  0  0  0  0
  -26.0207  -26.9251   19.4721 C   0  0  0  0  0  0
  -24.8584  -27.7093   19.4809 C   0  0  0  0  0  0
  -23.6263  -29.8336   20.1661 C   0  0  0  0  0  0
  -25.4123  -36.3110   24.0330 C   0  0  1  0  0  0
  -20.5862  -28.3656   23.1288 C   0  0  2  0  0  0
  -20.6770  -26.9391   22.5397 C   0  0  0  0  0  0
  -19.5758  -26.6374   21.5190 C   0  0  0  0  0  0
  -18.1927  -26.7916   22.1606 C   0  0  0  0  0  0
  -19.1517  -28.8833   23.2881 C   0  0  0  0  0  0
  -18.9445  -30.1440   23.8889 C   0  0  0  0  0  0
  -17.6452  -30.6588   24.0554 C   0  0  0  0  0  0
  -25.9041  -34.9470   23.5136 C   0  0  0  0  0  0
  -16.5340  -29.9085   23.6345 C   0  0  0  0  0  0
  -16.7247  -28.6499   23.0369 C   0  0  0  0  0  0
  -26.4474  -31.6619   25.0756 C   0  0  0  0  0  0
  -25.3713  -31.3703   26.1467 C   0  0  0  0  0  0
  -27.0311  -30.3047   24.6203 C   0  0  0  0  0  0
  -27.6045  -32.4336   25.7531 C   0  0  0  0  0  0
  -27.5589  -37.1805   24.8459 C   0  0  0  0  0  0
  -21.4133  -29.3021   22.3682 N   0  0  0  0  0  0
  -26.4309  -37.3793   23.9403 N   0  0  0  0  0  0
  -24.6822  -31.0659   22.1054 N   0  0  0  0  0  0
  -23.4157  -28.8158   23.2998 O   0  0  0  0  0  0
  -28.3306  -26.4746   20.1692 O   0  0  0  0  0  0
  -26.5600  -34.8923   22.4690 O   0  0  0  0  0  0
  -23.5370  -32.1439   23.7428 O   0  0  0  0  0  0
  -29.6665  -18.2944   20.4663 C   0  0  0  0  0  0
  -31.3888  -17.2319   19.1208 C   0  0  0  0  0  0
  -30.0538  -19.5952   19.9803 C   0  0  0  0  0  0
  -30.3507  -17.0855   20.0780 C   0  0  0  0  0  0
  -31.1613  -19.6611   19.0941 C   0  0  0  0  0  0
  -31.7986  -18.4889   18.6526 C   0  0  0  0  0  0
  -29.1919  -23.1537   21.2660 C   0  0  0  0  0  0
  -28.9231  -22.8046   18.7951 C   0  0  0  0  0  0
  -29.9331  -21.7647   21.2528 C   0  0  0  0  0  0
  -28.4723  -21.3889   19.2848 C   0  0  0  0  0  0
  -29.1905  -23.9100   19.8905 C   0  0  0  0  0  0
  -30.5739  -24.5429   19.6327 C   0  0  0  0  0  0
  -28.1088  -25.0740   19.7566 C   0  0  0  0  0  0
  -29.3421  -20.7980   20.3113 N   0  0  0  0  0  0
  -31.6281  -20.8827   18.6107 N   0  0  0  0  0  0
  -29.9815  -15.7533   20.5819 N   0  0  0  0  0  0
  -32.8160  -18.5712   17.7583 F   0  0  0  0  0  0
  -31.4633  -12.4222   19.1770 H   0  0  0  0  0  0
  -30.2962  -11.3697   19.9236 H   0  0  0  0  0  0
  -29.7651  -11.7274   17.4895 H   0  0  0  0  0  0
  -29.6764  -13.4519   17.7442 H   0  0  0  0  0  0
  -27.8454  -11.3048   18.8543 H   0  0  0  0  0  0
  -27.3852  -12.6015   17.7811 H   0  0  0  0  0  0
  -27.6577  -14.2634   19.5042 H   0  0  0  0  0  0
  -28.6857  -12.1146   21.4192 H   0  0  0  0  0  0
  -28.4528  -13.8044   21.8049 H   0  0  0  0  0  0
  -25.2756   -9.5763   22.4747 H   0  0  0  0  0  0
  -24.0035   -7.4677   22.7489 H   0  0  0  0  0  0
  -21.0831   -8.8733   19.8957 H   0  0  0  0  0  0
  -22.3625  -10.9679   19.6162 H   0  0  0  0  0  0
  -21.2031   -7.6137   23.9676 H   0  0  0  0  0  0
  -21.1490   -6.0523   25.9058 H   0  0  0  0  0  0
  -22.0597   -2.7587   23.2836 H   0  0  0  0  0  0
  -22.4110  -11.9921   22.4835 H   0  0  0  0  0  0
  -21.1081  -13.1247   22.2574 H   0  0  0  0  0  0
  -24.6462  -15.8413   20.5158 H   0  0  0  0  0  0
  -26.2616  -15.6375   20.0666 H   0  0  0  0  0  0
  -26.7110  -32.5528   23.1133 H   0  0  0  0  0  0
  -25.0064  -33.9813   25.0489 H   0  0  0  0  0  0
  -22.7050  -31.3107   21.4144 H   0  0  0  0  0  0
  -23.3791  -35.9581   23.3310 H   0  0  0  0  0  0
  -24.3567  -36.8895   22.2051 H   0  0  0  0  0  0
  -23.7207  -37.6467   23.6657 H   0  0  0  0  0  0
  -26.1008  -31.5629   20.6270 H   0  0  0  0  0  0
  -26.8347  -30.8308   22.0241 H   0  0  0  0  0  0
  -28.1017  -28.9748   21.2217 H   0  0  0  0  0  0
  -25.9286  -25.9783   18.9639 H   0  0  0  0  0  0
  -23.9650  -27.3384   18.9981 H   0  0  0  0  0  0
  -23.7335  -30.6149   19.4127 H   0  0  0  0  0  0
  -22.7487  -29.2561   19.8687 H   0  0  0  0  0  0
  -25.1316  -36.1975   25.0827 H   0  0  0  0  0  0
  -20.9953  -28.3214   24.1406 H   0  0  0  0  0  0
  -20.5672  -26.2237   23.3563 H   0  0  0  0  0  0
  -21.6639  -26.7433   22.1188 H   0  0  0  0  0  0
  -19.6925  -25.6276   21.1241 H   0  0  0  0  0  0
  -19.6744  -27.3165   20.6713 H   0  0  0  0  0  0
  -17.4190  -26.6615   21.4025 H   0  0  0  0  0  0
  -18.0369  -26.0068   22.9024 H   0  0  0  0  0  0
  -19.7920  -30.7259   24.2254 H   0  0  0  0  0  0
  -17.5011  -31.6288   24.5121 H   0  0  0  0  0  0
  -15.5343  -30.2999   23.7695 H   0  0  0  0  0  0
  -15.8624  -28.0828   22.7120 H   0  0  0  0  0  0
  -24.5895  -30.7065   25.7753 H   0  0  0  0  0  0
  -24.8899  -32.2838   26.4961 H   0  0  0  0  0  0
  -25.8041  -30.8810   27.0197 H   0  0  0  0  0  0
  -26.2880  -29.6827   24.1201 H   0  0  0  0  0  0
  -27.3945  -29.7289   25.4719 H   0  0  0  0  0  0
  -27.8790  -30.4338   23.9479 H   0  0  0  0  0  0
  -27.2670  -33.3617   26.2157 H   0  0  0  0  0  0
  -28.3847  -32.6916   25.0360 H   0  0  0  0  0  0
  -28.0717  -31.8418   26.5409 H   0  0  0  0  0  0
  -28.2598  -38.0110   24.7533 H   0  0  0  0  0  0
  -28.1095  -36.2640   24.6284 H   0  0  0  0  0  0
  -27.2279  -37.1439   25.8849 H   0  0  0  0  0  0
  -20.9245  -29.8726   21.6919 H   0  0  0  0  0  0
  -26.0200  -38.2863   24.1437 H   0  0  0  0  0  0
  -28.8243  -18.2315   21.1406 H   0  0  0  0  0  0
  -31.9177  -16.3899   18.7064 H   0  0  0  0  0  0
  -29.6272  -23.7886   22.0385 H   0  0  0  0  0  0
  -28.1640  -22.9754   21.5885 H   0  0  0  0  0  0
  -28.1563  -23.1359   18.0953 H   0  0  0  0  0  0
  -29.7995  -22.6972   18.1580 H   0  0  0  0  0  0
  -29.8885  -21.3221   22.2501 H   0  0  0  0  0  0
  -30.9929  -21.9066   21.0381 H   0  0  0  0  0  0
  -28.3866  -20.7179   18.4277 H   0  0  0  0  0  0
  -27.4688  -21.4583   19.7083 H   0  0  0  0  0  0
  -31.3736  -23.8070   19.7012 H   0  0  0  0  0  0
  -30.7958  -25.3314   20.3532 H   0  0  0  0  0  0
  -30.6283  -24.9871   18.6371 H   0  0  0  0  0  0
  -27.1921  -24.6989   20.2150 H   0  0  0  0  0  0
  -27.9117  -25.1666   18.6881 H   0  0  0  0  0  0
  -30.9914  -21.6484   18.7942 H   0  0  0  0  0  0
  -31.9733  -20.8606   17.6588 H   0  0  0  0  0  0
  -29.0506  -15.6531   20.9590 H   0  0  0  0  0  0
  1 25  1  0  0  0
  1 30  2  0  0  0
  1 86  1  0  0  0
  2  3  1  0  0  0
  2 25  1  0  0  0
  2 88  1  0  0  0
  2 89  1  0  0  0
  3  4  1  0  0  0
  3 90  1  0  0  0
  3 91  1  0  0  0
  4  5  1  0  0  0
  4 92  1  0  0  0
  4 93  1  0  0  0
  5  6  1  0  0  0
  5 26  1  0  0  0
  5 94  1  0  0  0
  6 25  1  0  0  0
  6 95  1  0  0  0
  6 96  1  0  0  0
  7  8  2  0  0  0
  7 26  1  0  0  0
  7 29  1  0  0  0
  8  9  1  0  0  0
  8 22  1  0  0  0
  9 10  1  0  0  0
  9 27  2  0  0  0
 10 11  2  0  0  0
 10 15  1  0  0  0
 11 12  1  0  0  0
 11 97  1  0  0  0
 12 13  2  0  0  0
 12 98  1  0  0  0
 13 14  1  0  0  0
 13 31  1  0  0  0
 14 15  2  0  0  0
 14 99  1  0  0  0
 15100  1  0  0  0
 16 17  2  0  0  0
 16 21  1  0  0  0
 16 31  1  0  0  0
 17 18  1  0  0  0
 17101  1  0  0  0
 18 19  2  0  0  0
 18102  1  0  0  0
 19 20  1  0  0  0
 19 24  1  0  0  0
 20 21  2  0  0  0
 20103  1  0  0  0
 21 23  1  0  0  0
 22 28  1  0  0  0
 22 32  2  0  0  0
 26 27  1  0  0  0
 28104  1  0  0  0
 28105  1  0  0  0
 29106  1  0  0  0
 29107  1  0  0  0
 33 34  1  0  0  0
 33 66  1  0  0  0
 33 70  2  0  0  0
 34 36  1  0  0  0
 34 59  1  0  0  0
 34108  1  0  0  0
 35 44  2  0  0  0
 35 45  1  0  0  0
 35 68  1  0  0  0
 36 56  1  0  0  0
 36109  1  0  0  0
 37 39  1  0  0  0
 37 47  1  0  0  0
 37 66  1  0  0  0
 37110  1  0  0  0
 38 43  2  0  0  0
 38 46  1  0  0  0
 38 47  1  0  0  0
 39 64  1  0  0  0
 39 67  2  0  0  0
 40 52  1  0  0  0
 40 53  2  0  0  0
 40 58  1  0  0  0
 41111  1  0  0  0
 41112  1  0  0  0
 41113  1  0  0  0
 41 48  1  0  0  0
 42 43  1  0  0  0
 42 66  1  0  0  0
 42114  1  0  0  0
 42115  1  0  0  0
 43 44  1  0  0  0
 44116  1  0  0  0
 45 46  2  0  0  0
 45117  1  0  0  0
 46118  1  0  0  0
 47119  1  0  0  0
 47120  1  0  0  0
 48 56  1  0  0  0
 48 65  1  0  0  0
 48121  1  0  0  0
 49 50  1  0  0  0
 49 53  1  0  0  0
 49 64  1  0  0  0
 49122  1  0  0  0
 50 51  1  0  0  0
 50123  1  0  0  0
 50124  1  0  0  0
 51 52  1  0  0  0
 51125  1  0  0  0
 51126  1  0  0  0
 52127  1  0  0  0
 52128  1  0  0  0
 53 54  1  0  0  0
 54 55  2  0  0  0
 54129  1  0  0  0
 55 57  1  0  0  0
 55130  1  0  0  0
 56 69  2  0  0  0
 57 58  2  0  0  0
 57131  1  0  0  0
 58132  1  0  0  0
 59 60  1  0  0  0
 59 61  1  0  0  0
 59 62  1  0  0  0
 60133  1  0  0  0
 60134  1  0  0  0
 60135  1  0  0  0
 61136  1  0  0  0
 61137  1  0  0  0
 61138  1  0  0  0
 62139  1  0  0  0
 62140  1  0  0  0
 62141  1  0  0  0
 63 65  1  0  0  0
 63142  1  0  0  0
 63143  1  0  0  0
 63144  1  0  0  0
 64145  1  0  0  0
 65146  1  0  0  0
 68 83  1  0  0  0
 71 73  2  0  0  0
 71 74  1  0  0  0
 71147  1  0  0  0
 72 74  2  0  0  0
 72 76  1  0  0  0
 72148  1  0  0  0
 73 75  1  0  0  0
 73 84  1  0  0  0
 74 86  1  0  0  0
 75 76  2  0  0  0
 75 85  1  0  0  0
 76 87  1  0  0  0
 77 79  1  0  0  0
 77 81  1  0  0  0
 77149  1  0  0  0
 77150  1  0  0  0
 78 80  1  0  0  0
 78 81  1  0  0  0
 78151  1  0  0  0
 78152  1  0  0  0
 79 84  1  0  0  0
 79153  1  0  0  0
 79154  1  0  0  0
 80 84  1  0  0  0
 80155  1  0  0  0
 80156  1  0  0  0
 81 82  1  0  0  0
 81 83  1  0  0  0
 82157  1  0  0  0
 82158  1  0  0  0
 82159  1  0  0  0
 83160  1  0  0  0
 83161  1  0  0  0
 85162  1  0  0  0
 85163  1  0  0  0
 86164  1  0  0  0
M  ISO  4   1 100  68 101  83 101  86 100
M  END
> <chiral flag>
0

> <version>
0

> <s_m_source_file>
/data/baiqing/PycharmProjects/Reinvent-master-3.2/result/LINK_invent/BTK/process_docking_weight1_custom_product_contain_oxygen_bond_distance_aromatic_linkinvent_7_9_3/rearranged_h_0071.sdf

> <i_m_source_file_index>
4

> <r_mmod_Potential_Energy-OPLS-2005>
183.330474853516

> <r_mmod_Stretch_Energy-OPLS-2005>
79.7654037475586

> <r_mmod_Bend_Energy-OPLS-2005>
144.996383666992

> <r_mmod_Torsional_Energy-OPLS-2005>
316.745269775391

> <r_mmod_Improper_Torsional_Energy-OPLS-2005>
12.0605773925781

> <r_mmod_Van_der_Waal_Energy-OPLS-2005>
179.166915893555

> <r_mmod_Electrostatic_Energy-OPLS-2005>
-379.076690673828

> <r_mmod_Solvation_Energy-OPLS-2005>
-217.585235595703

> <b_mmod_Minimization_Converged-OPLS-2005>
0

> <r_mmod_RMS_Derivative-OPLS-2005>
3.03598427772522

$$$$
4
                    3D
 Structure written by MMmdl.
161170  0  0  1  0            999 V2000
  -30.5918  -14.6617   20.5044 C   0  0  0  0  0  0
  -30.4461  -12.4106   19.4463 C   0  0  0  0  0  0
  -29.5076  -12.5259   18.2223 C   0  0  0  0  0  0
  -28.0306  -12.3583   18.6351 C   0  0  0  0  0  0
  -27.6559  -13.2157   19.8727 C   0  0  2  0  0  0
  -28.7045  -13.0487   20.9965 C   0  0  0  0  0  0
  -25.2555  -13.8162   20.5656 C   0  0  0  0  0  0
  -24.1820  -13.0426   20.9171 C   0  0  0  0  0  0
  -24.6397  -11.6902   20.8749 C   0  0  0  0  0  0
  -23.9069  -10.4286   21.0413 C   0  0  0  0  0  0
  -24.3615   -9.4196   21.9184 C   0  0  0  0  0  0
  -23.6285   -8.2236   22.0756 C   0  0  0  0  0  0
  -22.4268   -8.0278   21.3544 C   0  0  0  0  0  0
  -21.9902   -9.0257   20.4651 C   0  0  0  0  0  0
  -22.7238  -10.2135   20.3064 C   0  0  0  0  0  0
  -21.6846   -6.0735   22.5277 C   0  0  0  0  0  0
  -21.4014   -6.5638   23.8212 C   0  0  0  0  0  0
  -21.3660   -5.6792   24.9171 C   0  0  0  0  0  0
  -21.6041   -4.3054   24.7223 C   0  0  0  0  0  0
  -21.8822   -3.8147   23.4343 C   0  0  0  0  0  0
  -21.9189   -4.6963   22.3398 C   0  0  0  0  0  0
  -22.7847  -13.5230   21.1836 C   0  0  0  0  0  0
  -22.1656   -4.2148   21.0976 F   0  0  0  0  0  0
  -21.5631   -3.4540   25.7736 F   0  0  0  0  0  0
  -30.0162  -13.4170   20.4366 N   0  0  0  0  0  0
  -26.3007  -12.9343   20.3385 N   0  0  0  0  0  0
  -25.9336  -11.6501   20.5798 N   0  0  0  0  0  0
  -22.0499  -12.8237   22.0414 N   0  0  0  0  0  0
  -25.4234  -15.1872   20.3995 N   0  0  0  0  0  0
  -31.7384  -14.8643   20.0915 O   0  0  0  0  0  0
  -21.6631   -6.8875   21.4238 O   0  0  0  0  0  0
  -22.3524  -14.5525   20.6672 O   0  0  0  0  0  0
  -24.6246  -31.8600   23.2035 C   0  0  0  0  0  0
  -25.9103  -32.4772   23.8349 C   0  0  1  0  0  0
  -27.2263  -27.3164   20.1145 C   0  0  0  0  0  0
  -25.5927  -33.8577   24.2264 N   0  0  0  0  0  0
  -23.4189  -30.4809   21.5482 C   0  0  2  0  0  0
  -24.8658  -28.9389   20.1094 C   0  0  0  0  0  0
  -22.7479  -29.4585   22.4963 C   0  0  0  0  0  0
  -18.0274  -28.1356   22.8476 C   0  0  0  0  0  0
  -24.1494  -36.7282   23.2648 C   0  0  0  0  0  0
  -25.9607  -30.7856   21.3791 C   0  0  0  0  0  0
  -26.0336  -29.4144   20.7181 C   0  0  0  0  0  0
  -27.2147  -28.6140   20.7135 C   0  0  0  0  0  0
  -26.0360  -26.8989   19.4735 C   0  0  0  0  0  0
  -24.8698  -27.6868   19.4770 C   0  0  0  0  0  0
  -23.6337  -29.8190   20.1619 C   0  0  0  0  0  0
  -25.4121  -36.3073   24.0331 C   0  0  1  0  0  0
  -20.5873  -28.3647   23.1288 C   0  0  2  0  0  0
  -20.6761  -26.9377   22.5403 C   0  0  0  0  0  0
  -19.5741  -26.6365   21.5198 C   0  0  0  0  0  0
  -18.1919  -26.7897   22.1609 C   0  0  0  0  0  0
  -19.1529  -28.8823   23.2871 C   0  0  0  0  0  0
  -18.9462  -30.1430   23.8878 C   0  0  0  0  0  0
  -17.6468  -30.6574   24.0541 C   0  0  0  0  0  0
  -25.9060  -34.9447   23.5094 C   0  0  0  0  0  0
  -16.5352  -29.9070   23.6329 C   0  0  0  0  0  0
  -16.7263  -28.6483   23.0347 C   0  0  0  0  0  0
  -26.4499  -31.6596   25.0724 C   0  0  0  0  0  0
  -25.3732  -31.3742   26.1452 C   0  0  0  0  0  0
  -27.0339  -30.3019   24.6174 C   0  0  0  0  0  0
  -27.6039  -32.4357   25.7497 C   0  0  0  0  0  0
  -27.5576  -37.1798   24.8468 C   0  0  0  0  0  0
  -21.4192  -29.3010   22.3711 N   0  0  0  0  0  0
  -26.4290  -37.3772   23.9415 N   0  0  0  0  0  0
  -24.6861  -31.0597   22.0994 N   0  0  0  0  0  0
  -23.4204  -28.8120   23.3035 O   0  0  0  0  0  0
  -28.3479  -26.4713   20.1818 O   0  0  0  0  0  0
  -26.5637  -34.8916   22.4666 O   0  0  0  0  0  0
  -23.5407  -32.1416   23.7360 O   0  0  0  0  0  0
  -30.0678  -19.3580   19.8020 C   0  0  0  0  0  0
  -30.2299  -17.9310   19.8278 C   0  0  0  0  0  0
  -29.0396  -19.2707   21.9622 C   0  0  0  0  0  0
  -29.1525  -17.8466   21.9867 C   0  0  0  0  0  0
  -29.4668  -20.0815   20.8749 C   0  0  0  0  0  0
  -29.7739  -17.1316   20.9175 C   0  0  0  0  0  0
  -29.2256  -22.4992   19.9511 C   0  0  0  0  0  0
  -29.1241  -23.7617   21.9767 C   0  0  0  0  0  0
  -29.2000  -22.2405   22.2320 C   0  0  0  0  0  0
  -29.2790  -23.9930   20.4631 C   0  0  1  0  0  0
  -30.6772  -24.5523   20.1238 C   0  0  0  0  0  0
  -28.1920  -25.0223   19.8935 C   0  0  0  0  0  0
  -28.5763  -17.0878   23.1853 C   0  0  0  0  0  0
  -29.3167  -21.5568   20.9417 N   0  0  0  0  0  0
  -29.7600  -15.6605   20.9373 N   0  0  0  0  0  0
  -29.1404  -22.2404   18.7465 O   0  0  0  0  0  0
  -27.9488  -17.8887   24.0489 F   0  0  0  0  0  0
  -27.6977  -16.1744   22.7668 F   0  0  0  0  0  0
  -29.5549  -16.4630   23.8408 F   0  0  0  0  0  0
  -31.4848  -12.5529   19.1433 H   0  0  0  0  0  0
  -30.3940  -11.4099   19.8782 H   0  0  0  0  0  0
  -29.7711  -11.7808   17.4703 H   0  0  0  0  0  0
  -29.6434  -13.4988   17.7477 H   0  0  0  0  0  0
  -27.8661  -11.3029   18.8547 H   0  0  0  0  0  0
  -27.3742  -12.6003   17.7980 H   0  0  0  0  0  0
  -27.6772  -14.2555   19.5460 H   0  0  0  0  0  0
  -28.7253  -12.0168   21.3494 H   0  0  0  0  0  0
  -28.4486  -13.6491   21.8703 H   0  0  0  0  0  0
  -25.2765   -9.5669   22.4752 H   0  0  0  0  0  0
  -23.9992   -7.4631   22.7478 H   0  0  0  0  0  0
  -21.0833   -8.8788   19.8961 H   0  0  0  0  0  0
  -22.3701  -10.9677   19.6179 H   0  0  0  0  0  0
  -21.2012   -7.6148   23.9714 H   0  0  0  0  0  0
  -21.1475   -6.0521   25.9074 H   0  0  0  0  0  0
  -22.0599   -2.7608   23.2844 H   0  0  0  0  0  0
  -22.4117  -11.9907   22.4812 H   0  0  0  0  0  0
  -21.1132  -13.1292   22.2653 H   0  0  0  0  0  0
  -24.6520  -15.8384   20.4919 H   0  0  0  0  0  0
  -26.2825  -15.6313   20.1038 H   0  0  0  0  0  0
  -26.7156  -32.5427   23.1081 H   0  0  0  0  0  0
  -25.0075  -33.9720   25.0404 H   0  0  0  0  0  0
  -22.7097  -31.2999   21.4082 H   0  0  0  0  0  0
  -23.3760  -35.9611   23.3316 H   0  0  0  0  0  0
  -24.3581  -36.8897   22.2059 H   0  0  0  0  0  0
  -23.7239  -37.6477   23.6672 H   0  0  0  0  0  0
  -26.0985  -31.5494   20.6129 H   0  0  0  0  0  0
  -26.8383  -30.8283   22.0124 H   0  0  0  0  0  0
  -28.1084  -28.9729   21.2055 H   0  0  0  0  0  0
  -25.9744  -25.9472   18.9681 H   0  0  0  0  0  0
  -23.9774  -27.3192   18.9900 H   0  0  0  0  0  0
  -23.7509  -30.5994   19.4090 H   0  0  0  0  0  0
  -22.7529  -29.2508   19.8579 H   0  0  0  0  0  0
  -25.1299  -36.1921   25.0821 H   0  0  0  0  0  0
  -20.9936  -28.3200   24.1419 H   0  0  0  0  0  0
  -20.5654  -26.2250   23.3593 H   0  0  0  0  0  0
  -21.6633  -26.7400   22.1195 H   0  0  0  0  0  0
  -19.6916  -25.6279   21.1210 H   0  0  0  0  0  0
  -19.6685  -27.3182   20.6733 H   0  0  0  0  0  0
  -17.4188  -26.6623   21.4017 H   0  0  0  0  0  0
  -18.0329  -26.0035   22.9003 H   0  0  0  0  0  0
  -19.7948  -30.7229   24.2239 H   0  0  0  0  0  0
  -17.5035  -31.6252   24.5142 H   0  0  0  0  0  0
  -15.5353  -30.2968   23.7681 H   0  0  0  0  0  0
  -15.8650  -28.0807   22.7078 H   0  0  0  0  0  0
  -24.5891  -30.7103   25.7796 H   0  0  0  0  0  0
  -24.8949  -32.2918   26.4889 H   0  0  0  0  0  0
  -25.8056  -30.8911   27.0224 H   0  0  0  0  0  0
  -26.2900  -29.6780   24.1198 H   0  0  0  0  0  0
  -27.4051  -29.7256   25.4660 H   0  0  0  0  0  0
  -27.8771  -30.4317   23.9381 H   0  0  0  0  0  0
  -27.2611  -33.3654   26.2060 H   0  0  0  0  0  0
  -28.3845  -32.6948   25.0329 H   0  0  0  0  0  0
  -28.0715  -31.8509   26.5427 H   0  0  0  0  0  0
  -28.2591  -38.0101   24.7512 H   0  0  0  0  0  0
  -28.1068  -36.2623   24.6291 H   0  0  0  0  0  0
  -27.2290  -37.1435   25.8872 H   0  0  0  0  0  0
  -20.9379  -29.8767   21.6947 H   0  0  0  0  0  0
  -26.0164  -38.2840   24.1433 H   0  0  0  0  0  0
  -30.4263  -19.8978   18.9361 H   0  0  0  0  0  0
  -30.6764  -17.4480   18.9702 H   0  0  0  0  0  0
  -28.5786  -19.7438   22.8139 H   0  0  0  0  0  0
  -29.8852  -24.2908   22.5522 H   0  0  0  0  0  0
  -28.1630  -24.1380   22.3289 H   0  0  0  0  0  0
  -28.2955  -21.9203   22.7502 H   0  0  0  0  0  0
  -30.0511  -21.9930   22.8678 H   0  0  0  0  0  0
  -31.4771  -23.8609   20.3939 H   0  0  0  0  0  0
  -30.8633  -25.4893   20.6482 H   0  0  0  0  0  0
  -30.7674  -24.7555   19.0561 H   0  0  0  0  0  0
  -27.2219  -24.6826   20.2580 H   0  0  0  0  0  0
  -28.1533  -24.9220   18.8075 H   0  0  0  0  0  0
  -28.9275  -15.2794   21.3642 H   0  0  0  0  0  0
  1 25  1  0  0  0
  1 30  2  0  0  0
  1 85  1  0  0  0
  2  3  1  0  0  0
  2 25  1  0  0  0
  2 90  1  0  0  0
  2 91  1  0  0  0
  3  4  1  0  0  0
  3 92  1  0  0  0
  3 93  1  0  0  0
  4  5  1  0  0  0
  4 94  1  0  0  0
  4 95  1  0  0  0
  5  6  1  0  0  0
  5 26  1  0  0  0
  5 96  1  0  0  0
  6 25  1  0  0  0
  6 97  1  0  0  0
  6 98  1  0  0  0
  7  8  2  0  0  0
  7 26  1  0  0  0
  7 29  1  0  0  0
  8  9  1  0  0  0
  8 22  1  0  0  0
  9 10  1  0  0  0
  9 27  2  0  0  0
 10 11  2  0  0  0
 10 15  1  0  0  0
 11 12  1  0  0  0
 11 99  1  0  0  0
 12 13  2  0  0  0
 12100  1  0  0  0
 13 14  1  0  0  0
 13 31  1  0  0  0
 14 15  2  0  0  0
 14101  1  0  0  0
 15102  1  0  0  0
 16 17  2  0  0  0
 16 21  1  0  0  0
 16 31  1  0  0  0
 17 18  1  0  0  0
 17103  1  0  0  0
 18 19  2  0  0  0
 18104  1  0  0  0
 19 20  1  0  0  0
 19 24  1  0  0  0
 20 21  2  0  0  0
 20105  1  0  0  0
 21 23  1  0  0  0
 22 28  1  0  0  0
 22 32  2  0  0  0
 26 27  1  0  0  0
 28106  1  0  0  0
 28107  1  0  0  0
 29108  1  0  0  0
 29109  1  0  0  0
 33 34  1  0  0  0
 33 66  1  0  0  0
 33 70  2  0  0  0
 34 36  1  0  0  0
 34 59  1  0  0  0
 34110  1  0  0  0
 35 44  2  0  0  0
 35 45  1  0  0  0
 35 68  1  0  0  0
 36 56  1  0  0  0
 36111  1  0  0  0
 37 39  1  0  0  0
 37 47  1  0  0  0
 37 66  1  0  0  0
 37112  1  0  0  0
 38 43  2  0  0  0
 38 46  1  0  0  0
 38 47  1  0  0  0
 39 64  1  0  0  0
 39 67  2  0  0  0
 40 52  1  0  0  0
 40 53  2  0  0  0
 40 58  1  0  0  0
 41113  1  0  0  0
 41114  1  0  0  0
 41115  1  0  0  0
 41 48  1  0  0  0
 42 43  1  0  0  0
 42 66  1  0  0  0
 42116  1  0  0  0
 42117  1  0  0  0
 43 44  1  0  0  0
 44118  1  0  0  0
 45 46  2  0  0  0
 45119  1  0  0  0
 46120  1  0  0  0
 47121  1  0  0  0
 47122  1  0  0  0
 48 56  1  0  0  0
 48 65  1  0  0  0
 48123  1  0  0  0
 49 50  1  0  0  0
 49 53  1  0  0  0
 49 64  1  0  0  0
 49124  1  0  0  0
 50 51  1  0  0  0
 50125  1  0  0  0
 50126  1  0  0  0
 51 52  1  0  0  0
 51127  1  0  0  0
 51128  1  0  0  0
 52129  1  0  0  0
 52130  1  0  0  0
 53 54  1  0  0  0
 54 55  2  0  0  0
 54131  1  0  0  0
 55 57  1  0  0  0
 55132  1  0  0  0
 56 69  2  0  0  0
 57 58  2  0  0  0
 57133  1  0  0  0
 58134  1  0  0  0
 59 60  1  0  0  0
 59 61  1  0  0  0
 59 62  1  0  0  0
 60135  1  0  0  0
 60136  1  0  0  0
 60137  1  0  0  0
 61138  1  0  0  0
 61139  1  0  0  0
 61140  1  0  0  0
 62141  1  0  0  0
 62142  1  0  0  0
 62143  1  0  0  0
 63 65  1  0  0  0
 63144  1  0  0  0
 63145  1  0  0  0
 63146  1  0  0  0
 64147  1  0  0  0
 65148  1  0  0  0
 68 82  1  0  0  0
 71 72  2  0  0  0
 71 75  1  0  0  0
 71149  1  0  0  0
 72 76  1  0  0  0
 72150  1  0  0  0
 73 74  1  0  0  0
 73 75  2  0  0  0
 73151  1  0  0  0
 74 76  2  0  0  0
 74 83  1  0  0  0
 75 84  1  0  0  0
 76 85  1  0  0  0
 77 80  1  0  0  0
 77 84  1  0  0  0
 77 86  2  0  0  0
 78 79  1  0  0  0
 78 80  1  0  0  0
 78152  1  0  0  0
 78153  1  0  0  0
 79 84  1  0  0  0
 79154  1  0  0  0
 79155  1  0  0  0
 80 81  1  0  0  0
 80 82  1  0  0  0
 81156  1  0  0  0
 81157  1  0  0  0
 81158  1  0  0  0
 82159  1  0  0  0
 82160  1  0  0  0
 83 87  1  0  0  0
 83 88  1  0  0  0
 83 89  1  0  0  0
 85161  1  0  0  0
M  ISO  4   1 100  68 101  82 101  85 100
M  END
> <chiral flag>
0

> <version>
0

> <s_m_source_file>
/data/baiqing/PycharmProjects/Reinvent-master-3.2/result/LINK_invent/BTK/process_docking_weight1_custom_product_contain_oxygen_bond_distance_aromatic_linkinvent_7_9_3/rearranged_h_0071.sdf

> <i_m_source_file_index>
5

> <r_mmod_Potential_Energy-OPLS-2005>
235.939178466797

> <r_mmod_Stretch_Energy-OPLS-2005>
89.0045623779297

> <r_mmod_Bend_Energy-OPLS-2005>
169.404602050781

> <r_mmod_Torsional_Energy-OPLS-2005>
285.474945068359

> <r_mmod_Improper_Torsional_Energy-OPLS-2005>
3.84431457519531

> <r_mmod_Van_der_Waal_Energy-OPLS-2005>
145.112106323242

> <r_mmod_Electrostatic_Energy-OPLS-2005>
-303.429809570312

> <r_mmod_Solvation_Energy-OPLS-2005>
-206.907012939453

> <b_mmod_Minimization_Converged-OPLS-2005>
0

> <r_mmod_RMS_Derivative-OPLS-2005>
1.61251974105835

$$$$
5
                    3D
 Structure written by MMmdl.
148156  0  0  1  0            999 V2000
  -30.5229  -14.9232   20.4181 C   0  0  0  0  0  0
  -30.4522  -12.5679   19.4857 C   0  0  0  0  0  0
  -29.5227  -12.5332   18.2487 C   0  0  0  0  0  0
  -28.0534  -12.3247   18.6659 C   0  0  0  0  0  0
  -27.6357  -13.2432   19.8441 C   0  0  2  0  0  0
  -28.6845  -13.2333   20.9779 C   0  0  0  0  0  0
  -25.2456  -13.8175   20.5705 C   0  0  0  0  0  0
  -24.1773  -13.0399   20.9199 C   0  0  0  0  0  0
  -24.6405  -11.6897   20.8735 C   0  0  0  0  0  0
  -23.9085  -10.4272   21.0392 C   0  0  0  0  0  0
  -24.3628   -9.4192   21.9179 C   0  0  0  0  0  0
  -23.6291   -8.2235   22.0754 C   0  0  0  0  0  0
  -22.4274   -8.0279   21.3544 C   0  0  0  0  0  0
  -21.9913   -9.0252   20.4647 C   0  0  0  0  0  0
  -22.7251  -10.2121   20.3049 C   0  0  0  0  0  0
  -21.6852   -6.0729   22.5276 C   0  0  0  0  0  0
  -21.4014   -6.5632   23.8209 C   0  0  0  0  0  0
  -21.3661   -5.6786   24.9172 C   0  0  0  0  0  0
  -21.6045   -4.3049   24.7224 C   0  0  0  0  0  0
  -21.8819   -3.8140   23.4346 C   0  0  0  0  0  0
  -21.9192   -4.6956   22.3400 C   0  0  0  0  0  0
  -22.7793  -13.5178   21.1865 C   0  0  0  0  0  0
  -22.1662   -4.2142   21.0978 F   0  0  0  0  0  0
  -21.5629   -3.4535   25.7738 F   0  0  0  0  0  0
  -29.9675  -13.6465   20.3882 N   0  0  0  0  0  0
  -26.2919  -12.9426   20.3274 N   0  0  0  0  0  0
  -25.9344  -11.6552   20.5738 N   0  0  0  0  0  0
  -22.0453  -12.8180   22.0439 N   0  0  0  0  0  0
  -25.3985  -15.1905   20.4184 N   0  0  0  0  0  0
  -31.7200  -15.0470   20.1363 O   0  0  0  0  0  0
  -21.6638   -6.8877   21.4241 O   0  0  0  0  0  0
  -22.3469  -14.5485   20.6719 O   0  0  0  0  0  0
  -24.6439  -31.8448   23.1893 C   0  0  0  0  0  0
  -25.9212  -32.4700   23.8284 C   0  0  1  0  0  0
  -27.2223  -27.1432   20.1398 C   0  0  0  0  0  0
  -25.5958  -33.8506   24.2198 N   0  0  0  0  0  0
  -23.4477  -30.4650   21.5350 C   0  0  2  0  0  0
  -24.8980  -28.8964   20.1096 C   0  0  0  0  0  0
  -22.7575  -29.4549   22.4860 C   0  0  0  0  0  0
  -18.0310  -28.1394   22.8479 C   0  0  0  0  0  0
  -24.1494  -36.7257   23.2643 C   0  0  0  0  0  0
  -26.0046  -30.7195   21.3893 C   0  0  0  0  0  0
  -26.0766  -29.3321   20.7284 C   0  0  0  0  0  0
  -27.2389  -28.4715   20.7288 C   0  0  0  0  0  0
  -26.0152  -26.8130   19.4806 C   0  0  0  0  0  0
  -24.8797  -27.6491   19.4716 C   0  0  0  0  0  0
  -23.6743  -29.7971   20.1537 C   0  0  0  0  0  0
  -25.4126  -36.3034   24.0315 C   0  0  1  0  0  0
  -20.5923  -28.3721   23.1235 C   0  0  2  0  0  0
  -20.6792  -26.9422   22.5404 C   0  0  0  0  0  0
  -19.5763  -26.6377   21.5215 C   0  0  0  0  0  0
  -18.1947  -26.7931   22.1629 C   0  0  0  0  0  0
  -19.1567  -28.8877   23.2848 C   0  0  0  0  0  0
  -18.9481  -30.1472   23.8873 C   0  0  0  0  0  0
  -17.6475  -30.6587   24.0559 C   0  0  0  0  0  0
  -25.9075  -34.9408   23.5066 C   0  0  0  0  0  0
  -16.5367  -29.9078   23.6333 C   0  0  0  0  0  0
  -16.7295  -28.6499   23.0353 C   0  0  0  0  0  0
  -26.4526  -31.6565   25.0726 C   0  0  0  0  0  0
  -25.3704  -31.3764   26.1418 C   0  0  0  0  0  0
  -27.0383  -30.2952   24.6315 C   0  0  0  0  0  0
  -27.6058  -32.4329   25.7509 C   0  0  0  0  0  0
  -27.5573  -37.1795   24.8471 C   0  0  0  0  0  0
  -21.4268  -29.3048   22.3605 N   0  0  0  0  0  0
  -26.4295  -37.3740   23.9396 N   0  0  0  0  0  0
  -24.7183  -31.0306   22.0927 N   0  0  0  0  0  0
  -23.4220  -28.8092   23.3006 O   0  0  0  0  0  0
  -28.2679  -26.1479   20.2098 O   0  0  0  0  0  0
  -26.5660  -34.8903   22.4644 O   0  0  0  0  0  0
  -23.5556  -32.1328   23.7105 O   0  0  0  0  0  0
  -30.2961  -20.0170   20.4256 C   0  0  0  0  0  0
  -30.5838  -18.5770   20.5039 C   0  0  0  0  0  0
  -28.0053  -19.5294   20.1717 C   0  0  0  0  0  0
  -28.9753  -20.5791   20.2571 C   0  0  0  0  0  0
  -29.5783  -17.5427   20.4311 C   0  0  0  0  0  0
  -28.2822  -18.1155   20.2590 C   0  0  0  0  0  0
  -28.9344  -23.3662   20.2880 C   0  0  0  0  0  0
  -27.9293  -24.6471   19.9728 C   0  0  0  0  0  0
  -28.4899  -22.0311   20.1185 N   0  0  0  0  0  0
  -29.6452  -16.0185   20.5765 N   0  0  0  0  0  0
  -30.0846  -23.5963   20.6703 O   0  0  0  0  0  0
  -27.2386  -17.2582   20.1703 F   0  0  0  0  0  0
  -31.4835  -12.7374   19.1725 H   0  0  0  0  0  0
  -30.4493  -11.6058   20.0004 H   0  0  0  0  0  0
  -29.8323  -11.7426   17.5639 H   0  0  0  0  0  0
  -29.6152  -13.4694   17.6962 H   0  0  0  0  0  0
  -27.9392  -11.2796   18.9559 H   0  0  0  0  0  0
  -27.3917  -12.4779   17.8127 H   0  0  0  0  0  0
  -27.6038  -14.2530   19.4341 H   0  0  0  0  0  0
  -28.7633  -12.2428   21.4286 H   0  0  0  0  0  0
  -28.3903  -13.9113   21.7806 H   0  0  0  0  0  0
  -25.2773   -9.5664   22.4755 H   0  0  0  0  0  0
  -23.9994   -7.4627   22.7479 H   0  0  0  0  0  0
  -21.0839   -8.8777   19.8956 H   0  0  0  0  0  0
  -22.3714  -10.9663   19.6160 H   0  0  0  0  0  0
  -21.2007   -7.6141   23.9710 H   0  0  0  0  0  0
  -21.1483   -6.0517   25.9074 H   0  0  0  0  0  0
  -22.0597   -2.7603   23.2849 H   0  0  0  0  0  0
  -22.4080  -11.9853   22.4836 H   0  0  0  0  0  0
  -21.1076  -13.1210   22.2656 H   0  0  0  0  0  0
  -24.6180  -15.8228   20.5520 H   0  0  0  0  0  0
  -26.2437  -15.6829   20.1485 H   0  0  0  0  0  0
  -26.7281  -32.5307   23.1018 H   0  0  0  0  0  0
  -25.0079  -33.9622   25.0327 H   0  0  0  0  0  0
  -22.7503  -31.2911   21.3817 H   0  0  0  0  0  0
  -23.3749  -35.9597   23.3317 H   0  0  0  0  0  0
  -24.3572  -36.8874   22.2054 H   0  0  0  0  0  0
  -23.7264  -37.6465   23.6670 H   0  0  0  0  0  0
  -26.1626  -31.4759   20.6192 H   0  0  0  0  0  0
  -26.8744  -30.7677   22.0330 H   0  0  0  0  0  0
  -28.1348  -28.7996   21.2373 H   0  0  0  0  0  0
  -25.9045  -25.8650   18.9778 H   0  0  0  0  0  0
  -23.9813  -27.3108   18.9740 H   0  0  0  0  0  0
  -23.8102  -30.5729   19.3992 H   0  0  0  0  0  0
  -22.7896  -29.2391   19.8428 H   0  0  0  0  0  0
  -25.1316  -36.1868   25.0809 H   0  0  0  0  0  0
  -21.0022  -28.3313   24.1353 H   0  0  0  0  0  0
  -20.5686  -26.2335   23.3625 H   0  0  0  0  0  0
  -21.6658  -26.7423   22.1202 H   0  0  0  0  0  0
  -19.6920  -25.6283   21.1257 H   0  0  0  0  0  0
  -19.6691  -27.3177   20.6736 H   0  0  0  0  0  0
  -17.4212  -26.6676   21.4036 H   0  0  0  0  0  0
  -18.0343  -26.0079   22.9032 H   0  0  0  0  0  0
  -19.7955  -30.7300   24.2230 H   0  0  0  0  0  0
  -17.5023  -31.6265   24.5165 H   0  0  0  0  0  0
  -15.5365  -30.2969   23.7664 H   0  0  0  0  0  0
  -15.8699  -28.0805   22.7076 H   0  0  0  0  0  0
  -24.5888  -30.7108   25.7740 H   0  0  0  0  0  0
  -24.8889  -32.2949   26.4781 H   0  0  0  0  0  0
  -25.7979  -30.8978   27.0237 H   0  0  0  0  0  0
  -26.3001  -29.6681   24.1303 H   0  0  0  0  0  0
  -27.3961  -29.7250   25.4899 H   0  0  0  0  0  0
  -27.8927  -30.4174   23.9656 H   0  0  0  0  0  0
  -27.2650  -33.3642   26.2044 H   0  0  0  0  0  0
  -28.3889  -32.6872   25.0355 H   0  0  0  0  0  0
  -28.0704  -31.8486   26.5461 H   0  0  0  0  0  0
  -28.2612  -38.0067   24.7470 H   0  0  0  0  0  0
  -28.1046  -36.2597   24.6360 H   0  0  0  0  0  0
  -27.2283  -37.1519   25.8873 H   0  0  0  0  0  0
  -20.9477  -29.8763   21.6786 H   0  0  0  0  0  0
  -26.0164  -38.2818   24.1361 H   0  0  0  0  0  0
  -31.1302  -20.7013   20.4938 H   0  0  0  0  0  0
  -31.6119  -18.2747   20.6419 H   0  0  0  0  0  0
  -26.9705  -19.8057   20.0355 H   0  0  0  0  0  0
  -27.0130  -24.4341   20.5243 H   0  0  0  0  0  0
  -27.6767  -24.5464   18.9172 H   0  0  0  0  0  0
  -27.5204  -22.0610   19.8323 H   0  0  0  0  0  0
  -28.7156  -15.6558   20.7243 H   0  0  0  0  0  0
  1 25  1  0  0  0
  1 30  2  0  0  0
  1 80  1  0  0  0
  2  3  1  0  0  0
  2 25  1  0  0  0
  2 83  1  0  0  0
  2 84  1  0  0  0
  3  4  1  0  0  0
  3 85  1  0  0  0
  3 86  1  0  0  0
  4  5  1  0  0  0
  4 87  1  0  0  0
  4 88  1  0  0  0
  5  6  1  0  0  0
  5 26  1  0  0  0
  5 89  1  0  0  0
  6 25  1  0  0  0
  6 90  1  0  0  0
  6 91  1  0  0  0
  7  8  2  0  0  0
  7 26  1  0  0  0
  7 29  1  0  0  0
  8  9  1  0  0  0
  8 22  1  0  0  0
  9 10  1  0  0  0
  9 27  2  0  0  0
 10 11  2  0  0  0
 10 15  1  0  0  0
 11 12  1  0  0  0
 11 92  1  0  0  0
 12 13  2  0  0  0
 12 93  1  0  0  0
 13 14  1  0  0  0
 13 31  1  0  0  0
 14 15  2  0  0  0
 14 94  1  0  0  0
 15 95  1  0  0  0
 16 17  2  0  0  0
 16 21  1  0  0  0
 16 31  1  0  0  0
 17 18  1  0  0  0
 17 96  1  0  0  0
 18 19  2  0  0  0
 18 97  1  0  0  0
 19 20  1  0  0  0
 19 24  1  0  0  0
 20 21  2  0  0  0
 20 98  1  0  0  0
 21 23  1  0  0  0
 22 28  1  0  0  0
 22 32  2  0  0  0
 26 27  1  0  0  0
 28 99  1  0  0  0
 28100  1  0  0  0
 29101  1  0  0  0
 29102  1  0  0  0
 33 34  1  0  0  0
 33 66  1  0  0  0
 33 70  2  0  0  0
 34 36  1  0  0  0
 34 59  1  0  0  0
 34103  1  0  0  0
 35 44  2  0  0  0
 35 45  1  0  0  0
 35 68  1  0  0  0
 36 56  1  0  0  0
 36104  1  0  0  0
 37 39  1  0  0  0
 37 47  1  0  0  0
 37 66  1  0  0  0
 37105  1  0  0  0
 38 43  2  0  0  0
 38 46  1  0  0  0
 38 47  1  0  0  0
 39 64  1  0  0  0
 39 67  2  0  0  0
 40 52  1  0  0  0
 40 53  2  0  0  0
 40 58  1  0  0  0
 41106  1  0  0  0
 41107  1  0  0  0
 41108  1  0  0  0
 41 48  1  0  0  0
 42 43  1  0  0  0
 42 66  1  0  0  0
 42109  1  0  0  0
 42110  1  0  0  0
 43 44  1  0  0  0
 44111  1  0  0  0
 45 46  2  0  0  0
 45112  1  0  0  0
 46113  1  0  0  0
 47114  1  0  0  0
 47115  1  0  0  0
 48 56  1  0  0  0
 48 65  1  0  0  0
 48116  1  0  0  0
 49 50  1  0  0  0
 49 53  1  0  0  0
 49 64  1  0  0  0
 49117  1  0  0  0
 50 51  1  0  0  0
 50118  1  0  0  0
 50119  1  0  0  0
 51 52  1  0  0  0
 51120  1  0  0  0
 51121  1  0  0  0
 52122  1  0  0  0
 52123  1  0  0  0
 53 54  1  0  0  0
 54 55  2  0  0  0
 54124  1  0  0  0
 55 57  1  0  0  0
 55125  1  0  0  0
 56 69  2  0  0  0
 57 58  2  0  0  0
 57126  1  0  0  0
 58127  1  0  0  0
 59 60  1  0  0  0
 59 61  1  0  0  0
 59 62  1  0  0  0
 60128  1  0  0  0
 60129  1  0  0  0
 60130  1  0  0  0
 61131  1  0  0  0
 61132  1  0  0  0
 61133  1  0  0  0
 62134  1  0  0  0
 62135  1  0  0  0
 62136  1  0  0  0
 63 65  1  0  0  0
 63137  1  0  0  0
 63138  1  0  0  0
 63139  1  0  0  0
 64140  1  0  0  0
 65141  1  0  0  0
 68 78  1  0  0  0
 71 72  2  0  0  0
 71 74  1  0  0  0
 71142  1  0  0  0
 72 75  1  0  0  0
 72143  1  0  0  0
 73 74  2  0  0  0
 73 76  1  0  0  0
 73144  1  0  0  0
 74 79  1  0  0  0
 75 76  2  0  0  0
 75 80  1  0  0  0
 76 82  1  0  0  0
 77 78  1  0  0  0
 77 79  1  0  0  0
 77 81  2  0  0  0
 78145  1  0  0  0
 78146  1  0  0  0
 79147  1  0  0  0
 80148  1  0  0  0
M  ISO  4   1 100  68 101  78 101  80 100
M  END
> <chiral flag>
0

> <version>
0

> <s_m_source_file>
/data/baiqing/PycharmProjects/Reinvent-master-3.2/result/LINK_invent/BTK/process_docking_weight1_custom_product_contain_oxygen_bond_distance_aromatic_linkinvent_7_9_3/rearranged_h_0071.sdf

> <i_m_source_file_index>
6

> <r_mmod_Potential_Energy-OPLS-2005>
393.216552734375

> <r_mmod_Stretch_Energy-OPLS-2005>
217.871948242188

> <r_mmod_Bend_Energy-OPLS-2005>
284.265167236328

> <r_mmod_Torsional_Energy-OPLS-2005>
220.855941772461

> <r_mmod_Improper_Torsional_Energy-OPLS-2005>
4.66032266616821

> <r_mmod_Van_der_Waal_Energy-OPLS-2005>
131.992782592773

> <r_mmod_Electrostatic_Energy-OPLS-2005>
-408.452697753906

> <r_mmod_Solvation_Energy-OPLS-2005>
-240.841186523438

> <b_mmod_Minimization_Converged-OPLS-2005>
0

> <r_mmod_RMS_Derivative-OPLS-2005>
0.679981827735901

$$$$
6
                    3D
 Structure written by MMmdl.
171180  0  0  1  0            999 V2000
  -30.7421  -14.6205   20.4520 C   0  0  0  0  0  0
  -30.4127  -12.3732   19.4723 C   0  0  0  0  0  0
  -29.4986  -12.4695   18.2352 C   0  0  0  0  0  0
  -28.0269  -12.3034   18.6534 C   0  0  0  0  0  0
  -27.6387  -13.2085   19.8512 C   0  0  2  0  0  0
  -28.6967  -13.1922   20.9796 C   0  0  0  0  0  0
  -25.2552  -13.8177   20.5758 C   0  0  0  0  0  0
  -24.1805  -13.0446   20.9232 C   0  0  0  0  0  0
  -24.6377  -11.6917   20.8774 C   0  0  0  0  0  0
  -23.9058  -10.4305   21.0419 C   0  0  0  0  0  0
  -24.3622   -9.4208   21.9174 C   0  0  0  0  0  0
  -23.6299   -8.2245   22.0735 C   0  0  0  0  0  0
  -22.4275   -8.0303   21.3533 C   0  0  0  0  0  0
  -21.9922   -9.0275   20.4618 C   0  0  0  0  0  0
  -22.7252  -10.2156   20.3025 C   0  0  0  0  0  0
  -21.6852   -6.0766   22.5288 C   0  0  0  0  0  0
  -21.4032   -6.5671   23.8223 C   0  0  0  0  0  0
  -21.3639   -5.6809   24.9178 C   0  0  0  0  0  0
  -21.6037   -4.3075   24.7217 C   0  0  0  0  0  0
  -21.8828   -3.8174   23.4340 C   0  0  0  0  0  0
  -21.9195   -4.6994   22.3399 C   0  0  0  0  0  0
  -22.7826  -13.5246   21.1871 C   0  0  0  0  0  0
  -22.1659   -4.2185   21.0974 F   0  0  0  0  0  0
  -21.5589   -3.4548   25.7720 F   0  0  0  0  0  0
  -30.0164  -13.4580   20.3933 N   0  0  0  0  0  0
  -26.2958  -12.9307   20.3399 N   0  0  0  0  0  0
  -25.9318  -11.6485   20.5864 N   0  0  0  0  0  0
  -22.0461  -12.8229   22.0416 N   0  0  0  0  0  0
  -25.4290  -15.1898   20.4176 N   0  0  0  0  0  0
  -31.9271  -14.6189   20.1166 O   0  0  0  0  0  0
  -21.6612   -6.8917   21.4263 O   0  0  0  0  0  0
  -22.3538  -14.5572   20.6749 O   0  0  0  0  0  0
  -24.6237  -31.8662   23.2080 C   0  0  0  0  0  0
  -25.9113  -32.4814   23.8394 C   0  0  1  0  0  0
  -27.1964  -27.3508   20.1031 C   0  0  0  0  0  0
  -25.5965  -33.8605   24.2325 N   0  0  0  0  0  0
  -23.4128  -30.4993   21.5486 C   0  0  2  0  0  0
  -24.8519  -28.9736   20.0956 C   0  0  0  0  0  0
  -22.7465  -29.4678   22.4921 C   0  0  0  0  0  0
  -18.0297  -28.1396   22.8507 C   0  0  0  0  0  0
  -24.1480  -36.7292   23.2638 C   0  0  0  0  0  0
  -25.9543  -30.8072   21.3730 C   0  0  0  0  0  0
  -26.0210  -29.4398   20.7116 C   0  0  0  0  0  0
  -27.1957  -28.6360   20.7165 C   0  0  0  0  0  0
  -26.0133  -26.9521   19.4322 C   0  0  0  0  0  0
  -24.8508  -27.7349   19.4420 C   0  0  0  0  0  0
  -23.6195  -29.8476   20.1565 C   0  0  0  0  0  0
  -25.4102  -36.3108   24.0348 C   0  0  1  0  0  0
  -20.5910  -28.3699   23.1286 C   0  0  2  0  0  0
  -20.6796  -26.9416   22.5406 C   0  0  0  0  0  0
  -19.5760  -26.6389   21.5225 C   0  0  0  0  0  0
  -18.1943  -26.7953   22.1627 C   0  0  0  0  0  0
  -19.1558  -28.8861   23.2901 C   0  0  0  0  0  0
  -18.9483  -30.1477   23.8900 C   0  0  0  0  0  0
  -17.6480  -30.6599   24.0581 C   0  0  0  0  0  0
  -25.9053  -34.9485   23.5135 C   0  0  0  0  0  0
  -16.5367  -29.9108   23.6327 C   0  0  0  0  0  0
  -16.7279  -28.6522   23.0344 C   0  0  0  0  0  0
  -26.4497  -31.6592   25.0732 C   0  0  0  0  0  0
  -25.3733  -31.3719   26.1467 C   0  0  0  0  0  0
  -27.0307  -30.3027   24.6112 C   0  0  0  0  0  0
  -27.6080  -32.4288   25.7487 C   0  0  0  0  0  0
  -27.5578  -37.1793   24.8460 C   0  0  0  0  0  0
  -21.4181  -29.3075   22.3676 N   0  0  0  0  0  0
  -26.4261  -37.3804   23.9445 N   0  0  0  0  0  0
  -24.6831  -31.0720   22.1004 N   0  0  0  0  0  0
  -23.4235  -28.8187   23.2943 O   0  0  0  0  0  0
  -28.2903  -26.4806   20.1773 O   0  0  0  0  0  0
  -26.5577  -34.8942   22.4674 O   0  0  0  0  0  0
  -23.5423  -32.1434   23.7433 O   0  0  0  0  0  0
  -29.0681  -16.4588   19.8143 C   0  0  0  0  0  0
  -28.5733  -17.7880   19.8183 C   0  0  0  0  0  0
  -30.1754  -18.3724   21.4985 C   0  0  0  0  0  0
  -30.1161  -16.0183   20.6610 C   0  0  0  0  0  0
  -30.7178  -17.0482   21.4644 C   0  0  0  0  0  0
  -29.1174  -18.7949   20.6553 C   0  0  0  0  0  0
  -29.1661  -21.3226   21.0977 C   0  0  0  0  0  0
  -32.9446  -17.3781   21.6286 C   0  0  0  0  0  0
  -27.2770  -22.0344   19.8751 C   0  0  0  0  0  0
  -27.3393  -20.5022   19.9673 C   0  0  0  0  0  0
  -28.2237  -22.5572   20.9641 C   0  0  1  0  0  0
  -27.4565  -22.7182   22.3006 C   0  0  0  0  0  0
  -34.9124  -18.7732   22.3478 C   0  0  0  0  0  0
  -35.2818  -16.4665   21.3674 C   0  0  0  0  0  0
  -28.9217  -23.9382   20.5941 C   0  0  0  0  0  0
  -27.9565  -25.0530   20.0526 C   0  0  0  0  0  0
  -34.3468  -17.3482   22.2124 C   0  0  0  0  0  0
  -31.9154  -16.8437   22.1631 N   0  0  0  0  0  0
  -28.6175  -20.1732   20.6017 N   0  0  0  0  0  0
  -30.2845  -21.4299   21.6072 O   0  0  0  0  0  0
  -31.4608  -12.4225   19.1682 H   0  0  0  0  0  0
  -30.2926  -11.4063   19.9633 H   0  0  0  0  0  0
  -29.7648  -11.6954   17.5137 H   0  0  0  0  0  0
  -29.6423  -13.4280   17.7344 H   0  0  0  0  0  0
  -27.8842  -11.2580   18.9284 H   0  0  0  0  0  0
  -27.3652  -12.4882   17.8066 H   0  0  0  0  0  0
  -27.5889  -14.2036   19.4379 H   0  0  0  0  0  0
  -28.7098  -12.2335   21.4976 H   0  0  0  0  0  0
  -28.4598  -13.9463   21.7314 H   0  0  0  0  0  0
  -25.2775   -9.5704   22.4731 H   0  0  0  0  0  0
  -24.0015   -7.4666   22.7462 H   0  0  0  0  0  0
  -21.0847   -8.8820   19.8932 H   0  0  0  0  0  0
  -22.3733  -10.9702   19.6118 H   0  0  0  0  0  0
  -21.2046   -7.6184   23.9767 H   0  0  0  0  0  0
  -21.1408   -6.0501   25.9089 H   0  0  0  0  0  0
  -22.0616   -2.7639   23.2807 H   0  0  0  0  0  0
  -22.4066  -11.9879   22.4785 H   0  0  0  0  0  0
  -21.1073  -13.1245   22.2608 H   0  0  0  0  0  0
  -24.6688  -15.8517   20.5290 H   0  0  0  0  0  0
  -26.3052  -15.6341   20.1769 H   0  0  0  0  0  0
  -26.7186  -32.5493   23.1154 H   0  0  0  0  0  0
  -25.0170  -33.9741   25.0515 H   0  0  0  0  0  0
  -22.7070  -31.3230   21.4159 H   0  0  0  0  0  0
  -23.3763  -35.9593   23.3262 H   0  0  0  0  0  0
  -24.3608  -36.8938   22.2065 H   0  0  0  0  0  0
  -23.7180  -37.6471   23.6652 H   0  0  0  0  0  0
  -26.0819  -31.5710   20.6056 H   0  0  0  0  0  0
  -26.8414  -30.8571   21.9924 H   0  0  0  0  0  0
  -28.0847  -28.9765   21.2295 H   0  0  0  0  0  0
  -25.9459  -26.0206   18.8916 H   0  0  0  0  0  0
  -23.9629  -27.3828   18.9321 H   0  0  0  0  0  0
  -23.7315  -30.6311   19.4058 H   0  0  0  0  0  0
  -22.7406  -29.2761   19.8521 H   0  0  0  0  0  0
  -25.1265  -36.1966   25.0830 H   0  0  0  0  0  0
  -21.0026  -28.3269   24.1395 H   0  0  0  0  0  0
  -20.5727  -26.2294   23.3601 H   0  0  0  0  0  0
  -21.6663  -26.7471   22.1170 H   0  0  0  0  0  0
  -19.6910  -25.6304   21.1238 H   0  0  0  0  0  0
  -19.6692  -27.3219   20.6775 H   0  0  0  0  0  0
  -17.4211  -26.6727   21.4019 H   0  0  0  0  0  0
  -18.0317  -26.0098   22.9016 H   0  0  0  0  0  0
  -19.7962  -30.7311   24.2237 H   0  0  0  0  0  0
  -17.5034  -31.6271   24.5206 H   0  0  0  0  0  0
  -15.5368  -30.3023   23.7643 H   0  0  0  0  0  0
  -15.8678  -28.0855   22.7031 H   0  0  0  0  0  0
  -24.5916  -30.7063   25.7797 H   0  0  0  0  0  0
  -24.8905  -32.2883   26.4878 H   0  0  0  0  0  0
  -25.8083  -30.8904   27.0240 H   0  0  0  0  0  0
  -26.2846  -29.6813   24.1144 H   0  0  0  0  0  0
  -27.4074  -29.7250   25.4563 H   0  0  0  0  0  0
  -27.8702  -30.4358   23.9276 H   0  0  0  0  0  0
  -27.2739  -33.3626   26.2024 H   0  0  0  0  0  0
  -28.3915  -32.6779   25.0310 H   0  0  0  0  0  0
  -28.0709  -31.8407   26.5425 H   0  0  0  0  0  0
  -28.2552  -38.0130   24.7604 H   0  0  0  0  0  0
  -28.1113  -36.2689   24.6149 H   0  0  0  0  0  0
  -27.2330  -37.1286   25.8859 H   0  0  0  0  0  0
  -20.9315  -29.8822   21.6936 H   0  0  0  0  0  0
  -26.0156  -38.2862   24.1500 H   0  0  0  0  0  0
  -28.6996  -15.8026   19.0469 H   0  0  0  0  0  0
  -27.7912  -18.0196   19.1129 H   0  0  0  0  0  0
  -30.6398  -19.0915   22.1572 H   0  0  0  0  0  0
  -32.8868  -17.9190   20.6772 H   0  0  0  0  0  0
  -26.2557  -22.4036   19.9775 H   0  0  0  0  0  0
  -27.6295  -22.3484   18.8921 H   0  0  0  0  0  0
  -27.2225  -20.0650   18.9766 H   0  0  0  0  0  0
  -26.5305  -20.1279   20.5985 H   0  0  0  0  0  0
  -26.9883  -21.7878   22.6235 H   0  0  0  0  0  0
  -26.6601  -23.4564   22.2282 H   0  0  0  0  0  0
  -28.1160  -23.0385   23.1070 H   0  0  0  0  0  0
  -34.2824  -19.3928   22.9878 H   0  0  0  0  0  0
  -34.9934  -19.2746   21.3814 H   0  0  0  0  0  0
  -35.9066  -18.7594   22.7940 H   0  0  0  0  0  0
  -34.9218  -15.4384   21.3136 H   0  0  0  0  0  0
  -36.2824  -16.4345   21.7978 H   0  0  0  0  0  0
  -35.3744  -16.8393   20.3470 H   0  0  0  0  0  0
  -29.7102  -23.7688   19.8601 H   0  0  0  0  0  0
  -29.4273  -24.3178   21.4826 H   0  0  0  0  0  0
  -27.0033  -24.8884   20.5545 H   0  0  0  0  0  0
  -27.7864  -24.8391   18.9966 H   0  0  0  0  0  0
  -34.2827  -16.9198   23.2132 H   0  0  0  0  0  0
  1 25  1  0  0  0
  1 30  2  0  0  0
  1 74  1  0  0  0
  2  3  1  0  0  0
  2 25  1  0  0  0
  2 91  1  0  0  0
  2 92  1  0  0  0
  3  4  1  0  0  0
  3 93  1  0  0  0
  3 94  1  0  0  0
  4  5  1  0  0  0
  4 95  1  0  0  0
  4 96  1  0  0  0
  5  6  1  0  0  0
  5 26  1  0  0  0
  5 97  1  0  0  0
  6 25  1  0  0  0
  6 98  1  0  0  0
  6 99  1  0  0  0
  7  8  2  0  0  0
  7 26  1  0  0  0
  7 29  1  0  0  0
  8  9  1  0  0  0
  8 22  1  0  0  0
  9 10  1  0  0  0
  9 27  2  0  0  0
 10 11  2  0  0  0
 10 15  1  0  0  0
 11 12  1  0  0  0
 11100  1  0  0  0
 12 13  2  0  0  0
 12101  1  0  0  0
 13 14  1  0  0  0
 13 31  1  0  0  0
 14 15  2  0  0  0
 14102  1  0  0  0
 15103  1  0  0  0
 16 17  2  0  0  0
 16 21  1  0  0  0
 16 31  1  0  0  0
 17 18  1  0  0  0
 17104  1  0  0  0
 18 19  2  0  0  0
 18105  1  0  0  0
 19 20  1  0  0  0
 19 24  1  0  0  0
 20 21  2  0  0  0
 20106  1  0  0  0
 21 23  1  0  0  0
 22 28  1  0  0  0
 22 32  2  0  0  0
 26 27  1  0  0  0
 28107  1  0  0  0
 28108  1  0  0  0
 29109  1  0  0  0
 29110  1  0  0  0
 33 34  1  0  0  0
 33 66  1  0  0  0
 33 70  2  0  0  0
 34 36  1  0  0  0
 34 59  1  0  0  0
 34111  1  0  0  0
 35 44  2  0  0  0
 35 45  1  0  0  0
 35 68  1  0  0  0
 36 56  1  0  0  0
 36112  1  0  0  0
 37 39  1  0  0  0
 37 47  1  0  0  0
 37 66  1  0  0  0
 37113  1  0  0  0
 38 43  2  0  0  0
 38 46  1  0  0  0
 38 47  1  0  0  0
 39 64  1  0  0  0
 39 67  2  0  0  0
 40 52  1  0  0  0
 40 53  2  0  0  0
 40 58  1  0  0  0
 41114  1  0  0  0
 41115  1  0  0  0
 41116  1  0  0  0
 41 48  1  0  0  0
 42 43  1  0  0  0
 42 66  1  0  0  0
 42117  1  0  0  0
 42118  1  0  0  0
 43 44  1  0  0  0
 44119  1  0  0  0
 45 46  2  0  0  0
 45120  1  0  0  0
 46121  1  0  0  0
 47122  1  0  0  0
 47123  1  0  0  0
 48 56  1  0  0  0
 48 65  1  0  0  0
 48124  1  0  0  0
 49 50  1  0  0  0
 49 53  1  0  0  0
 49 64  1  0  0  0
 49125  1  0  0  0
 50 51  1  0  0  0
 50126  1  0  0  0
 50127  1  0  0  0
 51 52  1  0  0  0
 51128  1  0  0  0
 51129  1  0  0  0
 52130  1  0  0  0
 52131  1  0  0  0
 53 54  1  0  0  0
 54 55  2  0  0  0
 54132  1  0  0  0
 55 57  1  0  0  0
 55133  1  0  0  0
 56 69  2  0  0  0
 57 58  2  0  0  0
 57134  1  0  0  0
 58135  1  0  0  0
 59 60  1  0  0  0
 59 61  1  0  0  0
 59 62  1  0  0  0
 60136  1  0  0  0
 60137  1  0  0  0
 60138  1  0  0  0
 61139  1  0  0  0
 61140  1  0  0  0
 61141  1  0  0  0
 62142  1  0  0  0
 62143  1  0  0  0
 62144  1  0  0  0
 63 65  1  0  0  0
 63145  1  0  0  0
 63146  1  0  0  0
 63147  1  0  0  0
 64148  1  0  0  0
 65149  1  0  0  0
 68 86  1  0  0  0
 71 72  2  0  0  0
 71 74  1  0  0  0
 71150  1  0  0  0
 72 76  1  0  0  0
 72151  1  0  0  0
 73 75  1  0  0  0
 73 76  2  0  0  0
 73152  1  0  0  0
 74 75  2  0  0  0
 75 88  1  0  0  0
 76 89  1  0  0  0
 77 81  1  0  0  0
 77 89  1  0  0  0
 77 90  2  0  0  0
 78 87  1  0  0  0
 78 88  2  0  0  0
 78153  1  0  0  0
 79 80  1  0  0  0
 79 81  1  0  0  0
 79154  1  0  0  0
 79155  1  0  0  0
 80 89  1  0  0  0
 80156  1  0  0  0
 80157  1  0  0  0
 81 82  1  0  0  0
 81 85  1  0  0  0
 82158  1  0  0  0
 82159  1  0  0  0
 82160  1  0  0  0
 83161  1  0  0  0
 83162  1  0  0  0
 83163  1  0  0  0
 83 87  1  0  0  0
 84 87  1  0  0  0
 84164  1  0  0  0
 84165  1  0  0  0
 84166  1  0  0  0
 85 86  1  0  0  0
 85167  1  0  0  0
 85168  1  0  0  0
 86169  1  0  0  0
 86170  1  0  0  0
 87171  1  0  0  0
M  ISO  4   1 100  68 101  74 100  86 101
M  END
> <chiral flag>
0

> <version>
0

> <s_m_source_file>
/data/baiqing/PycharmProjects/Reinvent-master-3.2/result/LINK_invent/BTK/process_docking_weight1_custom_product_contain_oxygen_bond_distance_aromatic_linkinvent_7_9_3/rearranged_h_0071.sdf

> <i_m_source_file_index>
7

> <r_mmod_Potential_Energy-OPLS-2005>
309.736145019531

> <r_mmod_Stretch_Energy-OPLS-2005>
71.2691955566406

> <r_mmod_Bend_Energy-OPLS-2005>
161.986114501953

> <r_mmod_Torsional_Energy-OPLS-2005>
290.374877929688

> <r_mmod_Improper_Torsional_Energy-OPLS-2005>
7.57048416137695

> <r_mmod_Van_der_Waal_Energy-OPLS-2005>
164.266098022461

> <r_mmod_Electrostatic_Energy-OPLS-2005>
-236.02229309082

> <r_mmod_Solvation_Energy-OPLS-2005>
-205.175674438477

> <b_mmod_Minimization_Converged-OPLS-2005>
0

> <r_mmod_RMS_Derivative-OPLS-2005>
3.81522369384766

$$$$
7
                    3D
 Structure written by MMmdl.
158167  0  0  1  0            999 V2000
  -30.6085  -14.7784   20.4878 C   0  0  0  0  0  0
  -30.4211  -12.4854   19.4883 C   0  0  0  0  0  0
  -29.5046  -12.5202   18.2450 C   0  0  0  0  0  0
  -28.0341  -12.3296   18.6572 C   0  0  0  0  0  0
  -27.6339  -13.2360   19.8527 C   0  0  2  0  0  0
  -28.6724  -13.1882   20.9946 C   0  0  0  0  0  0
  -25.2474  -13.8207   20.5689 C   0  0  0  0  0  0
  -24.1763  -13.0446   20.9196 C   0  0  0  0  0  0
  -24.6362  -11.6926   20.8750 C   0  0  0  0  0  0
  -23.9050  -10.4297   21.0396 C   0  0  0  0  0  0
  -24.3604   -9.4217   21.9182 C   0  0  0  0  0  0
  -23.6292   -8.2256   22.0751 C   0  0  0  0  0  0
  -22.4285   -8.0283   21.3534 C   0  0  0  0  0  0
  -21.9921   -9.0237   20.4623 C   0  0  0  0  0  0
  -22.7235  -10.2121   20.3034 C   0  0  0  0  0  0
  -21.6854   -6.0739   22.5280 C   0  0  0  0  0  0
  -21.4006   -6.5635   23.8203 C   0  0  0  0  0  0
  -21.3660   -5.6790   24.9169 C   0  0  0  0  0  0
  -21.6044   -4.3056   24.7226 C   0  0  0  0  0  0
  -21.8817   -3.8143   23.4343 C   0  0  0  0  0  0
  -21.9187   -4.6970   22.3399 C   0  0  0  0  0  0
  -22.7792  -13.5236   21.1867 C   0  0  0  0  0  0
  -22.1663   -4.2163   21.0975 F   0  0  0  0  0  0
  -21.5630   -3.4556   25.7740 F   0  0  0  0  0  0
  -29.9691  -13.5543   20.4177 N   0  0  0  0  0  0
  -26.2877  -12.9404   20.3292 N   0  0  0  0  0  0
  -25.9286  -11.6538   20.5755 N   0  0  0  0  0  0
  -22.0416  -12.8194   22.0392 N   0  0  0  0  0  0
  -25.4232  -15.1919   20.4103 N   0  0  0  0  0  0
  -31.7875  -14.8247   20.1300 O   0  0  0  0  0  0
  -21.6640   -6.8884   21.4236 O   0  0  0  0  0  0
  -22.3492  -14.5571   20.6761 O   0  0  0  0  0  0
  -24.6360  -31.8530   23.1956 C   0  0  0  0  0  0
  -25.9175  -32.4736   23.8310 C   0  0  1  0  0  0
  -27.2066  -27.2278   20.1515 C   0  0  0  0  0  0
  -25.5962  -33.8533   24.2236 N   0  0  0  0  0  0
  -23.4332  -30.4715   21.5419 C   0  0  2  0  0  0
  -24.8812  -28.9168   20.1118 C   0  0  0  0  0  0
  -22.7513  -29.4590   22.4948 C   0  0  0  0  0  0
  -18.0291  -28.1388   22.8474 C   0  0  0  0  0  0
  -24.1486  -36.7242   23.2634 C   0  0  0  0  0  0
  -25.9813  -30.7537   21.3823 C   0  0  0  0  0  0
  -26.0528  -29.3719   20.7318 C   0  0  0  0  0  0
  -27.2220  -28.5393   20.7450 C   0  0  0  0  0  0
  -26.0312  -26.8717   19.4653 C   0  0  0  0  0  0
  -24.8765  -27.6746   19.4638 C   0  0  0  0  0  0
  -23.6489  -29.7990   20.1608 C   0  0  0  0  0  0
  -25.4116  -36.3051   24.0334 C   0  0  1  0  0  0
  -20.5893  -28.3704   23.1272 C   0  0  2  0  0  0
  -20.6788  -26.9422   22.5385 C   0  0  0  0  0  0
  -19.5755  -26.6364   21.5196 C   0  0  0  0  0  0
  -18.1921  -26.7943   22.1583 C   0  0  0  0  0  0
  -19.1549  -28.8865   23.2855 C   0  0  0  0  0  0
  -18.9481  -30.1475   23.8868 C   0  0  0  0  0  0
  -17.6486  -30.6589   24.0562 C   0  0  0  0  0  0
  -25.9069  -34.9439   23.5089 C   0  0  0  0  0  0
  -16.5365  -29.9076   23.6363 C   0  0  0  0  0  0
  -16.7292  -28.6499   23.0365 C   0  0  0  0  0  0
  -26.4518  -31.6568   25.0712 C   0  0  0  0  0  0
  -25.3712  -31.3696   26.1401 C   0  0  0  0  0  0
  -27.0398  -30.3005   24.6189 C   0  0  0  0  0  0
  -27.6049  -32.4329   25.7500 C   0  0  0  0  0  0
  -27.5587  -37.1765   24.8460 C   0  0  0  0  0  0
  -21.4217  -29.3062   22.3689 N   0  0  0  0  0  0
  -26.4275  -37.3764   23.9447 N   0  0  0  0  0  0
  -24.7023  -31.0441   22.0961 N   0  0  0  0  0  0
  -23.4184  -28.8130   23.3073 O   0  0  0  0  0  0
  -28.2429  -26.2637   20.1925 O   0  0  0  0  0  0
  -26.5613  -34.8938   22.4638 O   0  0  0  0  0  0
  -23.5501  -32.1388   23.7199 O   0  0  0  0  0  0
  -32.1202  -19.0390   20.6355 C   0  0  0  0  0  0
  -31.6520  -17.7211   20.7472 C   0  0  0  0  0  0
  -29.3912  -18.5774   20.6559 C   0  0  0  0  0  0
  -31.2576  -20.1455   20.5138 C   0  0  0  0  0  0
  -29.8457  -19.9802   20.5873 C   0  0  0  0  0  0
  -30.2775  -17.4032   20.7112 C   0  0  0  0  0  0
  -29.1407  -22.5411   20.9455 C   0  0  0  0  0  0
  -28.2540  -23.4764   20.4559 C   0  0  0  0  0  0
  -27.3794  -22.6355   19.6461 C   0  0  0  0  0  0
  -26.2101  -23.0152   19.1109 C   0  0  0  0  0  0
  -27.8954  -21.1936   19.5646 C   0  0  0  0  0  0
  -31.9320  -21.4834   20.2444 C   0  0  0  0  0  0
  -27.9709  -24.9872   20.9667 C   0  0  0  0  0  0
  -28.9849  -21.1677   20.5307 N   0  0  0  0  0  0
  -29.8772  -15.9469   20.7643 N   0  0  0  0  0  0
  -31.4607  -12.6072   19.1816 H   0  0  0  0  0  0
  -30.3711  -11.5145   19.9811 H   0  0  0  0  0  0
  -29.7961  -11.7433   17.5372 H   0  0  0  0  0  0
  -29.6152  -13.4727   17.7226 H   0  0  0  0  0  0
  -27.9040  -11.2817   18.9297 H   0  0  0  0  0  0
  -27.3724  -12.5076   17.8082 H   0  0  0  0  0  0
  -27.6244  -14.2549   19.4645 H   0  0  0  0  0  0
  -28.7147  -12.1907   21.4348 H   0  0  0  0  0  0
  -28.3958  -13.8673   21.8026 H   0  0  0  0  0  0
  -25.2726   -9.5709   22.4787 H   0  0  0  0  0  0
  -23.9997   -7.4656   22.7487 H   0  0  0  0  0  0
  -21.0858   -8.8743   19.8911 H   0  0  0  0  0  0
  -22.3691  -10.9664   19.6154 H   0  0  0  0  0  0
  -21.1990   -7.6142   23.9714 H   0  0  0  0  0  0
  -21.1486   -6.0517   25.9067 H   0  0  0  0  0  0
  -22.0596   -2.7612   23.2838 H   0  0  0  0  0  0
  -22.4025  -11.9809   22.4698 H   0  0  0  0  0  0
  -21.1016  -13.1172   22.2589 H   0  0  0  0  0  0
  -24.6607  -15.8526   20.5072 H   0  0  0  0  0  0
  -26.2722  -15.6179   20.0615 H   0  0  0  0  0  0
  -26.7247  -32.5373   23.1053 H   0  0  0  0  0  0
  -25.0236  -33.9676   25.0473 H   0  0  0  0  0  0
  -22.7309  -31.2937   21.3890 H   0  0  0  0  0  0
  -23.3802  -35.9499   23.3207 H   0  0  0  0  0  0
  -24.3606  -36.8956   22.2063 H   0  0  0  0  0  0
  -23.7171  -37.6386   23.6720 H   0  0  0  0  0  0
  -26.1190  -31.5048   20.6033 H   0  0  0  0  0  0
  -26.8619  -30.8049   22.0110 H   0  0  0  0  0  0
  -28.1175  -28.8771   21.2474 H   0  0  0  0  0  0
  -26.0039  -25.9482   18.9178 H   0  0  0  0  0  0
  -23.9907  -27.3250   18.9531 H   0  0  0  0  0  0
  -23.7588  -30.5663   19.3944 H   0  0  0  0  0  0
  -22.7722  -29.2166   19.8708 H   0  0  0  0  0  0
  -25.1282  -36.1883   25.0821 H   0  0  0  0  0  0
  -20.9961  -28.3268   24.1406 H   0  0  0  0  0  0
  -20.5682  -26.2312   23.3578 H   0  0  0  0  0  0
  -21.6662  -26.7422   22.1180 H   0  0  0  0  0  0
  -19.6921  -25.6269   21.1228 H   0  0  0  0  0  0
  -19.6714  -27.3181   20.6733 H   0  0  0  0  0  0
  -17.4202  -26.6752   21.3956 H   0  0  0  0  0  0
  -18.0271  -26.0042   22.8931 H   0  0  0  0  0  0
  -19.7961  -30.7289   24.2193 H   0  0  0  0  0  0
  -17.5038  -31.6278   24.5146 H   0  0  0  0  0  0
  -15.5375  -30.2951   23.7721 H   0  0  0  0  0  0
  -15.8685  -28.0808   22.7117 H   0  0  0  0  0  0
  -24.5996  -30.6926   25.7743 H   0  0  0  0  0  0
  -24.8783  -32.2829   26.4733 H   0  0  0  0  0  0
  -25.7999  -30.8966   27.0242 H   0  0  0  0  0  0
  -26.3016  -29.6719   24.1193 H   0  0  0  0  0  0
  -27.4147  -29.7290   25.4695 H   0  0  0  0  0  0
  -27.8833  -30.4360   23.9418 H   0  0  0  0  0  0
  -27.2708  -33.3740   26.1892 H   0  0  0  0  0  0
  -28.3942  -32.6691   25.0348 H   0  0  0  0  0  0
  -28.0585  -31.8557   26.5567 H   0  0  0  0  0  0
  -28.2497  -38.0160   24.7623 H   0  0  0  0  0  0
  -28.1189  -36.2706   24.6103 H   0  0  0  0  0  0
  -27.2326  -37.1200   25.8861 H   0  0  0  0  0  0
  -20.9448  -29.8783   21.6865 H   0  0  0  0  0  0
  -26.0138  -38.2810   24.1506 H   0  0  0  0  0  0
  -33.1888  -19.1958   20.6207 H   0  0  0  0  0  0
  -32.4053  -16.9582   20.8490 H   0  0  0  0  0  0
  -28.3262  -18.4011   20.6749 H   0  0  0  0  0  0
  -29.8730  -22.7370   21.7182 H   0  0  0  0  0  0
  -25.8053  -23.9988   19.2498 H   0  0  0  0  0  0
  -25.6075  -22.3137   18.5532 H   0  0  0  0  0  0
  -28.2758  -20.9807   18.5636 H   0  0  0  0  0  0
  -27.1220  -20.4652   19.8093 H   0  0  0  0  0  0
  -32.8422  -21.3365   19.6619 H   0  0  0  0  0  0
  -32.2051  -21.9667   21.1817 H   0  0  0  0  0  0
  -31.3154  -22.1545   19.6487 H   0  0  0  0  0  0
  -28.5389  -25.0988   21.8913 H   0  0  0  0  0  0
  -26.9306  -24.9994   21.3003 H   0  0  0  0  0  0
  -28.9135  -15.7692   21.0066 H   0  0  0  0  0  0
  1 25  1  0  0  0
  1 30  2  0  0  0
  1 85  1  0  0  0
  2  3  1  0  0  0
  2 25  1  0  0  0
  2 86  1  0  0  0
  2 87  1  0  0  0
  3  4  1  0  0  0
  3 88  1  0  0  0
  3 89  1  0  0  0
  4  5  1  0  0  0
  4 90  1  0  0  0
  4 91  1  0  0  0
  5  6  1  0  0  0
  5 26  1  0  0  0
  5 92  1  0  0  0
  6 25  1  0  0  0
  6 93  1  0  0  0
  6 94  1  0  0  0
  7  8  2  0  0  0
  7 26  1  0  0  0
  7 29  1  0  0  0
  8  9  1  0  0  0
  8 22  1  0  0  0
  9 10  1  0  0  0
  9 27  2  0  0  0
 10 11  2  0  0  0
 10 15  1  0  0  0
 11 12  1  0  0  0
 11 95  1  0  0  0
 12 13  2  0  0  0
 12 96  1  0  0  0
 13 14  1  0  0  0
 13 31  1  0  0  0
 14 15  2  0  0  0
 14 97  1  0  0  0
 15 98  1  0  0  0
 16 17  2  0  0  0
 16 21  1  0  0  0
 16 31  1  0  0  0
 17 18  1  0  0  0
 17 99  1  0  0  0
 18 19  2  0  0  0
 18100  1  0  0  0
 19 20  1  0  0  0
 19 24  1  0  0  0
 20 21  2  0  0  0
 20101  1  0  0  0
 21 23  1  0  0  0
 22 28  1  0  0  0
 22 32  2  0  0  0
 26 27  1  0  0  0
 28102  1  0  0  0
 28103  1  0  0  0
 29104  1  0  0  0
 29105  1  0  0  0
 33 34  1  0  0  0
 33 66  1  0  0  0
 33 70  2  0  0  0
 34 36  1  0  0  0
 34 59  1  0  0  0
 34106  1  0  0  0
 35 44  2  0  0  0
 35 45  1  0  0  0
 35 68  1  0  0  0
 36 56  1  0  0  0
 36107  1  0  0  0
 37 39  1  0  0  0
 37 47  1  0  0  0
 37 66  1  0  0  0
 37108  1  0  0  0
 38 43  2  0  0  0
 38 46  1  0  0  0
 38 47  1  0  0  0
 39 64  1  0  0  0
 39 67  2  0  0  0
 40 52  1  0  0  0
 40 53  2  0  0  0
 40 58  1  0  0  0
 41109  1  0  0  0
 41110  1  0  0  0
 41111  1  0  0  0
 41 48  1  0  0  0
 42 43  1  0  0  0
 42 66  1  0  0  0
 42112  1  0  0  0
 42113  1  0  0  0
 43 44  1  0  0  0
 44114  1  0  0  0
 45 46  2  0  0  0
 45115  1  0  0  0
 46116  1  0  0  0
 47117  1  0  0  0
 47118  1  0  0  0
 48 56  1  0  0  0
 48 65  1  0  0  0
 48119  1  0  0  0
 49 50  1  0  0  0
 49 53  1  0  0  0
 49 64  1  0  0  0
 49120  1  0  0  0
 50 51  1  0  0  0
 50121  1  0  0  0
 50122  1  0  0  0
 51 52  1  0  0  0
 51123  1  0  0  0
 51124  1  0  0  0
 52125  1  0  0  0
 52126  1  0  0  0
 53 54  1  0  0  0
 54 55  2  0  0  0
 54127  1  0  0  0
 55 57  1  0  0  0
 55128  1  0  0  0
 56 69  2  0  0  0
 57 58  2  0  0  0
 57129  1  0  0  0
 58130  1  0  0  0
 59 60  1  0  0  0
 59 61  1  0  0  0
 59 62  1  0  0  0
 60131  1  0  0  0
 60132  1  0  0  0
 60133  1  0  0  0
 61134  1  0  0  0
 61135  1  0  0  0
 61136  1  0  0  0
 62137  1  0  0  0
 62138  1  0  0  0
 62139  1  0  0  0
 63 65  1  0  0  0
 63140  1  0  0  0
 63141  1  0  0  0
 63142  1  0  0  0
 64143  1  0  0  0
 65144  1  0  0  0
 68 83  1  0  0  0
 71 72  2  0  0  0
 71 74  1  0  0  0
 71145  1  0  0  0
 72 76  1  0  0  0
 72146  1  0  0  0
 73 75  1  0  0  0
 73 76  2  0  0  0
 73147  1  0  0  0
 74 75  2  0  0  0
 74 82  1  0  0  0
 75 84  1  0  0  0
 76 85  1  0  0  0
 77 78  2  0  0  0
 77 84  1  0  0  0
 77148  1  0  0  0
 78 79  1  0  0  0
 78 83  1  0  0  0
 79 80  2  0  0  0
 79 81  1  0  0  0
 80149  1  0  0  0
 80150  1  0  0  0
 81 84  1  0  0  0
 81151  1  0  0  0
 81152  1  0  0  0
 82153  1  0  0  0
 82154  1  0  0  0
 82155  1  0  0  0
 83156  1  0  0  0
 83157  1  0  0  0
 85158  1  0  0  0
M  ISO  4   1 100  68 101  83 101  85 100
M  END
> <chiral flag>
0

> <version>
0

> <s_m_source_file>
/data/baiqing/PycharmProjects/Reinvent-master-3.2/result/LINK_invent/BTK/process_docking_weight1_custom_product_contain_oxygen_bond_distance_aromatic_linkinvent_7_9_3/rearranged_h_0071.sdf

> <i_m_source_file_index>
8

> <r_mmod_Potential_Energy-OPLS-2005>
371.545806884766

> <r_mmod_Stretch_Energy-OPLS-2005>
150.784133911133

> <r_mmod_Bend_Energy-OPLS-2005>
272.432434082031

> <r_mmod_Torsional_Energy-OPLS-2005>
249.064544677734

> <r_mmod_Improper_Torsional_Energy-OPLS-2005>
6.61265182495117

> <r_mmod_Van_der_Waal_Energy-OPLS-2005>
146.848510742188

> <r_mmod_Electrostatic_Energy-OPLS-2005>
-353.684539794922

> <r_mmod_Solvation_Energy-OPLS-2005>
-207.627227783203

> <b_mmod_Minimization_Converged-OPLS-2005>
0

> <r_mmod_RMS_Derivative-OPLS-2005>
3.6216127872467

$$$$
8
                    3D
 Structure written by MMmdl.
155163  0  0  1  0            999 V2000
  -30.5821  -14.6831   20.4645 C   0  0  0  0  0  0
  -30.4478  -12.4117   19.4482 C   0  0  0  0  0  0
  -29.5111  -12.5007   18.2214 C   0  0  0  0  0  0
  -28.0339  -12.3323   18.6339 C   0  0  0  0  0  0
  -27.6505  -13.2090   19.8536 C   0  0  2  0  0  0
  -28.6988  -13.0769   20.9823 C   0  0  0  0  0  0
  -25.2568  -13.8143   20.5663 C   0  0  0  0  0  0
  -24.1837  -13.0422   20.9203 C   0  0  0  0  0  0
  -24.6399  -11.6888   20.8756 C   0  0  0  0  0  0
  -23.9058  -10.4281   21.0418 C   0  0  0  0  0  0
  -24.3617   -9.4197   21.9197 C   0  0  0  0  0  0
  -23.6290   -8.2230   22.0765 C   0  0  0  0  0  0
  -22.4276   -8.0274   21.3543 C   0  0  0  0  0  0
  -21.9906   -9.0254   20.4654 C   0  0  0  0  0  0
  -22.7232  -10.2130   20.3067 C   0  0  0  0  0  0
  -21.6844   -6.0730   22.5274 C   0  0  0  0  0  0
  -21.4009   -6.5633   23.8208 C   0  0  0  0  0  0
  -21.3658   -5.6791   24.9170 C   0  0  0  0  0  0
  -21.6045   -4.3056   24.7229 C   0  0  0  0  0  0
  -21.8817   -3.8142   23.4349 C   0  0  0  0  0  0
  -21.9185   -4.6957   22.3401 C   0  0  0  0  0  0
  -22.7854  -13.5224   21.1856 C   0  0  0  0  0  0
  -22.1663   -4.2143   21.0978 F   0  0  0  0  0  0
  -21.5637   -3.4535   25.7739 F   0  0  0  0  0  0
  -30.0081  -13.4372   20.4134 N   0  0  0  0  0  0
  -26.2972  -12.9296   20.3253 N   0  0  0  0  0  0
  -25.9320  -11.6466   20.5748 N   0  0  0  0  0  0
  -22.0485  -12.8231   22.0415 N   0  0  0  0  0  0
  -25.4286  -15.1870   20.4055 N   0  0  0  0  0  0
  -31.7563  -14.8675   20.1283 O   0  0  0  0  0  0
  -21.6642   -6.8870   21.4235 O   0  0  0  0  0  0
  -22.3535  -14.5538   20.6717 O   0  0  0  0  0  0
  -24.6259  -31.8585   23.2012 C   0  0  0  0  0  0
  -25.9100  -32.4767   23.8347 C   0  0  1  0  0  0
  -27.2265  -27.3166   20.1182 C   0  0  0  0  0  0
  -25.5921  -33.8568   24.2276 N   0  0  0  0  0  0
  -23.4207  -30.4797   21.5449 C   0  0  2  0  0  0
  -24.8696  -28.9309   20.1139 C   0  0  0  0  0  0
  -22.7475  -29.4608   22.4954 C   0  0  0  0  0  0
  -18.0274  -28.1366   22.8503 C   0  0  0  0  0  0
  -24.1492  -36.7289   23.2641 C   0  0  0  0  0  0
  -25.9611  -30.7879   21.3723 C   0  0  0  0  0  0
  -26.0380  -29.4136   20.7170 C   0  0  0  0  0  0
  -27.2240  -28.6183   20.7080 C   0  0  0  0  0  0
  -26.0372  -26.8827   19.4970 C   0  0  0  0  0  0
  -24.8704  -27.6708   19.4950 C   0  0  0  0  0  0
  -23.6362  -29.8108   20.1614 C   0  0  0  0  0  0
  -25.4117  -36.3072   24.0331 C   0  0  1  0  0  0
  -20.5875  -28.3685   23.1258 C   0  0  2  0  0  0
  -20.6777  -26.9412   22.5363 C   0  0  0  0  0  0
  -19.5711  -26.6332   21.5221 C   0  0  0  0  0  0
  -18.1924  -26.7886   22.1695 C   0  0  0  0  0  0
  -19.1537  -28.8854   23.2871 C   0  0  0  0  0  0
  -18.9464  -30.1462   23.8876 C   0  0  0  0  0  0
  -17.6460  -30.6581   24.0550 C   0  0  0  0  0  0
  -25.9048  -34.9443   23.5103 C   0  0  0  0  0  0
  -16.5351  -29.9073   23.6330 C   0  0  0  0  0  0
  -16.7276  -28.6492   23.0363 C   0  0  0  0  0  0
  -26.4489  -31.6584   25.0722 C   0  0  0  0  0  0
  -25.3727  -31.3720   26.1458 C   0  0  0  0  0  0
  -27.0327  -30.3012   24.6170 C   0  0  0  0  0  0
  -27.6046  -32.4322   25.7492 C   0  0  0  0  0  0
  -27.5576  -37.1806   24.8470 C   0  0  0  0  0  0
  -21.4187  -29.3056   22.3699 N   0  0  0  0  0  0
  -26.4295  -37.3765   23.9408 N   0  0  0  0  0  0
  -24.6879  -31.0598   22.0962 N   0  0  0  0  0  0
  -23.4193  -28.8121   23.3010 O   0  0  0  0  0  0
  -28.3320  -26.4538   20.1205 O   0  0  0  0  0  0
  -26.5617  -34.8919   22.4668 O   0  0  0  0  0  0
  -23.5428  -32.1386   23.7344 O   0  0  0  0  0  0
  -29.5726  -19.3070   21.8868 C   0  0  0  0  0  0
  -29.9430  -17.9320   21.8153 C   0  0  0  0  0  0
  -29.2782  -17.9040   19.5090 C   0  0  0  0  0  0
  -28.9670  -20.0186   20.8084 C   0  0  0  0  0  0
  -29.7499  -17.1692   20.6398 C   0  0  0  0  0  0
  -28.8988  -19.2932   19.5707 C   0  0  0  0  0  0
  -28.1175  -21.2284   21.2102 C   0  0  0  0  0  0
  -28.6445  -23.7253   20.1466 C   0  0  0  0  0  0
  -28.1430  -25.1284   20.7601 C   0  0  0  0  0  0
  -28.3546  -19.8587   18.4097 N   0  0  0  0  0  0
  -27.2205  -20.9257   22.1513 N   0  0  0  0  0  0
  -29.6991  -15.7046   20.7122 N   0  0  0  0  0  0
  -28.0052  -22.5653   20.8806 N   0  3  0  0  0  0
  -31.4859  -12.5565   19.1430 H   0  0  0  0  0  0
  -30.4023  -11.4208   19.9028 H   0  0  0  0  0  0
  -29.7828  -11.7417   17.4878 H   0  0  0  0  0  0
  -29.6461  -13.4619   17.7245 H   0  0  0  0  0  0
  -27.8747  -11.2804   18.8736 H   0  0  0  0  0  0
  -27.3795  -12.5532   17.7902 H   0  0  0  0  0  0
  -27.6621  -14.2389   19.4987 H   0  0  0  0  0  0
  -28.7212  -12.0567   21.3684 H   0  0  0  0  0  0
  -28.4424  -13.7069   21.8350 H   0  0  0  0  0  0
  -25.2764   -9.5665   22.4772 H   0  0  0  0  0  0
  -23.9994   -7.4613   22.7488 H   0  0  0  0  0  0
  -21.0830   -8.8765   19.8973 H   0  0  0  0  0  0
  -22.3685  -10.9673   19.6184 H   0  0  0  0  0  0
  -21.2012   -7.6140   23.9712 H   0  0  0  0  0  0
  -21.1482   -6.0523   25.9074 H   0  0  0  0  0  0
  -22.0605   -2.7603   23.2851 H   0  0  0  0  0  0
  -22.4093  -11.9892   22.4800 H   0  0  0  0  0  0
  -21.1110  -13.1274   22.2633 H   0  0  0  0  0  0
  -24.6549  -15.8338   20.5160 H   0  0  0  0  0  0
  -26.2489  -15.6222   20.0041 H   0  0  0  0  0  0
  -26.7166  -32.5452   23.1094 H   0  0  0  0  0  0
  -25.0081  -33.9713   25.0433 H   0  0  0  0  0  0
  -22.7127  -31.2982   21.4009 H   0  0  0  0  0  0
  -23.3746  -35.9628   23.3311 H   0  0  0  0  0  0
  -24.3584  -36.8891   22.2049 H   0  0  0  0  0  0
  -23.7257  -37.6500   23.6660 H   0  0  0  0  0  0
  -26.0903  -31.5505   20.6035 H   0  0  0  0  0  0
  -26.8399  -30.8403   22.0020 H   0  0  0  0  0  0
  -28.1237  -28.9836   21.1816 H   0  0  0  0  0  0
  -26.0062  -25.9126   19.0194 H   0  0  0  0  0  0
  -23.9751  -27.2948   19.0194 H   0  0  0  0  0  0
  -23.7538  -30.5841   19.4015 H   0  0  0  0  0  0
  -22.7557  -29.2387   19.8621 H   0  0  0  0  0  0
  -25.1295  -36.1915   25.0821 H   0  0  0  0  0  0
  -20.9940  -28.3228   24.1384 H   0  0  0  0  0  0
  -20.5763  -26.2296   23.3574 H   0  0  0  0  0  0
  -21.6613  -26.7492   22.1066 H   0  0  0  0  0  0
  -19.6862  -25.6210   21.1328 H   0  0  0  0  0  0
  -19.6594  -27.3070   20.6689 H   0  0  0  0  0  0
  -17.4145  -26.6564   21.4169 H   0  0  0  0  0  0
  -18.0366  -26.0071   22.9137 H   0  0  0  0  0  0
  -19.7936  -30.7290   24.2234 H   0  0  0  0  0  0
  -17.5007  -31.6258   24.5148 H   0  0  0  0  0  0
  -15.5344  -30.2957   23.7643 H   0  0  0  0  0  0
  -15.8687  -28.0778   22.7082 H   0  0  0  0  0  0
  -24.5911  -30.7053   25.7792 H   0  0  0  0  0  0
  -24.8923  -32.2885   26.4887 H   0  0  0  0  0  0
  -25.8070  -30.8900   27.0228 H   0  0  0  0  0  0
  -26.2899  -29.6774   24.1197 H   0  0  0  0  0  0
  -27.4017  -29.7247   25.4661 H   0  0  0  0  0  0
  -27.8769  -30.4278   23.9393 H   0  0  0  0  0  0
  -27.2645  -33.3614   26.2073 H   0  0  0  0  0  0
  -28.3859  -32.6894   25.0329 H   0  0  0  0  0  0
  -28.0723  -31.8455   26.5407 H   0  0  0  0  0  0
  -28.2600  -38.0095   24.7488 H   0  0  0  0  0  0
  -28.1059  -36.2620   24.6325 H   0  0  0  0  0  0
  -27.2292  -37.1486   25.8873 H   0  0  0  0  0  0
  -20.9388  -29.8814   21.6924 H   0  0  0  0  0  0
  -26.0167  -38.2839   24.1398 H   0  0  0  0  0  0
  -29.6325  -19.7869   22.8546 H   0  0  0  0  0  0
  -30.2712  -17.4367   22.7196 H   0  0  0  0  0  0
  -29.1043  -17.3621   18.5908 H   0  0  0  0  0  0
  -29.7321  -23.6532   20.1805 H   0  0  0  0  0  0
  -28.3564  -23.6686   19.0966 H   0  0  0  0  0  0
  -28.6433  -25.2283   21.7247 H   0  0  0  0  0  0
  -27.0931  -25.0091   21.0298 H   0  0  0  0  0  0
  -28.4219  -19.3714   17.5198 H   0  0  0  0  0  0
  -28.2578  -20.8653   18.3143 H   0  0  0  0  0  0
  -27.1593  -19.9624   22.4499 H   0  0  0  0  0  0
  -26.6814  -21.6038   22.6665 H   0  0  0  0  0  0
  -28.7855  -15.3479   20.9387 H   0  0  0  0  0  0
  -27.0773  -22.8804   21.1188 H   0  0  0  0  0  0
  1 25  1  0  0  0
  1 30  2  0  0  0
  1 82  1  0  0  0
  2  3  1  0  0  0
  2 25  1  0  0  0
  2 84  1  0  0  0
  2 85  1  0  0  0
  3  4  1  0  0  0
  3 86  1  0  0  0
  3 87  1  0  0  0
  4  5  1  0  0  0
  4 88  1  0  0  0
  4 89  1  0  0  0
  5  6  1  0  0  0
  5 26  1  0  0  0
  5 90  1  0  0  0
  6 25  1  0  0  0
  6 91  1  0  0  0
  6 92  1  0  0  0
  7  8  2  0  0  0
  7 26  1  0  0  0
  7 29  1  0  0  0
  8  9  1  0  0  0
  8 22  1  0  0  0
  9 10  1  0  0  0
  9 27  2  0  0  0
 10 11  2  0  0  0
 10 15  1  0  0  0
 11 12  1  0  0  0
 11 93  1  0  0  0
 12 13  2  0  0  0
 12 94  1  0  0  0
 13 14  1  0  0  0
 13 31  1  0  0  0
 14 15  2  0  0  0
 14 95  1  0  0  0
 15 96  1  0  0  0
 16 17  2  0  0  0
 16 21  1  0  0  0
 16 31  1  0  0  0
 17 18  1  0  0  0
 17 97  1  0  0  0
 18 19  2  0  0  0
 18 98  1  0  0  0
 19 20  1  0  0  0
 19 24  1  0  0  0
 20 21  2  0  0  0
 20 99  1  0  0  0
 21 23  1  0  0  0
 22 28  1  0  0  0
 22 32  2  0  0  0
 26 27  1  0  0  0
 28100  1  0  0  0
 28101  1  0  0  0
 29102  1  0  0  0
 29103  1  0  0  0
 33 34  1  0  0  0
 33 66  1  0  0  0
 33 70  2  0  0  0
 34 36  1  0  0  0
 34 59  1  0  0  0
 34104  1  0  0  0
 35 44  2  0  0  0
 35 45  1  0  0  0
 35 68  1  0  0  0
 36 56  1  0  0  0
 36105  1  0  0  0
 37 39  1  0  0  0
 37 47  1  0  0  0
 37 66  1  0  0  0
 37106  1  0  0  0
 38 43  2  0  0  0
 38 46  1  0  0  0
 38 47  1  0  0  0
 39 64  1  0  0  0
 39 67  2  0  0  0
 40 52  1  0  0  0
 40 53  2  0  0  0
 40 58  1  0  0  0
 41107  1  0  0  0
 41108  1  0  0  0
 41109  1  0  0  0
 41 48  1  0  0  0
 42 43  1  0  0  0
 42 66  1  0  0  0
 42110  1  0  0  0
 42111  1  0  0  0
 43 44  1  0  0  0
 44112  1  0  0  0
 45 46  2  0  0  0
 45113  1  0  0  0
 46114  1  0  0  0
 47115  1  0  0  0
 47116  1  0  0  0
 48 56  1  0  0  0
 48 65  1  0  0  0
 48117  1  0  0  0
 49 50  1  0  0  0
 49 53  1  0  0  0
 49 64  1  0  0  0
 49118  1  0  0  0
 50 51  1  0  0  0
 50119  1  0  0  0
 50120  1  0  0  0
 51 52  1  0  0  0
 51121  1  0  0  0
 51122  1  0  0  0
 52123  1  0  0  0
 52124  1  0  0  0
 53 54  1  0  0  0
 54 55  2  0  0  0
 54125  1  0  0  0
 55 57  1  0  0  0
 55126  1  0  0  0
 56 69  2  0  0  0
 57 58  2  0  0  0
 57127  1  0  0  0
 58128  1  0  0  0
 59 60  1  0  0  0
 59 61  1  0  0  0
 59 62  1  0  0  0
 60129  1  0  0  0
 60130  1  0  0  0
 60131  1  0  0  0
 61132  1  0  0  0
 61133  1  0  0  0
 61134  1  0  0  0
 62135  1  0  0  0
 62136  1  0  0  0
 62137  1  0  0  0
 63 65  1  0  0  0
 63138  1  0  0  0
 63139  1  0  0  0
 63140  1  0  0  0
 64141  1  0  0  0
 65142  1  0  0  0
 68 79  1  0  0  0
 71 72  2  0  0  0
 71 74  1  0  0  0
 71143  1  0  0  0
 72 75  1  0  0  0
 72144  1  0  0  0
 73 75  2  0  0  0
 73 76  1  0  0  0
 73145  1  0  0  0
 74 76  2  0  0  0
 74 77  1  0  0  0
 75 82  1  0  0  0
 76 80  1  0  0  0
 77 81  1  0  0  0
 77 83  2  0  0  0
 78 79  1  0  0  0
 78 83  1  0  0  0
 78146  1  0  0  0
 78147  1  0  0  0
 79148  1  0  0  0
 79149  1  0  0  0
 80150  1  0  0  0
 80151  1  0  0  0
 81152  1  0  0  0
 81153  1  0  0  0
 82154  1  0  0  0
 83155  1  0  0  0
M  CHG  1  83   1
M  ISO  4   1 100  68 101  79 101  82 100
M  END
> <chiral flag>
0

> <version>
0

> <s_m_source_file>
/data/baiqing/PycharmProjects/Reinvent-master-3.2/result/LINK_invent/BTK/process_docking_weight1_custom_product_contain_oxygen_bond_distance_aromatic_linkinvent_7_9_3/rearranged_h_0071.sdf

> <i_m_source_file_index>
9

> <r_mmod_Potential_Energy-OPLS-2005>
184.98291015625

> <r_mmod_Stretch_Energy-OPLS-2005>
88.494270324707

> <r_mmod_Bend_Energy-OPLS-2005>
229.985092163086

> <r_mmod_Torsional_Energy-OPLS-2005>
307.39111328125

> <r_mmod_Improper_Torsional_Energy-OPLS-2005>
14.481635093689

> <r_mmod_Van_der_Waal_Energy-OPLS-2005>
137.774612426758

> <r_mmod_Electrostatic_Energy-OPLS-2005>
-215.169692993164

> <r_mmod_Solvation_Energy-OPLS-2005>
-436.633880615234

> <b_mmod_Minimization_Converged-OPLS-2005>
0

> <r_mmod_RMS_Derivative-OPLS-2005>
2.39461541175842

$$$$
9
                    3D
 Structure written by MMmdl.
154162  0  0  1  0            999 V2000
  -30.6094  -14.6643   20.4964 C   0  0  0  0  0  0
  -30.4433  -12.4073   19.4529 C   0  0  0  0  0  0
  -29.5100  -12.5048   18.2245 C   0  0  0  0  0  0
  -28.0328  -12.3394   18.6365 C   0  0  0  0  0  0
  -27.6521  -13.2146   19.8600 C   0  0  2  0  0  0
  -28.6981  -13.0787   20.9902 C   0  0  0  0  0  0
  -25.2562  -13.8159   20.5671 C   0  0  0  0  0  0
  -24.1836  -13.0432   20.9210 C   0  0  0  0  0  0
  -24.6400  -11.6902   20.8752 C   0  0  0  0  0  0
  -23.9065  -10.4289   21.0414 C   0  0  0  0  0  0
  -24.3616   -9.4202   21.9189 C   0  0  0  0  0  0
  -23.6291   -8.2238   22.0756 C   0  0  0  0  0  0
  -22.4274   -8.0279   21.3544 C   0  0  0  0  0  0
  -21.9909   -9.0255   20.4646 C   0  0  0  0  0  0
  -22.7239  -10.2133   20.3058 C   0  0  0  0  0  0
  -21.6851   -6.0735   22.5278 C   0  0  0  0  0  0
  -21.4014   -6.5640   23.8214 C   0  0  0  0  0  0
  -21.3658   -5.6791   24.9175 C   0  0  0  0  0  0
  -21.6043   -4.3053   24.7227 C   0  0  0  0  0  0
  -21.8819   -3.8145   23.4346 C   0  0  0  0  0  0
  -21.9196   -4.6962   22.3400 C   0  0  0  0  0  0
  -22.7858  -13.5231   21.1865 C   0  0  0  0  0  0
  -22.1662   -4.2149   21.0976 F   0  0  0  0  0  0
  -21.5629   -3.4534   25.7740 F   0  0  0  0  0  0
  -30.0110  -13.4311   20.4260 N   0  0  0  0  0  0
  -26.2984  -12.9332   20.3295 N   0  0  0  0  0  0
  -25.9324  -11.6495   20.5751 N   0  0  0  0  0  0
  -22.0491  -12.8224   22.0410 N   0  0  0  0  0  0
  -25.4268  -15.1875   20.4025 N   0  0  0  0  0  0
  -31.7774  -14.8280   20.1303 O   0  0  0  0  0  0
  -21.6637   -6.8877   21.4240 O   0  0  0  0  0  0
  -22.3553  -14.5544   20.6715 O   0  0  0  0  0  0
  -24.6273  -31.8600   23.2020 C   0  0  0  0  0  0
  -25.9116  -32.4778   23.8355 C   0  0  1  0  0  0
  -27.2237  -27.3096   20.1162 C   0  0  0  0  0  0
  -25.5932  -33.8580   24.2283 N   0  0  0  0  0  0
  -23.4218  -30.4848   21.5447 C   0  0  2  0  0  0
  -24.8674  -28.9399   20.1111 C   0  0  0  0  0  0
  -22.7481  -29.4637   22.4927 C   0  0  0  0  0  0
  -18.0295  -28.1392   22.8495 C   0  0  0  0  0  0
  -24.1489  -36.7283   23.2640 C   0  0  0  0  0  0
  -25.9649  -30.7877   21.3749 C   0  0  0  0  0  0
  -26.0380  -29.4148   20.7158 C   0  0  0  0  0  0
  -27.2191  -28.6127   20.7076 C   0  0  0  0  0  0
  -26.0270  -26.8932   19.4860 C   0  0  0  0  0  0
  -24.8647  -27.6847   19.4872 C   0  0  0  0  0  0
  -23.6364  -29.8219   20.1594 C   0  0  0  0  0  0
  -25.4114  -36.3083   24.0335 C   0  0  1  0  0  0
  -20.5897  -28.3697   23.1280 C   0  0  2  0  0  0
  -20.6790  -26.9421   22.5410 C   0  0  0  0  0  0
  -19.5762  -26.6394   21.5216 C   0  0  0  0  0  0
  -18.1940  -26.7942   22.1626 C   0  0  0  0  0  0
  -19.1547  -28.8861   23.2885 C   0  0  0  0  0  0
  -18.9471  -30.1466   23.8900 C   0  0  0  0  0  0
  -17.6469  -30.6594   24.0569 C   0  0  0  0  0  0
  -25.9051  -34.9452   23.5104 C   0  0  0  0  0  0
  -16.5359  -29.9097   23.6333 C   0  0  0  0  0  0
  -16.7283  -28.6513   23.0354 C   0  0  0  0  0  0
  -26.4497  -31.6589   25.0723 C   0  0  0  0  0  0
  -25.3729  -31.3729   26.1445 C   0  0  0  0  0  0
  -27.0345  -30.3019   24.6175 C   0  0  0  0  0  0
  -27.6058  -32.4323   25.7493 C   0  0  0  0  0  0
  -27.5576  -37.1799   24.8469 C   0  0  0  0  0  0
  -21.4193  -29.3051   22.3667 N   0  0  0  0  0  0
  -26.4290  -37.3775   23.9409 N   0  0  0  0  0  0
  -24.6903  -31.0610   22.0968 N   0  0  0  0  0  0
  -23.4200  -28.8174   23.3009 O   0  0  0  0  0  0
  -28.3364  -26.4486   20.1699 O   0  0  0  0  0  0
  -26.5618  -34.8924   22.4673 O   0  0  0  0  0  0
  -23.5433  -32.1394   23.7340 O   0  0  0  0  0  0
  -31.0814  -19.3410   20.4990 C   0  0  0  0  0  0
  -31.0708  -17.9096   20.5136 C   0  0  0  0  0  0
  -28.6972  -17.9675   20.8571 C   0  0  0  0  0  0
  -29.9072  -20.1373   20.6834 C   0  0  0  0  0  0
  -29.8733  -17.1727   20.7147 C   0  0  0  0  0  0
  -28.7044  -19.3994   20.8370 C   0  0  0  0  0  0
  -30.0067  -21.6578   20.8381 C   0  0  0  0  0  0
  -29.2613  -24.0284   20.3903 C   0  0  0  0  0  0
  -28.0954  -24.9839   20.0256 C   0  0  0  0  0  0
  -30.3957  -24.7068   20.6717 N   0  3  0  0  0  0
  -29.7731  -15.7078   20.8124 N   0  0  0  0  0  0
  -31.0799  -22.0615   21.5432 N   0  3  0  0  0  0
  -29.1279  -22.6321   20.3820 N   0  0  0  0  0  0
  -27.5372  -20.0679   21.0053 F   0  0  0  0  0  0
  -31.4822  -12.5437   19.1481 H   0  0  0  0  0  0
  -30.3909  -11.4134   19.9004 H   0  0  0  0  0  0
  -29.7777  -11.7466   17.4872 H   0  0  0  0  0  0
  -29.6476  -13.4693   17.7329 H   0  0  0  0  0  0
  -27.8732  -11.2866   18.8734 H   0  0  0  0  0  0
  -27.3781  -12.5620   17.7931 H   0  0  0  0  0  0
  -27.6660  -14.2470   19.5113 H   0  0  0  0  0  0
  -28.7163  -12.0575   21.3743 H   0  0  0  0  0  0
  -28.4398  -13.7102   21.8418 H   0  0  0  0  0  0
  -25.2761   -9.5677   22.4764 H   0  0  0  0  0  0
  -24.0001   -7.4626   22.7472 H   0  0  0  0  0  0
  -21.0844   -8.8772   19.8949 H   0  0  0  0  0  0
  -22.3700  -10.9674   19.6167 H   0  0  0  0  0  0
  -21.2002   -7.6150   23.9718 H   0  0  0  0  0  0
  -21.1478   -6.0520   25.9080 H   0  0  0  0  0  0
  -22.0601   -2.7608   23.2845 H   0  0  0  0  0  0
  -22.4095  -11.9875   22.4792 H   0  0  0  0  0  0
  -21.1109  -13.1253   22.2610 H   0  0  0  0  0  0
  -24.6434  -15.8277   20.4781 H   0  0  0  0  0  0
  -26.2362  -15.6056   19.9636 H   0  0  0  0  0  0
  -26.7179  -32.5438   23.1097 H   0  0  0  0  0  0
  -25.0090  -33.9738   25.0436 H   0  0  0  0  0  0
  -22.7169  -31.3060   21.4018 H   0  0  0  0  0  0
  -23.3760  -35.9606   23.3309 H   0  0  0  0  0  0
  -24.3582  -36.8893   22.2052 H   0  0  0  0  0  0
  -23.7236  -37.6489   23.6655 H   0  0  0  0  0  0
  -26.0999  -31.5521   20.6081 H   0  0  0  0  0  0
  -26.8443  -30.8337   22.0057 H   0  0  0  0  0  0
  -28.1158  -28.9740   21.1912 H   0  0  0  0  0  0
  -25.9551  -25.9375   18.9904 H   0  0  0  0  0  0
  -23.9678  -27.3161   19.0086 H   0  0  0  0  0  0
  -23.7577  -30.5994   19.4038 H   0  0  0  0  0  0
  -22.7559  -29.2527   19.8553 H   0  0  0  0  0  0
  -25.1299  -36.1932   25.0828 H   0  0  0  0  0  0
  -20.9995  -28.3272   24.1394 H   0  0  0  0  0  0
  -20.5705  -26.2305   23.3613 H   0  0  0  0  0  0
  -21.6656  -26.7464   22.1187 H   0  0  0  0  0  0
  -19.6924  -25.6306   21.1243 H   0  0  0  0  0  0
  -19.6694  -27.3212   20.6753 H   0  0  0  0  0  0
  -17.4213  -26.6696   21.4026 H   0  0  0  0  0  0
  -18.0329  -26.0090   22.9023 H   0  0  0  0  0  0
  -19.7946  -30.7289   24.2261 H   0  0  0  0  0  0
  -17.5025  -31.6275   24.5174 H   0  0  0  0  0  0
  -15.5360  -30.2999   23.7667 H   0  0  0  0  0  0
  -15.8680  -28.0838   22.7061 H   0  0  0  0  0  0
  -24.5913  -30.7070   25.7768 H   0  0  0  0  0  0
  -24.8917  -32.2901   26.4851 H   0  0  0  0  0  0
  -25.8056  -30.8920   27.0227 H   0  0  0  0  0  0
  -26.2924  -29.6764   24.1207 H   0  0  0  0  0  0
  -27.4062  -29.7275   25.4671 H   0  0  0  0  0  0
  -27.8780  -30.4318   23.9393 H   0  0  0  0  0  0
  -27.2672  -33.3627   26.2064 H   0  0  0  0  0  0
  -28.3873  -32.6872   25.0320 H   0  0  0  0  0  0
  -28.0720  -31.8449   26.5415 H   0  0  0  0  0  0
  -28.2599  -38.0089   24.7518 H   0  0  0  0  0  0
  -28.1072  -36.2630   24.6305 H   0  0  0  0  0  0
  -27.2302  -37.1450   25.8873 H   0  0  0  0  0  0
  -20.9370  -29.8759   21.6867 H   0  0  0  0  0  0
  -26.0176  -38.2850   24.1413 H   0  0  0  0  0  0
  -32.0378  -19.8293   20.3710 H   0  0  0  0  0  0
  -32.0094  -17.3865   20.3954 H   0  0  0  0  0  0
  -27.7471  -17.4772   21.0090 H   0  0  0  0  0  0
  -27.2391  -24.7035   20.6416 H   0  0  0  0  0  0
  -27.8277  -24.7772   18.9891 H   0  0  0  0  0  0
  -30.3313  -25.7171   20.6446 H   0  0  0  0  0  0
  -31.3174  -24.2963   20.6419 H   0  0  0  0  0  0
  -28.8586  -15.3774   21.0755 H   0  0  0  0  0  0
  -31.7058  -21.3582   21.9033 H   0  0  0  0  0  0
  -31.0599  -22.9504   22.0174 H   0  0  0  0  0  0
  -28.2668  -22.2665   20.0089 H   0  0  0  0  0  0
  1 25  1  0  0  0
  1 30  2  0  0  0
  1 81  1  0  0  0
  2  3  1  0  0  0
  2 25  1  0  0  0
  2 85  1  0  0  0
  2 86  1  0  0  0
  3  4  1  0  0  0
  3 87  1  0  0  0
  3 88  1  0  0  0
  4  5  1  0  0  0
  4 89  1  0  0  0
  4 90  1  0  0  0
  5  6  1  0  0  0
  5 26  1  0  0  0
  5 91  1  0  0  0
  6 25  1  0  0  0
  6 92  1  0  0  0
  6 93  1  0  0  0
  7  8  2  0  0  0
  7 26  1  0  0  0
  7 29  1  0  0  0
  8  9  1  0  0  0
  8 22  1  0  0  0
  9 10  1  0  0  0
  9 27  2  0  0  0
 10 11  2  0  0  0
 10 15  1  0  0  0
 11 12  1  0  0  0
 11 94  1  0  0  0
 12 13  2  0  0  0
 12 95  1  0  0  0
 13 14  1  0  0  0
 13 31  1  0  0  0
 14 15  2  0  0  0
 14 96  1  0  0  0
 15 97  1  0  0  0
 16 17  2  0  0  0
 16 21  1  0  0  0
 16 31  1  0  0  0
 17 18  1  0  0  0
 17 98  1  0  0  0
 18 19  2  0  0  0
 18 99  1  0  0  0
 19 20  1  0  0  0
 19 24  1  0  0  0
 20 21  2  0  0  0
 20100  1  0  0  0
 21 23  1  0  0  0
 22 28  1  0  0  0
 22 32  2  0  0  0
 26 27  1  0  0  0
 28101  1  0  0  0
 28102  1  0  0  0
 29103  1  0  0  0
 29104  1  0  0  0
 33 34  1  0  0  0
 33 66  1  0  0  0
 33 70  2  0  0  0
 34 36  1  0  0  0
 34 59  1  0  0  0
 34105  1  0  0  0
 35 44  2  0  0  0
 35 45  1  0  0  0
 35 68  1  0  0  0
 36 56  1  0  0  0
 36106  1  0  0  0
 37 39  1  0  0  0
 37 47  1  0  0  0
 37 66  1  0  0  0
 37107  1  0  0  0
 38 43  2  0  0  0
 38 46  1  0  0  0
 38 47  1  0  0  0
 39 64  1  0  0  0
 39 67  2  0  0  0
 40 52  1  0  0  0
 40 53  2  0  0  0
 40 58  1  0  0  0
 41108  1  0  0  0
 41109  1  0  0  0
 41110  1  0  0  0
 41 48  1  0  0  0
 42 43  1  0  0  0
 42 66  1  0  0  0
 42111  1  0  0  0
 42112  1  0  0  0
 43 44  1  0  0  0
 44113  1  0  0  0
 45 46  2  0  0  0
 45114  1  0  0  0
 46115  1  0  0  0
 47116  1  0  0  0
 47117  1  0  0  0
 48 56  1  0  0  0
 48 65  1  0  0  0
 48118  1  0  0  0
 49 50  1  0  0  0
 49 53  1  0  0  0
 49 64  1  0  0  0
 49119  1  0  0  0
 50 51  1  0  0  0
 50120  1  0  0  0
 50121  1  0  0  0
 51 52  1  0  0  0
 51122  1  0  0  0
 51123  1  0  0  0
 52124  1  0  0  0
 52125  1  0  0  0
 53 54  1  0  0  0
 54 55  2  0  0  0
 54126  1  0  0  0
 55 57  1  0  0  0
 55127  1  0  0  0
 56 69  2  0  0  0
 57 58  2  0  0  0
 57128  1  0  0  0
 58129  1  0  0  0
 59 60  1  0  0  0
 59 61  1  0  0  0
 59 62  1  0  0  0
 60130  1  0  0  0
 60131  1  0  0  0
 60132  1  0  0  0
 61133  1  0  0  0
 61134  1  0  0  0
 61135  1  0  0  0
 62136  1  0  0  0
 62137  1  0  0  0
 62138  1  0  0  0
 63 65  1  0  0  0
 63139  1  0  0  0
 63140  1  0  0  0
 63141  1  0  0  0
 64142  1  0  0  0
 65143  1  0  0  0
 68 79  1  0  0  0
 71 72  2  0  0  0
 71 74  1  0  0  0
 71144  1  0  0  0
 72 75  1  0  0  0
 72145  1  0  0  0
 73 75  2  0  0  0
 73 76  1  0  0  0
 73146  1  0  0  0
 74 76  2  0  0  0
 74 77  1  0  0  0
 75 81  1  0  0  0
 76 84  1  0  0  0
 77 82  2  0  0  0
 77 83  1  0  0  0
 78 79  1  0  0  0
 78 80  2  0  0  0
 78 83  1  0  0  0
 79147  1  0  0  0
 79148  1  0  0  0
 80149  1  0  0  0
 80150  1  0  0  0
 81151  1  0  0  0
 82152  1  0  0  0
 82153  1  0  0  0
 83154  1  0  0  0
M  CHG  2  80   1  82   1
M  ISO  4   1 100  68 101  79 101  81 100
M  END
> <chiral flag>
0

> <version>
0

> <s_m_source_file>
/data/baiqing/PycharmProjects/Reinvent-master-3.2/result/LINK_invent/BTK/process_docking_weight1_custom_product_contain_oxygen_bond_distance_aromatic_linkinvent_7_9_3/rearranged_h_0071.sdf

> <i_m_source_file_index>
10

> <r_mmod_Potential_Energy-OPLS-2005>
-335.658782958984

> <r_mmod_Stretch_Energy-OPLS-2005>
93.2457427978516

> <r_mmod_Bend_Energy-OPLS-2005>
149.923568725586

> <r_mmod_Torsional_Energy-OPLS-2005>
219.397277832031

> <r_mmod_Improper_Torsional_Energy-OPLS-2005>
7.91889476776123

> <r_mmod_Van_der_Waal_Energy-OPLS-2005>
156.343475341797

> <r_mmod_Electrostatic_Energy-OPLS-2005>
34.8869857788086

> <r_mmod_Solvation_Energy-OPLS-2005>
-1052.8212890625

> <b_mmod_Minimization_Converged-OPLS-2005>
0

> <r_mmod_RMS_Derivative-OPLS-2005>
0.925291657447815

$$$$
10
                    3D
 Structure written by MMmdl.
161170  0  0  1  0            999 V2000
  -30.7371  -14.4972   20.5622 C   0  0  0  0  0  0
  -30.4078  -12.3293   19.4285 C   0  0  0  0  0  0
  -29.4887  -12.5032   18.2056 C   0  0  0  0  0  0
  -28.0141  -12.3524   18.6230 C   0  0  0  0  0  0
  -27.6518  -13.2162   19.8622 C   0  0  2  0  0  0
  -28.6957  -13.0620   20.9905 C   0  0  0  0  0  0
  -25.2547  -13.8180   20.5670 C   0  0  0  0  0  0
  -24.1826  -13.0448   20.9180 C   0  0  0  0  0  0
  -24.6399  -11.6916   20.8745 C   0  0  0  0  0  0
  -23.9066  -10.4298   21.0423 C   0  0  0  0  0  0
  -24.3625   -9.4208   21.9196 C   0  0  0  0  0  0
  -23.6297   -8.2245   22.0754 C   0  0  0  0  0  0
  -22.4272   -8.0296   21.3556 C   0  0  0  0  0  0
  -21.9920   -9.0267   20.4643 C   0  0  0  0  0  0
  -22.7245  -10.2144   20.3064 C   0  0  0  0  0  0
  -21.6853   -6.0748   22.5282 C   0  0  0  0  0  0
  -21.4014   -6.5647   23.8213 C   0  0  0  0  0  0
  -21.3656   -5.6799   24.9175 C   0  0  0  0  0  0
  -21.6043   -4.3061   24.7223 C   0  0  0  0  0  0
  -21.8819   -3.8156   23.4343 C   0  0  0  0  0  0
  -21.9193   -4.6974   22.3403 C   0  0  0  0  0  0
  -22.7854  -13.5248   21.1853 C   0  0  0  0  0  0
  -22.1665   -4.2167   21.0979 F   0  0  0  0  0  0
  -21.5628   -3.4539   25.7733 F   0  0  0  0  0  0
  -30.0166  -13.3500   20.4165 N   0  0  0  0  0  0
  -26.2977  -12.9369   20.3314 N   0  0  0  0  0  0
  -25.9322  -11.6516   20.5750 N   0  0  0  0  0  0
  -22.0496  -12.8240   22.0402 N   0  0  0  0  0  0
  -25.4250  -15.1891   20.4057 N   0  0  0  0  0  0
  -31.8976  -14.5651   20.1466 O   0  0  0  0  0  0
  -21.6641   -6.8892   21.4245 O   0  0  0  0  0  0
  -22.3545  -14.5570   20.6710 O   0  0  0  0  0  0
  -24.6170  -31.8661   23.2104 C   0  0  0  0  0  0
  -25.9057  -32.4815   23.8410 C   0  0  1  0  0  0
  -27.2379  -27.4277   20.1123 C   0  0  0  0  0  0
  -25.5915  -33.8616   24.2338 N   0  0  0  0  0  0
  -23.4079  -30.4879   21.5481 C   0  0  2  0  0  0
  -24.8581  -28.9512   20.1143 C   0  0  0  0  0  0
  -22.7434  -29.4652   22.4984 C   0  0  0  0  0  0
  -18.0281  -28.1410   22.8494 C   0  0  0  0  0  0
  -24.1485  -36.7312   23.2637 C   0  0  0  0  0  0
  -25.9356  -30.8314   21.3644 C   0  0  0  0  0  0
  -26.0153  -29.4632   20.7160 C   0  0  0  0  0  0
  -27.2115  -28.7073   20.7156 C   0  0  0  0  0  0
  -26.0734  -26.9353   19.4932 C   0  0  0  0  0  0
  -24.8815  -27.6854   19.5005 C   0  0  0  0  0  0
  -23.6196  -29.8181   20.1634 C   0  0  0  0  0  0
  -25.4104  -36.3103   24.0340 C   0  0  1  0  0  0
  -20.5868  -28.3692   23.1316 C   0  0  2  0  0  0
  -20.6766  -26.9419   22.5436 C   0  0  0  0  0  0
  -19.5745  -26.6403   21.5232 C   0  0  0  0  0  0
  -18.1915  -26.7960   22.1617 C   0  0  0  0  0  0
  -19.1528  -28.8868   23.2899 C   0  0  0  0  0  0
  -18.9451  -30.1475   23.8907 C   0  0  0  0  0  0
  -17.6448  -30.6594   24.0588 C   0  0  0  0  0  0
  -25.9038  -34.9467   23.5129 C   0  0  0  0  0  0
  -16.5344  -29.9103   23.6335 C   0  0  0  0  0  0
  -16.7266  -28.6535   23.0334 C   0  0  0  0  0  0
  -26.4469  -31.6598   25.0740 C   0  0  0  0  0  0
  -25.3738  -31.3701   26.1487 C   0  0  0  0  0  0
  -27.0305  -30.3038   24.6150 C   0  0  0  0  0  0
  -27.6081  -32.4293   25.7470 C   0  0  0  0  0  0
  -27.5597  -37.1789   24.8450 C   0  0  0  0  0  0
  -21.4160  -29.3040   22.3712 N   0  0  0  0  0  0
  -26.4284  -37.3800   23.9427 N   0  0  0  0  0  0
  -24.6714  -31.0762   22.0998 N   0  0  0  0  0  0
  -23.4188  -28.8199   23.3043 O   0  0  0  0  0  0
  -28.3703  -26.6447   20.1072 O   0  0  0  0  0  0
  -26.5593  -34.8911   22.4692 O   0  0  0  0  0  0
  -23.5358  -32.1410   23.7497 O   0  0  0  0  0  0
  -29.8611  -20.4451   20.3321 C   0  0  0  0  0  0
  -28.0812  -19.6301   21.7484 C   0  0  0  0  0  0
  -29.8898  -18.0927   21.0934 C   0  0  0  0  0  0
  -30.4619  -19.1628   20.3404 C   0  0  0  0  0  0
  -28.6782  -20.7184   21.0542 C   0  0  0  0  0  0
  -28.6706  -18.3411   21.7668 C   0  0  0  0  0  0
  -26.8737  -23.9086   21.5231 C   0  0  0  0  0  0
  -28.0696  -24.3991   21.1820 C   0  0  0  0  0  0
  -26.8934  -22.4587   21.4131 C   0  0  0  0  0  0
  -30.6520  -16.7894   21.2847 C   0  0  0  0  0  0
  -28.9971  -23.2593   20.8338 C   0  0  0  0  0  0
  -31.7420  -18.9815   19.5324 C   0  0  0  0  0  0
  -25.6684  -24.6606   22.0613 C   0  0  0  0  0  0
  -28.5583  -25.8527   21.2939 C   0  0  0  0  0  0
  -28.1579  -22.0732   21.0953 N   0  0  0  0  0  0
  -30.0670  -15.6042   20.9766 N   0  0  0  0  0  0
  -25.9201  -21.7141   21.5670 O   0  0  0  0  0  0
  -31.8165  -16.8759   21.6972 O   0  0  0  0  0  0
  -28.0773  -17.3549   22.4830 F   0  0  0  0  0  0
  -31.4533  -12.4005   19.1241 H   0  0  0  0  0  0
  -30.2928  -11.3315   19.8547 H   0  0  0  0  0  0
  -29.7398  -11.7708   17.4372 H   0  0  0  0  0  0
  -29.6447  -13.4855   17.7551 H   0  0  0  0  0  0
  -27.8416  -11.2976   18.8412 H   0  0  0  0  0  0
  -27.3593  -12.5991   17.7864 H   0  0  0  0  0  0
  -27.6781  -14.2549   19.5331 H   0  0  0  0  0  0
  -28.6779  -12.0487   21.3927 H   0  0  0  0  0  0
  -28.4590  -13.7193   21.8283 H   0  0  0  0  0  0
  -25.2777   -9.5686   22.4759 H   0  0  0  0  0  0
  -24.0011   -7.4644   22.7478 H   0  0  0  0  0  0
  -21.0854   -8.8796   19.8950 H   0  0  0  0  0  0
  -22.3719  -10.9694   19.6171 H   0  0  0  0  0  0
  -21.2007   -7.6153   23.9725 H   0  0  0  0  0  0
  -21.1474   -6.0523   25.9079 H   0  0  0  0  0  0
  -22.0598   -2.7616   23.2836 H   0  0  0  0  0  0
  -22.4116  -11.9883   22.4766 H   0  0  0  0  0  0
  -21.1113  -13.1261   22.2624 H   0  0  0  0  0  0
  -24.6556  -15.8393   20.5163 H   0  0  0  0  0  0
  -26.2742  -15.6318   20.0829 H   0  0  0  0  0  0
  -26.7149  -32.5509   23.1198 H   0  0  0  0  0  0
  -25.0088  -33.9781   25.0498 H   0  0  0  0  0  0
  -22.6965  -31.3039   21.4055 H   0  0  0  0  0  0
  -23.3763  -35.9627   23.3246 H   0  0  0  0  0  0
  -24.3601  -36.8987   22.2064 H   0  0  0  0  0  0
  -23.7202  -37.6490   23.6682 H   0  0  0  0  0  0
  -26.0477  -31.5967   20.5952 H   0  0  0  0  0  0
  -26.8237  -30.8875   21.9830 H   0  0  0  0  0  0
  -28.1040  -29.1006   21.1822 H   0  0  0  0  0  0
  -26.0862  -25.9606   19.0257 H   0  0  0  0  0  0
  -23.9932  -27.2825   19.0343 H   0  0  0  0  0  0
  -23.7294  -30.5909   19.4015 H   0  0  0  0  0  0
  -22.7444  -29.2375   19.8681 H   0  0  0  0  0  0
  -25.1277  -36.1970   25.0836 H   0  0  0  0  0  0
  -20.9957  -28.3276   24.1440 H   0  0  0  0  0  0
  -20.5677  -26.2308   23.3641 H   0  0  0  0  0  0
  -21.6638  -26.7449   22.1239 H   0  0  0  0  0  0
  -19.6896  -25.6318   21.1258 H   0  0  0  0  0  0
  -19.6695  -27.3217   20.6769 H   0  0  0  0  0  0
  -17.4207  -26.6763   21.3988 H   0  0  0  0  0  0
  -18.0247  -26.0094   22.8988 H   0  0  0  0  0  0
  -19.7917  -30.7309   24.2270 H   0  0  0  0  0  0
  -17.4993  -31.6263   24.5217 H   0  0  0  0  0  0
  -15.5342  -30.3010   23.7655 H   0  0  0  0  0  0
  -15.8670  -28.0880   22.7004 H   0  0  0  0  0  0
  -24.6029  -30.6887   25.7865 H   0  0  0  0  0  0
  -24.8766  -32.2819   26.4803 H   0  0  0  0  0  0
  -25.8121  -30.9037   27.0321 H   0  0  0  0  0  0
  -26.2856  -29.6781   24.1221 H   0  0  0  0  0  0
  -27.4070  -29.7301   25.4633 H   0  0  0  0  0  0
  -27.8686  -30.4351   23.9310 H   0  0  0  0  0  0
  -27.2785  -33.3629   26.2040 H   0  0  0  0  0  0
  -28.3879  -32.6789   25.0261 H   0  0  0  0  0  0
  -28.0756  -31.8405   26.5373 H   0  0  0  0  0  0
  -28.2575  -38.0129   24.7582 H   0  0  0  0  0  0
  -28.1135  -36.2670   24.6158 H   0  0  0  0  0  0
  -27.2333  -37.1300   25.8856 H   0  0  0  0  0  0
  -20.9336  -29.8772   21.6935 H   0  0  0  0  0  0
  -26.0171  -38.2868   24.1489 H   0  0  0  0  0  0
  -30.3358  -21.2361   19.7678 H   0  0  0  0  0  0
  -27.1792  -19.7678   22.3247 H   0  0  0  0  0  0
  -29.8742  -23.2586   21.4820 H   0  0  0  0  0  0
  -29.3170  -23.3267   19.7930 H   0  0  0  0  0  0
  -31.9192  -19.8223   18.8599 H   0  0  0  0  0  0
  -31.6893  -18.0822   18.9167 H   0  0  0  0  0  0
  -32.6080  -18.9014   20.1914 H   0  0  0  0  0  0
  -25.8062  -25.7390   22.0089 H   0  0  0  0  0  0
  -25.4918  -24.3952   23.1038 H   0  0  0  0  0  0
  -24.7748  -24.4039   21.4921 H   0  0  0  0  0  0
  -29.6207  -25.8424   21.5391 H   0  0  0  0  0  0
  -28.0730  -26.3231   22.1509 H   0  0  0  0  0  0
  -29.0621  -15.5724   20.9594 H   0  0  0  0  0  0
  1 25  1  0  0  0
  1 30  2  0  0  0
  1 86  1  0  0  0
  2  3  1  0  0  0
  2 25  1  0  0  0
  2 90  1  0  0  0
  2 91  1  0  0  0
  3  4  1  0  0  0
  3 92  1  0  0  0
  3 93  1  0  0  0
  4  5  1  0  0  0
  4 94  1  0  0  0
  4 95  1  0  0  0
  5  6  1  0  0  0
  5 26  1  0  0  0
  5 96  1  0  0  0
  6 25  1  0  0  0
  6 97  1  0  0  0
  6 98  1  0  0  0
  7  8  2  0  0  0
  7 26  1  0  0  0
  7 29  1  0  0  0
  8  9  1  0  0  0
  8 22  1  0  0  0
  9 10  1  0  0  0
  9 27  2  0  0  0
 10 11  2  0  0  0
 10 15  1  0  0  0
 11 12  1  0  0  0
 11 99  1  0  0  0
 12 13  2  0  0  0
 12100  1  0  0  0
 13 14  1  0  0  0
 13 31  1  0  0  0
 14 15  2  0  0  0
 14101  1  0  0  0
 15102  1  0  0  0
 16 17  2  0  0  0
 16 21  1  0  0  0
 16 31  1  0  0  0
 17 18  1  0  0  0
 17103  1  0  0  0
 18 19  2  0  0  0
 18104  1  0  0  0
 19 20  1  0  0  0
 19 24  1  0  0  0
 20 21  2  0  0  0
 20105  1  0  0  0
 21 23  1  0  0  0
 22 28  1  0  0  0
 22 32  2  0  0  0
 26 27  1  0  0  0
 28106  1  0  0  0
 28107  1  0  0  0
 29108  1  0  0  0
 29109  1  0  0  0
 33 34  1  0  0  0
 33 66  1  0  0  0
 33 70  2  0  0  0
 34 36  1  0  0  0
 34 59  1  0  0  0
 34110  1  0  0  0
 35 44  2  0  0  0
 35 45  1  0  0  0
 35 68  1  0  0  0
 36 56  1  0  0  0
 36111  1  0  0  0
 37 39  1  0  0  0
 37 47  1  0  0  0
 37 66  1  0  0  0
 37112  1  0  0  0
 38 43  2  0  0  0
 38 46  1  0  0  0
 38 47  1  0  0  0
 39 64  1  0  0  0
 39 67  2  0  0  0
 40 52  1  0  0  0
 40 53  2  0  0  0
 40 58  1  0  0  0
 41113  1  0  0  0
 41114  1  0  0  0
 41115  1  0  0  0
 41 48  1  0  0  0
 42 43  1  0  0  0
 42 66  1  0  0  0
 42116  1  0  0  0
 42117  1  0  0  0
 43 44  1  0  0  0
 44118  1  0  0  0
 45 46  2  0  0  0
 45119  1  0  0  0
 46120  1  0  0  0
 47121  1  0  0  0
 47122  1  0  0  0
 48 56  1  0  0  0
 48 65  1  0  0  0
 48123  1  0  0  0
 49 50  1  0  0  0
 49 53  1  0  0  0
 49 64  1  0  0  0
 49124  1  0  0  0
 50 51  1  0  0  0
 50125  1  0  0  0
 50126  1  0  0  0
 51 52  1  0  0  0
 51127  1  0  0  0
 51128  1  0  0  0
 52129  1  0  0  0
 52130  1  0  0  0
 53 54  1  0  0  0
 54 55  2  0  0  0
 54131  1  0  0  0
 55 57  1  0  0  0
 55132  1  0  0  0
 56 69  2  0  0  0
 57 58  2  0  0  0
 57133  1  0  0  0
 58134  1  0  0  0
 59 60  1  0  0  0
 59 61  1  0  0  0
 59 62  1  0  0  0
 60135  1  0  0  0
 60136  1  0  0  0
 60137  1  0  0  0
 61138  1  0  0  0
 61139  1  0  0  0
 61140  1  0  0  0
 62141  1  0  0  0
 62142  1  0  0  0
 62143  1  0  0  0
 63 65  1  0  0  0
 63144  1  0  0  0
 63145  1  0  0  0
 63146  1  0  0  0
 64147  1  0  0  0
 65148  1  0  0  0
 68 84  1  0  0  0
 71 74  2  0  0  0
 71 75  1  0  0  0
 71149  1  0  0  0
 72 75  2  0  0  0
 72 76  1  0  0  0
 72150  1  0  0  0
 73 74  1  0  0  0
 73 76  2  0  0  0
 73 80  1  0  0  0
 74 82  1  0  0  0
 75 85  1  0  0  0
 76 89  1  0  0  0
 77 78  2  0  0  0
 77 79  1  0  0  0
 77 83  1  0  0  0
 78 81  1  0  0  0
 78 84  1  0  0  0
 79 85  1  0  0  0
 79 87  2  0  0  0
 80 86  1  0  0  0
 80 88  2  0  0  0
 81 85  1  0  0  0
 81151  1  0  0  0
 81152  1  0  0  0
 82153  1  0  0  0
 82154  1  0  0  0
 82155  1  0  0  0
 83156  1  0  0  0
 83157  1  0  0  0
 83158  1  0  0  0
 84159  1  0  0  0
 84160  1  0  0  0
 86161  1  0  0  0
M  ISO  4   1 100  68 101  84 101  86 100
M  END
> <chiral flag>
0

> <version>
0

> <s_m_source_file>
/data/baiqing/PycharmProjects/Reinvent-master-3.2/result/LINK_invent/BTK/process_docking_weight1_custom_product_contain_oxygen_bond_distance_aromatic_linkinvent_7_9_3/rearranged_h_0071.sdf

> <i_m_source_file_index>
11

> <r_mmod_Potential_Energy-OPLS-2005>
94.9343719482422

> <r_mmod_Stretch_Energy-OPLS-2005>
46.5126724243164

> <r_mmod_Bend_Energy-OPLS-2005>
148.416229248047

> <r_mmod_Torsional_Energy-OPLS-2005>
297.724914550781

> <r_mmod_Improper_Torsional_Energy-OPLS-2005>
5.58515071868896

> <r_mmod_Van_der_Waal_Energy-OPLS-2005>
152.871673583984

> <r_mmod_Electrostatic_Energy-OPLS-2005>
-363.437652587891

> <r_mmod_Solvation_Energy-OPLS-2005>
-212.670791625977

> <b_mmod_Minimization_Converged-OPLS-2005>
0

> <r_mmod_RMS_Derivative-OPLS-2005>
2.12657356262207

$$$$
11
                    3D
 Structure written by MMmdl.
164173  0  0  1  0            999 V2000
  -30.7317  -14.3896   20.7012 C   0  0  0  0  0  0
  -30.4272  -12.3030   19.4027 C   0  0  0  0  0  0
  -29.4968  -12.5420   18.1975 C   0  0  0  0  0  0
  -28.0170  -12.3922   18.6038 C   0  0  0  0  0  0
  -27.6695  -13.2006   19.8804 C   0  0  2  0  0  0
  -28.7017  -12.9274   20.9956 C   0  0  0  0  0  0
  -25.2615  -13.8143   20.5637 C   0  0  0  0  0  0
  -24.1850  -13.0439   20.9146 C   0  0  0  0  0  0
  -24.6389  -11.6898   20.8699 C   0  0  0  0  0  0
  -23.9028  -10.4299   21.0376 C   0  0  0  0  0  0
  -24.3585   -9.4227   21.9165 C   0  0  0  0  0  0
  -23.6284   -8.2249   22.0743 C   0  0  0  0  0  0
  -22.4269   -8.0271   21.3529 C   0  0  0  0  0  0
  -21.9886   -9.0235   20.4628 C   0  0  0  0  0  0
  -22.7194  -10.2129   20.3032 C   0  0  0  0  0  0
  -21.6854   -6.0723   22.5278 C   0  0  0  0  0  0
  -21.4016   -6.5631   23.8213 C   0  0  0  0  0  0
  -21.3660   -5.6787   24.9179 C   0  0  0  0  0  0
  -21.6050   -4.3049   24.7225 C   0  0  0  0  0  0
  -21.8821   -3.8133   23.4347 C   0  0  0  0  0  0
  -21.9196   -4.6949   22.3404 C   0  0  0  0  0  0
  -22.7874  -13.5251   21.1824 C   0  0  0  0  0  0
  -22.1656   -4.2131   21.0982 F   0  0  0  0  0  0
  -21.5636   -3.4534   25.7736 F   0  0  0  0  0  0
  -30.0510  -13.2337   20.4765 N   0  0  0  0  0  0
  -26.3048  -12.9297   20.3336 N   0  0  0  0  0  0
  -25.9310  -11.6458   20.5701 N   0  0  0  0  0  0
  -22.0498  -12.8246   22.0374 N   0  0  0  0  0  0
  -25.4381  -15.1853   20.4017 N   0  0  0  0  0  0
  -31.7111  -14.7313   20.0287 O   0  0  0  0  0  0
  -21.6638   -6.8863   21.4237 O   0  0  0  0  0  0
  -22.3561  -14.5566   20.6696 O   0  0  0  0  0  0
  -24.6119  -31.8699   23.2110 C   0  0  0  0  0  0
  -25.9027  -32.4827   23.8398 C   0  0  1  0  0  0
  -27.2334  -27.4557   20.0941 C   0  0  0  0  0  0
  -25.5895  -33.8623   24.2337 N   0  0  0  0  0  0
  -23.3989  -30.4923   21.5512 C   0  0  2  0  0  0
  -24.8462  -28.9568   20.1182 C   0  0  0  0  0  0
  -22.7389  -29.4667   22.5005 C   0  0  0  0  0  0
  -18.0270  -28.1373   22.8496 C   0  0  0  0  0  0
  -24.1484  -36.7322   23.2639 C   0  0  0  0  0  0
  -25.9242  -30.8415   21.3595 C   0  0  0  0  0  0
  -26.0046  -29.4741   20.7142 C   0  0  0  0  0  0
  -27.2041  -28.7291   20.7029 C   0  0  0  0  0  0
  -26.0647  -26.9449   19.4961 C   0  0  0  0  0  0
  -24.8695  -27.6891   19.5086 C   0  0  0  0  0  0
  -23.6072  -29.8214   20.1668 C   0  0  0  0  0  0
  -25.4103  -36.3117   24.0341 C   0  0  1  0  0  0
  -20.5853  -28.3651   23.1327 C   0  0  2  0  0  0
  -20.6757  -26.9393   22.5417 C   0  0  0  0  0  0
  -19.5742  -26.6385   21.5208 C   0  0  0  0  0  0
  -18.1919  -26.7927   22.1618 C   0  0  0  0  0  0
  -19.1515  -28.8826   23.2912 C   0  0  0  0  0  0
  -18.9447  -30.1432   23.8917 C   0  0  0  0  0  0
  -17.6454  -30.6583   24.0562 C   0  0  0  0  0  0
  -25.9032  -34.9483   23.5140 C   0  0  0  0  0  0
  -16.5343  -29.9086   23.6320 C   0  0  0  0  0  0
  -16.7258  -28.6500   23.0341 C   0  0  0  0  0  0
  -26.4472  -31.6587   25.0705 C   0  0  0  0  0  0
  -25.3749  -31.3653   26.1453 C   0  0  0  0  0  0
  -27.0304  -30.3045   24.6028 C   0  0  0  0  0  0
  -27.6047  -32.4292   25.7474 C   0  0  0  0  0  0
  -27.5581  -37.1817   24.8464 C   0  0  0  0  0  0
  -21.4121  -29.3029   22.3741 N   0  0  0  0  0  0
  -26.4294  -37.3801   23.9416 N   0  0  0  0  0  0
  -24.6636  -31.0809   22.1003 N   0  0  0  0  0  0
  -23.4171  -28.8221   23.3044 O   0  0  0  0  0  0
  -28.3885  -26.7178   20.0418 O   0  0  0  0  0  0
  -26.5591  -34.8933   22.4695 O   0  0  0  0  0  0
  -23.5320  -32.1445   23.7521 O   0  0  0  0  0  0
  -30.2308  -19.8037   17.3051 C   0  0  0  0  0  0
  -30.1330  -18.7214   18.1992 C   0  0  0  0  0  0
  -30.2161  -21.1256   17.7886 C   0  0  0  0  0  0
  -29.9836  -20.2839   20.0637 C   0  0  0  0  0  0
  -30.0405  -18.9524   19.5851 C   0  0  0  0  0  0
  -30.0768  -21.3842   19.1712 C   0  0  0  0  0  0
  -29.2499  -23.2907   20.5394 C   0  0  0  0  0  0
  -29.9274  -17.8114   20.5090 C   0  0  0  0  0  0
  -30.9197  -17.3323   21.2953 C   0  0  0  0  0  0
  -30.5929  -16.2802   22.2580 C   0  0  0  0  0  0
  -30.6855  -25.0582   19.7751 C   0  0  0  0  0  0
  -31.0577  -23.7099   19.1440 C   0  0  0  0  0  0
  -29.6627  -24.7278   20.8730 C   0  0  1  0  0  0
  -32.3361  -17.8831   21.3057 C   0  0  0  0  0  0
  -28.5166  -25.7588   21.0941 C   0  0  0  0  0  0
  -30.0884  -22.7369   19.6409 N   0  0  0  0  0  0
  -30.3037  -15.0518   21.7910 N   0  0  0  0  0  0
  -28.2846  -22.7322   21.0716 O   0  0  0  0  0  0
  -30.4761  -16.5060   23.4642 O   0  0  0  0  0  0
  -31.4724  -12.4156   19.1084 H   0  0  0  0  0  0
  -30.3313  -11.2763   19.7604 H   0  0  0  0  0  0
  -29.7405  -11.8479   17.3927 H   0  0  0  0  0  0
  -29.6687  -13.5433   17.8002 H   0  0  0  0  0  0
  -27.8179  -11.3319   18.7668 H   0  0  0  0  0  0
  -27.3684  -12.6968   17.7814 H   0  0  0  0  0  0
  -27.7340  -14.2585   19.6217 H   0  0  0  0  0  0
  -28.6640  -11.8784   21.2946 H   0  0  0  0  0  0
  -28.4282  -13.4859   21.8902 H   0  0  0  0  0  0
  -25.2725   -9.5734   22.4728 H   0  0  0  0  0  0
  -24.0005   -7.4657   22.7475 H   0  0  0  0  0  0
  -21.0810   -8.8732   19.8947 H   0  0  0  0  0  0
  -22.3629  -10.9650   19.6131 H   0  0  0  0  0  0
  -21.2002   -7.6138   23.9714 H   0  0  0  0  0  0
  -21.1483   -6.0513   25.9089 H   0  0  0  0  0  0
  -22.0600   -2.7591   23.2850 H   0  0  0  0  0  0
  -22.4074  -11.9898   22.4774 H   0  0  0  0  0  0
  -21.1116  -13.1285   22.2567 H   0  0  0  0  0  0
  -24.6803  -15.8486   20.5175 H   0  0  0  0  0  0
  -26.2948  -15.6158   20.0772 H   0  0  0  0  0  0
  -26.7096  -32.5568   23.1174 H   0  0  0  0  0  0
  -25.0059  -33.9789   25.0485 H   0  0  0  0  0  0
  -22.6877  -31.3084   21.4123 H   0  0  0  0  0  0
  -23.3748  -35.9654   23.3305 H   0  0  0  0  0  0
  -24.3584  -36.8930   22.2055 H   0  0  0  0  0  0
  -23.7235  -37.6527   23.6645 H   0  0  0  0  0  0
  -26.0248  -31.6043   20.5860 H   0  0  0  0  0  0
  -26.8161  -30.9034   21.9702 H   0  0  0  0  0  0
  -28.1027  -29.1244   21.1557 H   0  0  0  0  0  0
  -26.0836  -25.9747   19.0188 H   0  0  0  0  0  0
  -23.9791  -27.2856   19.0461 H   0  0  0  0  0  0
  -23.7119  -30.5944   19.4053 H   0  0  0  0  0  0
  -22.7310  -29.2384   19.8736 H   0  0  0  0  0  0
  -25.1279  -36.1985   25.0835 H   0  0  0  0  0  0
  -20.9946  -28.3211   24.1448 H   0  0  0  0  0  0
  -20.5655  -26.2263   23.3602 H   0  0  0  0  0  0
  -21.6632  -26.7448   22.1213 H   0  0  0  0  0  0
  -19.6908  -25.6298   21.1228 H   0  0  0  0  0  0
  -19.6681  -27.3200   20.6744 H   0  0  0  0  0  0
  -17.4195  -26.6677   21.4014 H   0  0  0  0  0  0
  -18.0319  -26.0050   22.8996 H   0  0  0  0  0  0
  -19.7924  -30.7237   24.2301 H   0  0  0  0  0  0
  -17.5012  -31.6269   24.5159 H   0  0  0  0  0  0
  -15.5340  -30.2997   23.7633 H   0  0  0  0  0  0
  -15.8661  -28.0830   22.7042 H   0  0  0  0  0  0
  -24.5923  -30.7011   25.7778 H   0  0  0  0  0  0
  -24.8946  -32.2790   26.4955 H   0  0  0  0  0  0
  -25.8117  -30.8778   27.0181 H   0  0  0  0  0  0
  -26.2836  -29.6799   24.1119 H   0  0  0  0  0  0
  -27.4156  -29.7268   25.4443 H   0  0  0  0  0  0
  -27.8625  -30.4396   23.9113 H   0  0  0  0  0  0
  -27.2672  -33.3576   26.2094 H   0  0  0  0  0  0
  -28.3842  -32.6880   25.0294 H   0  0  0  0  0  0
  -28.0737  -31.8390   26.5357 H   0  0  0  0  0  0
  -28.2594  -38.0118   24.7525 H   0  0  0  0  0  0
  -28.1079  -36.2654   24.6269 H   0  0  0  0  0  0
  -27.2307  -37.1446   25.8868 H   0  0  0  0  0  0
  -20.9281  -29.8743   21.6961 H   0  0  0  0  0  0
  -26.0181  -38.2880   24.1417 H   0  0  0  0  0  0
  -30.3212  -19.6184   16.2436 H   0  0  0  0  0  0
  -30.1452  -17.7098   17.8179 H   0  0  0  0  0  0
  -30.2917  -21.9365   17.0780 H   0  0  0  0  0  0
  -29.8905  -20.4572   21.1277 H   0  0  0  0  0  0
  -28.9441  -17.3624   20.5672 H   0  0  0  0  0  0
  -30.2663  -25.7008   19.0013 H   0  0  0  0  0  0
  -31.5600  -25.5698   20.1789 H   0  0  0  0  0  0
  -32.0601  -23.4023   19.4445 H   0  0  0  0  0  0
  -31.0392  -23.7839   18.0569 H   0  0  0  0  0  0
  -30.1973  -24.6312   21.8186 H   0  0  0  0  0  0
  -32.5397  -18.5114   20.4387 H   0  0  0  0  0  0
  -33.0591  -17.0664   21.3029 H   0  0  0  0  0  0
  -32.4949  -18.4815   22.2036 H   0  0  0  0  0  0
  -28.7134  -26.3108   22.0143 H   0  0  0  0  0  0
  -27.5676  -25.2459   21.2576 H   0  0  0  0  0  0
  -29.7373  -14.4911   22.4055 H   0  0  0  0  0  0
  1 25  1  0  0  0
  1 30  2  0  0  0
  1 87  1  0  0  0
  2  3  1  0  0  0
  2 25  1  0  0  0
  2 90  1  0  0  0
  2 91  1  0  0  0
  3  4  1  0  0  0
  3 92  1  0  0  0
  3 93  1  0  0  0
  4  5  1  0  0  0
  4 94  1  0  0  0
  4 95  1  0  0  0
  5  6  1  0  0  0
  5 26  1  0  0  0
  5 96  1  0  0  0
  6 25  1  0  0  0
  6 97  1  0  0  0
  6 98  1  0  0  0
  7  8  2  0  0  0
  7 26  1  0  0  0
  7 29  1  0  0  0
  8  9  1  0  0  0
  8 22  1  0  0  0
  9 10  1  0  0  0
  9 27  2  0  0  0
 10 11  2  0  0  0
 10 15  1  0  0  0
 11 12  1  0  0  0
 11 99  1  0  0  0
 12 13  2  0  0  0
 12100  1  0  0  0
 13 14  1  0  0  0
 13 31  1  0  0  0
 14 15  2  0  0  0
 14101  1  0  0  0
 15102  1  0  0  0
 16 17  2  0  0  0
 16 21  1  0  0  0
 16 31  1  0  0  0
 17 18  1  0  0  0
 17103  1  0  0  0
 18 19  2  0  0  0
 18104  1  0  0  0
 19 20  1  0  0  0
 19 24  1  0  0  0
 20 21  2  0  0  0
 20105  1  0  0  0
 21 23  1  0  0  0
 22 28  1  0  0  0
 22 32  2  0  0  0
 26 27  1  0  0  0
 28106  1  0  0  0
 28107  1  0  0  0
 29108  1  0  0  0
 29109  1  0  0  0
 33 34  1  0  0  0
 33 66  1  0  0  0
 33 70  2  0  0  0
 34 36  1  0  0  0
 34 59  1  0  0  0
 34110  1  0  0  0
 35 44  2  0  0  0
 35 45  1  0  0  0
 35 68  1  0  0  0
 36 56  1  0  0  0
 36111  1  0  0  0
 37 39  1  0  0  0
 37 47  1  0  0  0
 37 66  1  0  0  0
 37112  1  0  0  0
 38 43  2  0  0  0
 38 46  1  0  0  0
 38 47  1  0  0  0
 39 64  1  0  0  0
 39 67  2  0  0  0
 40 52  1  0  0  0
 40 53  2  0  0  0
 40 58  1  0  0  0
 41113  1  0  0  0
 41114  1  0  0  0
 41115  1  0  0  0
 41 48  1  0  0  0
 42 43  1  0  0  0
 42 66  1  0  0  0
 42116  1  0  0  0
 42117  1  0  0  0
 43 44  1  0  0  0
 44118  1  0  0  0
 45 46  2  0  0  0
 45119  1  0  0  0
 46120  1  0  0  0
 47121  1  0  0  0
 47122  1  0  0  0
 48 56  1  0  0  0
 48 65  1  0  0  0
 48123  1  0  0  0
 49 50  1  0  0  0
 49 53  1  0  0  0
 49 64  1  0  0  0
 49124  1  0  0  0
 50 51  1  0  0  0
 50125  1  0  0  0
 50126  1  0  0  0
 51 52  1  0  0  0
 51127  1  0  0  0
 51128  1  0  0  0
 52129  1  0  0  0
 52130  1  0  0  0
 53 54  1  0  0  0
 54 55  2  0  0  0
 54131  1  0  0  0
 55 57  1  0  0  0
 55132  1  0  0  0
 56 69  2  0  0  0
 57 58  2  0  0  0
 57133  1  0  0  0
 58134  1  0  0  0
 59 60  1  0  0  0
 59 61  1  0  0  0
 59 62  1  0  0  0
 60135  1  0  0  0
 60136  1  0  0  0
 60137  1  0  0  0
 61138  1  0  0  0
 61139  1  0  0  0
 61140  1  0  0  0
 62141  1  0  0  0
 62142  1  0  0  0
 62143  1  0  0  0
 63 65  1  0  0  0
 63144  1  0  0  0
 63145  1  0  0  0
 63146  1  0  0  0
 64147  1  0  0  0
 65148  1  0  0  0
 68 85  1  0  0  0
 71 72  2  0  0  0
 71 73  1  0  0  0
 71149  1  0  0  0
 72 75  1  0  0  0
 72150  1  0  0  0
 73 76  2  0  0  0
 73151  1  0  0  0
 74 75  2  0  0  0
 74 76  1  0  0  0
 74152  1  0  0  0
 75 78  1  0  0  0
 76 86  1  0  0  0
 77 83  1  0  0  0
 77 86  1  0  0  0
 77 88  2  0  0  0
 78 79  2  0  0  0
 78153  1  0  0  0
 79 80  1  0  0  0
 79 84  1  0  0  0
 80 87  1  0  0  0
 80 89  2  0  0  0
 81 82  1  0  0  0
 81 83  1  0  0  0
 81154  1  0  0  0
 81155  1  0  0  0
 82 86  1  0  0  0
 82156  1  0  0  0
 82157  1  0  0  0
 83 85  1  0  0  0
 83158  1  0  0  0
 84159  1  0  0  0
 84160  1  0  0  0
 84161  1  0  0  0
 85162  1  0  0  0
 85163  1  0  0  0
 87164  1  0  0  0
M  ISO  4   1 100  68 101  85 101  87 100
M  END
> <chiral flag>
0

> <version>
0

> <s_m_source_file>
/data/baiqing/PycharmProjects/Reinvent-master-3.2/result/LINK_invent/BTK/process_docking_weight1_custom_product_contain_oxygen_bond_distance_aromatic_linkinvent_7_9_3/rearranged_h_0071.sdf

> <i_m_source_file_index>
12

> <r_mmod_Potential_Energy-OPLS-2005>
31.5816211700439

> <r_mmod_Stretch_Energy-OPLS-2005>
36.419620513916

> <r_mmod_Bend_Energy-OPLS-2005>
129.812728881836

> <r_mmod_Torsional_Energy-OPLS-2005>
364.645538330078

> <r_mmod_Improper_Torsional_Energy-OPLS-2005>
4.72281312942505

> <r_mmod_Van_der_Waal_Energy-OPLS-2005>
151.708572387695

> <r_mmod_Electrostatic_Energy-OPLS-2005>
-447.807281494141

> <r_mmod_Solvation_Energy-OPLS-2005>
-216.067993164062

> <b_mmod_Minimization_Converged-OPLS-2005>
0

> <r_mmod_RMS_Derivative-OPLS-2005>
1.73486065864563

$$$$
12
                    3D
 Structure written by MMmdl.
150158  0  0  1  0            999 V2000
  -30.5904  -14.8018   20.4190 C   0  0  0  0  0  0
  -30.4294  -12.4828   19.4935 C   0  0  0  0  0  0
  -29.5133  -12.5065   18.2495 C   0  0  0  0  0  0
  -28.0413  -12.3215   18.6610 C   0  0  0  0  0  0
  -27.6363  -13.2360   19.8467 C   0  0  2  0  0  0
  -28.6774  -13.2035   20.9867 C   0  0  0  0  0  0
  -25.2485  -13.8208   20.5701 C   0  0  0  0  0  0
  -24.1777  -13.0445   20.9208 C   0  0  0  0  0  0
  -24.6373  -11.6924   20.8750 C   0  0  0  0  0  0
  -23.9052  -10.4292   21.0409 C   0  0  0  0  0  0
  -24.3613   -9.4211   21.9187 C   0  0  0  0  0  0
  -23.6292   -8.2246   22.0757 C   0  0  0  0  0  0
  -22.4275   -8.0279   21.3542 C   0  0  0  0  0  0
  -21.9904   -9.0248   20.4649 C   0  0  0  0  0  0
  -22.7223  -10.2131   20.3055 C   0  0  0  0  0  0
  -21.6861   -6.0734   22.5278 C   0  0  0  0  0  0
  -21.4012   -6.5639   23.8206 C   0  0  0  0  0  0
  -21.3661   -5.6796   24.9173 C   0  0  0  0  0  0
  -21.6037   -4.3056   24.7226 C   0  0  0  0  0  0
  -21.8818   -3.8143   23.4349 C   0  0  0  0  0  0
  -21.9190   -4.6959   22.3403 C   0  0  0  0  0  0
  -22.7800  -13.5219   21.1873 C   0  0  0  0  0  0
  -22.1662   -4.2146   21.0982 F   0  0  0  0  0  0
  -21.5632   -3.4539   25.7742 F   0  0  0  0  0  0
  -29.9761  -13.5638   20.4057 N   0  0  0  0  0  0
  -26.2900  -12.9417   20.3263 N   0  0  0  0  0  0
  -25.9302  -11.6561   20.5755 N   0  0  0  0  0  0
  -22.0449  -12.8210   22.0444 N   0  0  0  0  0  0
  -25.4169  -15.1935   20.4118 N   0  0  0  0  0  0
  -31.7854  -14.8699   20.1150 O   0  0  0  0  0  0
  -21.6638   -6.8878   21.4239 O   0  0  0  0  0  0
  -22.3477  -14.5520   20.6722 O   0  0  0  0  0  0
  -24.6336  -31.8513   23.1934 C   0  0  0  0  0  0
  -25.9151  -32.4725   23.8298 C   0  0  1  0  0  0
  -27.2203  -27.2278   20.1228 C   0  0  0  0  0  0
  -25.5930  -33.8532   24.2223 N   0  0  0  0  0  0
  -23.4330  -30.4726   21.5370 C   0  0  2  0  0  0
  -24.8797  -28.9118   20.1046 C   0  0  0  0  0  0
  -22.7529  -29.4582   22.4878 C   0  0  0  0  0  0
  -18.0299  -28.1399   22.8478 C   0  0  0  0  0  0
  -24.1488  -36.7275   23.2642 C   0  0  0  0  0  0
  -25.9814  -30.7511   21.3796 C   0  0  0  0  0  0
  -26.0514  -29.3718   20.7179 C   0  0  0  0  0  0
  -27.2203  -28.5401   20.7178 C   0  0  0  0  0  0
  -26.0224  -26.8407   19.4831 C   0  0  0  0  0  0
  -24.8709  -27.6559   19.4782 C   0  0  0  0  0  0
  -23.6539  -29.8045   20.1540 C   0  0  0  0  0  0
  -25.4117  -36.3049   24.0318 C   0  0  1  0  0  0
  -20.5906  -28.3715   23.1249 C   0  0  2  0  0  0
  -20.6785  -26.9422   22.5409 C   0  0  0  0  0  0
  -19.5755  -26.6383   21.5221 C   0  0  0  0  0  0
  -18.1939  -26.7938   22.1628 C   0  0  0  0  0  0
  -19.1555  -28.8875   23.2857 C   0  0  0  0  0  0
  -18.9471  -30.1476   23.8874 C   0  0  0  0  0  0
  -17.6474  -30.6592   24.0572 C   0  0  0  0  0  0
  -25.9055  -34.9425   23.5076 C   0  0  0  0  0  0
  -16.5364  -29.9093   23.6328 C   0  0  0  0  0  0
  -16.7289  -28.6514   23.0345 C   0  0  0  0  0  0
  -26.4511  -31.6573   25.0715 C   0  0  0  0  0  0
  -25.3729  -31.3764   26.1440 C   0  0  0  0  0  0
  -27.0372  -30.2965   24.6267 C   0  0  0  0  0  0
  -27.6044  -32.4343   25.7500 C   0  0  0  0  0  0
  -27.5568  -37.1794   24.8468 C   0  0  0  0  0  0
  -21.4232  -29.3046   22.3632 N   0  0  0  0  0  0
  -26.4288  -37.3751   23.9402 N   0  0  0  0  0  0
  -24.7018  -31.0446   22.0923 N   0  0  0  0  0  0
  -23.4217  -28.8128   23.2998 O   0  0  0  0  0  0
  -28.3037  -26.3133   20.2259 O   0  0  0  0  0  0
  -26.5643  -34.8917   22.4655 O   0  0  0  0  0  0
  -23.5475  -32.1356   23.7199 O   0  0  0  0  0  0
  -29.3879  -18.6067   20.5267 C   0  0  0  0  0  0
  -30.2924  -19.8983   18.6751 C   0  0  0  0  0  0
  -30.7363  -17.4852   18.8409 C   0  0  0  0  0  0
  -29.5245  -19.9161   19.8631 C   0  0  0  0  0  0
  -29.9874  -17.3525   20.0341 C   0  0  0  0  0  0
  -30.8833  -18.7201   18.1799 C   0  0  0  0  0  0
  -28.2903  -24.9706   19.7103 C   0  0  0  0  0  0
  -28.6338  -23.7696   20.3436 C   0  0  0  0  0  0
  -28.7126  -22.4230   19.6306 C   0  0  0  0  0  0
  -29.0302  -21.2582   20.3473 N   0  0  0  0  0  0
  -29.8277  -15.9656   20.6077 N   0  0  0  0  0  0
  -28.4825  -22.3386   18.4221 O   0  0  0  0  0  0
  -28.9419  -23.8018   21.6466 O   0  0  0  0  0  0
  -31.6123  -18.7757   17.0401 F   0  0  0  0  0  0
  -31.4713  -12.6029   19.1930 H   0  0  0  0  0  0
  -30.3765  -11.5155   19.9954 H   0  0  0  0  0  0
  -29.8091  -11.7253   17.5482 H   0  0  0  0  0  0
  -29.6306  -13.4537   17.7208 H   0  0  0  0  0  0
  -27.9103  -11.2764   18.9419 H   0  0  0  0  0  0
  -27.3822  -12.4907   17.8082 H   0  0  0  0  0  0
  -27.6220  -14.2502   19.4464 H   0  0  0  0  0  0
  -28.7223  -12.2151   21.4471 H   0  0  0  0  0  0
  -28.3989  -13.9000   21.7792 H   0  0  0  0  0  0
  -25.2758   -9.5697   22.4757 H   0  0  0  0  0  0
  -24.0005   -7.4639   22.7476 H   0  0  0  0  0  0
  -21.0843   -8.8751   19.8960 H   0  0  0  0  0  0
  -22.3669  -10.9667   19.6162 H   0  0  0  0  0  0
  -21.2001   -7.6146   23.9711 H   0  0  0  0  0  0
  -21.1489   -6.0527   25.9078 H   0  0  0  0  0  0
  -22.0595   -2.7604   23.2847 H   0  0  0  0  0  0
  -22.4078  -11.9870   22.4825 H   0  0  0  0  0  0
  -21.1061  -13.1227   22.2652 H   0  0  0  0  0  0
  -24.6478  -15.8458   20.5185 H   0  0  0  0  0  0
  -26.2613  -15.6335   20.0688 H   0  0  0  0  0  0
  -26.7234  -32.5347   23.1046 H   0  0  0  0  0  0
  -25.0067  -33.9670   25.0356 H   0  0  0  0  0  0
  -22.7305  -31.2949   21.3874 H   0  0  0  0  0  0
  -23.3739  -35.9619   23.3321 H   0  0  0  0  0  0
  -24.3559  -36.8883   22.2051 H   0  0  0  0  0  0
  -23.7274  -37.6493   23.6667 H   0  0  0  0  0  0
  -26.1298  -31.5110   20.6116 H   0  0  0  0  0  0
  -26.8561  -30.7953   22.0175 H   0  0  0  0  0  0
  -28.1143  -28.8815   21.2201 H   0  0  0  0  0  0
  -25.9423  -25.8723   19.0117 H   0  0  0  0  0  0
  -23.9702  -27.2965   19.0000 H   0  0  0  0  0  0
  -23.7845  -30.5798   19.3995 H   0  0  0  0  0  0
  -22.7711  -29.2430   19.8449 H   0  0  0  0  0  0
  -25.1305  -36.1878   25.0812 H   0  0  0  0  0  0
  -20.9998  -28.3302   24.1370 H   0  0  0  0  0  0
  -20.5676  -26.2330   23.3636 H   0  0  0  0  0  0
  -21.6653  -26.7433   22.1202 H   0  0  0  0  0  0
  -19.6911  -25.6294   21.1248 H   0  0  0  0  0  0
  -19.6679  -27.3194   20.6758 H   0  0  0  0  0  0
  -17.4206  -26.6692   21.4031 H   0  0  0  0  0  0
  -18.0314  -26.0096   22.9030 H   0  0  0  0  0  0
  -19.7953  -30.7304   24.2209 H   0  0  0  0  0  0
  -17.5028  -31.6254   24.5209 H   0  0  0  0  0  0
  -15.5360  -30.2996   23.7660 H   0  0  0  0  0  0
  -15.8693  -28.0841   22.7053 H   0  0  0  0  0  0
  -24.5894  -30.7111   25.7796 H   0  0  0  0  0  0
  -24.8936  -32.2955   26.4821 H   0  0  0  0  0  0
  -25.8023  -30.8985   27.0252 H   0  0  0  0  0  0
  -26.2979  -29.6697   24.1265 H   0  0  0  0  0  0
  -27.3999  -29.7243   25.4824 H   0  0  0  0  0  0
  -27.8879  -30.4213   23.9566 H   0  0  0  0  0  0
  -27.2624  -33.3648   26.2052 H   0  0  0  0  0  0
  -28.3871  -32.6901   25.0346 H   0  0  0  0  0  0
  -28.0717  -31.8506   26.5450 H   0  0  0  0  0  0
  -28.2603  -38.0070   24.7460 H   0  0  0  0  0  0
  -28.1047  -36.2592   24.6352 H   0  0  0  0  0  0
  -27.2279  -37.1515   25.8873 H   0  0  0  0  0  0
  -20.9426  -29.8785   21.6843 H   0  0  0  0  0  0
  -26.0155  -38.2821   24.1380 H   0  0  0  0  0  0
  -28.8090  -18.5656   21.4391 H   0  0  0  0  0  0
  -30.4709  -20.8086   18.1217 H   0  0  0  0  0  0
  -31.2021  -16.6255   18.3817 H   0  0  0  0  0  0
  -28.0174  -24.9774   18.6644 H   0  0  0  0  0  0
  -29.0035  -21.3847   21.3503 H   0  0  0  0  0  0
  -28.9424  -15.7963   21.0613 H   0  0  0  0  0  0
  -28.8605  -24.7058   21.9236 H   0  0  0  0  0  0
  1 25  1  0  0  0
  1 30  2  0  0  0
  1 81  1  0  0  0
  2  3  1  0  0  0
  2 25  1  0  0  0
  2 85  1  0  0  0
  2 86  1  0  0  0
  3  4  1  0  0  0
  3 87  1  0  0  0
  3 88  1  0  0  0
  4  5  1  0  0  0
  4 89  1  0  0  0
  4 90  1  0  0  0
  5  6  1  0  0  0
  5 26  1  0  0  0
  5 91  1  0  0  0
  6 25  1  0  0  0
  6 92  1  0  0  0
  6 93  1  0  0  0
  7  8  2  0  0  0
  7 26  1  0  0  0
  7 29  1  0  0  0
  8  9  1  0  0  0
  8 22  1  0  0  0
  9 10  1  0  0  0
  9 27  2  0  0  0
 10 11  2  0  0  0
 10 15  1  0  0  0
 11 12  1  0  0  0
 11 94  1  0  0  0
 12 13  2  0  0  0
 12 95  1  0  0  0
 13 14  1  0  0  0
 13 31  1  0  0  0
 14 15  2  0  0  0
 14 96  1  0  0  0
 15 97  1  0  0  0
 16 17  2  0  0  0
 16 21  1  0  0  0
 16 31  1  0  0  0
 17 18  1  0  0  0
 17 98  1  0  0  0
 18 19  2  0  0  0
 18 99  1  0  0  0
 19 20  1  0  0  0
 19 24  1  0  0  0
 20 21  2  0  0  0
 20100  1  0  0  0
 21 23  1  0  0  0
 22 28  1  0  0  0
 22 32  2  0  0  0
 26 27  1  0  0  0
 28101  1  0  0  0
 28102  1  0  0  0
 29103  1  0  0  0
 29104  1  0  0  0
 33 34  1  0  0  0
 33 66  1  0  0  0
 33 70  2  0  0  0
 34 36  1  0  0  0
 34 59  1  0  0  0
 34105  1  0  0  0
 35 44  2  0  0  0
 35 45  1  0  0  0
 35 68  1  0  0  0
 36 56  1  0  0  0
 36106  1  0  0  0
 37 39  1  0  0  0
 37 47  1  0  0  0
 37 66  1  0  0  0
 37107  1  0  0  0
 38 43  2  0  0  0
 38 46  1  0  0  0
 38 47  1  0  0  0
 39 64  1  0  0  0
 39 67  2  0  0  0
 40 52  1  0  0  0
 40 53  2  0  0  0
 40 58  1  0  0  0
 41108  1  0  0  0
 41109  1  0  0  0
 41110  1  0  0  0
 41 48  1  0  0  0
 42 43  1  0  0  0
 42 66  1  0  0  0
 42111  1  0  0  0
 42112  1  0  0  0
 43 44  1  0  0  0
 44113  1  0  0  0
 45 46  2  0  0  0
 45114  1  0  0  0
 46115  1  0  0  0
 47116  1  0  0  0
 47117  1  0  0  0
 48 56  1  0  0  0
 48 65  1  0  0  0
 48118  1  0  0  0
 49 50  1  0  0  0
 49 53  1  0  0  0
 49 64  1  0  0  0
 49119  1  0  0  0
 50 51  1  0  0  0
 50120  1  0  0  0
 50121  1  0  0  0
 51 52  1  0  0  0
 51122  1  0  0  0
 51123  1  0  0  0
 52124  1  0  0  0
 52125  1  0  0  0
 53 54  1  0  0  0
 54 55  2  0  0  0
 54126  1  0  0  0
 55 57  1  0  0  0
 55127  1  0  0  0
 56 69  2  0  0  0
 57 58  2  0  0  0
 57128  1  0  0  0
 58129  1  0  0  0
 59 60  1  0  0  0
 59 61  1  0  0  0
 59 62  1  0  0  0
 60130  1  0  0  0
 60131  1  0  0  0
 60132  1  0  0  0
 61133  1  0  0  0
 61134  1  0  0  0
 61135  1  0  0  0
 62136  1  0  0  0
 62137  1  0  0  0
 62138  1  0  0  0
 63 65  1  0  0  0
 63139  1  0  0  0
 63140  1  0  0  0
 63141  1  0  0  0
 64142  1  0  0  0
 65143  1  0  0  0
 68 77  1  0  0  0
 71 74  2  0  0  0
 71 75  1  0  0  0
 71144  1  0  0  0
 72 74  1  0  0  0
 72 76  2  0  0  0
 72145  1  0  0  0
 73 75  2  0  0  0
 73 76  1  0  0  0
 73146  1  0  0  0
 74 80  1  0  0  0
 75 81  1  0  0  0
 76 84  1  0  0  0
 77 78  2  0  0  0
 77147  1  0  0  0
 78 79  1  0  0  0
 78 83  1  0  0  0
 79 80  1  0  0  0
 79 82  2  0  0  0
 80148  1  0  0  0
 81149  1  0  0  0
 83150  1  0  0  0
M  ISO  4   1 100  68 101  77 101  81 100
M  END
> <chiral flag>
0

> <version>
0

> <s_m_source_file>
/data/baiqing/PycharmProjects/Reinvent-master-3.2/result/LINK_invent/BTK/process_docking_weight1_custom_product_contain_oxygen_bond_distance_aromatic_linkinvent_7_9_3/rearranged_h_0071.sdf

> <i_m_source_file_index>
13

> <r_mmod_Potential_Energy-OPLS-2005>
216.617080688477

> <r_mmod_Stretch_Energy-OPLS-2005>
154.33869934082

> <r_mmod_Bend_Energy-OPLS-2005>
168.503341674805

> <r_mmod_Torsional_Energy-OPLS-2005>
239.565368652344

> <r_mmod_Improper_Torsional_Energy-OPLS-2005>
5.22919082641602

> <r_mmod_Van_der_Waal_Energy-OPLS-2005>
142.711944580078

> <r_mmod_Electrostatic_Energy-OPLS-2005>
-380.899383544922

> <r_mmod_Solvation_Energy-OPLS-2005>
-224.927444458008

> <b_mmod_Minimization_Converged-OPLS-2005>
0

> <r_mmod_RMS_Derivative-OPLS-2005>
2.0337073802948

$$$$
13
                    3D
 Structure written by MMmdl.
162171  0  0  1  0            999 V2000
  -30.6115  -14.6254   20.4899 C   0  0  0  0  0  0
  -30.4403  -12.3839   19.4333 C   0  0  0  0  0  0
  -29.5024  -12.4956   18.2106 C   0  0  0  0  0  0
  -28.0266  -12.3303   18.6315 C   0  0  0  0  0  0
  -27.6478  -13.2078   19.8538 C   0  0  2  0  0  0
  -28.6966  -13.0721   20.9806 C   0  0  0  0  0  0
  -25.2544  -13.8151   20.5689 C   0  0  0  0  0  0
  -24.1811  -13.0424   20.9222 C   0  0  0  0  0  0
  -24.6374  -11.6901   20.8753 C   0  0  0  0  0  0
  -23.9043  -10.4287   21.0416 C   0  0  0  0  0  0
  -24.3594   -9.4207   21.9195 C   0  0  0  0  0  0
  -23.6279   -8.2237   22.0750 C   0  0  0  0  0  0
  -22.4263   -8.0275   21.3535 C   0  0  0  0  0  0
  -21.9894   -9.0249   20.4637 C   0  0  0  0  0  0
  -22.7218  -10.2137   20.3061 C   0  0  0  0  0  0
  -21.6856   -6.0731   22.5280 C   0  0  0  0  0  0
  -21.4008   -6.5632   23.8213 C   0  0  0  0  0  0
  -21.3657   -5.6786   24.9179 C   0  0  0  0  0  0
  -21.6055   -4.3049   24.7232 C   0  0  0  0  0  0
  -21.8814   -3.8138   23.4350 C   0  0  0  0  0  0
  -21.9188   -4.6957   22.3407 C   0  0  0  0  0  0
  -22.7838  -13.5232   21.1894 C   0  0  0  0  0  0
  -22.1662   -4.2141   21.0987 F   0  0  0  0  0  0
  -21.5636   -3.4533   25.7744 F   0  0  0  0  0  0
  -30.0069  -13.4042   20.4013 N   0  0  0  0  0  0
  -26.2954  -12.9310   20.3287 N   0  0  0  0  0  0
  -25.9292  -11.6477   20.5746 N   0  0  0  0  0  0
  -22.0463  -12.8212   22.0435 N   0  0  0  0  0  0
  -25.4222  -15.1880   20.4091 N   0  0  0  0  0  0
  -31.8066  -14.7901   20.2293 O   0  0  0  0  0  0
  -21.6632   -6.8872   21.4240 O   0  0  0  0  0  0
  -22.3529  -14.5544   20.6759 O   0  0  0  0  0  0
  -24.6225  -31.8637   23.2033 C   0  0  0  0  0  0
  -25.9099  -32.4793   23.8368 C   0  0  1  0  0  0
  -27.2323  -27.3521   20.1059 C   0  0  0  0  0  0
  -25.5927  -33.8591   24.2306 N   0  0  0  0  0  0
  -23.4152  -30.4872   21.5440 C   0  0  2  0  0  0
  -24.8625  -28.9453   20.1151 C   0  0  0  0  0  0
  -22.7480  -29.4641   22.4944 C   0  0  0  0  0  0
  -18.0285  -28.1361   22.8472 C   0  0  0  0  0  0
  -24.1490  -36.7283   23.2648 C   0  0  0  0  0  0
  -25.9535  -30.8065   21.3681 C   0  0  0  0  0  0
  -26.0298  -29.4349   20.7128 C   0  0  0  0  0  0
  -27.2175  -28.6506   20.6974 C   0  0  0  0  0  0
  -26.0313  -26.9018   19.5086 C   0  0  0  0  0  0
  -24.8634  -27.6828   19.5056 C   0  0  0  0  0  0
  -23.6298  -29.8218   20.1593 C   0  0  0  0  0  0
  -25.4105  -36.3078   24.0342 C   0  0  1  0  0  0
  -20.5891  -28.3670   23.1280 C   0  0  2  0  0  0
  -20.6764  -26.9394   22.5402 C   0  0  0  0  0  0
  -19.5740  -26.6372   21.5203 C   0  0  0  0  0  0
  -18.1923  -26.7898   22.1620 C   0  0  0  0  0  0
  -19.1541  -28.8833   23.2867 C   0  0  0  0  0  0
  -18.9473  -30.1433   23.8893 C   0  0  0  0  0  0
  -17.6476  -30.6573   24.0555 C   0  0  0  0  0  0
  -25.9044  -34.9458   23.5120 C   0  0  0  0  0  0
  -16.5363  -29.9078   23.6320 C   0  0  0  0  0  0
  -16.7277  -28.6487   23.0347 C   0  0  0  0  0  0
  -26.4495  -31.6583   25.0722 C   0  0  0  0  0  0
  -25.3751  -31.3709   26.1469 C   0  0  0  0  0  0
  -27.0341  -30.3020   24.6123 C   0  0  0  0  0  0
  -27.6058  -32.4322   25.7490 C   0  0  0  0  0  0
  -27.5564  -37.1791   24.8473 C   0  0  0  0  0  0
  -21.4201  -29.3035   22.3698 N   0  0  0  0  0  0
  -26.4275  -37.3772   23.9420 N   0  0  0  0  0  0
  -24.6822  -31.0686   22.0957 N   0  0  0  0  0  0
  -23.4220  -28.8196   23.3023 O   0  0  0  0  0  0
  -28.3830  -26.5539   20.1193 O   0  0  0  0  0  0
  -26.5601  -34.8929   22.4683 O   0  0  0  0  0  0
  -23.5398  -32.1441   23.7373 O   0  0  0  0  0  0
  -29.9013  -18.2223   20.4617 C   0  0  0  0  0  0
  -29.5922  -17.0031   22.5442 C   0  0  0  0  0  0
  -29.5922  -19.4650   22.5577 C   0  0  0  0  0  0
  -29.7754  -19.4875   21.1395 C   0  0  0  0  0  0
  -29.8227  -16.9683   21.1558 C   0  0  0  0  0  0
  -29.4742  -18.2244   23.2349 C   0  0  0  0  0  0
  -29.9500  -23.0294   19.9279 C   0  0  0  0  0  0
  -31.2367  -22.4824   19.5648 C   0  0  0  0  0  0
  -29.1671  -21.8890   20.4439 C   0  0  0  0  0  0
  -32.3140  -23.1726   19.1472 C   0  0  0  0  0  0
  -29.5830  -24.3460   19.7680 C   0  0  0  0  0  0
  -31.2310  -20.9943   19.7546 C   0  0  0  0  0  0
  -29.5630  -20.7510   23.3881 C   0  0  0  0  0  0
  -28.2480  -25.0966   19.9658 C   0  0  0  0  0  0
  -29.9586  -20.7545   20.4315 N   0  0  0  0  0  0
  -29.2246  -18.1815   24.6077 N   0  0  0  0  0  0
  -29.7386  -15.6755   20.5087 N   0  0  0  0  0  0
  -27.9951  -21.9264   20.8330 O   0  0  0  0  0  0
  -31.4793  -12.5237   19.1284 H   0  0  0  0  0  0
  -30.3816  -11.3882   19.8772 H   0  0  0  0  0  0
  -29.7623  -11.7424   17.4659 H   0  0  0  0  0  0
  -29.6407  -13.4628   17.7241 H   0  0  0  0  0  0
  -27.8720  -11.2786   18.8748 H   0  0  0  0  0  0
  -27.3654  -12.5474   17.7921 H   0  0  0  0  0  0
  -27.6545  -14.2378   19.5001 H   0  0  0  0  0  0
  -28.7082  -12.0562   21.3785 H   0  0  0  0  0  0
  -28.4542  -13.7240   21.8223 H   0  0  0  0  0  0
  -25.2740   -9.5696   22.4774 H   0  0  0  0  0  0
  -23.9997   -7.4624   22.7452 H   0  0  0  0  0  0
  -21.0833   -8.8764   19.8928 H   0  0  0  0  0  0
  -22.3673  -10.9680   19.6169 H   0  0  0  0  0  0
  -21.1989   -7.6139   23.9719 H   0  0  0  0  0  0
  -21.1492   -6.0516   25.9085 H   0  0  0  0  0  0
  -22.0590   -2.7600   23.2856 H   0  0  0  0  0  0
  -22.4046  -11.9873   22.4842 H   0  0  0  0  0  0
  -21.1075  -13.1229   22.2613 H   0  0  0  0  0  0
  -24.6497  -15.8348   20.5277 H   0  0  0  0  0  0
  -26.2611  -15.6372   20.0663 H   0  0  0  0  0  0
  -26.7185  -32.5494   23.1134 H   0  0  0  0  0  0
  -25.0077  -33.9735   25.0452 H   0  0  0  0  0  0
  -22.7057  -31.3038   21.3974 H   0  0  0  0  0  0
  -23.3745  -35.9623   23.3315 H   0  0  0  0  0  0
  -24.3590  -36.8890   22.2061 H   0  0  0  0  0  0
  -23.7256  -37.6496   23.6665 H   0  0  0  0  0  0
  -26.0766  -31.5696   20.6006 H   0  0  0  0  0  0
  -26.8369  -30.8595   21.9924 H   0  0  0  0  0  0
  -28.1188  -29.0278   21.1618 H   0  0  0  0  0  0
  -25.9532  -25.9386   19.0342 H   0  0  0  0  0  0
  -23.9676  -27.2956   19.0405 H   0  0  0  0  0  0
  -23.7533  -30.5967   19.4008 H   0  0  0  0  0  0
  -22.7504  -29.2505   19.8550 H   0  0  0  0  0  0
  -25.1278  -36.1918   25.0829 H   0  0  0  0  0  0
  -20.9965  -28.3227   24.1407 H   0  0  0  0  0  0
  -20.5637  -26.2303   23.3618 H   0  0  0  0  0  0
  -21.6639  -26.7406   22.1217 H   0  0  0  0  0  0
  -19.6905  -25.6289   21.1222 H   0  0  0  0  0  0
  -19.6651  -27.3197   20.6740 H   0  0  0  0  0  0
  -17.4195  -26.6659   21.4018 H   0  0  0  0  0  0
  -18.0305  -26.0032   22.9007 H   0  0  0  0  0  0
  -19.7962  -30.7223   24.2272 H   0  0  0  0  0  0
  -17.5053  -31.6262   24.5152 H   0  0  0  0  0  0
  -15.5366  -30.2983   23.7651 H   0  0  0  0  0  0
  -15.8680  -28.0815   22.7049 H   0  0  0  0  0  0
  -24.5942  -30.7014   25.7842 H   0  0  0  0  0  0
  -24.8919  -32.2871   26.4880 H   0  0  0  0  0  0
  -25.8111  -30.8940   27.0260 H   0  0  0  0  0  0
  -26.2900  -29.6757   24.1189 H   0  0  0  0  0  0
  -27.4129  -29.7264   25.4582 H   0  0  0  0  0  0
  -27.8732  -30.4335   23.9289 H   0  0  0  0  0  0
  -27.2670  -33.3640   26.2034 H   0  0  0  0  0  0
  -28.3888  -32.6849   25.0325 H   0  0  0  0  0  0
  -28.0715  -31.8473   26.5437 H   0  0  0  0  0  0
  -28.2582  -38.0082   24.7495 H   0  0  0  0  0  0
  -28.1050  -36.2610   24.6314 H   0  0  0  0  0  0
  -27.2292  -37.1468   25.8880 H   0  0  0  0  0  0
  -20.9389  -29.8830   21.6966 H   0  0  0  0  0  0
  -26.0147  -38.2840   24.1424 H   0  0  0  0  0  0
  -30.0429  -18.2166   19.3889 H   0  0  0  0  0  0
  -29.4730  -16.0727   23.0811 H   0  0  0  0  0  0
  -32.3156  -24.2461   19.0341 H   0  0  0  0  0  0
  -33.2355  -22.6592   18.9103 H   0  0  0  0  0  0
  -30.3237  -25.0020   19.3413 H   0  0  0  0  0  0
  -32.0790  -20.6698   20.3602 H   0  0  0  0  0  0
  -31.2597  -20.4835   18.7909 H   0  0  0  0  0  0
  -30.1510  -21.5531   22.9485 H   0  0  0  0  0  0
  -29.9932  -20.6024   24.3782 H   0  0  0  0  0  0
  -28.5382  -21.1006   23.5155 H   0  0  0  0  0  0
  -27.7120  -24.8824   19.0436 H   0  0  0  0  0  0
  -27.6787  -24.6706   20.7929 H   0  0  0  0  0  0
  -29.4300  -17.3336   25.1262 H   0  0  0  0  0  0
  -29.3414  -19.0262   25.1566 H   0  0  0  0  0  0
  -28.7900  -15.3522   20.4015 H   0  0  0  0  0  0
  1 25  1  0  0  0
  1 30  2  0  0  0
  1 87  1  0  0  0
  2  3  1  0  0  0
  2 25  1  0  0  0
  2 89  1  0  0  0
  2 90  1  0  0  0
  3  4  1  0  0  0
  3 91  1  0  0  0
  3 92  1  0  0  0
  4  5  1  0  0  0
  4 93  1  0  0  0
  4 94  1  0  0  0
  5  6  1  0  0  0
  5 26  1  0  0  0
  5 95  1  0  0  0
  6 25  1  0  0  0
  6 96  1  0  0  0
  6 97  1  0  0  0
  7  8  2  0  0  0
  7 26  1  0  0  0
  7 29  1  0  0  0
  8  9  1  0  0  0
  8 22  1  0  0  0
  9 10  1  0  0  0
  9 27  2  0  0  0
 10 11  2  0  0  0
 10 15  1  0  0  0
 11 12  1  0  0  0
 11 98  1  0  0  0
 12 13  2  0  0  0
 12 99  1  0  0  0
 13 14  1  0  0  0
 13 31  1  0  0  0
 14 15  2  0  0  0
 14100  1  0  0  0
 15101  1  0  0  0
 16 17  2  0  0  0
 16 21  1  0  0  0
 16 31  1  0  0  0
 17 18  1  0  0  0
 17102  1  0  0  0
 18 19  2  0  0  0
 18103  1  0  0  0
 19 20  1  0  0  0
 19 24  1  0  0  0
 20 21  2  0  0  0
 20104  1  0  0  0
 21 23  1  0  0  0
 22 28  1  0  0  0
 22 32  2  0  0  0
 26 27  1  0  0  0
 28105  1  0  0  0
 28106  1  0  0  0
 29107  1  0  0  0
 29108  1  0  0  0
 33 34  1  0  0  0
 33 66  1  0  0  0
 33 70  2  0  0  0
 34 36  1  0  0  0
 34 59  1  0  0  0
 34109  1  0  0  0
 35 44  2  0  0  0
 35 45  1  0  0  0
 35 68  1  0  0  0
 36 56  1  0  0  0
 36110  1  0  0  0
 37 39  1  0  0  0
 37 47  1  0  0  0
 37 66  1  0  0  0
 37111  1  0  0  0
 38 43  2  0  0  0
 38 46  1  0  0  0
 38 47  1  0  0  0
 39 64  1  0  0  0
 39 67  2  0  0  0
 40 52  1  0  0  0
 40 53  2  0  0  0
 40 58  1  0  0  0
 41112  1  0  0  0
 41113  1  0  0  0
 41114  1  0  0  0
 41 48  1  0  0  0
 42 43  1  0  0  0
 42 66  1  0  0  0
 42115  1  0  0  0
 42116  1  0  0  0
 43 44  1  0  0  0
 44117  1  0  0  0
 45 46  2  0  0  0
 45118  1  0  0  0
 46119  1  0  0  0
 47120  1  0  0  0
 47121  1  0  0  0
 48 56  1  0  0  0
 48 65  1  0  0  0
 48122  1  0  0  0
 49 50  1  0  0  0
 49 53  1  0  0  0
 49 64  1  0  0  0
 49123  1  0  0  0
 50 51  1  0  0  0
 50124  1  0  0  0
 50125  1  0  0  0
 51 52  1  0  0  0
 51126  1  0  0  0
 51127  1  0  0  0
 52128  1  0  0  0
 52129  1  0  0  0
 53 54  1  0  0  0
 54 55  2  0  0  0
 54130  1  0  0  0
 55 57  1  0  0  0
 55131  1  0  0  0
 56 69  2  0  0  0
 57 58  2  0  0  0
 57132  1  0  0  0
 58133  1  0  0  0
 59 60  1  0  0  0
 59 61  1  0  0  0
 59 62  1  0  0  0
 60134  1  0  0  0
 60135  1  0  0  0
 60136  1  0  0  0
 61137  1  0  0  0
 61138  1  0  0  0
 61139  1  0  0  0
 62140  1  0  0  0
 62141  1  0  0  0
 62142  1  0  0  0
 63 65  1  0  0  0
 63143  1  0  0  0
 63144  1  0  0  0
 63145  1  0  0  0
 64146  1  0  0  0
 65147  1  0  0  0
 68 84  1  0  0  0
 71 74  2  0  0  0
 71 75  1  0  0  0
 71148  1  0  0  0
 72 75  2  0  0  0
 72 76  1  0  0  0
 72149  1  0  0  0
 73 74  1  0  0  0
 73 76  2  0  0  0
 73 83  1  0  0  0
 74 85  1  0  0  0
 75 87  1  0  0  0
 76 86  1  0  0  0
 77 78  1  0  0  0
 77 79  1  0  0  0
 77 81  2  0  0  0
 78 80  2  0  0  0
 78 82  1  0  0  0
 79 85  1  0  0  0
 79 88  2  0  0  0
 80150  1  0  0  0
 80151  1  0  0  0
 81 84  1  0  0  0
 81152  1  0  0  0
 82 85  1  0  0  0
 82153  1  0  0  0
 82154  1  0  0  0
 83155  1  0  0  0
 83156  1  0  0  0
 83157  1  0  0  0
 84158  1  0  0  0
 84159  1  0  0  0
 86160  1  0  0  0
 86161  1  0  0  0
 87162  1  0  0  0
M  ISO  4   1 100  68 101  84 101  87 100
M  END
> <chiral flag>
0

> <version>
0

> <s_m_source_file>
/data/baiqing/PycharmProjects/Reinvent-master-3.2/result/LINK_invent/BTK/process_docking_weight1_custom_product_contain_oxygen_bond_distance_aromatic_linkinvent_7_9_3/rearranged_h_0071.sdf

> <i_m_source_file_index>
14

> <r_mmod_Potential_Energy-OPLS-2005>
205.820449829102

> <r_mmod_Stretch_Energy-OPLS-2005>
71.0519409179688

> <r_mmod_Bend_Energy-OPLS-2005>
185.841201782227

> <r_mmod_Torsional_Energy-OPLS-2005>
324.325988769531

> <r_mmod_Improper_Torsional_Energy-OPLS-2005>
16.2205333709717

> <r_mmod_Van_der_Waal_Energy-OPLS-2005>
148.751312255859

> <r_mmod_Electrostatic_Energy-OPLS-2005>
-356.517181396484

> <r_mmod_Solvation_Energy-OPLS-2005>
-226.203170776367

> <b_mmod_Minimization_Converged-OPLS-2005>
0

> <r_mmod_RMS_Derivative-OPLS-2005>
2.3479688167572

$$$$
14
                    3D
 Structure written by MMmdl.
167176  0  0  1  0            999 V2000
  -30.6276  -14.7077   20.4736 C   0  0  0  0  0  0
  -30.4445  -12.4328   19.4602 C   0  0  0  0  0  0
  -29.5142  -12.5122   18.2294 C   0  0  0  0  0  0
  -28.0403  -12.3290   18.6430 C   0  0  0  0  0  0
  -27.6487  -13.2102   19.8563 C   0  0  2  0  0  0
  -28.7010  -13.1259   20.9876 C   0  0  0  0  0  0
  -25.2449  -13.7979   20.5629 C   0  0  0  0  0  0
  -24.1790  -13.0288   20.9274 C   0  0  0  0  0  0
  -24.6412  -11.6793   20.8804 C   0  0  0  0  0  0
  -23.9077  -10.4204   21.0433 C   0  0  0  0  0  0
  -24.3618   -9.4128   21.9210 C   0  0  0  0  0  0
  -23.6274   -8.2183   22.0760 C   0  0  0  0  0  0
  -22.4263   -8.0242   21.3547 C   0  0  0  0  0  0
  -21.9908   -9.0219   20.4650 C   0  0  0  0  0  0
  -22.7252  -10.2086   20.3068 C   0  0  0  0  0  0
  -21.6834   -6.0718   22.5281 C   0  0  0  0  0  0
  -21.3997   -6.5628   23.8213 C   0  0  0  0  0  0
  -21.3654   -5.6782   24.9176 C   0  0  0  0  0  0
  -21.6044   -4.3047   24.7225 C   0  0  0  0  0  0
  -21.8822   -3.8138   23.4346 C   0  0  0  0  0  0
  -21.9189   -4.6952   22.3405 C   0  0  0  0  0  0
  -22.7824  -13.5128   21.1889 C   0  0  0  0  0  0
  -22.1660   -4.2143   21.0984 F   0  0  0  0  0  0
  -21.5635   -3.4534   25.7737 F   0  0  0  0  0  0
  -30.0113  -13.4774   20.4127 N   0  0  0  0  0  0
  -26.2957  -12.9241   20.3292 N   0  0  0  0  0  0
  -25.9346  -11.6410   20.5795 N   0  0  0  0  0  0
  -22.0437  -12.8157   22.0438 N   0  0  0  0  0  0
  -25.3818  -15.1621   20.3729 N   0  0  0  0  0  0
  -31.8056  -14.8423   20.1313 O   0  0  0  0  0  0
  -21.6612   -6.8855   21.4243 O   0  0  0  0  0  0
  -22.3564  -14.5455   20.6716 O   0  0  0  0  0  0
  -24.6262  -31.8610   23.2029 C   0  0  0  0  0  0
  -25.9109  -32.4781   23.8360 C   0  0  1  0  0  0
  -27.2443  -27.3247   20.1199 C   0  0  0  0  0  0
  -25.5938  -33.8581   24.2297 N   0  0  0  0  0  0
  -23.4210  -30.4816   21.5448 C   0  0  2  0  0  0
  -24.8751  -28.9348   20.1130 C   0  0  0  0  0  0
  -22.7478  -29.4629   22.4951 C   0  0  0  0  0  0
  -18.0287  -28.1371   22.8498 C   0  0  0  0  0  0
  -24.1489  -36.7281   23.2633 C   0  0  0  0  0  0
  -25.9615  -30.7884   21.3775 C   0  0  0  0  0  0
  -26.0409  -29.4150   20.7239 C   0  0  0  0  0  0
  -27.2258  -28.6191   20.7246 C   0  0  0  0  0  0
  -26.0610  -26.9061   19.4680 C   0  0  0  0  0  0
  -24.8866  -27.6835   19.4769 C   0  0  0  0  0  0
  -23.6390  -29.8114   20.1623 C   0  0  0  0  0  0
  -25.4106  -36.3092   24.0348 C   0  0  1  0  0  0
  -20.5887  -28.3688   23.1285 C   0  0  2  0  0  0
  -20.6782  -26.9404   22.5417 C   0  0  0  0  0  0
  -19.5757  -26.6381   21.5219 C   0  0  0  0  0  0
  -18.1938  -26.7925   22.1626 C   0  0  0  0  0  0
  -19.1537  -28.8844   23.2892 C   0  0  0  0  0  0
  -18.9464  -30.1448   23.8906 C   0  0  0  0  0  0
  -17.6463  -30.6583   24.0559 C   0  0  0  0  0  0
  -25.9049  -34.9461   23.5120 C   0  0  0  0  0  0
  -16.5357  -29.9080   23.6324 C   0  0  0  0  0  0
  -16.7271  -28.6490   23.0366 C   0  0  0  0  0  0
  -26.4500  -31.6577   25.0719 C   0  0  0  0  0  0
  -25.3731  -31.3696   26.1436 C   0  0  0  0  0  0
  -27.0351  -30.3012   24.6157 C   0  0  0  0  0  0
  -27.6070  -32.4296   25.7481 C   0  0  0  0  0  0
  -27.5589  -37.1778   24.8445 C   0  0  0  0  0  0
  -21.4193  -29.3047   22.3682 N   0  0  0  0  0  0
  -26.4274  -37.3795   23.9440 N   0  0  0  0  0  0
  -24.6878  -31.0599   22.0991 N   0  0  0  0  0  0
  -23.4191  -28.8172   23.3048 O   0  0  0  0  0  0
  -28.3577  -26.4636   20.1533 O   0  0  0  0  0  0
  -26.5611  -34.8927   22.4684 O   0  0  0  0  0  0
  -23.5425  -32.1412   23.7349 O   0  0  0  0  0  0
  -31.1363  -19.4475   20.6969 C   0  0  0  0  0  0
  -31.1152  -18.0127   20.7762 C   0  0  0  0  0  0
  -28.8036  -19.4656   20.2037 C   0  0  0  0  0  0
  -28.7746  -18.0381   20.2344 C   0  0  0  0  0  0
  -29.9702  -20.2283   20.4216 C   0  0  0  0  0  0
  -29.9292  -17.2532   20.5616 C   0  0  0  0  0  0
  -29.0107  -24.0236   20.3065 C   0  0  0  0  0  0
  -30.9220  -22.5490   20.0091 C   0  0  0  0  0  0
  -24.3592  -20.1991   20.6710 C   0  0  0  0  0  0
  -28.1372  -25.0858   20.3873 C   0  0  0  0  0  0
  -25.2835  -19.2538   20.4184 C   0  0  0  0  0  0
  -25.5523  -18.8271   19.0477 C   0  0  0  0  0  0
  -30.4784  -24.0232   19.9694 C   0  0  0  0  0  0
  -28.6755  -22.5285   20.5356 C   0  0  0  0  0  0
  -27.0936  -17.7538   17.4916 C   0  0  0  0  0  0
  -27.4561  -17.3613   19.8956 C   0  0  0  0  0  0
  -29.9141  -21.7086   20.3514 N   0  0  0  0  0  0
  -29.8099  -15.7849   20.7386 N   0  0  0  0  0  0
  -26.6426  -18.0341   18.8618 N   0  0  0  0  0  0
  -32.0813  -22.2236   19.7342 O   0  0  0  0  0  0
  -24.8675  -19.2027   18.0895 O   0  0  0  0  0  0
  -31.4847  -12.5594   19.1560 H   0  0  0  0  0  0
  -30.3873  -11.4467   19.9237 H   0  0  0  0  0  0
  -29.7940  -11.7555   17.4958 H   0  0  0  0  0  0
  -29.6404  -13.4757   17.7339 H   0  0  0  0  0  0
  -27.8969  -11.2765   18.8902 H   0  0  0  0  0  0
  -27.3824  -12.5349   17.7978 H   0  0  0  0  0  0
  -27.6469  -14.2293   19.4832 H   0  0  0  0  0  0
  -28.7339  -12.1201   21.4110 H   0  0  0  0  0  0
  -28.4385  -13.7897   21.8136 H   0  0  0  0  0  0
  -25.2758   -9.5597   22.4786 H   0  0  0  0  0  0
  -23.9971   -7.4565   22.7479 H   0  0  0  0  0  0
  -21.0839   -8.8747   19.8949 H   0  0  0  0  0  0
  -22.3727  -10.9634   19.6175 H   0  0  0  0  0  0
  -21.1982   -7.6128   23.9715 H   0  0  0  0  0  0
  -21.1475   -6.0509   25.9081 H   0  0  0  0  0  0
  -22.0609   -2.7599   23.2846 H   0  0  0  0  0  0
  -22.4016  -11.9808   22.4836 H   0  0  0  0  0  0
  -21.1059  -13.1212   22.2626 H   0  0  0  0  0  0
  -24.5193  -15.6952   20.3622 H   0  0  0  0  0  0
  -26.0355  -15.4743   19.6697 H   0  0  0  0  0  0
  -26.7177  -32.5462   23.1103 H   0  0  0  0  0  0
  -25.0119  -33.9733   25.0466 H   0  0  0  0  0  0
  -22.7160  -31.3032   21.3993 H   0  0  0  0  0  0
  -23.3791  -35.9566   23.3240 H   0  0  0  0  0  0
  -24.3599  -36.8948   22.2056 H   0  0  0  0  0  0
  -23.7179  -37.6444   23.6679 H   0  0  0  0  0  0
  -26.0923  -31.5501   20.6081 H   0  0  0  0  0  0
  -26.8416  -30.8410   22.0069 H   0  0  0  0  0  0
  -28.1165  -28.9795   21.2189 H   0  0  0  0  0  0
  -26.0330  -25.9538   18.9585 H   0  0  0  0  0  0
  -23.9968  -27.3122   18.9877 H   0  0  0  0  0  0
  -23.7528  -30.5855   19.4029 H   0  0  0  0  0  0
  -22.7609  -29.2359   19.8624 H   0  0  0  0  0  0
  -25.1276  -36.1942   25.0833 H   0  0  0  0  0  0
  -20.9982  -28.3258   24.1406 H   0  0  0  0  0  0
  -20.5701  -26.2291   23.3619 H   0  0  0  0  0  0
  -21.6651  -26.7458   22.1196 H   0  0  0  0  0  0
  -19.6926  -25.6294   21.1244 H   0  0  0  0  0  0
  -19.6692  -27.3201   20.6763 H   0  0  0  0  0  0
  -17.4216  -26.6701   21.4011 H   0  0  0  0  0  0
  -18.0315  -26.0047   22.8996 H   0  0  0  0  0  0
  -19.7938  -30.7265   24.2285 H   0  0  0  0  0  0
  -17.5015  -31.6269   24.5160 H   0  0  0  0  0  0
  -15.5355  -30.2990   23.7642 H   0  0  0  0  0  0
  -15.8675  -28.0804   22.7095 H   0  0  0  0  0  0
  -24.5932  -30.7019   25.7741 H   0  0  0  0  0  0
  -24.8887  -32.2852   26.4843 H   0  0  0  0  0  0
  -25.8052  -30.8878   27.0216 H   0  0  0  0  0  0
  -26.2925  -29.6744   24.1200 H   0  0  0  0  0  0
  -27.4093  -29.7272   25.4643 H   0  0  0  0  0  0
  -27.8774  -30.4314   23.9358 H   0  0  0  0  0  0
  -27.2716  -33.3614   26.2043 H   0  0  0  0  0  0
  -28.3892  -32.6812   25.0307 H   0  0  0  0  0  0
  -28.0729  -31.8419   26.5404 H   0  0  0  0  0  0
  -28.2540  -38.0146   24.7630 H   0  0  0  0  0  0
  -28.1172  -36.2694   24.6110 H   0  0  0  0  0  0
  -27.2339  -37.1216   25.8850 H   0  0  0  0  0  0
  -20.9384  -29.8734   21.6857 H   0  0  0  0  0  0
  -26.0162  -38.2861   24.1511 H   0  0  0  0  0  0
  -32.0774  -19.9449   20.8819 H   0  0  0  0  0  0
  -32.0314  -17.4978   21.0293 H   0  0  0  0  0  0
  -27.8966  -20.0014   19.9802 H   0  0  0  0  0  0
  -24.1577  -20.5162   21.6840 H   0  0  0  0  0  0
  -23.7913  -20.6740   19.8833 H   0  0  0  0  0  0
  -27.1124  -24.8903   20.6734 H   0  0  0  0  0  0
  -25.8065  -18.8422   21.2661 H   0  0  0  0  0  0
  -31.0387  -24.6041   20.7019 H   0  0  0  0  0  0
  -30.6468  -24.4471   18.9793 H   0  0  0  0  0  0
  -27.9029  -22.2298   19.8261 H   0  0  0  0  0  0
  -28.2863  -22.3858   21.5444 H   0  0  0  0  0  0
  -26.4207  -17.0469   17.0060 H   0  0  0  0  0  0
  -28.1004  -17.3350   17.4610 H   0  0  0  0  0  0
  -27.1190  -18.6654   16.8915 H   0  0  0  0  0  0
  -26.9236  -17.1746   20.8256 H   0  0  0  0  0  0
  -27.6797  -16.3778   19.4959 H   0  0  0  0  0  0
  -28.8771  -15.4774   20.9635 H   0  0  0  0  0  0
  1 25  1  0  0  0
  1 30  2  0  0  0
  1 88  1  0  0  0
  2  3  1  0  0  0
  2 25  1  0  0  0
  2 92  1  0  0  0
  2 93  1  0  0  0
  3  4  1  0  0  0
  3 94  1  0  0  0
  3 95  1  0  0  0
  4  5  1  0  0  0
  4 96  1  0  0  0
  4 97  1  0  0  0
  5  6  1  0  0  0
  5 26  1  0  0  0
  5 98  1  0  0  0
  6 25  1  0  0  0
  6 99  1  0  0  0
  6100  1  0  0  0
  7  8  2  0  0  0
  7 26  1  0  0  0
  7 29  1  0  0  0
  8  9  1  0  0  0
  8 22  1  0  0  0
  9 10  1  0  0  0
  9 27  2  0  0  0
 10 11  2  0  0  0
 10 15  1  0  0  0
 11 12  1  0  0  0
 11101  1  0  0  0
 12 13  2  0  0  0
 12102  1  0  0  0
 13 14  1  0  0  0
 13 31  1  0  0  0
 14 15  2  0  0  0
 14103  1  0  0  0
 15104  1  0  0  0
 16 17  2  0  0  0
 16 21  1  0  0  0
 16 31  1  0  0  0
 17 18  1  0  0  0
 17105  1  0  0  0
 18 19  2  0  0  0
 18106  1  0  0  0
 19 20  1  0  0  0
 19 24  1  0  0  0
 20 21  2  0  0  0
 20107  1  0  0  0
 21 23  1  0  0  0
 22 28  1  0  0  0
 22 32  2  0  0  0
 26 27  1  0  0  0
 28108  1  0  0  0
 28109  1  0  0  0
 29110  1  0  0  0
 29111  1  0  0  0
 33 34  1  0  0  0
 33 66  1  0  0  0
 33 70  2  0  0  0
 34 36  1  0  0  0
 34 59  1  0  0  0
 34112  1  0  0  0
 35 44  2  0  0  0
 35 45  1  0  0  0
 35 68  1  0  0  0
 36 56  1  0  0  0
 36113  1  0  0  0
 37 39  1  0  0  0
 37 47  1  0  0  0
 37 66  1  0  0  0
 37114  1  0  0  0
 38 43  2  0  0  0
 38 46  1  0  0  0
 38 47  1  0  0  0
 39 64  1  0  0  0
 39 67  2  0  0  0
 40 52  1  0  0  0
 40 53  2  0  0  0
 40 58  1  0  0  0
 41115  1  0  0  0
 41116  1  0  0  0
 41117  1  0  0  0
 41 48  1  0  0  0
 42 43  1  0  0  0
 42 66  1  0  0  0
 42118  1  0  0  0
 42119  1  0  0  0
 43 44  1  0  0  0
 44120  1  0  0  0
 45 46  2  0  0  0
 45121  1  0  0  0
 46122  1  0  0  0
 47123  1  0  0  0
 47124  1  0  0  0
 48 56  1  0  0  0
 48 65  1  0  0  0
 48125  1  0  0  0
 49 50  1  0  0  0
 49 53  1  0  0  0
 49 64  1  0  0  0
 49126  1  0  0  0
 50 51  1  0  0  0
 50127  1  0  0  0
 50128  1  0  0  0
 51 52  1  0  0  0
 51129  1  0  0  0
 51130  1  0  0  0
 52131  1  0  0  0
 52132  1  0  0  0
 53 54  1  0  0  0
 54 55  2  0  0  0
 54133  1  0  0  0
 55 57  1  0  0  0
 55134  1  0  0  0
 56 69  2  0  0  0
 57 58  2  0  0  0
 57135  1  0  0  0
 58136  1  0  0  0
 59 60  1  0  0  0
 59 61  1  0  0  0
 59 62  1  0  0  0
 60137  1  0  0  0
 60138  1  0  0  0
 60139  1  0  0  0
 61140  1  0  0  0
 61141  1  0  0  0
 61142  1  0  0  0
 62143  1  0  0  0
 62144  1  0  0  0
 62145  1  0  0  0
 63 65  1  0  0  0
 63146  1  0  0  0
 63147  1  0  0  0
 63148  1  0  0  0
 64149  1  0  0  0
 65150  1  0  0  0
 68 80  1  0  0  0
 71 72  2  0  0  0
 71 75  1  0  0  0
 71151  1  0  0  0
 72 76  1  0  0  0
 72152  1  0  0  0
 73 74  1  0  0  0
 73 75  2  0  0  0
 73153  1  0  0  0
 74 76  2  0  0  0
 74 86  1  0  0  0
 75 87  1  0  0  0
 76 88  1  0  0  0
 77 80  2  0  0  0
 77 83  1  0  0  0
 77 84  1  0  0  0
 78 83  1  0  0  0
 78 87  1  0  0  0
 78 90  2  0  0  0
 79 81  2  0  0  0
 79154  1  0  0  0
 79155  1  0  0  0
 80156  1  0  0  0
 81 82  1  0  0  0
 81157  1  0  0  0
 82 89  1  0  0  0
 82 91  2  0  0  0
 83158  1  0  0  0
 83159  1  0  0  0
 84 87  1  0  0  0
 84160  1  0  0  0
 84161  1  0  0  0
 85 89  1  0  0  0
 85162  1  0  0  0
 85163  1  0  0  0
 85164  1  0  0  0
 86 89  1  0  0  0
 86165  1  0  0  0
 86166  1  0  0  0
 88167  1  0  0  0
M  ISO  4   1 100  68 101  80 101  88 100
M  END
> <chiral flag>
0

> <version>
0

> <s_m_source_file>
/data/baiqing/PycharmProjects/Reinvent-master-3.2/result/LINK_invent/BTK/process_docking_weight1_custom_product_contain_oxygen_bond_distance_aromatic_linkinvent_7_9_3/rearranged_h_0071.sdf

> <i_m_source_file_index>
15

> <r_mmod_Potential_Energy-OPLS-2005>
159.936264038086

> <r_mmod_Stretch_Energy-OPLS-2005>
91.1023101806641

> <r_mmod_Bend_Energy-OPLS-2005>
182.151641845703

> <r_mmod_Torsional_Energy-OPLS-2005>
277.391754150391

> <r_mmod_Improper_Torsional_Energy-OPLS-2005>
9.07497882843018

> <r_mmod_Van_der_Waal_Energy-OPLS-2005>
156.644409179688

> <r_mmod_Electrostatic_Energy-OPLS-2005>
-382.751495361328

> <r_mmod_Solvation_Energy-OPLS-2005>
-235.441192626953

> <b_mmod_Minimization_Converged-OPLS-2005>
0

> <r_mmod_RMS_Derivative-OPLS-2005>
1.78518795967102

$$$$
15
                    3D
 Structure written by MMmdl.
158167  0  0  1  0            999 V2000
  -30.6396  -14.7723   20.4646 C   0  0  0  0  0  0
  -30.4256  -12.4798   19.4714 C   0  0  0  0  0  0
  -29.5009  -12.4950   18.2346 C   0  0  0  0  0  0
  -28.0360  -12.2965   18.6673 C   0  0  0  0  0  0
  -27.6264  -13.2414   19.8285 C   0  0  2  0  0  0
  -28.6765  -13.2363   20.9605 C   0  0  0  0  0  0
  -25.2437  -13.8229   20.5645 C   0  0  0  0  0  0
  -24.1788  -13.0425   20.9234 C   0  0  0  0  0  0
  -24.6397  -11.6927   20.8717 C   0  0  0  0  0  0
  -23.9098  -10.4316   21.0426 C   0  0  0  0  0  0
  -24.3654   -9.4246   21.9198 C   0  0  0  0  0  0
  -23.6292   -8.2300   22.0772 C   0  0  0  0  0  0
  -22.4278   -8.0289   21.3562 C   0  0  0  0  0  0
  -21.9927   -9.0297   20.4705 C   0  0  0  0  0  0
  -22.7275  -10.2145   20.3102 C   0  0  0  0  0  0
  -21.6851   -6.0736   22.5286 C   0  0  0  0  0  0
  -21.4009   -6.5656   23.8207 C   0  0  0  0  0  0
  -21.3656   -5.6814   24.9174 C   0  0  0  0  0  0
  -21.6041   -4.3084   24.7243 C   0  0  0  0  0  0
  -21.8803   -3.8171   23.4365 C   0  0  0  0  0  0
  -21.9220   -4.6974   22.3406 C   0  0  0  0  0  0
  -22.7806  -13.5152   21.1899 C   0  0  0  0  0  0
  -22.1682   -4.2145   21.0996 F   0  0  0  0  0  0
  -21.5604   -3.4570   25.7766 F   0  0  0  0  0  0
  -29.9751  -13.5719   20.3580 N   0  0  0  0  0  0
  -26.2871  -12.9448   20.3234 N   0  0  0  0  0  0
  -25.9327  -11.6607   20.5760 N   0  0  0  0  0  0
  -22.0529  -12.8119   22.0502 N   0  0  0  0  0  0
  -25.4129  -15.1926   20.3853 N   0  0  0  0  0  0
  -31.8577  -14.8115   20.2740 O   0  0  0  0  0  0
  -21.6628   -6.8879   21.4247 O   0  0  0  0  0  0
  -22.3503  -14.5482   20.6798 O   0  0  0  0  0  0
  -24.6298  -31.8445   23.1964 C   0  0  0  0  0  0
  -25.9074  -32.4701   23.8344 C   0  0  1  0  0  0
  -27.2399  -27.2439   20.1194 C   0  0  0  0  0  0
  -25.5892  -33.8530   24.2230 N   0  0  0  0  0  0
  -23.4372  -30.4608   21.5346 C   0  0  2  0  0  0
  -24.8987  -28.9080   20.1111 C   0  0  0  0  0  0
  -22.7574  -29.4461   22.4863 C   0  0  0  0  0  0
  -18.0288  -28.1308   22.8512 C   0  0  0  0  0  0
  -24.1529  -36.7299   23.2633 C   0  0  0  0  0  0
  -25.9890  -30.7495   21.3924 C   0  0  0  0  0  0
  -26.0685  -29.3695   20.7318 C   0  0  0  0  0  0
  -27.2419  -28.5501   20.7256 C   0  0  0  0  0  0
  -26.0533  -26.8674   19.4532 C   0  0  0  0  0  0
  -24.8981  -27.6662   19.4623 C   0  0  0  0  0  0
  -23.6684  -29.7902   20.1536 C   0  0  0  0  0  0
  -25.4121  -36.3060   24.0336 C   0  0  1  0  0  0
  -20.5899  -28.3668   23.1321 C   0  0  2  0  0  0
  -20.6797  -26.9369   22.5502 C   0  0  0  0  0  0
  -19.5747  -26.6213   21.5313 C   0  0  0  0  0  0
  -18.1971  -26.7770   22.1840 C   0  0  0  0  0  0
  -19.1544  -28.8809   23.2819 C   0  0  0  0  0  0
  -18.9445  -30.1495   23.8685 C   0  0  0  0  0  0
  -17.6443  -30.6631   24.0349 C   0  0  0  0  0  0
  -25.9030  -34.9409   23.5108 C   0  0  0  0  0  0
  -16.5342  -29.9021   23.6264 C   0  0  0  0  0  0
  -16.7268  -28.6415   23.0417 C   0  0  0  0  0  0
  -26.4471  -31.6558   25.0738 C   0  0  0  0  0  0
  -25.3722  -31.3771   26.1479 C   0  0  0  0  0  0
  -27.0324  -30.2978   24.6262 C   0  0  0  0  0  0
  -27.6042  -32.4293   25.7484 C   0  0  0  0  0  0
  -27.5580  -37.1795   24.8461 C   0  0  0  0  0  0
  -21.4275  -29.3048   22.3768 N   0  0  0  0  0  0
  -26.4307  -37.3739   23.9394 N   0  0  0  0  0  0
  -24.7022  -31.0384   22.0955 N   0  0  0  0  0  0
  -23.4286  -28.7915   23.2877 O   0  0  0  0  0  0
  -28.3244  -26.3344   20.1267 O   0  0  0  0  0  0
  -26.5598  -34.8900   22.4679 O   0  0  0  0  0  0
  -23.5447  -32.1300   23.7156 O   0  0  0  0  0  0
  -30.8085  -19.8840   22.1282 C   0  0  0  0  0  0
  -31.0935  -17.4425   22.0503 C   0  0  0  0  0  0
  -29.7207  -18.5759   20.3954 C   0  0  0  0  0  0
  -31.3600  -18.6907   22.6578 C   0  0  0  0  0  0
  -29.9831  -19.8924   20.9669 C   0  0  0  0  0  0
  -30.2541  -17.3239   20.9248 C   0  0  0  0  0  0
  -29.3567  -22.4590   20.9520 C   0  0  0  0  0  0
  -28.3350  -22.6627   18.8673 C   0  0  0  0  0  0
  -29.1108  -21.3234   18.9997 C   0  0  0  0  0  0
  -28.9436  -23.6017   19.9337 C   0  0  1  0  0  0
  -28.0628  -24.8772   20.4584 C   0  0  0  0  0  0
  -32.2363  -18.7491   23.9081 C   0  0  0  0  0  0
  -29.4892  -21.1931   20.3996 N   0  0  0  0  0  0
  -29.9055  -15.9541   20.4589 N   0  0  0  0  0  0
  -29.5013  -22.7194   22.1491 O   0  0  0  0  0  0
  -33.2348  -19.6135   23.7401 F   0  0  0  0  0  0
  -31.5076  -19.1561   24.9464 F   0  0  0  0  0  0
  -32.7661  -17.5602   24.2103 F   0  0  0  0  0  0
  -31.4691  -12.5894   19.1699 H   0  0  0  0  0  0
  -30.3507  -11.5230   19.9881 H   0  0  0  0  0  0
  -29.7926  -11.7186   17.5270 H   0  0  0  0  0  0
  -29.6007  -13.4396   17.6984 H   0  0  0  0  0  0
  -27.9251  -11.2588   18.9846 H   0  0  0  0  0  0
  -27.3649  -12.4091   17.8193 H   0  0  0  0  0  0
  -27.5906  -14.2397   19.3913 H   0  0  0  0  0  0
  -28.7210  -12.2636   21.4504 H   0  0  0  0  0  0
  -28.4020  -13.9635   21.7319 H   0  0  0  0  0  0
  -25.2800   -9.5721   22.4749 H   0  0  0  0  0  0
  -24.0017   -7.4710   22.7475 H   0  0  0  0  0  0
  -21.0870   -8.8870   19.8973 H   0  0  0  0  0  0
  -22.3790  -10.9701   19.6225 H   0  0  0  0  0  0
  -21.1956   -7.6168   23.9682 H   0  0  0  0  0  0
  -21.1485   -6.0576   25.9048 H   0  0  0  0  0  0
  -22.0560   -2.7631   23.2896 H   0  0  0  0  0  0
  -22.4155  -11.9743   22.4823 H   0  0  0  0  0  0
  -21.1190  -13.1185   22.2837 H   0  0  0  0  0  0
  -24.6309  -15.8380   20.4236 H   0  0  0  0  0  0
  -26.2381  -15.6016   19.9661 H   0  0  0  0  0  0
  -26.7122  -32.5409   23.1086 H   0  0  0  0  0  0
  -25.0155  -33.9746   25.0446 H   0  0  0  0  0  0
  -22.7307  -31.2762   21.3679 H   0  0  0  0  0  0
  -23.3786  -35.9647   23.3290 H   0  0  0  0  0  0
  -24.3641  -36.8891   22.2051 H   0  0  0  0  0  0
  -23.7305  -37.6525   23.6637 H   0  0  0  0  0  0
  -26.1436  -31.5112   20.6267 H   0  0  0  0  0  0
  -26.8629  -30.7934   22.0336 H   0  0  0  0  0  0
  -28.1420  -28.8821   21.2214 H   0  0  0  0  0  0
  -26.0116  -25.9323   18.9120 H   0  0  0  0  0  0
  -24.0115  -27.3163   18.9556 H   0  0  0  0  0  0
  -23.8134  -30.5573   19.3929 H   0  0  0  0  0  0
  -22.7947  -29.2172   19.8374 H   0  0  0  0  0  0
  -25.1299  -36.1914   25.0831 H   0  0  0  0  0  0
  -21.0017  -28.3283   24.1459 H   0  0  0  0  0  0
  -20.5639  -26.2321   23.3738 H   0  0  0  0  0  0
  -21.6708  -26.7288   22.1425 H   0  0  0  0  0  0
  -19.6877  -25.6059   21.1489 H   0  0  0  0  0  0
  -19.6611  -27.2857   20.6738 H   0  0  0  0  0  0
  -17.4095  -26.6168   21.4461 H   0  0  0  0  0  0
  -18.0645  -26.0036   22.9435 H   0  0  0  0  0  0
  -19.7934  -30.7375   24.1915 H   0  0  0  0  0  0
  -17.4992  -31.6405   24.4735 H   0  0  0  0  0  0
  -15.5342  -30.2918   23.7591 H   0  0  0  0  0  0
  -15.8656  -28.0667   22.7326 H   0  0  0  0  0  0
  -24.5874  -30.7110   25.7868 H   0  0  0  0  0  0
  -24.8962  -32.2989   26.4845 H   0  0  0  0  0  0
  -25.8069  -30.9007   27.0272 H   0  0  0  0  0  0
  -26.2948  -29.6700   24.1269 H   0  0  0  0  0  0
  -27.3989  -29.7224   25.4759 H   0  0  0  0  0  0
  -27.8813  -30.4242   23.9550 H   0  0  0  0  0  0
  -27.2655  -33.3562   26.2113 H   0  0  0  0  0  0
  -28.3836  -32.6877   25.0308 H   0  0  0  0  0  0
  -28.0737  -31.8389   26.5346 H   0  0  0  0  0  0
  -28.2585  -38.0093   24.7456 H   0  0  0  0  0  0
  -28.1084  -36.2618   24.6344 H   0  0  0  0  0  0
  -27.2310  -37.1507   25.8869 H   0  0  0  0  0  0
  -20.9413  -29.8923   21.7141 H   0  0  0  0  0  0
  -26.0190  -38.2829   24.1369 H   0  0  0  0  0  0
  -31.0606  -20.8061   22.6300 H   0  0  0  0  0  0
  -31.5155  -16.5513   22.4877 H   0  0  0  0  0  0
  -29.0781  -18.5252   19.5284 H   0  0  0  0  0  0
  -27.2818  -22.4706   19.0914 H   0  0  0  0  0  0
  -28.3916  -23.0438   17.8461 H   0  0  0  0  0  0
  -30.0273  -21.3581   18.4097 H   0  0  0  0  0  0
  -28.5368  -20.4708   18.6437 H   0  0  0  0  0  0
  -29.8696  -23.9957   19.5107 H   0  0  0  0  0  0
  -28.1248  -24.8593   21.5453 H   0  0  0  0  0  0
  -27.0199  -24.6312   20.2676 H   0  0  0  0  0  0
  -28.9479  -15.8476   20.1558 H   0  0  0  0  0  0
  1 25  1  0  0  0
  1 30  2  0  0  0
  1 84  1  0  0  0
  2  3  1  0  0  0
  2 25  1  0  0  0
  2 89  1  0  0  0
  2 90  1  0  0  0
  3  4  1  0  0  0
  3 91  1  0  0  0
  3 92  1  0  0  0
  4  5  1  0  0  0
  4 93  1  0  0  0
  4 94  1  0  0  0
  5  6  1  0  0  0
  5 26  1  0  0  0
  5 95  1  0  0  0
  6 25  1  0  0  0
  6 96  1  0  0  0
  6 97  1  0  0  0
  7  8  2  0  0  0
  7 26  1  0  0  0
  7 29  1  0  0  0
  8  9  1  0  0  0
  8 22  1  0  0  0
  9 10  1  0  0  0
  9 27  2  0  0  0
 10 11  2  0  0  0
 10 15  1  0  0  0
 11 12  1  0  0  0
 11 98  1  0  0  0
 12 13  2  0  0  0
 12 99  1  0  0  0
 13 14  1  0  0  0
 13 31  1  0  0  0
 14 15  2  0  0  0
 14100  1  0  0  0
 15101  1  0  0  0
 16 17  2  0  0  0
 16 21  1  0  0  0
 16 31  1  0  0  0
 17 18  1  0  0  0
 17102  1  0  0  0
 18 19  2  0  0  0
 18103  1  0  0  0
 19 20  1  0  0  0
 19 24  1  0  0  0
 20 21  2  0  0  0
 20104  1  0  0  0
 21 23  1  0  0  0
 22 28  1  0  0  0
 22 32  2  0  0  0
 26 27  1  0  0  0
 28105  1  0  0  0
 28106  1  0  0  0
 29107  1  0  0  0
 29108  1  0  0  0
 33 34  1  0  0  0
 33 66  1  0  0  0
 33 70  2  0  0  0
 34 36  1  0  0  0
 34 59  1  0  0  0
 34109  1  0  0  0
 35 44  2  0  0  0
 35 45  1  0  0  0
 35 68  1  0  0  0
 36 56  1  0  0  0
 36110  1  0  0  0
 37 39  1  0  0  0
 37 47  1  0  0  0
 37 66  1  0  0  0
 37111  1  0  0  0
 38 43  2  0  0  0
 38 46  1  0  0  0
 38 47  1  0  0  0
 39 64  1  0  0  0
 39 67  2  0  0  0
 40 52  1  0  0  0
 40 53  2  0  0  0
 40 58  1  0  0  0
 41112  1  0  0  0
 41113  1  0  0  0
 41114  1  0  0  0
 41 48  1  0  0  0
 42 43  1  0  0  0
 42 66  1  0  0  0
 42115  1  0  0  0
 42116  1  0  0  0
 43 44  1  0  0  0
 44117  1  0  0  0
 45 46  2  0  0  0
 45118  1  0  0  0
 46119  1  0  0  0
 47120  1  0  0  0
 47121  1  0  0  0
 48 56  1  0  0  0
 48 65  1  0  0  0
 48122  1  0  0  0
 49 50  1  0  0  0
 49 53  1  0  0  0
 49 64  1  0  0  0
 49123  1  0  0  0
 50 51  1  0  0  0
 50124  1  0  0  0
 50125  1  0  0  0
 51 52  1  0  0  0
 51126  1  0  0  0
 51127  1  0  0  0
 52128  1  0  0  0
 52129  1  0  0  0
 53 54  1  0  0  0
 54 55  2  0  0  0
 54130  1  0  0  0
 55 57  1  0  0  0
 55131  1  0  0  0
 56 69  2  0  0  0
 57 58  2  0  0  0
 57132  1  0  0  0
 58133  1  0  0  0
 59 60  1  0  0  0
 59 61  1  0  0  0
 59 62  1  0  0  0
 60134  1  0  0  0
 60135  1  0  0  0
 60136  1  0  0  0
 61137  1  0  0  0
 61138  1  0  0  0
 61139  1  0  0  0
 62140  1  0  0  0
 62141  1  0  0  0
 62142  1  0  0  0
 63 65  1  0  0  0
 63143  1  0  0  0
 63144  1  0  0  0
 63145  1  0  0  0
 64146  1  0  0  0
 65147  1  0  0  0
 68 81  1  0  0  0
 71 74  2  0  0  0
 71 75  1  0  0  0
 71148  1  0  0  0
 72 74  1  0  0  0
 72 76  2  0  0  0
 72149  1  0  0  0
 73 75  2  0  0  0
 73 76  1  0  0  0
 73150  1  0  0  0
 74 82  1  0  0  0
 75 83  1  0  0  0
 76 84  1  0  0  0
 77 80  1  0  0  0
 77 83  1  0  0  0
 77 85  2  0  0  0
 78 79  1  0  0  0
 78 80  1  0  0  0
 78151  1  0  0  0
 78152  1  0  0  0
 79 83  1  0  0  0
 79153  1  0  0  0
 79154  1  0  0  0
 80 81  1  0  0  0
 80155  1  0  0  0
 81156  1  0  0  0
 81157  1  0  0  0
 82 86  1  0  0  0
 82 87  1  0  0  0
 82 88  1  0  0  0
 84158  1  0  0  0
M  ISO  4   1 100  68 101  81 101  84 100
M  END
> <chiral flag>
0

> <version>
0

> <s_m_source_file>
/data/baiqing/PycharmProjects/Reinvent-master-3.2/result/LINK_invent/BTK/process_docking_weight1_custom_product_contain_oxygen_bond_distance_aromatic_linkinvent_7_9_3/rearranged_h_0071.sdf

> <i_m_source_file_index>
16

> <r_mmod_Potential_Energy-OPLS-2005>
335.191436767578

> <r_mmod_Stretch_Energy-OPLS-2005>
131.567749023438

> <r_mmod_Bend_Energy-OPLS-2005>
204.101455688477

> <r_mmod_Torsional_Energy-OPLS-2005>
291.573608398438

> <r_mmod_Improper_Torsional_Energy-OPLS-2005>
9.08084201812744

> <r_mmod_Van_der_Waal_Energy-OPLS-2005>
140.690887451172

> <r_mmod_Electrostatic_Energy-OPLS-2005>
-324.912109375

> <r_mmod_Solvation_Energy-OPLS-2005>
-223.286880493164

> <b_mmod_Minimization_Converged-OPLS-2005>
0

> <r_mmod_RMS_Derivative-OPLS-2005>
9.62385272979736

$$$$
16
                    3D
 Structure written by MMmdl.
153161  0  0  1  0            999 V2000
  -30.6793  -14.5127   20.5479 C   0  0  0  0  0  0
  -30.4275  -12.3232   19.4343 C   0  0  0  0  0  0
  -29.5002  -12.5025   18.2133 C   0  0  0  0  0  0
  -28.0209  -12.3591   18.6241 C   0  0  0  0  0  0
  -27.6609  -13.2077   19.8724 C   0  0  2  0  0  0
  -28.7018  -13.0083   20.9978 C   0  0  0  0  0  0
  -25.2596  -13.8160   20.5691 C   0  0  0  0  0  0
  -24.1845  -13.0439   20.9181 C   0  0  0  0  0  0
  -24.6396  -11.6908   20.8730 C   0  0  0  0  0  0
  -23.9057  -10.4297   21.0403 C   0  0  0  0  0  0
  -24.3611   -9.4208   21.9179 C   0  0  0  0  0  0
  -23.6290   -8.2242   22.0751 C   0  0  0  0  0  0
  -22.4272   -8.0277   21.3541 C   0  0  0  0  0  0
  -21.9901   -9.0251   20.4646 C   0  0  0  0  0  0
  -22.7229  -10.2133   20.3054 C   0  0  0  0  0  0
  -21.6850   -6.0734   22.5281 C   0  0  0  0  0  0
  -21.4012   -6.5638   23.8213 C   0  0  0  0  0  0
  -21.3660   -5.6788   24.9172 C   0  0  0  0  0  0
  -21.6047   -4.3051   24.7222 C   0  0  0  0  0  0
  -21.8820   -3.8140   23.4342 C   0  0  0  0  0  0
  -21.9195   -4.6960   22.3402 C   0  0  0  0  0  0
  -22.7869  -13.5241   21.1845 C   0  0  0  0  0  0
  -22.1664   -4.2146   21.0980 F   0  0  0  0  0  0
  -21.5630   -3.4534   25.7734 F   0  0  0  0  0  0
  -30.0314  -13.3182   20.4458 N   0  0  0  0  0  0
  -26.3021  -12.9329   20.3346 N   0  0  0  0  0  0
  -25.9322  -11.6492   20.5756 N   0  0  0  0  0  0
  -22.0495  -12.8244   22.0400 N   0  0  0  0  0  0
  -25.4338  -15.1878   20.4137 N   0  0  0  0  0  0
  -31.8215  -14.6722   20.1088 O   0  0  0  0  0  0
  -21.6634   -6.8875   21.4241 O   0  0  0  0  0  0
  -22.3568  -14.5554   20.6699 O   0  0  0  0  0  0
  -24.6164  -31.8660   23.2076 C   0  0  0  0  0  0
  -25.9049  -32.4811   23.8382 C   0  0  1  0  0  0
  -27.2368  -27.4109   20.0888 C   0  0  0  0  0  0
  -25.5898  -33.8613   24.2313 N   0  0  0  0  0  0
  -23.4049  -30.4891   21.5486 C   0  0  2  0  0  0
  -24.8504  -28.9506   20.1119 C   0  0  0  0  0  0
  -22.7420  -29.4653   22.4983 C   0  0  0  0  0  0
  -18.0268  -28.1379   22.8495 C   0  0  0  0  0  0
  -24.1485  -36.7315   23.2639 C   0  0  0  0  0  0
  -25.9358  -30.8215   21.3650 C   0  0  0  0  0  0
  -26.0102  -29.4534   20.7129 C   0  0  0  0  0  0
  -27.2006  -28.6876   20.7039 C   0  0  0  0  0  0
  -26.0508  -26.9218   19.4942 C   0  0  0  0  0  0
  -24.8667  -27.6846   19.5023 C   0  0  0  0  0  0
  -23.6136  -29.8203   20.1631 C   0  0  0  0  0  0
  -25.4104  -36.3111   24.0338 C   0  0  1  0  0  0
  -20.5861  -28.3671   23.1319 C   0  0  2  0  0  0
  -20.6754  -26.9407   22.5421 C   0  0  0  0  0  0
  -19.5739  -26.6390   21.5218 C   0  0  0  0  0  0
  -18.1916  -26.7923   22.1626 C   0  0  0  0  0  0
  -19.1518  -28.8838   23.2903 C   0  0  0  0  0  0
  -18.9444  -30.1442   23.8913 C   0  0  0  0  0  0
  -17.6449  -30.6586   24.0562 C   0  0  0  0  0  0
  -25.9041  -34.9477   23.5128 C   0  0  0  0  0  0
  -16.5341  -29.9089   23.6322 C   0  0  0  0  0  0
  -16.7257  -28.6501   23.0351 C   0  0  0  0  0  0
  -26.4468  -31.6596   25.0721 C   0  0  0  0  0  0
  -25.3735  -31.3717   26.1478 C   0  0  0  0  0  0
  -27.0282  -30.3028   24.6113 C   0  0  0  0  0  0
  -27.6054  -32.4308   25.7472 C   0  0  0  0  0  0
  -27.5587  -37.1801   24.8455 C   0  0  0  0  0  0
  -21.4145  -29.3034   22.3725 N   0  0  0  0  0  0
  -26.4285  -37.3802   23.9422 N   0  0  0  0  0  0
  -24.6707  -31.0742   22.0986 N   0  0  0  0  0  0
  -23.4187  -28.8201   23.3034 O   0  0  0  0  0  0
  -28.4169  -26.6841   20.1227 O   0  0  0  0  0  0
  -26.5613  -34.8932   22.4697 O   0  0  0  0  0  0
  -23.5354  -32.1426   23.7461 O   0  0  0  0  0  0
  -29.1643  -19.2266   21.3126 C   0  0  0  0  0  0
  -29.0826  -17.8125   21.4202 C   0  0  0  0  0  0
  -31.1904  -17.5935   20.2591 C   0  0  0  0  0  0
  -30.2684  -19.8478   20.6809 C   0  0  0  0  0  0
  -30.0938  -16.9647   20.9007 C   0  0  0  0  0  0
  -31.2781  -19.0007   20.1532 C   0  0  0  0  0  0
  -28.6082  -24.1969   19.7890 C   0  0  0  0  0  0
  -30.4153  -21.3307   20.6095 C   0  0  0  0  0  0
  -28.6495  -25.6051   19.1923 C   0  0  0  0  0  0
  -29.7061  -23.5744   20.0890 N   0  0  0  0  0  0
  -29.9355  -15.5349   21.0379 N   0  0  0  0  0  0
  -29.4161  -22.2122   20.3151 N   0  0  0  0  0  0
  -31.6157  -21.8731   20.8386 N   0  3  0  0  0  0
  -32.3681  -19.5294   19.5422 F   0  0  0  0  0  0
  -31.4716  -12.4230   19.1345 H   0  0  0  0  0  0
  -30.3343  -11.3156   19.8428 H   0  0  0  0  0  0
  -29.7469  -11.7702   17.4434 H   0  0  0  0  0  0
  -29.6632  -13.4837   17.7643 H   0  0  0  0  0  0
  -27.8363  -11.3044   18.8300 H   0  0  0  0  0  0
  -27.3701  -12.6233   17.7899 H   0  0  0  0  0  0
  -27.6991  -14.2523   19.5627 H   0  0  0  0  0  0
  -28.6849  -11.9770   21.3529 H   0  0  0  0  0  0
  -28.4593  -13.6191   21.8684 H   0  0  0  0  0  0
  -25.2762   -9.5686   22.4747 H   0  0  0  0  0  0
  -24.0001   -7.4636   22.7468 H   0  0  0  0  0  0
  -21.0828   -8.8770   19.8960 H   0  0  0  0  0  0
  -22.3685  -10.9667   19.6158 H   0  0  0  0  0  0
  -21.2003   -7.6149   23.9717 H   0  0  0  0  0  0
  -21.1484   -6.0516   25.9078 H   0  0  0  0  0  0
  -22.0600   -2.7605   23.2837 H   0  0  0  0  0  0
  -22.4091  -11.9895   22.4789 H   0  0  0  0  0  0
  -21.1117  -13.1291   22.2609 H   0  0  0  0  0  0
  -24.6675  -15.8425   20.5278 H   0  0  0  0  0  0
  -26.2824  -15.6254   20.0782 H   0  0  0  0  0  0
  -26.7115  -32.5508   23.1139 H   0  0  0  0  0  0
  -25.0022  -33.9765   25.0441 H   0  0  0  0  0  0
  -22.6945  -31.3068   21.4090 H   0  0  0  0  0  0
  -23.3746  -35.9648   23.3294 H   0  0  0  0  0  0
  -24.3583  -36.8937   22.2055 H   0  0  0  0  0  0
  -23.7233  -37.6519   23.6649 H   0  0  0  0  0  0
  -26.0511  -31.5859   20.5954 H   0  0  0  0  0  0
  -26.8229  -30.8750   21.9844 H   0  0  0  0  0  0
  -28.0959  -29.0732   21.1715 H   0  0  0  0  0  0
  -26.0111  -25.9444   19.0366 H   0  0  0  0  0  0
  -23.9725  -27.2882   19.0415 H   0  0  0  0  0  0
  -23.7214  -30.5947   19.4026 H   0  0  0  0  0  0
  -22.7367  -29.2411   19.8684 H   0  0  0  0  0  0
  -25.1277  -36.1971   25.0830 H   0  0  0  0  0  0
  -20.9952  -28.3230   24.1441 H   0  0  0  0  0  0
  -20.5656  -26.2285   23.3610 H   0  0  0  0  0  0
  -21.6623  -26.7448   22.1212 H   0  0  0  0  0  0
  -19.6897  -25.6303   21.1241 H   0  0  0  0  0  0
  -19.6681  -27.3211   20.6755 H   0  0  0  0  0  0
  -17.4195  -26.6677   21.4019 H   0  0  0  0  0  0
  -18.0315  -26.0058   22.9016 H   0  0  0  0  0  0
  -19.7924  -30.7246   24.2296 H   0  0  0  0  0  0
  -17.5009  -31.6268   24.5160 H   0  0  0  0  0  0
  -15.5341  -30.2998   23.7637 H   0  0  0  0  0  0
  -15.8655  -28.0829   22.7062 H   0  0  0  0  0  0
  -24.5892  -30.7080   25.7815 H   0  0  0  0  0  0
  -24.8948  -32.2881   26.4937 H   0  0  0  0  0  0
  -25.8089  -30.8870   27.0226 H   0  0  0  0  0  0
  -26.2815  -29.6807   24.1162 H   0  0  0  0  0  0
  -27.4027  -29.7255   25.4576 H   0  0  0  0  0  0
  -27.8671  -30.4326   23.9272 H   0  0  0  0  0  0
  -27.2681  -33.3599   26.2076 H   0  0  0  0  0  0
  -28.3842  -32.6880   25.0281 H   0  0  0  0  0  0
  -28.0745  -31.8417   26.5364 H   0  0  0  0  0  0
  -28.2583  -38.0119   24.7541 H   0  0  0  0  0  0
  -28.1102  -36.2657   24.6216 H   0  0  0  0  0  0
  -27.2318  -37.1371   25.8859 H   0  0  0  0  0  0
  -20.9312  -29.8765   21.6952 H   0  0  0  0  0  0
  -26.0177  -38.2877   24.1440 H   0  0  0  0  0  0
  -28.3800  -19.8318   21.7442 H   0  0  0  0  0  0
  -28.2245  -17.3827   21.9180 H   0  0  0  0  0  0
  -32.0000  -17.0232   19.8340 H   0  0  0  0  0  0
  -27.6225  -23.7446   19.9178 H   0  0  0  0  0  0
  -28.0229  -25.6594   18.3029 H   0  0  0  0  0  0
  -29.6559  -25.7779   18.8089 H   0  0  0  0  0  0
  -29.0572  -15.2364   21.4318 H   0  0  0  0  0  0
  -28.4784  -21.8555   20.1581 H   0  0  0  0  0  0
  -32.4343  -21.2883   20.9005 H   0  0  0  0  0  0
  -31.6986  -22.8726   20.7438 H   0  0  0  0  0  0
  1 25  1  0  0  0
  1 30  2  0  0  0
  1 81  1  0  0  0
  2  3  1  0  0  0
  2 25  1  0  0  0
  2 85  1  0  0  0
  2 86  1  0  0  0
  3  4  1  0  0  0
  3 87  1  0  0  0
  3 88  1  0  0  0
  4  5  1  0  0  0
  4 89  1  0  0  0
  4 90  1  0  0  0
  5  6  1  0  0  0
  5 26  1  0  0  0
  5 91  1  0  0  0
  6 25  1  0  0  0
  6 92  1  0  0  0
  6 93  1  0  0  0
  7  8  2  0  0  0
  7 26  1  0  0  0
  7 29  1  0  0  0
  8  9  1  0  0  0
  8 22  1  0  0  0
  9 10  1  0  0  0
  9 27  2  0  0  0
 10 11  2  0  0  0
 10 15  1  0  0  0
 11 12  1  0  0  0
 11 94  1  0  0  0
 12 13  2  0  0  0
 12 95  1  0  0  0
 13 14  1  0  0  0
 13 31  1  0  0  0
 14 15  2  0  0  0
 14 96  1  0  0  0
 15 97  1  0  0  0
 16 17  2  0  0  0
 16 21  1  0  0  0
 16 31  1  0  0  0
 17 18  1  0  0  0
 17 98  1  0  0  0
 18 19  2  0  0  0
 18 99  1  0  0  0
 19 20  1  0  0  0
 19 24  1  0  0  0
 20 21  2  0  0  0
 20100  1  0  0  0
 21 23  1  0  0  0
 22 28  1  0  0  0
 22 32  2  0  0  0
 26 27  1  0  0  0
 28101  1  0  0  0
 28102  1  0  0  0
 29103  1  0  0  0
 29104  1  0  0  0
 33 34  1  0  0  0
 33 66  1  0  0  0
 33 70  2  0  0  0
 34 36  1  0  0  0
 34 59  1  0  0  0
 34105  1  0  0  0
 35 44  2  0  0  0
 35 45  1  0  0  0
 35 68  1  0  0  0
 36 56  1  0  0  0
 36106  1  0  0  0
 37 39  1  0  0  0
 37 47  1  0  0  0
 37 66  1  0  0  0
 37107  1  0  0  0
 38 43  2  0  0  0
 38 46  1  0  0  0
 38 47  1  0  0  0
 39 64  1  0  0  0
 39 67  2  0  0  0
 40 52  1  0  0  0
 40 53  2  0  0  0
 40 58  1  0  0  0
 41108  1  0  0  0
 41109  1  0  0  0
 41110  1  0  0  0
 41 48  1  0  0  0
 42 43  1  0  0  0
 42 66  1  0  0  0
 42111  1  0  0  0
 42112  1  0  0  0
 43 44  1  0  0  0
 44113  1  0  0  0
 45 46  2  0  0  0
 45114  1  0  0  0
 46115  1  0  0  0
 47116  1  0  0  0
 47117  1  0  0  0
 48 56  1  0  0  0
 48 65  1  0  0  0
 48118  1  0  0  0
 49 50  1  0  0  0
 49 53  1  0  0  0
 49 64  1  0  0  0
 49119  1  0  0  0
 50 51  1  0  0  0
 50120  1  0  0  0
 50121  1  0  0  0
 51 52  1  0  0  0
 51122  1  0  0  0
 51123  1  0  0  0
 52124  1  0  0  0
 52125  1  0  0  0
 53 54  1  0  0  0
 54 55  2  0  0  0
 54126  1  0  0  0
 55 57  1  0  0  0
 55127  1  0  0  0
 56 69  2  0  0  0
 57 58  2  0  0  0
 57128  1  0  0  0
 58129  1  0  0  0
 59 60  1  0  0  0
 59 61  1  0  0  0
 59 62  1  0  0  0
 60130  1  0  0  0
 60131  1  0  0  0
 60132  1  0  0  0
 61133  1  0  0  0
 61134  1  0  0  0
 61135  1  0  0  0
 62136  1  0  0  0
 62137  1  0  0  0
 62138  1  0  0  0
 63 65  1  0  0  0
 63139  1  0  0  0
 63140  1  0  0  0
 63141  1  0  0  0
 64142  1  0  0  0
 65143  1  0  0  0
 68 79  1  0  0  0
 71 72  2  0  0  0
 71 74  1  0  0  0
 71144  1  0  0  0
 72 75  1  0  0  0
 72145  1  0  0  0
 73 75  2  0  0  0
 73 76  1  0  0  0
 73146  1  0  0  0
 74 76  2  0  0  0
 74 78  1  0  0  0
 75 81  1  0  0  0
 76 84  1  0  0  0
 77 79  1  0  0  0
 77 80  2  0  0  0
 77147  1  0  0  0
 78 82  1  0  0  0
 78 83  2  0  0  0
 79148  1  0  0  0
 79149  1  0  0  0
 80 82  1  0  0  0
 81150  1  0  0  0
 82151  1  0  0  0
 83152  1  0  0  0
 83153  1  0  0  0
M  CHG  1  83   1
M  ISO  4   1 100  68 101  79 101  81 100
M  END
> <chiral flag>
0

> <version>
0

> <s_m_source_file>
/data/baiqing/PycharmProjects/Reinvent-master-3.2/result/LINK_invent/BTK/process_docking_weight1_custom_product_contain_oxygen_bond_distance_aromatic_linkinvent_7_9_3/rearranged_h_0071.sdf

> <i_m_source_file_index>
17

> <r_mmod_Potential_Energy-OPLS-2005>
-149.558532714844

> <r_mmod_Stretch_Energy-OPLS-2005>
49.1921844482422

> <r_mmod_Bend_Energy-OPLS-2005>
121.21452331543

> <r_mmod_Torsional_Energy-OPLS-2005>
209.621597290039

> <r_mmod_Improper_Torsional_Energy-OPLS-2005>
4.18182134628296

> <r_mmod_Van_der_Waal_Energy-OPLS-2005>
169.111251831055

> <r_mmod_Electrostatic_Energy-OPLS-2005>
-287.919464111328

> <r_mmod_Solvation_Energy-OPLS-2005>
-432.39306640625

> <b_mmod_Minimization_Converged-OPLS-2005>
0

> <r_mmod_RMS_Derivative-OPLS-2005>
1.00539720058441

$$$$
17
                    3D
 Structure written by MMmdl.
161170  0  0  1  0            999 V2000
  -30.6876  -14.5271   20.5392 C   0  0  0  0  0  0
  -30.4213  -12.3329   19.4313 C   0  0  0  0  0  0
  -29.4938  -12.5017   18.2096 C   0  0  0  0  0  0
  -28.0165  -12.3565   18.6242 C   0  0  0  0  0  0
  -27.6555  -13.2123   19.8686 C   0  0  2  0  0  0
  -28.7012  -13.0331   20.9932 C   0  0  0  0  0  0
  -25.2567  -13.8163   20.5689 C   0  0  0  0  0  0
  -24.1822  -13.0437   20.9192 C   0  0  0  0  0  0
  -24.6387  -11.6907   20.8747 C   0  0  0  0  0  0
  -23.9061  -10.4286   21.0409 C   0  0  0  0  0  0
  -24.3615   -9.4203   21.9186 C   0  0  0  0  0  0
  -23.6288   -8.2243   22.0758 C   0  0  0  0  0  0
  -22.4271   -8.0279   21.3547 C   0  0  0  0  0  0
  -21.9903   -9.0251   20.4648 C   0  0  0  0  0  0
  -22.7237  -10.2128   20.3058 C   0  0  0  0  0  0
  -21.6847   -6.0733   22.5280 C   0  0  0  0  0  0
  -21.4007   -6.5641   23.8211 C   0  0  0  0  0  0
  -21.3663   -5.6795   24.9172 C   0  0  0  0  0  0
  -21.6048   -4.3057   24.7224 C   0  0  0  0  0  0
  -21.8820   -3.8146   23.4343 C   0  0  0  0  0  0
  -21.9191   -4.6962   22.3399 C   0  0  0  0  0  0
  -22.7846  -13.5236   21.1859 C   0  0  0  0  0  0
  -22.1658   -4.2148   21.0975 F   0  0  0  0  0  0
  -21.5638   -3.4546   25.7738 F   0  0  0  0  0  0
  -30.0236  -13.3416   20.4277 N   0  0  0  0  0  0
  -26.3000  -12.9344   20.3356 N   0  0  0  0  0  0
  -25.9316  -11.6499   20.5768 N   0  0  0  0  0  0
  -22.0489  -12.8216   22.0405 N   0  0  0  0  0  0
  -25.4281  -15.1878   20.4085 N   0  0  0  0  0  0
  -31.8400  -14.6665   20.1207 O   0  0  0  0  0  0
  -21.6641   -6.8875   21.4243 O   0  0  0  0  0  0
  -22.3533  -14.5554   20.6723 O   0  0  0  0  0  0
  -24.6191  -31.8657   23.2088 C   0  0  0  0  0  0
  -25.9067  -32.4812   23.8393 C   0  0  1  0  0  0
  -27.2305  -27.3995   20.1063 C   0  0  0  0  0  0
  -25.5912  -33.8614   24.2322 N   0  0  0  0  0  0
  -23.4102  -30.4892   21.5492 C   0  0  2  0  0  0
  -24.8597  -28.9578   20.1085 C   0  0  0  0  0  0
  -22.7437  -29.4647   22.4969 C   0  0  0  0  0  0
  -18.0278  -28.1390   22.8501 C   0  0  0  0  0  0
  -24.1483  -36.7300   23.2634 C   0  0  0  0  0  0
  -25.9439  -30.8213   21.3690 C   0  0  0  0  0  0
  -26.0227  -29.4556   20.7117 C   0  0  0  0  0  0
  -27.2148  -28.6842   20.7081 C   0  0  0  0  0  0
  -26.0535  -26.9395   19.4752 C   0  0  0  0  0  0
  -24.8721  -27.7011   19.4831 C   0  0  0  0  0  0
  -23.6210  -29.8250   20.1627 C   0  0  0  0  0  0
  -25.4106  -36.3106   24.0339 C   0  0  1  0  0  0
  -20.5874  -28.3679   23.1304 C   0  0  2  0  0  0
  -20.6769  -26.9409   22.5424 C   0  0  0  0  0  0
  -19.5744  -26.6391   21.5225 C   0  0  0  0  0  0
  -18.1914  -26.7940   22.1623 C   0  0  0  0  0  0
  -19.1532  -28.8852   23.2904 C   0  0  0  0  0  0
  -18.9457  -30.1462   23.8911 C   0  0  0  0  0  0
  -17.6456  -30.6593   24.0577 C   0  0  0  0  0  0
  -25.9040  -34.9472   23.5128 C   0  0  0  0  0  0
  -16.5348  -29.9093   23.6336 C   0  0  0  0  0  0
  -16.7268  -28.6513   23.0352 C   0  0  0  0  0  0
  -26.4477  -31.6604   25.0738 C   0  0  0  0  0  0
  -25.3738  -31.3716   26.1481 C   0  0  0  0  0  0
  -27.0307  -30.3038   24.6143 C   0  0  0  0  0  0
  -27.6054  -32.4323   25.7496 C   0  0  0  0  0  0
  -27.5593  -37.1790   24.8449 C   0  0  0  0  0  0
  -21.4158  -29.3042   22.3704 N   0  0  0  0  0  0
  -26.4279  -37.3806   23.9434 N   0  0  0  0  0  0
  -24.6758  -31.0728   22.1007 N   0  0  0  0  0  0
  -23.4180  -28.8185   23.3030 O   0  0  0  0  0  0
  -28.3292  -26.5532   20.1670 O   0  0  0  0  0  0
  -26.5600  -34.8928   22.4691 O   0  0  0  0  0  0
  -23.5366  -32.1415   23.7458 O   0  0  0  0  0  0
  -31.0270  -19.7110   21.4959 C   0  0  0  0  0  0
  -29.3707  -18.0146   20.9279 C   0  0  0  0  0  0
  -31.6401  -17.3384   21.4687 C   0  0  0  0  0  0
  -35.1812  -19.0853   23.3306 C   0  0  0  0  0  0
  -34.1219  -19.9497   21.5363 C   0  0  0  0  0  0
  -29.7022  -19.3918   21.1241 C   0  0  0  0  0  0
  -31.9838  -18.6899   21.6838 C   0  0  0  0  0  0
  -30.3293  -16.9725   21.0862 C   0  0  0  0  0  0
  -35.2904  -20.0036   22.2472 C   0  0  0  0  0  0
  -33.9495  -18.5050   23.2332 C   0  0  0  0  0  0
  -28.7238  -24.1240   20.4372 C   0  0  0  0  0  0
  -28.0523  -25.2853   20.6729 C   0  0  0  0  0  0
  -28.6226  -20.4639   21.1049 C   0  0  0  0  0  0
  -28.1947  -22.8667   21.0021 C   0  0  0  0  0  0
  -33.2827  -19.0210   22.1313 N   0  0  0  0  0  0
  -29.9411  -15.5881   20.9433 N   0  0  0  0  0  0
  -28.9645  -21.7550   20.8212 N   0  0  0  0  0  0
  -27.4645  -20.0952   21.3352 O   0  0  0  0  0  0
  -27.1108  -22.8336   21.5992 O   0  0  0  0  0  0
  -36.3620  -20.7985   21.9655 O   0  0  0  0  0  0
  -33.3708  -17.5745   24.0426 O   0  0  0  0  0  0
  -31.4665  -12.4297   19.1311 H   0  0  0  0  0  0
  -30.3255  -11.3309   19.8530 H   0  0  0  0  0  0
  -29.7409  -11.7650   17.4445 H   0  0  0  0  0  0
  -29.6522  -13.4800   17.7531 H   0  0  0  0  0  0
  -27.8368  -11.3014   18.8355 H   0  0  0  0  0  0
  -27.3627  -12.6132   17.7894 H   0  0  0  0  0  0
  -27.6846  -14.2537   19.5480 H   0  0  0  0  0  0
  -28.6895  -12.0089   21.3680 H   0  0  0  0  0  0
  -28.4648  -13.6631   21.8524 H   0  0  0  0  0  0
  -25.2757   -9.5680   22.4765 H   0  0  0  0  0  0
  -23.9996   -7.4638   22.7478 H   0  0  0  0  0  0
  -21.0837   -8.8764   19.8954 H   0  0  0  0  0  0
  -22.3695  -10.9668   19.6167 H   0  0  0  0  0  0
  -21.1993   -7.6150   23.9711 H   0  0  0  0  0  0
  -21.1490   -6.0527   25.9072 H   0  0  0  0  0  0
  -22.0599   -2.7611   23.2847 H   0  0  0  0  0  0
  -22.4101  -11.9855   22.4756 H   0  0  0  0  0  0
  -21.1118  -13.1246   22.2650 H   0  0  0  0  0  0
  -24.6603  -15.8412   20.5181 H   0  0  0  0  0  0
  -26.2739  -15.6269   20.0676 H   0  0  0  0  0  0
  -26.7145  -32.5506   23.1155 H   0  0  0  0  0  0
  -25.0090  -33.9788   25.0484 H   0  0  0  0  0  0
  -22.7014  -31.3077   21.4096 H   0  0  0  0  0  0
  -23.3774  -35.9599   23.3241 H   0  0  0  0  0  0
  -24.3593  -36.8974   22.2059 H   0  0  0  0  0  0
  -23.7178  -37.6462   23.6686 H   0  0  0  0  0  0
  -26.0623  -31.5886   20.6028 H   0  0  0  0  0  0
  -26.8285  -30.8727   21.9923 H   0  0  0  0  0  0
  -28.1070  -29.0541   21.1931 H   0  0  0  0  0  0
  -26.0411  -25.9684   19.0007 H   0  0  0  0  0  0
  -23.9803  -27.3139   19.0092 H   0  0  0  0  0  0
  -23.7287  -30.6023   19.4058 H   0  0  0  0  0  0
  -22.7451  -29.2459   19.8643 H   0  0  0  0  0  0
  -25.1278  -36.1956   25.0829 H   0  0  0  0  0  0
  -20.9973  -28.3251   24.1425 H   0  0  0  0  0  0
  -20.5676  -26.2287   23.3622 H   0  0  0  0  0  0
  -21.6641  -26.7446   22.1208 H   0  0  0  0  0  0
  -19.6897  -25.6300   21.1244 H   0  0  0  0  0  0
  -19.6685  -27.3213   20.6765 H   0  0  0  0  0  0
  -17.4198  -26.6727   21.4008 H   0  0  0  0  0  0
  -18.0285  -26.0069   22.8998 H   0  0  0  0  0  0
  -19.7928  -30.7294   24.2269 H   0  0  0  0  0  0
  -17.5000  -31.6271   24.5177 H   0  0  0  0  0  0
  -15.5351  -30.2997   23.7658 H   0  0  0  0  0  0
  -15.8666  -28.0845   22.7049 H   0  0  0  0  0  0
  -24.5930  -30.7038   25.7822 H   0  0  0  0  0  0
  -24.8906  -32.2873   26.4909 H   0  0  0  0  0  0
  -25.8092  -30.8907   27.0252 H   0  0  0  0  0  0
  -26.2864  -29.6799   24.1184 H   0  0  0  0  0  0
  -27.4041  -29.7279   25.4620 H   0  0  0  0  0  0
  -27.8710  -30.4346   23.9321 H   0  0  0  0  0  0
  -27.2688  -33.3636   26.2070 H   0  0  0  0  0  0
  -28.3865  -32.6868   25.0320 H   0  0  0  0  0  0
  -28.0713  -31.8441   26.5413 H   0  0  0  0  0  0
  -28.2556  -38.0149   24.7607 H   0  0  0  0  0  0
  -28.1151  -36.2690   24.6132 H   0  0  0  0  0  0
  -27.2333  -37.1254   25.8855 H   0  0  0  0  0  0
  -20.9313  -29.8771   21.6931 H   0  0  0  0  0  0
  -26.0156  -38.2862   24.1522 H   0  0  0  0  0  0
  -31.3065  -20.7340   21.7052 H   0  0  0  0  0  0
  -28.3507  -17.7558   20.6787 H   0  0  0  0  0  0
  -32.3925  -16.5832   21.6427 H   0  0  0  0  0  0
  -35.9188  -18.8766   24.0945 H   0  0  0  0  0  0
  -33.8058  -20.4851   20.6522 H   0  0  0  0  0  0
  -29.6119  -24.1255   19.8226 H   0  0  0  0  0  0
  -27.1730  -25.3002   21.3065 H   0  0  0  0  0  0
  -28.9686  -15.3795   21.1055 H   0  0  0  0  0  0
  -29.8915  -21.9001   20.4566 H   0  0  0  0  0  0
  -37.0793  -20.7000   22.5869 H   0  0  0  0  0  0
  -33.9829  -17.3763   24.7444 H   0  0  0  0  0  0
  1 25  1  0  0  0
  1 30  2  0  0  0
  1 86  1  0  0  0
  2  3  1  0  0  0
  2 25  1  0  0  0
  2 92  1  0  0  0
  2 93  1  0  0  0
  3  4  1  0  0  0
  3 94  1  0  0  0
  3 95  1  0  0  0
  4  5  1  0  0  0
  4 96  1  0  0  0
  4 97  1  0  0  0
  5  6  1  0  0  0
  5 26  1  0  0  0
  5 98  1  0  0  0
  6 25  1  0  0  0
  6 99  1  0  0  0
  6100  1  0  0  0
  7  8  2  0  0  0
  7 26  1  0  0  0
  7 29  1  0  0  0
  8  9  1  0  0  0
  8 22  1  0  0  0
  9 10  1  0  0  0
  9 27  2  0  0  0
 10 11  2  0  0  0
 10 15  1  0  0  0
 11 12  1  0  0  0
 11101  1  0  0  0
 12 13  2  0  0  0
 12102  1  0  0  0
 13 14  1  0  0  0
 13 31  1  0  0  0
 14 15  2  0  0  0
 14103  1  0  0  0
 15104  1  0  0  0
 16 17  2  0  0  0
 16 21  1  0  0  0
 16 31  1  0  0  0
 17 18  1  0  0  0
 17105  1  0  0  0
 18 19  2  0  0  0
 18106  1  0  0  0
 19 20  1  0  0  0
 19 24  1  0  0  0
 20 21  2  0  0  0
 20107  1  0  0  0
 21 23  1  0  0  0
 22 28  1  0  0  0
 22 32  2  0  0  0
 26 27  1  0  0  0
 28108  1  0  0  0
 28109  1  0  0  0
 29110  1  0  0  0
 29111  1  0  0  0
 33 34  1  0  0  0
 33 66  1  0  0  0
 33 70  2  0  0  0
 34 36  1  0  0  0
 34 59  1  0  0  0
 34112  1  0  0  0
 35 44  2  0  0  0
 35 45  1  0  0  0
 35 68  1  0  0  0
 36 56  1  0  0  0
 36113  1  0  0  0
 37 39  1  0  0  0
 37 47  1  0  0  0
 37 66  1  0  0  0
 37114  1  0  0  0
 38 43  2  0  0  0
 38 46  1  0  0  0
 38 47  1  0  0  0
 39 64  1  0  0  0
 39 67  2  0  0  0
 40 52  1  0  0  0
 40 53  2  0  0  0
 40 58  1  0  0  0
 41115  1  0  0  0
 41116  1  0  0  0
 41117  1  0  0  0
 41 48  1  0  0  0
 42 43  1  0  0  0
 42 66  1  0  0  0
 42118  1  0  0  0
 42119  1  0  0  0
 43 44  1  0  0  0
 44120  1  0  0  0
 45 46  2  0  0  0
 45121  1  0  0  0
 46122  1  0  0  0
 47123  1  0  0  0
 47124  1  0  0  0
 48 56  1  0  0  0
 48 65  1  0  0  0
 48125  1  0  0  0
 49 50  1  0  0  0
 49 53  1  0  0  0
 49 64  1  0  0  0
 49126  1  0  0  0
 50 51  1  0  0  0
 50127  1  0  0  0
 50128  1  0  0  0
 51 52  1  0  0  0
 51129  1  0  0  0
 51130  1  0  0  0
 52131  1  0  0  0
 52132  1  0  0  0
 53 54  1  0  0  0
 54 55  2  0  0  0
 54133  1  0  0  0
 55 57  1  0  0  0
 55134  1  0  0  0
 56 69  2  0  0  0
 57 58  2  0  0  0
 57135  1  0  0  0
 58136  1  0  0  0
 59 60  1  0  0  0
 59 61  1  0  0  0
 59 62  1  0  0  0
 60137  1  0  0  0
 60138  1  0  0  0
 60139  1  0  0  0
 61140  1  0  0  0
 61141  1  0  0  0
 61142  1  0  0  0
 62143  1  0  0  0
 62144  1  0  0  0
 62145  1  0  0  0
 63 65  1  0  0  0
 63146  1  0  0  0
 63147  1  0  0  0
 63148  1  0  0  0
 64149  1  0  0  0
 65150  1  0  0  0
 68 82  1  0  0  0
 71 76  2  0  0  0
 71 77  1  0  0  0
 71151  1  0  0  0
 72 76  1  0  0  0
 72 78  2  0  0  0
 72152  1  0  0  0
 73 77  2  0  0  0
 73 78  1  0  0  0
 73153  1  0  0  0
 74 79  1  0  0  0
 74 80  2  0  0  0
 74154  1  0  0  0
 75 79  2  0  0  0
 75 85  1  0  0  0
 75155  1  0  0  0
 76 83  1  0  0  0
 77 85  1  0  0  0
 78 86  1  0  0  0
 79 90  1  0  0  0
 80 85  1  0  0  0
 80 91  1  0  0  0
 81 82  2  0  0  0
 81 84  1  0  0  0
 81156  1  0  0  0
 82157  1  0  0  0
 83 87  1  0  0  0
 83 88  2  0  0  0
 84 87  1  0  0  0
 84 89  2  0  0  0
 86158  1  0  0  0
 87159  1  0  0  0
 90160  1  0  0  0
 91161  1  0  0  0
M  ISO  4   1 100  68 101  82 101  86 100
M  END
> <chiral flag>
0

> <version>
0

> <s_m_source_file>
/data/baiqing/PycharmProjects/Reinvent-master-3.2/result/LINK_invent/BTK/process_docking_weight1_custom_product_contain_oxygen_bond_distance_aromatic_linkinvent_7_9_3/rearranged_h_0071.sdf

> <i_m_source_file_index>
18

> <r_mmod_Potential_Energy-OPLS-2005>
-224.841339111328

> <r_mmod_Stretch_Energy-OPLS-2005>
50.6537742614746

> <r_mmod_Bend_Energy-OPLS-2005>
107.817741394043

> <r_mmod_Torsional_Energy-OPLS-2005>
244.114776611328

> <r_mmod_Improper_Torsional_Energy-OPLS-2005>
5.66560411453247

> <r_mmod_Van_der_Waal_Energy-OPLS-2005>
164.993362426758

> <r_mmod_Electrostatic_Energy-OPLS-2005>
-513.768432617188

> <r_mmod_Solvation_Energy-OPLS-2005>
-308.978149414062

> <b_mmod_Minimization_Converged-OPLS-2005>
0

> <r_mmod_RMS_Derivative-OPLS-2005>
1.28960371017456

$$$$
18
                    3D
 Structure written by MMmdl.
158167  0  0  1  0            999 V2000
  -30.6396  -14.7723   20.4646 C   0  0  0  0  0  0
  -30.4256  -12.4798   19.4714 C   0  0  0  0  0  0
  -29.5009  -12.4950   18.2346 C   0  0  0  0  0  0
  -28.0360  -12.2965   18.6673 C   0  0  0  0  0  0
  -27.6264  -13.2414   19.8285 C   0  0  2  0  0  0
  -28.6765  -13.2363   20.9605 C   0  0  0  0  0  0
  -25.2437  -13.8229   20.5645 C   0  0  0  0  0  0
  -24.1788  -13.0425   20.9234 C   0  0  0  0  0  0
  -24.6397  -11.6927   20.8717 C   0  0  0  0  0  0
  -23.9098  -10.4316   21.0426 C   0  0  0  0  0  0
  -24.3654   -9.4246   21.9198 C   0  0  0  0  0  0
  -23.6292   -8.2300   22.0772 C   0  0  0  0  0  0
  -22.4278   -8.0289   21.3562 C   0  0  0  0  0  0
  -21.9927   -9.0297   20.4705 C   0  0  0  0  0  0
  -22.7275  -10.2145   20.3102 C   0  0  0  0  0  0
  -21.6851   -6.0736   22.5286 C   0  0  0  0  0  0
  -21.4009   -6.5656   23.8207 C   0  0  0  0  0  0
  -21.3656   -5.6814   24.9174 C   0  0  0  0  0  0
  -21.6041   -4.3084   24.7243 C   0  0  0  0  0  0
  -21.8803   -3.8171   23.4365 C   0  0  0  0  0  0
  -21.9220   -4.6974   22.3406 C   0  0  0  0  0  0
  -22.7806  -13.5152   21.1899 C   0  0  0  0  0  0
  -22.1682   -4.2145   21.0996 F   0  0  0  0  0  0
  -21.5604   -3.4570   25.7766 F   0  0  0  0  0  0
  -29.9751  -13.5719   20.3580 N   0  0  0  0  0  0
  -26.2871  -12.9448   20.3234 N   0  0  0  0  0  0
  -25.9327  -11.6607   20.5760 N   0  0  0  0  0  0
  -22.0529  -12.8119   22.0502 N   0  0  0  0  0  0
  -25.4129  -15.1926   20.3853 N   0  0  0  0  0  0
  -31.8577  -14.8115   20.2740 O   0  0  0  0  0  0
  -21.6628   -6.8879   21.4247 O   0  0  0  0  0  0
  -22.3503  -14.5482   20.6798 O   0  0  0  0  0  0
  -24.6298  -31.8445   23.1964 C   0  0  0  0  0  0
  -25.9074  -32.4701   23.8344 C   0  0  1  0  0  0
  -27.2399  -27.2439   20.1194 C   0  0  0  0  0  0
  -25.5892  -33.8530   24.2230 N   0  0  0  0  0  0
  -23.4372  -30.4608   21.5346 C   0  0  2  0  0  0
  -24.8987  -28.9080   20.1111 C   0  0  0  0  0  0
  -22.7574  -29.4461   22.4863 C   0  0  0  0  0  0
  -18.0288  -28.1308   22.8512 C   0  0  0  0  0  0
  -24.1529  -36.7299   23.2633 C   0  0  0  0  0  0
  -25.9890  -30.7495   21.3924 C   0  0  0  0  0  0
  -26.0685  -29.3695   20.7318 C   0  0  0  0  0  0
  -27.2419  -28.5501   20.7256 C   0  0  0  0  0  0
  -26.0533  -26.8674   19.4532 C   0  0  0  0  0  0
  -24.8981  -27.6662   19.4623 C   0  0  0  0  0  0
  -23.6684  -29.7902   20.1536 C   0  0  0  0  0  0
  -25.4121  -36.3060   24.0336 C   0  0  1  0  0  0
  -20.5899  -28.3668   23.1321 C   0  0  2  0  0  0
  -20.6797  -26.9369   22.5502 C   0  0  0  0  0  0
  -19.5747  -26.6213   21.5313 C   0  0  0  0  0  0
  -18.1971  -26.7770   22.1840 C   0  0  0  0  0  0
  -19.1544  -28.8809   23.2819 C   0  0  0  0  0  0
  -18.9445  -30.1495   23.8685 C   0  0  0  0  0  0
  -17.6443  -30.6631   24.0349 C   0  0  0  0  0  0
  -25.9030  -34.9409   23.5108 C   0  0  0  0  0  0
  -16.5342  -29.9021   23.6264 C   0  0  0  0  0  0
  -16.7268  -28.6415   23.0417 C   0  0  0  0  0  0
  -26.4471  -31.6558   25.0738 C   0  0  0  0  0  0
  -25.3722  -31.3771   26.1479 C   0  0  0  0  0  0
  -27.0324  -30.2978   24.6262 C   0  0  0  0  0  0
  -27.6042  -32.4293   25.7484 C   0  0  0  0  0  0
  -27.5580  -37.1795   24.8461 C   0  0  0  0  0  0
  -21.4275  -29.3048   22.3768 N   0  0  0  0  0  0
  -26.4307  -37.3739   23.9394 N   0  0  0  0  0  0
  -24.7022  -31.0384   22.0955 N   0  0  0  0  0  0
  -23.4286  -28.7915   23.2877 O   0  0  0  0  0  0
  -28.3244  -26.3344   20.1267 O   0  0  0  0  0  0
  -26.5598  -34.8900   22.4679 O   0  0  0  0  0  0
  -23.5447  -32.1300   23.7156 O   0  0  0  0  0  0
  -30.8085  -19.8840   22.1282 C   0  0  0  0  0  0
  -31.0935  -17.4425   22.0503 C   0  0  0  0  0  0
  -29.7207  -18.5759   20.3954 C   0  0  0  0  0  0
  -31.3600  -18.6907   22.6578 C   0  0  0  0  0  0
  -29.9831  -19.8924   20.9669 C   0  0  0  0  0  0
  -30.2541  -17.3239   20.9248 C   0  0  0  0  0  0
  -29.3567  -22.4590   20.9520 C   0  0  0  0  0  0
  -28.3350  -22.6627   18.8673 C   0  0  0  0  0  0
  -29.1108  -21.3234   18.9997 C   0  0  0  0  0  0
  -28.9436  -23.6017   19.9337 C   0  0  1  0  0  0
  -28.0628  -24.8772   20.4584 C   0  0  0  0  0  0
  -32.2363  -18.7491   23.9081 C   0  0  0  0  0  0
  -29.4892  -21.1931   20.3996 N   0  0  0  0  0  0
  -29.9055  -15.9541   20.4589 N   0  0  0  0  0  0
  -29.5013  -22.7194   22.1491 O   0  0  0  0  0  0
  -33.2348  -19.6135   23.7401 F   0  0  0  0  0  0
  -31.5076  -19.1561   24.9464 F   0  0  0  0  0  0
  -32.7661  -17.5602   24.2103 F   0  0  0  0  0  0
  -31.4691  -12.5894   19.1699 H   0  0  0  0  0  0
  -30.3507  -11.5230   19.9881 H   0  0  0  0  0  0
  -29.7926  -11.7186   17.5270 H   0  0  0  0  0  0
  -29.6007  -13.4396   17.6984 H   0  0  0  0  0  0
  -27.9251  -11.2588   18.9846 H   0  0  0  0  0  0
  -27.3649  -12.4091   17.8193 H   0  0  0  0  0  0
  -27.5906  -14.2397   19.3913 H   0  0  0  0  0  0
  -28.7210  -12.2636   21.4504 H   0  0  0  0  0  0
  -28.4020  -13.9635   21.7319 H   0  0  0  0  0  0
  -25.2800   -9.5721   22.4749 H   0  0  0  0  0  0
  -24.0017   -7.4710   22.7475 H   0  0  0  0  0  0
  -21.0870   -8.8870   19.8973 H   0  0  0  0  0  0
  -22.3790  -10.9701   19.6225 H   0  0  0  0  0  0
  -21.1956   -7.6168   23.9682 H   0  0  0  0  0  0
  -21.1485   -6.0576   25.9048 H   0  0  0  0  0  0
  -22.0560   -2.7631   23.2896 H   0  0  0  0  0  0
  -22.4155  -11.9743   22.4823 H   0  0  0  0  0  0
  -21.1190  -13.1185   22.2837 H   0  0  0  0  0  0
  -24.6309  -15.8380   20.4236 H   0  0  0  0  0  0
  -26.2381  -15.6016   19.9661 H   0  0  0  0  0  0
  -26.7122  -32.5409   23.1086 H   0  0  0  0  0  0
  -25.0155  -33.9746   25.0446 H   0  0  0  0  0  0
  -22.7307  -31.2762   21.3679 H   0  0  0  0  0  0
  -23.3786  -35.9647   23.3290 H   0  0  0  0  0  0
  -24.3641  -36.8891   22.2051 H   0  0  0  0  0  0
  -23.7305  -37.6525   23.6637 H   0  0  0  0  0  0
  -26.1436  -31.5112   20.6267 H   0  0  0  0  0  0
  -26.8629  -30.7934   22.0336 H   0  0  0  0  0  0
  -28.1420  -28.8821   21.2214 H   0  0  0  0  0  0
  -26.0116  -25.9323   18.9120 H   0  0  0  0  0  0
  -24.0115  -27.3163   18.9556 H   0  0  0  0  0  0
  -23.8134  -30.5573   19.3929 H   0  0  0  0  0  0
  -22.7947  -29.2172   19.8374 H   0  0  0  0  0  0
  -25.1299  -36.1914   25.0831 H   0  0  0  0  0  0
  -21.0017  -28.3283   24.1459 H   0  0  0  0  0  0
  -20.5639  -26.2321   23.3738 H   0  0  0  0  0  0
  -21.6708  -26.7288   22.1425 H   0  0  0  0  0  0
  -19.6877  -25.6059   21.1489 H   0  0  0  0  0  0
  -19.6611  -27.2857   20.6738 H   0  0  0  0  0  0
  -17.4095  -26.6168   21.4461 H   0  0  0  0  0  0
  -18.0645  -26.0036   22.9435 H   0  0  0  0  0  0
  -19.7934  -30.7375   24.1915 H   0  0  0  0  0  0
  -17.4992  -31.6405   24.4735 H   0  0  0  0  0  0
  -15.5342  -30.2918   23.7591 H   0  0  0  0  0  0
  -15.8656  -28.0667   22.7326 H   0  0  0  0  0  0
  -24.5874  -30.7110   25.7868 H   0  0  0  0  0  0
  -24.8962  -32.2989   26.4845 H   0  0  0  0  0  0
  -25.8069  -30.9007   27.0272 H   0  0  0  0  0  0
  -26.2948  -29.6700   24.1269 H   0  0  0  0  0  0
  -27.3989  -29.7224   25.4759 H   0  0  0  0  0  0
  -27.8813  -30.4242   23.9550 H   0  0  0  0  0  0
  -27.2655  -33.3562   26.2113 H   0  0  0  0  0  0
  -28.3836  -32.6877   25.0308 H   0  0  0  0  0  0
  -28.0737  -31.8389   26.5346 H   0  0  0  0  0  0
  -28.2585  -38.0093   24.7456 H   0  0  0  0  0  0
  -28.1084  -36.2618   24.6344 H   0  0  0  0  0  0
  -27.2310  -37.1507   25.8869 H   0  0  0  0  0  0
  -20.9413  -29.8923   21.7141 H   0  0  0  0  0  0
  -26.0190  -38.2829   24.1369 H   0  0  0  0  0  0
  -31.0606  -20.8061   22.6300 H   0  0  0  0  0  0
  -31.5155  -16.5513   22.4877 H   0  0  0  0  0  0
  -29.0781  -18.5252   19.5284 H   0  0  0  0  0  0
  -27.2818  -22.4706   19.0914 H   0  0  0  0  0  0
  -28.3916  -23.0438   17.8461 H   0  0  0  0  0  0
  -30.0273  -21.3581   18.4097 H   0  0  0  0  0  0
  -28.5368  -20.4708   18.6437 H   0  0  0  0  0  0
  -29.8696  -23.9957   19.5107 H   0  0  0  0  0  0
  -28.1248  -24.8593   21.5453 H   0  0  0  0  0  0
  -27.0199  -24.6312   20.2676 H   0  0  0  0  0  0
  -28.9479  -15.8476   20.1558 H   0  0  0  0  0  0
  1 25  1  0  0  0
  1 30  2  0  0  0
  1 84  1  0  0  0
  2  3  1  0  0  0
  2 25  1  0  0  0
  2 89  1  0  0  0
  2 90  1  0  0  0
  3  4  1  0  0  0
  3 91  1  0  0  0
  3 92  1  0  0  0
  4  5  1  0  0  0
  4 93  1  0  0  0
  4 94  1  0  0  0
  5  6  1  0  0  0
  5 26  1  0  0  0
  5 95  1  0  0  0
  6 25  1  0  0  0
  6 96  1  0  0  0
  6 97  1  0  0  0
  7  8  2  0  0  0
  7 26  1  0  0  0
  7 29  1  0  0  0
  8  9  1  0  0  0
  8 22  1  0  0  0
  9 10  1  0  0  0
  9 27  2  0  0  0
 10 11  2  0  0  0
 10 15  1  0  0  0
 11 12  1  0  0  0
 11 98  1  0  0  0
 12 13  2  0  0  0
 12 99  1  0  0  0
 13 14  1  0  0  0
 13 31  1  0  0  0
 14 15  2  0  0  0
 14100  1  0  0  0
 15101  1  0  0  0
 16 17  2  0  0  0
 16 21  1  0  0  0
 16 31  1  0  0  0
 17 18  1  0  0  0
 17102  1  0  0  0
 18 19  2  0  0  0
 18103  1  0  0  0
 19 20  1  0  0  0
 19 24  1  0  0  0
 20 21  2  0  0  0
 20104  1  0  0  0
 21 23  1  0  0  0
 22 28  1  0  0  0
 22 32  2  0  0  0
 26 27  1  0  0  0
 28105  1  0  0  0
 28106  1  0  0  0
 29107  1  0  0  0
 29108  1  0  0  0
 33 34  1  0  0  0
 33 66  1  0  0  0
 33 70  2  0  0  0
 34 36  1  0  0  0
 34 59  1  0  0  0
 34109  1  0  0  0
 35 44  2  0  0  0
 35 45  1  0  0  0
 35 68  1  0  0  0
 36 56  1  0  0  0
 36110  1  0  0  0
 37 39  1  0  0  0
 37 47  1  0  0  0
 37 66  1  0  0  0
 37111  1  0  0  0
 38 43  2  0  0  0
 38 46  1  0  0  0
 38 47  1  0  0  0
 39 64  1  0  0  0
 39 67  2  0  0  0
 40 52  1  0  0  0
 40 53  2  0  0  0
 40 58  1  0  0  0
 41112  1  0  0  0
 41113  1  0  0  0
 41114  1  0  0  0
 41 48  1  0  0  0
 42 43  1  0  0  0
 42 66  1  0  0  0
 42115  1  0  0  0
 42116  1  0  0  0
 43 44  1  0  0  0
 44117  1  0  0  0
 45 46  2  0  0  0
 45118  1  0  0  0
 46119  1  0  0  0
 47120  1  0  0  0
 47121  1  0  0  0
 48 56  1  0  0  0
 48 65  1  0  0  0
 48122  1  0  0  0
 49 50  1  0  0  0
 49 53  1  0  0  0
 49 64  1  0  0  0
 49123  1  0  0  0
 50 51  1  0  0  0
 50124  1  0  0  0
 50125  1  0  0  0
 51 52  1  0  0  0
 51126  1  0  0  0
 51127  1  0  0  0
 52128  1  0  0  0
 52129  1  0  0  0
 53 54  1  0  0  0
 54 55  2  0  0  0
 54130  1  0  0  0
 55 57  1  0  0  0
 55131  1  0  0  0
 56 69  2  0  0  0
 57 58  2  0  0  0
 57132  1  0  0  0
 58133  1  0  0  0
 59 60  1  0  0  0
 59 61  1  0  0  0
 59 62  1  0  0  0
 60134  1  0  0  0
 60135  1  0  0  0
 60136  1  0  0  0
 61137  1  0  0  0
 61138  1  0  0  0
 61139  1  0  0  0
 62140  1  0  0  0
 62141  1  0  0  0
 62142  1  0  0  0
 63 65  1  0  0  0
 63143  1  0  0  0
 63144  1  0  0  0
 63145  1  0  0  0
 64146  1  0  0  0
 65147  1  0  0  0
 68 81  1  0  0  0
 71 74  2  0  0  0
 71 75  1  0  0  0
 71148  1  0  0  0
 72 74  1  0  0  0
 72 76  2  0  0  0
 72149  1  0  0  0
 73 75  2  0  0  0
 73 76  1  0  0  0
 73150  1  0  0  0
 74 82  1  0  0  0
 75 83  1  0  0  0
 76 84  1  0  0  0
 77 80  1  0  0  0
 77 83  1  0  0  0
 77 85  2  0  0  0
 78 79  1  0  0  0
 78 80  1  0  0  0
 78151  1  0  0  0
 78152  1  0  0  0
 79 83  1  0  0  0
 79153  1  0  0  0
 79154  1  0  0  0
 80 81  1  0  0  0
 80155  1  0  0  0
 81156  1  0  0  0
 81157  1  0  0  0
 82 86  1  0  0  0
 82 87  1  0  0  0
 82 88  1  0  0  0
 84158  1  0  0  0
M  ISO  4   1 100  68 101  81 101  84 100
M  END
> <chiral flag>
0

> <version>
0

> <s_m_source_file>
/data/baiqing/PycharmProjects/Reinvent-master-3.2/result/LINK_invent/BTK/process_docking_weight1_custom_product_contain_oxygen_bond_distance_aromatic_linkinvent_7_9_3/rearranged_h_0071.sdf

> <i_m_source_file_index>
19

> <r_mmod_Potential_Energy-OPLS-2005>
335.191436767578

> <r_mmod_Stretch_Energy-OPLS-2005>
131.567749023438

> <r_mmod_Bend_Energy-OPLS-2005>
204.101455688477

> <r_mmod_Torsional_Energy-OPLS-2005>
291.573608398438

> <r_mmod_Improper_Torsional_Energy-OPLS-2005>
9.08084201812744

> <r_mmod_Van_der_Waal_Energy-OPLS-2005>
140.690887451172

> <r_mmod_Electrostatic_Energy-OPLS-2005>
-324.912109375

> <r_mmod_Solvation_Energy-OPLS-2005>
-223.286880493164

> <b_mmod_Minimization_Converged-OPLS-2005>
0

> <r_mmod_RMS_Derivative-OPLS-2005>
9.62385272979736

$$$$
19
                    3D
 Structure written by MMmdl.
152160  0  0  1  0            999 V2000
  -30.6164  -14.6554   20.4901 C   0  0  0  0  0  0
  -30.4398  -12.4009   19.4540 C   0  0  0  0  0  0
  -29.5083  -12.5066   18.2253 C   0  0  0  0  0  0
  -28.0313  -12.3428   18.6378 C   0  0  0  0  0  0
  -27.6514  -13.2180   19.8620 C   0  0  2  0  0  0
  -28.6975  -13.0819   20.9918 C   0  0  0  0  0  0
  -25.2544  -13.8166   20.5689 C   0  0  0  0  0  0
  -24.1812  -13.0423   20.9167 C   0  0  0  0  0  0
  -24.6392  -11.6900   20.8726 C   0  0  0  0  0  0
  -23.9064  -10.4285   21.0398 C   0  0  0  0  0  0
  -24.3617   -9.4204   21.9179 C   0  0  0  0  0  0
  -23.6290   -8.2242   22.0754 C   0  0  0  0  0  0
  -22.4272   -8.0280   21.3545 C   0  0  0  0  0  0
  -21.9905   -9.0252   20.4647 C   0  0  0  0  0  0
  -22.7235  -10.2129   20.3051 C   0  0  0  0  0  0
  -21.6853   -6.0733   22.5279 C   0  0  0  0  0  0
  -21.4015   -6.5637   23.8213 C   0  0  0  0  0  0
  -21.3659   -5.6790   24.9175 C   0  0  0  0  0  0
  -21.6044   -4.3053   24.7225 C   0  0  0  0  0  0
  -21.8820   -3.8145   23.4346 C   0  0  0  0  0  0
  -21.9193   -4.6961   22.3402 C   0  0  0  0  0  0
  -22.7838  -13.5219   21.1842 C   0  0  0  0  0  0
  -22.1662   -4.2148   21.0979 F   0  0  0  0  0  0
  -21.5628   -3.4537   25.7737 F   0  0  0  0  0  0
  -30.0118  -13.4260   20.4265 N   0  0  0  0  0  0
  -26.2982  -12.9356   20.3326 N   0  0  0  0  0  0
  -25.9324  -11.6506   20.5756 N   0  0  0  0  0  0
  -22.0487  -12.8217   22.0408 N   0  0  0  0  0  0
  -25.4206  -15.1895   20.4178 N   0  0  0  0  0  0
  -31.7849  -14.8123   20.1235 O   0  0  0  0  0  0
  -21.6637   -6.8877   21.4242 O   0  0  0  0  0  0
  -22.3519  -14.5530   20.6702 O   0  0  0  0  0  0
  -24.6259  -31.8595   23.2020 C   0  0  0  0  0  0
  -25.9107  -32.4778   23.8350 C   0  0  1  0  0  0
  -27.2249  -27.3166   20.1243 C   0  0  0  0  0  0
  -25.5922  -33.8578   24.2278 N   0  0  0  0  0  0
  -23.4199  -30.4822   21.5447 C   0  0  2  0  0  0
  -24.8672  -28.9338   20.1141 C   0  0  0  0  0  0
  -22.7473  -29.4622   22.4939 C   0  0  0  0  0  0
  -18.0286  -28.1386   22.8487 C   0  0  0  0  0  0
  -24.1490  -36.7295   23.2640 C   0  0  0  0  0  0
  -25.9606  -30.7895   21.3734 C   0  0  0  0  0  0
  -26.0356  -29.4154   20.7186 C   0  0  0  0  0  0
  -27.2191  -28.6191   20.7118 C   0  0  0  0  0  0
  -26.0380  -26.8900   19.4893 C   0  0  0  0  0  0
  -24.8701  -27.6764   19.4902 C   0  0  0  0  0  0
  -23.6352  -29.8146   20.1610 C   0  0  0  0  0  0
  -25.4115  -36.3084   24.0329 C   0  0  1  0  0  0
  -20.5885  -28.3689   23.1285 C   0  0  2  0  0  0
  -20.6775  -26.9412   22.5411 C   0  0  0  0  0  0
  -19.5751  -26.6385   21.5212 C   0  0  0  0  0  0
  -18.1931  -26.7929   22.1624 C   0  0  0  0  0  0
  -19.1538  -28.8855   23.2881 C   0  0  0  0  0  0
  -18.9461  -30.1457   23.8897 C   0  0  0  0  0  0
  -17.6461  -30.6587   24.0564 C   0  0  0  0  0  0
  -25.9050  -34.9452   23.5105 C   0  0  0  0  0  0
  -16.5352  -29.9085   23.6329 C   0  0  0  0  0  0
  -16.7273  -28.6503   23.0349 C   0  0  0  0  0  0
  -26.4492  -31.6589   25.0721 C   0  0  0  0  0  0
  -25.3727  -31.3727   26.1450 C   0  0  0  0  0  0
  -27.0336  -30.3013   24.6174 C   0  0  0  0  0  0
  -27.6054  -32.4322   25.7488 C   0  0  0  0  0  0
  -27.5579  -37.1804   24.8466 C   0  0  0  0  0  0
  -21.4187  -29.3042   22.3679 N   0  0  0  0  0  0
  -26.4294  -37.3777   23.9406 N   0  0  0  0  0  0
  -24.6876  -31.0606   22.0970 N   0  0  0  0  0  0
  -23.4196  -28.8163   23.3020 O   0  0  0  0  0  0
  -28.3451  -26.4737   20.1387 O   0  0  0  0  0  0
  -26.5620  -34.8918   22.4672 O   0  0  0  0  0  0
  -23.5423  -32.1394   23.7348 O   0  0  0  0  0  0
  -28.6973  -19.3429   20.3677 C   0  0  0  0  0  0
  -31.0989  -17.8876   20.4113 C   0  0  0  0  0  0
  -29.8928  -20.0770   20.1484 C   0  0  0  0  0  0
  -29.8986  -17.1553   20.5923 C   0  0  0  0  0  0
  -28.7048  -17.9290   20.5825 C   0  0  0  0  0  0
  -31.0957  -19.3002   20.1982 C   0  0  0  0  0  0
  -29.9113  -21.5512   19.7457 C   0  0  0  0  0  0
  -29.1507  -24.0284   19.8497 C   0  0  0  0  0  0
  -28.1520  -25.0474   20.5240 C   0  0  0  0  0  0
  -29.7957  -15.7067   20.8027 N   0  0  0  0  0  0
  -29.1262  -22.5848   20.2392 N   0  0  0  0  0  0
  -30.7846  -21.8524   18.7777 N   0  3  0  0  0  0
  -29.9465  -24.4369   18.9922 O   0  0  0  0  0  0
  -27.5245  -17.2867   20.7554 F   0  0  0  0  0  0
  -32.2938  -19.9031   19.9975 F   0  0  0  0  0  0
  -31.4804  -12.5291   19.1508 H   0  0  0  0  0  0
  -30.3788  -11.4072   19.9006 H   0  0  0  0  0  0
  -29.7746  -11.7513   17.4845 H   0  0  0  0  0  0
  -29.6481  -13.4732   17.7389 H   0  0  0  0  0  0
  -27.8711  -11.2903   18.8741 H   0  0  0  0  0  0
  -27.3763  -12.5671   17.7951 H   0  0  0  0  0  0
  -27.6634  -14.2511   19.5143 H   0  0  0  0  0  0
  -28.7117  -12.0624   21.3802 H   0  0  0  0  0  0
  -28.4420  -13.7189   21.8402 H   0  0  0  0  0  0
  -25.2764   -9.5681   22.4749 H   0  0  0  0  0  0
  -24.0000   -7.4634   22.7474 H   0  0  0  0  0  0
  -21.0835   -8.8772   19.8954 H   0  0  0  0  0  0
  -22.3695  -10.9667   19.6159 H   0  0  0  0  0  0
  -21.2008   -7.6146   23.9717 H   0  0  0  0  0  0
  -21.1479   -6.0519   25.9078 H   0  0  0  0  0  0
  -22.0599   -2.7607   23.2847 H   0  0  0  0  0  0
  -22.4101  -11.9876   22.4793 H   0  0  0  0  0  0
  -21.1110  -13.1252   22.2623 H   0  0  0  0  0  0
  -24.6536  -15.8360   20.5620 H   0  0  0  0  0  0
  -26.2862  -15.6629   20.1881 H   0  0  0  0  0  0
  -26.7174  -32.5448   23.1098 H   0  0  0  0  0  0
  -25.0068  -33.9723   25.0422 H   0  0  0  0  0  0
  -22.7138  -31.3026   21.4003 H   0  0  0  0  0  0
  -23.3748  -35.9631   23.3309 H   0  0  0  0  0  0
  -24.3580  -36.8907   22.2053 H   0  0  0  0  0  0
  -23.7247  -37.6501   23.6657 H   0  0  0  0  0  0
  -26.0915  -31.5514   20.6037 H   0  0  0  0  0  0
  -26.8412  -30.8399   22.0021 H   0  0  0  0  0  0
  -28.1174  -28.9858   21.1888 H   0  0  0  0  0  0
  -26.0000  -25.9367   18.9826 H   0  0  0  0  0  0
  -23.9772  -27.3050   19.0063 H   0  0  0  0  0  0
  -23.7547  -30.5895   19.4031 H   0  0  0  0  0  0
  -22.7552  -29.2435   19.8595 H   0  0  0  0  0  0
  -25.1296  -36.1939   25.0822 H   0  0  0  0  0  0
  -20.9978  -28.3264   24.1405 H   0  0  0  0  0  0
  -20.5675  -26.2298   23.3611 H   0  0  0  0  0  0
  -21.6644  -26.7443   22.1205 H   0  0  0  0  0  0
  -19.6912  -25.6295   21.1242 H   0  0  0  0  0  0
  -19.6688  -27.3195   20.6742 H   0  0  0  0  0  0
  -17.4200  -26.6676   21.4027 H   0  0  0  0  0  0
  -18.0331  -26.0071   22.9021 H   0  0  0  0  0  0
  -19.7937  -30.7275   24.2264 H   0  0  0  0  0  0
  -17.5015  -31.6267   24.5167 H   0  0  0  0  0  0
  -15.5353  -30.2986   23.7654 H   0  0  0  0  0  0
  -15.8674  -28.0823   22.7062 H   0  0  0  0  0  0
  -24.5902  -30.7075   25.7781 H   0  0  0  0  0  0
  -24.8917  -32.2892   26.4875 H   0  0  0  0  0  0
  -25.8054  -30.8906   27.0225 H   0  0  0  0  0  0
  -26.2908  -29.6762   24.1203 H   0  0  0  0  0  0
  -27.4041  -29.7272   25.4677 H   0  0  0  0  0  0
  -27.8774  -30.4303   23.9391 H   0  0  0  0  0  0
  -27.2668  -33.3623   26.2066 H   0  0  0  0  0  0
  -28.3861  -32.6882   25.0313 H   0  0  0  0  0  0
  -28.0724  -31.8447   26.5402 H   0  0  0  0  0  0
  -28.2605  -38.0093   24.7504 H   0  0  0  0  0  0
  -28.1067  -36.2625   24.6303 H   0  0  0  0  0  0
  -27.2297  -37.1467   25.8869 H   0  0  0  0  0  0
  -20.9364  -29.8764   21.6890 H   0  0  0  0  0  0
  -26.0178  -38.2855   24.1396 H   0  0  0  0  0  0
  -27.7447  -19.8496   20.3278 H   0  0  0  0  0  0
  -32.0477  -17.3738   20.4203 H   0  0  0  0  0  0
  -28.2873  -24.9788   21.6033 H   0  0  0  0  0  0
  -27.1436  -24.6875   20.3293 H   0  0  0  0  0  0
  -28.8683  -15.4141   21.0685 H   0  0  0  0  0  0
  -28.4892  -22.2666   20.9541 H   0  0  0  0  0  0
  -31.4812  -21.1765   18.4998 H   0  0  0  0  0  0
  -30.8535  -22.8147   18.4657 H   0  0  0  0  0  0
  1 25  1  0  0  0
  1 30  2  0  0  0
  1 80  1  0  0  0
  2  3  1  0  0  0
  2 25  1  0  0  0
  2 86  1  0  0  0
  2 87  1  0  0  0
  3  4  1  0  0  0
  3 88  1  0  0  0
  3 89  1  0  0  0
  4  5  1  0  0  0
  4 90  1  0  0  0
  4 91  1  0  0  0
  5  6  1  0  0  0
  5 26  1  0  0  0
  5 92  1  0  0  0
  6 25  1  0  0  0
  6 93  1  0  0  0
  6 94  1  0  0  0
  7  8  2  0  0  0
  7 26  1  0  0  0
  7 29  1  0  0  0
  8  9  1  0  0  0
  8 22  1  0  0  0
  9 10  1  0  0  0
  9 27  2  0  0  0
 10 11  2  0  0  0
 10 15  1  0  0  0
 11 12  1  0  0  0
 11 95  1  0  0  0
 12 13  2  0  0  0
 12 96  1  0  0  0
 13 14  1  0  0  0
 13 31  1  0  0  0
 14 15  2  0  0  0
 14 97  1  0  0  0
 15 98  1  0  0  0
 16 17  2  0  0  0
 16 21  1  0  0  0
 16 31  1  0  0  0
 17 18  1  0  0  0
 17 99  1  0  0  0
 18 19  2  0  0  0
 18100  1  0  0  0
 19 20  1  0  0  0
 19 24  1  0  0  0
 20 21  2  0  0  0
 20101  1  0  0  0
 21 23  1  0  0  0
 22 28  1  0  0  0
 22 32  2  0  0  0
 26 27  1  0  0  0
 28102  1  0  0  0
 28103  1  0  0  0
 29104  1  0  0  0
 29105  1  0  0  0
 33 34  1  0  0  0
 33 66  1  0  0  0
 33 70  2  0  0  0
 34 36  1  0  0  0
 34 59  1  0  0  0
 34106  1  0  0  0
 35 44  2  0  0  0
 35 45  1  0  0  0
 35 68  1  0  0  0
 36 56  1  0  0  0
 36107  1  0  0  0
 37 39  1  0  0  0
 37 47  1  0  0  0
 37 66  1  0  0  0
 37108  1  0  0  0
 38 43  2  0  0  0
 38 46  1  0  0  0
 38 47  1  0  0  0
 39 64  1  0  0  0
 39 67  2  0  0  0
 40 52  1  0  0  0
 40 53  2  0  0  0
 40 58  1  0  0  0
 41109  1  0  0  0
 41110  1  0  0  0
 41111  1  0  0  0
 41 48  1  0  0  0
 42 43  1  0  0  0
 42 66  1  0  0  0
 42112  1  0  0  0
 42113  1  0  0  0
 43 44  1  0  0  0
 44114  1  0  0  0
 45 46  2  0  0  0
 45115  1  0  0  0
 46116  1  0  0  0
 47117  1  0  0  0
 47118  1  0  0  0
 48 56  1  0  0  0
 48 65  1  0  0  0
 48119  1  0  0  0
 49 50  1  0  0  0
 49 53  1  0  0  0
 49 64  1  0  0  0
 49120  1  0  0  0
 50 51  1  0  0  0
 50121  1  0  0  0
 50122  1  0  0  0
 51 52  1  0  0  0
 51123  1  0  0  0
 51124  1  0  0  0
 52125  1  0  0  0
 52126  1  0  0  0
 53 54  1  0  0  0
 54 55  2  0  0  0
 54127  1  0  0  0
 55 57  1  0  0  0
 55128  1  0  0  0
 56 69  2  0  0  0
 57 58  2  0  0  0
 57129  1  0  0  0
 58130  1  0  0  0
 59 60  1  0  0  0
 59 61  1  0  0  0
 59 62  1  0  0  0
 60131  1  0  0  0
 60132  1  0  0  0
 60133  1  0  0  0
 61134  1  0  0  0
 61135  1  0  0  0
 61136  1  0  0  0
 62137  1  0  0  0
 62138  1  0  0  0
 62139  1  0  0  0
 63 65  1  0  0  0
 63140  1  0  0  0
 63141  1  0  0  0
 63142  1  0  0  0
 64143  1  0  0  0
 65144  1  0  0  0
 68 79  1  0  0  0
 71 73  2  0  0  0
 71 75  1  0  0  0
 71145  1  0  0  0
 72 74  1  0  0  0
 72 76  2  0  0  0
 72146  1  0  0  0
 73 76  1  0  0  0
 73 77  1  0  0  0
 74 75  2  0  0  0
 74 80  1  0  0  0
 75 84  1  0  0  0
 76 85  1  0  0  0
 77 81  1  0  0  0
 77 82  2  0  0  0
 78 79  1  0  0  0
 78 81  1  0  0  0
 78 83  2  0  0  0
 79147  1  0  0  0
 79148  1  0  0  0
 80149  1  0  0  0
 81150  1  0  0  0
 82151  1  0  0  0
 82152  1  0  0  0
M  CHG  1  82   1
M  ISO  4   1 100  68 101  79 101  80 100
M  END
> <chiral flag>
0

> <version>
0

> <s_m_source_file>
/data/baiqing/PycharmProjects/Reinvent-master-3.2/result/LINK_invent/BTK/process_docking_weight1_custom_product_contain_oxygen_bond_distance_aromatic_linkinvent_7_9_3/rearranged_h_0071.sdf

> <i_m_source_file_index>
20

> <r_mmod_Potential_Energy-OPLS-2005>
-275.511352539062

> <r_mmod_Stretch_Energy-OPLS-2005>
87.2251205444336

> <r_mmod_Bend_Energy-OPLS-2005>
144.979293823242

> <r_mmod_Torsional_Energy-OPLS-2005>
223.871215820312

> <r_mmod_Improper_Torsional_Energy-OPLS-2005>
5.30639219284058

> <r_mmod_Van_der_Waal_Energy-OPLS-2005>
159.224716186523

> <r_mmod_Electrostatic_Energy-OPLS-2005>
-479.045654296875

> <r_mmod_Solvation_Energy-OPLS-2005>
-467.777648925781

> <b_mmod_Minimization_Converged-OPLS-2005>
0

> <r_mmod_RMS_Derivative-OPLS-2005>
0.237884268164635

$$$$
20
                    3D
 Structure written by MMmdl.
155163  0  0  1  0            999 V2000
  -30.6838  -14.4955   20.5130 C   0  0  0  0  0  0
  -30.4182  -12.3006   19.4450 C   0  0  0  0  0  0
  -29.5011  -12.4930   18.2179 C   0  0  0  0  0  0
  -28.0171  -12.3720   18.6204 C   0  0  0  0  0  0
  -27.6586  -13.2146   19.8744 C   0  0  2  0  0  0
  -28.6985  -13.0166   21.0011 C   0  0  0  0  0  0
  -25.2566  -13.8183   20.5703 C   0  0  0  0  0  0
  -24.1824  -13.0449   20.9189 C   0  0  0  0  0  0
  -24.6385  -11.6917   20.8742 C   0  0  0  0  0  0
  -23.9046  -10.4301   21.0403 C   0  0  0  0  0  0
  -24.3597   -9.4225   21.9192 C   0  0  0  0  0  0
  -23.6285   -8.2253   22.0767 C   0  0  0  0  0  0
  -22.4273   -8.0281   21.3548 C   0  0  0  0  0  0
  -21.9894   -9.0253   20.4656 C   0  0  0  0  0  0
  -22.7211  -10.2137   20.3060 C   0  0  0  0  0  0
  -21.6855   -6.0728   22.5277 C   0  0  0  0  0  0
  -21.4018   -6.5636   23.8208 C   0  0  0  0  0  0
  -21.3665   -5.6792   24.9174 C   0  0  0  0  0  0
  -21.6044   -4.3054   24.7217 C   0  0  0  0  0  0
  -21.8814   -3.8138   23.4340 C   0  0  0  0  0  0
  -21.9191   -4.6956   22.3397 C   0  0  0  0  0  0
  -22.7841  -13.5250   21.1834 C   0  0  0  0  0  0
  -22.1662   -4.2143   21.0972 F   0  0  0  0  0  0
  -21.5628   -3.4536   25.7730 F   0  0  0  0  0  0
  -30.0300  -13.3047   20.4476 N   0  0  0  0  0  0
  -26.3004  -12.9366   20.3364 N   0  0  0  0  0  0
  -25.9313  -11.6517   20.5756 N   0  0  0  0  0  0
  -22.0453  -12.8278   22.0395 N   0  0  0  0  0  0
  -25.4273  -15.1902   20.4143 N   0  0  0  0  0  0
  -31.8468  -14.6360   20.1221 O   0  0  0  0  0  0
  -21.6642   -6.8869   21.4243 O   0  0  0  0  0  0
  -22.3537  -14.5547   20.6659 O   0  0  0  0  0  0
  -24.6141  -31.8690   23.2114 C   0  0  0  0  0  0
  -25.9042  -32.4827   23.8409 C   0  0  1  0  0  0
  -27.2339  -27.4343   20.1041 C   0  0  0  0  0  0
  -25.5896  -33.8622   24.2343 N   0  0  0  0  0  0
  -23.4037  -30.4914   21.5523 C   0  0  2  0  0  0
  -24.8518  -28.9525   20.1219 C   0  0  0  0  0  0
  -22.7407  -29.4669   22.5007 C   0  0  0  0  0  0
  -18.0276  -28.1390   22.8490 C   0  0  0  0  0  0
  -24.1484  -36.7325   23.2640 C   0  0  0  0  0  0
  -25.9319  -30.8301   21.3684 C   0  0  0  0  0  0
  -26.0113  -29.4620   20.7232 C   0  0  0  0  0  0
  -27.2076  -28.7073   20.7185 C   0  0  0  0  0  0
  -26.0641  -26.9362   19.5005 C   0  0  0  0  0  0
  -24.8719  -27.6859   19.5108 C   0  0  0  0  0  0
  -23.6152  -29.8221   20.1679 C   0  0  0  0  0  0
  -25.4107  -36.3122   24.0342 C   0  0  1  0  0  0
  -20.5860  -28.3679   23.1325 C   0  0  2  0  0  0
  -20.6773  -26.9420   22.5420 C   0  0  0  0  0  0
  -19.5754  -26.6393   21.5219 C   0  0  0  0  0  0
  -18.1930  -26.7935   22.1624 C   0  0  0  0  0  0
  -19.1522  -28.8850   23.2905 C   0  0  0  0  0  0
  -18.9450  -30.1445   23.8927 C   0  0  0  0  0  0
  -17.6456  -30.6590   24.0577 C   0  0  0  0  0  0
  -25.9027  -34.9483   23.5137 C   0  0  0  0  0  0
  -16.5346  -29.9101   23.6318 C   0  0  0  0  0  0
  -16.7267  -28.6519   23.0339 C   0  0  0  0  0  0
  -26.4470  -31.6594   25.0732 C   0  0  0  0  0  0
  -25.3737  -31.3696   26.1479 C   0  0  0  0  0  0
  -27.0301  -30.3030   24.6115 C   0  0  0  0  0  0
  -27.6042  -32.4312   25.7502 C   0  0  0  0  0  0
  -27.5585  -37.1826   24.8463 C   0  0  0  0  0  0
  -21.4136  -29.3043   22.3722 N   0  0  0  0  0  0
  -26.4298  -37.3803   23.9407 N   0  0  0  0  0  0
  -24.6683  -31.0778   22.1024 N   0  0  0  0  0  0
  -23.4166  -28.8217   23.3063 O   0  0  0  0  0  0
  -28.3750  -26.6687   20.0477 O   0  0  0  0  0  0
  -26.5589  -34.8930   22.4697 O   0  0  0  0  0  0
  -23.5330  -32.1463   23.7490 O   0  0  0  0  0  0
  -30.5023  -17.0628   18.9470 C   0  0  0  0  0  0
  -29.5327  -18.0228   20.9634 C   0  0  0  0  0  0
  -30.0840  -19.4617   19.0567 C   0  0  0  0  0  0
  -30.0113  -16.8804   20.2656 C   0  0  0  0  0  0
  -30.5432  -18.3381   18.3529 C   0  0  0  0  0  0
  -29.5763  -19.3091   20.3611 C   0  0  0  0  0  0
  -29.3151  -24.5235   20.8717 C   0  0  0  0  0  0
  -28.3663  -23.3769   20.4406 C   0  0  0  0  0  0
  -28.6176  -25.8693   21.2093 C   0  0  0  0  0  0
  -29.9293  -15.5662   20.8520 N   0  0  0  0  0  0
  -29.0907  -22.1090   20.1708 N   0  0  0  0  0  0
  -27.5256  -20.5680   21.5129 O   0  0  0  0  0  0
  -29.8618  -21.0452   22.3868 O   0  0  0  0  0  0
  -31.0145  -18.4789   17.0907 F   0  0  0  0  0  0
  -28.9623  -20.7595   21.2574 S   0  0  0  0  0  0
  -31.4682  -12.3813   19.1575 H   0  0  0  0  0  0
  -30.3008  -11.2974   19.8557 H   0  0  0  0  0  0
  -29.7412  -11.7532   17.4535 H   0  0  0  0  0  0
  -29.6823  -13.4696   17.7664 H   0  0  0  0  0  0
  -27.8136  -11.3188   18.8125 H   0  0  0  0  0  0
  -27.3764  -12.6572   17.7845 H   0  0  0  0  0  0
  -27.6942  -14.2594   19.5669 H   0  0  0  0  0  0
  -28.6686  -11.9900   21.3683 H   0  0  0  0  0  0
  -28.4700  -13.6464   21.8629 H   0  0  0  0  0  0
  -25.2733   -9.5713   22.4780 H   0  0  0  0  0  0
  -23.9998   -7.4640   22.7491 H   0  0  0  0  0  0
  -21.0824   -8.8752   19.8963 H   0  0  0  0  0  0
  -22.3656  -10.9672   19.6169 H   0  0  0  0  0  0
  -21.2019   -7.6144   23.9712 H   0  0  0  0  0  0
  -21.1501   -6.0522   25.9080 H   0  0  0  0  0  0
  -22.0588   -2.7602   23.2832 H   0  0  0  0  0  0
  -22.4035  -11.9956   22.4840 H   0  0  0  0  0  0
  -21.1066  -13.1334   22.2536 H   0  0  0  0  0  0
  -24.6607  -15.8435   20.5340 H   0  0  0  0  0  0
  -26.2768  -15.6317   20.0866 H   0  0  0  0  0  0
  -26.7111  -32.5552   23.1172 H   0  0  0  0  0  0
  -25.0065  -33.9787   25.0504 H   0  0  0  0  0  0
  -22.6940  -31.3094   21.4127 H   0  0  0  0  0  0
  -23.3735  -35.9664   23.3316 H   0  0  0  0  0  0
  -24.3585  -36.8930   22.2049 H   0  0  0  0  0  0
  -23.7237  -37.6539   23.6641 H   0  0  0  0  0  0
  -26.0459  -31.5920   20.5963 H   0  0  0  0  0  0
  -26.8171  -30.8845   21.9888 H   0  0  0  0  0  0
  -28.1034  -29.0986   21.1801 H   0  0  0  0  0  0
  -26.0787  -25.9660   19.0251 H   0  0  0  0  0  0
  -23.9823  -27.2848   19.0444 H   0  0  0  0  0  0
  -23.7287  -30.5973   19.4087 H   0  0  0  0  0  0
  -22.7373  -29.2459   19.8689 H   0  0  0  0  0  0
  -25.1281  -36.1997   25.0834 H   0  0  0  0  0  0
  -20.9958  -28.3244   24.1448 H   0  0  0  0  0  0
  -20.5708  -26.2285   23.3609 H   0  0  0  0  0  0
  -21.6647  -26.7496   22.1203 H   0  0  0  0  0  0
  -19.6922  -25.6308   21.1251 H   0  0  0  0  0  0
  -19.6690  -27.3202   20.6749 H   0  0  0  0  0  0
  -17.4210  -26.6691   21.4011 H   0  0  0  0  0  0
  -18.0317  -26.0069   22.9010 H   0  0  0  0  0  0
  -19.7925  -30.7239   24.2325 H   0  0  0  0  0  0
  -17.5020  -31.6274   24.5172 H   0  0  0  0  0  0
  -15.5351  -30.3023   23.7620 H   0  0  0  0  0  0
  -15.8668  -28.0851   22.7040 H   0  0  0  0  0  0
  -24.5878  -30.7090   25.7804 H   0  0  0  0  0  0
  -24.8968  -32.2851   26.4979 H   0  0  0  0  0  0
  -25.8075  -30.8807   27.0212 H   0  0  0  0  0  0
  -26.2852  -29.6791   24.1160 H   0  0  0  0  0  0
  -27.4057  -29.7257   25.4578 H   0  0  0  0  0  0
  -27.8695  -30.4342   23.9282 H   0  0  0  0  0  0
  -27.2653  -33.3579   26.2139 H   0  0  0  0  0  0
  -28.3819  -32.6930   25.0319 H   0  0  0  0  0  0
  -28.0752  -31.8412   26.5375 H   0  0  0  0  0  0
  -28.2610  -38.0118   24.7509 H   0  0  0  0  0  0
  -28.1077  -36.2650   24.6288 H   0  0  0  0  0  0
  -27.2313  -37.1485   25.8873 H   0  0  0  0  0  0
  -20.9297  -29.8740   21.6924 H   0  0  0  0  0  0
  -26.0190  -38.2888   24.1389 H   0  0  0  0  0  0
  -30.8416  -16.2254   18.3554 H   0  0  0  0  0  0
  -29.1314  -17.9333   21.9628 H   0  0  0  0  0  0
  -30.1170  -20.4284   18.5802 H   0  0  0  0  0  0
  -30.0766  -24.6955   20.1096 H   0  0  0  0  0  0
  -29.8534  -24.1931   21.7608 H   0  0  0  0  0  0
  -27.8273  -23.6744   19.5401 H   0  0  0  0  0  0
  -27.6128  -23.2077   21.2107 H   0  0  0  0  0  0
  -29.2687  -26.4525   21.8613 H   0  0  0  0  0  0
  -27.7061  -25.6813   21.7800 H   0  0  0  0  0  0
  -29.0826  -15.3565   21.3595 H   0  0  0  0  0  0
  -30.0701  -22.2683   19.9248 H   0  0  0  0  0  0
  1 25  1  0  0  0
  1 30  2  0  0  0
  1 80  1  0  0  0
  2  3  1  0  0  0
  2 25  1  0  0  0
  2 86  1  0  0  0
  2 87  1  0  0  0
  3  4  1  0  0  0
  3 88  1  0  0  0
  3 89  1  0  0  0
  4  5  1  0  0  0
  4 90  1  0  0  0
  4 91  1  0  0  0
  5  6  1  0  0  0
  5 26  1  0  0  0
  5 92  1  0  0  0
  6 25  1  0  0  0
  6 93  1  0  0  0
  6 94  1  0  0  0
  7  8  2  0  0  0
  7 26  1  0  0  0
  7 29  1  0  0  0
  8  9  1  0  0  0
  8 22  1  0  0  0
  9 10  1  0  0  0
  9 27  2  0  0  0
 10 11  2  0  0  0
 10 15  1  0  0  0
 11 12  1  0  0  0
 11 95  1  0  0  0
 12 13  2  0  0  0
 12 96  1  0  0  0
 13 14  1  0  0  0
 13 31  1  0  0  0
 14 15  2  0  0  0
 14 97  1  0  0  0
 15 98  1  0  0  0
 16 17  2  0  0  0
 16 21  1  0  0  0
 16 31  1  0  0  0
 17 18  1  0  0  0
 17 99  1  0  0  0
 18 19  2  0  0  0
 18100  1  0  0  0
 19 20  1  0  0  0
 19 24  1  0  0  0
 20 21  2  0  0  0
 20101  1  0  0  0
 21 23  1  0  0  0
 22 28  1  0  0  0
 22 32  2  0  0  0
 26 27  1  0  0  0
 28102  1  0  0  0
 28103  1  0  0  0
 29104  1  0  0  0
 29105  1  0  0  0
 33 34  1  0  0  0
 33 66  1  0  0  0
 33 70  2  0  0  0
 34 36  1  0  0  0
 34 59  1  0  0  0
 34106  1  0  0  0
 35 44  2  0  0  0
 35 45  1  0  0  0
 35 68  1  0  0  0
 36 56  1  0  0  0
 36107  1  0  0  0
 37 39  1  0  0  0
 37 47  1  0  0  0
 37 66  1  0  0  0
 37108  1  0  0  0
 38 43  2  0  0  0
 38 46  1  0  0  0
 38 47  1  0  0  0
 39 64  1  0  0  0
 39 67  2  0  0  0
 40 52  1  0  0  0
 40 53  2  0  0  0
 40 58  1  0  0  0
 41109  1  0  0  0
 41110  1  0  0  0
 41111  1  0  0  0
 41 48  1  0  0  0
 42 43  1  0  0  0
 42 66  1  0  0  0
 42112  1  0  0  0
 42113  1  0  0  0
 43 44  1  0  0  0
 44114  1  0  0  0
 45 46  2  0  0  0
 45115  1  0  0  0
 46116  1  0  0  0
 47117  1  0  0  0
 47118  1  0  0  0
 48 56  1  0  0  0
 48 65  1  0  0  0
 48119  1  0  0  0
 49 50  1  0  0  0
 49 53  1  0  0  0
 49 64  1  0  0  0
 49120  1  0  0  0
 50 51  1  0  0  0
 50121  1  0  0  0
 50122  1  0  0  0
 51 52  1  0  0  0
 51123  1  0  0  0
 51124  1  0  0  0
 52125  1  0  0  0
 52126  1  0  0  0
 53 54  1  0  0  0
 54 55  2  0  0  0
 54127  1  0  0  0
 55 57  1  0  0  0
 55128  1  0  0  0
 56 69  2  0  0  0
 57 58  2  0  0  0
 57129  1  0  0  0
 58130  1  0  0  0
 59 60  1  0  0  0
 59 61  1  0  0  0
 59 62  1  0  0  0
 60131  1  0  0  0
 60132  1  0  0  0
 60133  1  0  0  0
 61134  1  0  0  0
 61135  1  0  0  0
 61136  1  0  0  0
 62137  1  0  0  0
 62138  1  0  0  0
 62139  1  0  0  0
 63 65  1  0  0  0
 63140  1  0  0  0
 63141  1  0  0  0
 63142  1  0  0  0
 64143  1  0  0  0
 65144  1  0  0  0
 68 79  1  0  0  0
 71 74  2  0  0  0
 71 75  1  0  0  0
 71145  1  0  0  0
 72 74  1  0  0  0
 72 76  2  0  0  0
 72146  1  0  0  0
 73 75  2  0  0  0
 73 76  1  0  0  0
 73147  1  0  0  0
 74 80  1  0  0  0
 75 84  1  0  0  0
 76 85  1  0  0  0
 77 78  1  0  0  0
 77 79  1  0  0  0
 77148  1  0  0  0
 77149  1  0  0  0
 78 81  1  0  0  0
 78150  1  0  0  0
 78151  1  0  0  0
 79152  1  0  0  0
 79153  1  0  0  0
 80154  1  0  0  0
 81155  1  0  0  0
 81 85  1  0  0  0
 82 85  2  0  0  0
 83 85  2  0  0  0
M  ISO  4   1 100  68 101  79 101  80 100
M  END
> <chiral flag>
0

> <version>
0

> <s_m_source_file>
/data/baiqing/PycharmProjects/Reinvent-master-3.2/result/LINK_invent/BTK/process_docking_weight1_custom_product_contain_oxygen_bond_distance_aromatic_linkinvent_7_9_3/rearranged_h_0071.sdf

> <i_m_source_file_index>
21

> <r_mmod_Potential_Energy-OPLS-2005>
-161.487487792969

> <r_mmod_Stretch_Energy-OPLS-2005>
38.5095901489258

> <r_mmod_Bend_Energy-OPLS-2005>
93.2212677001953

> <r_mmod_Torsional_Energy-OPLS-2005>
270.929565429688

> <r_mmod_Improper_Torsional_Energy-OPLS-2005>
9.67358112335205

> <r_mmod_Van_der_Waal_Energy-OPLS-2005>
140.88151550293

> <r_mmod_Electrostatic_Energy-OPLS-2005>
-483.558990478516

> <r_mmod_Solvation_Energy-OPLS-2005>
-246.794616699219

> <b_mmod_Minimization_Converged-OPLS-2005>
0

> <r_mmod_RMS_Derivative-OPLS-2005>
1.92650151252747

$$$$
21
                    3D
 Structure written by MMmdl.
152159  0  0  1  0            999 V2000
  -30.3333  -15.4493   20.3755 C   0  0  0  0  0  0
  -30.4287  -12.9394   19.5338 C   0  0  0  0  0  0
  -29.5297  -12.6515   18.2969 C   0  0  0  0  0  0
  -28.0814  -12.3450   18.7122 C   0  0  0  0  0  0
  -27.5978  -13.3005   19.8339 C   0  0  2  0  0  0
  -28.6373  -13.4709   20.9623 C   0  0  0  0  0  0
  -25.2240  -13.8155   20.5839 C   0  0  0  0  0  0
  -24.1666  -13.0284   20.9326 C   0  0  0  0  0  0
  -24.6398  -11.6821   20.8801 C   0  0  0  0  0  0
  -23.9084  -10.4179   21.0412 C   0  0  0  0  0  0
  -24.3624   -9.4109   21.9192 C   0  0  0  0  0  0
  -23.6296   -8.2140   22.0750 C   0  0  0  0  0  0
  -22.4266   -8.0208   21.3556 C   0  0  0  0  0  0
  -21.9912   -9.0178   20.4655 C   0  0  0  0  0  0
  -22.7245  -10.2056   20.3075 C   0  0  0  0  0  0
  -21.6799   -6.0715   22.5329 C   0  0  0  0  0  0
  -21.3961   -6.5635   23.8254 C   0  0  0  0  0  0
  -21.3702   -5.6809   24.9224 C   0  0  0  0  0  0
  -21.6088   -4.3054   24.7290 C   0  0  0  0  0  0
  -21.8803   -3.8116   23.4398 C   0  0  0  0  0  0
  -21.9151   -4.6933   22.3444 C   0  0  0  0  0  0
  -22.7682  -13.5049   21.1927 C   0  0  0  0  0  0
  -22.1598   -4.2111   21.1017 F   0  0  0  0  0  0
  -21.5691   -3.4571   25.7796 F   0  0  0  0  0  0
  -29.8419  -14.0848   20.3544 N   0  0  0  0  0  0
  -26.2765  -12.9550   20.3313 N   0  0  0  0  0  0
  -25.9361  -11.6627   20.5823 N   0  0  0  0  0  0
  -22.0306  -12.8091   22.0513 N   0  0  0  0  0  0
  -25.3597  -15.1884   20.4335 N   0  0  0  0  0  0
  -31.5332  -15.4298   20.0365 O   0  0  0  0  0  0
  -21.6613   -6.8843   21.4261 O   0  0  0  0  0  0
  -22.3358  -14.5354   20.6767 O   0  0  0  0  0  0
  -24.6677  -31.8199   23.1627 C   0  0  0  0  0  0
  -25.9323  -32.4556   23.8133 C   0  0  1  0  0  0
  -27.1978  -26.8448   20.2133 C   0  0  0  0  0  0
  -25.5964  -33.8390   24.2043 N   0  0  0  0  0  0
  -23.4860  -30.4251   21.5170 C   0  0  2  0  0  0
  -24.9335  -28.7943   20.1198 C   0  0  0  0  0  0
  -22.7683  -29.4395   22.4779 C   0  0  0  0  0  0
  -18.0329  -28.1448   22.8478 C   0  0  0  0  0  0
  -24.1479  -36.7236   23.2645 C   0  0  0  0  0  0
  -26.0589  -30.5911   21.4100 C   0  0  0  0  0  0
  -26.1194  -29.1678   20.7681 C   0  0  0  0  0  0
  -27.2466  -28.2156   20.7942 C   0  0  0  0  0  0
  -25.9865  -26.6455   19.5135 C   0  0  0  0  0  0
  -24.8945  -27.5505   19.4734 C   0  0  0  0  0  0
  -23.7311  -29.7398   20.1439 C   0  0  0  0  0  0
  -25.4123  -36.2984   24.0286 C   0  0  1  0  0  0
  -20.5946  -28.3778   23.1168 C   0  0  2  0  0  0
  -20.6822  -26.9464   22.5398 C   0  0  0  0  0  0
  -19.5786  -26.6399   21.5237 C   0  0  0  0  0  0
  -18.1967  -26.7980   22.1634 C   0  0  0  0  0  0
  -19.1607  -28.8938   23.2810 C   0  0  0  0  0  0
  -18.9504  -30.1522   23.8844 C   0  0  0  0  0  0
  -17.6494  -30.6615   24.0573 C   0  0  0  0  0  0
  -25.9100  -34.9364   23.4978 C   0  0  0  0  0  0
  -16.5378  -29.9102   23.6353 C   0  0  0  0  0  0
  -16.7305  -28.6535   23.0351 C   0  0  0  0  0  0
  -26.4532  -31.6526   25.0670 C   0  0  0  0  0  0
  -25.3637  -31.3827   26.1287 C   0  0  0  0  0  0
  -27.0425  -30.2903   24.6457 C   0  0  0  0  0  0
  -27.6017  -32.4347   25.7490 C   0  0  0  0  0  0
  -27.5587  -37.1768   24.8460 C   0  0  0  0  0  0
  -21.4348  -29.3036   22.3521 N   0  0  0  0  0  0
  -26.4286  -37.3730   23.9400 N   0  0  0  0  0  0
  -24.7611  -30.9757   22.0835 N   0  0  0  0  0  0
  -23.4214  -28.8026   23.3078 O   0  0  0  0  0  0
  -28.1685  -25.6893   20.1989 O   0  0  0  0  0  0
  -26.5731  -34.8888   22.4605 O   0  0  0  0  0  0
  -23.5708  -32.1235   23.6607 O   0  0  0  0  0  0
  -28.2115  -22.7796   20.7222 C   0  0  0  0  0  0
  -27.9124  -24.2601   20.7306 C   0  0  0  0  0  0
  -29.4352  -18.7505   20.1234 C   0  0  0  0  0  0
  -29.6278  -18.6153   18.6323 C   0  0  0  0  0  0
  -28.9767  -21.4939   20.0619 C   0  0  0  0  0  0
  -27.0630  -19.3037   18.2331 C   0  0  0  0  0  0
  -28.2210  -16.7946   21.4605 C   0  0  0  0  0  0
  -28.4424  -18.8555   17.6677 C   0  0  0  0  0  0
  -29.5956  -17.0595   20.8350 C   0  0  1  0  0  0
  -29.0655  -20.0370   20.6713 N   0  0  0  0  0  0
  -30.7246  -18.3014   18.1584 O   0  0  0  0  0  0
  -29.4760  -21.6930   18.9569 O   0  0  0  0  0  0
  -31.4380  -13.1674   19.1873 H   0  0  0  0  0  0
  -30.5397  -12.0317   20.1302 H   0  0  0  0  0  0
  -29.9352  -11.8153   17.7277 H   0  0  0  0  0  0
  -29.5471  -13.5165   17.6293 H   0  0  0  0  0  0
  -28.0461  -11.3173   19.0723 H   0  0  0  0  0  0
  -27.4083  -12.3876   17.8521 H   0  0  0  0  0  0
  -27.4917  -14.2770   19.3624 H   0  0  0  0  0  0
  -28.8541  -12.5085   21.4280 H   0  0  0  0  0  0
  -28.2477  -14.0954   21.7631 H   0  0  0  0  0  0
  -25.2723   -9.5620   22.4806 H   0  0  0  0  0  0
  -24.0020   -7.4540   22.7471 H   0  0  0  0  0  0
  -21.0824   -8.8678   19.8964 H   0  0  0  0  0  0
  -22.3631  -10.9623   19.6235 H   0  0  0  0  0  0
  -21.1874   -7.6101   23.9765 H   0  0  0  0  0  0
  -21.1593   -6.0518   25.9167 H   0  0  0  0  0  0
  -22.0533   -2.7575   23.2924 H   0  0  0  0  0  0
  -22.3879  -11.9776   22.5027 H   0  0  0  0  0  0
  -21.0985  -13.1277   22.2760 H   0  0  0  0  0  0
  -24.5994  -15.8192   20.6650 H   0  0  0  0  0  0
  -26.2069  -15.6644   20.1562 H   0  0  0  0  0  0
  -26.7408  -32.5062   23.0856 H   0  0  0  0  0  0
  -25.0010  -33.9509   25.0109 H   0  0  0  0  0  0
  -22.8048  -31.2588   21.3387 H   0  0  0  0  0  0
  -23.3745  -35.9563   23.3265 H   0  0  0  0  0  0
  -24.3561  -36.8936   22.2085 H   0  0  0  0  0  0
  -23.7227  -37.6397   23.6725 H   0  0  0  0  0  0
  -26.2366  -31.3154   20.6116 H   0  0  0  0  0  0
  -26.9250  -30.6637   22.0579 H   0  0  0  0  0  0
  -28.1353  -28.4967   21.3404 H   0  0  0  0  0  0
  -25.8505  -25.6982   19.0127 H   0  0  0  0  0  0
  -23.9970  -27.2518   18.9482 H   0  0  0  0  0  0
  -23.9021  -30.5075   19.3885 H   0  0  0  0  0  0
  -22.8362  -29.2063   19.8165 H   0  0  0  0  0  0
  -25.1334  -36.1798   25.0780 H   0  0  0  0  0  0
  -21.0038  -28.3387   24.1301 H   0  0  0  0  0  0
  -20.5756  -26.2423   23.3665 H   0  0  0  0  0  0
  -21.6681  -26.7481   22.1197 H   0  0  0  0  0  0
  -19.6943  -25.6296   21.1332 H   0  0  0  0  0  0
  -19.6734  -27.3170   20.6745 H   0  0  0  0  0  0
  -17.4266  -26.6718   21.4013 H   0  0  0  0  0  0
  -18.0340  -26.0159   22.9070 H   0  0  0  0  0  0
  -19.7976  -30.7365   24.2192 H   0  0  0  0  0  0
  -17.5025  -31.6283   24.5195 H   0  0  0  0  0  0
  -15.5375  -30.2972   23.7706 H   0  0  0  0  0  0
  -15.8711  -28.0832   22.7065 H   0  0  0  0  0  0
  -24.5788  -30.7234   25.7571 H   0  0  0  0  0  0
  -24.8837  -32.3045   26.4586 H   0  0  0  0  0  0
  -25.7784  -30.9045   27.0167 H   0  0  0  0  0  0
  -26.3109  -29.6560   24.1466 H   0  0  0  0  0  0
  -27.3939  -29.7282   25.5109 H   0  0  0  0  0  0
  -27.9039  -30.4059   23.9896 H   0  0  0  0  0  0
  -27.2583  -33.3680   26.1964 H   0  0  0  0  0  0
  -28.3879  -32.6880   25.0373 H   0  0  0  0  0  0
  -28.0635  -31.8567   26.5496 H   0  0  0  0  0  0
  -28.2566  -38.0104   24.7527 H   0  0  0  0  0  0
  -28.1118  -36.2632   24.6248 H   0  0  0  0  0  0
  -27.2312  -37.1389   25.8864 H   0  0  0  0  0  0
  -20.9612  -29.8702   21.6617 H   0  0  0  0  0  0
  -26.0125  -38.2779   24.1394 H   0  0  0  0  0  0
  -27.6069  -22.3527   21.5121 H   0  0  0  0  0  0
  -27.1931  -24.4485   21.5148 H   0  0  0  0  0  0
  -26.9802  -20.3930   18.2595 H   0  0  0  0  0  0
  -26.8235  -18.9194   19.2224 H   0  0  0  0  0  0
  -26.2572  -18.9598   17.5775 H   0  0  0  0  0  0
  -27.6057  -16.2493   20.7574 H   0  0  0  0  0  0
  -27.6877  -17.7165   21.7091 H   0  0  0  0  0  0
  -28.2977  -16.2131   22.3763 H   0  0  0  0  0  0
  -28.3032  -17.9107   17.1448 H   0  0  0  0  0  0
  -28.7643  -19.5774   16.9176 H   0  0  0  0  0  0
  -30.2406  -17.2762   21.6841 H   0  0  0  0  0  0
  1 25  1  0  0  0
  1 30  2  0  0  0
  1 79  1  0  0  0
  2  3  1  0  0  0
  2 25  1  0  0  0
  2 83  1  0  0  0
  2 84  1  0  0  0
  3  4  1  0  0  0
  3 85  1  0  0  0
  3 86  1  0  0  0
  4  5  1  0  0  0
  4 87  1  0  0  0
  4 88  1  0  0  0
  5  6  1  0  0  0
  5 26  1  0  0  0
  5 89  1  0  0  0
  6 25  1  0  0  0
  6 90  1  0  0  0
  6 91  1  0  0  0
  7  8  2  0  0  0
  7 26  1  0  0  0
  7 29  1  0  0  0
  8  9  1  0  0  0
  8 22  1  0  0  0
  9 10  1  0  0  0
  9 27  2  0  0  0
 10 11  2  0  0  0
 10 15  1  0  0  0
 11 12  1  0  0  0
 11 92  1  0  0  0
 12 13  2  0  0  0
 12 93  1  0  0  0
 13 14  1  0  0  0
 13 31  1  0  0  0
 14 15  2  0  0  0
 14 94  1  0  0  0
 15 95  1  0  0  0
 16 17  2  0  0  0
 16 21  1  0  0  0
 16 31  1  0  0  0
 17 18  1  0  0  0
 17 96  1  0  0  0
 18 19  2  0  0  0
 18 97  1  0  0  0
 19 20  1  0  0  0
 19 24  1  0  0  0
 20 21  2  0  0  0
 20 98  1  0  0  0
 21 23  1  0  0  0
 22 28  1  0  0  0
 22 32  2  0  0  0
 26 27  1  0  0  0
 28 99  1  0  0  0
 28100  1  0  0  0
 29101  1  0  0  0
 29102  1  0  0  0
 33 34  1  0  0  0
 33 66  1  0  0  0
 33 70  2  0  0  0
 34 36  1  0  0  0
 34 59  1  0  0  0
 34103  1  0  0  0
 35 44  2  0  0  0
 35 45  1  0  0  0
 35 68  1  0  0  0
 36 56  1  0  0  0
 36104  1  0  0  0
 37 39  1  0  0  0
 37 47  1  0  0  0
 37 66  1  0  0  0
 37105  1  0  0  0
 38 43  2  0  0  0
 38 46  1  0  0  0
 38 47  1  0  0  0
 39 64  1  0  0  0
 39 67  2  0  0  0
 40 52  1  0  0  0
 40 53  2  0  0  0
 40 58  1  0  0  0
 41106  1  0  0  0
 41107  1  0  0  0
 41108  1  0  0  0
 41 48  1  0  0  0
 42 43  1  0  0  0
 42 66  1  0  0  0
 42109  1  0  0  0
 42110  1  0  0  0
 43 44  1  0  0  0
 44111  1  0  0  0
 45 46  2  0  0  0
 45112  1  0  0  0
 46113  1  0  0  0
 47114  1  0  0  0
 47115  1  0  0  0
 48 56  1  0  0  0
 48 65  1  0  0  0
 48116  1  0  0  0
 49 50  1  0  0  0
 49 53  1  0  0  0
 49 64  1  0  0  0
 49117  1  0  0  0
 50 51  1  0  0  0
 50118  1  0  0  0
 50119  1  0  0  0
 51 52  1  0  0  0
 51120  1  0  0  0
 51121  1  0  0  0
 52122  1  0  0  0
 52123  1  0  0  0
 53 54  1  0  0  0
 54 55  2  0  0  0
 54124  1  0  0  0
 55 57  1  0  0  0
 55125  1  0  0  0
 56 69  2  0  0  0
 57 58  2  0  0  0
 57126  1  0  0  0
 58127  1  0  0  0
 59 60  1  0  0  0
 59 61  1  0  0  0
 59 62  1  0  0  0
 60128  1  0  0  0
 60129  1  0  0  0
 60130  1  0  0  0
 61131  1  0  0  0
 61132  1  0  0  0
 61133  1  0  0  0
 62134  1  0  0  0
 62135  1  0  0  0
 62136  1  0  0  0
 63 65  1  0  0  0
 63137  1  0  0  0
 63138  1  0  0  0
 63139  1  0  0  0
 64140  1  0  0  0
 65141  1  0  0  0
 68 72  1  0  0  0
 71 72  2  0  0  0
 71 75  1  0  0  0
 71142  1  0  0  0
 72143  1  0  0  0
 73 74  1  0  0  0
 73 79  1  0  0  0
 73 80  2  0  0  0
 74 78  1  0  0  0
 74 81  2  0  0  0
 75 80  1  0  0  0
 75 82  2  0  0  0
 76 78  1  0  0  0
 76144  1  0  0  0
 76145  1  0  0  0
 76146  1  0  0  0
 77147  1  0  0  0
 77148  1  0  0  0
 77149  1  0  0  0
 77 79  1  0  0  0
 78150  1  0  0  0
 78151  1  0  0  0
 79152  1  0  0  0
M  ISO  4   1 100  68 101  72 101  79 100
M  END
> <chiral flag>
0

> <version>
0

> <s_m_source_file>
/data/baiqing/PycharmProjects/Reinvent-master-3.2/result/LINK_invent/BTK/process_docking_weight1_custom_product_contain_oxygen_bond_distance_aromatic_linkinvent_7_9_3/rearranged_h_0071.sdf

> <i_m_source_file_index>
22

> <r_mmod_Potential_Energy-OPLS-2005>
1832.38342285156

> <r_mmod_Stretch_Energy-OPLS-2005>
740.393615722656

> <r_mmod_Bend_Energy-OPLS-2005>
636.987609863281

> <r_mmod_Torsional_Energy-OPLS-2005>
238.554412841797

> <r_mmod_Improper_Torsional_Energy-OPLS-2005>
3.43723464012146

> <r_mmod_Van_der_Waal_Energy-OPLS-2005>
112.558097839355

> <r_mmod_Electrostatic_Energy-OPLS-2005>
-316.221954345703

> <r_mmod_Solvation_Energy-OPLS-2005>
-210.963287353516

> <b_mmod_Minimization_Converged-OPLS-2005>
0

> <r_mmod_RMS_Derivative-OPLS-2005>
7.33550453186035

$$$$
22
                    3D
 Structure written by MMmdl.
165174  0  0  1  0            999 V2000
  -30.7269  -14.4320   20.5794 C   0  0  0  0  0  0
  -30.4190  -12.2849   19.4299 C   0  0  0  0  0  0
  -29.5001  -12.5111   18.2119 C   0  0  0  0  0  0
  -28.0182  -12.3809   18.6169 C   0  0  0  0  0  0
  -27.6659  -13.2094   19.8823 C   0  0  2  0  0  0
  -28.7054  -12.9833   21.0059 C   0  0  0  0  0  0
  -25.2599  -13.8167   20.5697 C   0  0  0  0  0  0
  -24.1853  -13.0432   20.9166 C   0  0  0  0  0  0
  -24.6416  -11.6907   20.8738 C   0  0  0  0  0  0
  -23.9078  -10.4292   21.0401 C   0  0  0  0  0  0
  -24.3626   -9.4210   21.9179 C   0  0  0  0  0  0
  -23.6298   -8.2252   22.0758 C   0  0  0  0  0  0
  -22.4281   -8.0290   21.3550 C   0  0  0  0  0  0
  -21.9917   -9.0264   20.4649 C   0  0  0  0  0  0
  -22.7250  -10.2138   20.3052 C   0  0  0  0  0  0
  -21.6858   -6.0744   22.5289 C   0  0  0  0  0  0
  -21.4014   -6.5644   23.8223 C   0  0  0  0  0  0
  -21.3657   -5.6797   24.9186 C   0  0  0  0  0  0
  -21.6042   -4.3060   24.7231 C   0  0  0  0  0  0
  -21.8823   -3.8153   23.4351 C   0  0  0  0  0  0
  -21.9190   -4.6969   22.3405 C   0  0  0  0  0  0
  -22.7876  -13.5230   21.1832 C   0  0  0  0  0  0
  -22.1661   -4.2158   21.0981 F   0  0  0  0  0  0
  -21.5627   -3.4541   25.7740 F   0  0  0  0  0  0
  -30.0430  -13.2648   20.4598 N   0  0  0  0  0  0
  -26.3050  -12.9348   20.3392 N   0  0  0  0  0  0
  -25.9346  -11.6506   20.5777 N   0  0  0  0  0  0
  -22.0500  -12.8238   22.0388 N   0  0  0  0  0  0
  -25.4292  -15.1887   20.4110 N   0  0  0  0  0  0
  -31.8486  -14.6070   20.0994 O   0  0  0  0  0  0
  -21.6645   -6.8887   21.4252 O   0  0  0  0  0  0
  -22.3564  -14.5534   20.6679 O   0  0  0  0  0  0
  -24.6074  -31.8712   23.2143 C   0  0  0  0  0  0
  -25.8992  -32.4852   23.8426 C   0  0  1  0  0  0
  -27.2540  -27.4813   20.1062 C   0  0  0  0  0  0
  -25.5873  -33.8644   24.2352 N   0  0  0  0  0  0
  -23.3935  -30.4923   21.5504 C   0  0  2  0  0  0
  -24.8463  -28.9626   20.1157 C   0  0  0  0  0  0
  -22.7367  -29.4672   22.5003 C   0  0  0  0  0  0
  -18.0268  -28.1368   22.8496 C   0  0  0  0  0  0
  -24.1480  -36.7316   23.2637 C   0  0  0  0  0  0
  -25.9133  -30.8549   21.3575 C   0  0  0  0  0  0
  -25.9962  -29.4889   20.7156 C   0  0  0  0  0  0
  -27.1983  -28.7572   20.7164 C   0  0  0  0  0  0
  -26.0914  -26.9670   19.4968 C   0  0  0  0  0  0
  -24.8861  -27.6975   19.5038 C   0  0  0  0  0  0
  -23.6018  -29.8188   20.1659 C   0  0  0  0  0  0
  -25.4104  -36.3115   24.0339 C   0  0  1  0  0  0
  -20.5850  -28.3651   23.1337 C   0  0  2  0  0  0
  -20.6757  -26.9393   22.5427 C   0  0  0  0  0  0
  -19.5740  -26.6385   21.5214 C   0  0  0  0  0  0
  -18.1918  -26.7921   22.1622 C   0  0  0  0  0  0
  -19.1512  -28.8826   23.2922 C   0  0  0  0  0  0
  -18.9440  -30.1433   23.8927 C   0  0  0  0  0  0
  -17.6442  -30.6580   24.0564 C   0  0  0  0  0  0
  -25.9022  -34.9483   23.5138 C   0  0  0  0  0  0
  -16.5337  -29.9078   23.6326 C   0  0  0  0  0  0
  -16.7258  -28.6496   23.0351 C   0  0  0  0  0  0
  -26.4462  -31.6609   25.0715 C   0  0  0  0  0  0
  -25.3747  -31.3694   26.1475 C   0  0  0  0  0  0
  -27.0300  -30.3068   24.6031 C   0  0  0  0  0  0
  -27.6041  -32.4323   25.7479 C   0  0  0  0  0  0
  -27.5578  -37.1809   24.8462 C   0  0  0  0  0  0
  -21.4103  -29.3026   22.3743 N   0  0  0  0  0  0
  -26.4288  -37.3796   23.9413 N   0  0  0  0  0  0
  -24.6557  -31.0861   22.1013 N   0  0  0  0  0  0
  -23.4160  -28.8226   23.3042 O   0  0  0  0  0  0
  -28.3881  -26.7007   20.0673 O   0  0  0  0  0  0
  -26.5578  -34.8925   22.4694 O   0  0  0  0  0  0
  -23.5281  -32.1448   23.7568 O   0  0  0  0  0  0
  -31.1552  -19.8225   20.8876 C   0  0  0  0  0  0
  -29.1630  -20.2517   22.1993 C   0  0  0  0  0  0
  -31.3085  -21.2068   20.6644 C   0  0  0  0  0  0
  -29.3112  -21.6359   21.9718 C   0  0  0  0  0  0
  -30.0615  -19.3219   21.6327 C   0  0  0  0  0  0
  -30.3843  -22.1398   21.1941 C   0  0  0  0  0  0
  -30.0718  -24.5888   21.6284 C   0  0  0  0  0  0
  -30.7607  -17.1304   18.1966 C   0  0  0  0  0  0
  -29.8389  -17.8516   21.8369 C   0  0  0  0  0  0
  -31.0907  -25.5164   19.6647 C   0  0  0  0  0  0
  -31.3802  -24.0177   19.8065 C   0  0  0  0  0  0
  -30.5159  -25.9181   21.0231 C   0  0  1  0  0  0
  -29.7502  -17.2564   19.3358 C   0  0  0  0  0  0
  -29.4365  -27.0183   20.9832 C   0  0  0  0  0  0
  -30.3236  -16.8859   20.7335 C   0  0  2  0  0  0
  -30.5458  -23.5432   20.9137 N   0  0  0  0  0  0
  -30.0192  -15.4726   21.0414 N   0  0  0  0  0  0
  -29.3967  -24.5395   22.6615 O   0  0  0  0  0  0
  -31.7367  -17.8810   18.1284 O   0  0  0  0  0  0
  -29.2260  -17.4205   22.8194 O   0  0  0  0  0  0
  -31.4675  -12.3645   19.1344 H   0  0  0  0  0  0
  -30.2992  -11.2728   19.8190 H   0  0  0  0  0  0
  -29.7344  -11.7956   17.4218 H   0  0  0  0  0  0
  -29.6836  -13.5013   17.7910 H   0  0  0  0  0  0
  -27.8168  -11.3245   18.7960 H   0  0  0  0  0  0
  -27.3765  -12.6747   17.7848 H   0  0  0  0  0  0
  -27.7111  -14.2599   19.5953 H   0  0  0  0  0  0
  -28.6690  -11.9511   21.3559 H   0  0  0  0  0  0
  -28.4778  -13.5956   21.8799 H   0  0  0  0  0  0
  -25.2771   -9.5686   22.4754 H   0  0  0  0  0  0
  -24.0003   -7.4646   22.7483 H   0  0  0  0  0  0
  -21.0850   -8.8784   19.8951 H   0  0  0  0  0  0
  -22.3709  -10.9682   19.6164 H   0  0  0  0  0  0
  -21.2012   -7.6153   23.9729 H   0  0  0  0  0  0
  -21.1474   -6.0530   25.9091 H   0  0  0  0  0  0
  -22.0599   -2.7616   23.2858 H   0  0  0  0  0  0
  -22.4104  -11.9891   22.4785 H   0  0  0  0  0  0
  -21.1119  -13.1290   22.2575 H   0  0  0  0  0  0
  -24.6591  -15.8392   20.5207 H   0  0  0  0  0  0
  -26.2792  -15.6347   20.0926 H   0  0  0  0  0  0
  -26.7069  -32.5603   23.1212 H   0  0  0  0  0  0
  -25.0045  -33.9831   25.0506 H   0  0  0  0  0  0
  -22.6798  -31.3065   21.4101 H   0  0  0  0  0  0
  -23.3738  -35.9651   23.3310 H   0  0  0  0  0  0
  -24.3575  -36.8918   22.2046 H   0  0  0  0  0  0
  -23.7236  -37.6522   23.6645 H   0  0  0  0  0  0
  -26.0062  -31.6187   20.5845 H   0  0  0  0  0  0
  -26.8072  -30.9249   21.9645 H   0  0  0  0  0  0
  -28.0683  -29.1945   21.1832 H   0  0  0  0  0  0
  -26.1217  -25.9960   19.0230 H   0  0  0  0  0  0
  -24.0051  -27.2841   19.0336 H   0  0  0  0  0  0
  -23.6973  -30.5914   19.4024 H   0  0  0  0  0  0
  -22.7321  -29.2275   19.8757 H   0  0  0  0  0  0
  -25.1272  -36.1986   25.0828 H   0  0  0  0  0  0
  -20.9954  -28.3212   24.1453 H   0  0  0  0  0  0
  -20.5665  -26.2252   23.3605 H   0  0  0  0  0  0
  -21.6631  -26.7442   22.1219 H   0  0  0  0  0  0
  -19.6910  -25.6300   21.1228 H   0  0  0  0  0  0
  -19.6688  -27.3209   20.6755 H   0  0  0  0  0  0
  -17.4197  -26.6687   21.4016 H   0  0  0  0  0  0
  -18.0316  -26.0042   22.8998 H   0  0  0  0  0  0
  -19.7910  -30.7250   24.2305 H   0  0  0  0  0  0
  -17.4994  -31.6265   24.5148 H   0  0  0  0  0  0
  -15.5341  -30.2995   23.7614 H   0  0  0  0  0  0
  -15.8663  -28.0826   22.7042 H   0  0  0  0  0  0
  -24.5906  -30.7063   25.7801 H   0  0  0  0  0  0
  -24.8962  -32.2848   26.4966 H   0  0  0  0  0  0
  -25.8118  -30.8826   27.0205 H   0  0  0  0  0  0
  -26.2841  -29.6839   24.1073 H   0  0  0  0  0  0
  -27.4095  -29.7284   25.4466 H   0  0  0  0  0  0
  -27.8655  -30.4419   23.9152 H   0  0  0  0  0  0
  -27.2651  -33.3607   26.2107 H   0  0  0  0  0  0
  -28.3827  -32.6924   25.0296 H   0  0  0  0  0  0
  -28.0733  -31.8429   26.5369 H   0  0  0  0  0  0
  -28.2595  -38.0106   24.7518 H   0  0  0  0  0  0
  -28.1077  -36.2641   24.6278 H   0  0  0  0  0  0
  -27.2304  -37.1452   25.8866 H   0  0  0  0  0  0
  -20.9238  -29.8744   21.6978 H   0  0  0  0  0  0
  -26.0178  -38.2870   24.1425 H   0  0  0  0  0  0
  -31.8924  -19.1559   20.4635 H   0  0  0  0  0  0
  -28.3264  -19.9049   22.7897 H   0  0  0  0  0  0
  -32.1542  -21.5340   20.0756 H   0  0  0  0  0  0
  -28.5654  -22.2939   22.3929 H   0  0  0  0  0  0
  -30.5500  -16.3497   17.4651 H   0  0  0  0  0  0
  -30.3641  -25.6811   18.8678 H   0  0  0  0  0  0
  -31.9868  -26.0854   19.4129 H   0  0  0  0  0  0
  -32.4308  -23.8627   20.0557 H   0  0  0  0  0  0
  -31.1692  -23.4839   18.8797 H   0  0  0  0  0  0
  -31.3328  -26.2663   21.6577 H   0  0  0  0  0  0
  -28.8780  -16.6455   19.1026 H   0  0  0  0  0  0
  -29.3990  -18.2877   19.3214 H   0  0  0  0  0  0
  -29.9039  -27.9597   20.6912 H   0  0  0  0  0  0
  -29.0296  -27.1608   21.9875 H   0  0  0  0  0  0
  -31.4108  -16.9874   20.7219 H   0  0  0  0  0  0
  -29.1312  -15.2845   21.4830 H   0  0  0  0  0  0
  1 25  1  0  0  0
  1 30  2  0  0  0
  1 87  1  0  0  0
  2  3  1  0  0  0
  2 25  1  0  0  0
  2 91  1  0  0  0
  2 92  1  0  0  0
  3  4  1  0  0  0
  3 93  1  0  0  0
  3 94  1  0  0  0
  4  5  1  0  0  0
  4 95  1  0  0  0
  4 96  1  0  0  0
  5  6  1  0  0  0
  5 26  1  0  0  0
  5 97  1  0  0  0
  6 25  1  0  0  0
  6 98  1  0  0  0
  6 99  1  0  0  0
  7  8  2  0  0  0
  7 26  1  0  0  0
  7 29  1  0  0  0
  8  9  1  0  0  0
  8 22  1  0  0  0
  9 10  1  0  0  0
  9 27  2  0  0  0
 10 11  2  0  0  0
 10 15  1  0  0  0
 11 12  1  0  0  0
 11100  1  0  0  0
 12 13  2  0  0  0
 12101  1  0  0  0
 13 14  1  0  0  0
 13 31  1  0  0  0
 14 15  2  0  0  0
 14102  1  0  0  0
 15103  1  0  0  0
 16 17  2  0  0  0
 16 21  1  0  0  0
 16 31  1  0  0  0
 17 18  1  0  0  0
 17104  1  0  0  0
 18 19  2  0  0  0
 18105  1  0  0  0
 19 20  1  0  0  0
 19 24  1  0  0  0
 20 21  2  0  0  0
 20106  1  0  0  0
 21 23  1  0  0  0
 22 28  1  0  0  0
 22 32  2  0  0  0
 26 27  1  0  0  0
 28107  1  0  0  0
 28108  1  0  0  0
 29109  1  0  0  0
 29110  1  0  0  0
 33 34  1  0  0  0
 33 66  1  0  0  0
 33 70  2  0  0  0
 34 36  1  0  0  0
 34 59  1  0  0  0
 34111  1  0  0  0
 35 44  2  0  0  0
 35 45  1  0  0  0
 35 68  1  0  0  0
 36 56  1  0  0  0
 36112  1  0  0  0
 37 39  1  0  0  0
 37 47  1  0  0  0
 37 66  1  0  0  0
 37113  1  0  0  0
 38 43  2  0  0  0
 38 46  1  0  0  0
 38 47  1  0  0  0
 39 64  1  0  0  0
 39 67  2  0  0  0
 40 52  1  0  0  0
 40 53  2  0  0  0
 40 58  1  0  0  0
 41114  1  0  0  0
 41115  1  0  0  0
 41116  1  0  0  0
 41 48  1  0  0  0
 42 43  1  0  0  0
 42 66  1  0  0  0
 42117  1  0  0  0
 42118  1  0  0  0
 43 44  1  0  0  0
 44119  1  0  0  0
 45 46  2  0  0  0
 45120  1  0  0  0
 46121  1  0  0  0
 47122  1  0  0  0
 47123  1  0  0  0
 48 56  1  0  0  0
 48 65  1  0  0  0
 48124  1  0  0  0
 49 50  1  0  0  0
 49 53  1  0  0  0
 49 64  1  0  0  0
 49125  1  0  0  0
 50 51  1  0  0  0
 50126  1  0  0  0
 50127  1  0  0  0
 51 52  1  0  0  0
 51128  1  0  0  0
 51129  1  0  0  0
 52130  1  0  0  0
 52131  1  0  0  0
 53 54  1  0  0  0
 54 55  2  0  0  0
 54132  1  0  0  0
 55 57  1  0  0  0
 55133  1  0  0  0
 56 69  2  0  0  0
 57 58  2  0  0  0
 57134  1  0  0  0
 58135  1  0  0  0
 59 60  1  0  0  0
 59 61  1  0  0  0
 59 62  1  0  0  0
 60136  1  0  0  0
 60137  1  0  0  0
 60138  1  0  0  0
 61139  1  0  0  0
 61140  1  0  0  0
 61141  1  0  0  0
 62142  1  0  0  0
 62143  1  0  0  0
 62144  1  0  0  0
 63 65  1  0  0  0
 63145  1  0  0  0
 63146  1  0  0  0
 63147  1  0  0  0
 64148  1  0  0  0
 65149  1  0  0  0
 68 84  1  0  0  0
 71 73  2  0  0  0
 71 75  1  0  0  0
 71150  1  0  0  0
 72 74  1  0  0  0
 72 75  2  0  0  0
 72151  1  0  0  0
 73 76  1  0  0  0
 73152  1  0  0  0
 74 76  2  0  0  0
 74153  1  0  0  0
 75 79  1  0  0  0
 76 86  1  0  0  0
 77 82  1  0  0  0
 77 86  1  0  0  0
 77 88  2  0  0  0
 78 83  1  0  0  0
 78 89  2  0  0  0
 78154  1  0  0  0
 79 85  1  0  0  0
 79 90  2  0  0  0
 80 81  1  0  0  0
 80 82  1  0  0  0
 80155  1  0  0  0
 80156  1  0  0  0
 81 86  1  0  0  0
 81157  1  0  0  0
 81158  1  0  0  0
 82 84  1  0  0  0
 82159  1  0  0  0
 83160  1  0  0  0
 83161  1  0  0  0
 83 85  1  0  0  0
 84162  1  0  0  0
 84163  1  0  0  0
 85 87  1  0  0  0
 85164  1  0  0  0
 87165  1  0  0  0
M  ISO  4   1 100  68 101  84 101  87 100
M  END
> <chiral flag>
0

> <version>
0

> <s_m_source_file>
/data/baiqing/PycharmProjects/Reinvent-master-3.2/result/LINK_invent/BTK/process_docking_weight1_custom_product_contain_oxygen_bond_distance_aromatic_linkinvent_7_9_3/rearranged_h_0071.sdf

> <i_m_source_file_index>
23

> <r_mmod_Potential_Energy-OPLS-2005>
-32.0365905761719

> <r_mmod_Stretch_Energy-OPLS-2005>
38.5415878295898

> <r_mmod_Bend_Energy-OPLS-2005>
124.036056518555

> <r_mmod_Torsional_Energy-OPLS-2005>
277.145660400391

> <r_mmod_Improper_Torsional_Energy-OPLS-2005>
6.24689674377441

> <r_mmod_Van_der_Waal_Energy-OPLS-2005>
161.593215942383

> <r_mmod_Electrostatic_Energy-OPLS-2005>
-406.872406005859

> <r_mmod_Solvation_Energy-OPLS-2005>
-241.436370849609

> <b_mmod_Minimization_Converged-OPLS-2005>
0

> <r_mmod_RMS_Derivative-OPLS-2005>
1.93732178211212

$$$$
23
                    3D
 Structure written by MMmdl.
163172  0  0  1  0            999 V2000
  -30.6059  -14.7686   20.3706 C   0  0  0  0  0  0
  -30.4352  -12.4350   19.4964 C   0  0  0  0  0  0
  -29.5158  -12.4108   18.2561 C   0  0  0  0  0  0
  -28.0335  -12.2969   18.6621 C   0  0  0  0  0  0
  -27.6379  -13.2260   19.8408 C   0  0  2  0  0  0
  -28.6846  -13.2014   20.9731 C   0  0  0  0  0  0
  -25.2504  -13.8184   20.5674 C   0  0  0  0  0  0
  -24.1791  -13.0442   20.9208 C   0  0  0  0  0  0
  -24.6379  -11.6909   20.8766 C   0  0  0  0  0  0
  -23.9061  -10.4283   21.0414 C   0  0  0  0  0  0
  -24.3608   -9.4189   21.9189 C   0  0  0  0  0  0
  -23.6285   -8.2215   22.0750 C   0  0  0  0  0  0
  -22.4269   -8.0265   21.3539 C   0  0  0  0  0  0
  -21.9908   -9.0242   20.4646 C   0  0  0  0  0  0
  -22.7238  -10.2122   20.3057 C   0  0  0  0  0  0
  -21.6853   -6.0714   22.5272 C   0  0  0  0  0  0
  -21.4019   -6.5619   23.8203 C   0  0  0  0  0  0
  -21.3666   -5.6770   24.9167 C   0  0  0  0  0  0
  -21.6048   -4.3035   24.7214 C   0  0  0  0  0  0
  -21.8826   -3.8129   23.4337 C   0  0  0  0  0  0
  -21.9198   -4.6949   22.3393 C   0  0  0  0  0  0
  -22.7824  -13.5238   21.1893 C   0  0  0  0  0  0
  -22.1663   -4.2137   21.0970 F   0  0  0  0  0  0
  -21.5642   -3.4515   25.7728 F   0  0  0  0  0  0
  -29.9828  -13.5377   20.3745 N   0  0  0  0  0  0
  -26.2920  -12.9378   20.3262 N   0  0  0  0  0  0
  -25.9303  -11.6530   20.5780 N   0  0  0  0  0  0
  -22.0480  -12.8201   22.0441 N   0  0  0  0  0  0
  -25.4238  -15.1893   20.4032 N   0  0  0  0  0  0
  -31.8238  -14.8321   20.1928 O   0  0  0  0  0  0
  -21.6629   -6.8860   21.4230 O   0  0  0  0  0  0
  -22.3505  -14.5557   20.6780 O   0  0  0  0  0  0
  -24.6358  -31.8544   23.1994 C   0  0  0  0  0  0
  -25.9178  -32.4750   23.8332 C   0  0  1  0  0  0
  -27.2111  -27.2339   20.1119 C   0  0  0  0  0  0
  -25.5958  -33.8556   24.2260 N   0  0  0  0  0  0
  -23.4316  -30.4797   21.5452 C   0  0  2  0  0  0
  -24.8751  -28.9302   20.1064 C   0  0  0  0  0  0
  -22.7527  -29.4594   22.4917 C   0  0  0  0  0  0
  -18.0297  -28.1396   22.8483 C   0  0  0  0  0  0
  -24.1484  -36.7272   23.2641 C   0  0  0  0  0  0
  -25.9826  -30.7558   21.3863 C   0  0  0  0  0  0
  -26.0488  -29.3783   20.7227 C   0  0  0  0  0  0
  -27.2147  -28.5411   20.7183 C   0  0  0  0  0  0
  -26.0148  -26.8792   19.4426 C   0  0  0  0  0  0
  -24.8658  -27.6912   19.4543 C   0  0  0  0  0  0
  -23.6485  -29.8209   20.1586 C   0  0  0  0  0  0
  -25.4115  -36.3072   24.0328 C   0  0  1  0  0  0
  -20.5904  -28.3705   23.1263 C   0  0  2  0  0  0
  -20.6778  -26.9419   22.5405 C   0  0  0  0  0  0
  -19.5749  -26.6385   21.5215 C   0  0  0  0  0  0
  -18.1932  -26.7936   22.1627 C   0  0  0  0  0  0
  -19.1550  -28.8867   23.2864 C   0  0  0  0  0  0
  -18.9469  -30.1469   23.8875 C   0  0  0  0  0  0
  -17.6467  -30.6596   24.0558 C   0  0  0  0  0  0
  -25.9059  -34.9441   23.5093 C   0  0  0  0  0  0
  -16.5359  -29.9087   23.6335 C   0  0  0  0  0  0
  -16.7288  -28.6510   23.0352 C   0  0  0  0  0  0
  -26.4518  -31.6590   25.0741 C   0  0  0  0  0  0
  -25.3712  -31.3770   26.1442 C   0  0  0  0  0  0
  -27.0372  -30.2997   24.6273 C   0  0  0  0  0  0
  -27.6073  -32.4327   25.7512 C   0  0  0  0  0  0
  -27.5575  -37.1801   24.8474 C   0  0  0  0  0  0
  -21.4230  -29.3052   22.3658 N   0  0  0  0  0  0
  -26.4294  -37.3770   23.9399 N   0  0  0  0  0  0
  -24.7029  -31.0477   22.0992 N   0  0  0  0  0  0
  -23.4220  -28.8126   23.3012 O   0  0  0  0  0  0
  -28.3043  -26.3253   20.2032 O   0  0  0  0  0  0
  -26.5624  -34.8918   22.4661 O   0  0  0  0  0  0
  -23.5501  -32.1386   23.7269 O   0  0  0  0  0  0
  -30.4023  -18.6700   17.7114 C   0  0  0  0  0  0
  -29.6462  -18.5204   20.3637 C   0  0  0  0  0  0
  -30.3131  -17.3844   18.2937 C   0  0  0  0  0  0
  -29.6722  -19.8435   19.7303 C   0  0  0  0  0  0
  -30.0991  -19.8598   18.3823 C   0  0  0  0  0  0
  -29.9780  -17.2560   19.6901 C   0  0  0  0  0  0
  -28.4554  -22.1193   20.0051 C   0  0  0  0  0  0
  -30.1862  -23.4081   20.9388 C   0  0  0  0  0  0
  -30.4235  -21.8768   21.1269 C   0  0  0  0  0  0
  -28.7004  -23.5731   20.5920 C   0  0  1  0  0  0
  -29.0740  -15.7434   16.8096 C   0  0  0  0  0  0
  -28.2400  -24.8816   19.7312 C   0  0  0  0  0  0
  -30.4498  -16.2335   17.2741 C   0  0  0  0  0  0
  -29.3931  -21.1697   20.3629 N   0  0  0  0  0  0
  -30.2388  -21.0416   17.6521 N   0  0  0  0  0  0
  -29.8118  -15.9150   20.3486 N   0  0  0  0  0  0
  -27.4693  -21.8792   19.3026 O   0  0  0  0  0  0
  -31.1804  -15.2122   17.6891 F   0  0  0  0  0  0
  -31.0679  -16.6452   16.1652 F   0  0  0  0  0  0
  -31.4779  -12.5479   19.1937 H   0  0  0  0  0  0
  -30.3799  -11.4838   20.0278 H   0  0  0  0  0  0
  -29.7821  -11.5656   17.6193 H   0  0  0  0  0  0
  -29.6751  -13.2948   17.6504 H   0  0  0  0  0  0
  -27.8655  -11.2577   18.9461 H   0  0  0  0  0  0
  -27.3886  -12.4800   17.8031 H   0  0  0  0  0  0
  -27.6216  -14.2371   19.4375 H   0  0  0  0  0  0
  -28.7209  -12.2208   21.4504 H   0  0  0  0  0  0
  -28.4241  -13.9147   21.7561 H   0  0  0  0  0  0
  -25.2739   -9.5665   22.4777 H   0  0  0  0  0  0
  -24.0003   -7.4592   22.7442 H   0  0  0  0  0  0
  -21.0857   -8.8764   19.8926 H   0  0  0  0  0  0
  -22.3708  -10.9667   19.6166 H   0  0  0  0  0  0
  -21.2012   -7.6122   23.9710 H   0  0  0  0  0  0
  -21.1501   -6.0491   25.9077 H   0  0  0  0  0  0
  -22.0617   -2.7592   23.2828 H   0  0  0  0  0  0
  -22.4112  -11.9837   22.4761 H   0  0  0  0  0  0
  -21.1131  -13.1249   22.2740 H   0  0  0  0  0  0
  -24.6603  -15.8473   20.5177 H   0  0  0  0  0  0
  -26.2681  -15.6234   20.0549 H   0  0  0  0  0  0
  -26.7249  -32.5376   23.1070 H   0  0  0  0  0  0
  -25.0109  -33.9685   25.0407 H   0  0  0  0  0  0
  -22.7298  -31.3043   21.4039 H   0  0  0  0  0  0
  -23.3747  -35.9605   23.3337 H   0  0  0  0  0  0
  -24.3566  -36.8856   22.2049 H   0  0  0  0  0  0
  -23.7242  -37.6485   23.6637 H   0  0  0  0  0  0
  -26.1304  -31.5178   20.6192 H   0  0  0  0  0  0
  -26.8577  -30.7987   22.0235 H   0  0  0  0  0  0
  -28.1107  -28.8775   21.2192 H   0  0  0  0  0  0
  -25.9047  -25.9605   18.8931 H   0  0  0  0  0  0
  -23.9718  -27.3550   18.9480 H   0  0  0  0  0  0
  -23.7771  -30.6020   19.4082 H   0  0  0  0  0  0
  -22.7642  -29.2604   19.8495 H   0  0  0  0  0  0
  -25.1300  -36.1922   25.0822 H   0  0  0  0  0  0
  -20.9995  -28.3285   24.1384 H   0  0  0  0  0  0
  -20.5683  -26.2318   23.3616 H   0  0  0  0  0  0
  -21.6643  -26.7440   22.1195 H   0  0  0  0  0  0
  -19.6898  -25.6289   21.1262 H   0  0  0  0  0  0
  -19.6679  -27.3184   20.6735 H   0  0  0  0  0  0
  -17.4199  -26.6695   21.4028 H   0  0  0  0  0  0
  -18.0321  -26.0088   22.9033 H   0  0  0  0  0  0
  -19.7940  -30.7296   24.2232 H   0  0  0  0  0  0
  -17.5018  -31.6269   24.5168 H   0  0  0  0  0  0
  -15.5359  -30.2976   23.7666 H   0  0  0  0  0  0
  -15.8692  -28.0821   22.7069 H   0  0  0  0  0  0
  -24.5880  -30.7141   25.7754 H   0  0  0  0  0  0
  -24.8909  -32.2954   26.4825 H   0  0  0  0  0  0
  -25.7986  -30.8956   27.0247 H   0  0  0  0  0  0
  -26.2983  -29.6738   24.1263 H   0  0  0  0  0  0
  -27.3997  -29.7275   25.4824 H   0  0  0  0  0  0
  -27.8881  -30.4255   23.9575 H   0  0  0  0  0  0
  -27.2695  -33.3637   26.2074 H   0  0  0  0  0  0
  -28.3886  -32.6876   25.0339 H   0  0  0  0  0  0
  -28.0744  -31.8462   26.5435 H   0  0  0  0  0  0
  -28.2624  -38.0069   24.7486 H   0  0  0  0  0  0
  -28.1039  -36.2601   24.6344 H   0  0  0  0  0  0
  -27.2288  -37.1511   25.8878 H   0  0  0  0  0  0
  -20.9436  -29.8782   21.6857 H   0  0  0  0  0  0
  -26.0179  -38.2850   24.1369 H   0  0  0  0  0  0
  -30.6736  -18.7639   16.6707 H   0  0  0  0  0  0
  -29.3439  -18.4751   21.3998 H   0  0  0  0  0  0
  -30.8008  -23.7832   20.1189 H   0  0  0  0  0  0
  -30.4628  -23.9676   21.8329 H   0  0  0  0  0  0
  -30.3211  -21.5999   22.1765 H   0  0  0  0  0  0
  -31.4247  -21.5862   20.8063 H   0  0  0  0  0  0
  -28.1380  -23.5913   21.5257 H   0  0  0  0  0  0
  -28.4857  -15.3601   17.6402 H   0  0  0  0  0  0
  -29.1689  -14.9540   16.0634 H   0  0  0  0  0  0
  -28.5069  -16.5553   16.3543 H   0  0  0  0  0  0
  -27.2259  -24.6152   19.4610 H   0  0  0  0  0  0
  -28.7806  -24.8578   18.7843 H   0  0  0  0  0  0
  -30.3382  -20.9625   16.6443 H   0  0  0  0  0  0
  -29.6406  -21.8181   17.9062 H   0  0  0  0  0  0
  -28.8892  -15.7509   20.7231 H   0  0  0  0  0  0
  1 25  1  0  0  0
  1 30  2  0  0  0
  1 86  1  0  0  0
  2  3  1  0  0  0
  2 25  1  0  0  0
  2 90  1  0  0  0
  2 91  1  0  0  0
  3  4  1  0  0  0
  3 92  1  0  0  0
  3 93  1  0  0  0
  4  5  1  0  0  0
  4 94  1  0  0  0
  4 95  1  0  0  0
  5  6  1  0  0  0
  5 26  1  0  0  0
  5 96  1  0  0  0
  6 25  1  0  0  0
  6 97  1  0  0  0
  6 98  1  0  0  0
  7  8  2  0  0  0
  7 26  1  0  0  0
  7 29  1  0  0  0
  8  9  1  0  0  0
  8 22  1  0  0  0
  9 10  1  0  0  0
  9 27  2  0  0  0
 10 11  2  0  0  0
 10 15  1  0  0  0
 11 12  1  0  0  0
 11 99  1  0  0  0
 12 13  2  0  0  0
 12100  1  0  0  0
 13 14  1  0  0  0
 13 31  1  0  0  0
 14 15  2  0  0  0
 14101  1  0  0  0
 15102  1  0  0  0
 16 17  2  0  0  0
 16 21  1  0  0  0
 16 31  1  0  0  0
 17 18  1  0  0  0
 17103  1  0  0  0
 18 19  2  0  0  0
 18104  1  0  0  0
 19 20  1  0  0  0
 19 24  1  0  0  0
 20 21  2  0  0  0
 20105  1  0  0  0
 21 23  1  0  0  0
 22 28  1  0  0  0
 22 32  2  0  0  0
 26 27  1  0  0  0
 28106  1  0  0  0
 28107  1  0  0  0
 29108  1  0  0  0
 29109  1  0  0  0
 33 34  1  0  0  0
 33 66  1  0  0  0
 33 70  2  0  0  0
 34 36  1  0  0  0
 34 59  1  0  0  0
 34110  1  0  0  0
 35 44  2  0  0  0
 35 45  1  0  0  0
 35 68  1  0  0  0
 36 56  1  0  0  0
 36111  1  0  0  0
 37 39  1  0  0  0
 37 47  1  0  0  0
 37 66  1  0  0  0
 37112  1  0  0  0
 38 43  2  0  0  0
 38 46  1  0  0  0
 38 47  1  0  0  0
 39 64  1  0  0  0
 39 67  2  0  0  0
 40 52  1  0  0  0
 40 53  2  0  0  0
 40 58  1  0  0  0
 41113  1  0  0  0
 41114  1  0  0  0
 41115  1  0  0  0
 41 48  1  0  0  0
 42 43  1  0  0  0
 42 66  1  0  0  0
 42116  1  0  0  0
 42117  1  0  0  0
 43 44  1  0  0  0
 44118  1  0  0  0
 45 46  2  0  0  0
 45119  1  0  0  0
 46120  1  0  0  0
 47121  1  0  0  0
 47122  1  0  0  0
 48 56  1  0  0  0
 48 65  1  0  0  0
 48123  1  0  0  0
 49 50  1  0  0  0
 49 53  1  0  0  0
 49 64  1  0  0  0
 49124  1  0  0  0
 50 51  1  0  0  0
 50125  1  0  0  0
 50126  1  0  0  0
 51 52  1  0  0  0
 51127  1  0  0  0
 51128  1  0  0  0
 52129  1  0  0  0
 52130  1  0  0  0
 53 54  1  0  0  0
 54 55  2  0  0  0
 54131  1  0  0  0
 55 57  1  0  0  0
 55132  1  0  0  0
 56 69  2  0  0  0
 57 58  2  0  0  0
 57133  1  0  0  0
 58134  1  0  0  0
 59 60  1  0  0  0
 59 61  1  0  0  0
 59 62  1  0  0  0
 60135  1  0  0  0
 60136  1  0  0  0
 60137  1  0  0  0
 61138  1  0  0  0
 61139  1  0  0  0
 61140  1  0  0  0
 62141  1  0  0  0
 62142  1  0  0  0
 62143  1  0  0  0
 63 65  1  0  0  0
 63144  1  0  0  0
 63145  1  0  0  0
 63146  1  0  0  0
 64147  1  0  0  0
 65148  1  0  0  0
 68 82  1  0  0  0
 71 73  2  0  0  0
 71 75  1  0  0  0
 71149  1  0  0  0
 72 74  1  0  0  0
 72 76  2  0  0  0
 72150  1  0  0  0
 73 76  1  0  0  0
 73 83  1  0  0  0
 74 75  2  0  0  0
 74 84  1  0  0  0
 75 85  1  0  0  0
 76 86  1  0  0  0
 77 80  1  0  0  0
 77 84  1  0  0  0
 77 87  2  0  0  0
 78 79  1  0  0  0
 78 80  1  0  0  0
 78151  1  0  0  0
 78152  1  0  0  0
 79 84  1  0  0  0
 79153  1  0  0  0
 79154  1  0  0  0
 80 82  1  0  0  0
 80155  1  0  0  0
 81156  1  0  0  0
 81157  1  0  0  0
 81158  1  0  0  0
 81 83  1  0  0  0
 82159  1  0  0  0
 82160  1  0  0  0
 83 88  1  0  0  0
 83 89  1  0  0  0
 85161  1  0  0  0
 85162  1  0  0  0
 86163  1  0  0  0
M  ISO  4   1 100  68 101  82 101  86 100
M  END
> <chiral flag>
0

> <version>
0

> <s_m_source_file>
/data/baiqing/PycharmProjects/Reinvent-master-3.2/result/LINK_invent/BTK/process_docking_weight1_custom_product_contain_oxygen_bond_distance_aromatic_linkinvent_7_9_3/rearranged_h_0071.sdf

> <i_m_source_file_index>
24

> <r_mmod_Potential_Energy-OPLS-2005>
320.542022705078

> <r_mmod_Stretch_Energy-OPLS-2005>
145.907043457031

> <r_mmod_Bend_Energy-OPLS-2005>
223.192260742188

> <r_mmod_Torsional_Energy-OPLS-2005>
334.180877685547

> <r_mmod_Improper_Torsional_Energy-OPLS-2005>
11.5000448226929

> <r_mmod_Van_der_Waal_Energy-OPLS-2005>
149.356475830078

> <r_mmod_Electrostatic_Energy-OPLS-2005>
-417.196563720703

> <r_mmod_Solvation_Energy-OPLS-2005>
-233.411758422852

> <b_mmod_Minimization_Converged-OPLS-2005>
0

> <r_mmod_RMS_Derivative-OPLS-2005>
1.93006086349487

$$$$
24
                    3D
 Structure written by MMmdl.
173183  0  0  1  0            999 V2000
  -30.6107  -14.7413   20.4542 C   0  0  0  0  0  0
  -30.4242  -12.4508   19.4783 C   0  0  0  0  0  0
  -29.5069  -12.5312   18.2382 C   0  0  0  0  0  0
  -28.0317  -12.3545   18.6438 C   0  0  0  0  0  0
  -27.6429  -13.2391   19.8579 C   0  0  2  0  0  0
  -28.6854  -13.1565   20.9949 C   0  0  0  0  0  0
  -25.2501  -13.8212   20.5723 C   0  0  0  0  0  0
  -24.1792  -13.0443   20.9197 C   0  0  0  0  0  0
  -24.6390  -11.6922   20.8713 C   0  0  0  0  0  0
  -23.9070  -10.4296   21.0368 C   0  0  0  0  0  0
  -24.3617   -9.4216   21.9160 C   0  0  0  0  0  0
  -23.6301   -8.2253   22.0742 C   0  0  0  0  0  0
  -22.4288   -8.0280   21.3532 C   0  0  0  0  0  0
  -21.9906   -9.0252   20.4639 C   0  0  0  0  0  0
  -22.7229  -10.2134   20.3037 C   0  0  0  0  0  0
  -21.6871   -6.0727   22.5275 C   0  0  0  0  0  0
  -21.4027   -6.5629   23.8208 C   0  0  0  0  0  0
  -21.3666   -5.6784   24.9169 C   0  0  0  0  0  0
  -21.6051   -4.3049   24.7230 C   0  0  0  0  0  0
  -21.8823   -3.8138   23.4351 C   0  0  0  0  0  0
  -21.9207   -4.6952   22.3400 C   0  0  0  0  0  0
  -22.7805  -13.5205   21.1873 C   0  0  0  0  0  0
  -22.1666   -4.2127   21.0976 F   0  0  0  0  0  0
  -21.5630   -3.4529   25.7746 F   0  0  0  0  0  0
  -29.9940  -13.5078   20.4272 N   0  0  0  0  0  0
  -26.2938  -12.9439   20.3317 N   0  0  0  0  0  0
  -25.9329  -11.6561   20.5736 N   0  0  0  0  0  0
  -22.0480  -12.8187   22.0435 N   0  0  0  0  0  0
  -25.4213  -15.1953   20.4189 N   0  0  0  0  0  0
  -31.7750  -14.8497   20.0590 O   0  0  0  0  0  0
  -21.6659   -6.8869   21.4236 O   0  0  0  0  0  0
  -22.3471  -14.5513   20.6735 O   0  0  0  0  0  0
  -24.6350  -31.8540   23.1978 C   0  0  0  0  0  0
  -25.9163  -32.4747   23.8328 C   0  0  1  0  0  0
  -27.2166  -27.2398   20.1206 C   0  0  0  0  0  0
  -25.5956  -33.8550   24.2253 N   0  0  0  0  0  0
  -23.4327  -30.4771   21.5425 C   0  0  2  0  0  0
  -24.8793  -28.9271   20.1098 C   0  0  0  0  0  0
  -22.7525  -29.4596   22.4905 C   0  0  0  0  0  0
  -18.0298  -28.1397   22.8499 C   0  0  0  0  0  0
  -24.1493  -36.7280   23.2638 C   0  0  0  0  0  0
  -25.9827  -30.7590   21.3813 C   0  0  0  0  0  0
  -26.0548  -29.3807   20.7214 C   0  0  0  0  0  0
  -27.2276  -28.5515   20.7153 C   0  0  0  0  0  0
  -26.0132  -26.8694   19.4735 C   0  0  0  0  0  0
  -24.8650  -27.6803   19.4741 C   0  0  0  0  0  0
  -23.6522  -29.8162   20.1581 C   0  0  0  0  0  0
  -25.4120  -36.3058   24.0320 C   0  0  1  0  0  0
  -20.5904  -28.3713   23.1273 C   0  0  2  0  0  0
  -20.6787  -26.9429   22.5407 C   0  0  0  0  0  0
  -19.5751  -26.6394   21.5226 C   0  0  0  0  0  0
  -18.1936  -26.7938   22.1637 C   0  0  0  0  0  0
  -19.1553  -28.8875   23.2881 C   0  0  0  0  0  0
  -18.9464  -30.1475   23.8899 C   0  0  0  0  0  0
  -17.6460  -30.6599   24.0571 C   0  0  0  0  0  0
  -25.9066  -34.9437   23.5088 C   0  0  0  0  0  0
  -16.5353  -29.9088   23.6336 C   0  0  0  0  0  0
  -16.7280  -28.6503   23.0359 C   0  0  0  0  0  0
  -26.4515  -31.6565   25.0724 C   0  0  0  0  0  0
  -25.3740  -31.3711   26.1440 C   0  0  0  0  0  0
  -27.0359  -30.2972   24.6226 C   0  0  0  0  0  0
  -27.6065  -32.4305   25.7513 C   0  0  0  0  0  0
  -27.5581  -37.1795   24.8462 C   0  0  0  0  0  0
  -21.4228  -29.3048   22.3659 N   0  0  0  0  0  0
  -26.4289  -37.3767   23.9416 N   0  0  0  0  0  0
  -24.7029  -31.0481   22.0968 N   0  0  0  0  0  0
  -23.4208  -28.8134   23.3016 O   0  0  0  0  0  0
  -28.2915  -26.3078   20.1778 O   0  0  0  0  0  0
  -26.5641  -34.8915   22.4657 O   0  0  0  0  0  0
  -23.5487  -32.1364   23.7253 O   0  0  0  0  0  0
  -29.2044  -18.1632   17.8865 C   0  0  0  0  0  0
  -29.4549  -17.0326   18.6802 C   0  0  0  0  0  0
  -29.7127  -18.5098   20.5869 C   0  0  0  0  0  0
  -29.2426  -19.4882   18.3887 C   0  0  0  0  0  0
  -29.4775  -19.7150   19.7832 C   0  0  0  0  0  0
  -29.7313  -17.1484   20.0536 C   0  0  0  0  0  0
  -30.3053  -23.8844   20.4717 C   0  0  0  0  0  0
  -28.9992  -23.6599   20.2517 C   0  0  0  0  0  0
  -31.2255  -22.7581   20.6071 C   0  0  0  0  0  0
  -28.5338  -22.1431   20.2058 C   0  0  0  0  0  0
  -27.7399  -21.4513   15.4715 C   0  0  0  0  0  0
  -29.2244  -21.4261   15.0779 C   0  0  0  0  0  0
  -27.6288  -20.7147   16.8114 C   0  0  0  0  0  0
  -29.9213  -20.5182   16.0962 C   0  0  0  0  0  0
  -29.0588  -20.6220   17.3646 C   0  0  0  0  0  0
  -33.4067  -23.1420   19.4348 C   0  0  0  0  0  0
  -27.9562  -24.8408   20.0042 C   0  0  0  0  0  0
  -32.6978  -23.0048   20.7930 C   0  0  0  0  0  0
  -30.8736  -21.5065   20.5341 N   0  0  0  0  0  0
  -29.6198  -21.0759   20.2927 N   0  0  0  0  0  0
  -29.8788  -15.8708   20.8020 N   0  0  0  0  0  0
  -31.4663  -12.5611   19.1759 H   0  0  0  0  0  0
  -30.3543  -11.4669   19.9438 H   0  0  0  0  0  0
  -29.7860  -11.7743   17.5035 H   0  0  0  0  0  0
  -29.6390  -13.4959   17.7466 H   0  0  0  0  0  0
  -27.8770  -11.3023   18.8835 H   0  0  0  0  0  0
  -27.3800  -12.5717   17.7970 H   0  0  0  0  0  0
  -27.6395  -14.2664   19.4914 H   0  0  0  0  0  0
  -28.7137  -12.1516   21.4189 H   0  0  0  0  0  0
  -28.4158  -13.8261   21.8139 H   0  0  0  0  0  0
  -25.2763   -9.5705   22.4735 H   0  0  0  0  0  0
  -24.0023   -7.4645   22.7459 H   0  0  0  0  0  0
  -21.0838   -8.8753   19.8947 H   0  0  0  0  0  0
  -22.3669  -10.9662   19.6149 H   0  0  0  0  0  0
  -21.2015   -7.6135   23.9700 H   0  0  0  0  0  0
  -21.1486   -6.0512   25.9065 H   0  0  0  0  0  0
  -22.0603   -2.7595   23.2861 H   0  0  0  0  0  0
  -22.4121  -11.9851   22.4813 H   0  0  0  0  0  0
  -21.1093  -13.1179   22.2661 H   0  0  0  0  0  0
  -24.6593  -15.8542   20.5371 H   0  0  0  0  0  0
  -26.2831  -15.6377   20.1253 H   0  0  0  0  0  0
  -26.7241  -32.5384   23.1075 H   0  0  0  0  0  0
  -25.0105  -33.9691   25.0395 H   0  0  0  0  0  0
  -22.7298  -31.3008   21.3967 H   0  0  0  0  0  0
  -23.3758  -35.9610   23.3275 H   0  0  0  0  0  0
  -24.3582  -36.8928   22.2058 H   0  0  0  0  0  0
  -23.7244  -37.6472   23.6677 H   0  0  0  0  0  0
  -26.1241  -31.5163   20.6083 H   0  0  0  0  0  0
  -26.8586  -30.8089   22.0167 H   0  0  0  0  0  0
  -28.1253  -28.8917   21.2132 H   0  0  0  0  0  0
  -25.9112  -25.9219   18.9682 H   0  0  0  0  0  0
  -23.9671  -27.3289   18.9851 H   0  0  0  0  0  0
  -23.7815  -30.5942   19.4044 H   0  0  0  0  0  0
  -22.7682  -29.2538   19.8518 H   0  0  0  0  0  0
  -25.1302  -36.1895   25.0813 H   0  0  0  0  0  0
  -21.0003  -28.3291   24.1389 H   0  0  0  0  0  0
  -20.5707  -26.2329   23.3621 H   0  0  0  0  0  0
  -21.6650  -26.7454   22.1188 H   0  0  0  0  0  0
  -19.6911  -25.6304   21.1258 H   0  0  0  0  0  0
  -19.6687  -27.3205   20.6761 H   0  0  0  0  0  0
  -17.4209  -26.6712   21.4028 H   0  0  0  0  0  0
  -18.0316  -26.0078   22.9031 H   0  0  0  0  0  0
  -19.7930  -30.7306   24.2258 H   0  0  0  0  0  0
  -17.4995  -31.6270   24.5174 H   0  0  0  0  0  0
  -15.5343  -30.2982   23.7649 H   0  0  0  0  0  0
  -15.8687  -28.0814   22.7071 H   0  0  0  0  0  0
  -24.5941  -30.7031   25.7763 H   0  0  0  0  0  0
  -24.8912  -32.2883   26.4831 H   0  0  0  0  0  0
  -25.8068  -30.8915   27.0234 H   0  0  0  0  0  0
  -26.2942  -29.6721   24.1243 H   0  0  0  0  0  0
  -27.4013  -29.7230   25.4751 H   0  0  0  0  0  0
  -27.8836  -30.4221   23.9489 H   0  0  0  0  0  0
  -27.2671  -33.3620   26.2057 H   0  0  0  0  0  0
  -28.3908  -32.6839   25.0368 H   0  0  0  0  0  0
  -28.0699  -31.8450   26.5464 H   0  0  0  0  0  0
  -28.2574  -38.0113   24.7518 H   0  0  0  0  0  0
  -28.1101  -36.2643   24.6266 H   0  0  0  0  0  0
  -27.2304  -37.1411   25.8866 H   0  0  0  0  0  0
  -20.9431  -29.8766   21.6854 H   0  0  0  0  0  0
  -26.0155  -38.2837   24.1419 H   0  0  0  0  0  0
  -28.9854  -17.9861   16.8445 H   0  0  0  0  0  0
  -29.4074  -16.0587   18.2123 H   0  0  0  0  0  0
  -29.9031  -18.6396   21.6418 H   0  0  0  0  0  0
  -30.6944  -24.8922   20.5141 H   0  0  0  0  0  0
  -27.9138  -21.9998   19.3256 H   0  0  0  0  0  0
  -27.8576  -21.9894   21.0473 H   0  0  0  0  0  0
  -27.1161  -20.9712   14.7167 H   0  0  0  0  0  0
  -27.3933  -22.4804   15.5688 H   0  0  0  0  0  0
  -29.6345  -22.4364   15.1358 H   0  0  0  0  0  0
  -29.3743  -21.0755   14.0553 H   0  0  0  0  0  0
  -27.2357  -19.7144   16.6217 H   0  0  0  0  0  0
  -26.9350  -21.1970   17.4992 H   0  0  0  0  0  0
  -30.9612  -20.7996   16.2680 H   0  0  0  0  0  0
  -29.9272  -19.5107   15.6852 H   0  0  0  0  0  0
  -29.3352  -21.5820   17.7945 H   0  0  0  0  0  0
  -34.4769  -23.2978   19.5626 H   0  0  0  0  0  0
  -33.0157  -23.9899   18.8712 H   0  0  0  0  0  0
  -33.2754  -22.2491   18.8234 H   0  0  0  0  0  0
  -27.0959  -24.6166   20.6359 H   0  0  0  0  0  0
  -27.6341  -24.6919   18.9740 H   0  0  0  0  0  0
  -33.1497  -22.1892   21.3608 H   0  0  0  0  0  0
  -32.8548  -23.9075   21.3844 H   0  0  0  0  0  0
  -29.0947  -15.6624   21.4029 H   0  0  0  0  0  0
  1 25  1  0  0  0
  1 30  2  0  0  0
  1 91  1  0  0  0
  2  3  1  0  0  0
  2 25  1  0  0  0
  2 92  1  0  0  0
  2 93  1  0  0  0
  3  4  1  0  0  0
  3 94  1  0  0  0
  3 95  1  0  0  0
  4  5  1  0  0  0
  4 96  1  0  0  0
  4 97  1  0  0  0
  5  6  1  0  0  0
  5 26  1  0  0  0
  5 98  1  0  0  0
  6 25  1  0  0  0
  6 99  1  0  0  0
  6100  1  0  0  0
  7  8  2  0  0  0
  7 26  1  0  0  0
  7 29  1  0  0  0
  8  9  1  0  0  0
  8 22  1  0  0  0
  9 10  1  0  0  0
  9 27  2  0  0  0
 10 11  2  0  0  0
 10 15  1  0  0  0
 11 12  1  0  0  0
 11101  1  0  0  0
 12 13  2  0  0  0
 12102  1  0  0  0
 13 14  1  0  0  0
 13 31  1  0  0  0
 14 15  2  0  0  0
 14103  1  0  0  0
 15104  1  0  0  0
 16 17  2  0  0  0
 16 21  1  0  0  0
 16 31  1  0  0  0
 17 18  1  0  0  0
 17105  1  0  0  0
 18 19  2  0  0  0
 18106  1  0  0  0
 19 20  1  0  0  0
 19 24  1  0  0  0
 20 21  2  0  0  0
 20107  1  0  0  0
 21 23  1  0  0  0
 22 28  1  0  0  0
 22 32  2  0  0  0
 26 27  1  0  0  0
 28108  1  0  0  0
 28109  1  0  0  0
 29110  1  0  0  0
 29111  1  0  0  0
 33 34  1  0  0  0
 33 66  1  0  0  0
 33 70  2  0  0  0
 34 36  1  0  0  0
 34 59  1  0  0  0
 34112  1  0  0  0
 35 44  2  0  0  0
 35 45  1  0  0  0
 35 68  1  0  0  0
 36 56  1  0  0  0
 36113  1  0  0  0
 37 39  1  0  0  0
 37 47  1  0  0  0
 37 66  1  0  0  0
 37114  1  0  0  0
 38 43  2  0  0  0
 38 46  1  0  0  0
 38 47  1  0  0  0
 39 64  1  0  0  0
 39 67  2  0  0  0
 40 52  1  0  0  0
 40 53  2  0  0  0
 40 58  1  0  0  0
 41115  1  0  0  0
 41116  1  0  0  0
 41117  1  0  0  0
 41 48  1  0  0  0
 42 43  1  0  0  0
 42 66  1  0  0  0
 42118  1  0  0  0
 42119  1  0  0  0
 43 44  1  0  0  0
 44120  1  0  0  0
 45 46  2  0  0  0
 45121  1  0  0  0
 46122  1  0  0  0
 47123  1  0  0  0
 47124  1  0  0  0
 48 56  1  0  0  0
 48 65  1  0  0  0
 48125  1  0  0  0
 49 50  1  0  0  0
 49 53  1  0  0  0
 49 64  1  0  0  0
 49126  1  0  0  0
 50 51  1  0  0  0
 50127  1  0  0  0
 50128  1  0  0  0
 51 52  1  0  0  0
 51129  1  0  0  0
 51130  1  0  0  0
 52131  1  0  0  0
 52132  1  0  0  0
 53 54  1  0  0  0
 54 55  2  0  0  0
 54133  1  0  0  0
 55 57  1  0  0  0
 55134  1  0  0  0
 56 69  2  0  0  0
 57 58  2  0  0  0
 57135  1  0  0  0
 58136  1  0  0  0
 59 60  1  0  0  0
 59 61  1  0  0  0
 59 62  1  0  0  0
 60137  1  0  0  0
 60138  1  0  0  0
 60139  1  0  0  0
 61140  1  0  0  0
 61141  1  0  0  0
 61142  1  0  0  0
 62143  1  0  0  0
 62144  1  0  0  0
 62145  1  0  0  0
 63 65  1  0  0  0
 63146  1  0  0  0
 63147  1  0  0  0
 63148  1  0  0  0
 64149  1  0  0  0
 65150  1  0  0  0
 68 87  1  0  0  0
 71 72  2  0  0  0
 71 74  1  0  0  0
 71151  1  0  0  0
 72 76  1  0  0  0
 72152  1  0  0  0
 73 75  1  0  0  0
 73 76  2  0  0  0
 73153  1  0  0  0
 74 75  2  0  0  0
 74 85  1  0  0  0
 75 90  1  0  0  0
 76 91  1  0  0  0
 77 78  2  0  0  0
 77 79  1  0  0  0
 77154  1  0  0  0
 78 80  1  0  0  0
 78 87  1  0  0  0
 79 88  1  0  0  0
 79 89  2  0  0  0
 80 90  1  0  0  0
 80155  1  0  0  0
 80156  1  0  0  0
 81 82  1  0  0  0
 81 83  1  0  0  0
 81157  1  0  0  0
 81158  1  0  0  0
 82 84  1  0  0  0
 82159  1  0  0  0
 82160  1  0  0  0
 83 85  1  0  0  0
 83161  1  0  0  0
 83162  1  0  0  0
 84 85  1  0  0  0
 84163  1  0  0  0
 84164  1  0  0  0
 85165  1  0  0  0
 86 88  1  0  0  0
 86166  1  0  0  0
 86167  1  0  0  0
 86168  1  0  0  0
 87169  1  0  0  0
 87170  1  0  0  0
 88171  1  0  0  0
 88172  1  0  0  0
 89 90  1  0  0  0
 91173  1  0  0  0
M  ISO  4   1 100  68 101  87 101  91 100
M  END
> <chiral flag>
0

> <version>
0

> <s_m_source_file>
/data/baiqing/PycharmProjects/Reinvent-master-3.2/result/LINK_invent/BTK/process_docking_weight1_custom_product_contain_oxygen_bond_distance_aromatic_linkinvent_7_9_3/rearranged_h_0071.sdf

> <i_m_source_file_index>
25

> <r_mmod_Potential_Energy-OPLS-2005>
387.557586669922

> <r_mmod_Stretch_Energy-OPLS-2005>
139.135528564453

> <r_mmod_Bend_Energy-OPLS-2005>
211.267807006836

> <r_mmod_Torsional_Energy-OPLS-2005>
333.128112792969

> <r_mmod_Improper_Torsional_Energy-OPLS-2005>
6.57566833496094

> <r_mmod_Van_der_Waal_Energy-OPLS-2005>
155.195541381836

> <r_mmod_Electrostatic_Energy-OPLS-2005>
-332.634918212891

> <r_mmod_Solvation_Energy-OPLS-2005>
-216.447555541992

> <b_mmod_Minimization_Converged-OPLS-2005>
0

> <r_mmod_RMS_Derivative-OPLS-2005>
2.22124600410461

$$$$
25
                    3D
 Structure written by MMmdl.
158167  0  0  1  0            999 V2000
  -30.5907  -14.7885   20.4700 C   0  0  0  0  0  0
  -30.4535  -12.4918   19.4693 C   0  0  0  0  0  0
  -29.5219  -12.5157   18.2363 C   0  0  0  0  0  0
  -28.0502  -12.3254   18.6543 C   0  0  0  0  0  0
  -27.6452  -13.2290   19.8494 C   0  0  2  0  0  0
  -28.6940  -13.1755   20.9814 C   0  0  0  0  0  0
  -25.2562  -13.8173   20.5725 C   0  0  0  0  0  0
  -24.1822  -13.0447   20.9197 C   0  0  0  0  0  0
  -24.6383  -11.6906   20.8721 C   0  0  0  0  0  0
  -23.9048  -10.4294   21.0388 C   0  0  0  0  0  0
  -24.3590   -9.4218   21.9178 C   0  0  0  0  0  0
  -23.6264   -8.2253   22.0750 C   0  0  0  0  0  0
  -22.4244   -8.0295   21.3542 C   0  0  0  0  0  0
  -21.9875   -9.0267   20.4649 C   0  0  0  0  0  0
  -22.7208  -10.2139   20.3059 C   0  0  0  0  0  0
  -21.6859   -6.0722   22.5262 C   0  0  0  0  0  0
  -21.4029   -6.5616   23.8193 C   0  0  0  0  0  0
  -21.3666   -5.6772   24.9156 C   0  0  0  0  0  0
  -21.6030   -4.3038   24.7202 C   0  0  0  0  0  0
  -21.8832   -3.8131   23.4330 C   0  0  0  0  0  0
  -21.9201   -4.6954   22.3390 C   0  0  0  0  0  0
  -22.7852  -13.5285   21.1838 C   0  0  0  0  0  0
  -22.1669   -4.2161   21.0961 F   0  0  0  0  0  0
  -21.5622   -3.4518   25.7718 F   0  0  0  0  0  0
  -29.9835  -13.5526   20.3880 N   0  0  0  0  0  0
  -26.2965  -12.9361   20.3273 N   0  0  0  0  0  0
  -25.9323  -11.6509   20.5705 N   0  0  0  0  0  0
  -22.0433  -12.8313   22.0372 N   0  0  0  0  0  0
  -25.4338  -15.1888   20.4238 N   0  0  0  0  0  0
  -31.7944  -14.8922   20.2127 O   0  0  0  0  0  0
  -21.6643   -6.8862   21.4219 O   0  0  0  0  0  0
  -22.3581  -14.5606   20.6699 O   0  0  0  0  0  0
  -24.6375  -31.8525   23.2000 C   0  0  0  0  0  0
  -25.9186  -32.4732   23.8346 C   0  0  1  0  0  0
  -27.2074  -27.2222   20.1334 C   0  0  0  0  0  0
  -25.5965  -33.8537   24.2274 N   0  0  0  0  0  0
  -23.4344  -30.4824   21.5441 C   0  0  2  0  0  0
  -24.8800  -28.9345   20.1061 C   0  0  0  0  0  0
  -22.7545  -29.4591   22.4900 C   0  0  0  0  0  0
  -18.0302  -28.1374   22.8501 C   0  0  0  0  0  0
  -24.1487  -36.7274   23.2637 C   0  0  0  0  0  0
  -25.9878  -30.7577   21.3850 C   0  0  0  0  0  0
  -26.0574  -29.3799   20.7213 C   0  0  0  0  0  0
  -27.2236  -28.5372   20.7249 C   0  0  0  0  0  0
  -25.9905  -26.8511   19.5102 C   0  0  0  0  0  0
  -24.8549  -27.6803   19.4873 C   0  0  0  0  0  0
  -23.6541  -29.8280   20.1565 C   0  0  0  0  0  0
  -25.4103  -36.3054   24.0334 C   0  0  1  0  0  0
  -20.5914  -28.3686   23.1264 C   0  0  2  0  0  0
  -20.6788  -26.9397   22.5404 C   0  0  0  0  0  0
  -19.5740  -26.6364   21.5229 C   0  0  0  0  0  0
  -18.1926  -26.7923   22.1638 C   0  0  0  0  0  0
  -19.1557  -28.8851   23.2880 C   0  0  0  0  0  0
  -18.9471  -30.1459   23.8889 C   0  0  0  0  0  0
  -17.6461  -30.6580   24.0551 C   0  0  0  0  0  0
  -25.9052  -34.9422   23.5100 C   0  0  0  0  0  0
  -16.5356  -29.9064   23.6323 C   0  0  0  0  0  0
  -16.7287  -28.6477   23.0362 C   0  0  0  0  0  0
  -26.4528  -31.6563   25.0744 C   0  0  0  0  0  0
  -25.3749  -31.3740   26.1473 C   0  0  0  0  0  0
  -27.0370  -30.2964   24.6256 C   0  0  0  0  0  0
  -27.6067  -32.4323   25.7515 C   0  0  0  0  0  0
  -27.5582  -37.1780   24.8457 C   0  0  0  0  0  0
  -21.4245  -29.3047   22.3663 N   0  0  0  0  0  0
  -26.4272  -37.3758   23.9425 N   0  0  0  0  0  0
  -24.7061  -31.0484   22.0986 N   0  0  0  0  0  0
  -23.4246  -28.8098   23.2967 O   0  0  0  0  0  0
  -28.2559  -26.2549   20.2171 O   0  0  0  0  0  0
  -26.5612  -34.8902   22.4664 O   0  0  0  0  0  0
  -23.5519  -32.1365   23.7281 O   0  0  0  0  0  0
  -30.7674  -19.0137   22.5774 C   0  0  0  0  0  0
  -30.2935  -20.1054   21.8150 C   0  0  0  0  0  0
  -29.5093  -18.5005   20.1749 C   0  0  0  0  0  0
  -30.6358  -17.6683   22.1604 C   0  0  0  0  0  0
  -29.6688  -19.9135   20.5653 C   0  0  0  0  0  0
  -30.0127  -17.3483   20.9235 C   0  0  0  0  0  0
  -28.5041  -23.7449   19.3420 C   0  0  0  0  0  0
  -28.2487  -23.1474   18.0282 C   0  0  0  0  0  0
  -29.5683  -21.0602   18.4023 C   0  0  0  0  0  0
  -28.2384  -25.1321   19.3349 C   0  0  0  0  0  0
  -29.0123  -22.5721   20.3278 C   0  0  0  0  0  0
  -29.3505  -22.2635   17.4894 C   0  0  0  0  0  0
  -31.1303  -16.5858   23.1087 C   0  0  0  0  0  0
  -29.3298  -21.1418   19.7474 N   0  0  0  0  0  0
  -29.7701  -15.9154   20.5574 N   0  0  0  0  0  0
  -27.2269  -23.3442   17.3600 O   0  0  0  0  0  0
  -30.0000  -20.0470   17.8381 O   0  0  0  0  0  0
  -31.4878  -12.6496   19.1577 H   0  0  0  0  0  0
  -30.4318  -11.5185   19.9627 H   0  0  0  0  0  0
  -29.8136  -11.7445   17.5221 H   0  0  0  0  0  0
  -29.6325  -13.4721   17.7200 H   0  0  0  0  0  0
  -27.9140  -11.2767   18.9223 H   0  0  0  0  0  0
  -27.3948  -12.5122   17.8021 H   0  0  0  0  0  0
  -27.6329  -14.2463   19.4584 H   0  0  0  0  0  0
  -28.7447  -12.1770   21.4202 H   0  0  0  0  0  0
  -28.4265  -13.8532   21.7950 H   0  0  0  0  0  0
  -25.2713   -9.5724   22.4770 H   0  0  0  0  0  0
  -23.9973   -7.4644   22.7476 H   0  0  0  0  0  0
  -21.0802   -8.8798   19.8946 H   0  0  0  0  0  0
  -22.3653  -10.9691   19.6183 H   0  0  0  0  0  0
  -21.2027   -7.6127   23.9707 H   0  0  0  0  0  0
  -21.1474   -6.0489   25.9056 H   0  0  0  0  0  0
  -22.0609   -2.7596   23.2826 H   0  0  0  0  0  0
  -22.3985  -11.9978   22.4826 H   0  0  0  0  0  0
  -21.1061  -13.1411   22.2517 H   0  0  0  0  0  0
  -24.6808  -15.8527   20.5686 H   0  0  0  0  0  0
  -26.2924  -15.6279   20.1207 H   0  0  0  0  0  0
  -26.7263  -32.5379   23.1096 H   0  0  0  0  0  0
  -25.0128  -33.9656   25.0434 H   0  0  0  0  0  0
  -22.7320  -31.3076   21.4040 H   0  0  0  0  0  0
  -23.3756  -35.9599   23.3259 H   0  0  0  0  0  0
  -24.3606  -36.8937   22.2067 H   0  0  0  0  0  0
  -23.7233  -37.6455   23.6689 H   0  0  0  0  0  0
  -26.1382  -31.5225   20.6214 H   0  0  0  0  0  0
  -26.8611  -30.7995   22.0242 H   0  0  0  0  0  0
  -28.1187  -28.8701   21.2303 H   0  0  0  0  0  0
  -25.8633  -25.8742   19.0696 H   0  0  0  0  0  0
  -23.9484  -27.3288   19.0134 H   0  0  0  0  0  0
  -23.7871  -30.6119   19.4094 H   0  0  0  0  0  0
  -22.7681  -29.2717   19.8435 H   0  0  0  0  0  0
  -25.1280  -36.1885   25.0822 H   0  0  0  0  0  0
  -21.0018  -28.3254   24.1380 H   0  0  0  0  0  0
  -20.5692  -26.2291   23.3614 H   0  0  0  0  0  0
  -21.6647  -26.7406   22.1191 H   0  0  0  0  0  0
  -19.6880  -25.6271   21.1260 H   0  0  0  0  0  0
  -19.6656  -27.3178   20.6762 H   0  0  0  0  0  0
  -17.4195  -26.6712   21.4034 H   0  0  0  0  0  0
  -18.0280  -26.0058   22.9017 H   0  0  0  0  0  0
  -19.7938  -30.7294   24.2248 H   0  0  0  0  0  0
  -17.4998  -31.6263   24.5140 H   0  0  0  0  0  0
  -15.5351  -30.2949   23.7638 H   0  0  0  0  0  0
  -15.8700  -28.0779   22.7081 H   0  0  0  0  0  0
  -24.5860  -30.7160   25.7811 H   0  0  0  0  0  0
  -24.9032  -32.2930   26.4959 H   0  0  0  0  0  0
  -25.8056  -30.8849   27.0217 H   0  0  0  0  0  0
  -26.2958  -29.6699   24.1271 H   0  0  0  0  0  0
  -27.4025  -29.7236   25.4789 H   0  0  0  0  0  0
  -27.8862  -30.4216   23.9534 H   0  0  0  0  0  0
  -27.2639  -33.3608   26.2093 H   0  0  0  0  0  0
  -28.3864  -32.6903   25.0337 H   0  0  0  0  0  0
  -28.0750  -31.8462   26.5430 H   0  0  0  0  0  0
  -28.2552  -38.0119   24.7550 H   0  0  0  0  0  0
  -28.1119  -36.2656   24.6196 H   0  0  0  0  0  0
  -27.2323  -37.1341   25.8862 H   0  0  0  0  0  0
  -20.9423  -29.8831   21.6934 H   0  0  0  0  0  0
  -26.0140  -38.2822   24.1442 H   0  0  0  0  0  0
  -31.2484  -19.2253   23.5237 H   0  0  0  0  0  0
  -30.4559  -21.1041   22.1955 H   0  0  0  0  0  0
  -28.9911  -18.2813   19.2525 H   0  0  0  0  0  0
  -27.9410  -25.5382   18.3751 H   0  0  0  0  0  0
  -28.2522  -22.4506   21.0998 H   0  0  0  0  0  0
  -29.9000  -22.9429   20.8383 H   0  0  0  0  0  0
  -30.2764  -22.8334   17.4277 H   0  0  0  0  0  0
  -29.1027  -21.9238   16.4844 H   0  0  0  0  0  0
  -31.2590  -16.9735   24.1196 H   0  0  0  0  0  0
  -32.0930  -16.1981   22.7773 H   0  0  0  0  0  0
  -30.4177  -15.7629   23.1759 H   0  0  0  0  0  0
  -28.7979  -15.6859   20.4322 H   0  0  0  0  0  0
  1 25  1  0  0  0
  1 30  2  0  0  0
  1 85  1  0  0  0
  2  3  1  0  0  0
  2 25  1  0  0  0
  2 88  1  0  0  0
  2 89  1  0  0  0
  3  4  1  0  0  0
  3 90  1  0  0  0
  3 91  1  0  0  0
  4  5  1  0  0  0
  4 92  1  0  0  0
  4 93  1  0  0  0
  5  6  1  0  0  0
  5 26  1  0  0  0
  5 94  1  0  0  0
  6 25  1  0  0  0
  6 95  1  0  0  0
  6 96  1  0  0  0
  7  8  2  0  0  0
  7 26  1  0  0  0
  7 29  1  0  0  0
  8  9  1  0  0  0
  8 22  1  0  0  0
  9 10  1  0  0  0
  9 27  2  0  0  0
 10 11  2  0  0  0
 10 15  1  0  0  0
 11 12  1  0  0  0
 11 97  1  0  0  0
 12 13  2  0  0  0
 12 98  1  0  0  0
 13 14  1  0  0  0
 13 31  1  0  0  0
 14 15  2  0  0  0
 14 99  1  0  0  0
 15100  1  0  0  0
 16 17  2  0  0  0
 16 21  1  0  0  0
 16 31  1  0  0  0
 17 18  1  0  0  0
 17101  1  0  0  0
 18 19  2  0  0  0
 18102  1  0  0  0
 19 20  1  0  0  0
 19 24  1  0  0  0
 20 21  2  0  0  0
 20103  1  0  0  0
 21 23  1  0  0  0
 22 28  1  0  0  0
 22 32  2  0  0  0
 26 27  1  0  0  0
 28104  1  0  0  0
 28105  1  0  0  0
 29106  1  0  0  0
 29107  1  0  0  0
 33 34  1  0  0  0
 33 66  1  0  0  0
 33 70  2  0  0  0
 34 36  1  0  0  0
 34 59  1  0  0  0
 34108  1  0  0  0
 35 44  2  0  0  0
 35 45  1  0  0  0
 35 68  1  0  0  0
 36 56  1  0  0  0
 36109  1  0  0  0
 37 39  1  0  0  0
 37 47  1  0  0  0
 37 66  1  0  0  0
 37110  1  0  0  0
 38 43  2  0  0  0
 38 46  1  0  0  0
 38 47  1  0  0  0
 39 64  1  0  0  0
 39 67  2  0  0  0
 40 52  1  0  0  0
 40 53  2  0  0  0
 40 58  1  0  0  0
 41111  1  0  0  0
 41112  1  0  0  0
 41113  1  0  0  0
 41 48  1  0  0  0
 42 43  1  0  0  0
 42 66  1  0  0  0
 42114  1  0  0  0
 42115  1  0  0  0
 43 44  1  0  0  0
 44116  1  0  0  0
 45 46  2  0  0  0
 45117  1  0  0  0
 46118  1  0  0  0
 47119  1  0  0  0
 47120  1  0  0  0
 48 56  1  0  0  0
 48 65  1  0  0  0
 48121  1  0  0  0
 49 50  1  0  0  0
 49 53  1  0  0  0
 49 64  1  0  0  0
 49122  1  0  0  0
 50 51  1  0  0  0
 50123  1  0  0  0
 50124  1  0  0  0
 51 52  1  0  0  0
 51125  1  0  0  0
 51126  1  0  0  0
 52127  1  0  0  0
 52128  1  0  0  0
 53 54  1  0  0  0
 54 55  2  0  0  0
 54129  1  0  0  0
 55 57  1  0  0  0
 55130  1  0  0  0
 56 69  2  0  0  0
 57 58  2  0  0  0
 57131  1  0  0  0
 58132  1  0  0  0
 59 60  1  0  0  0
 59 61  1  0  0  0
 59 62  1  0  0  0
 60133  1  0  0  0
 60134  1  0  0  0
 60135  1  0  0  0
 61136  1  0  0  0
 61137  1  0  0  0
 61138  1  0  0  0
 62139  1  0  0  0
 62140  1  0  0  0
 62141  1  0  0  0
 63 65  1  0  0  0
 63142  1  0  0  0
 63143  1  0  0  0
 63144  1  0  0  0
 64145  1  0  0  0
 65146  1  0  0  0
 68 80  1  0  0  0
 71 72  2  0  0  0
 71 74  1  0  0  0
 71147  1  0  0  0
 72 75  1  0  0  0
 72148  1  0  0  0
 73 75  2  0  0  0
 73 76  1  0  0  0
 73149  1  0  0  0
 74 76  2  0  0  0
 74 83  1  0  0  0
 75 84  1  0  0  0
 76 85  1  0  0  0
 77 78  1  0  0  0
 77 80  2  0  0  0
 77 81  1  0  0  0
 78 82  1  0  0  0
 78 86  2  0  0  0
 79 82  1  0  0  0
 79 84  1  0  0  0
 79 87  2  0  0  0
 80150  1  0  0  0
 81 84  1  0  0  0
 81151  1  0  0  0
 81152  1  0  0  0
 82153  1  0  0  0
 82154  1  0  0  0
 83155  1  0  0  0
 83156  1  0  0  0
 83157  1  0  0  0
 85158  1  0  0  0
M  ISO  4   1 100  68 101  80 101  85 100
M  END
> <chiral flag>
0

> <version>
0

> <s_m_source_file>
/data/baiqing/PycharmProjects/Reinvent-master-3.2/result/LINK_invent/BTK/process_docking_weight1_custom_product_contain_oxygen_bond_distance_aromatic_linkinvent_7_9_3/rearranged_h_0071.sdf

> <i_m_source_file_index>
26

> <r_mmod_Potential_Energy-OPLS-2005>
350.666015625

> <r_mmod_Stretch_Energy-OPLS-2005>
169.697326660156

> <r_mmod_Bend_Energy-OPLS-2005>
229.458053588867

> <r_mmod_Torsional_Energy-OPLS-2005>
291.874481201172

> <r_mmod_Improper_Torsional_Energy-OPLS-2005>
8.40041255950928

> <r_mmod_Van_der_Waal_Energy-OPLS-2005>
172.048248291016

> <r_mmod_Electrostatic_Energy-OPLS-2005>
-402.064361572266

> <r_mmod_Solvation_Energy-OPLS-2005>
-234.578338623047

> <b_mmod_Minimization_Converged-OPLS-2005>
0

> <r_mmod_RMS_Derivative-OPLS-2005>
3.1088330745697

$$$$
26
                    3D
 Structure written by MMmdl.
166175  0  0  1  0            999 V2000
  -30.6087  -14.7679   20.4664 C   0  0  0  0  0  0
  -30.4365  -12.4683   19.4954 C   0  0  0  0  0  0
  -29.5190  -12.5162   18.2524 C   0  0  0  0  0  0
  -28.0456  -12.3285   18.6607 C   0  0  0  0  0  0
  -27.6453  -13.2255   19.8605 C   0  0  2  0  0  0
  -28.6876  -13.1718   21.0012 C   0  0  0  0  0  0
  -25.2499  -13.7986   20.5682 C   0  0  0  0  0  0
  -24.1812  -13.0300   20.9277 C   0  0  0  0  0  0
  -24.6416  -11.6797   20.8824 C   0  0  0  0  0  0
  -23.9079  -10.4208   21.0445 C   0  0  0  0  0  0
  -24.3629   -9.4123   21.9216 C   0  0  0  0  0  0
  -23.6289   -8.2174   22.0758 C   0  0  0  0  0  0
  -22.4270   -8.0246   21.3541 C   0  0  0  0  0  0
  -21.9914   -9.0233   20.4659 C   0  0  0  0  0  0
  -22.7254  -10.2098   20.3078 C   0  0  0  0  0  0
  -21.6822   -6.0723   22.5282 C   0  0  0  0  0  0
  -21.3995   -6.5630   23.8214 C   0  0  0  0  0  0
  -21.3662   -5.6794   24.9181 C   0  0  0  0  0  0
  -21.6044   -4.3055   24.7236 C   0  0  0  0  0  0
  -21.8817   -3.8138   23.4357 C   0  0  0  0  0  0
  -21.9186   -4.6953   22.3414 C   0  0  0  0  0  0
  -22.7853  -13.5158   21.1883 C   0  0  0  0  0  0
  -22.1659   -4.2137   21.0992 F   0  0  0  0  0  0
  -21.5638   -3.4543   25.7753 F   0  0  0  0  0  0
  -29.9945  -13.5308   20.4335 N   0  0  0  0  0  0
  -26.2969  -12.9266   20.3338 N   0  0  0  0  0  0
  -25.9359  -11.6423   20.5832 N   0  0  0  0  0  0
  -22.0430  -12.8201   22.0417 N   0  0  0  0  0  0
  -25.4035  -15.1611   20.3774 N   0  0  0  0  0  0
  -31.7612  -14.8891   20.0461 O   0  0  0  0  0  0
  -21.6602   -6.8863   21.4246 O   0  0  0  0  0  0
  -22.3641  -14.5495   20.6693 O   0  0  0  0  0  0
  -24.6311  -31.8559   23.1991 C   0  0  0  0  0  0
  -25.9135  -32.4758   23.8338 C   0  0  1  0  0  0
  -27.2343  -27.2655   20.1319 C   0  0  0  0  0  0
  -25.5927  -33.8560   24.2263 N   0  0  0  0  0  0
  -23.4285  -30.4772   21.5406 C   0  0  2  0  0  0
  -24.8804  -28.9241   20.1099 C   0  0  0  0  0  0
  -22.7496  -29.4602   22.4898 C   0  0  0  0  0  0
  -18.0293  -28.1391   22.8477 C   0  0  0  0  0  0
  -24.1489  -36.7283   23.2636 C   0  0  0  0  0  0
  -25.9740  -30.7688   21.3800 C   0  0  0  0  0  0
  -26.0497  -29.3909   20.7225 C   0  0  0  0  0  0
  -27.2259  -28.5741   20.7243 C   0  0  0  0  0  0
  -26.0423  -26.8712   19.4786 C   0  0  0  0  0  0
  -24.8818  -27.6716   19.4771 C   0  0  0  0  0  0
  -23.6498  -29.8095   20.1577 C   0  0  0  0  0  0
  -25.4113  -36.3067   24.0329 C   0  0  1  0  0  0
  -20.5894  -28.3713   23.1261 C   0  0  2  0  0  0
  -20.6779  -26.9426   22.5405 C   0  0  0  0  0  0
  -19.5757  -26.6387   21.5207 C   0  0  0  0  0  0
  -18.1935  -26.7933   22.1618 C   0  0  0  0  0  0
  -19.1542  -28.8867   23.2869 C   0  0  0  0  0  0
  -18.9467  -30.1461   23.8904 C   0  0  0  0  0  0
  -17.6465  -30.6594   24.0555 C   0  0  0  0  0  0
  -25.9056  -34.9440   23.5099 C   0  0  0  0  0  0
  -16.5359  -29.9090   23.6322 C   0  0  0  0  0  0
  -16.7277  -28.6501   23.0352 C   0  0  0  0  0  0
  -26.4506  -31.6574   25.0718 C   0  0  0  0  0  0
  -25.3730  -31.3722   26.1435 C   0  0  0  0  0  0
  -27.0352  -30.2990   24.6199 C   0  0  0  0  0  0
  -27.6069  -32.4309   25.7485 C   0  0  0  0  0  0
  -27.5579  -37.1794   24.8467 C   0  0  0  0  0  0
  -21.4204  -29.3058   22.3645 N   0  0  0  0  0  0
  -26.4290  -37.3766   23.9409 N   0  0  0  0  0  0
  -24.6965  -31.0511   22.0968 N   0  0  0  0  0  0
  -23.4185  -28.8141   23.3003 O   0  0  0  0  0  0
  -28.3363  -26.3782   20.2207 O   0  0  0  0  0  0
  -26.5628  -34.8917   22.4668 O   0  0  0  0  0  0
  -23.5463  -32.1385   23.7286 O   0  0  0  0  0  0
  -27.8713  -18.3961   21.0513 C   0  0  0  0  0  0
  -28.9223  -16.8981   19.0033 C   0  0  0  0  0  0
  -29.2517  -18.4163   20.7927 C   0  0  0  0  0  0
  -29.7130  -17.1894   20.1359 C   0  0  0  0  0  0
  -27.0574  -17.8400   20.0433 C   0  0  0  0  0  0
  -23.4205  -18.2013   19.4976 C   0  0  0  0  0  0
  -24.7235  -17.8979   19.0620 C   0  0  0  0  0  0
  -22.3009  -18.0903   18.7632 C   0  0  0  0  0  0
  -29.0897  -23.8374   20.6140 C   0  0  0  0  0  0
  -29.2417  -21.0445   20.8795 C   0  0  0  0  0  0
  -23.4885  -18.6659   20.9335 C   0  0  0  0  0  0
  -24.9849  -18.6240   21.2703 C   0  0  0  0  0  0
  -29.3423  -22.3747   19.9868 C   0  0  0  0  0  0
  -28.1578  -24.9190   19.8871 C   0  0  0  0  0  0
  -27.5922  -17.1550   18.9957 N   0  0  0  0  0  0
  -25.6220  -18.1088   20.0483 N   0  0  0  0  0  0
  -29.6955  -19.7980   20.4292 N   0  0  0  0  0  0
  -29.8826  -15.8903   20.8528 N   0  0  0  0  0  0
  -24.9892  -17.4509   17.8216 N   0  3  0  0  0  0
  -29.6670  -24.1628   21.6582 O   0  0  0  0  0  0
  -28.7386  -21.1491   22.0009 O   0  0  0  0  0  0
  -31.4789  -12.5885   19.1949 H   0  0  0  0  0  0
  -30.3805  -11.4916   19.9779 H   0  0  0  0  0  0
  -29.8092  -11.7454   17.5368 H   0  0  0  0  0  0
  -29.6417  -13.4716   17.7390 H   0  0  0  0  0  0
  -27.9093  -11.2793   18.9255 H   0  0  0  0  0  0
  -27.3858  -12.5142   17.8127 H   0  0  0  0  0  0
  -27.6336  -14.2460   19.4799 H   0  0  0  0  0  0
  -28.7255  -12.1745   21.4433 H   0  0  0  0  0  0
  -28.4100  -13.8531   21.8071 H   0  0  0  0  0  0
  -25.2773   -9.5571   22.4805 H   0  0  0  0  0  0
  -23.9981   -7.4537   22.7454 H   0  0  0  0  0  0
  -21.0846   -8.8768   19.8972 H   0  0  0  0  0  0
  -22.3727  -10.9654   19.6201 H   0  0  0  0  0  0
  -21.1965   -7.6132   23.9708 H   0  0  0  0  0  0
  -21.1500   -6.0528   25.9086 H   0  0  0  0  0  0
  -22.0598   -2.7601   23.2862 H   0  0  0  0  0  0
  -22.3983  -11.9860   22.4849 H   0  0  0  0  0  0
  -21.1052  -13.1269   22.2586 H   0  0  0  0  0  0
  -24.5023  -15.5978   20.2237 H   0  0  0  0  0  0
  -26.0830  -15.3904   19.6630 H   0  0  0  0  0  0
  -26.7187  -32.5416   23.1069 H   0  0  0  0  0  0
  -25.0065  -33.9705   25.0401 H   0  0  0  0  0  0
  -22.7247  -31.2993   21.3919 H   0  0  0  0  0  0
  -23.3759  -35.9609   23.3299 H   0  0  0  0  0  0
  -24.3578  -36.8902   22.2048 H   0  0  0  0  0  0
  -23.7243  -37.6482   23.6667 H   0  0  0  0  0  0
  -26.1097  -31.5289   20.6096 H   0  0  0  0  0  0
  -26.8525  -30.8208   22.0118 H   0  0  0  0  0  0
  -28.1175  -28.9250   21.2259 H   0  0  0  0  0  0
  -25.9727  -25.9213   18.9696 H   0  0  0  0  0  0
  -23.9880  -27.3098   18.9871 H   0  0  0  0  0  0
  -23.7769  -30.5863   19.4024 H   0  0  0  0  0  0
  -22.7686  -29.2429   19.8501 H   0  0  0  0  0  0
  -25.1292  -36.1912   25.0823 H   0  0  0  0  0  0
  -20.9986  -28.3304   24.1381 H   0  0  0  0  0  0
  -20.5674  -26.2329   23.3616 H   0  0  0  0  0  0
  -21.6649  -26.7447   22.1202 H   0  0  0  0  0  0
  -19.6930  -25.6296   21.1242 H   0  0  0  0  0  0
  -19.6697  -27.3195   20.6736 H   0  0  0  0  0  0
  -17.4199  -26.6670   21.4023 H   0  0  0  0  0  0
  -18.0347  -26.0082   22.9026 H   0  0  0  0  0  0
  -19.7946  -30.7264   24.2287 H   0  0  0  0  0  0
  -17.5027  -31.6275   24.5153 H   0  0  0  0  0  0
  -15.5361  -30.2995   23.7658 H   0  0  0  0  0  0
  -15.8672  -28.0824   22.7082 H   0  0  0  0  0  0
  -24.5917  -30.7054   25.7758 H   0  0  0  0  0  0
  -24.8905  -32.2888   26.4841 H   0  0  0  0  0  0
  -25.8046  -30.8910   27.0219 H   0  0  0  0  0  0
  -26.2934  -29.6722   24.1229 H   0  0  0  0  0  0
  -27.4037  -29.7263   25.4718 H   0  0  0  0  0  0
  -27.8810  -30.4253   23.9438 H   0  0  0  0  0  0
  -27.2694  -33.3620   26.2049 H   0  0  0  0  0  0
  -28.3891  -32.6841   25.0315 H   0  0  0  0  0  0
  -28.0724  -31.8431   26.5407 H   0  0  0  0  0  0
  -28.2594  -38.0091   24.7508 H   0  0  0  0  0  0
  -28.1079  -36.2623   24.6300 H   0  0  0  0  0  0
  -27.2301  -37.1444   25.8871 H   0  0  0  0  0  0
  -20.9403  -29.8770   21.6834 H   0  0  0  0  0  0
  -26.0170  -38.2840   24.1415 H   0  0  0  0  0  0
  -27.4363  -19.1057   21.7349 H   0  0  0  0  0  0
  -29.1792  -16.0710   18.3564 H   0  0  0  0  0  0
  -22.3178  -17.7449   17.7408 H   0  0  0  0  0  0
  -21.3384  -18.3414   19.1836 H   0  0  0  0  0  0
  -22.9166  -17.9974   21.5780 H   0  0  0  0  0  0
  -23.0836  -19.6735   21.0303 H   0  0  0  0  0  0
  -25.1897  -17.9694   22.1178 H   0  0  0  0  0  0
  -25.3480  -19.6261   21.4994 H   0  0  0  0  0  0
  -30.3356  -22.3968   19.5412 H   0  0  0  0  0  0
  -28.6477  -22.2545   19.1559 H   0  0  0  0  0  0
  -27.1407  -24.6189   20.1363 H   0  0  0  0  0  0
  -28.2667  -24.7955   18.8092 H   0  0  0  0  0  0
  -30.3054  -19.8396   19.6242 H   0  0  0  0  0  0
  -29.0915  -15.6484   21.4320 H   0  0  0  0  0  0
  -24.2555  -17.3112   17.1446 H   0  0  0  0  0  0
  -25.9432  -17.2335   17.5616 H   0  0  0  0  0  0
  1 25  1  0  0  0
  1 30  2  0  0  0
  1 88  1  0  0  0
  2  3  1  0  0  0
  2 25  1  0  0  0
  2 92  1  0  0  0
  2 93  1  0  0  0
  3  4  1  0  0  0
  3 94  1  0  0  0
  3 95  1  0  0  0
  4  5  1  0  0  0
  4 96  1  0  0  0
  4 97  1  0  0  0
  5  6  1  0  0  0
  5 26  1  0  0  0
  5 98  1  0  0  0
  6 25  1  0  0  0
  6 99  1  0  0  0
  6100  1  0  0  0
  7  8  2  0  0  0
  7 26  1  0  0  0
  7 29  1  0  0  0
  8  9  1  0  0  0
  8 22  1  0  0  0
  9 10  1  0  0  0
  9 27  2  0  0  0
 10 11  2  0  0  0
 10 15  1  0  0  0
 11 12  1  0  0  0
 11101  1  0  0  0
 12 13  2  0  0  0
 12102  1  0  0  0
 13 14  1  0  0  0
 13 31  1  0  0  0
 14 15  2  0  0  0
 14103  1  0  0  0
 15104  1  0  0  0
 16 17  2  0  0  0
 16 21  1  0  0  0
 16 31  1  0  0  0
 17 18  1  0  0  0
 17105  1  0  0  0
 18 19  2  0  0  0
 18106  1  0  0  0
 19 20  1  0  0  0
 19 24  1  0  0  0
 20 21  2  0  0  0
 20107  1  0  0  0
 21 23  1  0  0  0
 22 28  1  0  0  0
 22 32  2  0  0  0
 26 27  1  0  0  0
 28108  1  0  0  0
 28109  1  0  0  0
 29110  1  0  0  0
 29111  1  0  0  0
 33 34  1  0  0  0
 33 66  1  0  0  0
 33 70  2  0  0  0
 34 36  1  0  0  0
 34 59  1  0  0  0
 34112  1  0  0  0
 35 44  2  0  0  0
 35 45  1  0  0  0
 35 68  1  0  0  0
 36 56  1  0  0  0
 36113  1  0  0  0
 37 39  1  0  0  0
 37 47  1  0  0  0
 37 66  1  0  0  0
 37114  1  0  0  0
 38 43  2  0  0  0
 38 46  1  0  0  0
 38 47  1  0  0  0
 39 64  1  0  0  0
 39 67  2  0  0  0
 40 52  1  0  0  0
 40 53  2  0  0  0
 40 58  1  0  0  0
 41115  1  0  0  0
 41116  1  0  0  0
 41117  1  0  0  0
 41 48  1  0  0  0
 42 43  1  0  0  0
 42 66  1  0  0  0
 42118  1  0  0  0
 42119  1  0  0  0
 43 44  1  0  0  0
 44120  1  0  0  0
 45 46  2  0  0  0
 45121  1  0  0  0
 46122  1  0  0  0
 47123  1  0  0  0
 47124  1  0  0  0
 48 56  1  0  0  0
 48 65  1  0  0  0
 48125  1  0  0  0
 49 50  1  0  0  0
 49 53  1  0  0  0
 49 64  1  0  0  0
 49126  1  0  0  0
 50 51  1  0  0  0
 50127  1  0  0  0
 50128  1  0  0  0
 51 52  1  0  0  0
 51129  1  0  0  0
 51130  1  0  0  0
 52131  1  0  0  0
 52132  1  0  0  0
 53 54  1  0  0  0
 54 55  2  0  0  0
 54133  1  0  0  0
 55 57  1  0  0  0
 55134  1  0  0  0
 56 69  2  0  0  0
 57 58  2  0  0  0
 57135  1  0  0  0
 58136  1  0  0  0
 59 60  1  0  0  0
 59 61  1  0  0  0
 59 62  1  0  0  0
 60137  1  0  0  0
 60138  1  0  0  0
 60139  1  0  0  0
 61140  1  0  0  0
 61141  1  0  0  0
 61142  1  0  0  0
 62143  1  0  0  0
 62144  1  0  0  0
 62145  1  0  0  0
 63 65  1  0  0  0
 63146  1  0  0  0
 63147  1  0  0  0
 63148  1  0  0  0
 64149  1  0  0  0
 65150  1  0  0  0
 68 84  1  0  0  0
 71 73  2  0  0  0
 71 75  1  0  0  0
 71151  1  0  0  0
 72 74  2  0  0  0
 72 85  1  0  0  0
 72152  1  0  0  0
 73 74  1  0  0  0
 73 87  1  0  0  0
 74 88  1  0  0  0
 75 85  2  0  0  0
 75 86  1  0  0  0
 76 77  1  0  0  0
 76 78  2  0  0  0
 76 81  1  0  0  0
 77 86  1  0  0  0
 77 89  2  0  0  0
 78153  1  0  0  0
 78154  1  0  0  0
 79 83  1  0  0  0
 79 84  1  0  0  0
 79 90  2  0  0  0
 80 83  1  0  0  0
 80 87  1  0  0  0
 80 91  2  0  0  0
 81 82  1  0  0  0
 81155  1  0  0  0
 81156  1  0  0  0
 82 86  1  0  0  0
 82157  1  0  0  0
 82158  1  0  0  0
 83159  1  0  0  0
 83160  1  0  0  0
 84161  1  0  0  0
 84162  1  0  0  0
 87163  1  0  0  0
 88164  1  0  0  0
 89165  1  0  0  0
 89166  1  0  0  0
M  CHG  1  89   1
M  ISO  4   1 100  68 101  84 101  88 100
M  END
> <chiral flag>
0

> <version>
0

> <s_m_source_file>
/data/baiqing/PycharmProjects/Reinvent-master-3.2/result/LINK_invent/BTK/process_docking_weight1_custom_product_contain_oxygen_bond_distance_aromatic_linkinvent_7_9_3/rearranged_h_0071.sdf

> <i_m_source_file_index>
27

> <r_mmod_Potential_Energy-OPLS-2005>
208.957855224609

> <r_mmod_Stretch_Energy-OPLS-2005>
138.182113647461

> <r_mmod_Bend_Energy-OPLS-2005>
245.69465637207

> <r_mmod_Torsional_Energy-OPLS-2005>
487.713104248047

> <r_mmod_Improper_Torsional_Energy-OPLS-2005>
49.7614479064941

> <r_mmod_Van_der_Waal_Energy-OPLS-2005>
151.532470703125

> <r_mmod_Electrostatic_Energy-OPLS-2005>
-465.260864257812

> <r_mmod_Solvation_Energy-OPLS-2005>
-488.758453369141

> <b_mmod_Minimization_Converged-OPLS-2005>
0

> <r_mmod_RMS_Derivative-OPLS-2005>
1.65149009227753

$$$$
27
                    3D
 Structure written by MMmdl.
157165  0  0  1  0            999 V2000
  -30.6131  -14.6565   20.4993 C   0  0  0  0  0  0
  -30.4398  -12.4041   19.4506 C   0  0  0  0  0  0
  -29.5068  -12.5122   18.2237 C   0  0  0  0  0  0
  -28.0291  -12.3537   18.6358 C   0  0  0  0  0  0
  -27.6522  -13.2214   19.8670 C   0  0  2  0  0  0
  -28.6990  -13.0739   20.9951 C   0  0  0  0  0  0
  -25.2538  -13.8177   20.5706 C   0  0  0  0  0  0
  -24.1807  -13.0424   20.9180 C   0  0  0  0  0  0
  -24.6395  -11.6903   20.8735 C   0  0  0  0  0  0
  -23.9072  -10.4288   21.0402 C   0  0  0  0  0  0
  -24.3625   -9.4201   21.9179 C   0  0  0  0  0  0
  -23.6296   -8.2239   22.0755 C   0  0  0  0  0  0
  -22.4277   -8.0279   21.3546 C   0  0  0  0  0  0
  -21.9913   -9.0252   20.4645 C   0  0  0  0  0  0
  -22.7246  -10.2129   20.3049 C   0  0  0  0  0  0
  -21.6846   -6.0734   22.5278 C   0  0  0  0  0  0
  -21.4016   -6.5640   23.8211 C   0  0  0  0  0  0
  -21.3659   -5.6795   24.9175 C   0  0  0  0  0  0
  -21.6042   -4.3057   24.7227 C   0  0  0  0  0  0
  -21.8820   -3.8150   23.4348 C   0  0  0  0  0  0
  -21.9193   -4.6964   22.3403 C   0  0  0  0  0  0
  -22.7828  -13.5204   21.1871 C   0  0  0  0  0  0
  -22.1658   -4.2153   21.0977 F   0  0  0  0  0  0
  -21.5629   -3.4538   25.7736 F   0  0  0  0  0  0
  -30.0118  -13.4247   20.4297 N   0  0  0  0  0  0
  -26.2986  -12.9369   20.3358 N   0  0  0  0  0  0
  -25.9332  -11.6515   20.5771 N   0  0  0  0  0  0
  -22.0486  -12.8182   22.0428 N   0  0  0  0  0  0
  -25.4209  -15.1912   20.4209 N   0  0  0  0  0  0
  -31.7790  -14.8164   20.1256 O   0  0  0  0  0  0
  -21.6638   -6.8877   21.4240 O   0  0  0  0  0  0
  -22.3493  -14.5511   20.6736 O   0  0  0  0  0  0
  -24.6262  -31.8592   23.2033 C   0  0  0  0  0  0
  -25.9118  -32.4763   23.8357 C   0  0  1  0  0  0
  -27.2185  -27.3136   20.1097 C   0  0  0  0  0  0
  -25.5946  -33.8564   24.2281 N   0  0  0  0  0  0
  -23.4196  -30.4830   21.5465 C   0  0  2  0  0  0
  -24.8641  -28.9411   20.1070 C   0  0  0  0  0  0
  -22.7475  -29.4615   22.4941 C   0  0  0  0  0  0
  -18.0285  -28.1370   22.8446 C   0  0  0  0  0  0
  -24.1495  -36.7282   23.2641 C   0  0  0  0  0  0
  -25.9620  -30.7855   21.3797 C   0  0  0  0  0  0
  -26.0331  -29.4143   20.7169 C   0  0  0  0  0  0
  -27.2099  -28.6096   20.7127 C   0  0  0  0  0  0
  -26.0319  -26.9048   19.4569 C   0  0  0  0  0  0
  -24.8659  -27.6913   19.4709 C   0  0  0  0  0  0
  -23.6339  -29.8215   20.1600 C   0  0  0  0  0  0
  -25.4118  -36.3059   24.0332 C   0  0  1  0  0  0
  -20.5878  -28.3665   23.1266 C   0  0  2  0  0  0
  -20.6765  -26.9385   22.5398 C   0  0  0  0  0  0
  -19.5753  -26.6354   21.5192 C   0  0  0  0  0  0
  -18.1932  -26.7904   22.1598 C   0  0  0  0  0  0
  -19.1537  -28.8835   23.2843 C   0  0  0  0  0  0
  -18.9474  -30.1439   23.8857 C   0  0  0  0  0  0
  -17.6472  -30.6566   24.0550 C   0  0  0  0  0  0
  -25.9062  -34.9439   23.5104 C   0  0  0  0  0  0
  -16.5357  -29.9065   23.6330 C   0  0  0  0  0  0
  -16.7274  -28.6491   23.0330 C   0  0  0  0  0  0
  -26.4506  -31.6583   25.0744 C   0  0  0  0  0  0
  -25.3730  -31.3732   26.1458 C   0  0  0  0  0  0
  -27.0373  -30.3020   24.6212 C   0  0  0  0  0  0
  -27.6066  -32.4332   25.7501 C   0  0  0  0  0  0
  -27.5578  -37.1789   24.8466 C   0  0  0  0  0  0
  -21.4190  -29.3018   22.3678 N   0  0  0  0  0  0
  -26.4288  -37.3760   23.9413 N   0  0  0  0  0  0
  -24.6876  -31.0600   22.0997 N   0  0  0  0  0  0
  -23.4192  -28.8155   23.3028 O   0  0  0  0  0  0
  -28.3397  -26.4690   20.1807 O   0  0  0  0  0  0
  -26.5611  -34.8914   22.4659 O   0  0  0  0  0  0
  -23.5432  -32.1405   23.7361 O   0  0  0  0  0  0
  -28.7514  -19.3755   20.9636 C   0  0  0  0  0  0
  -31.0579  -17.8923   20.3740 C   0  0  0  0  0  0
  -29.9263  -20.1170   20.6712 C   0  0  0  0  0  0
  -31.0818  -19.3241   20.3446 C   0  0  0  0  0  0
  -29.8934  -17.1623   20.7206 C   0  0  0  0  0  0
  -28.7394  -17.9471   20.9908 C   0  0  0  0  0  0
  -30.0085  -21.6502   20.8999 C   0  0  0  0  0  0
  -32.4058  -19.9774   19.9714 C   0  0  0  0  0  0
  -28.5477  -24.1728   22.2824 C   0  0  0  0  0  0
  -28.2108  -25.0112   19.9127 C   0  0  0  0  0  0
  -29.0473  -24.0217   20.8327 C   0  0  2  0  0  0
  -29.7912  -15.7025   20.8378 N   0  0  0  0  0  0
  -29.0590  -22.5438   20.4753 N   0  0  0  0  0  0
  -30.9873  -22.0745   21.5167 O   0  0  0  0  0  0
  -27.5886  -17.3082   21.3121 F   0  0  0  0  0  0
  -31.4787  -12.5371   19.1441 H   0  0  0  0  0  0
  -30.3831  -11.4069   19.8894 H   0  0  0  0  0  0
  -29.7691  -11.7560   17.4822 H   0  0  0  0  0  0
  -29.6512  -13.4779   17.7373 H   0  0  0  0  0  0
  -27.8621  -11.3004   18.8615 H   0  0  0  0  0  0
  -27.3768  -12.5919   17.7944 H   0  0  0  0  0  0
  -27.6688  -14.2586   19.5300 H   0  0  0  0  0  0
  -28.7151  -12.0511   21.3750 H   0  0  0  0  0  0
  -28.4451  -13.7049   21.8495 H   0  0  0  0  0  0
  -25.2768   -9.5669   22.4756 H   0  0  0  0  0  0
  -24.0001   -7.4624   22.7470 H   0  0  0  0  0  0
  -21.0847   -8.8767   19.8947 H   0  0  0  0  0  0
  -22.3704  -10.9667   19.6163 H   0  0  0  0  0  0
  -21.2009   -7.6147   23.9717 H   0  0  0  0  0  0
  -21.1480   -6.0524   25.9077 H   0  0  0  0  0  0
  -22.0604   -2.7612   23.2844 H   0  0  0  0  0  0
  -22.4119  -11.9837   22.4787 H   0  0  0  0  0  0
  -21.1106  -13.1200   22.2671 H   0  0  0  0  0  0
  -24.6622  -15.8428   20.5846 H   0  0  0  0  0  0
  -26.2935  -15.6572   20.2096 H   0  0  0  0  0  0
  -26.7192  -32.5411   23.1107 H   0  0  0  0  0  0
  -25.0098  -33.9705   25.0424 H   0  0  0  0  0  0
  -22.7146  -31.3052   21.4029 H   0  0  0  0  0  0
  -23.3748  -35.9623   23.3303 H   0  0  0  0  0  0
  -24.3593  -36.8903   22.2059 H   0  0  0  0  0  0
  -23.7260  -37.6484   23.6672 H   0  0  0  0  0  0
  -26.1017  -31.5541   20.6185 H   0  0  0  0  0  0
  -26.8384  -30.8226   22.0149 H   0  0  0  0  0  0
  -28.1041  -28.9613   21.2085 H   0  0  0  0  0  0
  -25.9730  -25.9675   18.9244 H   0  0  0  0  0  0
  -23.9739  -27.3274   18.9803 H   0  0  0  0  0  0
  -23.7544  -30.5994   19.4055 H   0  0  0  0  0  0
  -22.7531  -29.2518   19.8562 H   0  0  0  0  0  0
  -25.1293  -36.1918   25.0828 H   0  0  0  0  0  0
  -20.9953  -28.3241   24.1390 H   0  0  0  0  0  0
  -20.5660  -26.2279   23.3593 H   0  0  0  0  0  0
  -21.6645  -26.7409   22.1203 H   0  0  0  0  0  0
  -19.6931  -25.6265   21.1223 H   0  0  0  0  0  0
  -19.6713  -27.3164   20.6714 H   0  0  0  0  0  0
  -17.4202  -26.6630   21.4003 H   0  0  0  0  0  0
  -18.0346  -26.0060   22.9009 H   0  0  0  0  0  0
  -19.7971  -30.7242   24.2222 H   0  0  0  0  0  0
  -17.5044  -31.6255   24.5138 H   0  0  0  0  0  0
  -15.5357  -30.2948   23.7695 H   0  0  0  0  0  0
  -15.8672  -28.0811   22.7035 H   0  0  0  0  0  0
  -24.5905  -30.7087   25.7780 H   0  0  0  0  0  0
  -24.8908  -32.2899   26.4868 H   0  0  0  0  0  0
  -25.8036  -30.8909   27.0251 H   0  0  0  0  0  0
  -26.2969  -29.6735   24.1247 H   0  0  0  0  0  0
  -27.4085  -29.7308   25.4732 H   0  0  0  0  0  0
  -27.8833  -30.4304   23.9453 H   0  0  0  0  0  0
  -27.2683  -33.3648   26.2051 H   0  0  0  0  0  0
  -28.3876  -32.6870   25.0323 H   0  0  0  0  0  0
  -28.0734  -31.8472   26.5431 H   0  0  0  0  0  0
  -28.2570  -38.0105   24.7499 H   0  0  0  0  0  0
  -28.1089  -36.2623   24.6292 H   0  0  0  0  0  0
  -27.2294  -37.1439   25.8868 H   0  0  0  0  0  0
  -20.9399  -29.8762   21.6894 H   0  0  0  0  0  0
  -26.0164  -38.2836   24.1418 H   0  0  0  0  0  0
  -27.8478  -19.9029   21.2307 H   0  0  0  0  0  0
  -31.9679  -17.3535   20.1529 H   0  0  0  0  0  0
  -33.0685  -19.2761   19.4648 H   0  0  0  0  0  0
  -32.9224  -20.3327   20.8635 H   0  0  0  0  0  0
  -32.2527  -20.8205   19.2970 H   0  0  0  0  0  0
  -28.5714  -25.2171   22.5976 H   0  0  0  0  0  0
  -29.1610  -23.6096   22.9849 H   0  0  0  0  0  0
  -27.5195  -23.8227   22.3835 H   0  0  0  0  0  0
  -27.1804  -24.6785   20.0096 H   0  0  0  0  0  0
  -28.4872  -24.8489   18.8701 H   0  0  0  0  0  0
  -30.0796  -24.3737   20.7923 H   0  0  0  0  0  0
  -28.8760  -15.3974   21.1327 H   0  0  0  0  0  0
  -28.2826  -22.1837   19.9356 H   0  0  0  0  0  0
  1 25  1  0  0  0
  1 30  2  0  0  0
  1 82  1  0  0  0
  2  3  1  0  0  0
  2 25  1  0  0  0
  2 86  1  0  0  0
  2 87  1  0  0  0
  3  4  1  0  0  0
  3 88  1  0  0  0
  3 89  1  0  0  0
  4  5  1  0  0  0
  4 90  1  0  0  0
  4 91  1  0  0  0
  5  6  1  0  0  0
  5 26  1  0  0  0
  5 92  1  0  0  0
  6 25  1  0  0  0
  6 93  1  0  0  0
  6 94  1  0  0  0
  7  8  2  0  0  0
  7 26  1  0  0  0
  7 29  1  0  0  0
  8  9  1  0  0  0
  8 22  1  0  0  0
  9 10  1  0  0  0
  9 27  2  0  0  0
 10 11  2  0  0  0
 10 15  1  0  0  0
 11 12  1  0  0  0
 11 95  1  0  0  0
 12 13  2  0  0  0
 12 96  1  0  0  0
 13 14  1  0  0  0
 13 31  1  0  0  0
 14 15  2  0  0  0
 14 97  1  0  0  0
 15 98  1  0  0  0
 16 17  2  0  0  0
 16 21  1  0  0  0
 16 31  1  0  0  0
 17 18  1  0  0  0
 17 99  1  0  0  0
 18 19  2  0  0  0
 18100  1  0  0  0
 19 20  1  0  0  0
 19 24  1  0  0  0
 20 21  2  0  0  0
 20101  1  0  0  0
 21 23  1  0  0  0
 22 28  1  0  0  0
 22 32  2  0  0  0
 26 27  1  0  0  0
 28102  1  0  0  0
 28103  1  0  0  0
 29104  1  0  0  0
 29105  1  0  0  0
 33 34  1  0  0  0
 33 66  1  0  0  0
 33 70  2  0  0  0
 34 36  1  0  0  0
 34 59  1  0  0  0
 34106  1  0  0  0
 35 44  2  0  0  0
 35 45  1  0  0  0
 35 68  1  0  0  0
 36 56  1  0  0  0
 36107  1  0  0  0
 37 39  1  0  0  0
 37 47  1  0  0  0
 37 66  1  0  0  0
 37108  1  0  0  0
 38 43  2  0  0  0
 38 46  1  0  0  0
 38 47  1  0  0  0
 39 64  1  0  0  0
 39 67  2  0  0  0
 40 52  1  0  0  0
 40 53  2  0  0  0
 40 58  1  0  0  0
 41109  1  0  0  0
 41110  1  0  0  0
 41111  1  0  0  0
 41 48  1  0  0  0
 42 43  1  0  0  0
 42 66  1  0  0  0
 42112  1  0  0  0
 42113  1  0  0  0
 43 44  1  0  0  0
 44114  1  0  0  0
 45 46  2  0  0  0
 45115  1  0  0  0
 46116  1  0  0  0
 47117  1  0  0  0
 47118  1  0  0  0
 48 56  1  0  0  0
 48 65  1  0  0  0
 48119  1  0  0  0
 49 50  1  0  0  0
 49 53  1  0  0  0
 49 64  1  0  0  0
 49120  1  0  0  0
 50 51  1  0  0  0
 50121  1  0  0  0
 50122  1  0  0  0
 51 52  1  0  0  0
 51123  1  0  0  0
 51124  1  0  0  0
 52125  1  0  0  0
 52126  1  0  0  0
 53 54  1  0  0  0
 54 55  2  0  0  0
 54127  1  0  0  0
 55 57  1  0  0  0
 55128  1  0  0  0
 56 69  2  0  0  0
 57 58  2  0  0  0
 57129  1  0  0  0
 58130  1  0  0  0
 59 60  1  0  0  0
 59 61  1  0  0  0
 59 62  1  0  0  0
 60131  1  0  0  0
 60132  1  0  0  0
 60133  1  0  0  0
 61134  1  0  0  0
 61135  1  0  0  0
 61136  1  0  0  0
 62137  1  0  0  0
 62138  1  0  0  0
 62139  1  0  0  0
 63 65  1  0  0  0
 63140  1  0  0  0
 63141  1  0  0  0
 63142  1  0  0  0
 64143  1  0  0  0
 65144  1  0  0  0
 68 80  1  0  0  0
 71 73  2  0  0  0
 71 76  1  0  0  0
 71145  1  0  0  0
 72 74  2  0  0  0
 72 75  1  0  0  0
 72146  1  0  0  0
 73 74  1  0  0  0
 73 77  1  0  0  0
 74 78  1  0  0  0
 75 76  2  0  0  0
 75 82  1  0  0  0
 76 85  1  0  0  0
 77 83  1  0  0  0
 77 84  2  0  0  0
 78147  1  0  0  0
 78148  1  0  0  0
 78149  1  0  0  0
 79150  1  0  0  0
 79151  1  0  0  0
 79152  1  0  0  0
 79 81  1  0  0  0
 80 81  1  0  0  0
 80153  1  0  0  0
 80154  1  0  0  0
 81 83  1  0  0  0
 81155  1  0  0  0
 82156  1  0  0  0
 83157  1  0  0  0
M  ISO  4   1 100  68 101  80 101  82 100
M  END
> <chiral flag>
0

> <version>
0

> <s_m_source_file>
/data/baiqing/PycharmProjects/Reinvent-master-3.2/result/LINK_invent/BTK/process_docking_weight1_custom_product_contain_oxygen_bond_distance_aromatic_linkinvent_7_9_3/rearranged_h_0071.sdf

> <i_m_source_file_index>
28

> <r_mmod_Potential_Energy-OPLS-2005>
-20.9832096099854

> <r_mmod_Stretch_Energy-OPLS-2005>
84.8539581298828

> <r_mmod_Bend_Energy-OPLS-2005>
146.411605834961

> <r_mmod_Torsional_Energy-OPLS-2005>
224.802932739258

> <r_mmod_Improper_Torsional_Energy-OPLS-2005>
4.93723726272583

> <r_mmod_Van_der_Waal_Energy-OPLS-2005>
149.733795166016

> <r_mmod_Electrostatic_Energy-OPLS-2005>
-467.244140625

> <r_mmod_Solvation_Energy-OPLS-2005>
-217.256561279297

> <b_mmod_Minimization_Converged-OPLS-2005>
0

> <r_mmod_RMS_Derivative-OPLS-2005>
2.18746113777161

$$$$
28
                    3D
 Structure written by MMmdl.
156165  0  0  1  0            999 V2000
  -30.6190  -14.6324   20.4971 C   0  0  0  0  0  0
  -30.4390  -12.3866   19.4504 C   0  0  0  0  0  0
  -29.5074  -12.5087   18.2234 C   0  0  0  0  0  0
  -28.0300  -12.3458   18.6352 C   0  0  0  0  0  0
  -27.6538  -13.2138   19.8652 C   0  0  2  0  0  0
  -28.6991  -13.0613   20.9939 C   0  0  0  0  0  0
  -25.2559  -13.8159   20.5687 C   0  0  0  0  0  0
  -24.1829  -13.0426   20.9198 C   0  0  0  0  0  0
  -24.6397  -11.6898   20.8751 C   0  0  0  0  0  0
  -23.9064  -10.4284   21.0416 C   0  0  0  0  0  0
  -24.3618   -9.4198   21.9190 C   0  0  0  0  0  0
  -23.6290   -8.2237   22.0759 C   0  0  0  0  0  0
  -22.4273   -8.0279   21.3544 C   0  0  0  0  0  0
  -21.9911   -9.0252   20.4644 C   0  0  0  0  0  0
  -22.7242  -10.2129   20.3057 C   0  0  0  0  0  0
  -21.6850   -6.0735   22.5281 C   0  0  0  0  0  0
  -21.4012   -6.5641   23.8214 C   0  0  0  0  0  0
  -21.3658   -5.6795   24.9177 C   0  0  0  0  0  0
  -21.6048   -4.3057   24.7229 C   0  0  0  0  0  0
  -21.8819   -3.8146   23.4351 C   0  0  0  0  0  0
  -21.9189   -4.6961   22.3404 C   0  0  0  0  0  0
  -22.7848  -13.5219   21.1857 C   0  0  0  0  0  0
  -22.1659   -4.2149   21.0979 F   0  0  0  0  0  0
  -21.5629   -3.4542   25.7739 F   0  0  0  0  0  0
  -30.0153  -13.4039   20.4315 N   0  0  0  0  0  0
  -26.2989  -12.9338   20.3323 N   0  0  0  0  0  0
  -25.9325  -11.6493   20.5768 N   0  0  0  0  0  0
  -22.0495  -12.8204   22.0412 N   0  0  0  0  0  0
  -25.4253  -15.1882   20.4075 N   0  0  0  0  0  0
  -31.7851  -14.7935   20.1252 O   0  0  0  0  0  0
  -21.6634   -6.8881   21.4245 O   0  0  0  0  0  0
  -22.3536  -14.5529   20.6712 O   0  0  0  0  0  0
  -24.6261  -31.8617   23.2042 C   0  0  0  0  0  0
  -25.9113  -32.4788   23.8369 C   0  0  1  0  0  0
  -27.2211  -27.3241   20.1081 C   0  0  0  0  0  0
  -25.5939  -33.8588   24.2295 N   0  0  0  0  0  0
  -23.4190  -30.4870   21.5477 C   0  0  2  0  0  0
  -24.8639  -28.9466   20.1114 C   0  0  0  0  0  0
  -22.7475  -29.4635   22.4942 C   0  0  0  0  0  0
  -18.0285  -28.1389   22.8490 C   0  0  0  0  0  0
  -24.1489  -36.7289   23.2640 C   0  0  0  0  0  0
  -25.9610  -30.7935   21.3755 C   0  0  0  0  0  0
  -26.0351  -29.4226   20.7143 C   0  0  0  0  0  0
  -27.2173  -28.6238   20.7024 C   0  0  0  0  0  0
  -26.0217  -26.9027   19.4844 C   0  0  0  0  0  0
  -24.8589  -27.6913   19.4889 C   0  0  0  0  0  0
  -23.6330  -29.8267   20.1617 C   0  0  0  0  0  0
  -25.4118  -36.3088   24.0332 C   0  0  1  0  0  0
  -20.5886  -28.3693   23.1283 C   0  0  2  0  0  0
  -20.6771  -26.9418   22.5409 C   0  0  0  0  0  0
  -19.5747  -26.6391   21.5208 C   0  0  0  0  0  0
  -18.1929  -26.7933   22.1623 C   0  0  0  0  0  0
  -19.1540  -28.8857   23.2884 C   0  0  0  0  0  0
  -18.9462  -30.1457   23.8907 C   0  0  0  0  0  0
  -17.6462  -30.6590   24.0565 C   0  0  0  0  0  0
  -25.9057  -34.9457   23.5110 C   0  0  0  0  0  0
  -16.5353  -29.9090   23.6331 C   0  0  0  0  0  0
  -16.7274  -28.6505   23.0360 C   0  0  0  0  0  0
  -26.4498  -31.6595   25.0732 C   0  0  0  0  0  0
  -25.3732  -31.3722   26.1456 C   0  0  0  0  0  0
  -27.0344  -30.3023   24.6178 C   0  0  0  0  0  0
  -27.6056  -32.4331   25.7511 C   0  0  0  0  0  0
  -27.5581  -37.1806   24.8468 C   0  0  0  0  0  0
  -21.4189  -29.3049   22.3683 N   0  0  0  0  0  0
  -26.4295  -37.3782   23.9410 N   0  0  0  0  0  0
  -24.6875  -31.0631   22.0995 N   0  0  0  0  0  0
  -23.4198  -28.8171   23.3017 O   0  0  0  0  0  0
  -28.3378  -26.4713   20.1512 O   0  0  0  0  0  0
  -26.5621  -34.8921   22.4672 O   0  0  0  0  0  0
  -23.5426  -32.1421   23.7366 O   0  0  0  0  0  0
  -28.7004  -19.3231   20.5438 C   0  0  0  0  0  0
  -28.7024  -17.9096   20.7327 C   0  0  0  0  0  0
  -31.0738  -17.8505   20.3755 C   0  0  0  0  0  0
  -29.8795  -20.0556   20.2400 C   0  0  0  0  0  0
  -29.8824  -17.1252   20.6339 C   0  0  0  0  0  0
  -31.0828  -19.2689   20.1937 C   0  0  0  0  0  0
  -30.1747  -23.7064   19.1830 C   0  0  0  0  0  0
  -30.5004  -22.2026   19.0620 C   0  0  0  0  0  0
  -28.8196  -22.4470   20.6350 C   0  0  0  0  0  0
  -29.2292  -23.9473   20.3436 C   0  0  2  0  0  0
  -28.0840  -25.0134   20.0551 C   0  0  0  0  0  0
  -29.8145  -21.5199   20.0118 N   0  0  0  0  0  0
  -32.3317  -19.8579   19.9965 N   0  0  0  0  0  0
  -29.7934  -15.6753   20.8270 N   0  0  0  0  0  0
  -30.6247  -24.5969   18.4498 O   0  0  0  0  0  0
  -31.2636  -21.7441   18.2003 O   0  0  0  0  0  0
  -31.4805  -12.5136   19.1480 H   0  0  0  0  0  0
  -30.3734  -11.3891   19.8873 H   0  0  0  0  0  0
  -29.7704  -11.7614   17.4737 H   0  0  0  0  0  0
  -29.6509  -13.4809   17.7488 H   0  0  0  0  0  0
  -27.8656  -11.2920   18.8640 H   0  0  0  0  0  0
  -27.3756  -12.5781   17.7943 H   0  0  0  0  0  0
  -27.6723  -14.2492   19.5268 H   0  0  0  0  0  0
  -28.7089  -12.0381   21.3722 H   0  0  0  0  0  0
  -28.4476  -13.6893   21.8495 H   0  0  0  0  0  0
  -25.2766   -9.5669   22.4755 H   0  0  0  0  0  0
  -23.9998   -7.4628   22.7480 H   0  0  0  0  0  0
  -21.0844   -8.8773   19.8947 H   0  0  0  0  0  0
  -22.3709  -10.9671   19.6160 H   0  0  0  0  0  0
  -21.2008   -7.6150   23.9717 H   0  0  0  0  0  0
  -21.1480   -6.0527   25.9080 H   0  0  0  0  0  0
  -22.0599   -2.7609   23.2851 H   0  0  0  0  0  0
  -22.4118  -11.9856   22.4776 H   0  0  0  0  0  0
  -21.1114  -13.1226   22.2631 H   0  0  0  0  0  0
  -24.6498  -15.8351   20.5025 H   0  0  0  0  0  0
  -26.2553  -15.6215   20.0247 H   0  0  0  0  0  0
  -26.7182  -32.5464   23.1126 H   0  0  0  0  0  0
  -25.0092  -33.9741   25.0443 H   0  0  0  0  0  0
  -22.7119  -31.3073   21.4072 H   0  0  0  0  0  0
  -23.3755  -35.9616   23.3305 H   0  0  0  0  0  0
  -24.3576  -36.8904   22.2051 H   0  0  0  0  0  0
  -23.7233  -37.6489   23.6658 H   0  0  0  0  0  0
  -26.0926  -31.5589   20.6095 H   0  0  0  0  0  0
  -26.8414  -30.8404   22.0047 H   0  0  0  0  0  0
  -28.1156  -28.9843   21.1835 H   0  0  0  0  0  0
  -25.9425  -25.9475   18.9895 H   0  0  0  0  0  0
  -23.9610  -27.3211   19.0128 H   0  0  0  0  0  0
  -23.7548  -30.6061   19.4088 H   0  0  0  0  0  0
  -22.7521  -29.2587   19.8561 H   0  0  0  0  0  0
  -25.1296  -36.1944   25.0825 H   0  0  0  0  0  0
  -20.9980  -28.3262   24.1405 H   0  0  0  0  0  0
  -20.5667  -26.2303   23.3608 H   0  0  0  0  0  0
  -21.6641  -26.7442   22.1207 H   0  0  0  0  0  0
  -19.6907  -25.6300   21.1238 H   0  0  0  0  0  0
  -19.6682  -27.3197   20.6734 H   0  0  0  0  0  0
  -17.4196  -26.6683   21.4028 H   0  0  0  0  0  0
  -18.0333  -26.0072   22.9021 H   0  0  0  0  0  0
  -19.7935  -30.7267   24.2291 H   0  0  0  0  0  0
  -17.5016  -31.6272   24.5166 H   0  0  0  0  0  0
  -15.5356  -30.2998   23.7647 H   0  0  0  0  0  0
  -15.8673  -28.0821   22.7083 H   0  0  0  0  0  0
  -24.5917  -30.7066   25.7779 H   0  0  0  0  0  0
  -24.8916  -32.2883   26.4884 H   0  0  0  0  0  0
  -25.8062  -30.8901   27.0229 H   0  0  0  0  0  0
  -26.2915  -29.6776   24.1203 H   0  0  0  0  0  0
  -27.4048  -29.7276   25.4680 H   0  0  0  0  0  0
  -27.8785  -30.4316   23.9399 H   0  0  0  0  0  0
  -27.2665  -33.3632   26.2087 H   0  0  0  0  0  0
  -28.3875  -32.6889   25.0348 H   0  0  0  0  0  0
  -28.0716  -31.8456   26.5435 H   0  0  0  0  0  0
  -28.2602  -38.0099   24.7519 H   0  0  0  0  0  0
  -28.1078  -36.2632   24.6300 H   0  0  0  0  0  0
  -27.2300  -37.1457   25.8872 H   0  0  0  0  0  0
  -20.9363  -29.8791   21.6914 H   0  0  0  0  0  0
  -26.0178  -38.2858   24.1409 H   0  0  0  0  0  0
  -27.7559  -19.8430   20.6174 H   0  0  0  0  0  0
  -27.7594  -17.4265   20.9491 H   0  0  0  0  0  0
  -32.0084  -17.3114   20.3231 H   0  0  0  0  0  0
  -27.8313  -22.2374   20.2225 H   0  0  0  0  0  0
  -28.7678  -22.2649   21.7088 H   0  0  0  0  0  0
  -29.8328  -24.3011   21.1787 H   0  0  0  0  0  0
  -27.2637  -24.7821   20.7366 H   0  0  0  0  0  0
  -27.7128  -24.7983   19.0527 H   0  0  0  0  0  0
  -33.0954  -19.2254   19.7807 H   0  0  0  0  0  0
  -32.3203  -20.6360   19.3372 H   0  0  0  0  0  0
  -28.8822  -15.3520   21.1149 H   0  0  0  0  0  0
  1 25  1  0  0  0
  1 30  2  0  0  0
  1 84  1  0  0  0
  2  3  1  0  0  0
  2 25  1  0  0  0
  2 87  1  0  0  0
  2 88  1  0  0  0
  3  4  1  0  0  0
  3 89  1  0  0  0
  3 90  1  0  0  0
  4  5  1  0  0  0
  4 91  1  0  0  0
  4 92  1  0  0  0
  5  6  1  0  0  0
  5 26  1  0  0  0
  5 93  1  0  0  0
  6 25  1  0  0  0
  6 94  1  0  0  0
  6 95  1  0  0  0
  7  8  2  0  0  0
  7 26  1  0  0  0
  7 29  1  0  0  0
  8  9  1  0  0  0
  8 22  1  0  0  0
  9 10  1  0  0  0
  9 27  2  0  0  0
 10 11  2  0  0  0
 10 15  1  0  0  0
 11 12  1  0  0  0
 11 96  1  0  0  0
 12 13  2  0  0  0
 12 97  1  0  0  0
 13 14  1  0  0  0
 13 31  1  0  0  0
 14 15  2  0  0  0
 14 98  1  0  0  0
 15 99  1  0  0  0
 16 17  2  0  0  0
 16 21  1  0  0  0
 16 31  1  0  0  0
 17 18  1  0  0  0
 17100  1  0  0  0
 18 19  2  0  0  0
 18101  1  0  0  0
 19 20  1  0  0  0
 19 24  1  0  0  0
 20 21  2  0  0  0
 20102  1  0  0  0
 21 23  1  0  0  0
 22 28  1  0  0  0
 22 32  2  0  0  0
 26 27  1  0  0  0
 28103  1  0  0  0
 28104  1  0  0  0
 29105  1  0  0  0
 29106  1  0  0  0
 33 34  1  0  0  0
 33 66  1  0  0  0
 33 70  2  0  0  0
 34 36  1  0  0  0
 34 59  1  0  0  0
 34107  1  0  0  0
 35 44  2  0  0  0
 35 45  1  0  0  0
 35 68  1  0  0  0
 36 56  1  0  0  0
 36108  1  0  0  0
 37 39  1  0  0  0
 37 47  1  0  0  0
 37 66  1  0  0  0
 37109  1  0  0  0
 38 43  2  0  0  0
 38 46  1  0  0  0
 38 47  1  0  0  0
 39 64  1  0  0  0
 39 67  2  0  0  0
 40 52  1  0  0  0
 40 53  2  0  0  0
 40 58  1  0  0  0
 41110  1  0  0  0
 41111  1  0  0  0
 41112  1  0  0  0
 41 48  1  0  0  0
 42 43  1  0  0  0
 42 66  1  0  0  0
 42113  1  0  0  0
 42114  1  0  0  0
 43 44  1  0  0  0
 44115  1  0  0  0
 45 46  2  0  0  0
 45116  1  0  0  0
 46117  1  0  0  0
 47118  1  0  0  0
 47119  1  0  0  0
 48 56  1  0  0  0
 48 65  1  0  0  0
 48120  1  0  0  0
 49 50  1  0  0  0
 49 53  1  0  0  0
 49 64  1  0  0  0
 49121  1  0  0  0
 50 51  1  0  0  0
 50122  1  0  0  0
 50123  1  0  0  0
 51 52  1  0  0  0
 51124  1  0  0  0
 51125  1  0  0  0
 52126  1  0  0  0
 52127  1  0  0  0
 53 54  1  0  0  0
 54 55  2  0  0  0
 54128  1  0  0  0
 55 57  1  0  0  0
 55129  1  0  0  0
 56 69  2  0  0  0
 57 58  2  0  0  0
 57130  1  0  0  0
 58131  1  0  0  0
 59 60  1  0  0  0
 59 61  1  0  0  0
 59 62  1  0  0  0
 60132  1  0  0  0
 60133  1  0  0  0
 60134  1  0  0  0
 61135  1  0  0  0
 61136  1  0  0  0
 61137  1  0  0  0
 62138  1  0  0  0
 62139  1  0  0  0
 62140  1  0  0  0
 63 65  1  0  0  0
 63141  1  0  0  0
 63142  1  0  0  0
 63143  1  0  0  0
 64144  1  0  0  0
 65145  1  0  0  0
 68 81  1  0  0  0
 71 72  2  0  0  0
 71 74  1  0  0  0
 71146  1  0  0  0
 72 75  1  0  0  0
 72147  1  0  0  0
 73 75  2  0  0  0
 73 76  1  0  0  0
 73148  1  0  0  0
 74 76  2  0  0  0
 74 82  1  0  0  0
 75 84  1  0  0  0
 76 83  1  0  0  0
 77 78  1  0  0  0
 77 80  1  0  0  0
 77 85  2  0  0  0
 78 82  1  0  0  0
 78 86  2  0  0  0
 79 80  1  0  0  0
 79 82  1  0  0  0
 79149  1  0  0  0
 79150  1  0  0  0
 80 81  1  0  0  0
 80151  1  0  0  0
 81152  1  0  0  0
 81153  1  0  0  0
 83154  1  0  0  0
 83155  1  0  0  0
 84156  1  0  0  0
M  ISO  4   1 100  68 101  81 101  84 100
M  END
> <chiral flag>
0

> <version>
0

> <s_m_source_file>
/data/baiqing/PycharmProjects/Reinvent-master-3.2/result/LINK_invent/BTK/process_docking_weight1_custom_product_contain_oxygen_bond_distance_aromatic_linkinvent_7_9_3/rearranged_h_0071.sdf

> <i_m_source_file_index>
29

> <r_mmod_Potential_Energy-OPLS-2005>
119.921867370605

> <r_mmod_Stretch_Energy-OPLS-2005>
83.216796875

> <r_mmod_Bend_Energy-OPLS-2005>
163.371292114258

> <r_mmod_Torsional_Energy-OPLS-2005>
251.898071289062

> <r_mmod_Improper_Torsional_Energy-OPLS-2005>
9.83874130249023

> <r_mmod_Van_der_Waal_Energy-OPLS-2005>
152.515533447266

> <r_mmod_Electrostatic_Energy-OPLS-2005>
-330.032165527344

> <r_mmod_Solvation_Energy-OPLS-2005>
-257.487609863281

> <b_mmod_Minimization_Converged-OPLS-2005>
0

> <r_mmod_RMS_Derivative-OPLS-2005>
0.847239971160889

$$$$
29
                    3D
 Structure written by MMmdl.
154162  0  0  1  0            999 V2000
  -30.6283  -14.7585   20.4317 C   0  0  0  0  0  0
  -30.4313  -12.4567   19.4565 C   0  0  0  0  0  0
  -29.5049  -12.4813   18.2203 C   0  0  0  0  0  0
  -28.0334  -12.3020   18.6501 C   0  0  0  0  0  0
  -27.6333  -13.2299   19.8254 C   0  0  2  0  0  0
  -28.6829  -13.2013   20.9569 C   0  0  0  0  0  0
  -25.2473  -13.8184   20.5673 C   0  0  0  0  0  0
  -24.1784  -13.0427   20.9226 C   0  0  0  0  0  0
  -24.6384  -11.6894   20.8733 C   0  0  0  0  0  0
  -23.9044  -10.4286   21.0402 C   0  0  0  0  0  0
  -24.3605   -9.4188   21.9179 C   0  0  0  0  0  0
  -23.6296   -8.2219   22.0744 C   0  0  0  0  0  0
  -22.4260   -8.0274   21.3545 C   0  0  0  0  0  0
  -21.9904   -9.0230   20.4630 C   0  0  0  0  0  0
  -22.7228  -10.2118   20.3042 C   0  0  0  0  0  0
  -21.6845   -6.0700   22.5282 C   0  0  0  0  0  0
  -21.4013   -6.5614   23.8206 C   0  0  0  0  0  0
  -21.3658   -5.6767   24.9176 C   0  0  0  0  0  0
  -21.6055   -4.3048   24.7228 C   0  0  0  0  0  0
  -21.8810   -3.8117   23.4357 C   0  0  0  0  0  0
  -21.9192   -4.6916   22.3411 C   0  0  0  0  0  0
  -22.7799  -13.5203   21.1899 C   0  0  0  0  0  0
  -22.1653   -4.2112   21.0992 F   0  0  0  0  0  0
  -21.5634   -3.4540   25.7748 F   0  0  0  0  0  0
  -29.9816  -13.5434   20.3576 N   0  0  0  0  0  0
  -26.2898  -12.9399   20.3182 N   0  0  0  0  0  0
  -25.9312  -11.6545   20.5715 N   0  0  0  0  0  0
  -22.0439  -12.8184   22.0452 N   0  0  0  0  0  0
  -25.4144  -15.1914   20.4050 N   0  0  0  0  0  0
  -31.8394  -14.8106   20.2101 O   0  0  0  0  0  0
  -21.6633   -6.8856   21.4254 O   0  0  0  0  0  0
  -22.3466  -14.5484   20.6701 O   0  0  0  0  0  0
  -24.6332  -31.8538   23.1954 C   0  0  0  0  0  0
  -25.9160  -32.4739   23.8312 C   0  0  1  0  0  0
  -27.2356  -27.2685   20.1223 C   0  0  0  0  0  0
  -25.5924  -33.8541   24.2218 N   0  0  0  0  0  0
  -23.4303  -30.4762   21.5338 C   0  0  2  0  0  0
  -24.8810  -28.9193   20.1047 C   0  0  0  0  0  0
  -22.7507  -29.4583   22.4822 C   0  0  0  0  0  0
  -18.0299  -28.1418   22.8485 C   0  0  0  0  0  0
  -24.1485  -36.7282   23.2640 C   0  0  0  0  0  0
  -25.9753  -30.7722   21.3684 C   0  0  0  0  0  0
  -26.0482  -29.3916   20.7162 C   0  0  0  0  0  0
  -27.2229  -28.5759   20.7156 C   0  0  0  0  0  0
  -26.0386  -26.8495   19.5015 C   0  0  0  0  0  0
  -24.8808  -27.6568   19.4859 C   0  0  0  0  0  0
  -23.6534  -29.8099   20.1471 C   0  0  0  0  0  0
  -25.4108  -36.3051   24.0320 C   0  0  1  0  0  0
  -20.5923  -28.3732   23.1233 C   0  0  2  0  0  0
  -20.6790  -26.9439   22.5406 C   0  0  0  0  0  0
  -19.5747  -26.6393   21.5227 C   0  0  0  0  0  0
  -18.1923  -26.7957   22.1631 C   0  0  0  0  0  0
  -19.1572  -28.8884   23.2866 C   0  0  0  0  0  0
  -18.9484  -30.1476   23.8905 C   0  0  0  0  0  0
  -17.6479  -30.6598   24.0591 C   0  0  0  0  0  0
  -25.9056  -34.9426   23.5073 C   0  0  0  0  0  0
  -16.5370  -29.9105   23.6332 C   0  0  0  0  0  0
  -16.7293  -28.6537   23.0342 C   0  0  0  0  0  0
  -26.4536  -31.6591   25.0704 C   0  0  0  0  0  0
  -25.3767  -31.3785   26.1431 C   0  0  0  0  0  0
  -27.0385  -30.3006   24.6166 C   0  0  0  0  0  0
  -27.6056  -32.4365   25.7500 C   0  0  0  0  0  0
  -27.5564  -37.1765   24.8447 C   0  0  0  0  0  0
  -21.4221  -29.3073   22.3608 N   0  0  0  0  0  0
  -26.4249  -37.3773   23.9429 N   0  0  0  0  0  0
  -24.6990  -31.0515   22.0908 N   0  0  0  0  0  0
  -23.4222  -28.8111   23.2900 O   0  0  0  0  0  0
  -28.3661  -26.4228   20.1996 O   0  0  0  0  0  0
  -26.5606  -34.8915   22.4624 O   0  0  0  0  0  0
  -23.5458  -32.1332   23.7237 O   0  0  0  0  0  0
  -30.8484  -20.0084   21.6606 C   0  0  0  0  0  0
  -31.3030  -17.5898   21.6045 C   0  0  0  0  0  0
  -29.4683  -18.5314   20.3125 C   0  0  0  0  0  0
  -31.5836  -18.8844   22.0923 C   0  0  0  0  0  0
  -29.7799  -19.8975   20.7357 C   0  0  0  0  0  0
  -30.2132  -17.3448   20.7424 C   0  0  0  0  0  0
  -29.3170  -22.4817   20.4131 C   0  0  0  0  0  0
  -32.6516  -19.0579   23.1543 C   0  0  0  0  0  0
  -28.2089  -23.6436   20.2926 C   0  0  0  0  0  0
  -28.4849  -25.0694   19.5552 C   0  0  0  0  0  0
  -28.9989  -21.1211   20.3633 N   0  0  0  0  0  0
  -29.8630  -15.9263   20.4345 N   0  0  0  0  0  0
  -30.4869  -22.8460   20.5615 O   0  0  0  0  0  0
  -31.4738  -12.5766   19.1511 H   0  0  0  0  0  0
  -30.3768  -11.4897   19.9584 H   0  0  0  0  0  0
  -29.7882  -11.6881   17.5238 H   0  0  0  0  0  0
  -29.6288  -13.4209   17.6787 H   0  0  0  0  0  0
  -27.9151  -11.2628   18.9526 H   0  0  0  0  0  0
  -27.3634  -12.4450   17.8016 H   0  0  0  0  0  0
  -27.6157  -14.2406   19.4159 H   0  0  0  0  0  0
  -28.7176  -12.2179   21.4294 H   0  0  0  0  0  0
  -28.4174  -13.9178   21.7369 H   0  0  0  0  0  0
  -25.2754   -9.5639   22.4751 H   0  0  0  0  0  0
  -23.9980   -7.4595   22.7464 H   0  0  0  0  0  0
  -21.0828   -8.8751   19.8946 H   0  0  0  0  0  0
  -22.3703  -10.9641   19.6131 H   0  0  0  0  0  0
  -21.2009   -7.6126   23.9703 H   0  0  0  0  0  0
  -21.1496   -6.0513   25.9085 H   0  0  0  0  0  0
  -22.0596   -2.7581   23.2882 H   0  0  0  0  0  0
  -22.4054  -11.9885   22.4897 H   0  0  0  0  0  0
  -21.1038  -13.1170   22.2593 H   0  0  0  0  0  0
  -24.6401  -15.8407   20.5022 H   0  0  0  0  0  0
  -26.2555  -15.6364   20.0615 H   0  0  0  0  0  0
  -26.7231  -32.5394   23.1057 H   0  0  0  0  0  0
  -25.0177  -33.9680   25.0427 H   0  0  0  0  0  0
  -22.7303  -31.3015   21.3820 H   0  0  0  0  0  0
  -23.3714  -35.9639   23.3281 H   0  0  0  0  0  0
  -24.3615  -36.8924   22.2062 H   0  0  0  0  0  0
  -23.7252  -37.6476   23.6700 H   0  0  0  0  0  0
  -26.1040  -31.5289   20.5926 H   0  0  0  0  0  0
  -26.8595  -30.8335   21.9932 H   0  0  0  0  0  0
  -28.1169  -28.9331   21.2087 H   0  0  0  0  0  0
  -25.9574  -25.8736   19.0497 H   0  0  0  0  0  0
  -23.9874  -27.2866   19.0044 H   0  0  0  0  0  0
  -23.7884  -30.5891   19.3936 H   0  0  0  0  0  0
  -22.7732  -29.2453   19.8296 H   0  0  0  0  0  0
  -25.1283  -36.1880   25.0805 H   0  0  0  0  0  0
  -21.0060  -28.3343   24.1338 H   0  0  0  0  0  0
  -20.5694  -26.2368   23.3635 H   0  0  0  0  0  0
  -21.6645  -26.7449   22.1190 H   0  0  0  0  0  0
  -19.6907  -25.6309   21.1232 H   0  0  0  0  0  0
  -19.6655  -27.3239   20.6782 H   0  0  0  0  0  0
  -17.4202  -26.6735   21.4020 H   0  0  0  0  0  0
  -18.0291  -26.0113   22.9042 H   0  0  0  0  0  0
  -19.7984  -30.7289   24.2260 H   0  0  0  0  0  0
  -17.5055  -31.6275   24.5217 H   0  0  0  0  0  0
  -15.5389  -30.3018   23.7640 H   0  0  0  0  0  0
  -15.8708  -28.0866   22.7017 H   0  0  0  0  0  0
  -24.5920  -30.7155   25.7776 H   0  0  0  0  0  0
  -24.8997  -32.2989   26.4803 H   0  0  0  0  0  0
  -25.8080  -30.9001   27.0236 H   0  0  0  0  0  0
  -26.2966  -29.6731   24.1206 H   0  0  0  0  0  0
  -27.4115  -29.7287   25.4679 H   0  0  0  0  0  0
  -27.8841  -30.4268   23.9404 H   0  0  0  0  0  0
  -27.2613  -33.3668   26.2039 H   0  0  0  0  0  0
  -28.3906  -32.6918   25.0378 H   0  0  0  0  0  0
  -28.0704  -31.8538   26.5458 H   0  0  0  0  0  0
  -28.2511  -38.0126   24.7544 H   0  0  0  0  0  0
  -28.1115  -36.2639   24.6187 H   0  0  0  0  0  0
  -27.2309  -37.1331   25.8856 H   0  0  0  0  0  0
  -20.9417  -29.8869   21.6877 H   0  0  0  0  0  0
  -26.0094  -38.2819   24.1491 H   0  0  0  0  0  0
  -31.1028  -20.9709   22.0868 H   0  0  0  0  0  0
  -31.9108  -16.7697   21.9599 H   0  0  0  0  0  0
  -28.6272  -18.3934   19.6446 H   0  0  0  0  0  0
  -33.2802  -18.1719   23.2562 H   0  0  0  0  0  0
  -32.1763  -19.2345   24.1222 H   0  0  0  0  0  0
  -33.2977  -19.9063   22.9326 H   0  0  0  0  0  0
  -27.8678  -23.8597   21.3063 H   0  0  0  0  0  0
  -27.3517  -23.1911   19.7913 H   0  0  0  0  0  0
  -29.5127  -25.0419   19.1912 H   0  0  0  0  0  0
  -27.9093  -25.0796   18.6286 H   0  0  0  0  0  0
  -28.0474  -20.9443   20.0680 H   0  0  0  0  0  0
  -28.8841  -15.7636   20.2539 H   0  0  0  0  0  0
  1 25  1  0  0  0
  1 30  2  0  0  0
  1 82  1  0  0  0
  2  3  1  0  0  0
  2 25  1  0  0  0
  2 84  1  0  0  0
  2 85  1  0  0  0
  3  4  1  0  0  0
  3 86  1  0  0  0
  3 87  1  0  0  0
  4  5  1  0  0  0
  4 88  1  0  0  0
  4 89  1  0  0  0
  5  6  1  0  0  0
  5 26  1  0  0  0
  5 90  1  0  0  0
  6 25  1  0  0  0
  6 91  1  0  0  0
  6 92  1  0  0  0
  7  8  2  0  0  0
  7 26  1  0  0  0
  7 29  1  0  0  0
  8  9  1  0  0  0
  8 22  1  0  0  0
  9 10  1  0  0  0
  9 27  2  0  0  0
 10 11  2  0  0  0
 10 15  1  0  0  0
 11 12  1  0  0  0
 11 93  1  0  0  0
 12 13  2  0  0  0
 12 94  1  0  0  0
 13 14  1  0  0  0
 13 31  1  0  0  0
 14 15  2  0  0  0
 14 95  1  0  0  0
 15 96  1  0  0  0
 16 17  2  0  0  0
 16 21  1  0  0  0
 16 31  1  0  0  0
 17 18  1  0  0  0
 17 97  1  0  0  0
 18 19  2  0  0  0
 18 98  1  0  0  0
 19 20  1  0  0  0
 19 24  1  0  0  0
 20 21  2  0  0  0
 20 99  1  0  0  0
 21 23  1  0  0  0
 22 28  1  0  0  0
 22 32  2  0  0  0
 26 27  1  0  0  0
 28100  1  0  0  0
 28101  1  0  0  0
 29102  1  0  0  0
 29103  1  0  0  0
 33 34  1  0  0  0
 33 66  1  0  0  0
 33 70  2  0  0  0
 34 36  1  0  0  0
 34 59  1  0  0  0
 34104  1  0  0  0
 35 44  2  0  0  0
 35 45  1  0  0  0
 35 68  1  0  0  0
 36 56  1  0  0  0
 36105  1  0  0  0
 37 39  1  0  0  0
 37 47  1  0  0  0
 37 66  1  0  0  0
 37106  1  0  0  0
 38 43  2  0  0  0
 38 46  1  0  0  0
 38 47  1  0  0  0
 39 64  1  0  0  0
 39 67  2  0  0  0
 40 52  1  0  0  0
 40 53  2  0  0  0
 40 58  1  0  0  0
 41107  1  0  0  0
 41108  1  0  0  0
 41109  1  0  0  0
 41 48  1  0  0  0
 42 43  1  0  0  0
 42 66  1  0  0  0
 42110  1  0  0  0
 42111  1  0  0  0
 43 44  1  0  0  0
 44112  1  0  0  0
 45 46  2  0  0  0
 45113  1  0  0  0
 46114  1  0  0  0
 47115  1  0  0  0
 47116  1  0  0  0
 48 56  1  0  0  0
 48 65  1  0  0  0
 48117  1  0  0  0
 49 50  1  0  0  0
 49 53  1  0  0  0
 49 64  1  0  0  0
 49118  1  0  0  0
 50 51  1  0  0  0
 50119  1  0  0  0
 50120  1  0  0  0
 51 52  1  0  0  0
 51121  1  0  0  0
 51122  1  0  0  0
 52123  1  0  0  0
 52124  1  0  0  0
 53 54  1  0  0  0
 54 55  2  0  0  0
 54125  1  0  0  0
 55 57  1  0  0  0
 55126  1  0  0  0
 56 69  2  0  0  0
 57 58  2  0  0  0
 57127  1  0  0  0
 58128  1  0  0  0
 59 60  1  0  0  0
 59 61  1  0  0  0
 59 62  1  0  0  0
 60129  1  0  0  0
 60130  1  0  0  0
 60131  1  0  0  0
 61132  1  0  0  0
 61133  1  0  0  0
 61134  1  0  0  0
 62135  1  0  0  0
 62136  1  0  0  0
 62137  1  0  0  0
 63 65  1  0  0  0
 63138  1  0  0  0
 63139  1  0  0  0
 63140  1  0  0  0
 64141  1  0  0  0
 65142  1  0  0  0
 68 80  1  0  0  0
 71 74  2  0  0  0
 71 75  1  0  0  0
 71143  1  0  0  0
 72 74  1  0  0  0
 72 76  2  0  0  0
 72144  1  0  0  0
 73 75  2  0  0  0
 73 76  1  0  0  0
 73145  1  0  0  0
 74 78  1  0  0  0
 75 81  1  0  0  0
 76 82  1  0  0  0
 77 79  1  0  0  0
 77 81  1  0  0  0
 77 83  2  0  0  0
 78146  1  0  0  0
 78147  1  0  0  0
 78148  1  0  0  0
 79 80  1  0  0  0
 79149  1  0  0  0
 79150  1  0  0  0
 80151  1  0  0  0
 80152  1  0  0  0
 81153  1  0  0  0
 82154  1  0  0  0
M  ISO  4   1 100  68 101  80 101  82 100
M  END
> <chiral flag>
0

> <version>
0

> <s_m_source_file>
/data/baiqing/PycharmProjects/Reinvent-master-3.2/result/LINK_invent/BTK/process_docking_weight1_custom_product_contain_oxygen_bond_distance_aromatic_linkinvent_7_9_3/rearranged_h_0071.sdf

> <i_m_source_file_index>
30

> <r_mmod_Potential_Energy-OPLS-2005>
179.576324462891

> <r_mmod_Stretch_Energy-OPLS-2005>
135.895095825195

> <r_mmod_Bend_Energy-OPLS-2005>
183.284194946289

> <r_mmod_Torsional_Energy-OPLS-2005>
236.21647644043

> <r_mmod_Improper_Torsional_Energy-OPLS-2005>
8.60268115997314

> <r_mmod_Van_der_Waal_Energy-OPLS-2005>
137.448715209961

> <r_mmod_Electrostatic_Energy-OPLS-2005>
-368.944854736328

> <r_mmod_Solvation_Energy-OPLS-2005>
-242.350021362305

> <b_mmod_Minimization_Converged-OPLS-2005>
0

> <r_mmod_RMS_Derivative-OPLS-2005>
5.53964376449585

$$$$
30
                    3D
 Structure written by MMmdl.
154162  0  0  1  0            999 V2000
  -30.6151  -14.6492   20.4923 C   0  0  0  0  0  0
  -30.4437  -12.3995   19.4522 C   0  0  0  0  0  0
  -29.5181  -12.5303   18.2222 C   0  0  0  0  0  0
  -28.0382  -12.3645   18.6239 C   0  0  0  0  0  0
  -27.6595  -13.2176   19.8654 C   0  0  2  0  0  0
  -28.7022  -13.0676   20.9966 C   0  0  0  0  0  0
  -25.2647  -13.8161   20.5677 C   0  0  0  0  0  0
  -24.1892  -13.0457   20.9180 C   0  0  0  0  0  0
  -24.6434  -11.6912   20.8717 C   0  0  0  0  0  0
  -23.9074  -10.4310   21.0392 C   0  0  0  0  0  0
  -24.3610   -9.4229   21.9181 C   0  0  0  0  0  0
  -23.6307   -8.2250   22.0744 C   0  0  0  0  0  0
  -22.4293   -8.0271   21.3524 C   0  0  0  0  0  0
  -21.9921   -9.0247   20.4628 C   0  0  0  0  0  0
  -22.7233  -10.2142   20.3058 C   0  0  0  0  0  0
  -21.6869   -6.0731   22.5269 C   0  0  0  0  0  0
  -21.4006   -6.5638   23.8194 C   0  0  0  0  0  0
  -21.3665   -5.6800   24.9159 C   0  0  0  0  0  0
  -21.6058   -4.3065   24.7227 C   0  0  0  0  0  0
  -21.8840   -3.8152   23.4351 C   0  0  0  0  0  0
  -21.9210   -4.6960   22.3401 C   0  0  0  0  0  0
  -22.7925  -13.5253   21.1869 C   0  0  0  0  0  0
  -22.1674   -4.2152   21.0980 F   0  0  0  0  0  0
  -21.5642   -3.4548   25.7737 F   0  0  0  0  0  0
  -30.0178  -13.4156   20.4364 N   0  0  0  0  0  0
  -26.3049  -12.9321   20.3304 N   0  0  0  0  0  0
  -25.9368  -11.6472   20.5717 N   0  0  0  0  0  0
  -22.0557  -12.8208   22.0378 N   0  0  0  0  0  0
  -25.4513  -15.1866   20.4074 N   0  0  0  0  0  0
  -31.7686  -14.8206   20.0883 O   0  0  0  0  0  0
  -21.6647   -6.8875   21.4231 O   0  0  0  0  0  0
  -22.3601  -14.5570   20.6739 O   0  0  0  0  0  0
  -24.6247  -31.8566   23.2030 C   0  0  0  0  0  0
  -25.9118  -32.4729   23.8337 C   0  0  1  0  0  0
  -27.2250  -27.3034   20.1232 C   0  0  0  0  0  0
  -25.5931  -33.8529   24.2275 N   0  0  0  0  0  0
  -23.4185  -30.4774   21.5463 C   0  0  2  0  0  0
  -24.8677  -28.9284   20.1115 C   0  0  0  0  0  0
  -22.7454  -29.4606   22.4986 C   0  0  0  0  0  0
  -18.0274  -28.1386   22.8500 C   0  0  0  0  0  0
  -24.1482  -36.7264   23.2639 C   0  0  0  0  0  0
  -25.9596  -30.7776   21.3807 C   0  0  0  0  0  0
  -26.0349  -29.4050   20.7220 C   0  0  0  0  0  0
  -27.2156  -28.6037   20.7173 C   0  0  0  0  0  0
  -26.0389  -26.8869   19.4802 C   0  0  0  0  0  0
  -24.8720  -27.6759   19.4789 C   0  0  0  0  0  0
  -23.6334  -29.8066   20.1627 C   0  0  0  0  0  0
  -25.4108  -36.3043   24.0321 C   0  0  1  0  0  0
  -20.5861  -28.3684   23.1298 C   0  0  2  0  0  0
  -20.6758  -26.9417   22.5412 C   0  0  0  0  0  0
  -19.5747  -26.6402   21.5209 C   0  0  0  0  0  0
  -18.1928  -26.7932   22.1622 C   0  0  0  0  0  0
  -19.1526  -28.8860   23.2876 C   0  0  0  0  0  0
  -18.9452  -30.1469   23.8891 C   0  0  0  0  0  0
  -17.6449  -30.6597   24.0556 C   0  0  0  0  0  0
  -25.9064  -34.9415   23.5107 C   0  0  0  0  0  0
  -16.5343  -29.9087   23.6333 C   0  0  0  0  0  0
  -16.7259  -28.6489   23.0385 C   0  0  0  0  0  0
  -26.4531  -31.6513   25.0686 C   0  0  0  0  0  0
  -25.3786  -31.3603   26.1421 C   0  0  0  0  0  0
  -27.0407  -30.2927   24.6177 C   0  0  0  0  0  0
  -27.6085  -32.4260   25.7472 C   0  0  0  0  0  0
  -27.5575  -37.1766   24.8469 C   0  0  0  0  0  0
  -21.4174  -29.3022   22.3693 N   0  0  0  0  0  0
  -26.4282  -37.3745   23.9425 N   0  0  0  0  0  0
  -24.6860  -31.0548   22.0995 N   0  0  0  0  0  0
  -23.4152  -28.8161   23.3097 O   0  0  0  0  0  0
  -28.3509  -26.4627   20.1345 O   0  0  0  0  0  0
  -26.5654  -34.8882   22.4692 O   0  0  0  0  0  0
  -23.5417  -32.1403   23.7365 O   0  0  0  0  0  0
  -29.4278  -18.9654   18.9837 C   0  0  0  0  0  0
  -30.0523  -18.1249   21.5600 C   0  0  0  0  0  0
  -29.6244  -19.9883   19.9584 C   0  0  0  0  0  0
  -29.8675  -17.1126   20.5753 C   0  0  0  0  0  0
  -29.5356  -17.5731   19.2748 C   0  0  0  0  0  0
  -29.9497  -19.5241   21.2654 C   0  0  0  0  0  0
  -29.6483  -21.4732   19.5182 C   0  0  0  0  0  0
  -30.6768  -24.4359   20.4465 C   0  0  0  0  0  0
  -28.1749  -25.0129   20.4427 C   0  0  0  0  0  0
  -29.2959  -23.9877   19.9418 C   0  0  2  0  0  0
  -29.8326  -15.6881   20.9179 N   0  0  0  0  0  0
  -29.1320  -22.5077   20.2625 N   0  0  0  0  0  0
  -30.1444  -21.7154   18.4138 O   0  0  0  0  0  0
  -29.2814  -16.6722   18.2954 F   0  0  0  0  0  0
  -30.1841  -20.4139   22.2602 F   0  0  0  0  0  0
  -31.4871  -12.5295   19.1563 H   0  0  0  0  0  0
  -30.3740  -11.3966   19.8770 H   0  0  0  0  0  0
  -29.7851  -11.7946   17.4624 H   0  0  0  0  0  0
  -29.6695  -13.5072   17.7586 H   0  0  0  0  0  0
  -27.8668  -11.3066   18.8254 H   0  0  0  0  0  0
  -27.3949  -12.6211   17.7822 H   0  0  0  0  0  0
  -27.6814  -14.2573   19.5389 H   0  0  0  0  0  0
  -28.7170  -12.0427   21.3736 H   0  0  0  0  0  0
  -28.4459  -13.6931   21.8532 H   0  0  0  0  0  0
  -25.2752   -9.5708   22.4743 H   0  0  0  0  0  0
  -24.0032   -7.4649   22.7460 H   0  0  0  0  0  0
  -21.0871   -8.8768   19.8921 H   0  0  0  0  0  0
  -22.3697  -10.9680   19.6163 H   0  0  0  0  0  0
  -21.1961   -7.6142   23.9683 H   0  0  0  0  0  0
  -21.1468   -6.0527   25.9056 H   0  0  0  0  0  0
  -22.0616   -2.7614   23.2847 H   0  0  0  0  0  0
  -22.4156  -11.9825   22.4696 H   0  0  0  0  0  0
  -21.1174  -13.1216   22.2590 H   0  0  0  0  0  0
  -24.7069  -15.8675   20.5119 H   0  0  0  0  0  0
  -26.3129  -15.5956   20.0699 H   0  0  0  0  0  0
  -26.7164  -32.5392   23.1052 H   0  0  0  0  0  0
  -24.9991  -33.9648   25.0357 H   0  0  0  0  0  0
  -22.7121  -31.2966   21.3993 H   0  0  0  0  0  0
  -23.3747  -35.9592   23.3283 H   0  0  0  0  0  0
  -24.3578  -36.8923   22.2062 H   0  0  0  0  0  0
  -23.7218  -37.6439   23.6699 H   0  0  0  0  0  0
  -26.0979  -31.5438   20.6166 H   0  0  0  0  0  0
  -26.8354  -30.8218   22.0163 H   0  0  0  0  0  0
  -28.1123  -28.9624   21.2020 H   0  0  0  0  0  0
  -25.9999  -25.9441   18.9567 H   0  0  0  0  0  0
  -23.9847  -27.3125   18.9777 H   0  0  0  0  0  0
  -23.7373  -30.5771   19.3977 H   0  0  0  0  0  0
  -22.7554  -29.2274   19.8706 H   0  0  0  0  0  0
  -25.1279  -36.1882   25.0803 H   0  0  0  0  0  0
  -20.9938  -28.3268   24.1422 H   0  0  0  0  0  0
  -20.5682  -26.2306   23.3606 H   0  0  0  0  0  0
  -21.6625  -26.7459   22.1204 H   0  0  0  0  0  0
  -19.6920  -25.6316   21.1243 H   0  0  0  0  0  0
  -19.6681  -27.3213   20.6742 H   0  0  0  0  0  0
  -17.4187  -26.6689   21.4029 H   0  0  0  0  0  0
  -18.0323  -26.0062   22.9006 H   0  0  0  0  0  0
  -19.7922  -30.7299   24.2256 H   0  0  0  0  0  0
  -17.4996  -31.6281   24.5162 H   0  0  0  0  0  0
  -15.5352  -30.2999   23.7656 H   0  0  0  0  0  0
  -15.8645  -28.0801   22.7144 H   0  0  0  0  0  0
  -24.5984  -30.6938   25.7720 H   0  0  0  0  0  0
  -24.8959  -32.2748   26.4873 H   0  0  0  0  0  0
  -25.8127  -30.8742   27.0167 H   0  0  0  0  0  0
  -26.2988  -29.6622   24.1263 H   0  0  0  0  0  0
  -27.4157  -29.7214   25.4682 H   0  0  0  0  0  0
  -27.8832  -30.4179   23.9372 H   0  0  0  0  0  0
  -27.2677  -33.3561   26.2026 H   0  0  0  0  0  0
  -28.3898  -32.6818   25.0299 H   0  0  0  0  0  0
  -28.0757  -31.8405   26.5399 H   0  0  0  0  0  0
  -28.2552  -38.0101   24.7550 H   0  0  0  0  0  0
  -28.1111  -36.2629   24.6253 H   0  0  0  0  0  0
  -27.2305  -37.1341   25.8872 H   0  0  0  0  0  0
  -20.9404  -29.8676   21.6812 H   0  0  0  0  0  0
  -26.0159  -38.2807   24.1460 H   0  0  0  0  0  0
  -29.1902  -19.2518   17.9681 H   0  0  0  0  0  0
  -30.2861  -17.8368   22.5745 H   0  0  0  0  0  0
  -30.8786  -25.4740   20.1823 H   0  0  0  0  0  0
  -31.4734  -23.8320   20.0097 H   0  0  0  0  0  0
  -30.7450  -24.3522   21.5319 H   0  0  0  0  0  0
  -28.1075  -24.9413   21.5292 H   0  0  0  0  0  0
  -27.2191  -24.6409   20.0802 H   0  0  0  0  0  0
  -29.3009  -24.0801   18.8549 H   0  0  0  0  0  0
  -28.9594  -15.3846   21.3187 H   0  0  0  0  0  0
  -28.7027  -22.2641   21.1462 H   0  0  0  0  0  0
  1 25  1  0  0  0
  1 30  2  0  0  0
  1 81  1  0  0  0
  2  3  1  0  0  0
  2 25  1  0  0  0
  2 86  1  0  0  0
  2 87  1  0  0  0
  3  4  1  0  0  0
  3 88  1  0  0  0
  3 89  1  0  0  0
  4  5  1  0  0  0
  4 90  1  0  0  0
  4 91  1  0  0  0
  5  6  1  0  0  0
  5 26  1  0  0  0
  5 92  1  0  0  0
  6 25  1  0  0  0
  6 93  1  0  0  0
  6 94  1  0  0  0
  7  8  2  0  0  0
  7 26  1  0  0  0
  7 29  1  0  0  0
  8  9  1  0  0  0
  8 22  1  0  0  0
  9 10  1  0  0  0
  9 27  2  0  0  0
 10 11  2  0  0  0
 10 15  1  0  0  0
 11 12  1  0  0  0
 11 95  1  0  0  0
 12 13  2  0  0  0
 12 96  1  0  0  0
 13 14  1  0  0  0
 13 31  1  0  0  0
 14 15  2  0  0  0
 14 97  1  0  0  0
 15 98  1  0  0  0
 16 17  2  0  0  0
 16 21  1  0  0  0
 16 31  1  0  0  0
 17 18  1  0  0  0
 17 99  1  0  0  0
 18 19  2  0  0  0
 18100  1  0  0  0
 19 20  1  0  0  0
 19 24  1  0  0  0
 20 21  2  0  0  0
 20101  1  0  0  0
 21 23  1  0  0  0
 22 28  1  0  0  0
 22 32  2  0  0  0
 26 27  1  0  0  0
 28102  1  0  0  0
 28103  1  0  0  0
 29104  1  0  0  0
 29105  1  0  0  0
 33 34  1  0  0  0
 33 66  1  0  0  0
 33 70  2  0  0  0
 34 36  1  0  0  0
 34 59  1  0  0  0
 34106  1  0  0  0
 35 44  2  0  0  0
 35 45  1  0  0  0
 35 68  1  0  0  0
 36 56  1  0  0  0
 36107  1  0  0  0
 37 39  1  0  0  0
 37 47  1  0  0  0
 37 66  1  0  0  0
 37108  1  0  0  0
 38 43  2  0  0  0
 38 46  1  0  0  0
 38 47  1  0  0  0
 39 64  1  0  0  0
 39 67  2  0  0  0
 40 52  1  0  0  0
 40 53  2  0  0  0
 40 58  1  0  0  0
 41109  1  0  0  0
 41110  1  0  0  0
 41111  1  0  0  0
 41 48  1  0  0  0
 42 43  1  0  0  0
 42 66  1  0  0  0
 42112  1  0  0  0
 42113  1  0  0  0
 43 44  1  0  0  0
 44114  1  0  0  0
 45 46  2  0  0  0
 45115  1  0  0  0
 46116  1  0  0  0
 47117  1  0  0  0
 47118  1  0  0  0
 48 56  1  0  0  0
 48 65  1  0  0  0
 48119  1  0  0  0
 49 50  1  0  0  0
 49 53  1  0  0  0
 49 64  1  0  0  0
 49120  1  0  0  0
 50 51  1  0  0  0
 50121  1  0  0  0
 50122  1  0  0  0
 51 52  1  0  0  0
 51123  1  0  0  0
 51124  1  0  0  0
 52125  1  0  0  0
 52126  1  0  0  0
 53 54  1  0  0  0
 54 55  2  0  0  0
 54127  1  0  0  0
 55 57  1  0  0  0
 55128  1  0  0  0
 56 69  2  0  0  0
 57 58  2  0  0  0
 57129  1  0  0  0
 58130  1  0  0  0
 59 60  1  0  0  0
 59 61  1  0  0  0
 59 62  1  0  0  0
 60131  1  0  0  0
 60132  1  0  0  0
 60133  1  0  0  0
 61134  1  0  0  0
 61135  1  0  0  0
 61136  1  0  0  0
 62137  1  0  0  0
 62138  1  0  0  0
 62139  1  0  0  0
 63 65  1  0  0  0
 63140  1  0  0  0
 63141  1  0  0  0
 63142  1  0  0  0
 64143  1  0  0  0
 65144  1  0  0  0
 68 79  1  0  0  0
 71 73  2  0  0  0
 71 75  1  0  0  0
 71145  1  0  0  0
 72 74  1  0  0  0
 72 76  2  0  0  0
 72146  1  0  0  0
 73 76  1  0  0  0
 73 77  1  0  0  0
 74 75  2  0  0  0
 74 81  1  0  0  0
 75 84  1  0  0  0
 76 85  1  0  0  0
 77 82  1  0  0  0
 77 83  2  0  0  0
 78147  1  0  0  0
 78148  1  0  0  0
 78149  1  0  0  0
 78 80  1  0  0  0
 79 80  1  0  0  0
 79150  1  0  0  0
 79151  1  0  0  0
 80 82  1  0  0  0
 80152  1  0  0  0
 81153  1  0  0  0
 82154  1  0  0  0
M  ISO  4   1 100  68 101  79 101  81 100
M  END
> <chiral flag>
0

> <version>
0

> <s_m_source_file>
/data/baiqing/PycharmProjects/Reinvent-master-3.2/result/LINK_invent/BTK/process_docking_weight1_custom_product_contain_oxygen_bond_distance_aromatic_linkinvent_7_9_3/rearranged_h_0071.sdf

> <i_m_source_file_index>
31

> <r_mmod_Potential_Energy-OPLS-2005>
-14.1559600830078

> <r_mmod_Stretch_Energy-OPLS-2005>
85.8902130126953

> <r_mmod_Bend_Energy-OPLS-2005>
136.685531616211

> <r_mmod_Torsional_Energy-OPLS-2005>
263.207977294922

> <r_mmod_Improper_Torsional_Energy-OPLS-2005>
5.35788822174072

> <r_mmod_Van_der_Waal_Energy-OPLS-2005>
140.036468505859

> <r_mmod_Electrostatic_Energy-OPLS-2005>
-469.139587402344

> <r_mmod_Solvation_Energy-OPLS-2005>
-227.240005493164

> <b_mmod_Minimization_Converged-OPLS-2005>
0

> <r_mmod_RMS_Derivative-OPLS-2005>
3.28521203994751

$$$$
31
                    3D
 Structure written by MMmdl.
153161  0  0  1  0            999 V2000
  -30.6119  -14.7855   20.4387 C   0  0  0  0  0  0
  -30.4304  -12.4826   19.4666 C   0  0  0  0  0  0
  -29.5065  -12.5029   18.2303 C   0  0  0  0  0  0
  -28.0354  -12.3182   18.6507 C   0  0  0  0  0  0
  -27.6342  -13.2299   19.8407 C   0  0  2  0  0  0
  -28.6839  -13.2047   20.9718 C   0  0  0  0  0  0
  -25.2493  -13.8185   20.5705 C   0  0  0  0  0  0
  -24.1791  -13.0429   20.9220 C   0  0  0  0  0  0
  -24.6384  -11.6910   20.8755 C   0  0  0  0  0  0
  -23.9063  -10.4288   21.0411 C   0  0  0  0  0  0
  -24.3618   -9.4202   21.9186 C   0  0  0  0  0  0
  -23.6295   -8.2237   22.0754 C   0  0  0  0  0  0
  -22.4276   -8.0276   21.3545 C   0  0  0  0  0  0
  -21.9911   -9.0248   20.4646 C   0  0  0  0  0  0
  -22.7237  -10.2129   20.3056 C   0  0  0  0  0  0
  -21.6851   -6.0732   22.5278 C   0  0  0  0  0  0
  -21.4014   -6.5638   23.8211 C   0  0  0  0  0  0
  -21.3660   -5.6791   24.9175 C   0  0  0  0  0  0
  -21.6044   -4.3054   24.7226 C   0  0  0  0  0  0
  -21.8821   -3.8145   23.4348 C   0  0  0  0  0  0
  -21.9194   -4.6960   22.3403 C   0  0  0  0  0  0
  -22.7812  -13.5211   21.1875 C   0  0  0  0  0  0
  -22.1662   -4.2146   21.0980 F   0  0  0  0  0  0
  -21.5630   -3.4539   25.7739 F   0  0  0  0  0  0
  -29.9724  -13.5641   20.3698 N   0  0  0  0  0  0
  -26.2907  -12.9385   20.3262 N   0  0  0  0  0  0
  -25.9311  -11.6532   20.5754 N   0  0  0  0  0  0
  -22.0462  -12.8201   22.0431 N   0  0  0  0  0  0
  -25.4152  -15.1913   20.4127 N   0  0  0  0  0  0
  -31.8259  -14.8187   20.2187 O   0  0  0  0  0  0
  -21.6640   -6.8873   21.4238 O   0  0  0  0  0  0
  -22.3501  -14.5519   20.6720 O   0  0  0  0  0  0
  -24.6332  -31.8531   23.1954 C   0  0  0  0  0  0
  -25.9150  -32.4741   23.8313 C   0  0  1  0  0  0
  -27.2198  -27.2446   20.1427 C   0  0  0  0  0  0
  -25.5944  -33.8545   24.2240 N   0  0  0  0  0  0
  -23.4310  -30.4736   21.5391 C   0  0  2  0  0  0
  -24.8787  -28.9108   20.1147 C   0  0  0  0  0  0
  -22.7513  -29.4593   22.4908 C   0  0  0  0  0  0
  -18.0297  -28.1387   22.8488 C   0  0  0  0  0  0
  -24.1490  -36.7274   23.2642 C   0  0  0  0  0  0
  -25.9772  -30.7621   21.3751 C   0  0  0  0  0  0
  -26.0512  -29.3808   20.7215 C   0  0  0  0  0  0
  -27.2284  -28.5626   20.7172 C   0  0  0  0  0  0
  -26.0263  -26.8385   19.5136 C   0  0  0  0  0  0
  -24.8721  -27.6487   19.4980 C   0  0  0  0  0  0
  -23.6505  -29.8012   20.1577 C   0  0  0  0  0  0
  -25.4120  -36.3061   24.0324 C   0  0  1  0  0  0
  -20.5903  -28.3700   23.1269 C   0  0  2  0  0  0
  -20.6780  -26.9415   22.5410 C   0  0  0  0  0  0
  -19.5754  -26.6381   21.5216 C   0  0  0  0  0  0
  -18.1936  -26.7930   22.1627 C   0  0  0  0  0  0
  -19.1552  -28.8862   23.2870 C   0  0  0  0  0  0
  -18.9470  -30.1464   23.8885 C   0  0  0  0  0  0
  -17.6466  -30.6585   24.0563 C   0  0  0  0  0  0
  -25.9063  -34.9434   23.5087 C   0  0  0  0  0  0
  -16.5359  -29.9081   23.6329 C   0  0  0  0  0  0
  -16.7283  -28.6499   23.0354 C   0  0  0  0  0  0
  -26.4511  -31.6575   25.0712 C   0  0  0  0  0  0
  -25.3728  -31.3730   26.1428 C   0  0  0  0  0  0
  -27.0364  -30.2991   24.6211 C   0  0  0  0  0  0
  -27.6059  -32.4323   25.7490 C   0  0  0  0  0  0
  -27.5575  -37.1796   24.8469 C   0  0  0  0  0  0
  -21.4218  -29.3044   22.3654 N   0  0  0  0  0  0
  -26.4289  -37.3764   23.9408 N   0  0  0  0  0  0
  -24.6998  -31.0484   22.0929 N   0  0  0  0  0  0
  -23.4206  -28.8143   23.3019 O   0  0  0  0  0  0
  -28.3102  -26.3444   20.1414 O   0  0  0  0  0  0
  -26.5634  -34.8915   22.4656 O   0  0  0  0  0  0
  -23.5479  -32.1356   23.7244 O   0  0  0  0  0  0
  -27.9254  -19.4577   18.2322 C   0  0  0  0  0  0
  -27.9948  -20.7482   18.7861 C   0  0  0  0  0  0
  -29.3699  -18.4912   19.9878 C   0  0  0  0  0  0
  -28.6058  -18.3504   18.7881 C   0  0  0  0  0  0
  -28.7468  -21.0155   19.9472 C   0  0  0  0  0  0
  -29.4124  -19.8553   20.5446 C   0  0  0  0  0  0
  -30.2479  -17.2908   20.5160 C   0  0  0  0  0  0
  -28.4819  -23.6481   19.9020 C   0  0  0  0  0  0
  -28.5122  -17.0450   18.0052 C   0  0  0  0  0  0
  -28.1417  -24.9722   20.7579 C   0  0  0  0  0  0
  -28.7316  -22.4073   20.5032 N   0  0  0  0  0  0
  -29.8400  -15.9519   20.4722 N   0  0  0  0  0  0
  -31.3594  -17.5863   20.9663 O   0  0  0  0  0  0
  -28.5264  -23.7707   18.6748 O   0  0  0  0  0  0
  -30.1189  -20.0776   21.6801 F   0  0  0  0  0  0
  -31.4690  -12.6098   19.1572 H   0  0  0  0  0  0
  -30.3849  -11.5159   19.9708 H   0  0  0  0  0  0
  -29.7960  -11.7190   17.5293 H   0  0  0  0  0  0
  -29.6223  -13.4484   17.6979 H   0  0  0  0  0  0
  -27.9036  -11.2719   18.9289 H   0  0  0  0  0  0
  -27.3740  -12.4912   17.8008 H   0  0  0  0  0  0
  -27.6125  -14.2407   19.4395 H   0  0  0  0  0  0
  -28.7359  -12.2190   21.4364 H   0  0  0  0  0  0
  -28.4165  -13.9068   21.7634 H   0  0  0  0  0  0
  -25.2765   -9.5677   22.4761 H   0  0  0  0  0  0
  -24.0004   -7.4626   22.7471 H   0  0  0  0  0  0
  -21.0841   -8.8765   19.8950 H   0  0  0  0  0  0
  -22.3695  -10.9668   19.6166 H   0  0  0  0  0  0
  -21.2003   -7.6147   23.9712 H   0  0  0  0  0  0
  -21.1480   -6.0523   25.9076 H   0  0  0  0  0  0
  -22.0600   -2.7606   23.2849 H   0  0  0  0  0  0
  -22.4085  -11.9864   22.4817 H   0  0  0  0  0  0
  -21.1076  -13.1217   22.2637 H   0  0  0  0  0  0
  -24.6401  -15.8362   20.5235 H   0  0  0  0  0  0
  -26.2523  -15.6405   20.0706 H   0  0  0  0  0  0
  -26.7219  -32.5387   23.1054 H   0  0  0  0  0  0
  -25.0091  -33.9677   25.0387 H   0  0  0  0  0  0
  -22.7287  -31.2963   21.3892 H   0  0  0  0  0  0
  -23.3753  -35.9606   23.3306 H   0  0  0  0  0  0
  -24.3571  -36.8894   22.2054 H   0  0  0  0  0  0
  -23.7245  -37.6477   23.6666 H   0  0  0  0  0  0
  -26.1168  -31.5199   20.6027 H   0  0  0  0  0  0
  -26.8544  -30.8137   22.0084 H   0  0  0  0  0  0
  -28.1310  -28.9215   21.1915 H   0  0  0  0  0  0
  -25.9814  -25.8679   19.0393 H   0  0  0  0  0  0
  -23.9744  -27.2837   19.0177 H   0  0  0  0  0  0
  -23.7774  -30.5741   19.3989 H   0  0  0  0  0  0
  -22.7679  -29.2353   19.8535 H   0  0  0  0  0  0
  -25.1306  -36.1899   25.0815 H   0  0  0  0  0  0
  -20.9998  -28.3273   24.1389 H   0  0  0  0  0  0
  -20.5678  -26.2311   23.3617 H   0  0  0  0  0  0
  -21.6646  -26.7431   22.1202 H   0  0  0  0  0  0
  -19.6910  -25.6289   21.1247 H   0  0  0  0  0  0
  -19.6684  -27.3189   20.6742 H   0  0  0  0  0  0
  -17.4205  -26.6686   21.4029 H   0  0  0  0  0  0
  -18.0326  -26.0074   22.9023 H   0  0  0  0  0  0
  -19.7946  -30.7289   24.2241 H   0  0  0  0  0  0
  -17.5019  -31.6266   24.5166 H   0  0  0  0  0  0
  -15.5357  -30.2976   23.7663 H   0  0  0  0  0  0
  -15.8686  -28.0813   22.7071 H   0  0  0  0  0  0
  -24.5911  -30.7071   25.7754 H   0  0  0  0  0  0
  -24.8911  -32.2901   26.4830 H   0  0  0  0  0  0
  -25.8038  -30.8924   27.0218 H   0  0  0  0  0  0
  -26.2952  -29.6733   24.1229 H   0  0  0  0  0  0
  -27.4035  -29.7264   25.4737 H   0  0  0  0  0  0
  -27.8832  -30.4264   23.9464 H   0  0  0  0  0  0
  -27.2662  -33.3632   26.2043 H   0  0  0  0  0  0
  -28.3882  -32.6869   25.0326 H   0  0  0  0  0  0
  -28.0716  -31.8466   26.5425 H   0  0  0  0  0  0
  -28.2600  -38.0084   24.7501 H   0  0  0  0  0  0
  -28.1059  -36.2614   24.6312 H   0  0  0  0  0  0
  -27.2288  -37.1464   25.8871 H   0  0  0  0  0  0
  -20.9409  -29.8757   21.6845 H   0  0  0  0  0  0
  -26.0162  -38.2837   24.1401 H   0  0  0  0  0  0
  -27.3419  -19.3296   17.3305 H   0  0  0  0  0  0
  -27.4400  -21.5351   18.2972 H   0  0  0  0  0  0
  -28.0626  -17.1984   17.0233 H   0  0  0  0  0  0
  -27.8867  -16.3251   18.5288 H   0  0  0  0  0  0
  -29.4957  -16.6075   17.8298 H   0  0  0  0  0  0
  -28.7703  -24.9492   21.6480 H   0  0  0  0  0  0
  -27.1213  -24.8604   21.1262 H   0  0  0  0  0  0
  -28.8696  -22.4531   21.5040 H   0  0  0  0  0  0
  -28.8521  -15.8145   20.3581 H   0  0  0  0  0  0
  1 25  1  0  0  0
  1 30  2  0  0  0
  1 82  1  0  0  0
  2  3  1  0  0  0
  2 25  1  0  0  0
  2 86  1  0  0  0
  2 87  1  0  0  0
  3  4  1  0  0  0
  3 88  1  0  0  0
  3 89  1  0  0  0
  4  5  1  0  0  0
  4 90  1  0  0  0
  4 91  1  0  0  0
  5  6  1  0  0  0
  5 26  1  0  0  0
  5 92  1  0  0  0
  6 25  1  0  0  0
  6 93  1  0  0  0
  6 94  1  0  0  0
  7  8  2  0  0  0
  7 26  1  0  0  0
  7 29  1  0  0  0
  8  9  1  0  0  0
  8 22  1  0  0  0
  9 10  1  0  0  0
  9 27  2  0  0  0
 10 11  2  0  0  0
 10 15  1  0  0  0
 11 12  1  0  0  0
 11 95  1  0  0  0
 12 13  2  0  0  0
 12 96  1  0  0  0
 13 14  1  0  0  0
 13 31  1  0  0  0
 14 15  2  0  0  0
 14 97  1  0  0  0
 15 98  1  0  0  0
 16 17  2  0  0  0
 16 21  1  0  0  0
 16 31  1  0  0  0
 17 18  1  0  0  0
 17 99  1  0  0  0
 18 19  2  0  0  0
 18100  1  0  0  0
 19 20  1  0  0  0
 19 24  1  0  0  0
 20 21  2  0  0  0
 20101  1  0  0  0
 21 23  1  0  0  0
 22 28  1  0  0  0
 22 32  2  0  0  0
 26 27  1  0  0  0
 28102  1  0  0  0
 28103  1  0  0  0
 29104  1  0  0  0
 29105  1  0  0  0
 33 34  1  0  0  0
 33 66  1  0  0  0
 33 70  2  0  0  0
 34 36  1  0  0  0
 34 59  1  0  0  0
 34106  1  0  0  0
 35 44  2  0  0  0
 35 45  1  0  0  0
 35 68  1  0  0  0
 36 56  1  0  0  0
 36107  1  0  0  0
 37 39  1  0  0  0
 37 47  1  0  0  0
 37 66  1  0  0  0
 37108  1  0  0  0
 38 43  2  0  0  0
 38 46  1  0  0  0
 38 47  1  0  0  0
 39 64  1  0  0  0
 39 67  2  0  0  0
 40 52  1  0  0  0
 40 53  2  0  0  0
 40 58  1  0  0  0
 41109  1  0  0  0
 41110  1  0  0  0
 41111  1  0  0  0
 41 48  1  0  0  0
 42 43  1  0  0  0
 42 66  1  0  0  0
 42112  1  0  0  0
 42113  1  0  0  0
 43 44  1  0  0  0
 44114  1  0  0  0
 45 46  2  0  0  0
 45115  1  0  0  0
 46116  1  0  0  0
 47117  1  0  0  0
 47118  1  0  0  0
 48 56  1  0  0  0
 48 65  1  0  0  0
 48119  1  0  0  0
 49 50  1  0  0  0
 49 53  1  0  0  0
 49 64  1  0  0  0
 49120  1  0  0  0
 50 51  1  0  0  0
 50121  1  0  0  0
 50122  1  0  0  0
 51 52  1  0  0  0
 51123  1  0  0  0
 51124  1  0  0  0
 52125  1  0  0  0
 52126  1  0  0  0
 53 54  1  0  0  0
 54 55  2  0  0  0
 54127  1  0  0  0
 55 57  1  0  0  0
 55128  1  0  0  0
 56 69  2  0  0  0
 57 58  2  0  0  0
 57129  1  0  0  0
 58130  1  0  0  0
 59 60  1  0  0  0
 59 61  1  0  0  0
 59 62  1  0  0  0
 60131  1  0  0  0
 60132  1  0  0  0
 60133  1  0  0  0
 61134  1  0  0  0
 61135  1  0  0  0
 61136  1  0  0  0
 62137  1  0  0  0
 62138  1  0  0  0
 62139  1  0  0  0
 63 65  1  0  0  0
 63140  1  0  0  0
 63141  1  0  0  0
 63142  1  0  0  0
 64143  1  0  0  0
 65144  1  0  0  0
 68 80  1  0  0  0
 71 72  2  0  0  0
 71 74  1  0  0  0
 71145  1  0  0  0
 72 75  1  0  0  0
 72146  1  0  0  0
 73 74  2  0  0  0
 73 76  1  0  0  0
 73 77  1  0  0  0
 74 79  1  0  0  0
 75 76  2  0  0  0
 75 81  1  0  0  0
 76 85  1  0  0  0
 77 82  1  0  0  0
 77 83  2  0  0  0
 78 80  1  0  0  0
 78 81  1  0  0  0
 78 84  2  0  0  0
 79147  1  0  0  0
 79148  1  0  0  0
 79149  1  0  0  0
 80150  1  0  0  0
 80151  1  0  0  0
 81152  1  0  0  0
 82153  1  0  0  0
M  ISO  4   1 100  68 101  80 101  82 100
M  END
> <chiral flag>
0

> <version>
0

> <s_m_source_file>
/data/baiqing/PycharmProjects/Reinvent-master-3.2/result/LINK_invent/BTK/process_docking_weight1_custom_product_contain_oxygen_bond_distance_aromatic_linkinvent_7_9_3/rearranged_h_0071.sdf

> <i_m_source_file_index>
32

> <r_mmod_Potential_Energy-OPLS-2005>
157.432144165039

> <r_mmod_Stretch_Energy-OPLS-2005>
143.527603149414

> <r_mmod_Bend_Energy-OPLS-2005>
166.168746948242

> <r_mmod_Torsional_Energy-OPLS-2005>
266.932830810547

> <r_mmod_Improper_Torsional_Energy-OPLS-2005>
7.77614212036133

> <r_mmod_Van_der_Waal_Energy-OPLS-2005>
138.91584777832

> <r_mmod_Electrostatic_Energy-OPLS-2005>
-414.909942626953

> <r_mmod_Solvation_Energy-OPLS-2005>
-252.126022338867

> <b_mmod_Minimization_Converged-OPLS-2005>
0

> <r_mmod_RMS_Derivative-OPLS-2005>
0.584662437438965

$$$$
32
                    3D
 Structure written by MMmdl.
152160  0  0  1  0            999 V2000
  -30.5854  -14.8189   20.4611 C   0  0  0  0  0  0
  -30.4335  -12.5085   19.4809 C   0  0  0  0  0  0
  -29.5126  -12.5195   18.2411 C   0  0  0  0  0  0
  -28.0409  -12.3263   18.6546 C   0  0  0  0  0  0
  -27.6340  -13.2365   19.8441 C   0  0  2  0  0  0
  -28.6775  -13.2058   20.9812 C   0  0  0  0  0  0
  -25.2467  -13.8191   20.5682 C   0  0  0  0  0  0
  -24.1774  -13.0430   20.9218 C   0  0  0  0  0  0
  -24.6374  -11.6909   20.8743 C   0  0  0  0  0  0
  -23.9054  -10.4291   21.0399 C   0  0  0  0  0  0
  -24.3610   -9.4215   21.9182 C   0  0  0  0  0  0
  -23.6296   -8.2245   22.0754 C   0  0  0  0  0  0
  -22.4280   -8.0274   21.3547 C   0  0  0  0  0  0
  -21.9908   -9.0239   20.4645 C   0  0  0  0  0  0
  -22.7223  -10.2124   20.3048 C   0  0  0  0  0  0
  -21.6856   -6.0730   22.5282 C   0  0  0  0  0  0
  -21.4015   -6.5638   23.8214 C   0  0  0  0  0  0
  -21.3658   -5.6793   24.9185 C   0  0  0  0  0  0
  -21.6046   -4.3056   24.7229 C   0  0  0  0  0  0
  -21.8816   -3.8145   23.4353 C   0  0  0  0  0  0
  -21.9191   -4.6960   22.3415 C   0  0  0  0  0  0
  -22.7798  -13.5208   21.1887 C   0  0  0  0  0  0
  -22.1661   -4.2142   21.0992 F   0  0  0  0  0  0
  -21.5626   -3.4545   25.7743 F   0  0  0  0  0  0
  -29.9663  -13.5842   20.3905 N   0  0  0  0  0  0
  -26.2892  -12.9405   20.3250 N   0  0  0  0  0  0
  -25.9301  -11.6545   20.5739 N   0  0  0  0  0  0
  -22.0447  -12.8187   22.0434 N   0  0  0  0  0  0
  -25.4140  -15.1918   20.4085 N   0  0  0  0  0  0
  -31.7857  -14.8851   20.1752 O   0  0  0  0  0  0
  -21.6646   -6.8865   21.4240 O   0  0  0  0  0  0
  -22.3485  -14.5516   20.6735 O   0  0  0  0  0  0
  -24.6341  -31.8538   23.1961 C   0  0  0  0  0  0
  -25.9156  -32.4749   23.8313 C   0  0  1  0  0  0
  -27.2121  -27.2234   20.1482 C   0  0  0  0  0  0
  -25.5939  -33.8546   24.2231 N   0  0  0  0  0  0
  -23.4312  -30.4741   21.5422 C   0  0  2  0  0  0
  -24.8766  -28.9050   20.1215 C   0  0  0  0  0  0
  -22.7510  -29.4595   22.4927 C   0  0  0  0  0  0
  -18.0290  -28.1402   22.8499 C   0  0  0  0  0  0
  -24.1477  -36.7261   23.2641 C   0  0  0  0  0  0
  -25.9798  -30.7529   21.3804 C   0  0  0  0  0  0
  -26.0517  -29.3678   20.7298 C   0  0  0  0  0  0
  -27.2249  -28.5398   20.7302 C   0  0  0  0  0  0
  -26.0158  -26.8306   19.5151 C   0  0  0  0  0  0
  -24.8630  -27.6429   19.5055 C   0  0  0  0  0  0
  -23.6531  -29.8019   20.1614 C   0  0  0  0  0  0
  -25.4115  -36.3053   24.0319 C   0  0  1  0  0  0
  -20.5904  -28.3703   23.1282 C   0  0  2  0  0  0
  -20.6784  -26.9422   22.5417 C   0  0  0  0  0  0
  -19.5746  -26.6390   21.5228 C   0  0  0  0  0  0
  -18.1927  -26.7941   22.1642 C   0  0  0  0  0  0
  -19.1550  -28.8876   23.2874 C   0  0  0  0  0  0
  -18.9462  -30.1483   23.8874 C   0  0  0  0  0  0
  -17.6460  -30.6604   24.0572 C   0  0  0  0  0  0
  -25.9064  -34.9432   23.5084 C   0  0  0  0  0  0
  -16.5354  -29.9096   23.6351 C   0  0  0  0  0  0
  -16.7276  -28.6521   23.0363 C   0  0  0  0  0  0
  -26.4501  -31.6595   25.0730 C   0  0  0  0  0  0
  -25.3707  -31.3787   26.1445 C   0  0  0  0  0  0
  -27.0348  -30.3001   24.6247 C   0  0  0  0  0  0
  -27.6043  -32.4348   25.7505 C   0  0  0  0  0  0
  -27.5565  -37.1801   24.8475 C   0  0  0  0  0  0
  -21.4215  -29.3042   22.3661 N   0  0  0  0  0  0
  -26.4290  -37.3757   23.9401 N   0  0  0  0  0  0
  -24.7013  -31.0462   22.0957 N   0  0  0  0  0  0
  -23.4189  -28.8151   23.3058 O   0  0  0  0  0  0
  -28.2920  -26.3043   20.1259 O   0  0  0  0  0  0
  -26.5628  -34.8915   22.4639 O   0  0  0  0  0  0
  -23.5491  -32.1369   23.7247 O   0  0  0  0  0  0
  -31.8852  -19.0611   21.4617 C   0  0  0  0  0  0
  -31.4503  -17.7366   21.2749 C   0  0  0  0  0  0
  -29.3486  -18.6148   20.4288 C   0  0  0  0  0  0
  -31.0864  -20.1775   21.1332 C   0  0  0  0  0  0
  -30.1784  -17.4358   20.7437 C   0  0  0  0  0  0
  -29.7716  -20.0158   20.6161 C   0  0  0  0  0  0
  -28.7211  -23.7730   20.1529 C   0  0  0  0  0  0
  -28.1510  -24.9624   20.6254 C   0  0  0  0  0  0
  -28.6870  -22.4182   20.8516 C   0  0  0  0  0  0
  -31.7150  -21.5528   21.3113 C   0  0  0  0  0  0
  -29.0684  -21.2674   20.1529 N   0  0  0  0  0  0
  -29.8046  -15.9800   20.6062 N   0  0  0  0  0  0
  -28.3422  -22.3108   22.0304 O   0  0  0  0  0  0
  -31.4704  -12.6494   19.1728 H   0  0  0  0  0  0
  -30.4016  -11.5407   19.9828 H   0  0  0  0  0  0
  -29.8122  -11.7405   17.5385 H   0  0  0  0  0  0
  -29.6241  -13.4679   17.7128 H   0  0  0  0  0  0
  -27.9099  -11.2785   18.9284 H   0  0  0  0  0  0
  -27.3832  -12.5024   17.8027 H   0  0  0  0  0  0
  -27.6162  -14.2514   19.4463 H   0  0  0  0  0  0
  -28.7356  -12.2139   21.4339 H   0  0  0  0  0  0
  -28.3969  -13.8943   21.7808 H   0  0  0  0  0  0
  -25.2749   -9.5706   22.4766 H   0  0  0  0  0  0
  -24.0013   -7.4635   22.7472 H   0  0  0  0  0  0
  -21.0844   -8.8740   19.8949 H   0  0  0  0  0  0
  -22.3667  -10.9656   19.6161 H   0  0  0  0  0  0
  -21.2008   -7.6143   23.9714 H   0  0  0  0  0  0
  -21.1482   -6.0529   25.9084 H   0  0  0  0  0  0
  -22.0590   -2.7602   23.2861 H   0  0  0  0  0  0
  -22.4069  -11.9850   22.4814 H   0  0  0  0  0  0
  -21.1058  -13.1200   22.2637 H   0  0  0  0  0  0
  -24.6375  -15.8380   20.5026 H   0  0  0  0  0  0
  -26.2509  -15.6319   20.0484 H   0  0  0  0  0  0
  -26.7212  -32.5373   23.1043 H   0  0  0  0  0  0
  -25.0100  -33.9673   25.0392 H   0  0  0  0  0  0
  -22.7286  -31.2978   21.3944 H   0  0  0  0  0  0
  -23.3737  -35.9599   23.3349 H   0  0  0  0  0  0
  -24.3557  -36.8837   22.2048 H   0  0  0  0  0  0
  -23.7253  -37.6484   23.6640 H   0  0  0  0  0  0
  -26.1216  -31.5078   20.6059 H   0  0  0  0  0  0
  -26.8573  -30.8062   22.0154 H   0  0  0  0  0  0
  -28.1269  -28.8918   21.2120 H   0  0  0  0  0  0
  -25.9662  -25.8631   19.0365 H   0  0  0  0  0  0
  -23.9603  -27.2765   19.0351 H   0  0  0  0  0  0
  -23.7848  -30.5762   19.4048 H   0  0  0  0  0  0
  -22.7686  -29.2418   19.8541 H   0  0  0  0  0  0
  -25.1308  -36.1889   25.0818 H   0  0  0  0  0  0
  -20.9981  -28.3262   24.1412 H   0  0  0  0  0  0
  -20.5702  -26.2304   23.3614 H   0  0  0  0  0  0
  -21.6647  -26.7453   22.1206 H   0  0  0  0  0  0
  -19.6894  -25.6295   21.1267 H   0  0  0  0  0  0
  -19.6688  -27.3205   20.6762 H   0  0  0  0  0  0
  -17.4210  -26.6712   21.4041 H   0  0  0  0  0  0
  -18.0309  -26.0087   22.9042 H   0  0  0  0  0  0
  -19.7935  -30.7327   24.2209 H   0  0  0  0  0  0
  -17.5017  -31.6274   24.5183 H   0  0  0  0  0  0
  -15.5359  -30.2989   23.7696 H   0  0  0  0  0  0
  -15.8675  -28.0839   22.7070 H   0  0  0  0  0  0
  -24.5846  -30.7163   25.7790 H   0  0  0  0  0  0
  -24.8937  -32.2989   26.4829 H   0  0  0  0  0  0
  -25.8000  -30.8983   27.0244 H   0  0  0  0  0  0
  -26.2947  -29.6760   24.1216 H   0  0  0  0  0  0
  -27.3966  -29.7255   25.4787 H   0  0  0  0  0  0
  -27.8853  -30.4281   23.9541 H   0  0  0  0  0  0
  -27.2629  -33.3672   26.2006 H   0  0  0  0  0  0
  -28.3876  -32.6867   25.0347 H   0  0  0  0  0  0
  -28.0663  -31.8521   26.5478 H   0  0  0  0  0  0
  -28.2618  -38.0060   24.7459 H   0  0  0  0  0  0
  -28.1012  -36.2591   24.6369 H   0  0  0  0  0  0
  -27.2271  -37.1534   25.8876 H   0  0  0  0  0  0
  -20.9404  -29.8740   21.6843 H   0  0  0  0  0  0
  -26.0151  -38.2829   24.1382 H   0  0  0  0  0  0
  -32.8819  -19.2193   21.8539 H   0  0  0  0  0  0
  -32.1306  -16.9464   21.5560 H   0  0  0  0  0  0
  -28.3662  -18.4408   20.0143 H   0  0  0  0  0  0
  -29.2885  -23.8328   19.2364 H   0  0  0  0  0  0
  -27.5432  -24.9613   21.5212 H   0  0  0  0  0  0
  -31.2580  -22.0726   22.1542 H   0  0  0  0  0  0
  -31.5925  -22.1611   20.4152 H   0  0  0  0  0  0
  -32.7856  -21.4851   21.5051 H   0  0  0  0  0  0
  -29.1092  -21.4039   19.1528 H   0  0  0  0  0  0
  -28.8139  -15.7957   20.6419 H   0  0  0  0  0  0
  1 25  1  0  0  0
  1 30  2  0  0  0
  1 82  1  0  0  0
  2  3  1  0  0  0
  2 25  1  0  0  0
  2 84  1  0  0  0
  2 85  1  0  0  0
  3  4  1  0  0  0
  3 86  1  0  0  0
  3 87  1  0  0  0
  4  5  1  0  0  0
  4 88  1  0  0  0
  4 89  1  0  0  0
  5  6  1  0  0  0
  5 26  1  0  0  0
  5 90  1  0  0  0
  6 25  1  0  0  0
  6 91  1  0  0  0
  6 92  1  0  0  0
  7  8  2  0  0  0
  7 26  1  0  0  0
  7 29  1  0  0  0
  8  9  1  0  0  0
  8 22  1  0  0  0
  9 10  1  0  0  0
  9 27  2  0  0  0
 10 11  2  0  0  0
 10 15  1  0  0  0
 11 12  1  0  0  0
 11 93  1  0  0  0
 12 13  2  0  0  0
 12 94  1  0  0  0
 13 14  1  0  0  0
 13 31  1  0  0  0
 14 15  2  0  0  0
 14 95  1  0  0  0
 15 96  1  0  0  0
 16 17  2  0  0  0
 16 21  1  0  0  0
 16 31  1  0  0  0
 17 18  1  0  0  0
 17 97  1  0  0  0
 18 19  2  0  0  0
 18 98  1  0  0  0
 19 20  1  0  0  0
 19 24  1  0  0  0
 20 21  2  0  0  0
 20 99  1  0  0  0
 21 23  1  0  0  0
 22 28  1  0  0  0
 22 32  2  0  0  0
 26 27  1  0  0  0
 28100  1  0  0  0
 28101  1  0  0  0
 29102  1  0  0  0
 29103  1  0  0  0
 33 34  1  0  0  0
 33 66  1  0  0  0
 33 70  2  0  0  0
 34 36  1  0  0  0
 34 59  1  0  0  0
 34104  1  0  0  0
 35 44  2  0  0  0
 35 45  1  0  0  0
 35 68  1  0  0  0
 36 56  1  0  0  0
 36105  1  0  0  0
 37 39  1  0  0  0
 37 47  1  0  0  0
 37 66  1  0  0  0
 37106  1  0  0  0
 38 43  2  0  0  0
 38 46  1  0  0  0
 38 47  1  0  0  0
 39 64  1  0  0  0
 39 67  2  0  0  0
 40 52  1  0  0  0
 40 53  2  0  0  0
 40 58  1  0  0  0
 41107  1  0  0  0
 41108  1  0  0  0
 41109  1  0  0  0
 41 48  1  0  0  0
 42 43  1  0  0  0
 42 66  1  0  0  0
 42110  1  0  0  0
 42111  1  0  0  0
 43 44  1  0  0  0
 44112  1  0  0  0
 45 46  2  0  0  0
 45113  1  0  0  0
 46114  1  0  0  0
 47115  1  0  0  0
 47116  1  0  0  0
 48 56  1  0  0  0
 48 65  1  0  0  0
 48117  1  0  0  0
 49 50  1  0  0  0
 49 53  1  0  0  0
 49 64  1  0  0  0
 49118  1  0  0  0
 50 51  1  0  0  0
 50119  1  0  0  0
 50120  1  0  0  0
 51 52  1  0  0  0
 51121  1  0  0  0
 51122  1  0  0  0
 52123  1  0  0  0
 52124  1  0  0  0
 53 54  1  0  0  0
 54 55  2  0  0  0
 54125  1  0  0  0
 55 57  1  0  0  0
 55126  1  0  0  0
 56 69  2  0  0  0
 57 58  2  0  0  0
 57127  1  0  0  0
 58128  1  0  0  0
 59 60  1  0  0  0
 59 61  1  0  0  0
 59 62  1  0  0  0
 60129  1  0  0  0
 60130  1  0  0  0
 60131  1  0  0  0
 61132  1  0  0  0
 61133  1  0  0  0
 61134  1  0  0  0
 62135  1  0  0  0
 62136  1  0  0  0
 62137  1  0  0  0
 63 65  1  0  0  0
 63138  1  0  0  0
 63139  1  0  0  0
 63140  1  0  0  0
 64141  1  0  0  0
 65142  1  0  0  0
 68 78  1  0  0  0
 71 72  2  0  0  0
 71 74  1  0  0  0
 71143  1  0  0  0
 72 75  1  0  0  0
 72144  1  0  0  0
 73 75  2  0  0  0
 73 76  1  0  0  0
 73145  1  0  0  0
 74 76  2  0  0  0
 74 80  1  0  0  0
 75 82  1  0  0  0
 76 81  1  0  0  0
 77 78  2  0  0  0
 77 79  1  0  0  0
 77146  1  0  0  0
 78147  1  0  0  0
 79 81  1  0  0  0
 79 83  2  0  0  0
 80148  1  0  0  0
 80149  1  0  0  0
 80150  1  0  0  0
 81151  1  0  0  0
 82152  1  0  0  0
M  ISO  4   1 100  68 101  78 101  82 100
M  END
> <chiral flag>
0

> <version>
0

> <s_m_source_file>
/data/baiqing/PycharmProjects/Reinvent-master-3.2/result/LINK_invent/BTK/process_docking_weight1_custom_product_contain_oxygen_bond_distance_aromatic_linkinvent_7_9_3/rearranged_h_0071.sdf

> <i_m_source_file_index>
33

> <r_mmod_Potential_Energy-OPLS-2005>
224.224456787109

> <r_mmod_Stretch_Energy-OPLS-2005>
153.590927124023

> <r_mmod_Bend_Energy-OPLS-2005>
169.149063110352

> <r_mmod_Torsional_Energy-OPLS-2005>
271.826141357422

> <r_mmod_Improper_Torsional_Energy-OPLS-2005>
8.25431823730469

> <r_mmod_Van_der_Waal_Energy-OPLS-2005>
140.354797363281

> <r_mmod_Electrostatic_Energy-OPLS-2005>
-403.116027832031

> <r_mmod_Solvation_Energy-OPLS-2005>
-230.445190429688

> <b_mmod_Minimization_Converged-OPLS-2005>
0

> <r_mmod_RMS_Derivative-OPLS-2005>
2.43646192550659

$$$$
33
                    3D
 Structure written by MMmdl.
160169  0  0  1  0            999 V2000
  -30.6890  -14.5853   20.6089 C   0  0  0  0  0  0
  -30.4204  -12.3817   19.4742 C   0  0  0  0  0  0
  -29.5090  -12.5329   18.2372 C   0  0  0  0  0  0
  -28.0320  -12.3521   18.6343 C   0  0  0  0  0  0
  -27.6529  -13.2148   19.8674 C   0  0  2  0  0  0
  -28.6806  -13.0466   21.0058 C   0  0  0  0  0  0
  -25.2552  -13.8170   20.5677 C   0  0  0  0  0  0
  -24.1825  -13.0435   20.9162 C   0  0  0  0  0  0
  -24.6394  -11.6901   20.8721 C   0  0  0  0  0  0
  -23.9068  -10.4287   21.0405 C   0  0  0  0  0  0
  -24.3611   -9.4204   21.9195 C   0  0  0  0  0  0
  -23.6287   -8.2238   22.0754 C   0  0  0  0  0  0
  -22.4260   -8.0274   21.3552 C   0  0  0  0  0  0
  -21.9910   -9.0255   20.4658 C   0  0  0  0  0  0
  -22.7231  -10.2142   20.3067 C   0  0  0  0  0  0
  -21.6845   -6.0748   22.5300 C   0  0  0  0  0  0
  -21.4010   -6.5649   23.8240 C   0  0  0  0  0  0
  -21.3665   -5.6798   24.9200 C   0  0  0  0  0  0
  -21.6053   -4.3060   24.7245 C   0  0  0  0  0  0
  -21.8816   -3.8159   23.4356 C   0  0  0  0  0  0
  -21.9182   -4.6980   22.3416 C   0  0  0  0  0  0
  -22.7843  -13.5225   21.1830 C   0  0  0  0  0  0
  -22.1627   -4.2171   21.0989 F   0  0  0  0  0  0
  -21.5642   -3.4528   25.7741 F   0  0  0  0  0  0
  -30.0155  -13.3897   20.4798 N   0  0  0  0  0  0
  -26.2968  -12.9354   20.3280 N   0  0  0  0  0  0
  -25.9311  -11.6504   20.5724 N   0  0  0  0  0  0
  -22.0509  -12.8232   22.0408 N   0  0  0  0  0  0
  -25.4256  -15.1890   20.4115 N   0  0  0  0  0  0
  -31.7554  -14.7767   20.0138 O   0  0  0  0  0  0
  -21.6627   -6.8871   21.4249 O   0  0  0  0  0  0
  -22.3518  -14.5535   20.6692 O   0  0  0  0  0  0
  -24.6251  -31.8630   23.2021 C   0  0  0  0  0  0
  -25.9097  -32.4806   23.8369 C   0  0  1  0  0  0
  -27.2203  -27.3353   20.1249 C   0  0  0  0  0  0
  -25.5908  -33.8596   24.2324 N   0  0  0  0  0  0
  -23.4189  -30.4862   21.5450 C   0  0  2  0  0  0
  -24.8646  -28.9425   20.1092 C   0  0  0  0  0  0
  -22.7476  -29.4654   22.4943 C   0  0  0  0  0  0
  -18.0294  -28.1381   22.8491 C   0  0  0  0  0  0
  -24.1482  -36.7302   23.2640 C   0  0  0  0  0  0
  -25.9568  -30.7998   21.3690 C   0  0  0  0  0  0
  -26.0311  -29.4253   20.7169 C   0  0  0  0  0  0
  -27.2137  -28.6327   20.7141 C   0  0  0  0  0  0
  -26.0409  -26.9070   19.4774 C   0  0  0  0  0  0
  -24.8712  -27.6895   19.4761 C   0  0  0  0  0  0
  -23.6316  -29.8201   20.1593 C   0  0  0  0  0  0
  -25.4101  -36.3108   24.0351 C   0  0  1  0  0  0
  -20.5895  -28.3702   23.1273 C   0  0  2  0  0  0
  -20.6772  -26.9421   22.5402 C   0  0  0  0  0  0
  -19.5748  -26.6392   21.5201 C   0  0  0  0  0  0
  -18.1933  -26.7927   22.1619 C   0  0  0  0  0  0
  -19.1545  -28.8852   23.2887 C   0  0  0  0  0  0
  -18.9461  -30.1444   23.8925 C   0  0  0  0  0  0
  -17.6460  -30.6580   24.0565 C   0  0  0  0  0  0
  -25.9038  -34.9466   23.5144 C   0  0  0  0  0  0
  -16.5356  -29.9089   23.6305 C   0  0  0  0  0  0
  -16.7285  -28.6497   23.0352 C   0  0  0  0  0  0
  -26.4486  -31.6585   25.0713 C   0  0  0  0  0  0
  -25.3735  -31.3662   26.1449 C   0  0  0  0  0  0
  -27.0315  -30.3033   24.6084 C   0  0  0  0  0  0
  -27.6088  -32.4290   25.7448 C   0  0  0  0  0  0
  -27.5592  -37.1791   24.8467 C   0  0  0  0  0  0
  -21.4190  -29.3069   22.3676 N   0  0  0  0  0  0
  -26.4294  -37.3797   23.9423 N   0  0  0  0  0  0
  -24.6861  -31.0662   22.0961 N   0  0  0  0  0  0
  -23.4204  -28.8187   23.3012 O   0  0  0  0  0  0
  -28.3299  -26.4873   20.1625 O   0  0  0  0  0  0
  -26.5612  -34.8929   22.4712 O   0  0  0  0  0  0
  -23.5418  -32.1406   23.7362 O   0  0  0  0  0  0
  -30.7938  -17.7820   20.1979 C   0  0  0  0  0  0
  -30.7245  -19.1685   19.8898 C   0  0  0  0  0  0
  -28.9300  -19.4469   21.4384 C   0  0  0  0  0  0
  -29.9482  -17.1589   21.1524 C   0  0  0  0  0  0
  -28.9741  -18.0460   21.7389 C   0  0  0  0  0  0
  -29.8247  -20.0625   20.5312 C   0  0  0  0  0  0
  -29.0927  -23.9900   20.1766 C   0  0  0  0  0  0
  -30.1463  -15.6816   21.5912 C   0  0  0  0  0  0
  -28.7856  -22.4789   20.5802 C   0  0  0  0  0  0
  -31.0772  -23.2710   19.0960 C   0  0  0  0  0  0
  -31.1791  -22.1000   20.1011 C   0  0  0  0  0  0
  -27.9268  -17.5469   22.7282 C   0  0  0  0  0  0
  -28.0862  -25.1017   20.6314 C   0  0  0  0  0  0
  -30.1457  -24.3154   19.5228 N   0  0  0  0  0  0
  -29.9378  -15.3607   22.8013 N   0  0  0  0  0  0
  -29.8642  -21.4805   20.2796 N   0  0  0  0  0  0
  -31.4707  -12.4741   19.1911 H   0  0  0  0  0  0
  -30.3189  -11.3790   19.8940 H   0  0  0  0  0  0
  -29.7851  -11.8022   17.4764 H   0  0  0  0  0  0
  -29.6515  -13.5184   17.7895 H   0  0  0  0  0  0
  -27.8790  -11.2961   18.8578 H   0  0  0  0  0  0
  -27.3773  -12.5765   17.7917 H   0  0  0  0  0  0
  -27.6841  -14.2562   19.5470 H   0  0  0  0  0  0
  -28.6777  -12.0191   21.3735 H   0  0  0  0  0  0
  -28.3710  -13.6520   21.8537 H   0  0  0  0  0  0
  -25.2744   -9.5669   22.4797 H   0  0  0  0  0  0
  -24.0001   -7.4618   22.7454 H   0  0  0  0  0  0
  -21.0852   -8.8765   19.8964 H   0  0  0  0  0  0
  -22.3668  -10.9693   19.6188 H   0  0  0  0  0  0
  -21.2000   -7.6156   23.9744 H   0  0  0  0  0  0
  -21.1479   -6.0528   25.9098 H   0  0  0  0  0  0
  -22.0588   -2.7622   23.2859 H   0  0  0  0  0  0
  -22.4046  -11.9867   22.4846 H   0  0  0  0  0  0
  -21.1143  -13.1326   22.2574 H   0  0  0  0  0  0
  -24.6551  -15.8361   20.5258 H   0  0  0  0  0  0
  -26.2794  -15.6367   20.1026 H   0  0  0  0  0  0
  -26.7171  -32.5503   23.1130 H   0  0  0  0  0  0
  -25.0036  -33.9726   25.0462 H   0  0  0  0  0  0
  -22.7144  -31.3071   21.4017 H   0  0  0  0  0  0
  -23.3763  -35.9618   23.3283 H   0  0  0  0  0  0
  -24.3600  -36.8924   22.2061 H   0  0  0  0  0  0
  -23.7195  -37.6485   23.6661 H   0  0  0  0  0  0
  -26.0792  -31.5576   20.5941 H   0  0  0  0  0  0
  -26.8427  -30.8594   21.9884 H   0  0  0  0  0  0
  -28.1101  -28.9959   21.1962 H   0  0  0  0  0  0
  -26.0160  -25.9555   18.9666 H   0  0  0  0  0  0
  -23.9831  -27.3221   18.9783 H   0  0  0  0  0  0
  -23.7464  -30.5961   19.4014 H   0  0  0  0  0  0
  -22.7536  -29.2445   19.8613 H   0  0  0  0  0  0
  -25.1270  -36.1974   25.0846 H   0  0  0  0  0  0
  -21.0007  -28.3268   24.1385 H   0  0  0  0  0  0
  -20.5631  -26.2324   23.3610 H   0  0  0  0  0  0
  -21.6643  -26.7417   22.1217 H   0  0  0  0  0  0
  -19.6898  -25.6304   21.1227 H   0  0  0  0  0  0
  -19.6662  -27.3201   20.6726 H   0  0  0  0  0  0
  -17.4192  -26.6686   21.4027 H   0  0  0  0  0  0
  -18.0334  -26.0065   22.9010 H   0  0  0  0  0  0
  -19.7938  -30.7243   24.2327 H   0  0  0  0  0  0
  -17.5015  -31.6259   24.5165 H   0  0  0  0  0  0
  -15.5357  -30.2998   23.7592 H   0  0  0  0  0  0
  -15.8695  -28.0804   22.7077 H   0  0  0  0  0  0
  -24.5948  -30.6976   25.7753 H   0  0  0  0  0  0
  -24.8877  -32.2792   26.4905 H   0  0  0  0  0  0
  -25.8083  -30.8819   27.0204 H   0  0  0  0  0  0
  -26.2841  -29.6779   24.1186 H   0  0  0  0  0  0
  -27.4148  -29.7278   25.4518 H   0  0  0  0  0  0
  -27.8661  -30.4364   23.9196 H   0  0  0  0  0  0
  -27.2764  -33.3609   26.2030 H   0  0  0  0  0  0
  -28.3873  -32.6807   25.0233 H   0  0  0  0  0  0
  -28.0790  -31.8400   26.5331 H   0  0  0  0  0  0
  -28.2600  -38.0100   24.7570 H   0  0  0  0  0  0
  -28.1100  -36.2642   24.6232 H   0  0  0  0  0  0
  -27.2336  -37.1369   25.8876 H   0  0  0  0  0  0
  -20.9364  -29.8819   21.6910 H   0  0  0  0  0  0
  -26.0190  -38.2880   24.1427 H   0  0  0  0  0  0
  -31.5542  -17.2066   19.6928 H   0  0  0  0  0  0
  -31.4047  -19.5292   19.1339 H   0  0  0  0  0  0
  -28.2041  -20.0625   21.9506 H   0  0  0  0  0  0
  -27.8731  -22.1701   20.0673 H   0  0  0  0  0  0
  -28.5597  -22.4497   21.6470 H   0  0  0  0  0  0
  -30.7953  -22.8951   18.1097 H   0  0  0  0  0  0
  -32.0689  -23.7080   18.9694 H   0  0  0  0  0  0
  -31.5229  -22.4683   21.0693 H   0  0  0  0  0  0
  -31.9481  -21.4080   19.7678 H   0  0  0  0  0  0
  -28.3481  -17.4693   23.7309 H   0  0  0  0  0  0
  -27.5329  -16.5702   22.4418 H   0  0  0  0  0  0
  -27.0785  -18.2301   22.7836 H   0  0  0  0  0  0
  -28.1126  -25.1297   21.7211 H   0  0  0  0  0  0
  -27.0872  -24.7467   20.3887 H   0  0  0  0  0  0
  -29.6322  -16.1659   23.3321 H   0  0  0  0  0  0
  1 25  1  0  0  0
  1 30  2  0  0  0
  1 78  1  0  0  0
  2  3  1  0  0  0
  2 25  1  0  0  0
  2 87  1  0  0  0
  2 88  1  0  0  0
  3  4  1  0  0  0
  3 89  1  0  0  0
  3 90  1  0  0  0
  4  5  1  0  0  0
  4 91  1  0  0  0
  4 92  1  0  0  0
  5  6  1  0  0  0
  5 26  1  0  0  0
  5 93  1  0  0  0
  6 25  1  0  0  0
  6 94  1  0  0  0
  6 95  1  0  0  0
  7  8  2  0  0  0
  7 26  1  0  0  0
  7 29  1  0  0  0
  8  9  1  0  0  0
  8 22  1  0  0  0
  9 10  1  0  0  0
  9 27  2  0  0  0
 10 11  2  0  0  0
 10 15  1  0  0  0
 11 12  1  0  0  0
 11 96  1  0  0  0
 12 13  2  0  0  0
 12 97  1  0  0  0
 13 14  1  0  0  0
 13 31  1  0  0  0
 14 15  2  0  0  0
 14 98  1  0  0  0
 15 99  1  0  0  0
 16 17  2  0  0  0
 16 21  1  0  0  0
 16 31  1  0  0  0
 17 18  1  0  0  0
 17100  1  0  0  0
 18 19  2  0  0  0
 18101  1  0  0  0
 19 20  1  0  0  0
 19 24  1  0  0  0
 20 21  2  0  0  0
 20102  1  0  0  0
 21 23  1  0  0  0
 22 28  1  0  0  0
 22 32  2  0  0  0
 26 27  1  0  0  0
 28103  1  0  0  0
 28104  1  0  0  0
 29105  1  0  0  0
 29106  1  0  0  0
 33 34  1  0  0  0
 33 66  1  0  0  0
 33 70  2  0  0  0
 34 36  1  0  0  0
 34 59  1  0  0  0
 34107  1  0  0  0
 35 44  2  0  0  0
 35 45  1  0  0  0
 35 68  1  0  0  0
 36 56  1  0  0  0
 36108  1  0  0  0
 37 39  1  0  0  0
 37 47  1  0  0  0
 37 66  1  0  0  0
 37109  1  0  0  0
 38 43  2  0  0  0
 38 46  1  0  0  0
 38 47  1  0  0  0
 39 64  1  0  0  0
 39 67  2  0  0  0
 40 52  1  0  0  0
 40 53  2  0  0  0
 40 58  1  0  0  0
 41110  1  0  0  0
 41111  1  0  0  0
 41112  1  0  0  0
 41 48  1  0  0  0
 42 43  1  0  0  0
 42 66  1  0  0  0
 42113  1  0  0  0
 42114  1  0  0  0
 43 44  1  0  0  0
 44115  1  0  0  0
 45 46  2  0  0  0
 45116  1  0  0  0
 46117  1  0  0  0
 47118  1  0  0  0
 47119  1  0  0  0
 48 56  1  0  0  0
 48 65  1  0  0  0
 48120  1  0  0  0
 49 50  1  0  0  0
 49 53  1  0  0  0
 49 64  1  0  0  0
 49121  1  0  0  0
 50 51  1  0  0  0
 50122  1  0  0  0
 50123  1  0  0  0
 51 52  1  0  0  0
 51124  1  0  0  0
 51125  1  0  0  0
 52126  1  0  0  0
 52127  1  0  0  0
 53 54  1  0  0  0
 54 55  2  0  0  0
 54128  1  0  0  0
 55 57  1  0  0  0
 55129  1  0  0  0
 56 69  2  0  0  0
 57 58  2  0  0  0
 57130  1  0  0  0
 58131  1  0  0  0
 59 60  1  0  0  0
 59 61  1  0  0  0
 59 62  1  0  0  0
 60132  1  0  0  0
 60133  1  0  0  0
 60134  1  0  0  0
 61135  1  0  0  0
 61136  1  0  0  0
 61137  1  0  0  0
 62138  1  0  0  0
 62139  1  0  0  0
 62140  1  0  0  0
 63 65  1  0  0  0
 63141  1  0  0  0
 63142  1  0  0  0
 63143  1  0  0  0
 64144  1  0  0  0
 65145  1  0  0  0
 68 83  1  0  0  0
 71 72  2  0  0  0
 71 74  1  0  0  0
 71146  1  0  0  0
 72 76  1  0  0  0
 72147  1  0  0  0
 73 75  1  0  0  0
 73 76  2  0  0  0
 73148  1  0  0  0
 74 75  2  0  0  0
 74 78  1  0  0  0
 75 82  1  0  0  0
 76 86  1  0  0  0
 77 79  1  0  0  0
 77 83  1  0  0  0
 77 84  2  0  0  0
 78 85  2  0  0  0
 79 86  1  0  0  0
 79149  1  0  0  0
 79150  1  0  0  0
 80 81  1  0  0  0
 80 84  1  0  0  0
 80151  1  0  0  0
 80152  1  0  0  0
 81 86  1  0  0  0
 81153  1  0  0  0
 81154  1  0  0  0
 82155  1  0  0  0
 82156  1  0  0  0
 82157  1  0  0  0
 83158  1  0  0  0
 83159  1  0  0  0
 85160  1  0  0  0
M  ISO  4   1 100  68 101  78 100  83 101
M  END
> <chiral flag>
0

> <version>
0

> <s_m_source_file>
/data/baiqing/PycharmProjects/Reinvent-master-3.2/result/LINK_invent/BTK/process_docking_weight1_custom_product_contain_oxygen_bond_distance_aromatic_linkinvent_7_9_3/rearranged_h_0071.sdf

> <i_m_source_file_index>
34

> <r_mmod_Potential_Energy-OPLS-2005>
354.66552734375

> <r_mmod_Stretch_Energy-OPLS-2005>
94.9064254760742

> <r_mmod_Bend_Energy-OPLS-2005>
154.69987487793

> <r_mmod_Torsional_Energy-OPLS-2005>
215.973190307617

> <r_mmod_Improper_Torsional_Energy-OPLS-2005>
4.05066537857056

> <r_mmod_Van_der_Waal_Energy-OPLS-2005>
174.996734619141

> <r_mmod_Electrostatic_Energy-OPLS-2005>
-93.9669342041016

> <r_mmod_Solvation_Energy-OPLS-2005>
-233.248016357422

> <b_mmod_Minimization_Converged-OPLS-2005>
0

> <r_mmod_RMS_Derivative-OPLS-2005>
2.69172263145447

$$$$
34
                    3D
 Structure written by MMmdl.
156164  0  0  1  0            999 V2000
  -30.6124  -14.6465   20.4948 C   0  0  0  0  0  0
  -30.4420  -12.3966   19.4469 C   0  0  0  0  0  0
  -29.5077  -12.5048   18.2205 C   0  0  0  0  0  0
  -28.0302  -12.3434   18.6332 C   0  0  0  0  0  0
  -27.6517  -13.2150   19.8606 C   0  0  2  0  0  0
  -28.6985  -13.0709   20.9888 C   0  0  0  0  0  0
  -25.2555  -13.8165   20.5689 C   0  0  0  0  0  0
  -24.1821  -13.0424   20.9176 C   0  0  0  0  0  0
  -24.6396  -11.6900   20.8732 C   0  0  0  0  0  0
  -23.9063  -10.4284   21.0398 C   0  0  0  0  0  0
  -24.3614   -9.4204   21.9182 C   0  0  0  0  0  0
  -23.6288   -8.2241   22.0755 C   0  0  0  0  0  0
  -22.4273   -8.0278   21.3543 C   0  0  0  0  0  0
  -21.9905   -9.0251   20.4645 C   0  0  0  0  0  0
  -22.7233  -10.2128   20.3049 C   0  0  0  0  0  0
  -21.6851   -6.0735   22.5280 C   0  0  0  0  0  0
  -21.4014   -6.5640   23.8215 C   0  0  0  0  0  0
  -21.3659   -5.6792   24.9176 C   0  0  0  0  0  0
  -21.6042   -4.3053   24.7227 C   0  0  0  0  0  0
  -21.8819   -3.8147   23.4347 C   0  0  0  0  0  0
  -21.9195   -4.6963   22.3402 C   0  0  0  0  0  0
  -22.7844  -13.5220   21.1850 C   0  0  0  0  0  0
  -22.1664   -4.2149   21.0977 F   0  0  0  0  0  0
  -21.5628   -3.4534   25.7739 F   0  0  0  0  0  0
  -30.0124  -13.4162   20.4224 N   0  0  0  0  0  0
  -26.2982  -12.9347   20.3313 N   0  0  0  0  0  0
  -25.9325  -11.6501   20.5749 N   0  0  0  0  0  0
  -22.0490  -12.8214   22.0408 N   0  0  0  0  0  0
  -25.4218  -15.1891   20.4155 N   0  0  0  0  0  0
  -31.7862  -14.8145   20.1501 O   0  0  0  0  0  0
  -21.6637   -6.8877   21.4240 O   0  0  0  0  0  0
  -22.3525  -14.5532   20.6709 O   0  0  0  0  0  0
  -24.6258  -31.8606   23.2011 C   0  0  0  0  0  0
  -25.9101  -32.4787   23.8345 C   0  0  1  0  0  0
  -27.2244  -27.3192   20.1164 C   0  0  0  0  0  0
  -25.5920  -33.8586   24.2280 N   0  0  0  0  0  0
  -23.4193  -30.4835   21.5446 C   0  0  2  0  0  0
  -24.8653  -28.9371   20.1115 C   0  0  0  0  0  0
  -22.7477  -29.4628   22.4943 C   0  0  0  0  0  0
  -18.0292  -28.1384   22.8501 C   0  0  0  0  0  0
  -24.1487  -36.7288   23.2639 C   0  0  0  0  0  0
  -25.9602  -30.7913   21.3708 C   0  0  0  0  0  0
  -26.0341  -29.4181   20.7143 C   0  0  0  0  0  0
  -27.2169  -28.6211   20.7055 C   0  0  0  0  0  0
  -26.0300  -26.8892   19.4936 C   0  0  0  0  0  0
  -24.8645  -27.6782   19.4926 C   0  0  0  0  0  0
  -23.6335  -29.8174   20.1604 C   0  0  0  0  0  0
  -25.4117  -36.3090   24.0334 C   0  0  1  0  0  0
  -20.5897  -28.3681   23.1296 C   0  0  2  0  0  0
  -20.6789  -26.9408   22.5413 C   0  0  0  0  0  0
  -19.5766  -26.6389   21.5216 C   0  0  0  0  0  0
  -18.1942  -26.7937   22.1623 C   0  0  0  0  0  0
  -19.1545  -28.8849   23.2897 C   0  0  0  0  0  0
  -18.9469  -30.1457   23.8909 C   0  0  0  0  0  0
  -17.6469  -30.6594   24.0568 C   0  0  0  0  0  0
  -25.9053  -34.9460   23.5108 C   0  0  0  0  0  0
  -16.5359  -29.9097   23.6334 C   0  0  0  0  0  0
  -16.7278  -28.6508   23.0364 C   0  0  0  0  0  0
  -26.4490  -31.6590   25.0709 C   0  0  0  0  0  0
  -25.3727  -31.3726   26.1435 C   0  0  0  0  0  0
  -27.0324  -30.3023   24.6135 C   0  0  0  0  0  0
  -27.6054  -32.4312   25.7485 C   0  0  0  0  0  0
  -27.5585  -37.1805   24.8474 C   0  0  0  0  0  0
  -21.4191  -29.3042   22.3692 N   0  0  0  0  0  0
  -26.4300  -37.3782   23.9414 N   0  0  0  0  0  0
  -24.6874  -31.0615   22.0957 N   0  0  0  0  0  0
  -23.4209  -28.8177   23.3022 O   0  0  0  0  0  0
  -28.3494  -26.4810   20.1639 O   0  0  0  0  0  0
  -26.5619  -34.8927   22.4672 O   0  0  0  0  0  0
  -23.5422  -32.1391   23.7349 O   0  0  0  0  0  0
  -28.7167  -19.3484   20.5563 C   0  0  0  0  0  0
  -31.0970  -17.8773   20.8278 C   0  0  0  0  0  0
  -29.9100  -20.0870   20.7582 C   0  0  0  0  0  0
  -29.8936  -17.1437   20.6842 C   0  0  0  0  0  0
  -28.7115  -17.9201   20.5311 C   0  0  0  0  0  0
  -31.1037  -19.3043   20.8688 C   0  0  0  0  0  0
  -29.9261  -21.5933   20.9735 C   0  0  0  0  0  0
  -30.6208  -24.5140   19.5265 C   0  0  0  0  0  0
  -28.1666  -25.0177   20.0025 C   0  0  0  0  0  0
  -29.4044  -24.0873   20.3650 C   0  0  1  0  0  0
  -30.7040  -22.0458   21.9570 N   0  0  0  0  0  0
  -29.7655  -15.6876   20.7590 N   0  0  0  0  0  0
  -29.2299  -22.5648   20.2848 N   0  3  0  0  0  0
  -27.5323  -17.2707   20.3763 F   0  0  0  0  0  0
  -32.2948  -19.9213   21.0674 F   0  0  0  0  0  0
  -31.4817  -12.5320   19.1424 H   0  0  0  0  0  0
  -30.3858  -11.4008   19.8894 H   0  0  0  0  0  0
  -29.7727  -11.7509   17.4781 H   0  0  0  0  0  0
  -29.6484  -13.4720   17.7353 H   0  0  0  0  0  0
  -27.8668  -11.2903   18.8647 H   0  0  0  0  0  0
  -27.3759  -12.5733   17.7917 H   0  0  0  0  0  0
  -27.6646  -14.2490   19.5164 H   0  0  0  0  0  0
  -28.7118  -12.0492   21.3715 H   0  0  0  0  0  0
  -28.4450  -13.7036   21.8410 H   0  0  0  0  0  0
  -25.2761   -9.5683   22.4753 H   0  0  0  0  0  0
  -24.0004   -7.4630   22.7469 H   0  0  0  0  0  0
  -21.0841   -8.8762   19.8946 H   0  0  0  0  0  0
  -22.3694  -10.9664   19.6154 H   0  0  0  0  0  0
  -21.2003   -7.6150   23.9719 H   0  0  0  0  0  0
  -21.1481   -6.0521   25.9080 H   0  0  0  0  0  0
  -22.0599   -2.7609   23.2845 H   0  0  0  0  0  0
  -22.4107  -11.9869   22.4785 H   0  0  0  0  0  0
  -21.1105  -13.1233   22.2613 H   0  0  0  0  0  0
  -24.6510  -15.8336   20.5463 H   0  0  0  0  0  0
  -26.2766  -15.6619   20.1463 H   0  0  0  0  0  0
  -26.7172  -32.5451   23.1094 H   0  0  0  0  0  0
  -25.0089  -33.9731   25.0441 H   0  0  0  0  0  0
  -22.7127  -31.3040   21.4023 H   0  0  0  0  0  0
  -23.3758  -35.9610   23.3309 H   0  0  0  0  0  0
  -24.3586  -36.8892   22.2053 H   0  0  0  0  0  0
  -23.7234  -37.6492   23.6648 H   0  0  0  0  0  0
  -26.0906  -31.5539   20.6018 H   0  0  0  0  0  0
  -26.8421  -30.8419   21.9978 H   0  0  0  0  0  0
  -28.1153  -28.9860   21.1836 H   0  0  0  0  0  0
  -25.9657  -25.9273   19.0082 H   0  0  0  0  0  0
  -23.9673  -27.3041   19.0192 H   0  0  0  0  0  0
  -23.7532  -30.5931   19.4032 H   0  0  0  0  0  0
  -22.7528  -29.2473   19.8589 H   0  0  0  0  0  0
  -25.1298  -36.1943   25.0828 H   0  0  0  0  0  0
  -20.9983  -28.3246   24.1418 H   0  0  0  0  0  0
  -20.5705  -26.2281   23.3604 H   0  0  0  0  0  0
  -21.6656  -26.7464   22.1192 H   0  0  0  0  0  0
  -19.6924  -25.6300   21.1240 H   0  0  0  0  0  0
  -19.6703  -27.3211   20.6757 H   0  0  0  0  0  0
  -17.4214  -26.6697   21.4018 H   0  0  0  0  0  0
  -18.0335  -26.0081   22.9016 H   0  0  0  0  0  0
  -19.7941  -30.7278   24.2274 H   0  0  0  0  0  0
  -17.5024  -31.6276   24.5170 H   0  0  0  0  0  0
  -15.5361  -30.3004   23.7650 H   0  0  0  0  0  0
  -15.8679  -28.0828   22.7078 H   0  0  0  0  0  0
  -24.5914  -30.7058   25.7769 H   0  0  0  0  0  0
  -24.8900  -32.2888   26.4847 H   0  0  0  0  0  0
  -25.8052  -30.8923   27.0220 H   0  0  0  0  0  0
  -26.2883  -29.6789   24.1161 H   0  0  0  0  0  0
  -27.4057  -29.7259   25.4611 H   0  0  0  0  0  0
  -27.8736  -30.4337   23.9325 H   0  0  0  0  0  0
  -27.2677  -33.3620   26.2059 H   0  0  0  0  0  0
  -28.3870  -32.6856   25.0312 H   0  0  0  0  0  0
  -28.0712  -31.8432   26.5404 H   0  0  0  0  0  0
  -28.2607  -38.0096   24.7518 H   0  0  0  0  0  0
  -28.1072  -36.2630   24.6301 H   0  0  0  0  0  0
  -27.2303  -37.1455   25.8876 H   0  0  0  0  0  0
  -20.9362  -29.8749   21.6892 H   0  0  0  0  0  0
  -26.0181  -38.2854   24.1412 H   0  0  0  0  0  0
  -27.7763  -19.8724   20.4735 H   0  0  0  0  0  0
  -32.0315  -17.3530   20.9551 H   0  0  0  0  0  0
  -30.9633  -25.5057   19.8245 H   0  0  0  0  0  0
  -30.3741  -24.5610   18.4659 H   0  0  0  0  0  0
  -31.4614  -23.8303   19.6431 H   0  0  0  0  0  0
  -27.3198  -24.6993   20.6121 H   0  0  0  0  0  0
  -27.8930  -24.8210   18.9658 H   0  0  0  0  0  0
  -29.6336  -24.3165   21.4065 H   0  0  0  0  0  0
  -31.3257  -21.3960   22.4177 H   0  0  0  0  0  0
  -30.7265  -23.0090   22.2413 H   0  0  0  0  0  0
  -28.8184  -15.3839   20.9226 H   0  0  0  0  0  0
  -28.6706  -22.2305   19.5086 H   0  0  0  0  0  0
  1 25  1  0  0  0
  1 30  2  0  0  0
  1 82  1  0  0  0
  2  3  1  0  0  0
  2 25  1  0  0  0
  2 86  1  0  0  0
  2 87  1  0  0  0
  3  4  1  0  0  0
  3 88  1  0  0  0
  3 89  1  0  0  0
  4  5  1  0  0  0
  4 90  1  0  0  0
  4 91  1  0  0  0
  5  6  1  0  0  0
  5 26  1  0  0  0
  5 92  1  0  0  0
  6 25  1  0  0  0
  6 93  1  0  0  0
  6 94  1  0  0  0
  7  8  2  0  0  0
  7 26  1  0  0  0
  7 29  1  0  0  0
  8  9  1  0  0  0
  8 22  1  0  0  0
  9 10  1  0  0  0
  9 27  2  0  0  0
 10 11  2  0  0  0
 10 15  1  0  0  0
 11 12  1  0  0  0
 11 95  1  0  0  0
 12 13  2  0  0  0
 12 96  1  0  0  0
 13 14  1  0  0  0
 13 31  1  0  0  0
 14 15  2  0  0  0
 14 97  1  0  0  0
 15 98  1  0  0  0
 16 17  2  0  0  0
 16 21  1  0  0  0
 16 31  1  0  0  0
 17 18  1  0  0  0
 17 99  1  0  0  0
 18 19  2  0  0  0
 18100  1  0  0  0
 19 20  1  0  0  0
 19 24  1  0  0  0
 20 21  2  0  0  0
 20101  1  0  0  0
 21 23  1  0  0  0
 22 28  1  0  0  0
 22 32  2  0  0  0
 26 27  1  0  0  0
 28102  1  0  0  0
 28103  1  0  0  0
 29104  1  0  0  0
 29105  1  0  0  0
 33 34  1  0  0  0
 33 66  1  0  0  0
 33 70  2  0  0  0
 34 36  1  0  0  0
 34 59  1  0  0  0
 34106  1  0  0  0
 35 44  2  0  0  0
 35 45  1  0  0  0
 35 68  1  0  0  0
 36 56  1  0  0  0
 36107  1  0  0  0
 37 39  1  0  0  0
 37 47  1  0  0  0
 37 66  1  0  0  0
 37108  1  0  0  0
 38 43  2  0  0  0
 38 46  1  0  0  0
 38 47  1  0  0  0
 39 64  1  0  0  0
 39 67  2  0  0  0
 40 52  1  0  0  0
 40 53  2  0  0  0
 40 58  1  0  0  0
 41109  1  0  0  0
 41110  1  0  0  0
 41111  1  0  0  0
 41 48  1  0  0  0
 42 43  1  0  0  0
 42 66  1  0  0  0
 42112  1  0  0  0
 42113  1  0  0  0
 43 44  1  0  0  0
 44114  1  0  0  0
 45 46  2  0  0  0
 45115  1  0  0  0
 46116  1  0  0  0
 47117  1  0  0  0
 47118  1  0  0  0
 48 56  1  0  0  0
 48 65  1  0  0  0
 48119  1  0  0  0
 49 50  1  0  0  0
 49 53  1  0  0  0
 49 64  1  0  0  0
 49120  1  0  0  0
 50 51  1  0  0  0
 50121  1  0  0  0
 50122  1  0  0  0
 51 52  1  0  0  0
 51123  1  0  0  0
 51124  1  0  0  0
 52125  1  0  0  0
 52126  1  0  0  0
 53 54  1  0  0  0
 54 55  2  0  0  0
 54127  1  0  0  0
 55 57  1  0  0  0
 55128  1  0  0  0
 56 69  2  0  0  0
 57 58  2  0  0  0
 57129  1  0  0  0
 58130  1  0  0  0
 59 60  1  0  0  0
 59 61  1  0  0  0
 59 62  1  0  0  0
 60131  1  0  0  0
 60132  1  0  0  0
 60133  1  0  0  0
 61134  1  0  0  0
 61135  1  0  0  0
 61136  1  0  0  0
 62137  1  0  0  0
 62138  1  0  0  0
 62139  1  0  0  0
 63 65  1  0  0  0
 63140  1  0  0  0
 63141  1  0  0  0
 63142  1  0  0  0
 64143  1  0  0  0
 65144  1  0  0  0
 68 79  1  0  0  0
 71 73  2  0  0  0
 71 75  1  0  0  0
 71145  1  0  0  0
 72 74  1  0  0  0
 72 76  2  0  0  0
 72146  1  0  0  0
 73 76  1  0  0  0
 73 77  1  0  0  0
 74 75  2  0  0  0
 74 82  1  0  0  0
 75 84  1  0  0  0
 76 85  1  0  0  0
 77 81  1  0  0  0
 77 83  2  0  0  0
 78147  1  0  0  0
 78148  1  0  0  0
 78149  1  0  0  0
 78 80  1  0  0  0
 79 80  1  0  0  0
 79150  1  0  0  0
 79151  1  0  0  0
 80 83  1  0  0  0
 80152  1  0  0  0
 81153  1  0  0  0
 81154  1  0  0  0
 82155  1  0  0  0
 83156  1  0  0  0
M  CHG  1  83   1
M  ISO  4   1 100  68 101  79 101  82 100
M  END
> <chiral flag>
0

> <version>
0

> <s_m_source_file>
/data/baiqing/PycharmProjects/Reinvent-master-3.2/result/LINK_invent/BTK/process_docking_weight1_custom_product_contain_oxygen_bond_distance_aromatic_linkinvent_7_9_3/rearranged_h_0071.sdf

> <i_m_source_file_index>
35

> <r_mmod_Potential_Energy-OPLS-2005>
-220.808410644531

> <r_mmod_Stretch_Energy-OPLS-2005>
80.9629364013672

> <r_mmod_Bend_Energy-OPLS-2005>
138.407257080078

> <r_mmod_Torsional_Energy-OPLS-2005>
215.602630615234

> <r_mmod_Improper_Torsional_Energy-OPLS-2005>
5.86810541152954

> <r_mmod_Van_der_Waal_Energy-OPLS-2005>
148.323516845703

> <r_mmod_Electrostatic_Energy-OPLS-2005>
-443.958343505859

> <r_mmod_Solvation_Energy-OPLS-2005>
-415.834350585938

> <b_mmod_Minimization_Converged-OPLS-2005>
0

> <r_mmod_RMS_Derivative-OPLS-2005>
1.19113743305206

$$$$
35
                    3D
 Structure written by MMmdl.
149157  0  0  1  0            999 V2000
  -30.5862  -14.8183   20.4588 C   0  0  0  0  0  0
  -30.4334  -12.5086   19.4743 C   0  0  0  0  0  0
  -29.5122  -12.5174   18.2351 C   0  0  0  0  0  0
  -28.0413  -12.3214   18.6509 C   0  0  0  0  0  0
  -27.6327  -13.2334   19.8384 C   0  0  2  0  0  0
  -28.6766  -13.2092   20.9743 C   0  0  0  0  0  0
  -25.2471  -13.8183   20.5668 C   0  0  0  0  0  0
  -24.1776  -13.0426   20.9208 C   0  0  0  0  0  0
  -24.6371  -11.6905   20.8739 C   0  0  0  0  0  0
  -23.9053  -10.4283   21.0398 C   0  0  0  0  0  0
  -24.3604   -9.4207   21.9177 C   0  0  0  0  0  0
  -23.6289   -8.2240   22.0754 C   0  0  0  0  0  0
  -22.4276   -8.0267   21.3543 C   0  0  0  0  0  0
  -21.9898   -9.0238   20.4644 C   0  0  0  0  0  0
  -22.7218  -10.2121   20.3048 C   0  0  0  0  0  0
  -21.6853   -6.0721   22.5279 C   0  0  0  0  0  0
  -21.4012   -6.5632   23.8209 C   0  0  0  0  0  0
  -21.3660   -5.6796   24.9177 C   0  0  0  0  0  0
  -21.6042   -4.3058   24.7233 C   0  0  0  0  0  0
  -21.8822   -3.8140   23.4358 C   0  0  0  0  0  0
  -21.9195   -4.6950   22.3408 C   0  0  0  0  0  0
  -22.7801  -13.5203   21.1878 C   0  0  0  0  0  0
  -22.1665   -4.2134   21.0989 F   0  0  0  0  0  0
  -21.5628   -3.4541   25.7745 F   0  0  0  0  0  0
  -29.9663  -13.5849   20.3826 N   0  0  0  0  0  0
  -26.2886  -12.9387   20.3218 N   0  0  0  0  0  0
  -25.9294  -11.6530   20.5708 N   0  0  0  0  0  0
  -22.0456  -12.8192   22.0437 N   0  0  0  0  0  0
  -25.4138  -15.1909   20.4076 N   0  0  0  0  0  0
  -31.7897  -14.8906   20.1901 O   0  0  0  0  0  0
  -21.6647   -6.8859   21.4238 O   0  0  0  0  0  0
  -22.3487  -14.5514   20.6731 O   0  0  0  0  0  0
  -24.6359  -31.8519   23.1956 C   0  0  0  0  0  0
  -25.9176  -32.4740   23.8304 C   0  0  1  0  0  0
  -27.2186  -27.2234   20.1396 C   0  0  0  0  0  0
  -25.5955  -33.8536   24.2226 N   0  0  0  0  0  0
  -23.4335  -30.4711   21.5414 C   0  0  2  0  0  0
  -24.8790  -28.9045   20.1181 C   0  0  0  0  0  0
  -22.7509  -29.4576   22.4926 C   0  0  0  0  0  0
  -18.0280  -28.1404   22.8494 C   0  0  0  0  0  0
  -24.1478  -36.7257   23.2642 C   0  0  0  0  0  0
  -25.9813  -30.7507   21.3797 C   0  0  0  0  0  0
  -26.0532  -29.3656   20.7290 C   0  0  0  0  0  0
  -27.2269  -28.5388   20.7259 C   0  0  0  0  0  0
  -26.0223  -26.8330   19.5047 C   0  0  0  0  0  0
  -24.8686  -27.6458   19.4969 C   0  0  0  0  0  0
  -23.6539  -29.8004   20.1598 C   0  0  0  0  0  0
  -25.4116  -36.3045   24.0316 C   0  0  1  0  0  0
  -20.5891  -28.3700   23.1280 C   0  0  2  0  0  0
  -20.6769  -26.9421   22.5413 C   0  0  0  0  0  0
  -19.5739  -26.6391   21.5220 C   0  0  0  0  0  0
  -18.1923  -26.7939   22.1645 C   0  0  0  0  0  0
  -19.1538  -28.8876   23.2872 C   0  0  0  0  0  0
  -18.9457  -30.1479   23.8880 C   0  0  0  0  0  0
  -17.6454  -30.6602   24.0569 C   0  0  0  0  0  0
  -25.9066  -34.9426   23.5069 C   0  0  0  0  0  0
  -16.5347  -29.9097   23.6352 C   0  0  0  0  0  0
  -16.7267  -28.6521   23.0362 C   0  0  0  0  0  0
  -26.4525  -31.6584   25.0716 C   0  0  0  0  0  0
  -25.3736  -31.3793   26.1438 C   0  0  0  0  0  0
  -27.0348  -30.2982   24.6231 C   0  0  0  0  0  0
  -27.6084  -32.4316   25.7483 C   0  0  0  0  0  0
  -27.5561  -37.1797   24.8477 C   0  0  0  0  0  0
  -21.4210  -29.3038   22.3668 N   0  0  0  0  0  0
  -26.4285  -37.3753   23.9403 N   0  0  0  0  0  0
  -24.7031  -31.0436   22.0959 N   0  0  0  0  0  0
  -23.4183  -28.8117   23.3044 O   0  0  0  0  0  0
  -28.3078  -26.3148   20.1028 O   0  0  0  0  0  0
  -26.5621  -34.8916   22.4628 O   0  0  0  0  0  0
  -23.5501  -32.1353   23.7246 O   0  0  0  0  0  0
  -31.3528  -17.7161   21.4706 C   0  0  0  0  0  0
  -31.7541  -19.0412   21.7399 C   0  0  0  0  0  0
  -29.3713  -18.6094   20.3769 C   0  0  0  0  0  0
  -30.1597  -17.4273   20.7724 C   0  0  0  0  0  0
  -29.7667  -20.0041   20.6440 C   0  0  0  0  0  0
  -30.9936  -20.1556   21.3326 C   0  0  0  0  0  0
  -28.8107  -23.7953   20.1297 C   0  0  0  0  0  0
  -28.1928  -24.9646   20.5891 C   0  0  0  0  0  0
  -28.8040  -22.4441   20.8365 C   0  0  0  0  0  0
  -29.1296  -21.2735   20.1446 N   0  0  0  0  0  0
  -29.8002  -15.9783   20.5729 N   0  0  0  0  0  0
  -28.5100  -22.3567   22.0311 O   0  0  0  0  0  0
  -31.4916  -21.3933   21.5721 F   0  0  0  0  0  0
  -31.4702  -12.6511   19.1676 H   0  0  0  0  0  0
  -30.3985  -11.5413   19.9773 H   0  0  0  0  0  0
  -29.8127  -11.7389   17.5326 H   0  0  0  0  0  0
  -29.6193  -13.4647   17.7038 H   0  0  0  0  0  0
  -27.9158  -11.2738   18.9274 H   0  0  0  0  0  0
  -27.3816  -12.4901   17.7987 H   0  0  0  0  0  0
  -27.6120  -14.2455   19.4350 H   0  0  0  0  0  0
  -28.7342  -12.2223   21.4363 H   0  0  0  0  0  0
  -28.3954  -13.9054   21.7662 H   0  0  0  0  0  0
  -25.2746   -9.5702   22.4746 H   0  0  0  0  0  0
  -24.0012   -7.4634   22.7468 H   0  0  0  0  0  0
  -21.0830   -8.8725   19.8952 H   0  0  0  0  0  0
  -22.3649  -10.9646   19.6156 H   0  0  0  0  0  0
  -21.2002   -7.6139   23.9703 H   0  0  0  0  0  0
  -21.1477   -6.0530   25.9080 H   0  0  0  0  0  0
  -22.0596   -2.7600   23.2865 H   0  0  0  0  0  0
  -22.4092  -11.9869   22.4834 H   0  0  0  0  0  0
  -21.1069  -13.1200   22.2638 H   0  0  0  0  0  0
  -24.6363  -15.8357   20.5022 H   0  0  0  0  0  0
  -26.2509  -15.6331   20.0515 H   0  0  0  0  0  0
  -26.7226  -32.5364   23.1025 H   0  0  0  0  0  0
  -25.0145  -33.9652   25.0401 H   0  0  0  0  0  0
  -22.7329  -31.2957   21.3944 H   0  0  0  0  0  0
  -23.3732  -35.9599   23.3347 H   0  0  0  0  0  0
  -24.3560  -36.8835   22.2047 H   0  0  0  0  0  0
  -23.7242  -37.6479   23.6640 H   0  0  0  0  0  0
  -26.1204  -31.5063   20.6052 H   0  0  0  0  0  0
  -26.8591  -30.8043   22.0125 H   0  0  0  0  0  0
  -28.1300  -28.8920   21.2025 H   0  0  0  0  0  0
  -25.9753  -25.8708   19.0149 H   0  0  0  0  0  0
  -23.9696  -27.2858   19.0140 H   0  0  0  0  0  0
  -23.7834  -30.5751   19.4029 H   0  0  0  0  0  0
  -22.7697  -29.2391   19.8551 H   0  0  0  0  0  0
  -25.1303  -36.1883   25.0807 H   0  0  0  0  0  0
  -20.9971  -28.3255   24.1409 H   0  0  0  0  0  0
  -20.5676  -26.2299   23.3607 H   0  0  0  0  0  0
  -21.6632  -26.7440   22.1211 H   0  0  0  0  0  0
  -19.6886  -25.6293   21.1265 H   0  0  0  0  0  0
  -19.6681  -27.3192   20.6742 H   0  0  0  0  0  0
  -17.4191  -26.6682   21.4057 H   0  0  0  0  0  0
  -18.0330  -26.0089   22.9056 H   0  0  0  0  0  0
  -19.7926  -30.7311   24.2231 H   0  0  0  0  0  0
  -17.5009  -31.6277   24.5170 H   0  0  0  0  0  0
  -15.5351  -30.2994   23.7685 H   0  0  0  0  0  0
  -15.8669  -28.0839   22.7078 H   0  0  0  0  0  0
  -24.5835  -30.7230   25.7771 H   0  0  0  0  0  0
  -24.9029  -32.3007   26.4875 H   0  0  0  0  0  0
  -25.8026  -30.8928   27.0202 H   0  0  0  0  0  0
  -26.2922  -29.6745   24.1243 H   0  0  0  0  0  0
  -27.3987  -29.7246   25.4764 H   0  0  0  0  0  0
  -27.8826  -30.4237   23.9493 H   0  0  0  0  0  0
  -27.2713  -33.3666   26.1962 H   0  0  0  0  0  0
  -28.3946  -32.6783   25.0337 H   0  0  0  0  0  0
  -28.0672  -31.8484   26.5472 H   0  0  0  0  0  0
  -28.2622  -38.0052   24.7466 H   0  0  0  0  0  0
  -28.1001  -36.2580   24.6371 H   0  0  0  0  0  0
  -27.2269  -37.1526   25.8880 H   0  0  0  0  0  0
  -20.9393  -29.8787   21.6903 H   0  0  0  0  0  0
  -26.0149  -38.2820   24.1408 H   0  0  0  0  0  0
  -31.9891  -16.9164   21.8237 H   0  0  0  0  0  0
  -32.6844  -19.2108   22.2612 H   0  0  0  0  0  0
  -28.4452  -18.4481   19.8453 H   0  0  0  0  0  0
  -29.4029  -23.8691   19.2294 H   0  0  0  0  0  0
  -27.5610  -24.9355   21.4670 H   0  0  0  0  0  0
  -29.1303  -21.3707   19.1382 H   0  0  0  0  0  0
  -28.8098  -15.7925   20.5396 H   0  0  0  0  0  0
  1 25  1  0  0  0
  1 30  2  0  0  0
  1 81  1  0  0  0
  2  3  1  0  0  0
  2 25  1  0  0  0
  2 84  1  0  0  0
  2 85  1  0  0  0
  3  4  1  0  0  0
  3 86  1  0  0  0
  3 87  1  0  0  0
  4  5  1  0  0  0
  4 88  1  0  0  0
  4 89  1  0  0  0
  5  6  1  0  0  0
  5 26  1  0  0  0
  5 90  1  0  0  0
  6 25  1  0  0  0
  6 91  1  0  0  0
  6 92  1  0  0  0
  7  8  2  0  0  0
  7 26  1  0  0  0
  7 29  1  0  0  0
  8  9  1  0  0  0
  8 22  1  0  0  0
  9 10  1  0  0  0
  9 27  2  0  0  0
 10 11  2  0  0  0
 10 15  1  0  0  0
 11 12  1  0  0  0
 11 93  1  0  0  0
 12 13  2  0  0  0
 12 94  1  0  0  0
 13 14  1  0  0  0
 13 31  1  0  0  0
 14 15  2  0  0  0
 14 95  1  0  0  0
 15 96  1  0  0  0
 16 17  2  0  0  0
 16 21  1  0  0  0
 16 31  1  0  0  0
 17 18  1  0  0  0
 17 97  1  0  0  0
 18 19  2  0  0  0
 18 98  1  0  0  0
 19 20  1  0  0  0
 19 24  1  0  0  0
 20 21  2  0  0  0
 20 99  1  0  0  0
 21 23  1  0  0  0
 22 28  1  0  0  0
 22 32  2  0  0  0
 26 27  1  0  0  0
 28100  1  0  0  0
 28101  1  0  0  0
 29102  1  0  0  0
 29103  1  0  0  0
 33 34  1  0  0  0
 33 66  1  0  0  0
 33 70  2  0  0  0
 34 36  1  0  0  0
 34 59  1  0  0  0
 34104  1  0  0  0
 35 44  2  0  0  0
 35 45  1  0  0  0
 35 68  1  0  0  0
 36 56  1  0  0  0
 36105  1  0  0  0
 37 39  1  0  0  0
 37 47  1  0  0  0
 37 66  1  0  0  0
 37106  1  0  0  0
 38 43  2  0  0  0
 38 46  1  0  0  0
 38 47  1  0  0  0
 39 64  1  0  0  0
 39 67  2  0  0  0
 40 52  1  0  0  0
 40 53  2  0  0  0
 40 58  1  0  0  0
 41107  1  0  0  0
 41108  1  0  0  0
 41109  1  0  0  0
 41 48  1  0  0  0
 42 43  1  0  0  0
 42 66  1  0  0  0
 42110  1  0  0  0
 42111  1  0  0  0
 43 44  1  0  0  0
 44112  1  0  0  0
 45 46  2  0  0  0
 45113  1  0  0  0
 46114  1  0  0  0
 47115  1  0  0  0
 47116  1  0  0  0
 48 56  1  0  0  0
 48 65  1  0  0  0
 48117  1  0  0  0
 49 50  1  0  0  0
 49 53  1  0  0  0
 49 64  1  0  0  0
 49118  1  0  0  0
 50 51  1  0  0  0
 50119  1  0  0  0
 50120  1  0  0  0
 51 52  1  0  0  0
 51121  1  0  0  0
 51122  1  0  0  0
 52123  1  0  0  0
 52124  1  0  0  0
 53 54  1  0  0  0
 54 55  2  0  0  0
 54125  1  0  0  0
 55 57  1  0  0  0
 55126  1  0  0  0
 56 69  2  0  0  0
 57 58  2  0  0  0
 57127  1  0  0  0
 58128  1  0  0  0
 59 60  1  0  0  0
 59 61  1  0  0  0
 59 62  1  0  0  0
 60129  1  0  0  0
 60130  1  0  0  0
 60131  1  0  0  0
 61132  1  0  0  0
 61133  1  0  0  0
 61134  1  0  0  0
 62135  1  0  0  0
 62136  1  0  0  0
 62137  1  0  0  0
 63 65  1  0  0  0
 63138  1  0  0  0
 63139  1  0  0  0
 63140  1  0  0  0
 64141  1  0  0  0
 65142  1  0  0  0
 68 78  1  0  0  0
 71 72  2  0  0  0
 71 74  1  0  0  0
 71143  1  0  0  0
 72 76  1  0  0  0
 72144  1  0  0  0
 73 74  2  0  0  0
 73 75  1  0  0  0
 73145  1  0  0  0
 74 81  1  0  0  0
 75 76  2  0  0  0
 75 80  1  0  0  0
 76 83  1  0  0  0
 77 78  2  0  0  0
 77 79  1  0  0  0
 77146  1  0  0  0
 78147  1  0  0  0
 79 80  1  0  0  0
 79 82  2  0  0  0
 80148  1  0  0  0
 81149  1  0  0  0
M  ISO  4   1 100  68 101  78 101  81 100
M  END
> <chiral flag>
0

> <version>
0

> <s_m_source_file>
/data/baiqing/PycharmProjects/Reinvent-master-3.2/result/LINK_invent/BTK/process_docking_weight1_custom_product_contain_oxygen_bond_distance_aromatic_linkinvent_7_9_3/rearranged_h_0071.sdf

> <i_m_source_file_index>
36

> <r_mmod_Potential_Energy-OPLS-2005>
193.15608215332

> <r_mmod_Stretch_Energy-OPLS-2005>
150.190979003906

> <r_mmod_Bend_Energy-OPLS-2005>
168.341949462891

> <r_mmod_Torsional_Energy-OPLS-2005>
269.395416259766

> <r_mmod_Improper_Torsional_Energy-OPLS-2005>
8.46954727172852

> <r_mmod_Van_der_Waal_Energy-OPLS-2005>
135.089080810547

> <r_mmod_Electrostatic_Energy-OPLS-2005>
-418.831268310547

> <r_mmod_Solvation_Energy-OPLS-2005>
-233.453857421875

> <b_mmod_Minimization_Converged-OPLS-2005>
0

> <r_mmod_RMS_Derivative-OPLS-2005>
2.43674468994141

$$$$
36
                    3D
 Structure written by MMmdl.
163172  0  0  1  0            999 V2000
  -30.6581  -14.6573   20.4725 C   0  0  0  0  0  0
  -30.4324  -12.4061   19.4581 C   0  0  0  0  0  0
  -29.5027  -12.4899   18.2268 C   0  0  0  0  0  0
  -28.0204  -12.3680   18.6286 C   0  0  0  0  0  0
  -27.6484  -13.2383   19.8598 C   0  0  2  0  0  0
  -28.6975  -13.1223   20.9874 C   0  0  0  0  0  0
  -25.2535  -13.8252   20.5706 C   0  0  0  0  0  0
  -24.1818  -13.0483   20.9211 C   0  0  0  0  0  0
  -24.6435  -11.6955   20.8753 C   0  0  0  0  0  0
  -23.9098  -10.4328   21.0414 C   0  0  0  0  0  0
  -24.3630   -9.4238   21.9207 C   0  0  0  0  0  0
  -23.6298   -8.2269   22.0784 C   0  0  0  0  0  0
  -22.4275   -8.0313   21.3562 C   0  0  0  0  0  0
  -21.9921   -9.0286   20.4653 C   0  0  0  0  0  0
  -22.7266  -10.2163   20.3060 C   0  0  0  0  0  0
  -21.6858   -6.0757   22.5282 C   0  0  0  0  0  0
  -21.4024   -6.5656   23.8223 C   0  0  0  0  0  0
  -21.3662   -5.6803   24.9177 C   0  0  0  0  0  0
  -21.6053   -4.3072   24.7212 C   0  0  0  0  0  0
  -21.8816   -3.8177   23.4323 C   0  0  0  0  0  0
  -21.9189   -4.6994   22.3388 C   0  0  0  0  0  0
  -22.7818  -13.5237   21.1836 C   0  0  0  0  0  0
  -22.1653   -4.2187   21.0964 F   0  0  0  0  0  0
  -21.5599   -3.4546   25.7715 F   0  0  0  0  0  0
  -30.0050  -13.4532   20.4103 N   0  0  0  0  0  0
  -26.2985  -12.9484   20.3336 N   0  0  0  0  0  0
  -25.9378  -11.6630   20.5817 N   0  0  0  0  0  0
  -22.0441  -12.8254   22.0381 N   0  0  0  0  0  0
  -25.4205  -15.1982   20.4037 N   0  0  0  0  0  0
  -31.8581  -14.7173   20.1992 O   0  0  0  0  0  0
  -21.6633   -6.8915   21.4251 O   0  0  0  0  0  0
  -22.3526  -14.5536   20.6702 O   0  0  0  0  0  0
  -24.6278  -31.8610   23.1983 C   0  0  0  0  0  0
  -25.9116  -32.4778   23.8349 C   0  0  1  0  0  0
  -27.2370  -27.3238   20.1100 C   0  0  0  0  0  0
  -25.5919  -33.8567   24.2294 N   0  0  0  0  0  0
  -23.4257  -30.4763   21.5431 C   0  0  2  0  0  0
  -24.8713  -28.9302   20.1168 C   0  0  0  0  0  0
  -22.7471  -29.4662   22.4930 C   0  0  0  0  0  0
  -18.0241  -28.1394   22.8465 C   0  0  0  0  0  0
  -24.1475  -36.7288   23.2639 C   0  0  0  0  0  0
  -25.9695  -30.7866   21.3733 C   0  0  0  0  0  0
  -26.0428  -29.4158   20.7138 C   0  0  0  0  0  0
  -27.2302  -28.6260   20.6966 C   0  0  0  0  0  0
  -26.0434  -26.8871   19.4935 C   0  0  0  0  0  0
  -24.8725  -27.6677   19.5044 C   0  0  0  0  0  0
  -23.6333  -29.7983   20.1657 C   0  0  0  0  0  0
  -25.4110  -36.3076   24.0331 C   0  0  1  0  0  0
  -20.5862  -28.3739   23.1214 C   0  0  2  0  0  0
  -20.6856  -26.9488   22.5229 C   0  0  0  0  0  0
  -19.5748  -26.6431   21.5130 C   0  0  0  0  0  0
  -18.1896  -26.7963   22.1535 C   0  0  0  0  0  0
  -19.1509  -28.8869   23.2822 C   0  0  0  0  0  0
  -18.9462  -30.1436   23.8864 C   0  0  0  0  0  0
  -17.6454  -30.6534   24.0656 C   0  0  0  0  0  0
  -25.9072  -34.9440   23.5131 C   0  0  0  0  0  0
  -16.5321  -29.9020   23.6475 C   0  0  0  0  0  0
  -16.7208  -28.6479   23.0365 C   0  0  0  0  0  0
  -26.4480  -31.6596   25.0746 C   0  0  0  0  0  0
  -25.3727  -31.3730   26.1478 C   0  0  0  0  0  0
  -27.0329  -30.3018   24.6222 C   0  0  0  0  0  0
  -27.6018  -32.4345   25.7518 C   0  0  0  0  0  0
  -27.5574  -37.1801   24.8467 C   0  0  0  0  0  0
  -21.4157  -29.3162   22.3682 N   0  0  0  0  0  0
  -26.4297  -37.3772   23.9400 N   0  0  0  0  0  0
  -24.6941  -31.0597   22.0938 N   0  0  0  0  0  0
  -23.4172  -28.8166   23.2965 O   0  0  0  0  0  0
  -28.3544  -26.4766   20.1487 O   0  0  0  0  0  0
  -26.5603  -34.8919   22.4685 O   0  0  0  0  0  0
  -23.5440  -32.1368   23.7330 O   0  0  0  0  0  0
  -29.9444  -16.8422   17.6219 C   0  0  0  0  0  0
  -30.7615  -16.9881   18.7596 C   0  0  0  0  0  0
  -28.1009  -17.8029   18.8802 C   0  0  0  0  0  0
  -28.9992  -18.0597   19.9513 C   0  0  0  0  0  0
  -28.5715  -17.1346   17.7290 C   0  0  0  0  0  0
  -30.1107  -17.1288   20.0069 C   0  0  0  0  0  0
  -29.2326  -23.9202   20.2538 C   0  0  0  0  0  0
  -30.2384  -21.5046   20.7813 C   0  0  0  0  0  0
  -27.8626  -21.6241   20.0877 C   0  0  0  0  0  0
  -30.0331  -20.0188   21.2765 C   0  0  0  0  0  0
  -27.6790  -20.1734   20.6671 C   0  0  0  0  0  0
  -28.9764  -22.4411   20.7974 C   0  0  0  0  0  0
  -28.0854  -25.0177   20.1929 C   0  0  0  0  0  0
  -28.9006  -19.3313   20.6374 N   0  0  0  0  0  0
  -27.7238  -16.8600   16.6576 N   0  0  0  0  0  0
  -29.9127  -15.8089   20.6460 N   0  0  0  0  0  0
  -30.3841  -24.2358   19.9202 O   0  0  0  0  0  0
  -31.4672  -12.5300   19.1362 H   0  0  0  0  0  0
  -30.3800  -11.4204   19.9210 H   0  0  0  0  0  0
  -29.7591  -11.7019   17.5165 H   0  0  0  0  0  0
  -29.6678  -13.4314   17.7016 H   0  0  0  0  0  0
  -27.8152  -11.3163   18.8326 H   0  0  0  0  0  0
  -27.3848  -12.6429   17.7853 H   0  0  0  0  0  0
  -27.6602  -14.2712   19.5094 H   0  0  0  0  0  0
  -28.7049  -12.1107   21.3986 H   0  0  0  0  0  0
  -28.4568  -13.7812   21.8249 H   0  0  0  0  0  0
  -25.2802   -9.5695   22.4750 H   0  0  0  0  0  0
  -24.0013   -7.4662   22.7494 H   0  0  0  0  0  0
  -21.0880   -8.8829   19.8930 H   0  0  0  0  0  0
  -22.3796  -10.9685   19.6131 H   0  0  0  0  0  0
  -21.2036   -7.6177   23.9751 H   0  0  0  0  0  0
  -21.1481   -6.0519   25.9080 H   0  0  0  0  0  0
  -22.0592   -2.7631   23.2813 H   0  0  0  0  0  0
  -22.4061  -11.9915   22.4783 H   0  0  0  0  0  0
  -21.1077  -13.1313   22.2563 H   0  0  0  0  0  0
  -24.6595  -15.8580   20.5229 H   0  0  0  0  0  0
  -26.2616  -15.6275   20.0431 H   0  0  0  0  0  0
  -26.7222  -32.5408   23.1125 H   0  0  0  0  0  0
  -25.0021  -33.9704   25.0400 H   0  0  0  0  0  0
  -22.7271  -31.2972   21.3919 H   0  0  0  0  0  0
  -23.3752  -35.9610   23.3326 H   0  0  0  0  0  0
  -24.3585  -36.8893   22.2052 H   0  0  0  0  0  0
  -23.7211  -37.6497   23.6665 H   0  0  0  0  0  0
  -26.1060  -31.5556   20.6098 H   0  0  0  0  0  0
  -26.8501  -30.8308   22.0050 H   0  0  0  0  0  0
  -28.1304  -28.9943   21.1647 H   0  0  0  0  0  0
  -25.9936  -25.9207   19.0138 H   0  0  0  0  0  0
  -23.9736  -27.2802   19.0467 H   0  0  0  0  0  0
  -23.7266  -30.5598   19.3918 H   0  0  0  0  0  0
  -22.7594  -29.2066   19.8924 H   0  0  0  0  0  0
  -25.1296  -36.1944   25.0829 H   0  0  0  0  0  0
  -20.9958  -28.3294   24.1326 H   0  0  0  0  0  0
  -20.5992  -26.2245   23.3359 H   0  0  0  0  0  0
  -21.6707  -26.7650   22.0873 H   0  0  0  0  0  0
  -19.6862  -25.6326   21.1200 H   0  0  0  0  0  0
  -19.6636  -27.3184   20.6591 H   0  0  0  0  0  0
  -17.4279  -26.6950   21.3819 H   0  0  0  0  0  0
  -18.0104  -25.9942   22.8685 H   0  0  0  0  0  0
  -19.7991  -30.7202   24.2208 H   0  0  0  0  0  0
  -17.5124  -31.6138   24.5363 H   0  0  0  0  0  0
  -15.5287  -30.2860   23.7856 H   0  0  0  0  0  0
  -15.8651  -28.0800   22.7055 H   0  0  0  0  0  0
  -24.5910  -30.7062   25.7835 H   0  0  0  0  0  0
  -24.8893  -32.2883   26.4907 H   0  0  0  0  0  0
  -25.8047  -30.8929   27.0262 H   0  0  0  0  0  0
  -26.2908  -29.6791   24.1210 H   0  0  0  0  0  0
  -27.3985  -29.7248   25.4730 H   0  0  0  0  0  0
  -27.8808  -30.4315   23.9479 H   0  0  0  0  0  0
  -27.2608  -33.3651   26.2051 H   0  0  0  0  0  0
  -28.3824  -32.6888   25.0350 H   0  0  0  0  0  0
  -28.0681  -31.8509   26.5456 H   0  0  0  0  0  0
  -28.2610  -38.0074   24.7526 H   0  0  0  0  0  0
  -28.1049  -36.2624   24.6305 H   0  0  0  0  0  0
  -27.2305  -37.1470   25.8868 H   0  0  0  0  0  0
  -20.9318  -29.8938   21.6913 H   0  0  0  0  0  0
  -26.0189  -38.2864   24.1379 H   0  0  0  0  0  0
  -30.3675  -16.4413   16.7135 H   0  0  0  0  0  0
  -31.7681  -16.6016   18.6900 H   0  0  0  0  0  0
  -27.1161  -18.2405   18.8342 H   0  0  0  0  0  0
  -31.0191  -21.9624   21.3914 H   0  0  0  0  0  0
  -30.6311  -21.4768   19.7633 H   0  0  0  0  0  0
  -26.9166  -22.1587   20.1882 H   0  0  0  0  0  0
  -28.0611  -21.5695   19.0167 H   0  0  0  0  0  0
  -29.8441  -20.0219   22.3516 H   0  0  0  0  0  0
  -30.9560  -19.4481   21.1368 H   0  0  0  0  0  0
  -26.8265  -19.6978   20.1871 H   0  0  0  0  0  0
  -27.3827  -20.2591   21.7117 H   0  0  0  0  0  0
  -28.6855  -22.5708   21.8394 H   0  0  0  0  0  0
  -28.4458  -25.2125   21.2029 H   0  0  0  0  0  0
  -28.4485  -25.1483   19.1702 H   0  0  0  0  0  0
  -28.1203  -16.7204   15.7324 H   0  0  0  0  0  0
  -26.7931  -17.2596   16.6424 H   0  0  0  0  0  0
  -28.9950  -15.6635   21.0365 H   0  0  0  0  0  0
  1 25  1  0  0  0
  1 30  2  0  0  0
  1 86  1  0  0  0
  2  3  1  0  0  0
  2 25  1  0  0  0
  2 88  1  0  0  0
  2 89  1  0  0  0
  3  4  1  0  0  0
  3 90  1  0  0  0
  3 91  1  0  0  0
  4  5  1  0  0  0
  4 92  1  0  0  0
  4 93  1  0  0  0
  5  6  1  0  0  0
  5 26  1  0  0  0
  5 94  1  0  0  0
  6 25  1  0  0  0
  6 95  1  0  0  0
  6 96  1  0  0  0
  7  8  2  0  0  0
  7 26  1  0  0  0
  7 29  1  0  0  0
  8  9  1  0  0  0
  8 22  1  0  0  0
  9 10  1  0  0  0
  9 27  2  0  0  0
 10 11  2  0  0  0
 10 15  1  0  0  0
 11 12  1  0  0  0
 11 97  1  0  0  0
 12 13  2  0  0  0
 12 98  1  0  0  0
 13 14  1  0  0  0
 13 31  1  0  0  0
 14 15  2  0  0  0
 14 99  1  0  0  0
 15100  1  0  0  0
 16 17  2  0  0  0
 16 21  1  0  0  0
 16 31  1  0  0  0
 17 18  1  0  0  0
 17101  1  0  0  0
 18 19  2  0  0  0
 18102  1  0  0  0
 19 20  1  0  0  0
 19 24  1  0  0  0
 20 21  2  0  0  0
 20103  1  0  0  0
 21 23  1  0  0  0
 22 28  1  0  0  0
 22 32  2  0  0  0
 26 27  1  0  0  0
 28104  1  0  0  0
 28105  1  0  0  0
 29106  1  0  0  0
 29107  1  0  0  0
 33 34  1  0  0  0
 33 66  1  0  0  0
 33 70  2  0  0  0
 34 36  1  0  0  0
 34 59  1  0  0  0
 34108  1  0  0  0
 35 44  2  0  0  0
 35 45  1  0  0  0
 35 68  1  0  0  0
 36 56  1  0  0  0
 36109  1  0  0  0
 37 39  1  0  0  0
 37 47  1  0  0  0
 37 66  1  0  0  0
 37110  1  0  0  0
 38 43  2  0  0  0
 38 46  1  0  0  0
 38 47  1  0  0  0
 39 64  1  0  0  0
 39 67  2  0  0  0
 40 52  1  0  0  0
 40 53  2  0  0  0
 40 58  1  0  0  0
 41111  1  0  0  0
 41112  1  0  0  0
 41113  1  0  0  0
 41 48  1  0  0  0
 42 43  1  0  0  0
 42 66  1  0  0  0
 42114  1  0  0  0
 42115  1  0  0  0
 43 44  1  0  0  0
 44116  1  0  0  0
 45 46  2  0  0  0
 45117  1  0  0  0
 46118  1  0  0  0
 47119  1  0  0  0
 47120  1  0  0  0
 48 56  1  0  0  0
 48 65  1  0  0  0
 48121  1  0  0  0
 49 50  1  0  0  0
 49 53  1  0  0  0
 49 64  1  0  0  0
 49122  1  0  0  0
 50 51  1  0  0  0
 50123  1  0  0  0
 50124  1  0  0  0
 51 52  1  0  0  0
 51125  1  0  0  0
 51126  1  0  0  0
 52127  1  0  0  0
 52128  1  0  0  0
 53 54  1  0  0  0
 54 55  2  0  0  0
 54129  1  0  0  0
 55 57  1  0  0  0
 55130  1  0  0  0
 56 69  2  0  0  0
 57 58  2  0  0  0
 57131  1  0  0  0
 58132  1  0  0  0
 59 60  1  0  0  0
 59 61  1  0  0  0
 59 62  1  0  0  0
 60133  1  0  0  0
 60134  1  0  0  0
 60135  1  0  0  0
 61136  1  0  0  0
 61137  1  0  0  0
 61138  1  0  0  0
 62139  1  0  0  0
 62140  1  0  0  0
 62141  1  0  0  0
 63 65  1  0  0  0
 63142  1  0  0  0
 63143  1  0  0  0
 63144  1  0  0  0
 64145  1  0  0  0
 65146  1  0  0  0
 68 83  1  0  0  0
 71 72  2  0  0  0
 71 75  1  0  0  0
 71147  1  0  0  0
 72 76  1  0  0  0
 72148  1  0  0  0
 73 74  1  0  0  0
 73 75  2  0  0  0
 73149  1  0  0  0
 74 76  2  0  0  0
 74 84  1  0  0  0
 75 85  1  0  0  0
 76 86  1  0  0  0
 77 83  1  0  0  0
 77 87  2  0  0  0
 77 82  1  0  0  0
 78 80  1  0  0  0
 78 82  1  0  0  0
 78150  1  0  0  0
 78151  1  0  0  0
 79 81  1  0  0  0
 79 82  1  0  0  0
 79152  1  0  0  0
 79153  1  0  0  0
 80 84  1  0  0  0
 80154  1  0  0  0
 80155  1  0  0  0
 81 84  1  0  0  0
 81156  1  0  0  0
 81157  1  0  0  0
 82158  1  0  0  0
 83159  1  0  0  0
 83160  1  0  0  0
 85161  1  0  0  0
 85162  1  0  0  0
 86163  1  0  0  0
M  ISO  4   1 100  68 101  83 101  86 100
M  END
> <chiral flag>
0

> <version>
0

> <s_m_source_file>
/data/baiqing/PycharmProjects/Reinvent-master-3.2/result/LINK_invent/BTK/process_docking_weight1_custom_product_contain_oxygen_bond_distance_aromatic_linkinvent_7_9_3/rearranged_h_0071.sdf

> <i_m_source_file_index>
37

> <r_mmod_Potential_Energy-OPLS-2005>
539.227294921875

> <r_mmod_Stretch_Energy-OPLS-2005>
95.7003707885742

> <r_mmod_Bend_Energy-OPLS-2005>
381.635620117188

> <r_mmod_Torsional_Energy-OPLS-2005>
474.877288818359

> <r_mmod_Improper_Torsional_Energy-OPLS-2005>
30.8921699523926

> <r_mmod_Van_der_Waal_Energy-OPLS-2005>
158.292526245117

> <r_mmod_Electrostatic_Energy-OPLS-2005>
-412.739807128906

> <r_mmod_Solvation_Energy-OPLS-2005>
-242.974380493164

> <b_mmod_Minimization_Converged-OPLS-2005>
0

> <r_mmod_RMS_Derivative-OPLS-2005>
7.24539470672607

$$$$
37
                    3D
 Structure written by MMmdl.
164173  0  0  1  0            999 V2000
  -30.6673  -14.6166   20.5017 C   0  0  0  0  0  0
  -30.4141  -12.3743   19.4600 C   0  0  0  0  0  0
  -29.4965  -12.4913   18.2238 C   0  0  0  0  0  0
  -28.0206  -12.3455   18.6363 C   0  0  0  0  0  0
  -27.6464  -13.2237   19.8608 C   0  0  2  0  0  0
  -28.6894  -13.0994   20.9935 C   0  0  0  0  0  0
  -25.2520  -13.8185   20.5690 C   0  0  0  0  0  0
  -24.1798  -13.0440   20.9193 C   0  0  0  0  0  0
  -24.6379  -11.6915   20.8745 C   0  0  0  0  0  0
  -23.9055  -10.4294   21.0404 C   0  0  0  0  0  0
  -24.3612   -9.4214   21.9180 C   0  0  0  0  0  0
  -23.6289   -8.2248   22.0758 C   0  0  0  0  0  0
  -22.4275   -8.0283   21.3541 C   0  0  0  0  0  0
  -21.9908   -9.0250   20.4640 C   0  0  0  0  0  0
  -22.7232  -10.2129   20.3047 C   0  0  0  0  0  0
  -21.6855   -6.0731   22.5275 C   0  0  0  0  0  0
  -21.4012   -6.5637   23.8207 C   0  0  0  0  0  0
  -21.3656   -5.6787   24.9172 C   0  0  0  0  0  0
  -21.6049   -4.3052   24.7223 C   0  0  0  0  0  0
  -21.8823   -3.8143   23.4346 C   0  0  0  0  0  0
  -21.9193   -4.6957   22.3399 C   0  0  0  0  0  0
  -22.7819  -13.5220   21.1852 C   0  0  0  0  0  0
  -22.1661   -4.2139   21.0974 F   0  0  0  0  0  0
  -21.5632   -3.4541   25.7743 F   0  0  0  0  0  0
  -30.0001  -13.4222   20.4175 N   0  0  0  0  0  0
  -26.2943  -12.9383   20.3322 N   0  0  0  0  0  0
  -25.9306  -11.6533   20.5765 N   0  0  0  0  0  0
  -22.0474  -12.8204   22.0409 N   0  0  0  0  0  0
  -25.4240  -15.1907   20.4104 N   0  0  0  0  0  0
  -31.8354  -14.6951   20.1139 O   0  0  0  0  0  0
  -21.6638   -6.8883   21.4239 O   0  0  0  0  0  0
  -22.3511  -14.5536   20.6716 O   0  0  0  0  0  0
  -24.6234  -31.8605   23.2004 C   0  0  0  0  0  0
  -25.9071  -32.4785   23.8342 C   0  0  1  0  0  0
  -27.2240  -27.3395   20.1154 C   0  0  0  0  0  0
  -25.5867  -33.8575   24.2255 N   0  0  0  0  0  0
  -23.4183  -30.4806   21.5438 C   0  0  2  0  0  0
  -24.8653  -28.9336   20.1135 C   0  0  0  0  0  0
  -22.7471  -29.4631   22.4958 C   0  0  0  0  0  0
  -18.0284  -28.1421   22.8484 C   0  0  0  0  0  0
  -24.1479  -36.7311   23.2647 C   0  0  0  0  0  0
  -25.9544  -30.7977   21.3680 C   0  0  0  0  0  0
  -26.0334  -29.4245   20.7125 C   0  0  0  0  0  0
  -27.2200  -28.6365   20.7053 C   0  0  0  0  0  0
  -26.0363  -26.8829   19.5093 C   0  0  0  0  0  0
  -24.8650  -27.6653   19.5079 C   0  0  0  0  0  0
  -23.6317  -29.8122   20.1604 C   0  0  0  0  0  0
  -25.4105  -36.3090   24.0329 C   0  0  1  0  0  0
  -20.5880  -28.3716   23.1308 C   0  0  2  0  0  0
  -20.6773  -26.9454   22.5429 C   0  0  0  0  0  0
  -19.5755  -26.6403   21.5232 C   0  0  0  0  0  0
  -18.1923  -26.7957   22.1639 C   0  0  0  0  0  0
  -19.1539  -28.8881   23.2879 C   0  0  0  0  0  0
  -18.9467  -30.1473   23.8922 C   0  0  0  0  0  0
  -17.6469  -30.6615   24.0585 C   0  0  0  0  0  0
  -25.9053  -34.9454   23.5114 C   0  0  0  0  0  0
  -16.5362  -29.9124   23.6341 C   0  0  0  0  0  0
  -16.7275  -28.6549   23.0353 C   0  0  0  0  0  0
  -26.4454  -31.6597   25.0716 C   0  0  0  0  0  0
  -25.3678  -31.3702   26.1442 C   0  0  0  0  0  0
  -27.0301  -30.3032   24.6144 C   0  0  0  0  0  0
  -27.6023  -32.4315   25.7476 C   0  0  0  0  0  0
  -27.5570  -37.1788   24.8461 C   0  0  0  0  0  0
  -21.4188  -29.3055   22.3701 N   0  0  0  0  0  0
  -26.4286  -37.3782   23.9412 N   0  0  0  0  0  0
  -24.6838  -31.0625   22.0953 N   0  0  0  0  0  0
  -23.4188  -28.8199   23.3069 O   0  0  0  0  0  0
  -28.3334  -26.4965   20.1139 O   0  0  0  0  0  0
  -26.5673  -34.8921   22.4712 O   0  0  0  0  0  0
  -23.5402  -32.1395   23.7353 O   0  0  0  0  0  0
  -32.2572  -18.6877   21.4015 C   0  0  0  0  0  0
  -31.7537  -17.3831   21.2879 C   0  0  0  0  0  0
  -29.5794  -18.2992   20.6967 C   0  0  0  0  0  0
  -31.4479  -19.8172   21.1730 C   0  0  0  0  0  0
  -30.0800  -19.6576   20.7969 C   0  0  0  0  0  0
  -30.4141  -17.1369   20.9165 C   0  0  0  0  0  0
  -28.3211  -21.2964   21.4241 C   0  0  0  0  0  0
  -32.0857  -21.1302   21.4283 C   0  0  0  0  0  0
  -27.7324  -22.7474   21.3582 C   0  0  0  0  0  0
  -29.6284  -23.3086   19.7856 C   0  0  0  0  0  0
  -29.6210  -21.7811   19.4303 C   0  0  0  0  0  0
  -28.2644  -23.8013   20.3207 C   0  0  2  0  0  0
  -31.6336  -21.8541   22.6778 C   0  0  0  0  0  0
  -28.2247  -25.2794   20.9304 C   0  0  0  0  0  0
  -32.9939  -21.6101   20.6898 N   0  0  0  0  0  0
  -29.2709  -20.8675   20.5477 N   0  0  0  0  0  0
  -29.9448  -15.7474   20.8159 N   0  0  0  0  0  0
  -27.9001  -20.5634   22.3245 O   0  0  0  0  0  0
  -31.4610  -12.4594   19.1639 H   0  0  0  0  0  0
  -30.3170  -11.3878   19.9142 H   0  0  0  0  0  0
  -29.7539  -11.7254   17.4914 H   0  0  0  0  0  0
  -29.6516  -13.4527   17.7313 H   0  0  0  0  0  0
  -27.8506  -11.2938   18.8702 H   0  0  0  0  0  0
  -27.3671  -12.5759   17.7940 H   0  0  0  0  0  0
  -27.6604  -14.2560   19.5115 H   0  0  0  0  0  0
  -28.6962  -12.0846   21.3963 H   0  0  0  0  0  0
  -28.4444  -13.7567   21.8290 H   0  0  0  0  0  0
  -25.2754   -9.5695   22.4762 H   0  0  0  0  0  0
  -23.9995   -7.4645   22.7486 H   0  0  0  0  0  0
  -21.0846   -8.8764   19.8943 H   0  0  0  0  0  0
  -22.3692  -10.9668   19.6163 H   0  0  0  0  0  0
  -21.2005   -7.6146   23.9709 H   0  0  0  0  0  0
  -21.1474   -6.0520   25.9071 H   0  0  0  0  0  0
  -22.0606   -2.7602   23.2847 H   0  0  0  0  0  0
  -22.4106  -11.9853   22.4758 H   0  0  0  0  0  0
  -21.1091  -13.1213   22.2639 H   0  0  0  0  0  0
  -24.6599  -15.8481   20.5235 H   0  0  0  0  0  0
  -26.2735  -15.6260   20.0740 H   0  0  0  0  0  0
  -26.7153  -32.5467   23.1112 H   0  0  0  0  0  0
  -24.9849  -33.9705   25.0277 H   0  0  0  0  0  0
  -22.7113  -31.2988   21.3958 H   0  0  0  0  0  0
  -23.3740  -35.9645   23.3313 H   0  0  0  0  0  0
  -24.3557  -36.8961   22.2058 H   0  0  0  0  0  0
  -23.7219  -37.6497   23.6698 H   0  0  0  0  0  0
  -26.0723  -31.5617   20.5991 H   0  0  0  0  0  0
  -26.8372  -30.8531   21.9938 H   0  0  0  0  0  0
  -28.1172  -29.0026   21.1825 H   0  0  0  0  0  0
  -26.0135  -25.9047   19.0501 H   0  0  0  0  0  0
  -23.9658  -27.2814   19.0459 H   0  0  0  0  0  0
  -23.7521  -30.5864   19.4019 H   0  0  0  0  0  0
  -22.7500  -29.2431   19.8632 H   0  0  0  0  0  0
  -25.1262  -36.1955   25.0818 H   0  0  0  0  0  0
  -20.9940  -28.3332   24.1449 H   0  0  0  0  0  0
  -20.5710  -26.2350   23.3630 H   0  0  0  0  0  0
  -21.6637  -26.7513   22.1200 H   0  0  0  0  0  0
  -19.6950  -25.6313   21.1271 H   0  0  0  0  0  0
  -19.6701  -27.3219   20.6761 H   0  0  0  0  0  0
  -17.4177  -26.6706   21.4047 H   0  0  0  0  0  0
  -18.0334  -26.0106   22.9045 H   0  0  0  0  0  0
  -19.7949  -30.7257   24.2325 H   0  0  0  0  0  0
  -17.5043  -31.6304   24.5182 H   0  0  0  0  0  0
  -15.5366  -30.3039   23.7660 H   0  0  0  0  0  0
  -15.8677  -28.0877   22.7059 H   0  0  0  0  0  0
  -24.5876  -30.7042   25.7745 H   0  0  0  0  0  0
  -24.8828  -32.2842   26.4875 H   0  0  0  0  0  0
  -25.7984  -30.8865   27.0222 H   0  0  0  0  0  0
  -26.2874  -29.6783   24.1185 H   0  0  0  0  0  0
  -27.4031  -29.7283   25.4624 H   0  0  0  0  0  0
  -27.8719  -30.4331   23.9347 H   0  0  0  0  0  0
  -27.2677  -33.3651   26.2010 H   0  0  0  0  0  0
  -28.3857  -32.6817   25.0308 H   0  0  0  0  0  0
  -28.0671  -31.8458   26.5420 H   0  0  0  0  0  0
  -28.2565  -38.0097   24.7502 H   0  0  0  0  0  0
  -28.1076  -36.2616   24.6292 H   0  0  0  0  0  0
  -27.2287  -37.1449   25.8863 H   0  0  0  0  0  0
  -20.9401  -29.8739   21.6862 H   0  0  0  0  0  0
  -26.0189  -38.2867   24.1409 H   0  0  0  0  0  0
  -33.2891  -18.8197   21.6974 H   0  0  0  0  0  0
  -32.4333  -16.5743   21.5118 H   0  0  0  0  0  0
  -28.5405  -18.1535   20.4378 H   0  0  0  0  0  0
  -27.8877  -23.1550   22.3579 H   0  0  0  0  0  0
  -26.6507  -22.6644   21.2506 H   0  0  0  0  0  0
  -29.8936  -23.8908   18.9012 H   0  0  0  0  0  0
  -30.4164  -23.5158   20.5074 H   0  0  0  0  0  0
  -30.5838  -21.5016   19.0010 H   0  0  0  0  0  0
  -28.8981  -21.6109   18.6325 H   0  0  0  0  0  0
  -27.5708  -23.7891   19.4786 H   0  0  0  0  0  0
  -31.3047  -21.1391   23.4315 H   0  0  0  0  0  0
  -30.8005  -22.5193   22.4619 H   0  0  0  0  0  0
  -32.4477  -22.4432   23.0983 H   0  0  0  0  0  0
  -29.0117  -25.3496   21.6806 H   0  0  0  0  0  0
  -27.3051  -25.3560   21.5171 H   0  0  0  0  0  0
  -33.2098  -20.9935   19.9127 H   0  0  0  0  0  0
  -28.9586  -15.5955   20.9602 H   0  0  0  0  0  0
  1 25  1  0  0  0
  1 30  2  0  0  0
  1 87  1  0  0  0
  2  3  1  0  0  0
  2 25  1  0  0  0
  2 89  1  0  0  0
  2 90  1  0  0  0
  3  4  1  0  0  0
  3 91  1  0  0  0
  3 92  1  0  0  0
  4  5  1  0  0  0
  4 93  1  0  0  0
  4 94  1  0  0  0
  5  6  1  0  0  0
  5 26  1  0  0  0
  5 95  1  0  0  0
  6 25  1  0  0  0
  6 96  1  0  0  0
  6 97  1  0  0  0
  7  8  2  0  0  0
  7 26  1  0  0  0
  7 29  1  0  0  0
  8  9  1  0  0  0
  8 22  1  0  0  0
  9 10  1  0  0  0
  9 27  2  0  0  0
 10 11  2  0  0  0
 10 15  1  0  0  0
 11 12  1  0  0  0
 11 98  1  0  0  0
 12 13  2  0  0  0
 12 99  1  0  0  0
 13 14  1  0  0  0
 13 31  1  0  0  0
 14 15  2  0  0  0
 14100  1  0  0  0
 15101  1  0  0  0
 16 17  2  0  0  0
 16 21  1  0  0  0
 16 31  1  0  0  0
 17 18  1  0  0  0
 17102  1  0  0  0
 18 19  2  0  0  0
 18103  1  0  0  0
 19 20  1  0  0  0
 19 24  1  0  0  0
 20 21  2  0  0  0
 20104  1  0  0  0
 21 23  1  0  0  0
 22 28  1  0  0  0
 22 32  2  0  0  0
 26 27  1  0  0  0
 28105  1  0  0  0
 28106  1  0  0  0
 29107  1  0  0  0
 29108  1  0  0  0
 33 34  1  0  0  0
 33 66  1  0  0  0
 33 70  2  0  0  0
 34 36  1  0  0  0
 34 59  1  0  0  0
 34109  1  0  0  0
 35 44  2  0  0  0
 35 45  1  0  0  0
 35 68  1  0  0  0
 36 56  1  0  0  0
 36110  1  0  0  0
 37 39  1  0  0  0
 37 47  1  0  0  0
 37 66  1  0  0  0
 37111  1  0  0  0
 38 43  2  0  0  0
 38 46  1  0  0  0
 38 47  1  0  0  0
 39 64  1  0  0  0
 39 67  2  0  0  0
 40 52  1  0  0  0
 40 53  2  0  0  0
 40 58  1  0  0  0
 41112  1  0  0  0
 41113  1  0  0  0
 41114  1  0  0  0
 41 48  1  0  0  0
 42 43  1  0  0  0
 42 66  1  0  0  0
 42115  1  0  0  0
 42116  1  0  0  0
 43 44  1  0  0  0
 44117  1  0  0  0
 45 46  2  0  0  0
 45118  1  0  0  0
 46119  1  0  0  0
 47120  1  0  0  0
 47121  1  0  0  0
 48 56  1  0  0  0
 48 65  1  0  0  0
 48122  1  0  0  0
 49 50  1  0  0  0
 49 53  1  0  0  0
 49 64  1  0  0  0
 49123  1  0  0  0
 50 51  1  0  0  0
 50124  1  0  0  0
 50125  1  0  0  0
 51 52  1  0  0  0
 51126  1  0  0  0
 51127  1  0  0  0
 52128  1  0  0  0
 52129  1  0  0  0
 53 54  1  0  0  0
 54 55  2  0  0  0
 54130  1  0  0  0
 55 57  1  0  0  0
 55131  1  0  0  0
 56 69  2  0  0  0
 57 58  2  0  0  0
 57132  1  0  0  0
 58133  1  0  0  0
 59 60  1  0  0  0
 59 61  1  0  0  0
 59 62  1  0  0  0
 60134  1  0  0  0
 60135  1  0  0  0
 60136  1  0  0  0
 61137  1  0  0  0
 61138  1  0  0  0
 61139  1  0  0  0
 62140  1  0  0  0
 62141  1  0  0  0
 62142  1  0  0  0
 63 65  1  0  0  0
 63143  1  0  0  0
 63144  1  0  0  0
 63145  1  0  0  0
 64146  1  0  0  0
 65147  1  0  0  0
 68 84  1  0  0  0
 71 72  2  0  0  0
 71 74  1  0  0  0
 71148  1  0  0  0
 72 76  1  0  0  0
 72149  1  0  0  0
 73 75  1  0  0  0
 73 76  2  0  0  0
 73150  1  0  0  0
 74 75  2  0  0  0
 74 78  1  0  0  0
 75 86  1  0  0  0
 76 87  1  0  0  0
 77 79  1  0  0  0
 77 86  1  0  0  0
 77 88  2  0  0  0
 78 83  1  0  0  0
 78 85  2  0  0  0
 79 82  1  0  0  0
 79151  1  0  0  0
 79152  1  0  0  0
 80 81  1  0  0  0
 80 82  1  0  0  0
 80153  1  0  0  0
 80154  1  0  0  0
 81 86  1  0  0  0
 81155  1  0  0  0
 81156  1  0  0  0
 82 84  1  0  0  0
 82157  1  0  0  0
 83158  1  0  0  0
 83159  1  0  0  0
 83160  1  0  0  0
 84161  1  0  0  0
 84162  1  0  0  0
 85163  1  0  0  0
 87164  1  0  0  0
M  ISO  4   1 100  68 101  84 101  87 100
M  END
> <chiral flag>
0

> <version>
0

> <s_m_source_file>
/data/baiqing/PycharmProjects/Reinvent-master-3.2/result/LINK_invent/BTK/process_docking_weight1_custom_product_contain_oxygen_bond_distance_aromatic_linkinvent_7_9_3/rearranged_h_0071.sdf

> <i_m_source_file_index>
38

> <r_mmod_Potential_Energy-OPLS-2005>
168.05615234375

> <r_mmod_Stretch_Energy-OPLS-2005>
85.2075653076172

> <r_mmod_Bend_Energy-OPLS-2005>
143.471801757812

> <r_mmod_Torsional_Energy-OPLS-2005>
338.994659423828

> <r_mmod_Improper_Torsional_Energy-OPLS-2005>
5.3656120300293

> <r_mmod_Van_der_Waal_Energy-OPLS-2005>
154.415817260742

> <r_mmod_Electrostatic_Energy-OPLS-2005>
-376.078521728516

> <r_mmod_Solvation_Energy-OPLS-2005>
-224.982513427734

> <b_mmod_Minimization_Converged-OPLS-2005>
0

> <r_mmod_RMS_Derivative-OPLS-2005>
2.86445283889771

$$$$
38
                    3D
 Structure written by MMmdl.
154162  0  0  1  0            999 V2000
  -30.5204  -15.0435   20.3831 C   0  0  0  0  0  0
  -30.4302  -12.6443   19.5220 C   0  0  0  0  0  0
  -29.5242  -12.5474   18.2726 C   0  0  0  0  0  0
  -28.0654  -12.3025   18.6966 C   0  0  0  0  0  0
  -27.6210  -13.2592   19.8331 C   0  0  2  0  0  0
  -28.6576  -13.3472   20.9729 C   0  0  0  0  0  0
  -25.2415  -13.8222   20.5744 C   0  0  0  0  0  0
  -24.1747  -13.0425   20.9246 C   0  0  0  0  0  0
  -24.6376  -11.6923   20.8792 C   0  0  0  0  0  0
  -23.9072  -10.4288   21.0427 C   0  0  0  0  0  0
  -24.3629   -9.4200   21.9194 C   0  0  0  0  0  0
  -23.6299   -8.2237   22.0759 C   0  0  0  0  0  0
  -22.4274   -8.0286   21.3556 C   0  0  0  0  0  0
  -21.9917   -9.0258   20.4660 C   0  0  0  0  0  0
  -22.7248  -10.2129   20.3070 C   0  0  0  0  0  0
  -21.6843   -6.0746   22.5282 C   0  0  0  0  0  0
  -21.4024   -6.5654   23.8221 C   0  0  0  0  0  0
  -21.3665   -5.6806   24.9183 C   0  0  0  0  0  0
  -21.6036   -4.3061   24.7230 C   0  0  0  0  0  0
  -21.8803   -3.8155   23.4347 C   0  0  0  0  0  0
  -21.9185   -4.6975   22.3408 C   0  0  0  0  0  0
  -22.7764  -13.5194   21.1886 C   0  0  0  0  0  0
  -22.1649   -4.2171   21.0977 F   0  0  0  0  0  0
  -21.5629   -3.4539   25.7738 F   0  0  0  0  0  0
  -29.9252  -13.7717   20.3669 N   0  0  0  0  0  0
  -26.2845  -12.9479   20.3249 N   0  0  0  0  0  0
  -25.9313  -11.6601   20.5742 N   0  0  0  0  0  0
  -22.0417  -12.8213   22.0462 N   0  0  0  0  0  0
  -25.4056  -15.1958   20.4189 N   0  0  0  0  0  0
  -31.7383  -15.0466   20.1639 O   0  0  0  0  0  0
  -21.6636   -6.8888   21.4243 O   0  0  0  0  0  0
  -22.3457  -14.5511   20.6738 O   0  0  0  0  0  0
  -24.6504  -31.8378   23.1818 C   0  0  0  0  0  0
  -25.9247  -32.4656   23.8239 C   0  0  1  0  0  0
  -27.2123  -27.0602   20.1601 C   0  0  0  0  0  0
  -25.5967  -33.8468   24.2155 N   0  0  0  0  0  0
  -23.4580  -30.4553   21.5303 C   0  0  2  0  0  0
  -24.9069  -28.8708   20.1112 C   0  0  0  0  0  0
  -22.7608  -29.4512   22.4849 C   0  0  0  0  0  0
  -18.0312  -28.1395   22.8469 C   0  0  0  0  0  0
  -24.1496  -36.7243   23.2643 C   0  0  0  0  0  0
  -26.0197  -30.6864   21.3929 C   0  0  0  0  0  0
  -26.0884  -29.2906   20.7360 C   0  0  0  0  0  0
  -27.2414  -28.4044   20.7398 C   0  0  0  0  0  0
  -26.0053  -26.7686   19.4859 C   0  0  0  0  0  0
  -24.8849  -27.6272   19.4657 C   0  0  0  0  0  0
  -23.6873  -29.7814   20.1522 C   0  0  0  0  0  0
  -25.4131  -36.3012   24.0308 C   0  0  1  0  0  0
  -20.5925  -28.3729   23.1225 C   0  0  2  0  0  0
  -20.6797  -26.9431   22.5410 C   0  0  0  0  0  0
  -19.5777  -26.6381   21.5215 C   0  0  0  0  0  0
  -18.1953  -26.7929   22.1620 C   0  0  0  0  0  0
  -19.1570  -28.8884   23.2830 C   0  0  0  0  0  0
  -18.9477  -30.1474   23.8869 C   0  0  0  0  0  0
  -17.6470  -30.6589   24.0559 C   0  0  0  0  0  0
  -25.9084  -34.9390   23.5046 C   0  0  0  0  0  0
  -16.5363  -29.9083   23.6330 C   0  0  0  0  0  0
  -16.7292  -28.6498   23.0358 C   0  0  0  0  0  0
  -26.4524  -31.6546   25.0711 C   0  0  0  0  0  0
  -25.3683  -31.3769   26.1391 C   0  0  0  0  0  0
  -27.0383  -30.2925   24.6347 C   0  0  0  0  0  0
  -27.6062  -32.4312   25.7488 C   0  0  0  0  0  0
  -27.5580  -37.1777   24.8461 C   0  0  0  0  0  0
  -21.4288  -29.3042   22.3590 N   0  0  0  0  0  0
  -26.4289  -37.3734   23.9396 N   0  0  0  0  0  0
  -24.7305  -31.0161   22.0891 N   0  0  0  0  0  0
  -23.4206  -28.8081   23.3046 O   0  0  0  0  0  0
  -28.2383  -26.0214   20.2133 O   0  0  0  0  0  0
  -26.5691  -34.8897   22.4634 O   0  0  0  0  0  0
  -23.5599  -32.1303   23.6987 O   0  0  0  0  0  0
  -31.0674  -19.2340   18.4026 C   0  0  0  0  0  0
  -29.2732  -19.0404   20.4529 C   0  0  0  0  0  0
  -30.3906  -20.4175   18.7871 C   0  0  0  0  0  0
  -29.4602  -20.4366   19.8835 C   0  0  0  0  0  0
  -29.9611  -17.7527   20.0406 C   0  0  0  0  0  0
  -30.8621  -17.9650   18.9721 C   0  0  0  0  0  0
  -30.6534  -21.5376   17.8699 C   0  0  0  0  0  0
  -28.9861  -23.1951   20.1965 C   0  0  0  0  0  0
  -27.8808  -24.4700   20.2709 C   0  0  0  0  0  0
  -31.9003  -21.9501   17.6385 N   0  0  0  0  0  0
  -28.6990  -21.7713   20.2506 N   0  0  0  0  0  0
  -29.7602  -16.2680   20.5070 N   0  0  0  0  0  0
  -29.6572  -22.1071   17.1911 N   0  3  0  0  0  0
  -30.1677  -23.5369   20.1169 O   0  0  0  0  0  0
  -31.5019  -16.9291   18.3825 F   0  0  0  0  0  0
  -31.4690  -12.7876   19.2233 H   0  0  0  0  0  0
  -30.4141  -11.7078   20.0829 H   0  0  0  0  0  0
  -29.8655  -11.7524   17.6091 H   0  0  0  0  0  0
  -29.5905  -13.4746   17.7016 H   0  0  0  0  0  0
  -27.9975  -11.2714   19.0452 H   0  0  0  0  0  0
  -27.3932  -12.3814   17.8421 H   0  0  0  0  0  0
  -27.5649  -14.2456   19.3718 H   0  0  0  0  0  0
  -28.7618  -12.3929   21.4911 H   0  0  0  0  0  0
  -28.3405  -14.0708   21.7241 H   0  0  0  0  0  0
  -25.2763   -9.5691   22.4784 H   0  0  0  0  0  0
  -24.0017   -7.4627   22.7476 H   0  0  0  0  0  0
  -21.0849   -8.8769   19.8973 H   0  0  0  0  0  0
  -22.3694  -10.9675   19.6197 H   0  0  0  0  0  0
  -21.2030   -7.6162   23.9740 H   0  0  0  0  0  0
  -21.1506   -6.0532   25.9092 H   0  0  0  0  0  0
  -22.0579   -2.7616   23.2827 H   0  0  0  0  0  0
  -22.4036  -11.9874   22.4871 H   0  0  0  0  0  0
  -21.1047  -13.1264   22.2698 H   0  0  0  0  0  0
  -24.6260  -15.8373   20.5206 H   0  0  0  0  0  0
  -26.2400  -15.6390   20.0554 H   0  0  0  0  0  0
  -26.7314  -32.5238   23.0958 H   0  0  0  0  0  0
  -25.0054  -33.9565   25.0267 H   0  0  0  0  0  0
  -22.7630  -31.2828   21.3723 H   0  0  0  0  0  0
  -23.3761  -35.9575   23.3295 H   0  0  0  0  0  0
  -24.3575  -36.8891   22.2062 H   0  0  0  0  0  0
  -23.7260  -37.6434   23.6694 H   0  0  0  0  0  0
  -26.1857  -31.4360   20.6182 H   0  0  0  0  0  0
  -26.8838  -30.7371   22.0424 H   0  0  0  0  0  0
  -28.1398  -28.7236   21.2488 H   0  0  0  0  0  0
  -25.8907  -25.8300   18.9675 H   0  0  0  0  0  0
  -23.9883  -27.3079   18.9510 H   0  0  0  0  0  0
  -23.8284  -30.5534   19.3956 H   0  0  0  0  0  0
  -22.8001  -29.2267   19.8404 H   0  0  0  0  0  0
  -25.1323  -36.1832   25.0801 H   0  0  0  0  0  0
  -20.9997  -28.3333   24.1353 H   0  0  0  0  0  0
  -20.5696  -26.2348   23.3636 H   0  0  0  0  0  0
  -21.6663  -26.7445   22.1213 H   0  0  0  0  0  0
  -19.6944  -25.6285   21.1270 H   0  0  0  0  0  0
  -19.6709  -27.3174   20.6728 H   0  0  0  0  0  0
  -17.4224  -26.6663   21.4021 H   0  0  0  0  0  0
  -18.0355  -26.0082   22.9028 H   0  0  0  0  0  0
  -19.7953  -30.7298   24.2231 H   0  0  0  0  0  0
  -17.5023  -31.6260   24.5181 H   0  0  0  0  0  0
  -15.5364  -30.2975   23.7668 H   0  0  0  0  0  0
  -15.8688  -28.0802   22.7096 H   0  0  0  0  0  0
  -24.5863  -30.7114   25.7693 H   0  0  0  0  0  0
  -24.8865  -32.2963   26.4730 H   0  0  0  0  0  0
  -25.7934  -30.8983   27.0222 H   0  0  0  0  0  0
  -26.2995  -29.6636   24.1356 H   0  0  0  0  0  0
  -27.3952  -29.7240   25.4941 H   0  0  0  0  0  0
  -27.8931  -30.4112   23.9690 H   0  0  0  0  0  0
  -27.2668  -33.3649   26.1975 H   0  0  0  0  0  0
  -28.3906  -32.6804   25.0332 H   0  0  0  0  0  0
  -28.0684  -31.8493   26.5467 H   0  0  0  0  0  0
  -28.2588  -38.0080   24.7501 H   0  0  0  0  0  0
  -28.1079  -36.2609   24.6290 H   0  0  0  0  0  0
  -27.2292  -37.1430   25.8862 H   0  0  0  0  0  0
  -20.9533  -29.8708   21.6710 H   0  0  0  0  0  0
  -26.0153  -38.2799   24.1391 H   0  0  0  0  0  0
  -31.7386  -19.2653   17.5561 H   0  0  0  0  0  0
  -28.5479  -18.9457   21.2485 H   0  0  0  0  0  0
  -27.3127  -24.3250   21.1911 H   0  0  0  0  0  0
  -27.1843  -24.2507   19.4647 H   0  0  0  0  0  0
  -32.6558  -21.5666   18.1871 H   0  0  0  0  0  0
  -32.1225  -22.6900   16.9911 H   0  0  0  0  0  0
  -27.7496  -21.6071   20.5580 H   0  0  0  0  0  0
  -28.8345  -16.0980   20.8686 H   0  0  0  0  0  0
  -28.7182  -21.7645   17.3191 H   0  0  0  0  0  0
  -29.8086  -22.8301   16.5069 H   0  0  0  0  0  0
  1 25  1  0  0  0
  1 30  2  0  0  0
  1 82  1  0  0  0
  2  3  1  0  0  0
  2 25  1  0  0  0
  2 86  1  0  0  0
  2 87  1  0  0  0
  3  4  1  0  0  0
  3 88  1  0  0  0
  3 89  1  0  0  0
  4  5  1  0  0  0
  4 90  1  0  0  0
  4 91  1  0  0  0
  5  6  1  0  0  0
  5 26  1  0  0  0
  5 92  1  0  0  0
  6 25  1  0  0  0
  6 93  1  0  0  0
  6 94  1  0  0  0
  7  8  2  0  0  0
  7 26  1  0  0  0
  7 29  1  0  0  0
  8  9  1  0  0  0
  8 22  1  0  0  0
  9 10  1  0  0  0
  9 27  2  0  0  0
 10 11  2  0  0  0
 10 15  1  0  0  0
 11 12  1  0  0  0
 11 95  1  0  0  0
 12 13  2  0  0  0
 12 96  1  0  0  0
 13 14  1  0  0  0
 13 31  1  0  0  0
 14 15  2  0  0  0
 14 97  1  0  0  0
 15 98  1  0  0  0
 16 17  2  0  0  0
 16 21  1  0  0  0
 16 31  1  0  0  0
 17 18  1  0  0  0
 17 99  1  0  0  0
 18 19  2  0  0  0
 18100  1  0  0  0
 19 20  1  0  0  0
 19 24  1  0  0  0
 20 21  2  0  0  0
 20101  1  0  0  0
 21 23  1  0  0  0
 22 28  1  0  0  0
 22 32  2  0  0  0
 26 27  1  0  0  0
 28102  1  0  0  0
 28103  1  0  0  0
 29104  1  0  0  0
 29105  1  0  0  0
 33 34  1  0  0  0
 33 66  1  0  0  0
 33 70  2  0  0  0
 34 36  1  0  0  0
 34 59  1  0  0  0
 34106  1  0  0  0
 35 44  2  0  0  0
 35 45  1  0  0  0
 35 68  1  0  0  0
 36 56  1  0  0  0
 36107  1  0  0  0
 37 39  1  0  0  0
 37 47  1  0  0  0
 37 66  1  0  0  0
 37108  1  0  0  0
 38 43  2  0  0  0
 38 46  1  0  0  0
 38 47  1  0  0  0
 39 64  1  0  0  0
 39 67  2  0  0  0
 40 52  1  0  0  0
 40 53  2  0  0  0
 40 58  1  0  0  0
 41109  1  0  0  0
 41110  1  0  0  0
 41111  1  0  0  0
 41 48  1  0  0  0
 42 43  1  0  0  0
 42 66  1  0  0  0
 42112  1  0  0  0
 42113  1  0  0  0
 43 44  1  0  0  0
 44114  1  0  0  0
 45 46  2  0  0  0
 45115  1  0  0  0
 46116  1  0  0  0
 47117  1  0  0  0
 47118  1  0  0  0
 48 56  1  0  0  0
 48 65  1  0  0  0
 48119  1  0  0  0
 49 50  1  0  0  0
 49 53  1  0  0  0
 49 64  1  0  0  0
 49120  1  0  0  0
 50 51  1  0  0  0
 50121  1  0  0  0
 50122  1  0  0  0
 51 52  1  0  0  0
 51123  1  0  0  0
 51124  1  0  0  0
 52125  1  0  0  0
 52126  1  0  0  0
 53 54  1  0  0  0
 54 55  2  0  0  0
 54127  1  0  0  0
 55 57  1  0  0  0
 55128  1  0  0  0
 56 69  2  0  0  0
 57 58  2  0  0  0
 57129  1  0  0  0
 58130  1  0  0  0
 59 60  1  0  0  0
 59 61  1  0  0  0
 59 62  1  0  0  0
 60131  1  0  0  0
 60132  1  0  0  0
 60133  1  0  0  0
 61134  1  0  0  0
 61135  1  0  0  0
 61136  1  0  0  0
 62137  1  0  0  0
 62138  1  0  0  0
 62139  1  0  0  0
 63 65  1  0  0  0
 63140  1  0  0  0
 63141  1  0  0  0
 63142  1  0  0  0
 64143  1  0  0  0
 65144  1  0  0  0
 68 79  1  0  0  0
 71 73  2  0  0  0
 71 76  1  0  0  0
 71145  1  0  0  0
 72 74  2  0  0  0
 72 75  1  0  0  0
 72146  1  0  0  0
 73 74  1  0  0  0
 73 77  1  0  0  0
 74 81  1  0  0  0
 75 76  2  0  0  0
 75 82  1  0  0  0
 76 85  1  0  0  0
 77 80  1  0  0  0
 77 83  2  0  0  0
 78 79  1  0  0  0
 78 81  1  0  0  0
 78 84  2  0  0  0
 79147  1  0  0  0
 79148  1  0  0  0
 80149  1  0  0  0
 80150  1  0  0  0
 81151  1  0  0  0
 82152  1  0  0  0
 83153  1  0  0  0
 83154  1  0  0  0
M  CHG  1  83   1
M  ISO  4   1 100  68 101  79 101  82 100
M  END
> <chiral flag>
0

> <version>
0

> <s_m_source_file>
/data/baiqing/PycharmProjects/Reinvent-master-3.2/result/LINK_invent/BTK/process_docking_weight1_custom_product_contain_oxygen_bond_distance_aromatic_linkinvent_7_9_3/rearranged_h_0071.sdf

> <i_m_source_file_index>
39

> <r_mmod_Potential_Energy-OPLS-2005>
415.538024902344

> <r_mmod_Stretch_Energy-OPLS-2005>
359.720153808594

> <r_mmod_Bend_Energy-OPLS-2005>
284.614135742188

> <r_mmod_Torsional_Energy-OPLS-2005>
257.689788818359

> <r_mmod_Improper_Torsional_Energy-OPLS-2005>
5.15602827072144

> <r_mmod_Van_der_Waal_Energy-OPLS-2005>
146.124252319336

> <r_mmod_Electrostatic_Energy-OPLS-2005>
-412.362030029297

> <r_mmod_Solvation_Energy-OPLS-2005>
-491.204284667969

> <b_mmod_Minimization_Converged-OPLS-2005>
0

> <r_mmod_RMS_Derivative-OPLS-2005>
2.55837655067444

$$$$
39
                    3D
 Structure written by MMmdl.
161170  0  0  1  0            999 V2000
  -30.6451  -14.7088   20.4578 C   0  0  0  0  0  0
  -30.4184  -12.4324   19.4754 C   0  0  0  0  0  0
  -29.5026  -12.4951   18.2352 C   0  0  0  0  0  0
  -28.0315  -12.3222   18.6526 C   0  0  0  0  0  0
  -27.6396  -13.2313   19.8484 C   0  0  2  0  0  0
  -28.6805  -13.1736   20.9868 C   0  0  0  0  0  0
  -25.2503  -13.8201   20.5698 C   0  0  0  0  0  0
  -24.1799  -13.0450   20.9211 C   0  0  0  0  0  0
  -24.6393  -11.6924   20.8758 C   0  0  0  0  0  0
  -23.9072  -10.4298   21.0414 C   0  0  0  0  0  0
  -24.3622   -9.4214   21.9195 C   0  0  0  0  0  0
  -23.6293   -8.2244   22.0760 C   0  0  0  0  0  0
  -22.4273   -8.0283   21.3545 C   0  0  0  0  0  0
  -21.9914   -9.0266   20.4651 C   0  0  0  0  0  0
  -22.7242  -10.2145   20.3064 C   0  0  0  0  0  0
  -21.6855   -6.0738   22.5278 C   0  0  0  0  0  0
  -21.4015   -6.5647   23.8214 C   0  0  0  0  0  0
  -21.3657   -5.6795   24.9175 C   0  0  0  0  0  0
  -21.6041   -4.3057   24.7230 C   0  0  0  0  0  0
  -21.8818   -3.8148   23.4351 C   0  0  0  0  0  0
  -21.9197   -4.6963   22.3402 C   0  0  0  0  0  0
  -22.7823  -13.5233   21.1872 C   0  0  0  0  0  0
  -22.1662   -4.2149   21.0984 F   0  0  0  0  0  0
  -21.5630   -3.4542   25.7742 F   0  0  0  0  0  0
  -29.9852  -13.5030   20.4040 N   0  0  0  0  0  0
  -26.2924  -12.9412   20.3273 N   0  0  0  0  0  0
  -25.9318  -11.6562   20.5757 N   0  0  0  0  0  0
  -22.0471  -12.8216   22.0416 N   0  0  0  0  0  0
  -25.4215  -15.1920   20.4119 N   0  0  0  0  0  0
  -31.8479  -14.7281   20.1903 O   0  0  0  0  0  0
  -21.6637   -6.8879   21.4236 O   0  0  0  0  0  0
  -22.3519  -14.5546   20.6714 O   0  0  0  0  0  0
  -24.6321  -31.8572   23.2004 C   0  0  0  0  0  0
  -25.9151  -32.4775   23.8334 C   0  0  1  0  0  0
  -27.2107  -27.2598   20.1345 C   0  0  0  0  0  0
  -25.5933  -33.8572   24.2264 N   0  0  0  0  0  0
  -23.4291  -30.4776   21.5465 C   0  0  2  0  0  0
  -24.8720  -28.9310   20.1063 C   0  0  0  0  0  0
  -22.7527  -29.4587   22.4959 C   0  0  0  0  0  0
  -18.0297  -28.1376   22.8468 C   0  0  0  0  0  0
  -24.1497  -36.7297   23.2635 C   0  0  0  0  0  0
  -25.9730  -30.7694   21.3800 C   0  0  0  0  0  0
  -26.0434  -29.3915   20.7230 C   0  0  0  0  0  0
  -27.2145  -28.5680   20.7277 C   0  0  0  0  0  0
  -26.0237  -26.8826   19.4638 C   0  0  0  0  0  0
  -24.8686  -27.6849   19.4646 C   0  0  0  0  0  0
  -23.6438  -29.8165   20.1595 C   0  0  0  0  0  0
  -25.4110  -36.3088   24.0328 C   0  0  1  0  0  0
  -20.5896  -28.3688   23.1276 C   0  0  2  0  0  0
  -20.6782  -26.9407   22.5418 C   0  0  0  0  0  0
  -19.5758  -26.6373   21.5218 C   0  0  0  0  0  0
  -18.1923  -26.7921   22.1602 C   0  0  0  0  0  0
  -19.1543  -28.8852   23.2865 C   0  0  0  0  0  0
  -18.9465  -30.1443   23.8896 C   0  0  0  0  0  0
  -17.6466  -30.6581   24.0552 C   0  0  0  0  0  0
  -25.9048  -34.9459   23.5099 C   0  0  0  0  0  0
  -16.5357  -29.9075   23.6325 C   0  0  0  0  0  0
  -16.7277  -28.6489   23.0344 C   0  0  0  0  0  0
  -26.4495  -31.6598   25.0724 C   0  0  0  0  0  0
  -25.3714  -31.3733   26.1446 C   0  0  0  0  0  0
  -27.0341  -30.3021   24.6198 C   0  0  0  0  0  0
  -27.6065  -32.4340   25.7474 C   0  0  0  0  0  0
  -27.5590  -37.1786   24.8450 C   0  0  0  0  0  0
  -21.4231  -29.3034   22.3688 N   0  0  0  0  0  0
  -26.4294  -37.3780   23.9414 N   0  0  0  0  0  0
  -24.6982  -31.0529   22.0989 N   0  0  0  0  0  0
  -23.4225  -28.8130   23.3053 O   0  0  0  0  0  0
  -28.2908  -26.3516   20.2345 O   0  0  0  0  0  0
  -26.5639  -34.8942   22.4678 O   0  0  0  0  0  0
  -23.5473  -32.1394   23.7303 O   0  0  0  0  0  0
  -31.8677  -18.8211   19.1782 C   0  0  0  0  0  0
  -31.4106  -17.5301   19.4709 C   0  0  0  0  0  0
  -29.5545  -18.5040   20.6805 C   0  0  0  0  0  0
  -31.2164  -19.9795   19.6426 C   0  0  0  0  0  0
  -30.2824  -17.2977   20.2882 C   0  0  0  0  0  0
  -29.9727  -19.8657   20.3364 C   0  0  0  0  0  0
  -28.9686  -22.2467   20.0368 C   0  0  0  0  0  0
  -33.3587  -22.4980   18.3265 C   0  0  0  0  0  0
  -33.4670  -21.4586   19.4484 C   0  0  0  0  0  0
  -32.0166  -21.8593   17.9553 C   0  0  0  0  0  0
  -31.9323  -21.3116   19.3873 C   0  0  0  0  0  0
  -28.9058  -23.7107   20.6852 C   0  0  0  0  0  0
  -28.0564  -24.8862   19.9709 C   0  0  0  0  0  0
  -29.2807  -21.1097   20.7724 N   0  0  0  0  0  0
  -29.9186  -15.8867   20.6282 N   0  0  0  0  0  0
  -28.7492  -22.1499   18.8278 O   0  0  0  0  0  0
  -31.4622  -12.5302   19.1738 H   0  0  0  0  0  0
  -30.3418  -11.4586   19.9607 H   0  0  0  0  0  0
  -29.7805  -11.7195   17.5198 H   0  0  0  0  0  0
  -29.6320  -13.4492   17.7218 H   0  0  0  0  0  0
  -27.8952  -11.2763   18.9284 H   0  0  0  0  0  0
  -27.3685  -12.4985   17.8045 H   0  0  0  0  0  0
  -27.6328  -14.2503   19.4617 H   0  0  0  0  0  0
  -28.7060  -12.1826   21.4423 H   0  0  0  0  0  0
  -28.4206  -13.8705   21.7853 H   0  0  0  0  0  0
  -25.2771   -9.5687   22.4773 H   0  0  0  0  0  0
  -23.9999   -7.4642   22.7488 H   0  0  0  0  0  0
  -21.0840   -8.8797   19.8963 H   0  0  0  0  0  0
  -22.3707  -10.9693   19.6177 H   0  0  0  0  0  0
  -21.2001   -7.6154   23.9712 H   0  0  0  0  0  0
  -21.1479   -6.0532   25.9080 H   0  0  0  0  0  0
  -22.0596   -2.7609   23.2854 H   0  0  0  0  0  0
  -22.4078  -11.9870   22.4798 H   0  0  0  0  0  0
  -21.1095  -13.1252   22.2629 H   0  0  0  0  0  0
  -24.6539  -15.8455   20.5209 H   0  0  0  0  0  0
  -26.2658  -15.6306   20.0671 H   0  0  0  0  0  0
  -26.7212  -32.5433   23.1077 H   0  0  0  0  0  0
  -25.0058  -33.9678   25.0396 H   0  0  0  0  0  0
  -22.7250  -31.2995   21.4043 H   0  0  0  0  0  0
  -23.3770  -35.9619   23.3266 H   0  0  0  0  0  0
  -24.3598  -36.8948   22.2055 H   0  0  0  0  0  0
  -23.7223  -37.6474   23.6683 H   0  0  0  0  0  0
  -26.1065  -31.5273   20.6075 H   0  0  0  0  0  0
  -26.8529  -30.8221   22.0087 H   0  0  0  0  0  0
  -28.1066  -28.9094   21.2345 H   0  0  0  0  0  0
  -25.9481  -25.9406   18.9415 H   0  0  0  0  0  0
  -23.9779  -27.3305   18.9637 H   0  0  0  0  0  0
  -23.7682  -30.5959   19.4072 H   0  0  0  0  0  0
  -22.7615  -29.2498   19.8559 H   0  0  0  0  0  0
  -25.1292  -36.1943   25.0816 H   0  0  0  0  0  0
  -20.9956  -28.3273   24.1411 H   0  0  0  0  0  0
  -20.5690  -26.2301   23.3631 H   0  0  0  0  0  0
  -21.6649  -26.7445   22.1210 H   0  0  0  0  0  0
  -19.6921  -25.6293   21.1237 H   0  0  0  0  0  0
  -19.6694  -27.3202   20.6765 H   0  0  0  0  0  0
  -17.4215  -26.6702   21.3981 H   0  0  0  0  0  0
  -18.0277  -26.0068   22.8986 H   0  0  0  0  0  0
  -19.7952  -30.7229   24.2294 H   0  0  0  0  0  0
  -17.5032  -31.6265   24.5151 H   0  0  0  0  0  0
  -15.5353  -30.2965   23.7661 H   0  0  0  0  0  0
  -15.8679  -28.0801   22.7063 H   0  0  0  0  0  0
  -24.5942  -30.7014   25.7775 H   0  0  0  0  0  0
  -24.8839  -32.2888   26.4823 H   0  0  0  0  0  0
  -25.8039  -30.8969   27.0260 H   0  0  0  0  0  0
  -26.2914  -29.6750   24.1259 H   0  0  0  0  0  0
  -27.4053  -29.7295   25.4706 H   0  0  0  0  0  0
  -27.8784  -30.4278   23.9413 H   0  0  0  0  0  0
  -27.2690  -33.3654   26.2033 H   0  0  0  0  0  0
  -28.3860  -32.6887   25.0276 H   0  0  0  0  0  0
  -28.0765  -31.8493   26.5386 H   0  0  0  0  0  0
  -28.2586  -38.0114   24.7562 H   0  0  0  0  0  0
  -28.1118  -36.2652   24.6207 H   0  0  0  0  0  0
  -27.2332  -37.1343   25.8860 H   0  0  0  0  0  0
  -20.9456  -29.8779   21.6892 H   0  0  0  0  0  0
  -26.0187  -38.2853   24.1464 H   0  0  0  0  0  0
  -32.7679  -18.9042   18.5891 H   0  0  0  0  0  0
  -31.9908  -16.7275   19.0457 H   0  0  0  0  0  0
  -28.6544  -18.3846   21.2661 H   0  0  0  0  0  0
  -34.1299  -22.4253   17.5584 H   0  0  0  0  0  0
  -33.2535  -23.5191   18.6965 H   0  0  0  0  0  0
  -33.8501  -21.8399   20.3963 H   0  0  0  0  0  0
  -34.0267  -20.5815   19.1255 H   0  0  0  0  0  0
  -32.1256  -21.0667   17.2126 H   0  0  0  0  0  0
  -31.2196  -22.5533   17.6847 H   0  0  0  0  0  0
  -31.5614  -22.0762   20.0669 H   0  0  0  0  0  0
  -29.9415  -24.0476   20.7332 H   0  0  0  0  0  0
  -28.5851  -23.6186   21.7222 H   0  0  0  0  0  0
  -27.0299  -24.6436   20.2432 H   0  0  0  0  0  0
  -28.1152  -24.7563   18.8895 H   0  0  0  0  0  0
  -29.1730  -21.2083   21.7735 H   0  0  0  0  0  0
  -28.9744  -15.7483   20.9553 H   0  0  0  0  0  0
  1 25  1  0  0  0
  1 30  2  0  0  0
  1 85  1  0  0  0
  2  3  1  0  0  0
  2 25  1  0  0  0
  2 87  1  0  0  0
  2 88  1  0  0  0
  3  4  1  0  0  0
  3 89  1  0  0  0
  3 90  1  0  0  0
  4  5  1  0  0  0
  4 91  1  0  0  0
  4 92  1  0  0  0
  5  6  1  0  0  0
  5 26  1  0  0  0
  5 93  1  0  0  0
  6 25  1  0  0  0
  6 94  1  0  0  0
  6 95  1  0  0  0
  7  8  2  0  0  0
  7 26  1  0  0  0
  7 29  1  0  0  0
  8  9  1  0  0  0
  8 22  1  0  0  0
  9 10  1  0  0  0
  9 27  2  0  0  0
 10 11  2  0  0  0
 10 15  1  0  0  0
 11 12  1  0  0  0
 11 96  1  0  0  0
 12 13  2  0  0  0
 12 97  1  0  0  0
 13 14  1  0  0  0
 13 31  1  0  0  0
 14 15  2  0  0  0
 14 98  1  0  0  0
 15 99  1  0  0  0
 16 17  2  0  0  0
 16 21  1  0  0  0
 16 31  1  0  0  0
 17 18  1  0  0  0
 17100  1  0  0  0
 18 19  2  0  0  0
 18101  1  0  0  0
 19 20  1  0  0  0
 19 24  1  0  0  0
 20 21  2  0  0  0
 20102  1  0  0  0
 21 23  1  0  0  0
 22 28  1  0  0  0
 22 32  2  0  0  0
 26 27  1  0  0  0
 28103  1  0  0  0
 28104  1  0  0  0
 29105  1  0  0  0
 29106  1  0  0  0
 33 34  1  0  0  0
 33 66  1  0  0  0
 33 70  2  0  0  0
 34 36  1  0  0  0
 34 59  1  0  0  0
 34107  1  0  0  0
 35 44  2  0  0  0
 35 45  1  0  0  0
 35 68  1  0  0  0
 36 56  1  0  0  0
 36108  1  0  0  0
 37 39  1  0  0  0
 37 47  1  0  0  0
 37 66  1  0  0  0
 37109  1  0  0  0
 38 43  2  0  0  0
 38 46  1  0  0  0
 38 47  1  0  0  0
 39 64  1  0  0  0
 39 67  2  0  0  0
 40 52  1  0  0  0
 40 53  2  0  0  0
 40 58  1  0  0  0
 41110  1  0  0  0
 41111  1  0  0  0
 41112  1  0  0  0
 41 48  1  0  0  0
 42 43  1  0  0  0
 42 66  1  0  0  0
 42113  1  0  0  0
 42114  1  0  0  0
 43 44  1  0  0  0
 44115  1  0  0  0
 45 46  2  0  0  0
 45116  1  0  0  0
 46117  1  0  0  0
 47118  1  0  0  0
 47119  1  0  0  0
 48 56  1  0  0  0
 48 65  1  0  0  0
 48120  1  0  0  0
 49 50  1  0  0  0
 49 53  1  0  0  0
 49 64  1  0  0  0
 49121  1  0  0  0
 50 51  1  0  0  0
 50122  1  0  0  0
 50123  1  0  0  0
 51 52  1  0  0  0
 51124  1  0  0  0
 51125  1  0  0  0
 52126  1  0  0  0
 52127  1  0  0  0
 53 54  1  0  0  0
 54 55  2  0  0  0
 54128  1  0  0  0
 55 57  1  0  0  0
 55129  1  0  0  0
 56 69  2  0  0  0
 57 58  2  0  0  0
 57130  1  0  0  0
 58131  1  0  0  0
 59 60  1  0  0  0
 59 61  1  0  0  0
 59 62  1  0  0  0
 60132  1  0  0  0
 60133  1  0  0  0
 60134  1  0  0  0
 61135  1  0  0  0
 61136  1  0  0  0
 61137  1  0  0  0
 62138  1  0  0  0
 62139  1  0  0  0
 62140  1  0  0  0
 63 65  1  0  0  0
 63141  1  0  0  0
 63142  1  0  0  0
 63143  1  0  0  0
 64144  1  0  0  0
 65145  1  0  0  0
 68 83  1  0  0  0
 71 72  2  0  0  0
 71 74  1  0  0  0
 71146  1  0  0  0
 72 75  1  0  0  0
 72147  1  0  0  0
 73 75  2  0  0  0
 73 76  1  0  0  0
 73148  1  0  0  0
 74 76  2  0  0  0
 74 81  1  0  0  0
 75 85  1  0  0  0
 76 84  1  0  0  0
 77 82  1  0  0  0
 77 84  1  0  0  0
 77 86  2  0  0  0
 78 79  1  0  0  0
 78 80  1  0  0  0
 78149  1  0  0  0
 78150  1  0  0  0
 79 81  1  0  0  0
 79151  1  0  0  0
 79152  1  0  0  0
 80 81  1  0  0  0
 80153  1  0  0  0
 80154  1  0  0  0
 81155  1  0  0  0
 82 83  1  0  0  0
 82156  1  0  0  0
 82157  1  0  0  0
 83158  1  0  0  0
 83159  1  0  0  0
 84160  1  0  0  0
 85161  1  0  0  0
M  ISO  4   1 100  68 101  83 101  85 100
M  END
> <chiral flag>
0

> <version>
0

> <s_m_source_file>
/data/baiqing/PycharmProjects/Reinvent-master-3.2/result/LINK_invent/BTK/process_docking_weight1_custom_product_contain_oxygen_bond_distance_aromatic_linkinvent_7_9_3/rearranged_h_0071.sdf

> <i_m_source_file_index>
40

> <r_mmod_Potential_Energy-OPLS-2005>
217.787139892578

> <r_mmod_Stretch_Energy-OPLS-2005>
128.024841308594

> <r_mmod_Bend_Energy-OPLS-2005>
176.449829101562

> <r_mmod_Torsional_Energy-OPLS-2005>
285.091888427734

> <r_mmod_Improper_Torsional_Energy-OPLS-2005>
4.97900724411011

> <r_mmod_Van_der_Waal_Energy-OPLS-2005>
159.875366210938

> <r_mmod_Electrostatic_Energy-OPLS-2005>
-388.273376464844

> <r_mmod_Solvation_Energy-OPLS-2005>
-231.597686767578

> <b_mmod_Minimization_Converged-OPLS-2005>
0

> <r_mmod_RMS_Derivative-OPLS-2005>
2.14101624488831

$$$$
40
                    3D
 Structure written by MMmdl.
147154  0  0  1  0            999 V2000
  -30.2557  -15.7452   20.3049 C   0  0  0  0  0  0
  -30.4162  -13.1546   19.5638 C   0  0  0  0  0  0
  -29.5594  -12.6904   18.3470 C   0  0  0  0  0  0
  -28.1380  -12.3121   18.7851 C   0  0  0  0  0  0
  -27.5933  -13.3237   19.8172 C   0  0  2  0  0  0
  -28.5972  -13.6960   20.9381 C   0  0  0  0  0  0
  -25.2297  -13.8316   20.5814 C   0  0  0  0  0  0
  -24.1702  -13.0445   20.9303 C   0  0  0  0  0  0
  -24.6423  -11.6963   20.8762 C   0  0  0  0  0  0
  -23.9129  -10.4299   21.0393 C   0  0  0  0  0  0
  -24.3661   -9.4211   21.9177 C   0  0  0  0  0  0
  -23.6317   -8.2252   22.0746 C   0  0  0  0  0  0
  -22.4296   -8.0291   21.3540 C   0  0  0  0  0  0
  -21.9947   -9.0270   20.4640 C   0  0  0  0  0  0
  -22.7292  -10.2141   20.3045 C   0  0  0  0  0  0
  -21.6861   -6.0747   22.5281 C   0  0  0  0  0  0
  -21.4022   -6.5649   23.8217 C   0  0  0  0  0  0
  -21.3658   -5.6795   24.9178 C   0  0  0  0  0  0
  -21.6041   -4.3057   24.7222 C   0  0  0  0  0  0
  -21.8817   -3.8154   23.4344 C   0  0  0  0  0  0
  -21.9195   -4.6973   22.3403 C   0  0  0  0  0  0
  -22.7711  -13.5158   21.1936 C   0  0  0  0  0  0
  -22.1663   -4.2164   21.0979 F   0  0  0  0  0  0
  -21.5620   -3.4536   25.7733 F   0  0  0  0  0  0
  -29.7647  -14.3497   20.2921 N   0  0  0  0  0  0
  -26.2762  -12.9677   20.3249 N   0  0  0  0  0  0
  -25.9375  -11.6731   20.5697 N   0  0  0  0  0  0
  -22.0372  -12.8129   22.0483 N   0  0  0  0  0  0
  -25.3872  -15.2060   20.4258 N   0  0  0  0  0  0
  -31.4789  -15.6792   20.0650 O   0  0  0  0  0  0
  -21.6646   -6.8895   21.4246 O   0  0  0  0  0  0
  -22.3385  -14.5452   20.6769 O   0  0  0  0  0  0
  -24.6917  -31.7896   23.1439 C   0  0  0  0  0  0
  -25.9457  -32.4415   23.8018 C   0  0  1  0  0  0
  -27.2299  -26.6125   20.2118 C   0  0  0  0  0  0
  -25.6002  -33.8247   24.1903 N   0  0  0  0  0  0
  -23.5229  -30.3875   21.4989 C   0  0  2  0  0  0
  -24.9829  -28.7145   20.1110 C   0  0  0  0  0  0
  -22.7813  -29.4258   22.4677 C   0  0  0  0  0  0
  -18.0349  -28.1431   22.8451 C   0  0  0  0  0  0
  -24.1494  -36.7131   23.2659 C   0  0  0  0  0  0
  -26.1068  -30.4894   21.4261 C   0  0  0  0  0  0
  -26.1698  -29.0461   20.7741 C   0  0  0  0  0  0
  -27.2681  -28.0226   20.7972 C   0  0  0  0  0  0
  -26.0170  -26.5230   19.4744 C   0  0  0  0  0  0
  -24.9516  -27.4800   19.4371 C   0  0  0  0  0  0
  -23.7821  -29.6792   20.1355 C   0  0  0  0  0  0
  -25.4151  -36.2869   24.0278 C   0  0  1  0  0  0
  -20.5986  -28.3796   23.1126 C   0  0  2  0  0  0
  -20.6810  -26.9448   22.5407 C   0  0  0  0  0  0
  -19.5783  -26.6371   21.5222 C   0  0  0  0  0  0
  -18.1966  -26.7958   22.1620 C   0  0  0  0  0  0
  -19.1614  -28.8942   23.2766 C   0  0  0  0  0  0
  -18.9519  -30.1519   23.8817 C   0  0  0  0  0  0
  -17.6507  -30.6608   24.0551 C   0  0  0  0  0  0
  -25.9132  -34.9260   23.4936 C   0  0  0  0  0  0
  -16.5398  -29.9088   23.6352 C   0  0  0  0  0  0
  -16.7329  -28.6512   23.0371 C   0  0  0  0  0  0
  -26.4602  -31.6486   25.0679 C   0  0  0  0  0  0
  -25.3639  -31.3833   26.1272 C   0  0  0  0  0  0
  -27.0556  -30.2812   24.6663 C   0  0  0  0  0  0
  -27.6036  -32.4371   25.7499 C   0  0  0  0  0  0
  -27.5554  -37.1738   24.8479 C   0  0  0  0  0  0
  -21.4454  -29.3018   22.3431 N   0  0  0  0  0  0
  -26.4278  -37.3633   23.9392 N   0  0  0  0  0  0
  -24.7979  -30.9246   22.0745 N   0  0  0  0  0  0
  -23.4213  -28.7871   23.3065 O   0  0  0  0  0  0
  -28.1607  -25.3416   20.3544 O   0  0  0  0  0  0
  -26.5781  -34.8855   22.4559 O   0  0  0  0  0  0
  -23.5914  -32.1023   23.6325 O   0  0  0  0  0  0
  -29.1644  -20.6305   20.7474 C   0  0  0  0  0  0
  -28.7662  -22.1873   20.7409 C   0  0  0  0  0  0
  -29.7080  -20.2458   22.0748 C   0  0  0  0  0  0
  -31.1458  -19.7484   22.1565 C   0  0  0  0  0  0
  -29.3678  -18.9087   19.9758 C   0  0  0  0  0  0
  -28.0817  -23.7698   19.9712 C   0  0  2  0  0  0
  -29.4855  -17.1300   20.4128 N   0  0  0  0  0  0
  -29.0578  -20.3356   23.1201 O   0  0  0  0  0  0
  -29.0018  -22.8131   21.9132 O   0  0  0  0  0  0
  -26.7628  -23.4970   19.8142 F   0  0  0  0  0  0
  -31.4092  -13.4192   19.1990 H   0  0  0  0  0  0
  -30.5887  -12.3243   20.2505 H   0  0  0  0  0  0
  -30.0360  -11.8501   17.8412 H   0  0  0  0  0  0
  -29.5095  -13.5000   17.6177 H   0  0  0  0  0  0
  -28.1779  -11.3191   19.2344 H   0  0  0  0  0  0
  -27.4743  -12.2372   17.9227 H   0  0  0  0  0  0
  -27.4442  -14.2340   19.2340 H   0  0  0  0  0  0
  -28.8726  -12.8278   21.5391 H   0  0  0  0  0  0
  -28.1405  -14.4093   21.6255 H   0  0  0  0  0  0
  -25.2799   -9.5686   22.4764 H   0  0  0  0  0  0
  -24.0022   -7.4641   22.7464 H   0  0  0  0  0  0
  -21.0877   -8.8803   19.8943 H   0  0  0  0  0  0
  -22.3753  -10.9686   19.6155 H   0  0  0  0  0  0
  -21.2024   -7.6158   23.9732 H   0  0  0  0  0  0
  -21.1475   -6.0520   25.9083 H   0  0  0  0  0  0
  -22.0596   -2.7618   23.2839 H   0  0  0  0  0  0
  -22.4020  -11.9816   22.4892 H   0  0  0  0  0  0
  -21.0973  -13.1121   22.2667 H   0  0  0  0  0  0
  -24.6110  -15.8499   20.5321 H   0  0  0  0  0  0
  -26.2221  -15.6480   20.0642 H   0  0  0  0  0  0
  -26.7550  -32.4861   23.0734 H   0  0  0  0  0  0
  -25.0060  -33.9266   24.9997 H   0  0  0  0  0  0
  -22.8530  -31.2272   21.3030 H   0  0  0  0  0  0
  -23.3767  -35.9451   23.3305 H   0  0  0  0  0  0
  -24.3546  -36.8810   22.2075 H   0  0  0  0  0  0
  -23.7250  -37.6305   23.6749 H   0  0  0  0  0  0
  -26.3243  -31.2095   20.6358 H   0  0  0  0  0  0
  -26.9531  -30.5561   22.0974 H   0  0  0  0  0  0
  -28.1504  -28.2788   21.3664 H   0  0  0  0  0  0
  -25.8318  -25.5971   18.9504 H   0  0  0  0  0  0
  -24.0614  -27.2187   18.8812 H   0  0  0  0  0  0
  -23.9616  -30.4377   19.3729 H   0  0  0  0  0  0
  -22.8859  -29.1488   19.8090 H   0  0  0  0  0  0
  -25.1370  -36.1634   25.0770 H   0  0  0  0  0  0
  -21.0064  -28.3430   24.1255 H   0  0  0  0  0  0
  -20.5668  -26.2426   23.3679 H   0  0  0  0  0  0
  -21.6672  -26.7377   22.1228 H   0  0  0  0  0  0
  -19.6936  -25.6259   21.1305 H   0  0  0  0  0  0
  -19.6726  -27.3138   20.6717 H   0  0  0  0  0  0
  -17.4239  -26.6708   21.4020 H   0  0  0  0  0  0
  -18.0344  -26.0122   22.9034 H   0  0  0  0  0  0
  -19.7994  -30.7359   24.2148 H   0  0  0  0  0  0
  -17.5058  -31.6278   24.5174 H   0  0  0  0  0  0
  -15.5393  -30.2966   23.7720 H   0  0  0  0  0  0
  -15.8731  -28.0802   22.7132 H   0  0  0  0  0  0
  -24.5860  -30.7147   25.7565 H   0  0  0  0  0  0
  -24.8784  -32.3061   26.4458 H   0  0  0  0  0  0
  -25.7784  -30.9151   27.0209 H   0  0  0  0  0  0
  -26.3298  -29.6385   24.1671 H   0  0  0  0  0  0
  -27.3956  -29.7310   25.5446 H   0  0  0  0  0  0
  -27.9288  -30.3913   24.0231 H   0  0  0  0  0  0
  -27.2570  -33.3760   26.1832 H   0  0  0  0  0  0
  -28.3964  -32.6791   25.0407 H   0  0  0  0  0  0
  -28.0577  -31.8666   26.5612 H   0  0  0  0  0  0
  -28.2586  -38.0017   24.7462 H   0  0  0  0  0  0
  -28.1036  -36.2535   24.6399 H   0  0  0  0  0  0
  -27.2255  -37.1490   25.8882 H   0  0  0  0  0  0
  -20.9781  -29.8662   21.6475 H   0  0  0  0  0  0
  -26.0104  -38.2692   24.1355 H   0  0  0  0  0  0
  -31.7205  -20.0965   21.2982 H   0  0  0  0  0  0
  -31.1648  -18.6591   22.1719 H   0  0  0  0  0  0
  -31.6246  -20.1166   23.0630 H   0  0  0  0  0  0
  -28.5648  -18.9062   19.2384 H   0  0  0  0  0  0
  -30.2615  -19.0446   19.3655 H   0  0  0  0  0  0
  -28.5136  -23.7027   18.9738 H   0  0  0  0  0  0
  -28.5634  -16.8639   20.7304 H   0  0  0  0  0  0
  -29.1790  -22.1508   22.5728 H   0  0  0  0  0  0
  1 25  1  0  0  0
  1 30  2  0  0  0
  1 77  1  0  0  0
  2  3  1  0  0  0
  2 25  1  0  0  0
  2 81  1  0  0  0
  2 82  1  0  0  0
  3  4  1  0  0  0
  3 83  1  0  0  0
  3 84  1  0  0  0
  4  5  1  0  0  0
  4 85  1  0  0  0
  4 86  1  0  0  0
  5  6  1  0  0  0
  5 26  1  0  0  0
  5 87  1  0  0  0
  6 25  1  0  0  0
  6 88  1  0  0  0
  6 89  1  0  0  0
  7  8  2  0  0  0
  7 26  1  0  0  0
  7 29  1  0  0  0
  8  9  1  0  0  0
  8 22  1  0  0  0
  9 10  1  0  0  0
  9 27  2  0  0  0
 10 11  2  0  0  0
 10 15  1  0  0  0
 11 12  1  0  0  0
 11 90  1  0  0  0
 12 13  2  0  0  0
 12 91  1  0  0  0
 13 14  1  0  0  0
 13 31  1  0  0  0
 14 15  2  0  0  0
 14 92  1  0  0  0
 15 93  1  0  0  0
 16 17  2  0  0  0
 16 21  1  0  0  0
 16 31  1  0  0  0
 17 18  1  0  0  0
 17 94  1  0  0  0
 18 19  2  0  0  0
 18 95  1  0  0  0
 19 20  1  0  0  0
 19 24  1  0  0  0
 20 21  2  0  0  0
 20 96  1  0  0  0
 21 23  1  0  0  0
 22 28  1  0  0  0
 22 32  2  0  0  0
 26 27  1  0  0  0
 28 97  1  0  0  0
 28 98  1  0  0  0
 29 99  1  0  0  0
 29100  1  0  0  0
 33 34  1  0  0  0
 33 66  1  0  0  0
 33 70  2  0  0  0
 34 36  1  0  0  0
 34 59  1  0  0  0
 34101  1  0  0  0
 35 44  2  0  0  0
 35 45  1  0  0  0
 35 68  1  0  0  0
 36 56  1  0  0  0
 36102  1  0  0  0
 37 39  1  0  0  0
 37 47  1  0  0  0
 37 66  1  0  0  0
 37103  1  0  0  0
 38 43  2  0  0  0
 38 46  1  0  0  0
 38 47  1  0  0  0
 39 64  1  0  0  0
 39 67  2  0  0  0
 40 52  1  0  0  0
 40 53  2  0  0  0
 40 58  1  0  0  0
 41104  1  0  0  0
 41105  1  0  0  0
 41106  1  0  0  0
 41 48  1  0  0  0
 42 43  1  0  0  0
 42 66  1  0  0  0
 42107  1  0  0  0
 42108  1  0  0  0
 43 44  1  0  0  0
 44109  1  0  0  0
 45 46  2  0  0  0
 45110  1  0  0  0
 46111  1  0  0  0
 47112  1  0  0  0
 47113  1  0  0  0
 48 56  1  0  0  0
 48 65  1  0  0  0
 48114  1  0  0  0
 49 50  1  0  0  0
 49 53  1  0  0  0
 49 64  1  0  0  0
 49115  1  0  0  0
 50 51  1  0  0  0
 50116  1  0  0  0
 50117  1  0  0  0
 51 52  1  0  0  0
 51118  1  0  0  0
 51119  1  0  0  0
 52120  1  0  0  0
 52121  1  0  0  0
 53 54  1  0  0  0
 54 55  2  0  0  0
 54122  1  0  0  0
 55 57  1  0  0  0
 55123  1  0  0  0
 56 69  2  0  0  0
 57 58  2  0  0  0
 57124  1  0  0  0
 58125  1  0  0  0
 59 60  1  0  0  0
 59 61  1  0  0  0
 59 62  1  0  0  0
 60126  1  0  0  0
 60127  1  0  0  0
 60128  1  0  0  0
 61129  1  0  0  0
 61130  1  0  0  0
 61131  1  0  0  0
 62132  1  0  0  0
 62133  1  0  0  0
 62134  1  0  0  0
 63 65  1  0  0  0
 63135  1  0  0  0
 63136  1  0  0  0
 63137  1  0  0  0
 64138  1  0  0  0
 65139  1  0  0  0
 68 76  1  0  0  0
 71 72  2  0  0  0
 71 73  1  0  0  0
 71 75  1  0  0  0
 72 76  1  0  0  0
 72 79  1  0  0  0
 73 74  1  0  0  0
 73 78  2  0  0  0
 74140  1  0  0  0
 74141  1  0  0  0
 74142  1  0  0  0
 75 77  1  0  0  0
 75143  1  0  0  0
 75144  1  0  0  0
 76 80  1  0  0  0
 76145  1  0  0  0
 77146  1  0  0  0
 79147  1  0  0  0
M  ISO  4   1 100  68 101  76 101  77 100
M  END
> <chiral flag>
0

> <version>
0

> <s_m_source_file>
/data/baiqing/PycharmProjects/Reinvent-master-3.2/result/LINK_invent/BTK/process_docking_weight1_custom_product_contain_oxygen_bond_distance_aromatic_linkinvent_7_9_3/rearranged_h_0071.sdf

> <i_m_source_file_index>
41

> <r_mmod_Potential_Energy-OPLS-2005>
2978.1953125

> <r_mmod_Stretch_Energy-OPLS-2005>
1286.33435058594

> <r_mmod_Bend_Energy-OPLS-2005>
798.043518066406

> <r_mmod_Torsional_Energy-OPLS-2005>
225.922302246094

> <r_mmod_Improper_Torsional_Energy-OPLS-2005>
4.37875270843506

> <r_mmod_Van_der_Waal_Energy-OPLS-2005>
129.207763671875

> <r_mmod_Electrostatic_Energy-OPLS-2005>
-326.537292480469

> <r_mmod_Solvation_Energy-OPLS-2005>
-230.900192260742

> <b_mmod_Minimization_Converged-OPLS-2005>
0

> <r_mmod_RMS_Derivative-OPLS-2005>
0.995439529418945

$$$$
41
                    3D
 Structure written by MMmdl.
163172  0  0  1  0            999 V2000
  -30.6050  -14.7757   20.3569 C   0  0  0  0  0  0
  -30.4362  -12.4434   19.4809 C   0  0  0  0  0  0
  -29.5107  -12.3958   18.2454 C   0  0  0  0  0  0
  -28.0277  -12.3012   18.6608 C   0  0  0  0  0  0
  -27.6377  -13.2342   19.8390 C   0  0  2  0  0  0
  -28.6896  -13.2074   20.9664 C   0  0  0  0  0  0
  -25.2495  -13.8223   20.5752 C   0  0  0  0  0  0
  -24.1790  -13.0454   20.9260 C   0  0  0  0  0  0
  -24.6392  -11.6936   20.8787 C   0  0  0  0  0  0
  -23.9081  -10.4299   21.0434 C   0  0  0  0  0  0
  -24.3619   -9.4203   21.9212 C   0  0  0  0  0  0
  -23.6289   -8.2243   22.0774 C   0  0  0  0  0  0
  -22.4267   -8.0289   21.3573 C   0  0  0  0  0  0
  -21.9905   -9.0268   20.4681 C   0  0  0  0  0  0
  -22.7243  -10.2146   20.3090 C   0  0  0  0  0  0
  -21.6858   -6.0732   22.5284 C   0  0  0  0  0  0
  -21.4030   -6.5634   23.8219 C   0  0  0  0  0  0
  -21.3671   -5.6800   24.9185 C   0  0  0  0  0  0
  -21.6038   -4.3061   24.7232 C   0  0  0  0  0  0
  -21.8804   -3.8147   23.4351 C   0  0  0  0  0  0
  -21.9183   -4.6960   22.3403 C   0  0  0  0  0  0
  -22.7797  -13.5225   21.1895 C   0  0  0  0  0  0
  -22.1652   -4.2145   21.0985 F   0  0  0  0  0  0
  -21.5616   -3.4539   25.7739 F   0  0  0  0  0  0
  -29.9834  -13.5458   20.3624 N   0  0  0  0  0  0
  -26.2923  -12.9441   20.3298 N   0  0  0  0  0  0
  -25.9317  -11.6587   20.5800 N   0  0  0  0  0  0
  -22.0412  -12.8214   22.0428 N   0  0  0  0  0  0
  -25.4118  -15.1957   20.4180 N   0  0  0  0  0  0
  -31.8162  -14.8438   20.1384 O   0  0  0  0  0  0
  -21.6653   -6.8872   21.4247 O   0  0  0  0  0  0
  -22.3489  -14.5531   20.6738 O   0  0  0  0  0  0
  -24.6337  -31.8556   23.1993 C   0  0  0  0  0  0
  -25.9148  -32.4765   23.8352 C   0  0  1  0  0  0
  -27.2229  -27.2558   20.1226 C   0  0  0  0  0  0
  -25.5933  -33.8564   24.2281 N   0  0  0  0  0  0
  -23.4325  -30.4800   21.5413 C   0  0  2  0  0  0
  -24.8805  -28.9313   20.1066 C   0  0  0  0  0  0
  -22.7529  -29.4592   22.4870 C   0  0  0  0  0  0
  -18.0311  -28.1402   22.8470 C   0  0  0  0  0  0
  -24.1477  -36.7256   23.2633 C   0  0  0  0  0  0
  -25.9801  -30.7664   21.3820 C   0  0  0  0  0  0
  -26.0529  -29.3894   20.7204 C   0  0  0  0  0  0
  -27.2264  -28.5652   20.7167 C   0  0  0  0  0  0
  -26.0243  -26.8708   19.4769 C   0  0  0  0  0  0
  -24.8725  -27.6811   19.4713 C   0  0  0  0  0  0
  -23.6562  -29.8256   20.1538 C   0  0  0  0  0  0
  -25.4103  -36.3078   24.0334 C   0  0  1  0  0  0
  -20.5916  -28.3714   23.1254 C   0  0  2  0  0  0
  -20.6806  -26.9430   22.5405 C   0  0  0  0  0  0
  -19.5787  -26.6400   21.5208 C   0  0  0  0  0  0
  -18.1961  -26.7940   22.1620 C   0  0  0  0  0  0
  -19.1562  -28.8877   23.2865 C   0  0  0  0  0  0
  -18.9477  -30.1460   23.8919 C   0  0  0  0  0  0
  -17.6468  -30.6580   24.0585 C   0  0  0  0  0  0
  -25.9057  -34.9446   23.5116 C   0  0  0  0  0  0
  -16.5367  -29.9086   23.6313 C   0  0  0  0  0  0
  -16.7289  -28.6509   23.0327 C   0  0  0  0  0  0
  -26.4498  -31.6574   25.0733 C   0  0  0  0  0  0
  -25.3693  -31.3700   26.1424 C   0  0  0  0  0  0
  -27.0335  -30.2997   24.6196 C   0  0  0  0  0  0
  -27.6071  -32.4287   25.7504 C   0  0  0  0  0  0
  -27.5575  -37.1786   24.8453 C   0  0  0  0  0  0
  -21.4236  -29.3034   22.3612 N   0  0  0  0  0  0
  -26.4265  -37.3794   23.9431 N   0  0  0  0  0  0
  -24.7010  -31.0517   22.0975 N   0  0  0  0  0  0
  -23.4214  -28.8129   23.2983 O   0  0  0  0  0  0
  -28.3145  -26.3512   20.1905 O   0  0  0  0  0  0
  -26.5636  -34.8922   22.4690 O   0  0  0  0  0  0
  -23.5479  -32.1378   23.7275 O   0  0  0  0  0  0
  -30.3857  -19.7908   18.3863 C   0  0  0  0  0  0
  -29.6772  -18.5433   20.3339 C   0  0  0  0  0  0
  -30.3600  -17.3219   18.3136 C   0  0  0  0  0  0
  -29.7898  -19.8391   19.6622 C   0  0  0  0  0  0
  -30.6609  -18.5882   17.7178 C   0  0  0  0  0  0
  -30.0015  -17.2568   19.7066 C   0  0  0  0  0  0
  -29.1340  -22.3600   19.4714 C   0  0  0  0  0  0
  -28.9538  -23.0344   21.6988 C   0  0  0  0  0  0
  -29.4418  -21.5549   21.5905 C   0  0  0  0  0  0
  -29.1488  -23.7014   20.3154 C   0  0  1  0  0  0
  -30.5638  -24.3036   20.1846 C   0  0  0  0  0  0
  -28.0812  -24.8793   19.9368 C   0  0  0  0  0  0
  -30.2637  -16.0814   17.3980 C   0  0  0  0  0  0
  -29.4162  -21.1986   20.1773 N   0  0  0  0  0  0
  -31.2054  -18.7306   16.4355 N   0  0  0  0  0  0
  -29.8241  -15.9329   20.4011 N   0  0  0  0  0  0
  -28.8766  -22.3966   18.2633 O   0  0  0  0  0  0
  -30.1211  -16.3638   16.1015 F   0  0  0  0  0  0
  -31.3204  -15.2775   17.4929 F   0  0  0  0  0  0
  -29.1515  -15.4250   17.7191 F   0  0  0  0  0  0
  -31.4735  -12.5659   19.1633 H   0  0  0  0  0  0
  -30.3978  -11.4932   20.0146 H   0  0  0  0  0  0
  -29.7611  -11.5315   17.6288 H   0  0  0  0  0  0
  -29.6898  -13.2454   17.5987 H   0  0  0  0  0  0
  -27.8558  -11.2655   18.9533 H   0  0  0  0  0  0
  -27.3750  -12.4808   17.8050 H   0  0  0  0  0  0
  -27.6155  -14.2435   19.4297 H   0  0  0  0  0  0
  -28.7316  -12.2236   21.4357 H   0  0  0  0  0  0
  -28.4312  -13.9151   21.7560 H   0  0  0  0  0  0
  -25.2738   -9.5677   22.4824 H   0  0  0  0  0  0
  -23.9998   -7.4620   22.7470 H   0  0  0  0  0  0
  -21.0833   -8.8792   19.8986 H   0  0  0  0  0  0
  -22.3688  -10.9700   19.6224 H   0  0  0  0  0  0
  -21.2056   -7.6146   23.9716 H   0  0  0  0  0  0
  -21.1513   -6.0543   25.9094 H   0  0  0  0  0  0
  -22.0575   -2.7607   23.2858 H   0  0  0  0  0  0
  -22.3999  -11.9857   22.4809 H   0  0  0  0  0  0
  -21.1035  -13.1262   22.2636 H   0  0  0  0  0  0
  -24.6312  -15.8321   20.5330 H   0  0  0  0  0  0
  -26.2351  -15.6476   20.0428 H   0  0  0  0  0  0
  -26.7222  -32.5430   23.1101 H   0  0  0  0  0  0
  -25.0070  -33.9709   25.0422 H   0  0  0  0  0  0
  -22.7301  -31.3038   21.3999 H   0  0  0  0  0  0
  -23.3779  -35.9542   23.3261 H   0  0  0  0  0  0
  -24.3573  -36.8905   22.2047 H   0  0  0  0  0  0
  -23.7171  -37.6424   23.6671 H   0  0  0  0  0  0
  -26.1230  -31.5284   20.6149 H   0  0  0  0  0  0
  -26.8565  -30.8152   22.0163 H   0  0  0  0  0  0
  -28.1237  -28.9114   21.2115 H   0  0  0  0  0  0
  -25.9418  -25.9187   18.9750 H   0  0  0  0  0  0
  -23.9791  -27.3301   18.9735 H   0  0  0  0  0  0
  -23.8013  -30.6127   19.4130 H   0  0  0  0  0  0
  -22.7712  -29.2768   19.8281 H   0  0  0  0  0  0
  -25.1273  -36.1926   25.0828 H   0  0  0  0  0  0
  -21.0023  -28.3318   24.1373 H   0  0  0  0  0  0
  -20.5721  -26.2325   23.3612 H   0  0  0  0  0  0
  -21.6680  -26.7461   22.1194 H   0  0  0  0  0  0
  -19.6951  -25.6322   21.1221 H   0  0  0  0  0  0
  -19.6710  -27.3226   20.6749 H   0  0  0  0  0  0
  -17.4227  -26.6668   21.4032 H   0  0  0  0  0  0
  -18.0369  -26.0088   22.9024 H   0  0  0  0  0  0
  -19.7950  -30.7267   24.2316 H   0  0  0  0  0  0
  -17.5017  -31.6245   24.5209 H   0  0  0  0  0  0
  -15.5367  -30.2989   23.7627 H   0  0  0  0  0  0
  -15.8694  -28.0828   22.7023 H   0  0  0  0  0  0
  -24.5912  -30.7016   25.7717 H   0  0  0  0  0  0
  -24.8820  -32.2844   26.4816 H   0  0  0  0  0  0
  -25.7981  -30.8891   27.0222 H   0  0  0  0  0  0
  -26.2911  -29.6757   24.1205 H   0  0  0  0  0  0
  -27.4008  -29.7250   25.4705 H   0  0  0  0  0  0
  -27.8801  -30.4287   23.9450 H   0  0  0  0  0  0
  -27.2728  -33.3611   26.2067 H   0  0  0  0  0  0
  -28.3891  -32.6789   25.0321 H   0  0  0  0  0  0
  -28.0721  -31.8394   26.5417 H   0  0  0  0  0  0
  -28.2560  -38.0120   24.7581 H   0  0  0  0  0  0
  -28.1107  -36.2658   24.6180 H   0  0  0  0  0  0
  -27.2309  -37.1322   25.8859 H   0  0  0  0  0  0
  -20.9440  -29.8719   21.6775 H   0  0  0  0  0  0
  -26.0135  -38.2852   24.1496 H   0  0  0  0  0  0
  -30.6199  -20.7104   17.8679 H   0  0  0  0  0  0
  -29.3050  -18.5299   21.3484 H   0  0  0  0  0  0
  -29.4758  -23.5629   22.4974 H   0  0  0  0  0  0
  -27.8940  -23.0336   21.9618 H   0  0  0  0  0  0
  -28.8283  -20.8739   22.1809 H   0  0  0  0  0  0
  -30.4703  -21.4630   21.9401 H   0  0  0  0  0  0
  -31.3486  -23.5560   20.3136 H   0  0  0  0  0  0
  -30.7291  -25.0814   20.9302 H   0  0  0  0  0  0
  -30.7068  -24.7582   19.2040 H   0  0  0  0  0  0
  -27.1427  -24.6085   20.4223 H   0  0  0  0  0  0
  -27.8808  -24.7894   18.8688 H   0  0  0  0  0  0
  -31.0431  -19.6073   15.9520 H   0  0  0  0  0  0
  -31.1075  -17.9323   15.8113 H   0  0  0  0  0  0
  -28.9038  -15.7834   20.7845 H   0  0  0  0  0  0
  1 25  1  0  0  0
  1 30  2  0  0  0
  1 86  1  0  0  0
  2  3  1  0  0  0
  2 25  1  0  0  0
  2 91  1  0  0  0
  2 92  1  0  0  0
  3  4  1  0  0  0
  3 93  1  0  0  0
  3 94  1  0  0  0
  4  5  1  0  0  0
  4 95  1  0  0  0
  4 96  1  0  0  0
  5  6  1  0  0  0
  5 26  1  0  0  0
  5 97  1  0  0  0
  6 25  1  0  0  0
  6 98  1  0  0  0
  6 99  1  0  0  0
  7  8  2  0  0  0
  7 26  1  0  0  0
  7 29  1  0  0  0
  8  9  1  0  0  0
  8 22  1  0  0  0
  9 10  1  0  0  0
  9 27  2  0  0  0
 10 11  2  0  0  0
 10 15  1  0  0  0
 11 12  1  0  0  0
 11100  1  0  0  0
 12 13  2  0  0  0
 12101  1  0  0  0
 13 14  1  0  0  0
 13 31  1  0  0  0
 14 15  2  0  0  0
 14102  1  0  0  0
 15103  1  0  0  0
 16 17  2  0  0  0
 16 21  1  0  0  0
 16 31  1  0  0  0
 17 18  1  0  0  0
 17104  1  0  0  0
 18 19  2  0  0  0
 18105  1  0  0  0
 19 20  1  0  0  0
 19 24  1  0  0  0
 20 21  2  0  0  0
 20106  1  0  0  0
 21 23  1  0  0  0
 22 28  1  0  0  0
 22 32  2  0  0  0
 26 27  1  0  0  0
 28107  1  0  0  0
 28108  1  0  0  0
 29109  1  0  0  0
 29110  1  0  0  0
 33 34  1  0  0  0
 33 66  1  0  0  0
 33 70  2  0  0  0
 34 36  1  0  0  0
 34 59  1  0  0  0
 34111  1  0  0  0
 35 44  2  0  0  0
 35 45  1  0  0  0
 35 68  1  0  0  0
 36 56  1  0  0  0
 36112  1  0  0  0
 37 39  1  0  0  0
 37 47  1  0  0  0
 37 66  1  0  0  0
 37113  1  0  0  0
 38 43  2  0  0  0
 38 46  1  0  0  0
 38 47  1  0  0  0
 39 64  1  0  0  0
 39 67  2  0  0  0
 40 52  1  0  0  0
 40 53  2  0  0  0
 40 58  1  0  0  0
 41114  1  0  0  0
 41115  1  0  0  0
 41116  1  0  0  0
 41 48  1  0  0  0
 42 43  1  0  0  0
 42 66  1  0  0  0
 42117  1  0  0  0
 42118  1  0  0  0
 43 44  1  0  0  0
 44119  1  0  0  0
 45 46  2  0  0  0
 45120  1  0  0  0
 46121  1  0  0  0
 47122  1  0  0  0
 47123  1  0  0  0
 48 56  1  0  0  0
 48 65  1  0  0  0
 48124  1  0  0  0
 49 50  1  0  0  0
 49 53  1  0  0  0
 49 64  1  0  0  0
 49125  1  0  0  0
 50 51  1  0  0  0
 50126  1  0  0  0
 50127  1  0  0  0
 51 52  1  0  0  0
 51128  1  0  0  0
 51129  1  0  0  0
 52130  1  0  0  0
 52131  1  0  0  0
 53 54  1  0  0  0
 54 55  2  0  0  0
 54132  1  0  0  0
 55 57  1  0  0  0
 55133  1  0  0  0
 56 69  2  0  0  0
 57 58  2  0  0  0
 57134  1  0  0  0
 58135  1  0  0  0
 59 60  1  0  0  0
 59 61  1  0  0  0
 59 62  1  0  0  0
 60136  1  0  0  0
 60137  1  0  0  0
 60138  1  0  0  0
 61139  1  0  0  0
 61140  1  0  0  0
 61141  1  0  0  0
 62142  1  0  0  0
 62143  1  0  0  0
 62144  1  0  0  0
 63 65  1  0  0  0
 63145  1  0  0  0
 63146  1  0  0  0
 63147  1  0  0  0
 64148  1  0  0  0
 65149  1  0  0  0
 68 82  1  0  0  0
 71 74  2  0  0  0
 71 75  1  0  0  0
 71150  1  0  0  0
 72 74  1  0  0  0
 72 76  2  0  0  0
 72151  1  0  0  0
 73 75  2  0  0  0
 73 76  1  0  0  0
 73 83  1  0  0  0
 74 84  1  0  0  0
 75 85  1  0  0  0
 76 86  1  0  0  0
 77 80  1  0  0  0
 77 84  1  0  0  0
 77 87  2  0  0  0
 78 79  1  0  0  0
 78 80  1  0  0  0
 78152  1  0  0  0
 78153  1  0  0  0
 79 84  1  0  0  0
 79154  1  0  0  0
 79155  1  0  0  0
 80 81  1  0  0  0
 80 82  1  0  0  0
 81156  1  0  0  0
 81157  1  0  0  0
 81158  1  0  0  0
 82159  1  0  0  0
 82160  1  0  0  0
 83 88  1  0  0  0
 83 89  1  0  0  0
 83 90  1  0  0  0
 85161  1  0  0  0
 85162  1  0  0  0
 86163  1  0  0  0
M  ISO  4   1 100  68 101  82 101  86 100
M  END
> <chiral flag>
0

> <version>
0

> <s_m_source_file>
/data/baiqing/PycharmProjects/Reinvent-master-3.2/result/LINK_invent/BTK/process_docking_weight1_custom_product_contain_oxygen_bond_distance_aromatic_linkinvent_7_9_3/rearranged_h_0071.sdf

> <i_m_source_file_index>
42

> <r_mmod_Potential_Energy-OPLS-2005>
559.843322753906

> <r_mmod_Stretch_Energy-OPLS-2005>
145.53254699707

> <r_mmod_Bend_Energy-OPLS-2005>
199.801300048828

> <r_mmod_Torsional_Energy-OPLS-2005>
333.529632568359

> <r_mmod_Improper_Torsional_Energy-OPLS-2005>
10.2658967971802

> <r_mmod_Van_der_Waal_Energy-OPLS-2005>
155.099914550781

> <r_mmod_Electrostatic_Energy-OPLS-2005>
-163.154006958008

> <r_mmod_Solvation_Energy-OPLS-2005>
-224.149337768555

> <b_mmod_Minimization_Converged-OPLS-2005>
0

> <r_mmod_RMS_Derivative-OPLS-2005>
2.601078748703

$$$$
42
                    3D
 Structure written by MMmdl.
166175  0  0  1  0            999 V2000
  -30.5771  -14.7690   20.4292 C   0  0  0  0  0  0
  -30.4466  -12.4621   19.4711 C   0  0  0  0  0  0
  -29.5190  -12.5041   18.2347 C   0  0  0  0  0  0
  -28.0431  -12.3320   18.6440 C   0  0  0  0  0  0
  -27.6429  -13.2269   19.8477 C   0  0  2  0  0  0
  -28.6928  -13.1593   20.9806 C   0  0  0  0  0  0
  -25.2549  -13.8102   20.5783 C   0  0  0  0  0  0
  -24.1824  -13.0358   20.9195 C   0  0  0  0  0  0
  -24.6420  -11.6849   20.8714 C   0  0  0  0  0  0
  -23.9098  -10.4251   21.0373 C   0  0  0  0  0  0
  -24.3639   -9.4183   21.9173 C   0  0  0  0  0  0
  -23.6289   -8.2233   22.0756 C   0  0  0  0  0  0
  -22.4277   -8.0277   21.3535 C   0  0  0  0  0  0
  -21.9918   -9.0254   20.4639 C   0  0  0  0  0  0
  -22.7260  -10.2122   20.3026 C   0  0  0  0  0  0
  -21.6863   -6.0739   22.5284 C   0  0  0  0  0  0
  -21.4035   -6.5652   23.8222 C   0  0  0  0  0  0
  -21.3658   -5.6798   24.9174 C   0  0  0  0  0  0
  -21.6032   -4.3058   24.7223 C   0  0  0  0  0  0
  -21.8820   -3.8145   23.4346 C   0  0  0  0  0  0
  -21.9194   -4.6959   22.3402 C   0  0  0  0  0  0
  -22.7867  -13.5189   21.1838 C   0  0  0  0  0  0
  -22.1669   -4.2146   21.0982 F   0  0  0  0  0  0
  -21.5600   -3.4544   25.7735 F   0  0  0  0  0  0
  -29.9936  -13.5209   20.3992 N   0  0  0  0  0  0
  -26.2971  -12.9333   20.3277 N   0  0  0  0  0  0
  -25.9361  -11.6475   20.5730 N   0  0  0  0  0  0
  -22.0498  -12.8221   22.0402 N   0  0  0  0  0  0
  -25.4185  -15.1827   20.4463 N   0  0  0  0  0  0
  -31.7654  -14.9107   20.1279 O   0  0  0  0  0  0
  -21.6627   -6.8878   21.4246 O   0  0  0  0  0  0
  -22.3597  -14.5507   20.6677 O   0  0  0  0  0  0
  -24.6295  -31.8537   23.1984 C   0  0  0  0  0  0
  -25.9122  -32.4743   23.8335 C   0  0  1  0  0  0
  -27.2307  -27.2784   20.1140 C   0  0  0  0  0  0
  -25.5923  -33.8537   24.2271 N   0  0  0  0  0  0
  -23.4269  -30.4746   21.5410 C   0  0  2  0  0  0
  -24.8772  -28.9241   20.1039 C   0  0  0  0  0  0
  -22.7504  -29.4575   22.4914 C   0  0  0  0  0  0
  -18.0290  -28.1376   22.8467 C   0  0  0  0  0  0
  -24.1474  -36.7261   23.2634 C   0  0  0  0  0  0
  -25.9714  -30.7708   21.3762 C   0  0  0  0  0  0
  -26.0467  -29.3950   20.7163 C   0  0  0  0  0  0
  -27.2222  -28.5797   20.7192 C   0  0  0  0  0  0
  -26.0358  -26.8666   19.4834 C   0  0  0  0  0  0
  -24.8760  -27.6670   19.4787 C   0  0  0  0  0  0
  -23.6444  -29.8068   20.1574 C   0  0  0  0  0  0
  -25.4100  -36.3053   24.0330 C   0  0  1  0  0  0
  -20.5892  -28.3676   23.1269 C   0  0  2  0  0  0
  -20.6765  -26.9391   22.5410 C   0  0  0  0  0  0
  -19.5749  -26.6373   21.5200 C   0  0  0  0  0  0
  -18.1933  -26.7914   22.1618 C   0  0  0  0  0  0
  -19.1547  -28.8844   23.2857 C   0  0  0  0  0  0
  -18.9468  -30.1450   23.8875 C   0  0  0  0  0  0
  -17.6463  -30.6570   24.0566 C   0  0  0  0  0  0
  -25.9050  -34.9431   23.5106 C   0  0  0  0  0  0
  -16.5354  -29.9072   23.6322 C   0  0  0  0  0  0
  -16.7276  -28.6494   23.0331 C   0  0  0  0  0  0
  -26.4511  -31.6551   25.0706 C   0  0  0  0  0  0
  -25.3752  -31.3699   26.1442 C   0  0  0  0  0  0
  -27.0357  -30.2967   24.6165 C   0  0  0  0  0  0
  -27.6074  -32.4282   25.7472 C   0  0  0  0  0  0
  -27.5577  -37.1770   24.8459 C   0  0  0  0  0  0
  -21.4218  -29.3019   22.3662 N   0  0  0  0  0  0
  -26.4273  -37.3759   23.9426 N   0  0  0  0  0  0
  -24.6950  -31.0500   22.0958 N   0  0  0  0  0  0
  -23.4199  -28.8115   23.3016 O   0  0  0  0  0  0
  -28.3035  -26.3680   20.2320 O   0  0  0  0  0  0
  -26.5623  -34.8899   22.4679 O   0  0  0  0  0  0
  -23.5444  -32.1362   23.7279 O   0  0  0  0  0  0
  -30.4213  -19.6706   20.9620 C   0  0  0  0  0  0
  -30.5170  -18.2400   21.1286 C   0  0  0  0  0  0
  -28.8289  -19.3589   19.2222 C   0  0  0  0  0  0
  -29.5777  -20.2909   19.9901 C   0  0  0  0  0  0
  -29.7847  -17.3081   20.3298 C   0  0  0  0  0  0
  -28.9334  -17.9329   19.3569 C   0  0  0  0  0  0
  -28.8593  -24.0149   19.3027 C   0  0  0  0  0  0
  -29.2220  -23.3762   18.0470 C   0  0  0  0  0  0
  -30.7089  -15.7266   16.2945 C   0  0  0  0  0  0
  -28.5381  -25.3735   19.2588 C   0  0  0  0  0  0
  -30.0985  -16.4692   17.2360 C   0  0  0  0  0  0
  -28.6539  -16.3776   17.4552 C   0  0  0  0  0  0
  -29.0243  -22.8965   20.3816 C   0  0  0  0  0  0
  -30.4802  -21.3374   17.3679 C   0  0  0  0  0  0
  -26.7000  -17.4102   18.4824 C   0  0  0  0  0  0
  -29.5936  -21.7096   19.6562 N   0  0  0  0  0  0
  -29.6894  -22.1353   18.3120 N   0  0  0  0  0  0
  -29.7168  -15.8442   20.6033 N   0  0  0  0  0  0
  -28.1457  -17.1529   18.4570 N   0  0  0  0  0  0
  -29.1907  -23.8742   16.9166 O   0  0  0  0  0  0
  -27.9216  -15.6702   16.7550 O   0  0  0  0  0  0
  -31.4837  -12.6050   19.1636 H   0  0  0  0  0  0
  -30.4074  -11.4863   19.9593 H   0  0  0  0  0  0
  -29.8013  -11.7264   17.5243 H   0  0  0  0  0  0
  -29.6421  -13.4542   17.7128 H   0  0  0  0  0  0
  -27.9026  -11.2819   18.9025 H   0  0  0  0  0  0
  -27.3884  -12.5262   17.7929 H   0  0  0  0  0  0
  -27.6254  -14.2479   19.4675 H   0  0  0  0  0  0
  -28.7320  -12.1593   21.4159 H   0  0  0  0  0  0
  -28.4278  -13.8367   21.7953 H   0  0  0  0  0  0
  -25.2787   -9.5663   22.4755 H   0  0  0  0  0  0
  -23.9973   -7.4651   22.7528 H   0  0  0  0  0  0
  -21.0818   -8.8805   19.8985 H   0  0  0  0  0  0
  -22.3728  -10.9676   19.6134 H   0  0  0  0  0  0
  -21.2072   -7.6167   23.9734 H   0  0  0  0  0  0
  -21.1465   -6.0522   25.9080 H   0  0  0  0  0  0
  -22.0595   -2.7602   23.2846 H   0  0  0  0  0  0
  -22.4098  -11.9885   22.4810 H   0  0  0  0  0  0
  -21.1134  -13.1303   22.2610 H   0  0  0  0  0  0
  -24.6307  -15.8128   20.5540 H   0  0  0  0  0  0
  -26.2626  -15.6484   20.1523 H   0  0  0  0  0  0
  -26.7177  -32.5394   23.1070 H   0  0  0  0  0  0
  -25.0074  -33.9668   25.0419 H   0  0  0  0  0  0
  -22.7216  -31.2953   21.3947 H   0  0  0  0  0  0
  -23.3743  -35.9586   23.3276 H   0  0  0  0  0  0
  -24.3564  -36.8896   22.2054 H   0  0  0  0  0  0
  -23.7208  -37.6446   23.6669 H   0  0  0  0  0  0
  -26.1048  -31.5309   20.6048 H   0  0  0  0  0  0
  -26.8512  -30.8226   22.0065 H   0  0  0  0  0  0
  -28.1116  -28.9211   21.2296 H   0  0  0  0  0  0
  -25.9722  -25.8873   19.0300 H   0  0  0  0  0  0
  -23.9758  -27.2964   19.0061 H   0  0  0  0  0  0
  -23.7623  -30.5834   19.4020 H   0  0  0  0  0  0
  -22.7635  -29.2381   19.8539 H   0  0  0  0  0  0
  -25.1265  -36.1914   25.0820 H   0  0  0  0  0  0
  -20.9969  -28.3250   24.1398 H   0  0  0  0  0  0
  -20.5632  -26.2285   23.3613 H   0  0  0  0  0  0
  -21.6637  -26.7388   22.1226 H   0  0  0  0  0  0
  -19.6914  -25.6291   21.1209 H   0  0  0  0  0  0
  -19.6698  -27.3197   20.6742 H   0  0  0  0  0  0
  -17.4196  -26.6641   21.4030 H   0  0  0  0  0  0
  -18.0350  -26.0067   22.9032 H   0  0  0  0  0  0
  -19.7947  -30.7273   24.2227 H   0  0  0  0  0  0
  -17.5014  -31.6231   24.5212 H   0  0  0  0  0  0
  -15.5353  -30.2973   23.7652 H   0  0  0  0  0  0
  -15.8676  -28.0820   22.7033 H   0  0  0  0  0  0
  -24.5936  -30.7024   25.7790 H   0  0  0  0  0  0
  -24.8940  -32.2872   26.4848 H   0  0  0  0  0  0
  -25.8094  -30.8906   27.0228 H   0  0  0  0  0  0
  -26.2936  -29.6689   24.1211 H   0  0  0  0  0  0
  -27.4082  -29.7236   25.4667 H   0  0  0  0  0  0
  -27.8792  -30.4244   23.9376 H   0  0  0  0  0  0
  -27.2699  -33.3603   26.2016 H   0  0  0  0  0  0
  -28.3912  -32.6791   25.0312 H   0  0  0  0  0  0
  -28.0704  -31.8412   26.5415 H   0  0  0  0  0  0
  -28.2568  -38.0092   24.7525 H   0  0  0  0  0  0
  -28.1096  -36.2619   24.6254 H   0  0  0  0  0  0
  -27.2290  -37.1370   25.8857 H   0  0  0  0  0  0
  -20.9406  -29.8754   21.6876 H   0  0  0  0  0  0
  -26.0144  -38.2815   24.1480 H   0  0  0  0  0  0
  -31.0412  -20.3034   21.5798 H   0  0  0  0  0  0
  -31.1629  -17.8601   21.9072 H   0  0  0  0  0  0
  -28.1797  -19.7561   18.4541 H   0  0  0  0  0  0
  -31.7745  -15.8080   16.1343 H   0  0  0  0  0  0
  -30.1660  -15.0299   15.6695 H   0  0  0  0  0  0
  -28.5296  -25.8635   18.2941 H   0  0  0  0  0  0
  -30.7191  -17.1388   17.8122 H   0  0  0  0  0  0
  -28.0509  -22.6469   20.8048 H   0  0  0  0  0  0
  -29.6821  -23.2235   21.1869 H   0  0  0  0  0  0
  -29.8764  -20.5458   16.9251 H   0  0  0  0  0  0
  -31.3403  -20.8826   17.8619 H   0  0  0  0  0  0
  -30.8717  -21.9422   16.5481 H   0  0  0  0  0  0
  -26.3779  -17.7384   19.4707 H   0  0  0  0  0  0
  -26.1087  -16.5305   18.2253 H   0  0  0  0  0  0
  -26.4431  -18.1995   17.7750 H   0  0  0  0  0  0
  -28.7817  -15.5193   20.7888 H   0  0  0  0  0  0
  1 25  1  0  0  0
  1 30  2  0  0  0
  1 88  1  0  0  0
  2  3  1  0  0  0
  2 25  1  0  0  0
  2 92  1  0  0  0
  2 93  1  0  0  0
  3  4  1  0  0  0
  3 94  1  0  0  0
  3 95  1  0  0  0
  4  5  1  0  0  0
  4 96  1  0  0  0
  4 97  1  0  0  0
  5  6  1  0  0  0
  5 26  1  0  0  0
  5 98  1  0  0  0
  6 25  1  0  0  0
  6 99  1  0  0  0
  6100  1  0  0  0
  7  8  2  0  0  0
  7 26  1  0  0  0
  7 29  1  0  0  0
  8  9  1  0  0  0
  8 22  1  0  0  0
  9 10  1  0  0  0
  9 27  2  0  0  0
 10 11  2  0  0  0
 10 15  1  0  0  0
 11 12  1  0  0  0
 11101  1  0  0  0
 12 13  2  0  0  0
 12102  1  0  0  0
 13 14  1  0  0  0
 13 31  1  0  0  0
 14 15  2  0  0  0
 14103  1  0  0  0
 15104  1  0  0  0
 16 17  2  0  0  0
 16 21  1  0  0  0
 16 31  1  0  0  0
 17 18  1  0  0  0
 17105  1  0  0  0
 18 19  2  0  0  0
 18106  1  0  0  0
 19 20  1  0  0  0
 19 24  1  0  0  0
 20 21  2  0  0  0
 20107  1  0  0  0
 21 23  1  0  0  0
 22 28  1  0  0  0
 22 32  2  0  0  0
 26 27  1  0  0  0
 28108  1  0  0  0
 28109  1  0  0  0
 29110  1  0  0  0
 29111  1  0  0  0
 33 34  1  0  0  0
 33 66  1  0  0  0
 33 70  2  0  0  0
 34 36  1  0  0  0
 34 59  1  0  0  0
 34112  1  0  0  0
 35 44  2  0  0  0
 35 45  1  0  0  0
 35 68  1  0  0  0
 36 56  1  0  0  0
 36113  1  0  0  0
 37 39  1  0  0  0
 37 47  1  0  0  0
 37 66  1  0  0  0
 37114  1  0  0  0
 38 43  2  0  0  0
 38 46  1  0  0  0
 38 47  1  0  0  0
 39 64  1  0  0  0
 39 67  2  0  0  0
 40 52  1  0  0  0
 40 53  2  0  0  0
 40 58  1  0  0  0
 41115  1  0  0  0
 41116  1  0  0  0
 41117  1  0  0  0
 41 48  1  0  0  0
 42 43  1  0  0  0
 42 66  1  0  0  0
 42118  1  0  0  0
 42119  1  0  0  0
 43 44  1  0  0  0
 44120  1  0  0  0
 45 46  2  0  0  0
 45121  1  0  0  0
 46122  1  0  0  0
 47123  1  0  0  0
 47124  1  0  0  0
 48 56  1  0  0  0
 48 65  1  0  0  0
 48125  1  0  0  0
 49 50  1  0  0  0
 49 53  1  0  0  0
 49 64  1  0  0  0
 49126  1  0  0  0
 50 51  1  0  0  0
 50127  1  0  0  0
 50128  1  0  0  0
 51 52  1  0  0  0
 51129  1  0  0  0
 51130  1  0  0  0
 52131  1  0  0  0
 52132  1  0  0  0
 53 54  1  0  0  0
 54 55  2  0  0  0
 54133  1  0  0  0
 55 57  1  0  0  0
 55134  1  0  0  0
 56 69  2  0  0  0
 57 58  2  0  0  0
 57135  1  0  0  0
 58136  1  0  0  0
 59 60  1  0  0  0
 59 61  1  0  0  0
 59 62  1  0  0  0
 60137  1  0  0  0
 60138  1  0  0  0
 60139  1  0  0  0
 61140  1  0  0  0
 61141  1  0  0  0
 61142  1  0  0  0
 62143  1  0  0  0
 62144  1  0  0  0
 62145  1  0  0  0
 63 65  1  0  0  0
 63146  1  0  0  0
 63147  1  0  0  0
 63148  1  0  0  0
 64149  1  0  0  0
 65150  1  0  0  0
 68 80  1  0  0  0
 71 72  2  0  0  0
 71 74  1  0  0  0
 71151  1  0  0  0
 72 75  1  0  0  0
 72152  1  0  0  0
 73 74  2  0  0  0
 73 76  1  0  0  0
 73153  1  0  0  0
 74 86  1  0  0  0
 75 76  2  0  0  0
 75 88  1  0  0  0
 76 89  1  0  0  0
 77 78  1  0  0  0
 77 80  2  0  0  0
 77 83  1  0  0  0
 78 87  1  0  0  0
 78 90  2  0  0  0
 79 81  2  0  0  0
 79154  1  0  0  0
 79155  1  0  0  0
 80156  1  0  0  0
 81 82  1  0  0  0
 81157  1  0  0  0
 82 89  1  0  0  0
 82 91  2  0  0  0
 83 86  1  0  0  0
 83158  1  0  0  0
 83159  1  0  0  0
 84 87  1  0  0  0
 84160  1  0  0  0
 84161  1  0  0  0
 84162  1  0  0  0
 85 89  1  0  0  0
 85163  1  0  0  0
 85164  1  0  0  0
 85165  1  0  0  0
 86 87  1  0  0  0
 88166  1  0  0  0
M  ISO  4   1 100  68 101  80 101  88 100
M  END
> <chiral flag>
0

> <version>
0

> <s_m_source_file>
/data/baiqing/PycharmProjects/Reinvent-master-3.2/result/LINK_invent/BTK/process_docking_weight1_custom_product_contain_oxygen_bond_distance_aromatic_linkinvent_7_9_3/rearranged_h_0071.sdf

> <i_m_source_file_index>
43

> <r_mmod_Potential_Energy-OPLS-2005>
284.269683837891

> <r_mmod_Stretch_Energy-OPLS-2005>
107.866065979004

> <r_mmod_Bend_Energy-OPLS-2005>
236.769897460938

> <r_mmod_Torsional_Energy-OPLS-2005>
329.979064941406

> <r_mmod_Improper_Torsional_Energy-OPLS-2005>
10.2947540283203

> <r_mmod_Van_der_Waal_Energy-OPLS-2005>
139.369079589844

> <r_mmod_Electrostatic_Energy-OPLS-2005>
-405.998931884766

> <r_mmod_Solvation_Energy-OPLS-2005>
-227.279235839844

> <b_mmod_Minimization_Converged-OPLS-2005>
0

> <r_mmod_RMS_Derivative-OPLS-2005>
2.70518207550049

$$$$
43
                    3D
 Structure written by MMmdl.
151159  0  0  1  0            999 V2000
  -30.6243  -14.7497   20.4510 C   0  0  0  0  0  0
  -30.4250  -12.4547   19.4804 C   0  0  0  0  0  0
  -29.5072  -12.5017   18.2398 C   0  0  0  0  0  0
  -28.0330  -12.3292   18.6518 C   0  0  0  0  0  0
  -27.6382  -13.2359   19.8481 C   0  0  2  0  0  0
  -28.6821  -13.1849   20.9847 C   0  0  0  0  0  0
  -25.2485  -13.8211   20.5694 C   0  0  0  0  0  0
  -24.1780  -13.0442   20.9192 C   0  0  0  0  0  0
  -24.6385  -11.6925   20.8748 C   0  0  0  0  0  0
  -23.9069  -10.4294   21.0406 C   0  0  0  0  0  0
  -24.3620   -9.4206   21.9179 C   0  0  0  0  0  0
  -23.6292   -8.2245   22.0755 C   0  0  0  0  0  0
  -22.4273   -8.0283   21.3549 C   0  0  0  0  0  0
  -21.9912   -9.0252   20.4647 C   0  0  0  0  0  0
  -22.7242  -10.2129   20.3053 C   0  0  0  0  0  0
  -21.6856   -6.0733   22.5278 C   0  0  0  0  0  0
  -21.4016   -6.5639   23.8209 C   0  0  0  0  0  0
  -21.3658   -5.6793   24.9170 C   0  0  0  0  0  0
  -21.6044   -4.3055   24.7225 C   0  0  0  0  0  0
  -21.8820   -3.8144   23.4347 C   0  0  0  0  0  0
  -21.9191   -4.6960   22.3401 C   0  0  0  0  0  0
  -22.7802  -13.5219   21.1856 C   0  0  0  0  0  0
  -22.1660   -4.2142   21.0978 F   0  0  0  0  0  0
  -21.5628   -3.4540   25.7739 F   0  0  0  0  0  0
  -29.9830  -13.5301   20.4005 N   0  0  0  0  0  0
  -26.2917  -12.9430   20.3282 N   0  0  0  0  0  0
  -25.9318  -11.6568   20.5761 N   0  0  0  0  0  0
  -22.0468  -12.8201   22.0425 N   0  0  0  0  0  0
  -25.4168  -15.1941   20.4136 N   0  0  0  0  0  0
  -31.8157  -14.7977   20.1385 O   0  0  0  0  0  0
  -21.6645   -6.8876   21.4241 O   0  0  0  0  0  0
  -22.3473  -14.5518   20.6703 O   0  0  0  0  0  0
  -24.6293  -31.8526   23.1962 C   0  0  0  0  0  0
  -25.9115  -32.4746   23.8303 C   0  0  1  0  0  0
  -27.2254  -27.2573   20.1265 C   0  0  0  0  0  0
  -25.5900  -33.8550   24.2232 N   0  0  0  0  0  0
  -23.4258  -30.4756   21.5390 C   0  0  2  0  0  0
  -24.8744  -28.9185   20.1053 C   0  0  0  0  0  0
  -22.7488  -29.4596   22.4910 C   0  0  0  0  0  0
  -18.0281  -28.1379   22.8483 C   0  0  0  0  0  0
  -24.1478  -36.7272   23.2651 C   0  0  0  0  0  0
  -25.9709  -30.7642   21.3754 C   0  0  0  0  0  0
  -26.0426  -29.3858   20.7193 C   0  0  0  0  0  0
  -27.2139  -28.5653   20.7226 C   0  0  0  0  0  0
  -26.0307  -26.8531   19.4897 C   0  0  0  0  0  0
  -24.8752  -27.6614   19.4804 C   0  0  0  0  0  0
  -23.6430  -29.8039   20.1559 C   0  0  0  0  0  0
  -25.4108  -36.3066   24.0330 C   0  0  1  0  0  0
  -20.5890  -28.3685   23.1268 C   0  0  2  0  0  0
  -20.6760  -26.9402   22.5413 C   0  0  0  0  0  0
  -19.5738  -26.6361   21.5225 C   0  0  0  0  0  0
  -18.1919  -26.7918   22.1627 C   0  0  0  0  0  0
  -19.1537  -28.8847   23.2871 C   0  0  0  0  0  0
  -18.9469  -30.1449   23.8891 C   0  0  0  0  0  0
  -17.6474  -30.6590   24.0559 C   0  0  0  0  0  0
  -25.9042  -34.9435   23.5086 C   0  0  0  0  0  0
  -16.5359  -29.9091   23.6337 C   0  0  0  0  0  0
  -16.7269  -28.6502   23.0361 C   0  0  0  0  0  0
  -26.4489  -31.6579   25.0692 C   0  0  0  0  0  0
  -25.3705  -31.3735   26.1410 C   0  0  0  0  0  0
  -27.0344  -30.2999   24.6172 C   0  0  0  0  0  0
  -27.6032  -32.4339   25.7467 C   0  0  0  0  0  0
  -27.5570  -37.1785   24.8470 C   0  0  0  0  0  0
  -21.4198  -29.3034   22.3656 N   0  0  0  0  0  0
  -26.4276  -37.3770   23.9424 N   0  0  0  0  0  0
  -24.6948  -31.0493   22.0938 N   0  0  0  0  0  0
  -23.4197  -28.8153   23.3014 O   0  0  0  0  0  0
  -28.3454  -26.3984   20.2188 O   0  0  0  0  0  0
  -26.5653  -34.8925   22.4685 O   0  0  0  0  0  0
  -23.5448  -32.1340   23.7265 O   0  0  0  0  0  0
  -30.9277  -20.1633   20.2172 C   0  0  0  0  0  0
  -31.5509  -17.7841   20.2860 C   0  0  0  0  0  0
  -29.5732  -19.8623   20.4568 C   0  0  0  0  0  0
  -30.2154  -17.3620   20.5095 C   0  0  0  0  0  0
  -31.8958  -19.1450   20.1414 C   0  0  0  0  0  0
  -29.2398  -18.4437   20.6015 C   0  0  0  0  0  0
  -28.3604  -23.7183   20.4999 C   0  0  0  0  0  0
  -28.5503  -21.0773   20.6233 C   0  0  0  0  0  0
  -28.4494  -25.0356   19.5832 C   0  0  0  0  0  0
  -29.8733  -15.9081   20.6485 N   0  0  0  0  0  0
  -28.8097  -22.4796   20.0528 N   0  0  0  0  0  0
  -27.8388  -23.8173   21.6129 O   0  0  0  0  0  0
  -33.1917  -19.4809   19.9360 F   0  0  0  0  0  0
  -27.9509  -18.1061   20.8440 F   0  0  0  0  0  0
  -31.4668  -12.5636   19.1767 H   0  0  0  0  0  0
  -30.3627  -11.4828   19.9726 H   0  0  0  0  0  0
  -29.7909  -11.7241   17.5290 H   0  0  0  0  0  0
  -29.6357  -13.4538   17.7220 H   0  0  0  0  0  0
  -27.8876  -11.2818   18.9179 H   0  0  0  0  0  0
  -27.3775  -12.5201   17.8013 H   0  0  0  0  0  0
  -27.6278  -14.2547   19.4589 H   0  0  0  0  0  0
  -28.7165  -12.1931   21.4385 H   0  0  0  0  0  0
  -28.4162  -13.8786   21.7835 H   0  0  0  0  0  0
  -25.2767   -9.5681   22.4748 H   0  0  0  0  0  0
  -23.9999   -7.4640   22.7474 H   0  0  0  0  0  0
  -21.0845   -8.8770   19.8952 H   0  0  0  0  0  0
  -22.3703  -10.9664   19.6157 H   0  0  0  0  0  0
  -21.2015   -7.6149   23.9710 H   0  0  0  0  0  0
  -21.1477   -6.0524   25.9071 H   0  0  0  0  0  0
  -22.0602   -2.7607   23.2850 H   0  0  0  0  0  0
  -22.4104  -11.9856   22.4788 H   0  0  0  0  0  0
  -21.1093  -13.1215   22.2669 H   0  0  0  0  0  0
  -24.6502  -15.8472   20.5321 H   0  0  0  0  0  0
  -26.2696  -15.6443   20.1076 H   0  0  0  0  0  0
  -26.7168  -32.5396   23.1036 H   0  0  0  0  0  0
  -25.0000  -33.9673   25.0344 H   0  0  0  0  0  0
  -22.7230  -31.2979   21.3905 H   0  0  0  0  0  0
  -23.3749  -35.9595   23.3309 H   0  0  0  0  0  0
  -24.3564  -36.8892   22.2064 H   0  0  0  0  0  0
  -23.7211  -37.6462   23.6677 H   0  0  0  0  0  0
  -26.1080  -31.5226   20.6033 H   0  0  0  0  0  0
  -26.8509  -30.8158   22.0047 H   0  0  0  0  0  0
  -28.1048  -28.9170   21.2228 H   0  0  0  0  0  0
  -25.9460  -25.8853   19.0217 H   0  0  0  0  0  0
  -23.9800  -27.2966   18.9962 H   0  0  0  0  0  0
  -23.7630  -30.5764   19.3959 H   0  0  0  0  0  0
  -22.7623  -29.2328   19.8555 H   0  0  0  0  0  0
  -25.1292  -36.1900   25.0819 H   0  0  0  0  0  0
  -20.9983  -28.3255   24.1386 H   0  0  0  0  0  0
  -20.5650  -26.2303   23.3621 H   0  0  0  0  0  0
  -21.6625  -26.7401   22.1220 H   0  0  0  0  0  0
  -19.6901  -25.6276   21.1243 H   0  0  0  0  0  0
  -19.6670  -27.3179   20.6773 H   0  0  0  0  0  0
  -17.4189  -26.6663   21.4031 H   0  0  0  0  0  0
  -18.0307  -26.0061   22.9022 H   0  0  0  0  0  0
  -19.7954  -30.7253   24.2250 H   0  0  0  0  0  0
  -17.5042  -31.6277   24.5149 H   0  0  0  0  0  0
  -15.5365  -30.3004   23.7670 H   0  0  0  0  0  0
  -15.8655  -28.0827   22.7097 H   0  0  0  0  0  0
  -24.5890  -30.7070   25.7739 H   0  0  0  0  0  0
  -24.8891  -32.2909   26.4802 H   0  0  0  0  0  0
  -25.8007  -30.8929   27.0203 H   0  0  0  0  0  0
  -26.2926  -29.6733   24.1202 H   0  0  0  0  0  0
  -27.4053  -29.7263   25.4676 H   0  0  0  0  0  0
  -27.8783  -30.4292   23.9395 H   0  0  0  0  0  0
  -27.2624  -33.3660   26.1999 H   0  0  0  0  0  0
  -28.3858  -32.6867   25.0295 H   0  0  0  0  0  0
  -28.0680  -31.8489   26.5416 H   0  0  0  0  0  0
  -28.2587  -38.0085   24.7528 H   0  0  0  0  0  0
  -28.1059  -36.2613   24.6277 H   0  0  0  0  0  0
  -27.2291  -37.1410   25.8874 H   0  0  0  0  0  0
  -20.9384  -29.8755   21.6859 H   0  0  0  0  0  0
  -26.0145  -38.2832   24.1450 H   0  0  0  0  0  0
  -31.2447  -21.1908   20.1155 H   0  0  0  0  0  0
  -32.3639  -17.0808   20.2241 H   0  0  0  0  0  0
  -28.3733  -21.1818   21.6947 H   0  0  0  0  0  0
  -27.5981  -20.7439   20.2098 H   0  0  0  0  0  0
  -27.7767  -24.9220   18.7356 H   0  0  0  0  0  0
  -29.4423  -25.0104   19.1337 H   0  0  0  0  0  0
  -28.9015  -15.7333   20.8540 H   0  0  0  0  0  0
  -29.2358  -22.4901   19.1354 H   0  0  0  0  0  0
  1 25  1  0  0  0
  1 30  2  0  0  0
  1 80  1  0  0  0
  2  3  1  0  0  0
  2 25  1  0  0  0
  2 85  1  0  0  0
  2 86  1  0  0  0
  3  4  1  0  0  0
  3 87  1  0  0  0
  3 88  1  0  0  0
  4  5  1  0  0  0
  4 89  1  0  0  0
  4 90  1  0  0  0
  5  6  1  0  0  0
  5 26  1  0  0  0
  5 91  1  0  0  0
  6 25  1  0  0  0
  6 92  1  0  0  0
  6 93  1  0  0  0
  7  8  2  0  0  0
  7 26  1  0  0  0
  7 29  1  0  0  0
  8  9  1  0  0  0
  8 22  1  0  0  0
  9 10  1  0  0  0
  9 27  2  0  0  0
 10 11  2  0  0  0
 10 15  1  0  0  0
 11 12  1  0  0  0
 11 94  1  0  0  0
 12 13  2  0  0  0
 12 95  1  0  0  0
 13 14  1  0  0  0
 13 31  1  0  0  0
 14 15  2  0  0  0
 14 96  1  0  0  0
 15 97  1  0  0  0
 16 17  2  0  0  0
 16 21  1  0  0  0
 16 31  1  0  0  0
 17 18  1  0  0  0
 17 98  1  0  0  0
 18 19  2  0  0  0
 18 99  1  0  0  0
 19 20  1  0  0  0
 19 24  1  0  0  0
 20 21  2  0  0  0
 20100  1  0  0  0
 21 23  1  0  0  0
 22 28  1  0  0  0
 22 32  2  0  0  0
 26 27  1  0  0  0
 28101  1  0  0  0
 28102  1  0  0  0
 29103  1  0  0  0
 29104  1  0  0  0
 33 34  1  0  0  0
 33 66  1  0  0  0
 33 70  2  0  0  0
 34 36  1  0  0  0
 34 59  1  0  0  0
 34105  1  0  0  0
 35 44  2  0  0  0
 35 45  1  0  0  0
 35 68  1  0  0  0
 36 56  1  0  0  0
 36106  1  0  0  0
 37 39  1  0  0  0
 37 47  1  0  0  0
 37 66  1  0  0  0
 37107  1  0  0  0
 38 43  2  0  0  0
 38 46  1  0  0  0
 38 47  1  0  0  0
 39 64  1  0  0  0
 39 67  2  0  0  0
 40 52  1  0  0  0
 40 53  2  0  0  0
 40 58  1  0  0  0
 41108  1  0  0  0
 41109  1  0  0  0
 41110  1  0  0  0
 41 48  1  0  0  0
 42 43  1  0  0  0
 42 66  1  0  0  0
 42111  1  0  0  0
 42112  1  0  0  0
 43 44  1  0  0  0
 44113  1  0  0  0
 45 46  2  0  0  0
 45114  1  0  0  0
 46115  1  0  0  0
 47116  1  0  0  0
 47117  1  0  0  0
 48 56  1  0  0  0
 48 65  1  0  0  0
 48118  1  0  0  0
 49 50  1  0  0  0
 49 53  1  0  0  0
 49 64  1  0  0  0
 49119  1  0  0  0
 50 51  1  0  0  0
 50120  1  0  0  0
 50121  1  0  0  0
 51 52  1  0  0  0
 51122  1  0  0  0
 51123  1  0  0  0
 52124  1  0  0  0
 52125  1  0  0  0
 53 54  1  0  0  0
 54 55  2  0  0  0
 54126  1  0  0  0
 55 57  1  0  0  0
 55127  1  0  0  0
 56 69  2  0  0  0
 57 58  2  0  0  0
 57128  1  0  0  0
 58129  1  0  0  0
 59 60  1  0  0  0
 59 61  1  0  0  0
 59 62  1  0  0  0
 60130  1  0  0  0
 60131  1  0  0  0
 60132  1  0  0  0
 61133  1  0  0  0
 61134  1  0  0  0
 61135  1  0  0  0
 62136  1  0  0  0
 62137  1  0  0  0
 62138  1  0  0  0
 63 65  1  0  0  0
 63139  1  0  0  0
 63140  1  0  0  0
 63141  1  0  0  0
 64142  1  0  0  0
 65143  1  0  0  0
 68 79  1  0  0  0
 71 73  2  0  0  0
 71 75  1  0  0  0
 71144  1  0  0  0
 72 74  1  0  0  0
 72 75  2  0  0  0
 72145  1  0  0  0
 73 76  1  0  0  0
 73 78  1  0  0  0
 74 76  2  0  0  0
 74 80  1  0  0  0
 75 83  1  0  0  0
 76 84  1  0  0  0
 77 79  1  0  0  0
 77 81  1  0  0  0
 77 82  2  0  0  0
 78 81  1  0  0  0
 78146  1  0  0  0
 78147  1  0  0  0
 79148  1  0  0  0
 79149  1  0  0  0
 80150  1  0  0  0
 81151  1  0  0  0
M  ISO  4   1 100  68 101  79 101  80 100
M  END
> <chiral flag>
0

> <version>
0

> <s_m_source_file>
/data/baiqing/PycharmProjects/Reinvent-master-3.2/result/LINK_invent/BTK/process_docking_weight1_custom_product_contain_oxygen_bond_distance_aromatic_linkinvent_7_9_3/rearranged_h_0071.sdf

> <i_m_source_file_index>
44

> <r_mmod_Potential_Energy-OPLS-2005>
57.8845329284668

> <r_mmod_Stretch_Energy-OPLS-2005>
130.023681640625

> <r_mmod_Bend_Energy-OPLS-2005>
172.584518432617

> <r_mmod_Torsional_Energy-OPLS-2005>
202.771072387695

> <r_mmod_Improper_Torsional_Energy-OPLS-2005>
5.08464050292969

> <r_mmod_Van_der_Waal_Energy-OPLS-2005>
139.639038085938

> <r_mmod_Electrostatic_Energy-OPLS-2005>
-438.006652832031

> <r_mmod_Solvation_Energy-OPLS-2005>
-240.060775756836

> <b_mmod_Minimization_Converged-OPLS-2005>
0

> <r_mmod_RMS_Derivative-OPLS-2005>
1.47383904457092

$$$$
44
                    3D
 Structure written by MMmdl.
162170  0  0  1  0            999 V2000
  -30.5963  -14.6681   20.5030 C   0  0  0  0  0  0
  -30.4498  -12.4117   19.4504 C   0  0  0  0  0  0
  -29.5139  -12.5218   18.2246 C   0  0  0  0  0  0
  -28.0365  -12.3520   18.6359 C   0  0  0  0  0  0
  -27.6567  -13.2155   19.8680 C   0  0  2  0  0  0
  -28.7039  -13.0595   20.9947 C   0  0  0  0  0  0
  -25.2564  -13.8147   20.5675 C   0  0  0  0  0  0
  -24.1824  -13.0417   20.9147 C   0  0  0  0  0  0
  -24.6396  -11.6893   20.8710 C   0  0  0  0  0  0
  -23.9057  -10.4284   21.0388 C   0  0  0  0  0  0
  -24.3607   -9.4208   21.9176 C   0  0  0  0  0  0
  -23.6285   -8.2243   22.0752 C   0  0  0  0  0  0
  -22.4267   -8.0273   21.3544 C   0  0  0  0  0  0
  -21.9897   -9.0242   20.4646 C   0  0  0  0  0  0
  -22.7223  -10.2122   20.3046 C   0  0  0  0  0  0
  -21.6851   -6.0724   22.5277 C   0  0  0  0  0  0
  -21.4009   -6.5632   23.8210 C   0  0  0  0  0  0
  -21.3659   -5.6786   24.9175 C   0  0  0  0  0  0
  -21.6045   -4.3047   24.7227 C   0  0  0  0  0  0
  -21.8821   -3.8137   23.4349 C   0  0  0  0  0  0
  -21.9194   -4.6953   22.3401 C   0  0  0  0  0  0
  -22.7848  -13.5225   21.1830 C   0  0  0  0  0  0
  -22.1666   -4.2140   21.0979 F   0  0  0  0  0  0
  -21.5633   -3.4531   25.7737 F   0  0  0  0  0  0
  -30.0179  -13.4238   20.4358 N   0  0  0  0  0  0
  -26.3012  -12.9336   20.3343 N   0  0  0  0  0  0
  -25.9334  -11.6489   20.5746 N   0  0  0  0  0  0
  -22.0489  -12.8221   22.0392 N   0  0  0  0  0  0
  -25.4251  -15.1867   20.4136 N   0  0  0  0  0  0
  -31.7466  -14.8667   20.1009 O   0  0  0  0  0  0
  -21.6635   -6.8867   21.4239 O   0  0  0  0  0  0
  -22.3530  -14.5532   20.6690 O   0  0  0  0  0  0
  -24.6285  -31.8589   23.2006 C   0  0  0  0  0  0
  -25.9119  -32.4776   23.8340 C   0  0  1  0  0  0
  -27.2262  -27.3013   20.0972 C   0  0  0  0  0  0
  -25.5920  -33.8572   24.2272 N   0  0  0  0  0  0
  -23.4219  -30.4851   21.5443 C   0  0  2  0  0  0
  -24.8661  -28.9410   20.1067 C   0  0  0  0  0  0
  -22.7481  -29.4633   22.4920 C   0  0  0  0  0  0
  -18.0286  -28.1387   22.8493 C   0  0  0  0  0  0
  -24.1483  -36.7296   23.2638 C   0  0  0  0  0  0
  -25.9652  -30.7854   21.3706 C   0  0  0  0  0  0
  -26.0380  -29.4115   20.7104 C   0  0  0  0  0  0
  -27.2160  -28.6030   20.6995 C   0  0  0  0  0  0
  -26.0177  -26.8896   19.4828 C   0  0  0  0  0  0
  -24.8589  -27.6857   19.4856 C   0  0  0  0  0  0
  -23.6346  -29.8213   20.1592 C   0  0  0  0  0  0
  -25.4107  -36.3082   24.0328 C   0  0  1  0  0  0
  -20.5889  -28.3695   23.1271 C   0  0  2  0  0  0
  -20.6772  -26.9413   22.5408 C   0  0  0  0  0  0
  -19.5746  -26.6389   21.5210 C   0  0  0  0  0  0
  -18.1929  -26.7930   22.1629 C   0  0  0  0  0  0
  -19.1539  -28.8854   23.2883 C   0  0  0  0  0  0
  -18.9464  -30.1455   23.8904 C   0  0  0  0  0  0
  -17.6464  -30.6592   24.0567 C   0  0  0  0  0  0
  -25.9050  -34.9451   23.5105 C   0  0  0  0  0  0
  -16.5353  -29.9095   23.6333 C   0  0  0  0  0  0
  -16.7274  -28.6508   23.0361 C   0  0  0  0  0  0
  -26.4485  -31.6579   25.0712 C   0  0  0  0  0  0
  -25.3709  -31.3728   26.1434 C   0  0  0  0  0  0
  -27.0312  -30.2997   24.6157 C   0  0  0  0  0  0
  -27.6046  -32.4299   25.7492 C   0  0  0  0  0  0
  -27.5576  -37.1802   24.8461 C   0  0  0  0  0  0
  -21.4192  -29.3053   22.3667 N   0  0  0  0  0  0
  -26.4284  -37.3779   23.9411 N   0  0  0  0  0  0
  -24.6916  -31.0592   22.0959 N   0  0  0  0  0  0
  -23.4207  -28.8159   23.2985 O   0  0  0  0  0  0
  -28.3397  -26.4379   20.2040 O   0  0  0  0  0  0
  -26.5628  -34.8919   22.4677 O   0  0  0  0  0  0
  -23.5447  -32.1388   23.7333 O   0  0  0  0  0  0
  -28.3349  -19.1398   21.3448 C   0  0  0  0  0  0
  -30.6766  -18.0425   20.2844 C   0  0  0  0  0  0
  -29.3014  -20.0620   20.8678 C   0  0  0  0  0  0
  -29.7078  -17.1363   20.8124 C   0  0  0  0  0  0
  -28.5291  -17.7341   21.3169 C   0  0  0  0  0  0
  -30.4803  -19.4711   20.3138 C   0  0  0  0  0  0
  -29.1070  -21.5637   21.1966 C   0  0  0  0  0  0
  -28.3939  -25.0558   19.7537 C   0  0  0  0  0  0
  -30.9552  -24.3527   23.3879 C   0  0  0  0  0  0
  -31.5604  -24.3985   19.5223 C   0  0  0  0  0  0
  -31.5037  -23.9523   22.0104 C   0  0  0  0  0  0
  -29.2764  -24.0791   20.6595 C   0  0  2  0  0  0
  -30.7444  -24.5785   20.8177 C   0  0  2  0  0  0
  -29.7566  -15.6706   20.9092 N   0  0  0  0  0  0
  -29.2573  -22.5943   20.3075 N   0  0  0  0  0  0
  -28.7557  -21.8226   22.3499 O   0  0  0  0  0  0
  -27.8271  -24.6296   18.7441 O   0  0  0  0  0  0
  -27.5607  -16.9296   21.8162 F   0  0  0  0  0  0
  -31.4692  -20.2719   19.8487 F   0  0  0  0  0  0
  -31.4892  -12.5524   19.1478 H   0  0  0  0  0  0
  -30.3962  -11.4129   19.8856 H   0  0  0  0  0  0
  -29.7833  -11.7750   17.4763 H   0  0  0  0  0  0
  -29.6498  -13.4936   17.7466 H   0  0  0  0  0  0
  -27.8758  -11.2969   18.8606 H   0  0  0  0  0  0
  -27.3815  -12.5862   17.7958 H   0  0  0  0  0  0
  -27.6743  -14.2533   19.5334 H   0  0  0  0  0  0
  -28.7234  -12.0316   21.3593 H   0  0  0  0  0  0
  -28.4422  -13.6709   21.8598 H   0  0  0  0  0  0
  -25.2755   -9.5684   22.4746 H   0  0  0  0  0  0
  -23.9993   -7.4632   22.7473 H   0  0  0  0  0  0
  -21.0825   -8.8756   19.8955 H   0  0  0  0  0  0
  -22.3681  -10.9653   19.6145 H   0  0  0  0  0  0
  -21.1998   -7.6140   23.9705 H   0  0  0  0  0  0
  -21.1482   -6.0520   25.9076 H   0  0  0  0  0  0
  -22.0601   -2.7599   23.2847 H   0  0  0  0  0  0
  -22.4103  -11.9889   22.4793 H   0  0  0  0  0  0
  -21.1109  -13.1256   22.2595 H   0  0  0  0  0  0
  -24.6684  -15.8412   20.5742 H   0  0  0  0  0  0
  -26.3072  -15.6449   20.2241 H   0  0  0  0  0  0
  -26.7184  -32.5449   23.1085 H   0  0  0  0  0  0
  -25.0021  -33.9701   25.0385 H   0  0  0  0  0  0
  -22.7178  -31.3077   21.4012 H   0  0  0  0  0  0
  -23.3743  -35.9631   23.3296 H   0  0  0  0  0  0
  -24.3581  -36.8928   22.2055 H   0  0  0  0  0  0
  -23.7228  -37.6493   23.6665 H   0  0  0  0  0  0
  -26.0918  -31.5472   20.6001 H   0  0  0  0  0  0
  -26.8483  -30.8385   21.9958 H   0  0  0  0  0  0
  -28.1103  -28.9586   21.1916 H   0  0  0  0  0  0
  -25.9102  -25.9255   19.0154 H   0  0  0  0  0  0
  -23.9573  -27.3148   19.0172 H   0  0  0  0  0  0
  -23.7513  -30.5965   19.4012 H   0  0  0  0  0  0
  -22.7541  -29.2500   19.8590 H   0  0  0  0  0  0
  -25.1282  -36.1940   25.0819 H   0  0  0  0  0  0
  -20.9995  -28.3269   24.1386 H   0  0  0  0  0  0
  -20.5665  -26.2304   23.3613 H   0  0  0  0  0  0
  -21.6641  -26.7439   22.1201 H   0  0  0  0  0  0
  -19.6912  -25.6303   21.1235 H   0  0  0  0  0  0
  -19.6679  -27.3201   20.6739 H   0  0  0  0  0  0
  -17.4197  -26.6669   21.4036 H   0  0  0  0  0  0
  -18.0341  -26.0071   22.9026 H   0  0  0  0  0  0
  -19.7938  -30.7265   24.2279 H   0  0  0  0  0  0
  -17.5023  -31.6275   24.5167 H   0  0  0  0  0  0
  -15.5354  -30.3008   23.7649 H   0  0  0  0  0  0
  -15.8670  -28.0832   22.7079 H   0  0  0  0  0  0
  -24.5893  -30.7061   25.7770 H   0  0  0  0  0  0
  -24.8882  -32.2896   26.4829 H   0  0  0  0  0  0
  -25.8027  -30.8933   27.0227 H   0  0  0  0  0  0
  -26.2876  -29.6765   24.1171 H   0  0  0  0  0  0
  -27.3991  -29.7234   25.4656 H   0  0  0  0  0  0
  -27.8759  -30.4276   23.9382 H   0  0  0  0  0  0
  -27.2663  -33.3609   26.2052 H   0  0  0  0  0  0
  -28.3874  -32.6837   25.0331 H   0  0  0  0  0  0
  -28.0684  -31.8422   26.5425 H   0  0  0  0  0  0
  -28.2585  -38.0109   24.7525 H   0  0  0  0  0  0
  -28.1079  -36.2640   24.6265 H   0  0  0  0  0  0
  -27.2301  -37.1432   25.8866 H   0  0  0  0  0  0
  -20.9373  -29.8798   21.6892 H   0  0  0  0  0  0
  -26.0167  -38.2852   24.1423 H   0  0  0  0  0  0
  -27.4287  -19.5176   21.7947 H   0  0  0  0  0  0
  -31.5980  -17.6550   19.8752 H   0  0  0  0  0  0
  -31.5612  -23.9170   24.1831 H   0  0  0  0  0  0
  -29.9329  -24.0072   23.5391 H   0  0  0  0  0  0
  -30.9668  -25.4352   23.5197 H   0  0  0  0  0  0
  -32.5488  -24.8486   19.6176 H   0  0  0  0  0  0
  -31.0747  -24.8735   18.6693 H   0  0  0  0  0  0
  -31.7055  -23.3454   19.2797 H   0  0  0  0  0  0
  -31.5324  -22.8663   21.9220 H   0  0  0  0  0  0
  -32.5461  -24.2707   21.9699 H   0  0  0  0  0  0
  -28.8179  -24.1598   21.6441 H   0  0  0  0  0  0
  -30.7087  -25.6524   21.0108 H   0  0  0  0  0  0
  -28.8956  -15.2976   21.2816 H   0  0  0  0  0  0
  -29.4555  -22.3594   19.3458 H   0  0  0  0  0  0
  1 25  1  0  0  0
  1 30  2  0  0  0
  1 84  1  0  0  0
  2  3  1  0  0  0
  2 25  1  0  0  0
  2 90  1  0  0  0
  2 91  1  0  0  0
  3  4  1  0  0  0
  3 92  1  0  0  0
  3 93  1  0  0  0
  4  5  1  0  0  0
  4 94  1  0  0  0
  4 95  1  0  0  0
  5  6  1  0  0  0
  5 26  1  0  0  0
  5 96  1  0  0  0
  6 25  1  0  0  0
  6 97  1  0  0  0
  6 98  1  0  0  0
  7  8  2  0  0  0
  7 26  1  0  0  0
  7 29  1  0  0  0
  8  9  1  0  0  0
  8 22  1  0  0  0
  9 10  1  0  0  0
  9 27  2  0  0  0
 10 11  2  0  0  0
 10 15  1  0  0  0
 11 12  1  0  0  0
 11 99  1  0  0  0
 12 13  2  0  0  0
 12100  1  0  0  0
 13 14  1  0  0  0
 13 31  1  0  0  0
 14 15  2  0  0  0
 14101  1  0  0  0
 15102  1  0  0  0
 16 17  2  0  0  0
 16 21  1  0  0  0
 16 31  1  0  0  0
 17 18  1  0  0  0
 17103  1  0  0  0
 18 19  2  0  0  0
 18104  1  0  0  0
 19 20  1  0  0  0
 19 24  1  0  0  0
 20 21  2  0  0  0
 20105  1  0  0  0
 21 23  1  0  0  0
 22 28  1  0  0  0
 22 32  2  0  0  0
 26 27  1  0  0  0
 28106  1  0  0  0
 28107  1  0  0  0
 29108  1  0  0  0
 29109  1  0  0  0
 33 34  1  0  0  0
 33 66  1  0  0  0
 33 70  2  0  0  0
 34 36  1  0  0  0
 34 59  1  0  0  0
 34110  1  0  0  0
 35 44  2  0  0  0
 35 45  1  0  0  0
 35 68  1  0  0  0
 36 56  1  0  0  0
 36111  1  0  0  0
 37 39  1  0  0  0
 37 47  1  0  0  0
 37 66  1  0  0  0
 37112  1  0  0  0
 38 43  2  0  0  0
 38 46  1  0  0  0
 38 47  1  0  0  0
 39 64  1  0  0  0
 39 67  2  0  0  0
 40 52  1  0  0  0
 40 53  2  0  0  0
 40 58  1  0  0  0
 41113  1  0  0  0
 41114  1  0  0  0
 41115  1  0  0  0
 41 48  1  0  0  0
 42 43  1  0  0  0
 42 66  1  0  0  0
 42116  1  0  0  0
 42117  1  0  0  0
 43 44  1  0  0  0
 44118  1  0  0  0
 45 46  2  0  0  0
 45119  1  0  0  0
 46120  1  0  0  0
 47121  1  0  0  0
 47122  1  0  0  0
 48 56  1  0  0  0
 48 65  1  0  0  0
 48123  1  0  0  0
 49 50  1  0  0  0
 49 53  1  0  0  0
 49 64  1  0  0  0
 49124  1  0  0  0
 50 51  1  0  0  0
 50125  1  0  0  0
 50126  1  0  0  0
 51 52  1  0  0  0
 51127  1  0  0  0
 51128  1  0  0  0
 52129  1  0  0  0
 52130  1  0  0  0
 53 54  1  0  0  0
 54 55  2  0  0  0
 54131  1  0  0  0
 55 57  1  0  0  0
 55132  1  0  0  0
 56 69  2  0  0  0
 57 58  2  0  0  0
 57133  1  0  0  0
 58134  1  0  0  0
 59 60  1  0  0  0
 59 61  1  0  0  0
 59 62  1  0  0  0
 60135  1  0  0  0
 60136  1  0  0  0
 60137  1  0  0  0
 61138  1  0  0  0
 61139  1  0  0  0
 61140  1  0  0  0
 62141  1  0  0  0
 62142  1  0  0  0
 62143  1  0  0  0
 63 65  1  0  0  0
 63144  1  0  0  0
 63145  1  0  0  0
 63146  1  0  0  0
 64147  1  0  0  0
 65148  1  0  0  0
 68 78  1  0  0  0
 71 73  2  0  0  0
 71 75  1  0  0  0
 71149  1  0  0  0
 72 74  1  0  0  0
 72 76  2  0  0  0
 72150  1  0  0  0
 73 76  1  0  0  0
 73 77  1  0  0  0
 74 75  2  0  0  0
 74 84  1  0  0  0
 75 88  1  0  0  0
 76 89  1  0  0  0
 77 85  1  0  0  0
 77 86  2  0  0  0
 78 82  1  0  0  0
 78 87  2  0  0  0
 79 81  1  0  0  0
 79151  1  0  0  0
 79152  1  0  0  0
 79153  1  0  0  0
 80154  1  0  0  0
 80155  1  0  0  0
 80156  1  0  0  0
 80 83  1  0  0  0
 81 83  1  0  0  0
 81157  1  0  0  0
 81158  1  0  0  0
 82 83  1  0  0  0
 82 85  1  0  0  0
 82159  1  0  0  0
 83160  1  0  0  0
 84161  1  0  0  0
 85162  1  0  0  0
M  ISO  4   1 100  68 101  78 101  84 100
M  END
> <chiral flag>
0

> <version>
0

> <s_m_source_file>
/data/baiqing/PycharmProjects/Reinvent-master-3.2/result/LINK_invent/BTK/process_docking_weight1_custom_product_contain_oxygen_bond_distance_aromatic_linkinvent_7_9_3/rearranged_h_0071.sdf

> <i_m_source_file_index>
45

> <r_mmod_Potential_Energy-OPLS-2005>
37.8085861206055

> <r_mmod_Stretch_Energy-OPLS-2005>
97.6208877563477

> <r_mmod_Bend_Energy-OPLS-2005>
172.623352050781

> <r_mmod_Torsional_Energy-OPLS-2005>
268.496978759766

> <r_mmod_Improper_Torsional_Energy-OPLS-2005>
5.30097484588623

> <r_mmod_Van_der_Waal_Energy-OPLS-2005>
142.271102905273

> <r_mmod_Electrostatic_Energy-OPLS-2005>
-497.611053466797

> <r_mmod_Solvation_Energy-OPLS-2005>
-209.886199951172

> <b_mmod_Minimization_Converged-OPLS-2005>
0

> <r_mmod_RMS_Derivative-OPLS-2005>
1.07224214076996

$$$$
45
                    3D
 Structure written by MMmdl.
157166  0  0  1  0            999 V2000
  -30.6098  -14.7085   20.4358 C   0  0  0  0  0  0
  -30.4302  -12.4144   19.4806 C   0  0  0  0  0  0
  -29.5117  -12.4609   18.2387 C   0  0  0  0  0  0
  -28.0324  -12.3165   18.6454 C   0  0  0  0  0  0
  -27.6428  -13.2253   19.8430 C   0  0  2  0  0  0
  -28.6822  -13.1436   20.9832 C   0  0  0  0  0  0
  -25.2551  -13.8225   20.5729 C   0  0  0  0  0  0
  -24.1811  -13.0480   20.9196 C   0  0  0  0  0  0
  -24.6369  -11.6941   20.8730 C   0  0  0  0  0  0
  -23.9064  -10.4318   21.0403 C   0  0  0  0  0  0
  -24.3620   -9.4230   21.9166 C   0  0  0  0  0  0
  -23.6311   -8.2258   22.0733 C   0  0  0  0  0  0
  -22.4287   -8.0288   21.3528 C   0  0  0  0  0  0
  -21.9912   -9.0261   20.4624 C   0  0  0  0  0  0
  -22.7244  -10.2144   20.3050 C   0  0  0  0  0  0
  -21.6870   -6.0731   22.5274 C   0  0  0  0  0  0
  -21.4019   -6.5624   23.8202 C   0  0  0  0  0  0
  -21.3660   -5.6764   24.9161 C   0  0  0  0  0  0
  -21.6049   -4.3028   24.7207 C   0  0  0  0  0  0
  -21.8831   -3.8127   23.4331 C   0  0  0  0  0  0
  -21.9210   -4.6959   22.3391 C   0  0  0  0  0  0
  -22.7837  -13.5297   21.1859 C   0  0  0  0  0  0
  -22.1671   -4.2153   21.0959 F   0  0  0  0  0  0
  -21.5618   -3.4505   25.7721 F   0  0  0  0  0  0
  -29.9941  -13.4786   20.4144 N   0  0  0  0  0  0
  -26.2929  -12.9400   20.3219 N   0  0  0  0  0  0
  -25.9290  -11.6553   20.5707 N   0  0  0  0  0  0
  -22.0473  -12.8307   22.0408 N   0  0  0  0  0  0
  -25.4365  -15.1949   20.4298 N   0  0  0  0  0  0
  -31.7861  -14.8159   20.0759 O   0  0  0  0  0  0
  -21.6653   -6.8889   21.4235 O   0  0  0  0  0  0
  -22.3543  -14.5596   20.6691 O   0  0  0  0  0  0
  -24.6313  -31.8564   23.1993 C   0  0  0  0  0  0
  -25.9135  -32.4768   23.8341 C   0  0  1  0  0  0
  -27.2223  -27.2734   20.1269 C   0  0  0  0  0  0
  -25.5927  -33.8568   24.2256 N   0  0  0  0  0  0
  -23.4269  -30.4801   21.5429 C   0  0  2  0  0  0
  -24.8735  -28.9321   20.1078 C   0  0  0  0  0  0
  -22.7504  -29.4609   22.4918 C   0  0  0  0  0  0
  -18.0287  -28.1398   22.8467 C   0  0  0  0  0  0
  -24.1486  -36.7283   23.2643 C   0  0  0  0  0  0
  -25.9723  -30.7737   21.3770 C   0  0  0  0  0  0
  -26.0456  -29.3984   20.7167 C   0  0  0  0  0  0
  -27.2222  -28.5828   20.7135 C   0  0  0  0  0  0
  -26.0250  -26.8764   19.4844 C   0  0  0  0  0  0
  -24.8689  -27.6789   19.4786 C   0  0  0  0  0  0
  -23.6432  -29.8170   20.1574 C   0  0  0  0  0  0
  -25.4111  -36.3077   24.0331 C   0  0  1  0  0  0
  -20.5886  -28.3696   23.1263 C   0  0  2  0  0  0
  -20.6768  -26.9414   22.5401 C   0  0  0  0  0  0
  -19.5747  -26.6381   21.5200 C   0  0  0  0  0  0
  -18.1930  -26.7938   22.1611 C   0  0  0  0  0  0
  -19.1540  -28.8865   23.2858 C   0  0  0  0  0  0
  -18.9475  -30.1461   23.8883 C   0  0  0  0  0  0
  -17.6477  -30.6590   24.0557 C   0  0  0  0  0  0
  -25.9053  -34.9451   23.5100 C   0  0  0  0  0  0
  -16.5364  -29.9086   23.6332 C   0  0  0  0  0  0
  -16.7277  -28.6507   23.0345 C   0  0  0  0  0  0
  -26.4492  -31.6604   25.0737 C   0  0  0  0  0  0
  -25.3716  -31.3751   26.1459 C   0  0  0  0  0  0
  -27.0337  -30.3023   24.6226 C   0  0  0  0  0  0
  -27.6047  -32.4351   25.7506 C   0  0  0  0  0  0
  -27.5576  -37.1796   24.8461 C   0  0  0  0  0  0
  -21.4210  -29.3039   22.3662 N   0  0  0  0  0  0
  -26.4278  -37.3784   23.9422 N   0  0  0  0  0  0
  -24.6960  -31.0541   22.0961 N   0  0  0  0  0  0
  -23.4206  -28.8140   23.3011 O   0  0  0  0  0  0
  -28.3189  -26.3806   20.2027 O   0  0  0  0  0  0
  -26.5633  -34.8931   22.4673 O   0  0  0  0  0  0
  -23.5458  -32.1391   23.7281 O   0  0  0  0  0  0
  -29.5949  -19.6543   18.6025 C   0  0  0  0  0  0
  -29.6925  -18.4314   17.9177 C   0  0  0  0  0  0
  -29.6983  -18.4318   20.6973 C   0  0  0  0  0  0
  -29.5844  -19.7229   20.0119 C   0  0  0  0  0  0
  -29.8102  -17.2038   18.5964 C   0  0  0  0  0  0
  -29.8366  -17.1518   20.0160 C   0  0  0  0  0  0
  -29.7845  -22.7207   22.4495 C   0  0  0  0  0  0
  -30.0533  -21.3405   21.8471 C   0  0  0  0  0  0
  -28.7119  -22.2356   19.9819 C   0  0  0  0  0  0
  -29.0867  -23.7367   20.4364 C   0  0  1  0  0  0
  -28.0657  -24.9146   20.0011 C   0  0  0  0  0  0
  -29.2979  -23.7637   21.8767 N   0  0  0  0  0  0
  -29.4730  -21.0812   20.6389 N   0  0  0  0  0  0
  -29.8548  -16.0550   17.8098 N   0  0  0  0  0  0
  -29.8411  -15.8289   20.6932 N   0  0  0  0  0  0
  -30.7674  -20.5428   22.4674 O   0  0  0  0  0  0
  -31.4737  -12.5215   19.1820 H   0  0  0  0  0  0
  -30.3596  -11.4417   19.9680 H   0  0  0  0  0  0
  -29.7796  -11.6642   17.5423 H   0  0  0  0  0  0
  -29.6564  -13.3927   17.6958 H   0  0  0  0  0  0
  -27.8698  -11.2706   18.9110 H   0  0  0  0  0  0
  -27.3882  -12.5113   17.7873 H   0  0  0  0  0  0
  -27.6449  -14.2484   19.4627 H   0  0  0  0  0  0
  -28.7009  -12.1421   21.4157 H   0  0  0  0  0  0
  -28.4160  -13.8204   21.7953 H   0  0  0  0  0  0
  -25.2756   -9.5723   22.4748 H   0  0  0  0  0  0
  -24.0027   -7.4666   22.7469 H   0  0  0  0  0  0
  -21.0841   -8.8815   19.8929 H   0  0  0  0  0  0
  -22.3728  -10.9699   19.6177 H   0  0  0  0  0  0
  -21.1993   -7.6118   23.9715 H   0  0  0  0  0  0
  -21.1485   -6.0475   25.9072 H   0  0  0  0  0  0
  -22.0622   -2.7594   23.2834 H   0  0  0  0  0  0
  -22.4074  -11.9949   22.4752 H   0  0  0  0  0  0
  -21.1103  -13.1384   22.2643 H   0  0  0  0  0  0
  -24.6914  -15.8666   20.5794 H   0  0  0  0  0  0
  -26.3002  -15.6259   20.1226 H   0  0  0  0  0  0
  -26.7213  -32.5416   23.1094 H   0  0  0  0  0  0
  -25.0047  -33.9700   25.0381 H   0  0  0  0  0  0
  -22.7225  -31.3022   21.3993 H   0  0  0  0  0  0
  -23.3763  -35.9599   23.3300 H   0  0  0  0  0  0
  -24.3580  -36.8910   22.2058 H   0  0  0  0  0  0
  -23.7222  -37.6475   23.6674 H   0  0  0  0  0  0
  -26.1118  -31.5349   20.6085 H   0  0  0  0  0  0
  -26.8502  -30.8200   22.0096 H   0  0  0  0  0  0
  -28.1188  -28.9352   21.2044 H   0  0  0  0  0  0
  -25.9449  -25.9187   18.9919 H   0  0  0  0  0  0
  -23.9725  -27.3157   18.9935 H   0  0  0  0  0  0
  -23.7651  -30.5957   19.4036 H   0  0  0  0  0  0
  -22.7611  -29.2505   19.8525 H   0  0  0  0  0  0
  -25.1289  -36.1930   25.0821 H   0  0  0  0  0  0
  -20.9960  -28.3279   24.1392 H   0  0  0  0  0  0
  -20.5645  -26.2316   23.3608 H   0  0  0  0  0  0
  -21.6648  -26.7426   22.1220 H   0  0  0  0  0  0
  -19.6906  -25.6286   21.1245 H   0  0  0  0  0  0
  -19.6688  -27.3172   20.6716 H   0  0  0  0  0  0
  -17.4194  -26.6667   21.4026 H   0  0  0  0  0  0
  -18.0338  -26.0089   22.9016 H   0  0  0  0  0  0
  -19.7958  -30.7272   24.2255 H   0  0  0  0  0  0
  -17.5039  -31.6277   24.5151 H   0  0  0  0  0  0
  -15.5365  -30.2986   23.7678 H   0  0  0  0  0  0
  -15.8673  -28.0824   22.7067 H   0  0  0  0  0  0
  -24.5866  -30.7132   25.7785 H   0  0  0  0  0  0
  -24.8936  -32.2916   26.4928 H   0  0  0  0  0  0
  -25.8027  -30.8893   27.0219 H   0  0  0  0  0  0
  -26.2918  -29.6781   24.1228 H   0  0  0  0  0  0
  -27.3992  -29.7288   25.4756 H   0  0  0  0  0  0
  -27.8814  -30.4311   23.9490 H   0  0  0  0  0  0
  -27.2650  -33.3640   26.2103 H   0  0  0  0  0  0
  -28.3839  -32.6933   25.0322 H   0  0  0  0  0  0
  -28.0742  -31.8474   26.5405 H   0  0  0  0  0  0
  -28.2592  -38.0096   24.7540 H   0  0  0  0  0  0
  -28.1077  -36.2640   24.6246 H   0  0  0  0  0  0
  -27.2313  -37.1398   25.8867 H   0  0  0  0  0  0
  -20.9401  -29.8786   21.6881 H   0  0  0  0  0  0
  -26.0161  -38.2857   24.1439 H   0  0  0  0  0  0
  -29.5465  -20.5402   17.9907 H   0  0  0  0  0  0
  -29.6695  -18.4524   16.8374 H   0  0  0  0  0  0
  -29.6726  -18.4093   21.7767 H   0  0  0  0  0  0
  -30.0478  -22.8144   23.5062 H   0  0  0  0  0  0
  -28.7971  -22.2133   18.8989 H   0  0  0  0  0  0
  -27.6539  -22.0637   20.1863 H   0  0  0  0  0  0
  -30.0415  -23.9730   19.9608 H   0  0  0  0  0  0
  -27.1238  -24.6748   20.4953 H   0  0  0  0  0  0
  -27.8879  -24.7838   18.9333 H   0  0  0  0  0  0
  -29.9595  -16.1953   16.8116 H   0  0  0  0  0  0
  -30.4664  -15.3185   18.1415 H   0  0  0  0  0  0
  -28.9759  -15.6121   21.1643 H   0  0  0  0  0  0
  1 25  1  0  0  0
  1 30  2  0  0  0
  1 85  1  0  0  0
  2  3  1  0  0  0
  2 25  1  0  0  0
  2 87  1  0  0  0
  2 88  1  0  0  0
  3  4  1  0  0  0
  3 89  1  0  0  0
  3 90  1  0  0  0
  4  5  1  0  0  0
  4 91  1  0  0  0
  4 92  1  0  0  0
  5  6  1  0  0  0
  5 26  1  0  0  0
  5 93  1  0  0  0
  6 25  1  0  0  0
  6 94  1  0  0  0
  6 95  1  0  0  0
  7  8  2  0  0  0
  7 26  1  0  0  0
  7 29  1  0  0  0
  8  9  1  0  0  0
  8 22  1  0  0  0
  9 10  1  0  0  0
  9 27  2  0  0  0
 10 11  2  0  0  0
 10 15  1  0  0  0
 11 12  1  0  0  0
 11 96  1  0  0  0
 12 13  2  0  0  0
 12 97  1  0  0  0
 13 14  1  0  0  0
 13 31  1  0  0  0
 14 15  2  0  0  0
 14 98  1  0  0  0
 15 99  1  0  0  0
 16 17  2  0  0  0
 16 21  1  0  0  0
 16 31  1  0  0  0
 17 18  1  0  0  0
 17100  1  0  0  0
 18 19  2  0  0  0
 18101  1  0  0  0
 19 20  1  0  0  0
 19 24  1  0  0  0
 20 21  2  0  0  0
 20102  1  0  0  0
 21 23  1  0  0  0
 22 28  1  0  0  0
 22 32  2  0  0  0
 26 27  1  0  0  0
 28103  1  0  0  0
 28104  1  0  0  0
 29105  1  0  0  0
 29106  1  0  0  0
 33 34  1  0  0  0
 33 66  1  0  0  0
 33 70  2  0  0  0
 34 36  1  0  0  0
 34 59  1  0  0  0
 34107  1  0  0  0
 35 44  2  0  0  0
 35 45  1  0  0  0
 35 68  1  0  0  0
 36 56  1  0  0  0
 36108  1  0  0  0
 37 39  1  0  0  0
 37 47  1  0  0  0
 37 66  1  0  0  0
 37109  1  0  0  0
 38 43  2  0  0  0
 38 46  1  0  0  0
 38 47  1  0  0  0
 39 64  1  0  0  0
 39 67  2  0  0  0
 40 52  1  0  0  0
 40 53  2  0  0  0
 40 58  1  0  0  0
 41110  1  0  0  0
 41111  1  0  0  0
 41112  1  0  0  0
 41 48  1  0  0  0
 42 43  1  0  0  0
 42 66  1  0  0  0
 42113  1  0  0  0
 42114  1  0  0  0
 43 44  1  0  0  0
 44115  1  0  0  0
 45 46  2  0  0  0
 45116  1  0  0  0
 46117  1  0  0  0
 47118  1  0  0  0
 47119  1  0  0  0
 48 56  1  0  0  0
 48 65  1  0  0  0
 48120  1  0  0  0
 49 50  1  0  0  0
 49 53  1  0  0  0
 49 64  1  0  0  0
 49121  1  0  0  0
 50 51  1  0  0  0
 50122  1  0  0  0
 50123  1  0  0  0
 51 52  1  0  0  0
 51124  1  0  0  0
 51125  1  0  0  0
 52126  1  0  0  0
 52127  1  0  0  0
 53 54  1  0  0  0
 54 55  2  0  0  0
 54128  1  0  0  0
 55 57  1  0  0  0
 55129  1  0  0  0
 56 69  2  0  0  0
 57 58  2  0  0  0
 57130  1  0  0  0
 58131  1  0  0  0
 59 60  1  0  0  0
 59 61  1  0  0  0
 59 62  1  0  0  0
 60132  1  0  0  0
 60133  1  0  0  0
 60134  1  0  0  0
 61135  1  0  0  0
 61136  1  0  0  0
 61137  1  0  0  0
 62138  1  0  0  0
 62139  1  0  0  0
 62140  1  0  0  0
 63 65  1  0  0  0
 63141  1  0  0  0
 63142  1  0  0  0
 63143  1  0  0  0
 64144  1  0  0  0
 65145  1  0  0  0
 68 81  1  0  0  0
 71 72  2  0  0  0
 71 74  1  0  0  0
 71146  1  0  0  0
 72 75  1  0  0  0
 72147  1  0  0  0
 73 74  2  0  0  0
 73 76  1  0  0  0
 73148  1  0  0  0
 74 83  1  0  0  0
 75 76  2  0  0  0
 75 84  1  0  0  0
 76 85  1  0  0  0
 77 78  1  0  0  0
 77 82  2  0  0  0
 77149  1  0  0  0
 78 83  1  0  0  0
 78 86  2  0  0  0
 79 80  1  0  0  0
 79 83  1  0  0  0
 79150  1  0  0  0
 79151  1  0  0  0
 80 81  1  0  0  0
 80 82  1  0  0  0
 80152  1  0  0  0
 81153  1  0  0  0
 81154  1  0  0  0
 84155  1  0  0  0
 84156  1  0  0  0
 85157  1  0  0  0
M  ISO  4   1 100  68 101  81 101  85 100
M  END
> <chiral flag>
0

> <version>
0

> <s_m_source_file>
/data/baiqing/PycharmProjects/Reinvent-master-3.2/result/LINK_invent/BTK/process_docking_weight1_custom_product_contain_oxygen_bond_distance_aromatic_linkinvent_7_9_3/rearranged_h_0071.sdf

> <i_m_source_file_index>
46

> <r_mmod_Potential_Energy-OPLS-2005>
211.589233398438

> <r_mmod_Stretch_Energy-OPLS-2005>
130.899353027344

> <r_mmod_Bend_Energy-OPLS-2005>
160.376083374023

> <r_mmod_Torsional_Energy-OPLS-2005>
292.759033203125

> <r_mmod_Improper_Torsional_Energy-OPLS-2005>
10.2139339447021

> <r_mmod_Van_der_Waal_Energy-OPLS-2005>
175.622116088867

> <r_mmod_Electrostatic_Energy-OPLS-2005>
-390.679077148438

> <r_mmod_Solvation_Energy-OPLS-2005>
-244.002410888672

> <b_mmod_Minimization_Converged-OPLS-2005>
0

> <r_mmod_RMS_Derivative-OPLS-2005>
2.70433592796326

$$$$
46
                    3D
 Structure written by MMmdl.
167176  0  0  1  0            999 V2000
  -30.6409  -14.7535   20.4379 C   0  0  0  0  0  0
  -30.4189  -12.4564   19.4792 C   0  0  0  0  0  0
  -29.5038  -12.5012   18.2373 C   0  0  0  0  0  0
  -28.0321  -12.3270   18.6539 C   0  0  0  0  0  0
  -27.6370  -13.2385   19.8472 C   0  0  2  0  0  0
  -28.6827  -13.2024   20.9834 C   0  0  0  0  0  0
  -25.2491  -13.8215   20.5715 C   0  0  0  0  0  0
  -24.1787  -13.0446   20.9215 C   0  0  0  0  0  0
  -24.6394  -11.6927   20.8754 C   0  0  0  0  0  0
  -23.9073  -10.4297   21.0408 C   0  0  0  0  0  0
  -24.3624   -9.4214   21.9187 C   0  0  0  0  0  0
  -23.6301   -8.2246   22.0752 C   0  0  0  0  0  0
  -22.4282   -8.0281   21.3543 C   0  0  0  0  0  0
  -21.9920   -9.0257   20.4645 C   0  0  0  0  0  0
  -22.7246  -10.2139   20.3058 C   0  0  0  0  0  0
  -21.6858   -6.0739   22.5277 C   0  0  0  0  0  0
  -21.4014   -6.5641   23.8210 C   0  0  0  0  0  0
  -21.3659   -5.6796   24.9175 C   0  0  0  0  0  0
  -21.6044   -4.3057   24.7226 C   0  0  0  0  0  0
  -21.8818   -3.8147   23.4346 C   0  0  0  0  0  0
  -21.9193   -4.6965   22.3403 C   0  0  0  0  0  0
  -22.7808  -13.5220   21.1877 C   0  0  0  0  0  0
  -22.1663   -4.2149   21.0981 F   0  0  0  0  0  0
  -21.5631   -3.4540   25.7739 F   0  0  0  0  0  0
  -29.9803  -13.5434   20.3903 N   0  0  0  0  0  0
  -26.2920  -12.9432   20.3294 N   0  0  0  0  0  0
  -25.9328  -11.6567   20.5773 N   0  0  0  0  0  0
  -22.0465  -12.8196   22.0428 N   0  0  0  0  0  0
  -25.4184  -15.1938   20.4132 N   0  0  0  0  0  0
  -31.8375  -14.7584   20.1459 O   0  0  0  0  0  0
  -21.6646   -6.8880   21.4236 O   0  0  0  0  0  0
  -22.3488  -14.5530   20.6736 O   0  0  0  0  0  0
  -24.6313  -31.8543   23.1971 C   0  0  0  0  0  0
  -25.9137  -32.4749   23.8320 C   0  0  1  0  0  0
  -27.2152  -27.2572   20.1489 C   0  0  0  0  0  0
  -25.5940  -33.8550   24.2253 N   0  0  0  0  0  0
  -23.4286  -30.4749   21.5407 C   0  0  2  0  0  0
  -24.8759  -28.9162   20.1148 C   0  0  0  0  0  0
  -22.7502  -29.4593   22.4921 C   0  0  0  0  0  0
  -18.0290  -28.1390   22.8490 C   0  0  0  0  0  0
  -24.1488  -36.7271   23.2642 C   0  0  0  0  0  0
  -25.9732  -30.7682   21.3752 C   0  0  0  0  0  0
  -26.0477  -29.3890   20.7215 C   0  0  0  0  0  0
  -27.2248  -28.5737   20.7200 C   0  0  0  0  0  0
  -26.0248  -26.8452   19.5185 C   0  0  0  0  0  0
  -24.8704  -27.6530   19.5008 C   0  0  0  0  0  0
  -23.6465  -29.8033   20.1589 C   0  0  0  0  0  0
  -25.4114  -36.3063   24.0327 C   0  0  1  0  0  0
  -20.5893  -28.3694   23.1278 C   0  0  2  0  0  0
  -20.6779  -26.9410   22.5414 C   0  0  0  0  0  0
  -19.5754  -26.6381   21.5221 C   0  0  0  0  0  0
  -18.1930  -26.7937   22.1623 C   0  0  0  0  0  0
  -19.1545  -28.8858   23.2883 C   0  0  0  0  0  0
  -18.9468  -30.1463   23.8897 C   0  0  0  0  0  0
  -17.6467  -30.6595   24.0557 C   0  0  0  0  0  0
  -25.9052  -34.9434   23.5090 C   0  0  0  0  0  0
  -16.5358  -29.9083   23.6338 C   0  0  0  0  0  0
  -16.7275  -28.6503   23.0361 C   0  0  0  0  0  0
  -26.4506  -31.6580   25.0712 C   0  0  0  0  0  0
  -25.3722  -31.3725   26.1433 C   0  0  0  0  0  0
  -27.0367  -30.3005   24.6195 C   0  0  0  0  0  0
  -27.6074  -32.4318   25.7475 C   0  0  0  0  0  0
  -27.5579  -37.1789   24.8466 C   0  0  0  0  0  0
  -21.4209  -29.3043   22.3664 N   0  0  0  0  0  0
  -26.4289  -37.3767   23.9409 N   0  0  0  0  0  0
  -24.6968  -31.0505   22.0946 N   0  0  0  0  0  0
  -23.4198  -28.8141   23.3028 O   0  0  0  0  0  0
  -28.3031  -26.3614   20.1671 O   0  0  0  0  0  0
  -26.5626  -34.8915   22.4656 O   0  0  0  0  0  0
  -23.5461  -32.1362   23.7261 O   0  0  0  0  0  0
  -31.6747  -17.7174   20.1915 C   0  0  0  0  0  0
  -29.4183  -18.5399   20.4790 C   0  0  0  0  0  0
  -32.1495  -19.0285   19.9502 C   0  0  0  0  0  0
  -29.8560  -19.9245   20.2958 C   0  0  0  0  0  0
  -30.3185  -17.3875   20.4320 C   0  0  0  0  0  0
  -31.2312  -20.1127   20.0019 C   0  0  0  0  0  0
  -29.2948  -22.4322   20.7161 C   0  0  0  0  0  0
  -27.3270  -22.7417   19.4709 C   0  0  0  0  0  0
  -27.8008  -21.2542   19.4391 C   0  0  0  0  0  0
  -28.4995  -23.5930   19.9949 C   0  0  1  0  0  0
  -33.9868  -18.3622   18.3404 C   0  0  0  0  0  0
  -34.5150  -18.6619   20.7831 C   0  0  0  0  0  0
  -34.1321  -20.6239   19.3220 C   0  0  0  0  0  0
  -28.1108  -24.9851   20.7511 C   0  0  0  0  0  0
  -33.6585  -19.1815   19.6081 C   0  0  0  0  0  0
  -29.0000  -21.1548   20.2692 N   0  0  0  0  0  0
  -29.9202  -15.9451   20.6020 N   0  0  0  0  0  0
  -30.0925  -22.6793   21.6257 O   0  0  0  0  0  0
  -31.6471  -21.3633   19.6980 F   0  0  0  0  0  0
  -31.4624  -12.5528   19.1756 H   0  0  0  0  0  0
  -30.3454  -11.4885   19.9770 H   0  0  0  0  0  0
  -29.7872  -11.7215   17.5292 H   0  0  0  0  0  0
  -29.6298  -13.4514   17.7154 H   0  0  0  0  0  0
  -27.8947  -11.2804   18.9286 H   0  0  0  0  0  0
  -27.3718  -12.5069   17.8044 H   0  0  0  0  0  0
  -27.6236  -14.2546   19.4519 H   0  0  0  0  0  0
  -28.7209  -12.2168   21.4497 H   0  0  0  0  0  0
  -28.4200  -13.9069   21.7739 H   0  0  0  0  0  0
  -25.2773   -9.5690   22.4762 H   0  0  0  0  0  0
  -24.0013   -7.4636   22.7468 H   0  0  0  0  0  0
  -21.0855   -8.8769   19.8951 H   0  0  0  0  0  0
  -22.3702  -10.9674   19.6165 H   0  0  0  0  0  0
  -21.2003   -7.6151   23.9712 H   0  0  0  0  0  0
  -21.1483   -6.0530   25.9078 H   0  0  0  0  0  0
  -22.0597   -2.7609   23.2846 H   0  0  0  0  0  0
  -22.4096  -11.9858   22.4801 H   0  0  0  0  0  0
  -21.1080  -13.1197   22.2649 H   0  0  0  0  0  0
  -24.6500  -15.8463   20.5235 H   0  0  0  0  0  0
  -26.2638  -15.6330   20.0730 H   0  0  0  0  0  0
  -26.7197  -32.5405   23.1058 H   0  0  0  0  0  0
  -25.0103  -33.9685   25.0408 H   0  0  0  0  0  0
  -22.7265  -31.2975   21.3911 H   0  0  0  0  0  0
  -23.3765  -35.9591   23.3298 H   0  0  0  0  0  0
  -24.3583  -36.8896   22.2061 H   0  0  0  0  0  0
  -23.7228  -37.6460   23.6670 H   0  0  0  0  0  0
  -26.1083  -31.5262   20.6022 H   0  0  0  0  0  0
  -26.8516  -30.8214   22.0064 H   0  0  0  0  0  0
  -28.1253  -28.9311   21.1995 H   0  0  0  0  0  0
  -25.9815  -25.8709   19.0521 H   0  0  0  0  0  0
  -23.9724  -27.2844   19.0233 H   0  0  0  0  0  0
  -23.7681  -30.5768   19.3999 H   0  0  0  0  0  0
  -22.7644  -29.2359   19.8552 H   0  0  0  0  0  0
  -25.1289  -36.1911   25.0821 H   0  0  0  0  0  0
  -20.9988  -28.3274   24.1398 H   0  0  0  0  0  0
  -20.5700  -26.2296   23.3620 H   0  0  0  0  0  0
  -21.6638  -26.7447   22.1189 H   0  0  0  0  0  0
  -19.6917  -25.6293   21.1249 H   0  0  0  0  0  0
  -19.6694  -27.3193   20.6754 H   0  0  0  0  0  0
  -17.4200  -26.6704   21.4021 H   0  0  0  0  0  0
  -18.0319  -26.0072   22.9011 H   0  0  0  0  0  0
  -19.7943  -30.7285   24.2263 H   0  0  0  0  0  0
  -17.5014  -31.6280   24.5152 H   0  0  0  0  0  0
  -15.5355  -30.2982   23.7674 H   0  0  0  0  0  0
  -15.8676  -28.0816   22.7087 H   0  0  0  0  0  0
  -24.5911  -30.7058   25.7758 H   0  0  0  0  0  0
  -24.8888  -32.2884   26.4845 H   0  0  0  0  0  0
  -25.8032  -30.8916   27.0224 H   0  0  0  0  0  0
  -26.2949  -29.6741   24.1229 H   0  0  0  0  0  0
  -27.4072  -29.7285   25.4712 H   0  0  0  0  0  0
  -27.8813  -30.4291   23.9420 H   0  0  0  0  0  0
  -27.2710  -33.3648   26.2008 H   0  0  0  0  0  0
  -28.3910  -32.6829   25.0312 H   0  0  0  0  0  0
  -28.0714  -31.8461   26.5420 H   0  0  0  0  0  0
  -28.2589  -38.0097   24.7528 H   0  0  0  0  0  0
  -28.1084  -36.2628   24.6272 H   0  0  0  0  0  0
  -27.2294  -37.1401   25.8869 H   0  0  0  0  0  0
  -20.9400  -29.8754   21.6857 H   0  0  0  0  0  0
  -26.0169  -38.2836   24.1431 H   0  0  0  0  0  0
  -32.4196  -16.9466   20.1558 H   0  0  0  0  0  0
  -28.3675  -18.3634   20.6589 H   0  0  0  0  0  0
  -26.4724  -22.8337   20.1432 H   0  0  0  0  0  0
  -26.9952  -23.0751   18.4876 H   0  0  0  0  0  0
  -28.0533  -20.9547   18.4211 H   0  0  0  0  0  0
  -27.0231  -20.5794   19.7975 H   0  0  0  0  0  0
  -29.1362  -23.8612   19.1517 H   0  0  0  0  0  0
  -33.8076  -17.2950   18.4676 H   0  0  0  0  0  0
  -35.0345  -18.4687   18.0568 H   0  0  0  0  0  0
  -33.3879  -18.6953   17.4920 H   0  0  0  0  0  0
  -34.3598  -17.6017   20.9830 H   0  0  0  0  0  0
  -34.2910  -19.2041   21.7027 H   0  0  0  0  0  0
  -35.5804  -18.7876   20.5843 H   0  0  0  0  0  0
  -33.6203  -21.0552   18.4609 H   0  0  0  0  0  0
  -35.1972  -20.6544   19.0898 H   0  0  0  0  0  0
  -33.9823  -21.2802   20.1800 H   0  0  0  0  0  0
  -28.6939  -25.0115   21.6719 H   0  0  0  0  0  0
  -27.0855  -24.8958   21.1125 H   0  0  0  0  0  0
  -28.9429  -15.7945   20.8028 H   0  0  0  0  0  0
  1 25  1  0  0  0
  1 30  2  0  0  0
  1 87  1  0  0  0
  2  3  1  0  0  0
  2 25  1  0  0  0
  2 90  1  0  0  0
  2 91  1  0  0  0
  3  4  1  0  0  0
  3 92  1  0  0  0
  3 93  1  0  0  0
  4  5  1  0  0  0
  4 94  1  0  0  0
  4 95  1  0  0  0
  5  6  1  0  0  0
  5 26  1  0  0  0
  5 96  1  0  0  0
  6 25  1  0  0  0
  6 97  1  0  0  0
  6 98  1  0  0  0
  7  8  2  0  0  0
  7 26  1  0  0  0
  7 29  1  0  0  0
  8  9  1  0  0  0
  8 22  1  0  0  0
  9 10  1  0  0  0
  9 27  2  0  0  0
 10 11  2  0  0  0
 10 15  1  0  0  0
 11 12  1  0  0  0
 11 99  1  0  0  0
 12 13  2  0  0  0
 12100  1  0  0  0
 13 14  1  0  0  0
 13 31  1  0  0  0
 14 15  2  0  0  0
 14101  1  0  0  0
 15102  1  0  0  0
 16 17  2  0  0  0
 16 21  1  0  0  0
 16 31  1  0  0  0
 17 18  1  0  0  0
 17103  1  0  0  0
 18 19  2  0  0  0
 18104  1  0  0  0
 19 20  1  0  0  0
 19 24  1  0  0  0
 20 21  2  0  0  0
 20105  1  0  0  0
 21 23  1  0  0  0
 22 28  1  0  0  0
 22 32  2  0  0  0
 26 27  1  0  0  0
 28106  1  0  0  0
 28107  1  0  0  0
 29108  1  0  0  0
 29109  1  0  0  0
 33 34  1  0  0  0
 33 66  1  0  0  0
 33 70  2  0  0  0
 34 36  1  0  0  0
 34 59  1  0  0  0
 34110  1  0  0  0
 35 44  2  0  0  0
 35 45  1  0  0  0
 35 68  1  0  0  0
 36 56  1  0  0  0
 36111  1  0  0  0
 37 39  1  0  0  0
 37 47  1  0  0  0
 37 66  1  0  0  0
 37112  1  0  0  0
 38 43  2  0  0  0
 38 46  1  0  0  0
 38 47  1  0  0  0
 39 64  1  0  0  0
 39 67  2  0  0  0
 40 52  1  0  0  0
 40 53  2  0  0  0
 40 58  1  0  0  0
 41113  1  0  0  0
 41114  1  0  0  0
 41115  1  0  0  0
 41 48  1  0  0  0
 42 43  1  0  0  0
 42 66  1  0  0  0
 42116  1  0  0  0
 42117  1  0  0  0
 43 44  1  0  0  0
 44118  1  0  0  0
 45 46  2  0  0  0
 45119  1  0  0  0
 46120  1  0  0  0
 47121  1  0  0  0
 47122  1  0  0  0
 48 56  1  0  0  0
 48 65  1  0  0  0
 48123  1  0  0  0
 49 50  1  0  0  0
 49 53  1  0  0  0
 49 64  1  0  0  0
 49124  1  0  0  0
 50 51  1  0  0  0
 50125  1  0  0  0
 50126  1  0  0  0
 51 52  1  0  0  0
 51127  1  0  0  0
 51128  1  0  0  0
 52129  1  0  0  0
 52130  1  0  0  0
 53 54  1  0  0  0
 54 55  2  0  0  0
 54131  1  0  0  0
 55 57  1  0  0  0
 55132  1  0  0  0
 56 69  2  0  0  0
 57 58  2  0  0  0
 57133  1  0  0  0
 58134  1  0  0  0
 59 60  1  0  0  0
 59 61  1  0  0  0
 59 62  1  0  0  0
 60135  1  0  0  0
 60136  1  0  0  0
 60137  1  0  0  0
 61138  1  0  0  0
 61139  1  0  0  0
 61140  1  0  0  0
 62141  1  0  0  0
 62142  1  0  0  0
 62143  1  0  0  0
 63 65  1  0  0  0
 63144  1  0  0  0
 63145  1  0  0  0
 63146  1  0  0  0
 64147  1  0  0  0
 65148  1  0  0  0
 68 84  1  0  0  0
 71 73  2  0  0  0
 71 75  1  0  0  0
 71149  1  0  0  0
 72 74  1  0  0  0
 72 75  2  0  0  0
 72150  1  0  0  0
 73 76  1  0  0  0
 73 85  1  0  0  0
 74 76  2  0  0  0
 74 86  1  0  0  0
 75 87  1  0  0  0
 76 89  1  0  0  0
 77 80  1  0  0  0
 77 86  1  0  0  0
 77 88  2  0  0  0
 78 79  1  0  0  0
 78 80  1  0  0  0
 78151  1  0  0  0
 78152  1  0  0  0
 79 86  1  0  0  0
 79153  1  0  0  0
 79154  1  0  0  0
 80 84  1  0  0  0
 80155  1  0  0  0
 81156  1  0  0  0
 81157  1  0  0  0
 81158  1  0  0  0
 81 85  1  0  0  0
 82 85  1  0  0  0
 82159  1  0  0  0
 82160  1  0  0  0
 82161  1  0  0  0
 83 85  1  0  0  0
 83162  1  0  0  0
 83163  1  0  0  0
 83164  1  0  0  0
 84165  1  0  0  0
 84166  1  0  0  0
 87167  1  0  0  0
M  ISO  4   1 100  68 101  84 101  87 100
M  END
> <chiral flag>
0

> <version>
0

> <s_m_source_file>
/data/baiqing/PycharmProjects/Reinvent-master-3.2/result/LINK_invent/BTK/process_docking_weight1_custom_product_contain_oxygen_bond_distance_aromatic_linkinvent_7_9_3/rearranged_h_0071.sdf

> <i_m_source_file_index>
47

> <r_mmod_Potential_Energy-OPLS-2005>
317.638610839844

> <r_mmod_Stretch_Energy-OPLS-2005>
138.397567749023

> <r_mmod_Bend_Energy-OPLS-2005>
210.543731689453

> <r_mmod_Torsional_Energy-OPLS-2005>
307.938995361328

> <r_mmod_Improper_Torsional_Energy-OPLS-2005>
5.5389723777771

> <r_mmod_Van_der_Waal_Energy-OPLS-2005>
160.146942138672

> <r_mmod_Electrostatic_Energy-OPLS-2005>
-378.610778808594

> <r_mmod_Solvation_Energy-OPLS-2005>
-215.475723266602

> <b_mmod_Minimization_Converged-OPLS-2005>
0

> <r_mmod_RMS_Derivative-OPLS-2005>
1.21109008789062

$$$$
47
                    3D
 Structure written by MMmdl.
150158  0  0  1  0            999 V2000
  -30.6068  -14.6767   20.4859 C   0  0  0  0  0  0
  -30.4403  -12.4122   19.4593 C   0  0  0  0  0  0
  -29.5106  -12.5080   18.2285 C   0  0  0  0  0  0
  -28.0338  -12.3410   18.6395 C   0  0  0  0  0  0
  -27.6511  -13.2185   19.8608 C   0  0  2  0  0  0
  -28.6960  -13.0917   20.9924 C   0  0  0  0  0  0
  -25.2554  -13.8173   20.5683 C   0  0  0  0  0  0
  -24.1826  -13.0438   20.9196 C   0  0  0  0  0  0
  -24.6396  -11.6908   20.8743 C   0  0  0  0  0  0
  -23.9064  -10.4291   21.0407 C   0  0  0  0  0  0
  -24.3616   -9.4207   21.9184 C   0  0  0  0  0  0
  -23.6290   -8.2243   22.0754 C   0  0  0  0  0  0
  -22.4273   -8.0281   21.3543 C   0  0  0  0  0  0
  -21.9908   -9.0256   20.4647 C   0  0  0  0  0  0
  -22.7236  -10.2135   20.3057 C   0  0  0  0  0  0
  -21.6854   -6.0735   22.5278 C   0  0  0  0  0  0
  -21.4016   -6.5639   23.8211 C   0  0  0  0  0  0
  -21.3659   -5.6791   24.9173 C   0  0  0  0  0  0
  -21.6043   -4.3054   24.7224 C   0  0  0  0  0  0
  -21.8819   -3.8146   23.4345 C   0  0  0  0  0  0
  -21.9193   -4.6962   22.3401 C   0  0  0  0  0  0
  -22.7848  -13.5230   21.1856 C   0  0  0  0  0  0
  -22.1661   -4.2148   21.0978 F   0  0  0  0  0  0
  -21.5628   -3.4538   25.7737 F   0  0  0  0  0  0
  -30.0074  -13.4426   20.4260 N   0  0  0  0  0  0
  -26.2979  -12.9355   20.3306 N   0  0  0  0  0  0
  -25.9324  -11.6510   20.5756 N   0  0  0  0  0  0
  -22.0488  -12.8225   22.0413 N   0  0  0  0  0  0
  -25.4263  -15.1897   20.4085 N   0  0  0  0  0  0
  -31.7770  -14.8269   20.1216 O   0  0  0  0  0  0
  -21.6639   -6.8878   21.4240 O   0  0  0  0  0  0
  -22.3534  -14.5535   20.6701 O   0  0  0  0  0  0
  -24.6279  -31.8583   23.2013 C   0  0  0  0  0  0
  -25.9118  -32.4771   23.8346 C   0  0  1  0  0  0
  -27.2233  -27.3013   20.1185 C   0  0  0  0  0  0
  -25.5926  -33.8572   24.2272 N   0  0  0  0  0  0
  -23.4224  -30.4821   21.5443 C   0  0  2  0  0  0
  -24.8689  -28.9355   20.1105 C   0  0  0  0  0  0
  -22.7483  -29.4617   22.4927 C   0  0  0  0  0  0
  -18.0288  -28.1385   22.8486 C   0  0  0  0  0  0
  -24.1489  -36.7292   23.2639 C   0  0  0  0  0  0
  -25.9655  -30.7838   21.3751 C   0  0  0  0  0  0
  -26.0393  -29.4103   20.7158 C   0  0  0  0  0  0
  -27.2195  -28.6055   20.7085 C   0  0  0  0  0  0
  -26.0280  -26.8849   19.4874 C   0  0  0  0  0  0
  -24.8664  -27.6793   19.4868 C   0  0  0  0  0  0
  -23.6379  -29.8177   20.1596 C   0  0  0  0  0  0
  -25.4114  -36.3079   24.0328 C   0  0  1  0  0  0
  -20.5890  -28.3691   23.1278 C   0  0  2  0  0  0
  -20.6776  -26.9412   22.5409 C   0  0  0  0  0  0
  -19.5751  -26.6383   21.5212 C   0  0  0  0  0  0
  -18.1932  -26.7927   22.1626 C   0  0  0  0  0  0
  -19.1541  -28.8855   23.2878 C   0  0  0  0  0  0
  -18.9463  -30.1457   23.8895 C   0  0  0  0  0  0
  -17.6462  -30.6587   24.0563 C   0  0  0  0  0  0
  -25.9052  -34.9448   23.5101 C   0  0  0  0  0  0
  -16.5354  -29.9085   23.6329 C   0  0  0  0  0  0
  -16.7275  -28.6503   23.0351 C   0  0  0  0  0  0
  -26.4495  -31.6587   25.0724 C   0  0  0  0  0  0
  -25.3724  -31.3732   26.1449 C   0  0  0  0  0  0
  -27.0341  -30.3007   24.6192 C   0  0  0  0  0  0
  -27.6050  -32.4327   25.7497 C   0  0  0  0  0  0
  -27.5579  -37.1801   24.8464 C   0  0  0  0  0  0
  -21.4195  -29.3044   22.3670 N   0  0  0  0  0  0
  -26.4291  -37.3774   23.9407 N   0  0  0  0  0  0
  -24.6909  -31.0582   22.0970 N   0  0  0  0  0  0
  -23.4200  -28.8155   23.3011 O   0  0  0  0  0  0
  -28.3346  -26.4386   20.1737 O   0  0  0  0  0  0
  -26.5622  -34.8918   22.4669 O   0  0  0  0  0  0
  -23.5438  -32.1387   23.7332 O   0  0  0  0  0  0
  -31.0735  -19.3280   20.1619 C   0  0  0  0  0  0
  -28.8199  -19.4610   20.9662 C   0  0  0  0  0  0
  -31.0390  -17.9004   20.2188 C   0  0  0  0  0  0
  -28.7843  -18.0277   21.0253 C   0  0  0  0  0  0
  -29.9793  -20.1639   20.5416 C   0  0  0  0  0  0
  -29.8924  -17.1981   20.6727 C   0  0  0  0  0  0
  -30.1830  -21.7020   20.6515 C   0  0  0  0  0  0
  -29.3055  -24.0265   20.4400 C   0  0  0  0  0  0
  -28.1051  -24.9690   20.0188 C   0  0  0  0  0  0
  -29.7812  -15.7336   20.8002 N   0  0  0  0  0  0
  -29.2078  -22.6402   20.3729 N   0  0  0  0  0  0
  -31.3264  -22.0403   20.9800 O   0  0  0  0  0  0
  -30.3264  -24.6080   20.8290 O   0  0  0  0  0  0
  -31.4808  -12.5424   19.1569 H   0  0  0  0  0  0
  -30.3822  -11.4208   19.9114 H   0  0  0  0  0  0
  -29.7809  -11.7508   17.4914 H   0  0  0  0  0  0
  -29.6475  -13.4737   17.7388 H   0  0  0  0  0  0
  -27.8758  -11.2886   18.8782 H   0  0  0  0  0  0
  -27.3792  -12.5619   17.7955 H   0  0  0  0  0  0
  -27.6629  -14.2502   19.5094 H   0  0  0  0  0  0
  -28.7157  -12.0742   21.3857 H   0  0  0  0  0  0
  -28.4372  -13.7320   21.8371 H   0  0  0  0  0  0
  -25.2763   -9.5681   22.4757 H   0  0  0  0  0  0
  -23.9999   -7.4635   22.7474 H   0  0  0  0  0  0
  -21.0838   -8.8777   19.8954 H   0  0  0  0  0  0
  -22.3696  -10.9675   19.6166 H   0  0  0  0  0  0
  -21.2011   -7.6147   23.9714 H   0  0  0  0  0  0
  -21.1480   -6.0522   25.9076 H   0  0  0  0  0  0
  -22.0599   -2.7608   23.2847 H   0  0  0  0  0  0
  -22.4103  -11.9889   22.4805 H   0  0  0  0  0  0
  -21.1107  -13.1257   22.2617 H   0  0  0  0  0  0
  -24.6543  -15.8401   20.5078 H   0  0  0  0  0  0
  -26.2636  -15.6250   20.0439 H   0  0  0  0  0  0
  -26.7186  -32.5435   23.1093 H   0  0  0  0  0  0
  -25.0067  -33.9712   25.0412 H   0  0  0  0  0  0
  -22.7170  -31.3033   21.4009 H   0  0  0  0  0  0
  -23.3749  -35.9627   23.3302 H   0  0  0  0  0  0
  -24.3580  -36.8914   22.2054 H   0  0  0  0  0  0
  -23.7245  -37.6495   23.6662 H   0  0  0  0  0  0
  -26.1000  -31.5474   20.6076 H   0  0  0  0  0  0
  -26.8447  -30.8314   22.0061 H   0  0  0  0  0  0
  -28.1166  -28.9648   21.1932 H   0  0  0  0  0  0
  -25.9595  -25.9267   18.9951 H   0  0  0  0  0  0
  -23.9699  -27.3109   19.0072 H   0  0  0  0  0  0
  -23.7587  -30.5946   19.4038 H   0  0  0  0  0  0
  -22.7572  -29.2488   19.8561 H   0  0  0  0  0  0
  -25.1295  -36.1930   25.0820 H   0  0  0  0  0  0
  -20.9983  -28.3268   24.1398 H   0  0  0  0  0  0
  -20.5678  -26.2301   23.3610 H   0  0  0  0  0  0
  -21.6645  -26.7440   22.1202 H   0  0  0  0  0  0
  -19.6912  -25.6294   21.1242 H   0  0  0  0  0  0
  -19.6687  -27.3192   20.6742 H   0  0  0  0  0  0
  -17.4199  -26.6671   21.4032 H   0  0  0  0  0  0
  -18.0336  -26.0071   22.9026 H   0  0  0  0  0  0
  -19.7938  -30.7274   24.2263 H   0  0  0  0  0  0
  -17.5016  -31.6266   24.5165 H   0  0  0  0  0  0
  -15.5354  -30.2987   23.7653 H   0  0  0  0  0  0
  -15.8676  -28.0821   22.7067 H   0  0  0  0  0  0
  -24.5895  -30.7087   25.7777 H   0  0  0  0  0  0
  -24.8923  -32.2903   26.4872 H   0  0  0  0  0  0
  -25.8044  -30.8908   27.0225 H   0  0  0  0  0  0
  -26.2921  -29.6756   24.1209 H   0  0  0  0  0  0
  -27.4025  -29.7265   25.4703 H   0  0  0  0  0  0
  -27.8796  -30.4288   23.9429 H   0  0  0  0  0  0
  -27.2653  -33.3625   26.2072 H   0  0  0  0  0  0
  -28.3860  -32.6892   25.0327 H   0  0  0  0  0  0
  -28.0717  -31.8456   26.5416 H   0  0  0  0  0  0
  -28.2594  -38.0101   24.7513 H   0  0  0  0  0  0
  -28.1079  -36.2632   24.6286 H   0  0  0  0  0  0
  -27.2298  -37.1445   25.8867 H   0  0  0  0  0  0
  -20.9373  -29.8771   21.6884 H   0  0  0  0  0  0
  -26.0172  -38.2849   24.1409 H   0  0  0  0  0  0
  -31.9968  -19.7957   19.8482 H   0  0  0  0  0  0
  -27.9556  -20.0182   21.2998 H   0  0  0  0  0  0
  -31.9261  -17.3565   19.9275 H   0  0  0  0  0  0
  -27.8748  -17.5622   21.3794 H   0  0  0  0  0  0
  -27.2398  -24.6693   20.6114 H   0  0  0  0  0  0
  -27.8774  -24.7506   18.9752 H   0  0  0  0  0  0
  -28.8733  -15.4168   21.1032 H   0  0  0  0  0  0
  -28.3231  -22.2684   20.0655 H   0  0  0  0  0  0
  1 25  1  0  0  0
  1 30  2  0  0  0
  1 80  1  0  0  0
  2  3  1  0  0  0
  2 25  1  0  0  0
  2 84  1  0  0  0
  2 85  1  0  0  0
  3  4  1  0  0  0
  3 86  1  0  0  0
  3 87  1  0  0  0
  4  5  1  0  0  0
  4 88  1  0  0  0
  4 89  1  0  0  0
  5  6  1  0  0  0
  5 26  1  0  0  0
  5 90  1  0  0  0
  6 25  1  0  0  0
  6 91  1  0  0  0
  6 92  1  0  0  0
  7  8  2  0  0  0
  7 26  1  0  0  0
  7 29  1  0  0  0
  8  9  1  0  0  0
  8 22  1  0  0  0
  9 10  1  0  0  0
  9 27  2  0  0  0
 10 11  2  0  0  0
 10 15  1  0  0  0
 11 12  1  0  0  0
 11 93  1  0  0  0
 12 13  2  0  0  0
 12 94  1  0  0  0
 13 14  1  0  0  0
 13 31  1  0  0  0
 14 15  2  0  0  0
 14 95  1  0  0  0
 15 96  1  0  0  0
 16 17  2  0  0  0
 16 21  1  0  0  0
 16 31  1  0  0  0
 17 18  1  0  0  0
 17 97  1  0  0  0
 18 19  2  0  0  0
 18 98  1  0  0  0
 19 20  1  0  0  0
 19 24  1  0  0  0
 20 21  2  0  0  0
 20 99  1  0  0  0
 21 23  1  0  0  0
 22 28  1  0  0  0
 22 32  2  0  0  0
 26 27  1  0  0  0
 28100  1  0  0  0
 28101  1  0  0  0
 29102  1  0  0  0
 29103  1  0  0  0
 33 34  1  0  0  0
 33 66  1  0  0  0
 33 70  2  0  0  0
 34 36  1  0  0  0
 34 59  1  0  0  0
 34104  1  0  0  0
 35 44  2  0  0  0
 35 45  1  0  0  0
 35 68  1  0  0  0
 36 56  1  0  0  0
 36105  1  0  0  0
 37 39  1  0  0  0
 37 47  1  0  0  0
 37 66  1  0  0  0
 37106  1  0  0  0
 38 43  2  0  0  0
 38 46  1  0  0  0
 38 47  1  0  0  0
 39 64  1  0  0  0
 39 67  2  0  0  0
 40 52  1  0  0  0
 40 53  2  0  0  0
 40 58  1  0  0  0
 41107  1  0  0  0
 41108  1  0  0  0
 41109  1  0  0  0
 41 48  1  0  0  0
 42 43  1  0  0  0
 42 66  1  0  0  0
 42110  1  0  0  0
 42111  1  0  0  0
 43 44  1  0  0  0
 44112  1  0  0  0
 45 46  2  0  0  0
 45113  1  0  0  0
 46114  1  0  0  0
 47115  1  0  0  0
 47116  1  0  0  0
 48 56  1  0  0  0
 48 65  1  0  0  0
 48117  1  0  0  0
 49 50  1  0  0  0
 49 53  1  0  0  0
 49 64  1  0  0  0
 49118  1  0  0  0
 50 51  1  0  0  0
 50119  1  0  0  0
 50120  1  0  0  0
 51 52  1  0  0  0
 51121  1  0  0  0
 51122  1  0  0  0
 52123  1  0  0  0
 52124  1  0  0  0
 53 54  1  0  0  0
 54 55  2  0  0  0
 54125  1  0  0  0
 55 57  1  0  0  0
 55126  1  0  0  0
 56 69  2  0  0  0
 57 58  2  0  0  0
 57127  1  0  0  0
 58128  1  0  0  0
 59 60  1  0  0  0
 59 61  1  0  0  0
 59 62  1  0  0  0
 60129  1  0  0  0
 60130  1  0  0  0
 60131  1  0  0  0
 61132  1  0  0  0
 61133  1  0  0  0
 61134  1  0  0  0
 62135  1  0  0  0
 62136  1  0  0  0
 62137  1  0  0  0
 63 65  1  0  0  0
 63138  1  0  0  0
 63139  1  0  0  0
 63140  1  0  0  0
 64141  1  0  0  0
 65142  1  0  0  0
 68 79  1  0  0  0
 71 73  2  0  0  0
 71 75  1  0  0  0
 71143  1  0  0  0
 72 74  1  0  0  0
 72 75  2  0  0  0
 72144  1  0  0  0
 73 76  1  0  0  0
 73145  1  0  0  0
 74 76  2  0  0  0
 74146  1  0  0  0
 75 77  1  0  0  0
 76 80  1  0  0  0
 77 81  1  0  0  0
 77 82  2  0  0  0
 78 79  1  0  0  0
 78 81  1  0  0  0
 78 83  2  0  0  0
 79147  1  0  0  0
 79148  1  0  0  0
 80149  1  0  0  0
 81150  1  0  0  0
M  ISO  4   1 100  68 101  79 101  80 100
M  END
> <chiral flag>
0

> <version>
0

> <s_m_source_file>
/data/baiqing/PycharmProjects/Reinvent-master-3.2/result/LINK_invent/BTK/process_docking_weight1_custom_product_contain_oxygen_bond_distance_aromatic_linkinvent_7_9_3/rearranged_h_0071.sdf

> <i_m_source_file_index>
48

> <r_mmod_Potential_Energy-OPLS-2005>
-55.1184234619141

> <r_mmod_Stretch_Energy-OPLS-2005>
92.2701950073242

> <r_mmod_Bend_Energy-OPLS-2005>
148.72624206543

> <r_mmod_Torsional_Energy-OPLS-2005>
220.304656982422

> <r_mmod_Improper_Torsional_Energy-OPLS-2005>
5.15767621994019

> <r_mmod_Van_der_Waal_Energy-OPLS-2005>
152.321136474609

> <r_mmod_Electrostatic_Energy-OPLS-2005>
-438.132751464844

> <r_mmod_Solvation_Energy-OPLS-2005>
-295.065979003906

> <b_mmod_Minimization_Converged-OPLS-2005>
0

> <r_mmod_RMS_Derivative-OPLS-2005>
0.221084013581276

$$$$
48
                    3D
 Structure written by MMmdl.
161170  0  0  1  0            999 V2000
  -30.6687  -14.6375   20.7050 C   0  0  0  0  0  0
  -30.4352  -12.4461   19.4779 C   0  0  0  0  0  0
  -29.5132  -12.5769   18.2436 C   0  0  0  0  0  0
  -28.0498  -12.3232   18.6389 C   0  0  0  0  0  0
  -27.6476  -13.2016   19.8407 C   0  0  2  0  0  0
  -28.6594  -13.0541   20.9856 C   0  0  0  0  0  0
  -25.2586  -13.8127   20.5616 C   0  0  0  0  0  0
  -24.1861  -13.0426   20.9177 C   0  0  0  0  0  0
  -24.6389  -11.6879   20.8700 C   0  0  0  0  0  0
  -23.9030  -10.4294   21.0434 C   0  0  0  0  0  0
  -24.3608   -9.4220   21.9211 C   0  0  0  0  0  0
  -23.6308   -8.2239   22.0745 C   0  0  0  0  0  0
  -22.4282   -8.0284   21.3532 C   0  0  0  0  0  0
  -21.9918   -9.0256   20.4645 C   0  0  0  0  0  0
  -22.7208  -10.2141   20.3085 C   0  0  0  0  0  0
  -21.6838   -6.0774   22.5283 C   0  0  0  0  0  0
  -21.3981   -6.5681   23.8214 C   0  0  0  0  0  0
  -21.3655   -5.6833   24.9177 C   0  0  0  0  0  0
  -21.6027   -4.3094   24.7227 C   0  0  0  0  0  0
  -21.8821   -3.8195   23.4349 C   0  0  0  0  0  0
  -21.9195   -4.7008   22.3408 C   0  0  0  0  0  0
  -22.7912  -13.5240   21.1934 C   0  0  0  0  0  0
  -22.1699   -4.2195   21.0987 F   0  0  0  0  0  0
  -21.5623   -3.4578   25.7734 F   0  0  0  0  0  0
  -30.0088  -13.4263   20.5062 N   0  0  0  0  0  0
  -26.2920  -12.9248   20.3093 N   0  0  0  0  0  0
  -25.9266  -11.6415   20.5571 N   0  0  0  0  0  0
  -22.0552  -12.8184   22.0464 N   0  0  0  0  0  0
  -25.4469  -15.1823   20.4095 N   0  0  0  0  0  0
  -31.6871  -14.8792   20.0502 O   0  0  0  0  0  0
  -21.6625   -6.8903   21.4236 O   0  0  0  0  0  0
  -22.3608  -14.5569   20.6797 O   0  0  0  0  0  0
  -24.6331  -31.8527   23.1987 C   0  0  0  0  0  0
  -25.9166  -32.4729   23.8327 C   0  0  1  0  0  0
  -27.2226  -27.2659   20.1286 C   0  0  0  0  0  0
  -25.5905  -33.8533   24.2210 N   0  0  0  0  0  0
  -23.4309  -30.4782   21.5416 C   0  0  2  0  0  0
  -24.8844  -28.9320   20.1026 C   0  0  0  0  0  0
  -22.7516  -29.4612   22.4898 C   0  0  0  0  0  0
  -18.0301  -28.1370   22.8489 C   0  0  0  0  0  0
  -24.1493  -36.7293   23.2644 C   0  0  0  0  0  0
  -25.9798  -30.7668   21.3857 C   0  0  0  0  0  0
  -26.0546  -29.3932   20.7195 C   0  0  0  0  0  0
  -27.2305  -28.5688   20.7295 C   0  0  0  0  0  0
  -26.0384  -26.8910   19.4510 C   0  0  0  0  0  0
  -24.8778  -27.6881   19.4580 C   0  0  0  0  0  0
  -23.6493  -29.8120   20.1598 C   0  0  0  0  0  0
  -25.4114  -36.3036   24.0327 C   0  0  1  0  0  0
  -20.5905  -28.3693   23.1269 C   0  0  2  0  0  0
  -20.6766  -26.9397   22.5420 C   0  0  0  0  0  0
  -19.5745  -26.6364   21.5224 C   0  0  0  0  0  0
  -18.1931  -26.7908   22.1640 C   0  0  0  0  0  0
  -19.1555  -28.8853   23.2870 C   0  0  0  0  0  0
  -18.9460  -30.1449   23.8880 C   0  0  0  0  0  0
  -17.6448  -30.6579   24.0550 C   0  0  0  0  0  0
  -25.9060  -34.9422   23.5096 C   0  0  0  0  0  0
  -16.5344  -29.9066   23.6315 C   0  0  0  0  0  0
  -16.7279  -28.6485   23.0355 C   0  0  0  0  0  0
  -26.4488  -31.6563   25.0735 C   0  0  0  0  0  0
  -25.3663  -31.3803   26.1445 C   0  0  0  0  0  0
  -27.0353  -30.2935   24.6325 C   0  0  0  0  0  0
  -27.5996  -32.4326   25.7517 C   0  0  0  0  0  0
  -27.5582  -37.1792   24.8459 C   0  0  0  0  0  0
  -21.4219  -29.3063   22.3671 N   0  0  0  0  0  0
  -26.4266  -37.3747   23.9414 N   0  0  0  0  0  0
  -24.6996  -31.0512   22.0962 N   0  0  0  0  0  0
  -23.4216  -28.8105   23.2968 O   0  0  0  0  0  0
  -28.2166  -26.2632   20.2686 O   0  0  0  0  0  0
  -26.5670  -34.8903   22.4689 O   0  0  0  0  0  0
  -23.5480  -32.1355   23.7292 O   0  0  0  0  0  0
  -29.2317  -18.9196   19.9859 C   0  0  0  0  0  0
  -29.6038  -17.5419   20.2171 C   0  0  0  0  0  0
  -29.5882  -19.3860   22.2805 C   0  0  0  0  0  0
  -29.9636  -18.0244   22.5307 C   0  0  0  0  0  0
  -29.1926  -19.8968   21.0235 C   0  0  0  0  0  0
  -29.9588  -16.9948   21.4996 C   0  0  0  0  0  0
  -27.9954  -23.6986   20.9576 C   0  0  0  0  0  0
  -27.3464  -21.4048   21.5233 C   0  0  0  0  0  0
  -27.7057  -25.0616   20.8425 C   0  0  0  0  0  0
  -30.0801  -14.9413   22.9522 C   0  0  0  0  0  0
  -26.9440  -22.8623   21.6396 C   0  0  0  0  0  0
  -29.0951  -22.6237   20.5795 C   0  0  0  0  0  0
  -30.3078  -17.8014   23.9979 C   0  0  0  0  0  0
  -31.0161  -13.8176   23.4739 C   0  0  0  0  0  0
  -28.5486  -21.2377   20.9378 N   0  0  0  0  0  0
  -30.2497  -15.5101   21.7122 N   0  0  0  0  0  0
  -26.6051  -20.5040   21.9302 O   0  0  0  0  0  0
  -29.1025  -15.2074   23.6596 O   0  0  0  0  0  0
  -31.4751  -12.5933   19.1864 H   0  0  0  0  0  0
  -30.3879  -11.4285   19.8756 H   0  0  0  0  0  0
  -29.8263  -11.8839   17.4621 H   0  0  0  0  0  0
  -29.6084  -13.5827   17.8224 H   0  0  0  0  0  0
  -27.9593  -11.2694   18.9061 H   0  0  0  0  0  0
  -27.3830  -12.4807   17.7894 H   0  0  0  0  0  0
  -27.6700  -14.2341   19.4909 H   0  0  0  0  0  0
  -28.6649  -12.0300   21.3565 H   0  0  0  0  0  0
  -28.2719  -13.6478   21.8066 H   0  0  0  0  0  0
  -25.2750   -9.5690   22.4814 H   0  0  0  0  0  0
  -24.0018   -7.4607   22.7456 H   0  0  0  0  0  0
  -21.0859   -8.8770   19.8962 H   0  0  0  0  0  0
  -22.3671  -10.9698   19.6227 H   0  0  0  0  0  0
  -21.1940   -7.6177   23.9721 H   0  0  0  0  0  0
  -21.1487   -6.0569   25.9075 H   0  0  0  0  0  0
  -22.0601   -2.7666   23.2826 H   0  0  0  0  0  0
  -22.4118  -11.9727   22.4649 H   0  0  0  0  0  0
  -21.1213  -13.1253   22.2818 H   0  0  0  0  0  0
  -24.6967  -15.8536   20.5200 H   0  0  0  0  0  0
  -26.3200  -15.6088   20.1238 H   0  0  0  0  0  0
  -26.7224  -32.5360   23.1078 H   0  0  0  0  0  0
  -24.9854  -33.9615   25.0232 H   0  0  0  0  0  0
  -22.7247  -31.2990   21.3953 H   0  0  0  0  0  0
  -23.3717  -35.9664   23.3315 H   0  0  0  0  0  0
  -24.3581  -36.8911   22.2047 H   0  0  0  0  0  0
  -23.7305  -37.6514   23.6676 H   0  0  0  0  0  0
  -26.1339  -31.5316   20.6244 H   0  0  0  0  0  0
  -26.8500  -30.8027   22.0291 H   0  0  0  0  0  0
  -28.1134  -28.9010   21.2554 H   0  0  0  0  0  0
  -25.9833  -25.9242   18.9714 H   0  0  0  0  0  0
  -23.9815  -27.3260   18.9763 H   0  0  0  0  0  0
  -23.7576  -30.5849   19.3988 H   0  0  0  0  0  0
  -22.7690  -29.2370   19.8637 H   0  0  0  0  0  0
  -25.1306  -36.1869   25.0802 H   0  0  0  0  0  0
  -20.9983  -28.3269   24.1404 H   0  0  0  0  0  0
  -20.5630  -26.2311   23.3642 H   0  0  0  0  0  0
  -21.6628  -26.7386   22.1232 H   0  0  0  0  0  0
  -19.6883  -25.6275   21.1265 H   0  0  0  0  0  0
  -19.6665  -27.3160   20.6730 H   0  0  0  0  0  0
  -17.4177  -26.6645   21.4063 H   0  0  0  0  0  0
  -18.0328  -26.0080   22.9048 H   0  0  0  0  0  0
  -19.7934  -30.7284   24.2237 H   0  0  0  0  0  0
  -17.4997  -31.6263   24.5143 H   0  0  0  0  0  0
  -15.5340  -30.2943   23.7673 H   0  0  0  0  0  0
  -15.8676  -28.0792   22.7069 H   0  0  0  0  0  0
  -24.5806  -30.7203   25.7772 H   0  0  0  0  0  0
  -24.8914  -32.3006   26.4848 H   0  0  0  0  0  0
  -25.7919  -30.8976   27.0266 H   0  0  0  0  0  0
  -26.3022  -29.6748   24.1117 H   0  0  0  0  0  0
  -27.3687  -29.7167   25.4973 H   0  0  0  0  0  0
  -27.9034  -30.4153   23.9846 H   0  0  0  0  0  0
  -27.2592  -33.3675   26.1991 H   0  0  0  0  0  0
  -28.3867  -32.6817   25.0382 H   0  0  0  0  0  0
  -28.0585  -31.8524   26.5548 H   0  0  0  0  0  0
  -28.2585  -38.0093   24.7467 H   0  0  0  0  0  0
  -28.1072  -36.2621   24.6310 H   0  0  0  0  0  0
  -27.2294  -37.1489   25.8853 H   0  0  0  0  0  0
  -20.9377  -29.8801   21.6916 H   0  0  0  0  0  0
  -26.0154  -38.2823   24.1358 H   0  0  0  0  0  0
  -28.9121  -19.2167   18.9963 H   0  0  0  0  0  0
  -29.5596  -16.8804   19.3611 H   0  0  0  0  0  0
  -29.5246  -20.0662   23.1184 H   0  0  0  0  0  0
  -26.7766  -25.3153   21.3395 H   0  0  0  0  0  0
  -25.9725  -23.0096   21.1668 H   0  0  0  0  0  0
  -26.8766  -23.1371   22.6929 H   0  0  0  0  0  0
  -29.9878  -22.8116   21.1818 H   0  0  0  0  0  0
  -29.3805  -22.6759   19.5285 H   0  0  0  0  0  0
  -30.7291  -18.7004   24.4479 H   0  0  0  0  0  0
  -31.0413  -17.0139   24.1626 H   0  0  0  0  0  0
  -29.3901  -17.5816   24.5467 H   0  0  0  0  0  0
  -30.9762  -13.7708   24.5639 H   0  0  0  0  0  0
  -32.0664  -13.9855   23.2166 H   0  0  0  0  0  0
  -30.7098  -12.8291   23.1257 H   0  0  0  0  0  0
  1 25  1  0  0  0
  1 30  2  0  0  0
  1 86  1  0  0  0
  2  3  1  0  0  0
  2 25  1  0  0  0
  2 89  1  0  0  0
  2 90  1  0  0  0
  3  4  1  0  0  0
  3 91  1  0  0  0
  3 92  1  0  0  0
  4  5  1  0  0  0
  4 93  1  0  0  0
  4 94  1  0  0  0
  5  6  1  0  0  0
  5 26  1  0  0  0
  5 95  1  0  0  0
  6 25  1  0  0  0
  6 96  1  0  0  0
  6 97  1  0  0  0
  7  8  2  0  0  0
  7 26  1  0  0  0
  7 29  1  0  0  0
  8  9  1  0  0  0
  8 22  1  0  0  0
  9 10  1  0  0  0
  9 27  2  0  0  0
 10 11  2  0  0  0
 10 15  1  0  0  0
 11 12  1  0  0  0
 11 98  1  0  0  0
 12 13  2  0  0  0
 12 99  1  0  0  0
 13 14  1  0  0  0
 13 31  1  0  0  0
 14 15  2  0  0  0
 14100  1  0  0  0
 15101  1  0  0  0
 16 17  2  0  0  0
 16 21  1  0  0  0
 16 31  1  0  0  0
 17 18  1  0  0  0
 17102  1  0  0  0
 18 19  2  0  0  0
 18103  1  0  0  0
 19 20  1  0  0  0
 19 24  1  0  0  0
 20 21  2  0  0  0
 20104  1  0  0  0
 21 23  1  0  0  0
 22 28  1  0  0  0
 22 32  2  0  0  0
 26 27  1  0  0  0
 28105  1  0  0  0
 28106  1  0  0  0
 29107  1  0  0  0
 29108  1  0  0  0
 33 34  1  0  0  0
 33 66  1  0  0  0
 33 70  2  0  0  0
 34 36  1  0  0  0
 34 59  1  0  0  0
 34109  1  0  0  0
 35 44  2  0  0  0
 35 45  1  0  0  0
 35 68  1  0  0  0
 36 56  1  0  0  0
 36110  1  0  0  0
 37 39  1  0  0  0
 37 47  1  0  0  0
 37 66  1  0  0  0
 37111  1  0  0  0
 38 43  2  0  0  0
 38 46  1  0  0  0
 38 47  1  0  0  0
 39 64  1  0  0  0
 39 67  2  0  0  0
 40 52  1  0  0  0
 40 53  2  0  0  0
 40 58  1  0  0  0
 41112  1  0  0  0
 41113  1  0  0  0
 41114  1  0  0  0
 41 48  1  0  0  0
 42 43  1  0  0  0
 42 66  1  0  0  0
 42115  1  0  0  0
 42116  1  0  0  0
 43 44  1  0  0  0
 44117  1  0  0  0
 45 46  2  0  0  0
 45118  1  0  0  0
 46119  1  0  0  0
 47120  1  0  0  0
 47121  1  0  0  0
 48 56  1  0  0  0
 48 65  1  0  0  0
 48122  1  0  0  0
 49 50  1  0  0  0
 49 53  1  0  0  0
 49 64  1  0  0  0
 49123  1  0  0  0
 50 51  1  0  0  0
 50124  1  0  0  0
 50125  1  0  0  0
 51 52  1  0  0  0
 51126  1  0  0  0
 51127  1  0  0  0
 52128  1  0  0  0
 52129  1  0  0  0
 53 54  1  0  0  0
 54 55  2  0  0  0
 54130  1  0  0  0
 55 57  1  0  0  0
 55131  1  0  0  0
 56 69  2  0  0  0
 57 58  2  0  0  0
 57132  1  0  0  0
 58133  1  0  0  0
 59 60  1  0  0  0
 59 61  1  0  0  0
 59 62  1  0  0  0
 60134  1  0  0  0
 60135  1  0  0  0
 60136  1  0  0  0
 61137  1  0  0  0
 61138  1  0  0  0
 61139  1  0  0  0
 62140  1  0  0  0
 62141  1  0  0  0
 62142  1  0  0  0
 63 65  1  0  0  0
 63143  1  0  0  0
 63144  1  0  0  0
 63145  1  0  0  0
 64146  1  0  0  0
 65147  1  0  0  0
 68 79  1  0  0  0
 71 72  2  0  0  0
 71 75  1  0  0  0
 71148  1  0  0  0
 72 76  1  0  0  0
 72149  1  0  0  0
 73 74  1  0  0  0
 73 75  2  0  0  0
 73150  1  0  0  0
 74 76  2  0  0  0
 74 83  1  0  0  0
 75 85  1  0  0  0
 76 86  1  0  0  0
 77 79  2  0  0  0
 77 81  1  0  0  0
 77 82  1  0  0  0
 78 81  1  0  0  0
 78 85  1  0  0  0
 78 87  2  0  0  0
 79151  1  0  0  0
 80 84  1  0  0  0
 80 86  1  0  0  0
 80 88  2  0  0  0
 81152  1  0  0  0
 81153  1  0  0  0
 82 85  1  0  0  0
 82154  1  0  0  0
 82155  1  0  0  0
 83156  1  0  0  0
 83157  1  0  0  0
 83158  1  0  0  0
 84159  1  0  0  0
 84160  1  0  0  0
 84161  1  0  0  0
M  ISO  4   1 100  68 101  79 101  86 100
M  END
> <chiral flag>
0

> <version>
0

> <s_m_source_file>
/data/baiqing/PycharmProjects/Reinvent-master-3.2/result/LINK_invent/BTK/process_docking_weight1_custom_product_contain_oxygen_bond_distance_aromatic_linkinvent_7_9_3/rearranged_h_0071.sdf

> <i_m_source_file_index>
49

> <r_mmod_Potential_Energy-OPLS-2005>
515.848754882812

> <r_mmod_Stretch_Energy-OPLS-2005>
145.08952331543

> <r_mmod_Bend_Energy-OPLS-2005>
280.079559326172

> <r_mmod_Torsional_Energy-OPLS-2005>
363.935821533203

> <r_mmod_Improper_Torsional_Energy-OPLS-2005>
6.92045974731445

> <r_mmod_Van_der_Waal_Energy-OPLS-2005>
181.768524169922

> <r_mmod_Electrostatic_Energy-OPLS-2005>
-346.034912109375

> <r_mmod_Solvation_Energy-OPLS-2005>
-197.461380004883

> <b_mmod_Minimization_Converged-OPLS-2005>
0

> <r_mmod_RMS_Derivative-OPLS-2005>
6.94495010375977

$$$$
49
                    3D
 Structure written by MMmdl.
152160  0  0  1  0            999 V2000
  -30.6086  -14.6552   20.4954 C   0  0  0  0  0  0
  -30.4411  -12.4009   19.4544 C   0  0  0  0  0  0
  -29.5100  -12.5067   18.2252 C   0  0  0  0  0  0
  -28.0327  -12.3410   18.6359 C   0  0  0  0  0  0
  -27.6524  -13.2141   19.8609 C   0  0  2  0  0  0
  -28.6965  -13.0727   20.9920 C   0  0  0  0  0  0
  -25.2557  -13.8161   20.5661 C   0  0  0  0  0  0
  -24.1831  -13.0435   20.9203 C   0  0  0  0  0  0
  -24.6393  -11.6904   20.8748 C   0  0  0  0  0  0
  -23.9061  -10.4289   21.0411 C   0  0  0  0  0  0
  -24.3615   -9.4204   21.9185 C   0  0  0  0  0  0
  -23.6290   -8.2242   22.0757 C   0  0  0  0  0  0
  -22.4272   -8.0281   21.3547 C   0  0  0  0  0  0
  -21.9905   -9.0257   20.4651 C   0  0  0  0  0  0
  -22.7234  -10.2135   20.3059 C   0  0  0  0  0  0
  -21.6853   -6.0733   22.5278 C   0  0  0  0  0  0
  -21.4015   -6.5636   23.8211 C   0  0  0  0  0  0
  -21.3659   -5.6790   24.9174 C   0  0  0  0  0  0
  -21.6044   -4.3054   24.7224 C   0  0  0  0  0  0
  -21.8820   -3.8145   23.4345 C   0  0  0  0  0  0
  -21.9193   -4.6961   22.3400 C   0  0  0  0  0  0
  -22.7854  -13.5234   21.1858 C   0  0  0  0  0  0
  -22.1663   -4.2148   21.0977 F   0  0  0  0  0  0
  -21.5627   -3.4537   25.7736 F   0  0  0  0  0  0
  -30.0110  -13.4222   20.4305 N   0  0  0  0  0  0
  -26.2979  -12.9335   20.3292 N   0  0  0  0  0  0
  -25.9317  -11.6496   20.5751 N   0  0  0  0  0  0
  -22.0488  -12.8235   22.0413 N   0  0  0  0  0  0
  -25.4253  -15.1877   20.4004 N   0  0  0  0  0  0
  -31.7739  -14.8183   20.1196 O   0  0  0  0  0  0
  -21.6638   -6.8877   21.4241 O   0  0  0  0  0  0
  -22.3547  -14.5540   20.6700 O   0  0  0  0  0  0
  -24.6256  -31.8597   23.2018 C   0  0  0  0  0  0
  -25.9104  -32.4779   23.8350 C   0  0  1  0  0  0
  -27.2262  -27.3188   20.1258 C   0  0  0  0  0  0
  -25.5919  -33.8580   24.2279 N   0  0  0  0  0  0
  -23.4198  -30.4821   21.5443 C   0  0  2  0  0  0
  -24.8675  -28.9332   20.1143 C   0  0  0  0  0  0
  -22.7472  -29.4622   22.4938 C   0  0  0  0  0  0
  -18.0287  -28.1385   22.8487 C   0  0  0  0  0  0
  -24.1490  -36.7296   23.2640 C   0  0  0  0  0  0
  -25.9599  -30.7904   21.3728 C   0  0  0  0  0  0
  -26.0355  -29.4162   20.7185 C   0  0  0  0  0  0
  -27.2195  -28.6212   20.7125 C   0  0  0  0  0  0
  -26.0399  -26.8891   19.4921 C   0  0  0  0  0  0
  -24.8712  -27.6747   19.4920 C   0  0  0  0  0  0
  -23.6353  -29.8138   20.1608 C   0  0  0  0  0  0
  -25.4115  -36.3085   24.0330 C   0  0  1  0  0  0
  -20.5886  -28.3690   23.1285 C   0  0  2  0  0  0
  -20.6776  -26.9413   22.5409 C   0  0  0  0  0  0
  -19.5750  -26.6386   21.5212 C   0  0  0  0  0  0
  -18.1932  -26.7929   22.1628 C   0  0  0  0  0  0
  -19.1538  -28.8856   23.2882 C   0  0  0  0  0  0
  -18.9461  -30.1459   23.8897 C   0  0  0  0  0  0
  -17.6461  -30.6588   24.0564 C   0  0  0  0  0  0
  -25.9049  -34.9452   23.5106 C   0  0  0  0  0  0
  -16.5353  -29.9086   23.6328 C   0  0  0  0  0  0
  -16.7274  -28.6504   23.0349 C   0  0  0  0  0  0
  -26.4491  -31.6589   25.0720 C   0  0  0  0  0  0
  -25.3727  -31.3729   26.1451 C   0  0  0  0  0  0
  -27.0332  -30.3014   24.6171 C   0  0  0  0  0  0
  -27.6056  -32.4320   25.7484 C   0  0  0  0  0  0
  -27.5577  -37.1809   24.8469 C   0  0  0  0  0  0
  -21.4186  -29.3043   22.3678 N   0  0  0  0  0  0
  -26.4298  -37.3774   23.9401 N   0  0  0  0  0  0
  -24.6871  -31.0608   22.0967 N   0  0  0  0  0  0
  -23.4196  -28.8164   23.3019 O   0  0  0  0  0  0
  -28.3470  -26.4779   20.1400 O   0  0  0  0  0  0
  -26.5619  -34.8918   22.4674 O   0  0  0  0  0  0
  -23.5420  -32.1395   23.7346 O   0  0  0  0  0  0
  -28.6324  -19.3423   20.4867 C   0  0  0  0  0  0
  -31.0039  -19.2932   20.1130 C   0  0  0  0  0  0
  -28.6626  -17.9300   20.7206 C   0  0  0  0  0  0
  -31.0316  -17.8812   20.3323 C   0  0  0  0  0  0
  -29.8048  -20.0689   20.1527 C   0  0  0  0  0  0
  -29.8518  -17.1482   20.6236 C   0  0  0  0  0  0
  -29.8183  -21.5337   19.7250 C   0  0  0  0  0  0
  -29.1110  -24.0207   19.8406 C   0  0  0  0  0  0
  -28.1585  -25.0592   20.5506 C   0  0  0  0  0  0
  -29.7816  -15.6974   20.8343 N   0  0  0  0  0  0
  -29.0930  -22.5871   20.2567 N   0  0  0  0  0  0
  -30.6359  -21.7852   18.6964 N   0  3  0  0  0  0
  -29.8615  -24.4039   18.9324 O   0  0  0  0  0  0
  -31.4816  -12.5327   19.1518 H   0  0  0  0  0  0
  -30.3830  -11.4058   19.8984 H   0  0  0  0  0  0
  -29.7776  -11.7521   17.4843 H   0  0  0  0  0  0
  -29.6494  -13.4737   17.7395 H   0  0  0  0  0  0
  -27.8727  -11.2882   18.8709 H   0  0  0  0  0  0
  -27.3787  -12.5662   17.7928 H   0  0  0  0  0  0
  -27.6687  -14.2477   19.5157 H   0  0  0  0  0  0
  -28.7114  -12.0505   21.3733 H   0  0  0  0  0  0
  -28.4382  -13.7027   21.8448 H   0  0  0  0  0  0
  -25.2762   -9.5679   22.4756 H   0  0  0  0  0  0
  -24.0000   -7.4631   22.7474 H   0  0  0  0  0  0
  -21.0836   -8.8778   19.8956 H   0  0  0  0  0  0
  -22.3695  -10.9676   19.6170 H   0  0  0  0  0  0
  -21.2009   -7.6145   23.9716 H   0  0  0  0  0  0
  -21.1477   -6.0519   25.9077 H   0  0  0  0  0  0
  -22.0600   -2.7607   23.2846 H   0  0  0  0  0  0
  -22.4095  -11.9898   22.4811 H   0  0  0  0  0  0
  -21.1108  -13.1275   22.2612 H   0  0  0  0  0  0
  -24.6411  -15.8271   20.4704 H   0  0  0  0  0  0
  -26.2378  -15.6073   19.9683 H   0  0  0  0  0  0
  -26.7173  -32.5451   23.1099 H   0  0  0  0  0  0
  -25.0065  -33.9726   25.0422 H   0  0  0  0  0  0
  -22.7135  -31.3021   21.3995 H   0  0  0  0  0  0
  -23.3742  -35.9641   23.3325 H   0  0  0  0  0  0
  -24.3577  -36.8892   22.2050 H   0  0  0  0  0  0
  -23.7259  -37.6512   23.6646 H   0  0  0  0  0  0
  -26.0900  -31.5520   20.6027 H   0  0  0  0  0  0
  -26.8408  -30.8416   22.0010 H   0  0  0  0  0  0
  -28.1173  -28.9886   21.1896 H   0  0  0  0  0  0
  -26.0049  -25.9333   18.9896 H   0  0  0  0  0  0
  -23.9782  -27.3014   19.0097 H   0  0  0  0  0  0
  -23.7544  -30.5886   19.4025 H   0  0  0  0  0  0
  -22.7553  -29.2426   19.8596 H   0  0  0  0  0  0
  -25.1297  -36.1942   25.0823 H   0  0  0  0  0  0
  -20.9980  -28.3265   24.1405 H   0  0  0  0  0  0
  -20.5677  -26.2299   23.3609 H   0  0  0  0  0  0
  -21.6645  -26.7446   22.1200 H   0  0  0  0  0  0
  -19.6911  -25.6297   21.1241 H   0  0  0  0  0  0
  -19.6683  -27.3196   20.6741 H   0  0  0  0  0  0
  -17.4198  -26.6672   21.4035 H   0  0  0  0  0  0
  -18.0336  -26.0074   22.9027 H   0  0  0  0  0  0
  -19.7938  -30.7277   24.2261 H   0  0  0  0  0  0
  -17.5014  -31.6268   24.5168 H   0  0  0  0  0  0
  -15.5353  -30.2986   23.7653 H   0  0  0  0  0  0
  -15.8675  -28.0823   22.7059 H   0  0  0  0  0  0
  -24.5894  -30.7086   25.7782 H   0  0  0  0  0  0
  -24.8927  -32.2897   26.4884 H   0  0  0  0  0  0
  -25.8053  -30.8901   27.0221 H   0  0  0  0  0  0
  -26.2904  -29.6761   24.1203 H   0  0  0  0  0  0
  -27.4042  -29.7274   25.4674 H   0  0  0  0  0  0
  -27.8767  -30.4303   23.9384 H   0  0  0  0  0  0
  -27.2677  -33.3627   26.2054 H   0  0  0  0  0  0
  -28.3866  -32.6868   25.0307 H   0  0  0  0  0  0
  -28.0720  -31.8446   26.5403 H   0  0  0  0  0  0
  -28.2617  -38.0084   24.7488 H   0  0  0  0  0  0
  -28.1051  -36.2615   24.6333 H   0  0  0  0  0  0
  -27.2291  -37.1506   25.8873 H   0  0  0  0  0  0
  -20.9361  -29.8765   21.6890 H   0  0  0  0  0  0
  -26.0182  -38.2857   24.1376 H   0  0  0  0  0  0
  -27.6811  -19.8549   20.5262 H   0  0  0  0  0  0
  -31.9402  -19.7799   19.8768 H   0  0  0  0  0  0
  -27.7286  -17.4390   20.9544 H   0  0  0  0  0  0
  -31.9804  -17.3684   20.2613 H   0  0  0  0  0  0
  -28.3455  -25.0015   21.6228 H   0  0  0  0  0  0
  -27.1366  -24.7114   20.4104 H   0  0  0  0  0  0
  -28.8787  -15.3717   21.1405 H   0  0  0  0  0  0
  -28.4998  -22.2853   21.0149 H   0  0  0  0  0  0
  -31.1241  -21.0354   18.2330 H   0  0  0  0  0  0
  -30.7101  -22.7354   18.3527 H   0  0  0  0  0  0
  1 25  1  0  0  0
  1 30  2  0  0  0
  1 80  1  0  0  0
  2  3  1  0  0  0
  2 25  1  0  0  0
  2 84  1  0  0  0
  2 85  1  0  0  0
  3  4  1  0  0  0
  3 86  1  0  0  0
  3 87  1  0  0  0
  4  5  1  0  0  0
  4 88  1  0  0  0
  4 89  1  0  0  0
  5  6  1  0  0  0
  5 26  1  0  0  0
  5 90  1  0  0  0
  6 25  1  0  0  0
  6 91  1  0  0  0
  6 92  1  0  0  0
  7  8  2  0  0  0
  7 26  1  0  0  0
  7 29  1  0  0  0
  8  9  1  0  0  0
  8 22  1  0  0  0
  9 10  1  0  0  0
  9 27  2  0  0  0
 10 11  2  0  0  0
 10 15  1  0  0  0
 11 12  1  0  0  0
 11 93  1  0  0  0
 12 13  2  0  0  0
 12 94  1  0  0  0
 13 14  1  0  0  0
 13 31  1  0  0  0
 14 15  2  0  0  0
 14 95  1  0  0  0
 15 96  1  0  0  0
 16 17  2  0  0  0
 16 21  1  0  0  0
 16 31  1  0  0  0
 17 18  1  0  0  0
 17 97  1  0  0  0
 18 19  2  0  0  0
 18 98  1  0  0  0
 19 20  1  0  0  0
 19 24  1  0  0  0
 20 21  2  0  0  0
 20 99  1  0  0  0
 21 23  1  0  0  0
 22 28  1  0  0  0
 22 32  2  0  0  0
 26 27  1  0  0  0
 28100  1  0  0  0
 28101  1  0  0  0
 29102  1  0  0  0
 29103  1  0  0  0
 33 34  1  0  0  0
 33 66  1  0  0  0
 33 70  2  0  0  0
 34 36  1  0  0  0
 34 59  1  0  0  0
 34104  1  0  0  0
 35 44  2  0  0  0
 35 45  1  0  0  0
 35 68  1  0  0  0
 36 56  1  0  0  0
 36105  1  0  0  0
 37 39  1  0  0  0
 37 47  1  0  0  0
 37 66  1  0  0  0
 37106  1  0  0  0
 38 43  2  0  0  0
 38 46  1  0  0  0
 38 47  1  0  0  0
 39 64  1  0  0  0
 39 67  2  0  0  0
 40 52  1  0  0  0
 40 53  2  0  0  0
 40 58  1  0  0  0
 41107  1  0  0  0
 41108  1  0  0  0
 41109  1  0  0  0
 41 48  1  0  0  0
 42 43  1  0  0  0
 42 66  1  0  0  0
 42110  1  0  0  0
 42111  1  0  0  0
 43 44  1  0  0  0
 44112  1  0  0  0
 45 46  2  0  0  0
 45113  1  0  0  0
 46114  1  0  0  0
 47115  1  0  0  0
 47116  1  0  0  0
 48 56  1  0  0  0
 48 65  1  0  0  0
 48117  1  0  0  0
 49 50  1  0  0  0
 49 53  1  0  0  0
 49 64  1  0  0  0
 49118  1  0  0  0
 50 51  1  0  0  0
 50119  1  0  0  0
 50120  1  0  0  0
 51 52  1  0  0  0
 51121  1  0  0  0
 51122  1  0  0  0
 52123  1  0  0  0
 52124  1  0  0  0
 53 54  1  0  0  0
 54 55  2  0  0  0
 54125  1  0  0  0
 55 57  1  0  0  0
 55126  1  0  0  0
 56 69  2  0  0  0
 57 58  2  0  0  0
 57127  1  0  0  0
 58128  1  0  0  0
 59 60  1  0  0  0
 59 61  1  0  0  0
 59 62  1  0  0  0
 60129  1  0  0  0
 60130  1  0  0  0
 60131  1  0  0  0
 61132  1  0  0  0
 61133  1  0  0  0
 61134  1  0  0  0
 62135  1  0  0  0
 62136  1  0  0  0
 62137  1  0  0  0
 63 65  1  0  0  0
 63138  1  0  0  0
 63139  1  0  0  0
 63140  1  0  0  0
 64141  1  0  0  0
 65142  1  0  0  0
 68 79  1  0  0  0
 71 73  2  0  0  0
 71 75  1  0  0  0
 71143  1  0  0  0
 72 74  1  0  0  0
 72 75  2  0  0  0
 72144  1  0  0  0
 73 76  1  0  0  0
 73145  1  0  0  0
 74 76  2  0  0  0
 74146  1  0  0  0
 75 77  1  0  0  0
 76 80  1  0  0  0
 77 81  1  0  0  0
 77 82  2  0  0  0
 78 79  1  0  0  0
 78 81  1  0  0  0
 78 83  2  0  0  0
 79147  1  0  0  0
 79148  1  0  0  0
 80149  1  0  0  0
 81150  1  0  0  0
 82151  1  0  0  0
 82152  1  0  0  0
M  CHG  1  82   1
M  ISO  4   1 100  68 101  79 101  80 100
M  END
> <chiral flag>
0

> <version>
0

> <s_m_source_file>
/data/baiqing/PycharmProjects/Reinvent-master-3.2/result/LINK_invent/BTK/process_docking_weight1_custom_product_contain_oxygen_bond_distance_aromatic_linkinvent_7_9_3/rearranged_h_0071.sdf

> <i_m_source_file_index>
50

> <r_mmod_Potential_Energy-OPLS-2005>
-213.933837890625

> <r_mmod_Stretch_Energy-OPLS-2005>
85.8899307250977

> <r_mmod_Bend_Energy-OPLS-2005>
144.363891601562

> <r_mmod_Torsional_Energy-OPLS-2005>
224.400650024414

> <r_mmod_Improper_Torsional_Energy-OPLS-2005>
5.34828853607178

> <r_mmod_Van_der_Waal_Energy-OPLS-2005>
156.283920288086

> <r_mmod_Electrostatic_Energy-OPLS-2005>
-419.147979736328

> <r_mmod_Solvation_Energy-OPLS-2005>
-461.139282226562

> <b_mmod_Minimization_Converged-OPLS-2005>
0

> <r_mmod_RMS_Derivative-OPLS-2005>
0.407842755317688

$$$$
50
                    3D
 Structure written by MMmdl.
166175  0  0  1  0            999 V2000
  -30.6027  -14.6487   20.5161 C   0  0  0  0  0  0
  -30.4474  -12.4016   19.4482 C   0  0  0  0  0  0
  -29.5110  -12.5183   18.2236 C   0  0  0  0  0  0
  -28.0332  -12.3526   18.6341 C   0  0  0  0  0  0
  -27.6583  -13.2134   19.8698 C   0  0  2  0  0  0
  -28.7037  -13.0431   20.9953 C   0  0  0  0  0  0
  -25.2580  -13.8165   20.5689 C   0  0  0  0  0  0
  -24.1845  -13.0434   20.9206 C   0  0  0  0  0  0
  -24.6407  -11.6903   20.8751 C   0  0  0  0  0  0
  -23.9069  -10.4286   21.0409 C   0  0  0  0  0  0
  -24.3614   -9.4199   21.9187 C   0  0  0  0  0  0
  -23.6286   -8.2236   22.0756 C   0  0  0  0  0  0
  -22.4269   -8.0278   21.3546 C   0  0  0  0  0  0
  -21.9907   -9.0253   20.4649 C   0  0  0  0  0  0
  -22.7240  -10.2130   20.3058 C   0  0  0  0  0  0
  -21.6847   -6.0733   22.5282 C   0  0  0  0  0  0
  -21.4013   -6.5637   23.8217 C   0  0  0  0  0  0
  -21.3661   -5.6791   24.9180 C   0  0  0  0  0  0
  -21.6043   -4.3054   24.7230 C   0  0  0  0  0  0
  -21.8818   -3.8144   23.4351 C   0  0  0  0  0  0
  -21.9190   -4.6961   22.3406 C   0  0  0  0  0  0
  -22.7865  -13.5231   21.1862 C   0  0  0  0  0  0
  -22.1660   -4.2146   21.0984 F   0  0  0  0  0  0
  -21.5629   -3.4538   25.7743 F   0  0  0  0  0  0
  -30.0197  -13.4079   20.4417 N   0  0  0  0  0  0
  -26.3016  -12.9340   20.3346 N   0  0  0  0  0  0
  -25.9335  -11.6496   20.5766 N   0  0  0  0  0  0
  -22.0490  -12.8225   22.0409 N   0  0  0  0  0  0
  -25.4275  -15.1881   20.4046 N   0  0  0  0  0  0
  -31.7423  -14.8495   20.0844 O   0  0  0  0  0  0
  -21.6631   -6.8876   21.4243 O   0  0  0  0  0  0
  -22.3557  -14.5540   20.6710 O   0  0  0  0  0  0
  -24.6268  -31.8596   23.2016 C   0  0  0  0  0  0
  -25.9112  -32.4779   23.8347 C   0  0  1  0  0  0
  -27.2268  -27.3115   20.1156 C   0  0  0  0  0  0
  -25.5924  -33.8579   24.2275 N   0  0  0  0  0  0
  -23.4215  -30.4830   21.5440 C   0  0  2  0  0  0
  -24.8680  -28.9377   20.1093 C   0  0  0  0  0  0
  -22.7480  -29.4629   22.4928 C   0  0  0  0  0  0
  -18.0295  -28.1393   22.8494 C   0  0  0  0  0  0
  -24.1489  -36.7290   23.2639 C   0  0  0  0  0  0
  -25.9635  -30.7864   21.3755 C   0  0  0  0  0  0
  -26.0367  -29.4133   20.7169 C   0  0  0  0  0  0
  -27.2169  -28.6114   20.7122 C   0  0  0  0  0  0
  -26.0352  -26.8950   19.4763 C   0  0  0  0  0  0
  -24.8699  -27.6838   19.4803 C   0  0  0  0  0  0
  -23.6364  -29.8182   20.1589 C   0  0  0  0  0  0
  -25.4116  -36.3085   24.0329 C   0  0  1  0  0  0
  -20.5897  -28.3697   23.1282 C   0  0  2  0  0  0
  -20.6787  -26.9420   22.5412 C   0  0  0  0  0  0
  -19.5760  -26.6390   21.5219 C   0  0  0  0  0  0
  -18.1940  -26.7938   22.1629 C   0  0  0  0  0  0
  -19.1549  -28.8861   23.2886 C   0  0  0  0  0  0
  -18.9469  -30.1464   23.8899 C   0  0  0  0  0  0
  -17.6469  -30.6593   24.0570 C   0  0  0  0  0  0
  -25.9052  -34.9454   23.5103 C   0  0  0  0  0  0
  -16.5360  -29.9094   23.6334 C   0  0  0  0  0  0
  -16.7282  -28.6513   23.0353 C   0  0  0  0  0  0
  -26.4492  -31.6590   25.0720 C   0  0  0  0  0  0
  -25.3723  -31.3735   26.1444 C   0  0  0  0  0  0
  -27.0333  -30.3014   24.6178 C   0  0  0  0  0  0
  -27.6049  -32.4326   25.7493 C   0  0  0  0  0  0
  -27.5583  -37.1803   24.8467 C   0  0  0  0  0  0
  -21.4193  -29.3047   22.3668 N   0  0  0  0  0  0
  -26.4297  -37.3779   23.9409 N   0  0  0  0  0  0
  -24.6893  -31.0603   22.0968 N   0  0  0  0  0  0
  -23.4199  -28.8175   23.3016 O   0  0  0  0  0  0
  -28.3451  -26.4602   20.1803 O   0  0  0  0  0  0
  -26.5620  -34.8923   22.4672 O   0  0  0  0  0  0
  -23.5431  -32.1397   23.7340 O   0  0  0  0  0  0
  -28.6612  -19.2720   21.5538 C   0  0  0  0  0  0
  -30.6112  -17.9075   20.1059 C   0  0  0  0  0  0
  -28.7288  -17.8436   21.6293 C   0  0  0  0  0  0
  -30.5129  -19.3375   20.0231 C   0  0  0  0  0  0
  -29.5252  -20.0625   20.7572 C   0  0  0  0  0  0
  -29.7412  -17.1162   20.9111 C   0  0  0  0  0  0
  -29.1692  -22.4746   19.8853 C   0  0  0  0  0  0
  -27.7308  -17.1538   22.5199 C   0  0  0  0  0  0
  -29.1975  -23.6884   21.9193 C   0  0  0  0  0  0
  -29.6037  -22.2113   22.1264 C   0  0  0  0  0  0
  -29.2731  -23.9612   20.4070 C   0  0  1  0  0  0
  -31.5213  -20.0835   19.1668 C   0  0  0  0  0  0
  -26.4230  -17.8777   22.8256 C   0  0  0  0  0  0
  -30.6643  -24.4995   20.0126 C   0  0  0  0  0  0
  -28.1705  -25.0087   19.9036 C   0  0  0  0  0  0
  -29.4405  -21.5335   20.8422 N   0  0  0  0  0  0
  -29.7923  -15.6450   20.9959 N   0  0  0  0  0  0
  -28.8891  -22.2192   18.7105 O   0  0  0  0  0  0
  -27.8899  -16.0244   22.9926 O   0  0  0  0  0  0
  -31.4861  -12.5416   19.1437 H   0  0  0  0  0  0
  -30.3956  -11.3998   19.8776 H   0  0  0  0  0  0
  -29.7762  -11.7721   17.4732 H   0  0  0  0  0  0
  -29.6504  -13.4906   17.7482 H   0  0  0  0  0  0
  -27.8676  -11.2977   18.8557 H   0  0  0  0  0  0
  -27.3795  -12.5914   17.7943 H   0  0  0  0  0  0
  -27.6836  -14.2534   19.5440 H   0  0  0  0  0  0
  -28.7189  -12.0103   21.3463 H   0  0  0  0  0  0
  -28.4414  -13.6402   21.8688 H   0  0  0  0  0  0
  -25.2759   -9.5669   22.4764 H   0  0  0  0  0  0
  -23.9992   -7.4622   22.7471 H   0  0  0  0  0  0
  -21.0841   -8.8769   19.8952 H   0  0  0  0  0  0
  -22.3698  -10.9668   19.6168 H   0  0  0  0  0  0
  -21.2004   -7.6145   23.9720 H   0  0  0  0  0  0
  -21.1488   -6.0523   25.9084 H   0  0  0  0  0  0
  -22.0594   -2.7605   23.2855 H   0  0  0  0  0  0
  -22.4088  -11.9883   22.4807 H   0  0  0  0  0  0
  -21.1112  -13.1268   22.2609 H   0  0  0  0  0  0
  -24.6517  -15.8345   20.4946 H   0  0  0  0  0  0
  -26.2586  -15.6144   20.0169 H   0  0  0  0  0  0
  -26.7178  -32.5440   23.1089 H   0  0  0  0  0  0
  -25.0069  -33.9726   25.0420 H   0  0  0  0  0  0
  -22.7166  -31.3045   21.4009 H   0  0  0  0  0  0
  -23.3754  -35.9618   23.3308 H   0  0  0  0  0  0
  -24.3582  -36.8902   22.2053 H   0  0  0  0  0  0
  -23.7239  -37.6494   23.6654 H   0  0  0  0  0  0
  -26.0987  -31.5497   20.6082 H   0  0  0  0  0  0
  -26.8434  -30.8334   22.0058 H   0  0  0  0  0  0
  -28.1114  -28.9714   21.2010 H   0  0  0  0  0  0
  -25.9724  -25.9422   18.9725 H   0  0  0  0  0  0
  -23.9757  -27.3157   18.9958 H   0  0  0  0  0  0
  -23.7554  -30.5953   19.4027 H   0  0  0  0  0  0
  -22.7564  -29.2477   19.8561 H   0  0  0  0  0  0
  -25.1299  -36.1938   25.0822 H   0  0  0  0  0  0
  -20.9995  -28.3273   24.1401 H   0  0  0  0  0  0
  -20.5704  -26.2303   23.3613 H   0  0  0  0  0  0
  -21.6653  -26.7460   22.1194 H   0  0  0  0  0  0
  -19.6919  -25.6301   21.1249 H   0  0  0  0  0  0
  -19.6696  -27.3204   20.6751 H   0  0  0  0  0  0
  -17.4212  -26.6693   21.4030 H   0  0  0  0  0  0
  -18.0334  -26.0086   22.9029 H   0  0  0  0  0  0
  -19.7944  -30.7289   24.2261 H   0  0  0  0  0  0
  -17.5023  -31.6273   24.5174 H   0  0  0  0  0  0
  -15.5361  -30.2997   23.7655 H   0  0  0  0  0  0
  -15.8684  -28.0834   22.7057 H   0  0  0  0  0  0
  -24.5893  -30.7090   25.7771 H   0  0  0  0  0  0
  -24.8917  -32.2903   26.4867 H   0  0  0  0  0  0
  -25.8043  -30.8911   27.0220 H   0  0  0  0  0  0
  -26.2906  -29.6771   24.1195 H   0  0  0  0  0  0
  -27.4024  -29.7264   25.4681 H   0  0  0  0  0  0
  -27.8779  -30.4303   23.9407 H   0  0  0  0  0  0
  -27.2653  -33.3622   26.2077 H   0  0  0  0  0  0
  -28.3854  -32.6897   25.0318 H   0  0  0  0  0  0
  -28.0720  -31.8446   26.5406 H   0  0  0  0  0  0
  -28.2601  -38.0098   24.7517 H   0  0  0  0  0  0
  -28.1077  -36.2632   24.6290 H   0  0  0  0  0  0
  -27.2302  -37.1448   25.8870 H   0  0  0  0  0  0
  -20.9374  -29.8756   21.6866 H   0  0  0  0  0  0
  -26.0178  -38.2854   24.1409 H   0  0  0  0  0  0
  -27.9216  -19.8008   22.1368 H   0  0  0  0  0  0
  -31.3826  -17.4101   19.5347 H   0  0  0  0  0  0
  -29.8246  -24.3648   22.5011 H   0  0  0  0  0  0
  -28.1748  -23.8283   22.2730 H   0  0  0  0  0  0
  -29.0107  -21.7462   22.9141 H   0  0  0  0  0  0
  -30.6522  -22.1412   22.4195 H   0  0  0  0  0  0
  -32.3449  -19.4368   18.8632 H   0  0  0  0  0  0
  -31.9489  -20.9256   19.7119 H   0  0  0  0  0  0
  -31.0445  -20.4649   18.2637 H   0  0  0  0  0  0
  -26.5732  -18.6195   23.6091 H   0  0  0  0  0  0
  -25.6712  -17.1660   23.1651 H   0  0  0  0  0  0
  -26.0404  -18.3735   21.9340 H   0  0  0  0  0  0
  -31.4639  -23.8078   20.2820 H   0  0  0  0  0  0
  -30.8734  -25.4465   20.5108 H   0  0  0  0  0  0
  -30.7296  -24.6740   18.9380 H   0  0  0  0  0  0
  -27.2169  -24.6787   20.3176 H   0  0  0  0  0  0
  -28.0762  -24.9059   18.8215 H   0  0  0  0  0  0
  -28.9875  -15.2553   21.4687 H   0  0  0  0  0  0
  1 25  1  0  0  0
  1 30  2  0  0  0
  1 87  1  0  0  0
  2  3  1  0  0  0
  2 25  1  0  0  0
  2 90  1  0  0  0
  2 91  1  0  0  0
  3  4  1  0  0  0
  3 92  1  0  0  0
  3 93  1  0  0  0
  4  5  1  0  0  0
  4 94  1  0  0  0
  4 95  1  0  0  0
  5  6  1  0  0  0
  5 26  1  0  0  0
  5 96  1  0  0  0
  6 25  1  0  0  0
  6 97  1  0  0  0
  6 98  1  0  0  0
  7  8  2  0  0  0
  7 26  1  0  0  0
  7 29  1  0  0  0
  8  9  1  0  0  0
  8 22  1  0  0  0
  9 10  1  0  0  0
  9 27  2  0  0  0
 10 11  2  0  0  0
 10 15  1  0  0  0
 11 12  1  0  0  0
 11 99  1  0  0  0
 12 13  2  0  0  0
 12100  1  0  0  0
 13 14  1  0  0  0
 13 31  1  0  0  0
 14 15  2  0  0  0
 14101  1  0  0  0
 15102  1  0  0  0
 16 17  2  0  0  0
 16 21  1  0  0  0
 16 31  1  0  0  0
 17 18  1  0  0  0
 17103  1  0  0  0
 18 19  2  0  0  0
 18104  1  0  0  0
 19 20  1  0  0  0
 19 24  1  0  0  0
 20 21  2  0  0  0
 20105  1  0  0  0
 21 23  1  0  0  0
 22 28  1  0  0  0
 22 32  2  0  0  0
 26 27  1  0  0  0
 28106  1  0  0  0
 28107  1  0  0  0
 29108  1  0  0  0
 29109  1  0  0  0
 33 34  1  0  0  0
 33 66  1  0  0  0
 33 70  2  0  0  0
 34 36  1  0  0  0
 34 59  1  0  0  0
 34110  1  0  0  0
 35 44  2  0  0  0
 35 45  1  0  0  0
 35 68  1  0  0  0
 36 56  1  0  0  0
 36111  1  0  0  0
 37 39  1  0  0  0
 37 47  1  0  0  0
 37 66  1  0  0  0
 37112  1  0  0  0
 38 43  2  0  0  0
 38 46  1  0  0  0
 38 47  1  0  0  0
 39 64  1  0  0  0
 39 67  2  0  0  0
 40 52  1  0  0  0
 40 53  2  0  0  0
 40 58  1  0  0  0
 41113  1  0  0  0
 41114  1  0  0  0
 41115  1  0  0  0
 41 48  1  0  0  0
 42 43  1  0  0  0
 42 66  1  0  0  0
 42116  1  0  0  0
 42117  1  0  0  0
 43 44  1  0  0  0
 44118  1  0  0  0
 45 46  2  0  0  0
 45119  1  0  0  0
 46120  1  0  0  0
 47121  1  0  0  0
 47122  1  0  0  0
 48 56  1  0  0  0
 48 65  1  0  0  0
 48123  1  0  0  0
 49 50  1  0  0  0
 49 53  1  0  0  0
 49 64  1  0  0  0
 49124  1  0  0  0
 50 51  1  0  0  0
 50125  1  0  0  0
 50126  1  0  0  0
 51 52  1  0  0  0
 51127  1  0  0  0
 51128  1  0  0  0
 52129  1  0  0  0
 52130  1  0  0  0
 53 54  1  0  0  0
 54 55  2  0  0  0
 54131  1  0  0  0
 55 57  1  0  0  0
 55132  1  0  0  0
 56 69  2  0  0  0
 57 58  2  0  0  0
 57133  1  0  0  0
 58134  1  0  0  0
 59 60  1  0  0  0
 59 61  1  0  0  0
 59 62  1  0  0  0
 60135  1  0  0  0
 60136  1  0  0  0
 60137  1  0  0  0
 61138  1  0  0  0
 61139  1  0  0  0
 61140  1  0  0  0
 62141  1  0  0  0
 62142  1  0  0  0
 62143  1  0  0  0
 63 65  1  0  0  0
 63144  1  0  0  0
 63145  1  0  0  0
 63146  1  0  0  0
 64147  1  0  0  0
 65148  1  0  0  0
 68 85  1  0  0  0
 71 73  2  0  0  0
 71 75  1  0  0  0
 71149  1  0  0  0
 72 74  1  0  0  0
 72 76  2  0  0  0
 72150  1  0  0  0
 73 76  1  0  0  0
 73 78  1  0  0  0
 74 75  2  0  0  0
 74 82  1  0  0  0
 75 86  1  0  0  0
 76 87  1  0  0  0
 77 81  1  0  0  0
 77 86  1  0  0  0
 77 88  2  0  0  0
 78 83  1  0  0  0
 78 89  2  0  0  0
 79 80  1  0  0  0
 79 81  1  0  0  0
 79151  1  0  0  0
 79152  1  0  0  0
 80 86  1  0  0  0
 80153  1  0  0  0
 80154  1  0  0  0
 81 84  1  0  0  0
 81 85  1  0  0  0
 82155  1  0  0  0
 82156  1  0  0  0
 82157  1  0  0  0
 83158  1  0  0  0
 83159  1  0  0  0
 83160  1  0  0  0
 84161  1  0  0  0
 84162  1  0  0  0
 84163  1  0  0  0
 85164  1  0  0  0
 85165  1  0  0  0
 87166  1  0  0  0
M  ISO  4   1 100  68 101  85 101  87 100
M  END
> <chiral flag>
0

> <version>
0

> <s_m_source_file>
/data/baiqing/PycharmProjects/Reinvent-master-3.2/result/LINK_invent/BTK/process_docking_weight1_custom_product_contain_oxygen_bond_distance_aromatic_linkinvent_7_9_3/rearranged_h_0071.sdf

> <i_m_source_file_index>
51

> <r_mmod_Potential_Energy-OPLS-2005>
231.226043701172

> <r_mmod_Stretch_Energy-OPLS-2005>
90.9670486450195

> <r_mmod_Bend_Energy-OPLS-2005>
174.146667480469

> <r_mmod_Torsional_Energy-OPLS-2005>
319.551574707031

> <r_mmod_Improper_Torsional_Energy-OPLS-2005>
3.96705365180969

> <r_mmod_Van_der_Waal_Energy-OPLS-2005>
141.343826293945

> <r_mmod_Electrostatic_Energy-OPLS-2005>
-333.602966308594

> <r_mmod_Solvation_Energy-OPLS-2005>
-216.808334350586

> <b_mmod_Minimization_Converged-OPLS-2005>
0

> <r_mmod_RMS_Derivative-OPLS-2005>
0.636360883712769

$$$$
51
                    3D
 Structure written by MMmdl.
160169  0  0  1  0            999 V2000
  -30.6397  -14.6759   20.4718 C   0  0  0  0  0  0
  -30.4279  -12.4126   19.4657 C   0  0  0  0  0  0
  -29.5067  -12.5018   18.2303 C   0  0  0  0  0  0
  -28.0313  -12.3359   18.6429 C   0  0  0  0  0  0
  -27.6458  -13.2265   19.8545 C   0  0  2  0  0  0
  -28.6900  -13.1360   20.9894 C   0  0  0  0  0  0
  -25.2529  -13.8194   20.5689 C   0  0  0  0  0  0
  -24.1812  -13.0445   20.9201 C   0  0  0  0  0  0
  -24.6391  -11.6921   20.8745 C   0  0  0  0  0  0
  -23.9065  -10.4299   21.0405 C   0  0  0  0  0  0
  -24.3615   -9.4214   21.9184 C   0  0  0  0  0  0
  -23.6295   -8.2248   22.0755 C   0  0  0  0  0  0
  -22.4277   -8.0282   21.3543 C   0  0  0  0  0  0
  -21.9909   -9.0257   20.4645 C   0  0  0  0  0  0
  -22.7236  -10.2138   20.3055 C   0  0  0  0  0  0
  -21.6855   -6.0735   22.5278 C   0  0  0  0  0  0
  -21.4014   -6.5639   23.8211 C   0  0  0  0  0  0
  -21.3661   -5.6791   24.9173 C   0  0  0  0  0  0
  -21.6045   -4.3054   24.7222 C   0  0  0  0  0  0
  -21.8822   -3.8146   23.4343 C   0  0  0  0  0  0
  -21.9193   -4.6963   22.3399 C   0  0  0  0  0  0
  -22.7833  -13.5230   21.1859 C   0  0  0  0  0  0
  -22.1663   -4.2149   21.0978 F   0  0  0  0  0  0
  -21.5628   -3.4537   25.7735 F   0  0  0  0  0  0
  -29.9986  -13.4646   20.4113 N   0  0  0  0  0  0
  -26.2954  -12.9389   20.3292 N   0  0  0  0  0  0
  -25.9321  -11.6535   20.5754 N   0  0  0  0  0  0
  -22.0471  -12.8227   22.0412 N   0  0  0  0  0  0
  -25.4229  -15.1916   20.4103 N   0  0  0  0  0  0
  -31.8238  -14.7755   20.1426 O   0  0  0  0  0  0
  -21.6641   -6.8879   21.4240 O   0  0  0  0  0  0
  -22.3520  -14.5536   20.6704 O   0  0  0  0  0  0
  -24.6267  -31.8579   23.2019 C   0  0  0  0  0  0
  -25.9111  -32.4771   23.8354 C   0  0  1  0  0  0
  -27.2272  -27.3144   20.1311 C   0  0  0  0  0  0
  -25.5927  -33.8572   24.2285 N   0  0  0  0  0  0
  -23.4227  -30.4797   21.5429 C   0  0  2  0  0  0
  -24.8742  -28.9331   20.1102 C   0  0  0  0  0  0
  -22.7486  -29.4605   22.4927 C   0  0  0  0  0  0
  -18.0286  -28.1384   22.8481 C   0  0  0  0  0  0
  -24.1486  -36.7289   23.2638 C   0  0  0  0  0  0
  -25.9631  -30.7891   21.3738 C   0  0  0  0  0  0
  -26.0414  -29.4148   20.7192 C   0  0  0  0  0  0
  -27.2248  -28.6163   20.7224 C   0  0  0  0  0  0
  -26.0445  -26.8860   19.4947 C   0  0  0  0  0  0
  -24.8771  -27.6739   19.4878 C   0  0  0  0  0  0
  -23.6407  -29.8129   20.1584 C   0  0  0  0  0  0
  -25.4109  -36.3079   24.0334 C   0  0  1  0  0  0
  -20.5888  -28.3686   23.1277 C   0  0  2  0  0  0
  -20.6774  -26.9407   22.5409 C   0  0  0  0  0  0
  -19.5753  -26.6382   21.5209 C   0  0  0  0  0  0
  -18.1931  -26.7928   22.1618 C   0  0  0  0  0  0
  -19.1540  -28.8852   23.2871 C   0  0  0  0  0  0
  -18.9462  -30.1454   23.8888 C   0  0  0  0  0  0
  -17.6463  -30.6585   24.0558 C   0  0  0  0  0  0
  -25.9049  -34.9447   23.5110 C   0  0  0  0  0  0
  -16.5352  -29.9083   23.6332 C   0  0  0  0  0  0
  -16.7273  -28.6502   23.0350 C   0  0  0  0  0  0
  -26.4500  -31.6579   25.0722 C   0  0  0  0  0  0
  -25.3740  -31.3709   26.1452 C   0  0  0  0  0  0
  -27.0344  -30.3004   24.6172 C   0  0  0  0  0  0
  -27.6067  -32.4309   25.7490 C   0  0  0  0  0  0
  -27.5583  -37.1790   24.8461 C   0  0  0  0  0  0
  -21.4199  -29.3034   22.3670 N   0  0  0  0  0  0
  -26.4284  -37.3779   23.9421 N   0  0  0  0  0  0
  -24.6894  -31.0589   22.0968 N   0  0  0  0  0  0
  -23.4197  -28.8153   23.3023 O   0  0  0  0  0  0
  -28.2982  -26.4058   20.1570 O   0  0  0  0  0  0
  -26.5614  -34.8916   22.4674 O   0  0  0  0  0  0
  -23.5428  -32.1376   23.7344 O   0  0  0  0  0  0
  -29.3443  -23.5294   19.7030 C   0  0  0  0  0  0
  -29.7027  -22.1683   19.4423 C   0  0  0  0  0  0
  -28.5130  -21.4601   21.3788 C   0  0  0  0  0  0
  -28.5665  -23.9280   20.8219 C   0  0  0  0  0  0
  -29.3105  -21.0696   20.2732 C   0  0  0  0  0  0
  -28.1429  -22.8185   21.6505 C   0  0  0  0  0  0
  -30.3386  -19.1467   18.9545 C   0  0  0  0  0  0
  -28.3247  -25.4320   21.1778 C   0  0  0  0  0  0
  -30.6009  -17.6373   19.0402 C   0  0  0  0  0  0
  -29.3964  -18.4694   20.9305 C   0  0  0  0  0  0
  -30.3276  -17.2556   20.4978 C   0  0  1  0  0  0
  -25.9774  -23.4207   22.5197 C   0  0  0  0  0  0
  -28.1551  -25.8186   22.3721 N   0  0  0  0  0  0
  -29.6913  -19.6437   20.0375 N   0  0  0  0  0  0
  -27.3428  -22.9822   22.7946 N   0  0  0  0  0  0
  -29.8827  -15.8100   20.6781 N   0  0  0  0  0  0
  -30.7012  -19.7748   17.9556 O   0  0  0  0  0  0
  -31.4714  -12.5239   19.1658 H   0  0  0  0  0  0
  -30.3547  -11.4291   19.9329 H   0  0  0  0  0  0
  -29.7794  -11.7398   17.4990 H   0  0  0  0  0  0
  -29.6441  -13.4645   17.7352 H   0  0  0  0  0  0
  -27.8767  -11.2858   18.8937 H   0  0  0  0  0  0
  -27.3757  -12.5453   17.7971 H   0  0  0  0  0  0
  -27.6490  -14.2523   19.4855 H   0  0  0  0  0  0
  -28.7085  -12.1356   21.4242 H   0  0  0  0  0  0
  -28.4370  -13.8178   21.8030 H   0  0  0  0  0  0
  -25.2759   -9.5694   22.4758 H   0  0  0  0  0  0
  -24.0006   -7.4637   22.7475 H   0  0  0  0  0  0
  -21.0840   -8.8773   19.8951 H   0  0  0  0  0  0
  -22.3691  -10.9675   19.6164 H   0  0  0  0  0  0
  -21.2008   -7.6148   23.9713 H   0  0  0  0  0  0
  -21.1481   -6.0521   25.9077 H   0  0  0  0  0  0
  -22.0599   -2.7608   23.2839 H   0  0  0  0  0  0
  -22.4083  -11.9889   22.4803 H   0  0  0  0  0  0
  -21.1090  -13.1259   22.2612 H   0  0  0  0  0  0
  -24.6533  -15.8436   20.5174 H   0  0  0  0  0  0
  -26.2658  -15.6300   20.0626 H   0  0  0  0  0  0
  -26.7183  -32.5451   23.1109 H   0  0  0  0  0  0
  -25.0090  -33.9715   25.0441 H   0  0  0  0  0  0
  -22.7166  -31.2997   21.3977 H   0  0  0  0  0  0
  -23.3760  -35.9608   23.3278 H   0  0  0  0  0  0
  -24.3586  -36.8928   22.2058 H   0  0  0  0  0  0
  -23.7221  -37.6478   23.6667 H   0  0  0  0  0  0
  -26.0922  -31.5512   20.6040 H   0  0  0  0  0  0
  -26.8440  -30.8418   22.0018 H   0  0  0  0  0  0
  -28.1180  -28.9732   21.2155 H   0  0  0  0  0  0
  -26.0192  -25.9116   19.0275 H   0  0  0  0  0  0
  -23.9833  -27.2984   19.0087 H   0  0  0  0  0  0
  -23.7600  -30.5889   19.4014 H   0  0  0  0  0  0
  -22.7622  -29.2408   19.8554 H   0  0  0  0  0  0
  -25.1284  -36.1929   25.0826 H   0  0  0  0  0  0
  -20.9974  -28.3257   24.1400 H   0  0  0  0  0  0
  -20.5670  -26.2295   23.3609 H   0  0  0  0  0  0
  -21.6642  -26.7432   22.1202 H   0  0  0  0  0  0
  -19.6912  -25.6290   21.1243 H   0  0  0  0  0  0
  -19.6697  -27.3190   20.6737 H   0  0  0  0  0  0
  -17.4203  -26.6671   21.4020 H   0  0  0  0  0  0
  -18.0329  -26.0071   22.9017 H   0  0  0  0  0  0
  -19.7940  -30.7266   24.2255 H   0  0  0  0  0  0
  -17.5021  -31.6267   24.5157 H   0  0  0  0  0  0
  -15.5353  -30.2984   23.7662 H   0  0  0  0  0  0
  -15.8672  -28.0821   22.7069 H   0  0  0  0  0  0
  -24.5925  -30.7044   25.7783 H   0  0  0  0  0  0
  -24.8918  -32.2868   26.4878 H   0  0  0  0  0  0
  -25.8075  -30.8892   27.0226 H   0  0  0  0  0  0
  -26.2916  -29.6750   24.1205 H   0  0  0  0  0  0
  -27.4058  -29.7259   25.4670 H   0  0  0  0  0  0
  -27.8777  -30.4295   23.9384 H   0  0  0  0  0  0
  -27.2687  -33.3614   26.2062 H   0  0  0  0  0  0
  -28.3876  -32.6855   25.0313 H   0  0  0  0  0  0
  -28.0732  -31.8432   26.5406 H   0  0  0  0  0  0
  -28.2572  -38.0114   24.7547 H   0  0  0  0  0  0
  -28.1104  -36.2648   24.6229 H   0  0  0  0  0  0
  -27.2308  -37.1368   25.8863 H   0  0  0  0  0  0
  -20.9381  -29.8756   21.6877 H   0  0  0  0  0  0
  -26.0166  -38.2848   24.1448 H   0  0  0  0  0  0
  -29.7159  -24.2950   19.0372 H   0  0  0  0  0  0
  -30.3219  -22.0089   18.5736 H   0  0  0  0  0  0
  -28.1659  -20.6854   22.0475 H   0  0  0  0  0  0
  -31.6216  -17.3980   18.7409 H   0  0  0  0  0  0
  -29.9162  -17.1321   18.3587 H   0  0  0  0  0  0
  -29.5538  -18.7259   21.9785 H   0  0  0  0  0  0
  -28.3440  -18.2082   20.8118 H   0  0  0  0  0  0
  -31.2659  -17.3629   21.0460 H   0  0  0  0  0  0
  -25.6863  -24.2124   23.2116 H   0  0  0  0  0  0
  -25.2811  -22.5915   22.6536 H   0  0  0  0  0  0
  -25.8486  -23.8005   21.5047 H   0  0  0  0  0  0
  -28.1402  -24.9971   22.9742 H   0  0  0  0  0  0
  -27.3670  -22.1823   23.4234 H   0  0  0  0  0  0
  -28.9142  -15.6550   20.9158 H   0  0  0  0  0  0
  1 25  1  0  0  0
  1 30  2  0  0  0
  1 86  1  0  0  0
  2  3  1  0  0  0
  2 25  1  0  0  0
  2 88  1  0  0  0
  2 89  1  0  0  0
  3  4  1  0  0  0
  3 90  1  0  0  0
  3 91  1  0  0  0
  4  5  1  0  0  0
  4 92  1  0  0  0
  4 93  1  0  0  0
  5  6  1  0  0  0
  5 26  1  0  0  0
  5 94  1  0  0  0
  6 25  1  0  0  0
  6 95  1  0  0  0
  6 96  1  0  0  0
  7  8  2  0  0  0
  7 26  1  0  0  0
  7 29  1  0  0  0
  8  9  1  0  0  0
  8 22  1  0  0  0
  9 10  1  0  0  0
  9 27  2  0  0  0
 10 11  2  0  0  0
 10 15  1  0  0  0
 11 12  1  0  0  0
 11 97  1  0  0  0
 12 13  2  0  0  0
 12 98  1  0  0  0
 13 14  1  0  0  0
 13 31  1  0  0  0
 14 15  2  0  0  0
 14 99  1  0  0  0
 15100  1  0  0  0
 16 17  2  0  0  0
 16 21  1  0  0  0
 16 31  1  0  0  0
 17 18  1  0  0  0
 17101  1  0  0  0
 18 19  2  0  0  0
 18102  1  0  0  0
 19 20  1  0  0  0
 19 24  1  0  0  0
 20 21  2  0  0  0
 20103  1  0  0  0
 21 23  1  0  0  0
 22 28  1  0  0  0
 22 32  2  0  0  0
 26 27  1  0  0  0
 28104  1  0  0  0
 28105  1  0  0  0
 29106  1  0  0  0
 29107  1  0  0  0
 33 34  1  0  0  0
 33 66  1  0  0  0
 33 70  2  0  0  0
 34 36  1  0  0  0
 34 59  1  0  0  0
 34108  1  0  0  0
 35 44  2  0  0  0
 35 45  1  0  0  0
 35 68  1  0  0  0
 36 56  1  0  0  0
 36109  1  0  0  0
 37 39  1  0  0  0
 37 47  1  0  0  0
 37 66  1  0  0  0
 37110  1  0  0  0
 38 43  2  0  0  0
 38 46  1  0  0  0
 38 47  1  0  0  0
 39 64  1  0  0  0
 39 67  2  0  0  0
 40 52  1  0  0  0
 40 53  2  0  0  0
 40 58  1  0  0  0
 41111  1  0  0  0
 41112  1  0  0  0
 41113  1  0  0  0
 41 48  1  0  0  0
 42 43  1  0  0  0
 42 66  1  0  0  0
 42114  1  0  0  0
 42115  1  0  0  0
 43 44  1  0  0  0
 44116  1  0  0  0
 45 46  2  0  0  0
 45117  1  0  0  0
 46118  1  0  0  0
 47119  1  0  0  0
 47120  1  0  0  0
 48 56  1  0  0  0
 48 65  1  0  0  0
 48121  1  0  0  0
 49 50  1  0  0  0
 49 53  1  0  0  0
 49 64  1  0  0  0
 49122  1  0  0  0
 50 51  1  0  0  0
 50123  1  0  0  0
 50124  1  0  0  0
 51 52  1  0  0  0
 51125  1  0  0  0
 51126  1  0  0  0
 52127  1  0  0  0
 52128  1  0  0  0
 53 54  1  0  0  0
 54 55  2  0  0  0
 54129  1  0  0  0
 55 57  1  0  0  0
 55130  1  0  0  0
 56 69  2  0  0  0
 57 58  2  0  0  0
 57131  1  0  0  0
 58132  1  0  0  0
 59 60  1  0  0  0
 59 61  1  0  0  0
 59 62  1  0  0  0
 60133  1  0  0  0
 60134  1  0  0  0
 60135  1  0  0  0
 61136  1  0  0  0
 61137  1  0  0  0
 61138  1  0  0  0
 62139  1  0  0  0
 62140  1  0  0  0
 62141  1  0  0  0
 63 65  1  0  0  0
 63142  1  0  0  0
 63143  1  0  0  0
 63144  1  0  0  0
 64145  1  0  0  0
 65146  1  0  0  0
 68 78  1  0  0  0
 71 72  2  0  0  0
 71 74  1  0  0  0
 71147  1  0  0  0
 72 75  1  0  0  0
 72148  1  0  0  0
 73 75  2  0  0  0
 73 76  1  0  0  0
 73149  1  0  0  0
 74 76  2  0  0  0
 74 78  1  0  0  0
 75 84  1  0  0  0
 76 85  1  0  0  0
 77 79  1  0  0  0
 77 84  1  0  0  0
 77 87  2  0  0  0
 78 83  2  0  0  0
 79 81  1  0  0  0
 79150  1  0  0  0
 79151  1  0  0  0
 80 81  1  0  0  0
 80 84  1  0  0  0
 80152  1  0  0  0
 80153  1  0  0  0
 81 86  1  0  0  0
 81154  1  0  0  0
 82 85  1  0  0  0
 82155  1  0  0  0
 82156  1  0  0  0
 82157  1  0  0  0
 83158  1  0  0  0
 85159  1  0  0  0
 86160  1  0  0  0
M  ISO  4   1 100  68 101  78 101  86 100
M  END
> <chiral flag>
0

> <version>
0

> <s_m_source_file>
/data/baiqing/PycharmProjects/Reinvent-master-3.2/result/LINK_invent/BTK/process_docking_weight1_custom_product_contain_oxygen_bond_distance_aromatic_linkinvent_7_9_3/rearranged_h_0071.sdf

> <i_m_source_file_index>
52

> <r_mmod_Potential_Energy-OPLS-2005>
294.396881103516

> <r_mmod_Stretch_Energy-OPLS-2005>
101.552612304688

> <r_mmod_Bend_Energy-OPLS-2005>
176.16096496582

> <r_mmod_Torsional_Energy-OPLS-2005>
274.147277832031

> <r_mmod_Improper_Torsional_Energy-OPLS-2005>
10.5454721450806

> <r_mmod_Van_der_Waal_Energy-OPLS-2005>
146.629516601562

> <r_mmod_Electrostatic_Energy-OPLS-2005>
-225.458343505859

> <r_mmod_Solvation_Energy-OPLS-2005>
-250.854095458984

> <b_mmod_Minimization_Converged-OPLS-2005>
0

> <r_mmod_RMS_Derivative-OPLS-2005>
0.628044962882996

$$$$
52
                    3D
 Structure written by MMmdl.
153161  0  0  1  0            999 V2000
  -30.5972  -14.6504   20.5177 C   0  0  0  0  0  0
  -30.4500  -12.4034   19.4493 C   0  0  0  0  0  0
  -29.5124  -12.5135   18.2243 C   0  0  0  0  0  0
  -28.0345  -12.3459   18.6351 C   0  0  0  0  0  0
  -27.6575  -13.2101   19.8673 C   0  0  2  0  0  0
  -28.7020  -13.0447   20.9949 C   0  0  0  0  0  0
  -25.2589  -13.8161   20.5676 C   0  0  0  0  0  0
  -24.1846  -13.0438   20.9190 C   0  0  0  0  0  0
  -24.6402  -11.6904   20.8739 C   0  0  0  0  0  0
  -23.9062  -10.4291   21.0406 C   0  0  0  0  0  0
  -24.3614   -9.4205   21.9181 C   0  0  0  0  0  0
  -23.6291   -8.2242   22.0750 C   0  0  0  0  0  0
  -22.4271   -8.0282   21.3543 C   0  0  0  0  0  0
  -21.9907   -9.0256   20.4643 C   0  0  0  0  0  0
  -22.7236  -10.2135   20.3052 C   0  0  0  0  0  0
  -21.6853   -6.0733   22.5279 C   0  0  0  0  0  0
  -21.4012   -6.5636   23.8213 C   0  0  0  0  0  0
  -21.3659   -5.6789   24.9175 C   0  0  0  0  0  0
  -21.6044   -4.3053   24.7225 C   0  0  0  0  0  0
  -21.8821   -3.8143   23.4348 C   0  0  0  0  0  0
  -21.9192   -4.6960   22.3402 C   0  0  0  0  0  0
  -22.7867  -13.5235   21.1849 C   0  0  0  0  0  0
  -22.1663   -4.2146   21.0981 F   0  0  0  0  0  0
  -21.5628   -3.4537   25.7738 F   0  0  0  0  0  0
  -30.0180  -13.4088   20.4404 N   0  0  0  0  0  0
  -26.3009  -12.9322   20.3321 N   0  0  0  0  0  0
  -25.9327  -11.6486   20.5756 N   0  0  0  0  0  0
  -22.0503  -12.8232   22.0407 N   0  0  0  0  0  0
  -25.4325  -15.1877   20.4063 N   0  0  0  0  0  0
  -31.7406  -14.8568   20.0963 O   0  0  0  0  0  0
  -21.6639   -6.8877   21.4241 O   0  0  0  0  0  0
  -22.3556  -14.5542   20.6694 O   0  0  0  0  0  0
  -24.6259  -31.8593   23.2025 C   0  0  0  0  0  0
  -25.9106  -32.4781   23.8355 C   0  0  1  0  0  0
  -27.2280  -27.3218   20.1164 C   0  0  0  0  0  0
  -25.5916  -33.8581   24.2278 N   0  0  0  0  0  0
  -23.4197  -30.4835   21.5442 C   0  0  2  0  0  0
  -24.8668  -28.9383   20.1108 C   0  0  0  0  0  0
  -22.7474  -29.4621   22.4923 C   0  0  0  0  0  0
  -18.0288  -28.1392   22.8488 C   0  0  0  0  0  0
  -24.1488  -36.7296   23.2641 C   0  0  0  0  0  0
  -25.9604  -30.7919   21.3718 C   0  0  0  0  0  0
  -26.0354  -29.4190   20.7145 C   0  0  0  0  0  0
  -27.2186  -28.6229   20.7070 C   0  0  0  0  0  0
  -26.0348  -26.8918   19.4905 C   0  0  0  0  0  0
  -24.8680  -27.6794   19.4909 C   0  0  0  0  0  0
  -23.6349  -29.8188   20.1592 C   0  0  0  0  0  0
  -25.4112  -36.3086   24.0330 C   0  0  1  0  0  0
  -20.5888  -28.3688   23.1285 C   0  0  2  0  0  0
  -20.6778  -26.9413   22.5413 C   0  0  0  0  0  0
  -19.5755  -26.6389   21.5216 C   0  0  0  0  0  0
  -18.1933  -26.7934   22.1626 C   0  0  0  0  0  0
  -19.1541  -28.8857   23.2883 C   0  0  0  0  0  0
  -18.9462  -30.1457   23.8899 C   0  0  0  0  0  0
  -17.6466  -30.6592   24.0567 C   0  0  0  0  0  0
  -25.9047  -34.9455   23.5108 C   0  0  0  0  0  0
  -16.5355  -29.9094   23.6334 C   0  0  0  0  0  0
  -16.7274  -28.6513   23.0350 C   0  0  0  0  0  0
  -26.4492  -31.6592   25.0727 C   0  0  0  0  0  0
  -25.3732  -31.3726   26.1458 C   0  0  0  0  0  0
  -27.0338  -30.3021   24.6178 C   0  0  0  0  0  0
  -27.6053  -32.4324   25.7497 C   0  0  0  0  0  0
  -27.5576  -37.1804   24.8465 C   0  0  0  0  0  0
  -21.4187  -29.3042   22.3674 N   0  0  0  0  0  0
  -26.4287  -37.3778   23.9409 N   0  0  0  0  0  0
  -24.6876  -31.0616   22.0965 N   0  0  0  0  0  0
  -23.4199  -28.8151   23.2996 O   0  0  0  0  0  0
  -28.3535  -26.4836   20.1675 O   0  0  0  0  0  0
  -26.5626  -34.8923   22.4679 O   0  0  0  0  0  0
  -23.5423  -32.1386   23.7353 O   0  0  0  0  0  0
  -30.4644  -19.3861   20.1732 C   0  0  0  0  0  0
  -30.6023  -17.9550   20.1507 C   0  0  0  0  0  0
  -28.7407  -17.7747   21.6575 C   0  0  0  0  0  0
  -29.4835  -20.0475   20.9696 C   0  0  0  0  0  0
  -29.7475  -17.1069   20.9131 C   0  0  0  0  0  0
  -28.6139  -19.1913   21.6986 C   0  0  0  0  0  0
  -29.4636  -21.5494   21.2082 C   0  0  0  0  0  0
  -29.3544  -24.0709   20.4823 C   0  0  0  0  0  0
  -28.1656  -25.0198   20.0219 C   0  0  0  0  0  0
  -29.7419  -21.9504   22.4485 N   0  0  0  0  0  0
  -29.7699  -15.6412   20.9758 N   0  0  0  0  0  0
  -29.2071  -22.5555   20.3061 N   0  3  0  0  0  0
  -27.6452  -19.7244   22.4830 F   0  0  0  0  0  0
  -31.4876  -12.5492   19.1444 H   0  0  0  0  0  0
  -30.4045  -11.4030   19.8825 H   0  0  0  0  0  0
  -29.7802  -11.7656   17.4768 H   0  0  0  0  0  0
  -29.6489  -13.4841   17.7452 H   0  0  0  0  0  0
  -27.8714  -11.2916   18.8612 H   0  0  0  0  0  0
  -27.3794  -12.5800   17.7950 H   0  0  0  0  0  0
  -27.6815  -14.2483   19.5353 H   0  0  0  0  0  0
  -28.7197  -12.0127   21.3496 H   0  0  0  0  0  0
  -28.4381  -13.6459   21.8659 H   0  0  0  0  0  0
  -25.2764   -9.5680   22.4748 H   0  0  0  0  0  0
  -24.0001   -7.4633   22.7469 H   0  0  0  0  0  0
  -21.0837   -8.8774   19.8950 H   0  0  0  0  0  0
  -22.3699  -10.9670   19.6157 H   0  0  0  0  0  0
  -21.2005   -7.6144   23.9716 H   0  0  0  0  0  0
  -21.1478   -6.0518   25.9078 H   0  0  0  0  0  0
  -22.0601   -2.7605   23.2849 H   0  0  0  0  0  0
  -22.4114  -11.9889   22.4787 H   0  0  0  0  0  0
  -21.1120  -13.1256   22.2605 H   0  0  0  0  0  0
  -24.6599  -15.8386   20.4972 H   0  0  0  0  0  0
  -26.2666  -15.6166   20.0270 H   0  0  0  0  0  0
  -26.7175  -32.5449   23.1104 H   0  0  0  0  0  0
  -25.0055  -33.9722   25.0420 H   0  0  0  0  0  0
  -22.7133  -31.3038   21.4015 H   0  0  0  0  0  0
  -23.3749  -35.9633   23.3311 H   0  0  0  0  0  0
  -24.3578  -36.8911   22.2055 H   0  0  0  0  0  0
  -23.7244  -37.6503   23.6660 H   0  0  0  0  0  0
  -26.0921  -31.5555   20.6036 H   0  0  0  0  0  0
  -26.8399  -30.8406   22.0020 H   0  0  0  0  0  0
  -28.1154  -28.9878   21.1878 H   0  0  0  0  0  0
  -25.9768  -25.9305   19.0020 H   0  0  0  0  0  0
  -23.9713  -27.3053   19.0160 H   0  0  0  0  0  0
  -23.7559  -30.5963   19.4038 H   0  0  0  0  0  0
  -22.7541  -29.2503   19.8553 H   0  0  0  0  0  0
  -25.1295  -36.1939   25.0823 H   0  0  0  0  0  0
  -20.9989  -28.3268   24.1403 H   0  0  0  0  0  0
  -20.5690  -26.2296   23.3610 H   0  0  0  0  0  0
  -21.6645  -26.7451   22.1199 H   0  0  0  0  0  0
  -19.6920  -25.6302   21.1243 H   0  0  0  0  0  0
  -19.6697  -27.3202   20.6749 H   0  0  0  0  0  0
  -17.4203  -26.6681   21.4028 H   0  0  0  0  0  0
  -18.0328  -26.0078   22.9025 H   0  0  0  0  0  0
  -19.7938  -30.7276   24.2264 H   0  0  0  0  0  0
  -17.5022  -31.6272   24.5168 H   0  0  0  0  0  0
  -15.5358  -30.3000   23.7656 H   0  0  0  0  0  0
  -15.8673  -28.0839   22.7056 H   0  0  0  0  0  0
  -24.5904  -30.7071   25.7795 H   0  0  0  0  0  0
  -24.8923  -32.2888   26.4896 H   0  0  0  0  0  0
  -25.8060  -30.8900   27.0228 H   0  0  0  0  0  0
  -26.2911  -29.6776   24.1200 H   0  0  0  0  0  0
  -27.4037  -29.7273   25.4681 H   0  0  0  0  0  0
  -27.8782  -30.4320   23.9402 H   0  0  0  0  0  0
  -27.2663  -33.3617   26.2087 H   0  0  0  0  0  0
  -28.3859  -32.6894   25.0323 H   0  0  0  0  0  0
  -28.0736  -31.8446   26.5404 H   0  0  0  0  0  0
  -28.2596  -38.0098   24.7509 H   0  0  0  0  0  0
  -28.1063  -36.2628   24.6293 H   0  0  0  0  0  0
  -27.2292  -37.1462   25.8868 H   0  0  0  0  0  0
  -20.9358  -29.8771   21.6897 H   0  0  0  0  0  0
  -26.0172  -38.2857   24.1411 H   0  0  0  0  0  0
  -31.1681  -19.9856   19.6130 H   0  0  0  0  0  0
  -31.3849  -17.5174   19.5472 H   0  0  0  0  0  0
  -28.0448  -17.1956   22.2461 H   0  0  0  0  0  0
  -29.5723  -24.3044   21.5240 H   0  0  0  0  0  0
  -30.2503  -24.3684   19.9363 H   0  0  0  0  0  0
  -27.9481  -24.8061   18.9754 H   0  0  0  0  0  0
  -27.2819  -24.7242   20.5898 H   0  0  0  0  0  0
  -29.9485  -21.2597   23.1549 H   0  0  0  0  0  0
  -29.7192  -22.9161   22.7243 H   0  0  0  0  0  0
  -28.9356  -15.2457   21.3797 H   0  0  0  0  0  0
  -29.0022  -22.2492   19.3617 H   0  0  0  0  0  0
  1 25  1  0  0  0
  1 30  2  0  0  0
  1 81  1  0  0  0
  2  3  1  0  0  0
  2 25  1  0  0  0
  2 84  1  0  0  0
  2 85  1  0  0  0
  3  4  1  0  0  0
  3 86  1  0  0  0
  3 87  1  0  0  0
  4  5  1  0  0  0
  4 88  1  0  0  0
  4 89  1  0  0  0
  5  6  1  0  0  0
  5 26  1  0  0  0
  5 90  1  0  0  0
  6 25  1  0  0  0
  6 91  1  0  0  0
  6 92  1  0  0  0
  7  8  2  0  0  0
  7 26  1  0  0  0
  7 29  1  0  0  0
  8  9  1  0  0  0
  8 22  1  0  0  0
  9 10  1  0  0  0
  9 27  2  0  0  0
 10 11  2  0  0  0
 10 15  1  0  0  0
 11 12  1  0  0  0
 11 93  1  0  0  0
 12 13  2  0  0  0
 12 94  1  0  0  0
 13 14  1  0  0  0
 13 31  1  0  0  0
 14 15  2  0  0  0
 14 95  1  0  0  0
 15 96  1  0  0  0
 16 17  2  0  0  0
 16 21  1  0  0  0
 16 31  1  0  0  0
 17 18  1  0  0  0
 17 97  1  0  0  0
 18 19  2  0  0  0
 18 98  1  0  0  0
 19 20  1  0  0  0
 19 24  1  0  0  0
 20 21  2  0  0  0
 20 99  1  0  0  0
 21 23  1  0  0  0
 22 28  1  0  0  0
 22 32  2  0  0  0
 26 27  1  0  0  0
 28100  1  0  0  0
 28101  1  0  0  0
 29102  1  0  0  0
 29103  1  0  0  0
 33 34  1  0  0  0
 33 66  1  0  0  0
 33 70  2  0  0  0
 34 36  1  0  0  0
 34 59  1  0  0  0
 34104  1  0  0  0
 35 44  2  0  0  0
 35 45  1  0  0  0
 35 68  1  0  0  0
 36 56  1  0  0  0
 36105  1  0  0  0
 37 39  1  0  0  0
 37 47  1  0  0  0
 37 66  1  0  0  0
 37106  1  0  0  0
 38 43  2  0  0  0
 38 46  1  0  0  0
 38 47  1  0  0  0
 39 64  1  0  0  0
 39 67  2  0  0  0
 40 52  1  0  0  0
 40 53  2  0  0  0
 40 58  1  0  0  0
 41107  1  0  0  0
 41108  1  0  0  0
 41109  1  0  0  0
 41 48  1  0  0  0
 42 43  1  0  0  0
 42 66  1  0  0  0
 42110  1  0  0  0
 42111  1  0  0  0
 43 44  1  0  0  0
 44112  1  0  0  0
 45 46  2  0  0  0
 45113  1  0  0  0
 46114  1  0  0  0
 47115  1  0  0  0
 47116  1  0  0  0
 48 56  1  0  0  0
 48 65  1  0  0  0
 48117  1  0  0  0
 49 50  1  0  0  0
 49 53  1  0  0  0
 49 64  1  0  0  0
 49118  1  0  0  0
 50 51  1  0  0  0
 50119  1  0  0  0
 50120  1  0  0  0
 51 52  1  0  0  0
 51121  1  0  0  0
 51122  1  0  0  0
 52123  1  0  0  0
 52124  1  0  0  0
 53 54  1  0  0  0
 54 55  2  0  0  0
 54125  1  0  0  0
 55 57  1  0  0  0
 55126  1  0  0  0
 56 69  2  0  0  0
 57 58  2  0  0  0
 57127  1  0  0  0
 58128  1  0  0  0
 59 60  1  0  0  0
 59 61  1  0  0  0
 59 62  1  0  0  0
 60129  1  0  0  0
 60130  1  0  0  0
 60131  1  0  0  0
 61132  1  0  0  0
 61133  1  0  0  0
 61134  1  0  0  0
 62135  1  0  0  0
 62136  1  0  0  0
 62137  1  0  0  0
 63 65  1  0  0  0
 63138  1  0  0  0
 63139  1  0  0  0
 63140  1  0  0  0
 64141  1  0  0  0
 65142  1  0  0  0
 68 79  1  0  0  0
 71 72  2  0  0  0
 71 74  1  0  0  0
 71143  1  0  0  0
 72 75  1  0  0  0
 72144  1  0  0  0
 73 75  2  0  0  0
 73 76  1  0  0  0
 73145  1  0  0  0
 74 76  2  0  0  0
 74 77  1  0  0  0
 75 81  1  0  0  0
 76 83  1  0  0  0
 77 80  1  0  0  0
 77 82  2  0  0  0
 78 79  1  0  0  0
 78 82  1  0  0  0
 78146  1  0  0  0
 78147  1  0  0  0
 79148  1  0  0  0
 79149  1  0  0  0
 80150  1  0  0  0
 80151  1  0  0  0
 81152  1  0  0  0
 82153  1  0  0  0
M  CHG  1  82   1
M  ISO  4   1 100  68 101  79 101  81 100
M  END
> <chiral flag>
0

> <version>
0

> <s_m_source_file>
/data/baiqing/PycharmProjects/Reinvent-master-3.2/result/LINK_invent/BTK/process_docking_weight1_custom_product_contain_oxygen_bond_distance_aromatic_linkinvent_7_9_3/rearranged_h_0071.sdf

> <i_m_source_file_index>
53

> <r_mmod_Potential_Energy-OPLS-2005>
-115.205070495605

> <r_mmod_Stretch_Energy-OPLS-2005>
81.7860870361328

> <r_mmod_Bend_Energy-OPLS-2005>
145.963592529297

> <r_mmod_Torsional_Energy-OPLS-2005>
222.431106567383

> <r_mmod_Improper_Torsional_Energy-OPLS-2005>
4.4931321144104

> <r_mmod_Van_der_Waal_Energy-OPLS-2005>
145.859436035156

> <r_mmod_Electrostatic_Energy-OPLS-2005>
-343.29931640625

> <r_mmod_Solvation_Energy-OPLS-2005>
-422.086303710938

> <b_mmod_Minimization_Converged-OPLS-2005>
0

> <r_mmod_RMS_Derivative-OPLS-2005>
0.86594831943512

$$$$
53
                    3D
 Structure written by MMmdl.
158166  0  0  1  0            999 V2000
  -30.6905  -14.4500   20.6130 C   0  0  0  0  0  0
  -30.4243  -12.3056   19.4180 C   0  0  0  0  0  0
  -29.4905  -12.5166   18.2062 C   0  0  0  0  0  0
  -28.0125  -12.3730   18.6173 C   0  0  0  0  0  0
  -27.6629  -13.2026   19.8814 C   0  0  2  0  0  0
  -28.6996  -12.9535   21.0002 C   0  0  0  0  0  0
  -25.2580  -13.8160   20.5680 C   0  0  0  0  0  0
  -24.1818  -13.0436   20.9159 C   0  0  0  0  0  0
  -24.6378  -11.6900   20.8730 C   0  0  0  0  0  0
  -23.9054  -10.4276   21.0402 C   0  0  0  0  0  0
  -24.3610   -9.4196   21.9188 C   0  0  0  0  0  0
  -23.6283   -8.2238   22.0761 C   0  0  0  0  0  0
  -22.4271   -8.0275   21.3545 C   0  0  0  0  0  0
  -21.9900   -9.0242   20.4646 C   0  0  0  0  0  0
  -22.7225  -10.2119   20.3052 C   0  0  0  0  0  0
  -21.6847   -6.0735   22.5276 C   0  0  0  0  0  0
  -21.4005   -6.5642   23.8209 C   0  0  0  0  0  0
  -21.3658   -5.6799   24.9173 C   0  0  0  0  0  0
  -21.6046   -4.3060   24.7223 C   0  0  0  0  0  0
  -21.8820   -3.8148   23.4350 C   0  0  0  0  0  0
  -21.9189   -4.6964   22.3402 C   0  0  0  0  0  0
  -22.7844  -13.5240   21.1827 C   0  0  0  0  0  0
  -22.1657   -4.2160   21.0977 F   0  0  0  0  0  0
  -21.5635   -3.4544   25.7740 F   0  0  0  0  0  0
  -30.0390  -13.2635   20.4674 N   0  0  0  0  0  0
  -26.3016  -12.9314   20.3380 N   0  0  0  0  0  0
  -25.9306  -11.6481   20.5772 N   0  0  0  0  0  0
  -22.0491  -12.8212   22.0379 N   0  0  0  0  0  0
  -25.4310  -15.1871   20.4113 N   0  0  0  0  0  0
  -31.7714  -14.6905   20.0644 O   0  0  0  0  0  0
  -21.6638   -6.8877   21.4244 O   0  0  0  0  0  0
  -22.3536  -14.5559   20.6699 O   0  0  0  0  0  0
  -24.6169  -31.8626   23.2023 C   0  0  0  0  0  0
  -25.9045  -32.4794   23.8337 C   0  0  1  0  0  0
  -27.2647  -27.4191   20.0922 C   0  0  0  0  0  0
  -25.5892  -33.8592   24.2275 N   0  0  0  0  0  0
  -23.4081  -30.4795   21.5420 C   0  0  2  0  0  0
  -24.8610  -28.9358   20.1119 C   0  0  0  0  0  0
  -22.7431  -29.4621   22.4964 C   0  0  0  0  0  0
  -18.0269  -28.1384   22.8465 C   0  0  0  0  0  0
  -24.1492  -36.7302   23.2636 C   0  0  0  0  0  0
  -25.9345  -30.8209   21.3588 C   0  0  0  0  0  0
  -26.0150  -29.4505   20.7114 C   0  0  0  0  0  0
  -27.2116  -28.6968   20.7029 C   0  0  0  0  0  0
  -26.0863  -26.9156   19.4937 C   0  0  0  0  0  0
  -24.8924  -27.6677   19.5027 C   0  0  0  0  0  0
  -23.6196  -29.8009   20.1599 C   0  0  0  0  0  0
  -25.4111  -36.3092   24.0329 C   0  0  1  0  0  0
  -20.5852  -28.3666   23.1304 C   0  0  2  0  0  0
  -20.6760  -26.9397   22.5423 C   0  0  0  0  0  0
  -19.5754  -26.6386   21.5207 C   0  0  0  0  0  0
  -18.1912  -26.7930   22.1579 C   0  0  0  0  0  0
  -19.1519  -28.8840   23.2886 C   0  0  0  0  0  0
  -18.9459  -30.1446   23.8908 C   0  0  0  0  0  0
  -17.6466  -30.6588   24.0568 C   0  0  0  0  0  0
  -25.9045  -34.9461   23.5109 C   0  0  0  0  0  0
  -16.5355  -29.9090   23.6340 C   0  0  0  0  0  0
  -16.7259  -28.6512   23.0343 C   0  0  0  0  0  0
  -26.4465  -31.6594   25.0688 C   0  0  0  0  0  0
  -25.3731  -31.3708   26.1445 C   0  0  0  0  0  0
  -27.0276  -30.3031   24.6067 C   0  0  0  0  0  0
  -27.6059  -32.4301   25.7425 C   0  0  0  0  0  0
  -27.5590  -37.1792   24.8445 C   0  0  0  0  0  0
  -21.4148  -29.3034   22.3720 N   0  0  0  0  0  0
  -26.4282  -37.3795   23.9419 N   0  0  0  0  0  0
  -24.6716  -31.0697   22.0938 N   0  0  0  0  0  0
  -23.4181  -28.8177   23.3039 O   0  0  0  0  0  0
  -28.4617  -26.7219   20.1481 O   0  0  0  0  0  0
  -26.5627  -34.8926   22.4682 O   0  0  0  0  0  0
  -23.5361  -32.1384   23.7407 O   0  0  0  0  0  0
  -29.6845  -18.9774   22.3230 C   0  0  0  0  0  0
  -29.6744  -17.5641   22.3760 C   0  0  0  0  0  0
  -30.4956  -17.4737   20.0939 C   0  0  0  0  0  0
  -30.1038  -19.6584   21.1561 C   0  0  0  0  0  0
  -30.1027  -16.7920   21.2720 C   0  0  0  0  0  0
  -30.4918  -18.8852   20.0328 C   0  0  0  0  0  0
  -30.1975  -21.1372   21.1394 C   0  0  0  0  0  0
  -28.8754  -24.2549   20.0665 C   0  0  0  0  0  0
  -30.5223  -23.3709   18.2549 C   0  0  0  0  0  0
  -28.7452  -25.5957   19.2909 C   0  0  0  0  0  0
  -30.0672  -23.2927   19.7310 C   0  0  2  0  0  0
  -30.0515  -15.3645   21.3692 N   0  0  0  0  0  0
  -29.8021  -21.8639   20.0737 N   0  0  0  0  0  0
  -30.7282  -21.7735   22.1888 N   0  3  0  0  0  0
  -28.0531  -23.9729   20.9432 O   0  0  0  0  0  0
  -30.8824  -19.4889   18.8830 F   0  0  0  0  0  0
  -31.4672  -12.4152   19.1173 H   0  0  0  0  0  0
  -30.3351  -11.2862   19.7962 H   0  0  0  0  0  0
  -29.7290  -11.7999   17.4189 H   0  0  0  0  0  0
  -29.6557  -13.5067   17.7790 H   0  0  0  0  0  0
  -27.8214  -11.3155   18.8033 H   0  0  0  0  0  0
  -27.3615  -12.6556   17.7894 H   0  0  0  0  0  0
  -27.7150  -14.2552   19.6013 H   0  0  0  0  0  0
  -28.6692  -11.9085   21.3123 H   0  0  0  0  0  0
  -28.4449  -13.5224   21.8949 H   0  0  0  0  0  0
  -25.2761   -9.5687   22.4748 H   0  0  0  0  0  0
  -24.0005   -7.4640   22.7478 H   0  0  0  0  0  0
  -21.0843   -8.8738   19.8948 H   0  0  0  0  0  0
  -22.3682  -10.9653   19.6154 H   0  0  0  0  0  0
  -21.1985   -7.6152   23.9720 H   0  0  0  0  0  0
  -21.1480   -6.0527   25.9077 H   0  0  0  0  0  0
  -22.0600   -2.7618   23.2844 H   0  0  0  0  0  0
  -22.4116  -11.9875   22.4758 H   0  0  0  0  0  0
  -21.1112  -13.1228   22.2590 H   0  0  0  0  0  0
  -24.6644  -15.8424   20.5179 H   0  0  0  0  0  0
  -26.2912  -15.6294   20.1108 H   0  0  0  0  0  0
  -26.7115  -32.5486   23.1090 H   0  0  0  0  0  0
  -25.0053  -33.9753   25.0426 H   0  0  0  0  0  0
  -22.7006  -31.2978   21.3925 H   0  0  0  0  0  0
  -23.3773  -35.9619   23.3256 H   0  0  0  0  0  0
  -24.3591  -36.8966   22.2061 H   0  0  0  0  0  0
  -23.7225  -37.6477   23.6688 H   0  0  0  0  0  0
  -26.0456  -31.5809   20.5840 H   0  0  0  0  0  0
  -26.8235  -30.8814   21.9744 H   0  0  0  0  0  0
  -28.1018  -29.0946   21.1678 H   0  0  0  0  0  0
  -26.0653  -25.9378   19.0341 H   0  0  0  0  0  0
  -24.0026  -27.2563   19.0460 H   0  0  0  0  0  0
  -23.7239  -30.5695   19.3930 H   0  0  0  0  0  0
  -22.7466  -29.2143   19.8678 H   0  0  0  0  0  0
  -25.1295  -36.1937   25.0820 H   0  0  0  0  0  0
  -20.9939  -28.3226   24.1428 H   0  0  0  0  0  0
  -20.5625  -26.2288   23.3621 H   0  0  0  0  0  0
  -21.6638  -26.7405   22.1240 H   0  0  0  0  0  0
  -19.6921  -25.6295   21.1237 H   0  0  0  0  0  0
  -19.6731  -27.3209   20.6746 H   0  0  0  0  0  0
  -17.4212  -26.6721   21.3943 H   0  0  0  0  0  0
  -18.0258  -26.0050   22.8936 H   0  0  0  0  0  0
  -19.7948  -30.7255   24.2269 H   0  0  0  0  0  0
  -17.5028  -31.6275   24.5173 H   0  0  0  0  0  0
  -15.5356  -30.3012   23.7678 H   0  0  0  0  0  0
  -15.8641  -28.0865   22.7037 H   0  0  0  0  0  0
  -24.5922  -30.7028   25.7791 H   0  0  0  0  0  0
  -24.8896  -32.2860   26.4872 H   0  0  0  0  0  0
  -25.8077  -30.8897   27.0216 H   0  0  0  0  0  0
  -26.2785  -29.6780   24.1193 H   0  0  0  0  0  0
  -27.4129  -29.7289   25.4506 H   0  0  0  0  0  0
  -27.8586  -30.4358   23.9134 H   0  0  0  0  0  0
  -27.2738  -33.3651   26.1942 H   0  0  0  0  0  0
  -28.3879  -32.6773   25.0231 H   0  0  0  0  0  0
  -28.0700  -31.8445   26.5368 H   0  0  0  0  0  0
  -28.2571  -38.0135   24.7560 H   0  0  0  0  0  0
  -28.1136  -36.2671   24.6175 H   0  0  0  0  0  0
  -27.2326  -37.1308   25.8853 H   0  0  0  0  0  0
  -20.9335  -29.8778   21.6943 H   0  0  0  0  0  0
  -26.0163  -38.2853   24.1496 H   0  0  0  0  0  0
  -29.3686  -19.5373   23.1934 H   0  0  0  0  0  0
  -29.3443  -17.0774   23.2843 H   0  0  0  0  0  0
  -30.7999  -16.9284   19.2128 H   0  0  0  0  0  0
  -31.2142  -24.2004   18.1008 H   0  0  0  0  0  0
  -29.6857  -23.4949   17.5662 H   0  0  0  0  0  0
  -31.0590  -22.4706   17.9434 H   0  0  0  0  0  0
  -28.0274  -25.4835   18.4804 H   0  0  0  0  0  0
  -29.7003  -25.8077   18.8156 H   0  0  0  0  0  0
  -30.9233  -23.6045   20.3330 H   0  0  0  0  0  0
  -29.3251  -14.9909   21.9600 H   0  0  0  0  0  0
  -29.2556  -21.3448   19.3983 H   0  0  0  0  0  0
  -31.0712  -21.2437   22.9766 H   0  0  0  0  0  0
  -30.7872  -22.7756   22.2178 H   0  0  0  0  0  0
  1 25  1  0  0  0
  1 30  2  0  0  0
  1 82  1  0  0  0
  2  3  1  0  0  0
  2 25  1  0  0  0
  2 87  1  0  0  0
  2 88  1  0  0  0
  3  4  1  0  0  0
  3 89  1  0  0  0
  3 90  1  0  0  0
  4  5  1  0  0  0
  4 91  1  0  0  0
  4 92  1  0  0  0
  5  6  1  0  0  0
  5 26  1  0  0  0
  5 93  1  0  0  0
  6 25  1  0  0  0
  6 94  1  0  0  0
  6 95  1  0  0  0
  7  8  2  0  0  0
  7 26  1  0  0  0
  7 29  1  0  0  0
  8  9  1  0  0  0
  8 22  1  0  0  0
  9 10  1  0  0  0
  9 27  2  0  0  0
 10 11  2  0  0  0
 10 15  1  0  0  0
 11 12  1  0  0  0
 11 96  1  0  0  0
 12 13  2  0  0  0
 12 97  1  0  0  0
 13 14  1  0  0  0
 13 31  1  0  0  0
 14 15  2  0  0  0
 14 98  1  0  0  0
 15 99  1  0  0  0
 16 17  2  0  0  0
 16 21  1  0  0  0
 16 31  1  0  0  0
 17 18  1  0  0  0
 17100  1  0  0  0
 18 19  2  0  0  0
 18101  1  0  0  0
 19 20  1  0  0  0
 19 24  1  0  0  0
 20 21  2  0  0  0
 20102  1  0  0  0
 21 23  1  0  0  0
 22 28  1  0  0  0
 22 32  2  0  0  0
 26 27  1  0  0  0
 28103  1  0  0  0
 28104  1  0  0  0
 29105  1  0  0  0
 29106  1  0  0  0
 33 34  1  0  0  0
 33 66  1  0  0  0
 33 70  2  0  0  0
 34 36  1  0  0  0
 34 59  1  0  0  0
 34107  1  0  0  0
 35 44  2  0  0  0
 35 45  1  0  0  0
 35 68  1  0  0  0
 36 56  1  0  0  0
 36108  1  0  0  0
 37 39  1  0  0  0
 37 47  1  0  0  0
 37 66  1  0  0  0
 37109  1  0  0  0
 38 43  2  0  0  0
 38 46  1  0  0  0
 38 47  1  0  0  0
 39 64  1  0  0  0
 39 67  2  0  0  0
 40 52  1  0  0  0
 40 53  2  0  0  0
 40 58  1  0  0  0
 41110  1  0  0  0
 41111  1  0  0  0
 41112  1  0  0  0
 41 48  1  0  0  0
 42 43  1  0  0  0
 42 66  1  0  0  0
 42113  1  0  0  0
 42114  1  0  0  0
 43 44  1  0  0  0
 44115  1  0  0  0
 45 46  2  0  0  0
 45116  1  0  0  0
 46117  1  0  0  0
 47118  1  0  0  0
 47119  1  0  0  0
 48 56  1  0  0  0
 48 65  1  0  0  0
 48120  1  0  0  0
 49 50  1  0  0  0
 49 53  1  0  0  0
 49 64  1  0  0  0
 49121  1  0  0  0
 50 51  1  0  0  0
 50122  1  0  0  0
 50123  1  0  0  0
 51 52  1  0  0  0
 51124  1  0  0  0
 51125  1  0  0  0
 52126  1  0  0  0
 52127  1  0  0  0
 53 54  1  0  0  0
 54 55  2  0  0  0
 54128  1  0  0  0
 55 57  1  0  0  0
 55129  1  0  0  0
 56 69  2  0  0  0
 57 58  2  0  0  0
 57130  1  0  0  0
 58131  1  0  0  0
 59 60  1  0  0  0
 59 61  1  0  0  0
 59 62  1  0  0  0
 60132  1  0  0  0
 60133  1  0  0  0
 60134  1  0  0  0
 61135  1  0  0  0
 61136  1  0  0  0
 61137  1  0  0  0
 62138  1  0  0  0
 62139  1  0  0  0
 62140  1  0  0  0
 63 65  1  0  0  0
 63141  1  0  0  0
 63142  1  0  0  0
 63143  1  0  0  0
 64144  1  0  0  0
 65145  1  0  0  0
 68 80  1  0  0  0
 71 72  2  0  0  0
 71 74  1  0  0  0
 71146  1  0  0  0
 72 75  1  0  0  0
 72147  1  0  0  0
 73 75  2  0  0  0
 73 76  1  0  0  0
 73148  1  0  0  0
 74 76  2  0  0  0
 74 77  1  0  0  0
 75 82  1  0  0  0
 76 86  1  0  0  0
 77 83  1  0  0  0
 77 84  2  0  0  0
 78 80  1  0  0  0
 78 81  1  0  0  0
 78 85  2  0  0  0
 79149  1  0  0  0
 79150  1  0  0  0
 79151  1  0  0  0
 79 81  1  0  0  0
 80152  1  0  0  0
 80153  1  0  0  0
 81 83  1  0  0  0
 81154  1  0  0  0
 82155  1  0  0  0
 83156  1  0  0  0
 84157  1  0  0  0
 84158  1  0  0  0
M  CHG  1  84   1
M  ISO  4   1 100  68 101  80 101  82 100
M  END
> <chiral flag>
0

> <version>
0

> <s_m_source_file>
/data/baiqing/PycharmProjects/Reinvent-master-3.2/result/LINK_invent/BTK/process_docking_weight1_custom_product_contain_oxygen_bond_distance_aromatic_linkinvent_7_9_3/rearranged_h_0071.sdf

> <i_m_source_file_index>
54

> <r_mmod_Potential_Energy-OPLS-2005>
-219.578475952148

> <r_mmod_Stretch_Energy-OPLS-2005>
43.7916069030762

> <r_mmod_Bend_Energy-OPLS-2005>
113.730255126953

> <r_mmod_Torsional_Energy-OPLS-2005>
224.489349365234

> <r_mmod_Improper_Torsional_Energy-OPLS-2005>
2.8936767578125

> <r_mmod_Van_der_Waal_Energy-OPLS-2005>
154.592391967773

> <r_mmod_Electrostatic_Energy-OPLS-2005>
-331.952880859375

> <r_mmod_Solvation_Energy-OPLS-2005>
-439.963623046875

> <b_mmod_Minimization_Converged-OPLS-2005>
0

> <r_mmod_RMS_Derivative-OPLS-2005>
2.77246403694153

$$$$
54
                    3D
 Structure written by MMmdl.
156165  0  0  1  0            999 V2000
  -30.5920  -14.7199   20.4753 C   0  0  0  0  0  0
  -30.4446  -12.4383   19.4675 C   0  0  0  0  0  0
  -29.5142  -12.5133   18.2350 C   0  0  0  0  0  0
  -28.0382  -12.3402   18.6464 C   0  0  0  0  0  0
  -27.6503  -13.2241   19.8616 C   0  0  2  0  0  0
  -28.6962  -13.1134   20.9940 C   0  0  0  0  0  0
  -25.2539  -13.8174   20.5694 C   0  0  0  0  0  0
  -24.1811  -13.0426   20.9169 C   0  0  0  0  0  0
  -24.6398  -11.6904   20.8726 C   0  0  0  0  0  0
  -23.9070  -10.4286   21.0396 C   0  0  0  0  0  0
  -24.3619   -9.4204   21.9179 C   0  0  0  0  0  0
  -23.6292   -8.2242   22.0753 C   0  0  0  0  0  0
  -22.4273   -8.0279   21.3545 C   0  0  0  0  0  0
  -21.9909   -9.0252   20.4646 C   0  0  0  0  0  0
  -22.7240  -10.2129   20.3050 C   0  0  0  0  0  0
  -21.6854   -6.0734   22.5278 C   0  0  0  0  0  0
  -21.4015   -6.5637   23.8212 C   0  0  0  0  0  0
  -21.3660   -5.6792   24.9174 C   0  0  0  0  0  0
  -21.6044   -4.3054   24.7225 C   0  0  0  0  0  0
  -21.8819   -3.8146   23.4347 C   0  0  0  0  0  0
  -21.9194   -4.6962   22.3402 C   0  0  0  0  0  0
  -22.7835  -13.5217   21.1844 C   0  0  0  0  0  0
  -22.1663   -4.2148   21.0980 F   0  0  0  0  0  0
  -21.5628   -3.4539   25.7738 F   0  0  0  0  0  0
  -30.0046  -13.4757   20.4264 N   0  0  0  0  0  0
  -26.2981  -12.9374   20.3329 N   0  0  0  0  0  0
  -25.9334  -11.6519   20.5758 N   0  0  0  0  0  0
  -22.0488  -12.8210   22.0410 N   0  0  0  0  0  0
  -25.4217  -15.1900   20.4171 N   0  0  0  0  0  0
  -31.7591  -14.8756   20.1032 O   0  0  0  0  0  0
  -21.6638   -6.8876   21.4241 O   0  0  0  0  0  0
  -22.3512  -14.5525   20.6702 O   0  0  0  0  0  0
  -24.6304  -31.8557   23.1989 C   0  0  0  0  0  0
  -25.9132  -32.4757   23.8334 C   0  0  1  0  0  0
  -27.2301  -27.2822   20.1128 C   0  0  0  0  0  0
  -25.5930  -33.8559   24.2259 N   0  0  0  0  0  0
  -23.4272  -30.4781   21.5419 C   0  0  2  0  0  0
  -24.8764  -28.9295   20.1065 C   0  0  0  0  0  0
  -22.7502  -29.4599   22.4913 C   0  0  0  0  0  0
  -18.0293  -28.1385   22.8484 C   0  0  0  0  0  0
  -24.1490  -36.7286   23.2638 C   0  0  0  0  0  0
  -25.9722  -30.7735   21.3773 C   0  0  0  0  0  0
  -26.0473  -29.3988   20.7159 C   0  0  0  0  0  0
  -27.2250  -28.5851   20.7136 C   0  0  0  0  0  0
  -26.0293  -26.8710   19.4895 C   0  0  0  0  0  0
  -24.8712  -27.6720   19.4844 C   0  0  0  0  0  0
  -23.6449  -29.8128   20.1574 C   0  0  0  0  0  0
  -25.4116  -36.3071   24.0326 C   0  0  1  0  0  0
  -20.5897  -28.3694   23.1270 C   0  0  2  0  0  0
  -20.6780  -26.9412   22.5406 C   0  0  0  0  0  0
  -19.5754  -26.6381   21.5211 C   0  0  0  0  0  0
  -18.1936  -26.7926   22.1626 C   0  0  0  0  0  0
  -19.1546  -28.8857   23.2871 C   0  0  0  0  0  0
  -18.9466  -30.1460   23.8887 C   0  0  0  0  0  0
  -17.6464  -30.6586   24.0560 C   0  0  0  0  0  0
  -25.9054  -34.9441   23.5095 C   0  0  0  0  0  0
  -16.5356  -29.9081   23.6332 C   0  0  0  0  0  0
  -16.7279  -28.6499   23.0352 C   0  0  0  0  0  0
  -26.4501  -31.6581   25.0723 C   0  0  0  0  0  0
  -25.3724  -31.3737   26.1444 C   0  0  0  0  0  0
  -27.0345  -30.2996   24.6211 C   0  0  0  0  0  0
  -27.6054  -32.4323   25.7496 C   0  0  0  0  0  0
  -27.5580  -37.1798   24.8464 C   0  0  0  0  0  0
  -21.4210  -29.3040   22.3658 N   0  0  0  0  0  0
  -26.4291  -37.3769   23.9407 N   0  0  0  0  0  0
  -24.6955  -31.0531   22.0959 N   0  0  0  0  0  0
  -23.4205  -28.8140   23.3010 O   0  0  0  0  0  0
  -28.3064  -26.3704   20.2069 O   0  0  0  0  0  0
  -26.5627  -34.8914   22.4665 O   0  0  0  0  0  0
  -23.5457  -32.1371   23.7291 O   0  0  0  0  0  0
  -30.8579  -18.0204   20.0720 C   0  0  0  0  0  0
  -28.4892  -19.3909   20.6721 C   0  0  0  0  0  0
  -30.7391  -19.4356   19.8328 C   0  0  0  0  0  0
  -29.5286  -20.1678   20.0910 C   0  0  0  0  0  0
  -29.7874  -17.2396   20.5898 C   0  0  0  0  0  0
  -28.6141  -17.9825   20.9047 C   0  0  0  0  0  0
  -28.7272  -23.9817   19.2787 C   0  0  0  0  0  0
  -29.1688  -21.7947   18.2769 C   0  0  0  0  0  0
  -28.4513  -25.3459   19.2491 C   0  0  0  0  0  0
  -28.8407  -23.2458   17.9699 C   0  0  0  0  0  0
  -28.9798  -22.8487   20.3440 C   0  0  0  0  0  0
  -31.9482  -20.1523   19.2547 C   0  0  0  0  0  0
  -29.2968  -21.5569   19.5983 N   0  0  0  0  0  0
  -29.7675  -15.7746   20.8095 N   0  0  0  0  0  0
  -29.2902  -20.9620   17.3722 O   0  0  0  0  0  0
  -27.5532  -17.3101   21.4125 F   0  0  0  0  0  0
  -31.4839  -12.5750   19.1637 H   0  0  0  0  0  0
  -30.3961  -11.4509   19.9291 H   0  0  0  0  0  0
  -29.7908  -11.7500   17.5064 H   0  0  0  0  0  0
  -29.6441  -13.4744   17.7349 H   0  0  0  0  0  0
  -27.8868  -11.2887   18.8930 H   0  0  0  0  0  0
  -27.3824  -12.5507   17.8009 H   0  0  0  0  0  0
  -27.6558  -14.2535   19.5025 H   0  0  0  0  0  0
  -28.7251  -12.0989   21.3940 H   0  0  0  0  0  0
  -28.4303  -13.7571   21.8339 H   0  0  0  0  0  0
  -25.2764   -9.5682   22.4752 H   0  0  0  0  0  0
  -24.0002   -7.4635   22.7475 H   0  0  0  0  0  0
  -21.0839   -8.8771   19.8954 H   0  0  0  0  0  0
  -22.3698  -10.9666   19.6158 H   0  0  0  0  0  0
  -21.2007   -7.6145   23.9714 H   0  0  0  0  0  0
  -21.1482   -6.0522   25.9077 H   0  0  0  0  0  0
  -22.0599   -2.7608   23.2847 H   0  0  0  0  0  0
  -22.4110  -11.9872   22.4795 H   0  0  0  0  0  0
  -21.1110  -13.1238   22.2627 H   0  0  0  0  0  0
  -24.6617  -15.8427   20.5710 H   0  0  0  0  0  0
  -26.2954  -15.6529   20.2011 H   0  0  0  0  0  0
  -26.7199  -32.5412   23.1077 H   0  0  0  0  0  0
  -25.0071  -33.9696   25.0401 H   0  0  0  0  0  0
  -22.7228  -31.2998   21.3967 H   0  0  0  0  0  0
  -23.3752  -35.9618   23.3298 H   0  0  0  0  0  0
  -24.3581  -36.8912   22.2054 H   0  0  0  0  0  0
  -23.7244  -37.6487   23.6665 H   0  0  0  0  0  0
  -26.1109  -31.5369   20.6106 H   0  0  0  0  0  0
  -26.8494  -30.8204   22.0110 H   0  0  0  0  0  0
  -28.1185  -28.9338   21.2119 H   0  0  0  0  0  0
  -25.9559  -25.8937   19.0346 H   0  0  0  0  0  0
  -23.9711  -27.3017   19.0129 H   0  0  0  0  0  0
  -23.7652  -30.5894   19.4012 H   0  0  0  0  0  0
  -22.7642  -29.2438   19.8541 H   0  0  0  0  0  0
  -25.1297  -36.1918   25.0818 H   0  0  0  0  0  0
  -20.9990  -28.3271   24.1390 H   0  0  0  0  0  0
  -20.5679  -26.2303   23.3610 H   0  0  0  0  0  0
  -21.6648  -26.7435   22.1199 H   0  0  0  0  0  0
  -19.6914  -25.6290   21.1244 H   0  0  0  0  0  0
  -19.6689  -27.3187   20.6737 H   0  0  0  0  0  0
  -17.4203  -26.6668   21.4033 H   0  0  0  0  0  0
  -18.0341  -26.0071   22.9028 H   0  0  0  0  0  0
  -19.7942  -30.7280   24.2250 H   0  0  0  0  0  0
  -17.5017  -31.6265   24.5163 H   0  0  0  0  0  0
  -15.5355  -30.2977   23.7660 H   0  0  0  0  0  0
  -15.8681  -28.0813   22.7071 H   0  0  0  0  0  0
  -24.5886  -30.7104   25.7771 H   0  0  0  0  0  0
  -24.8932  -32.2911   26.4871 H   0  0  0  0  0  0
  -25.8036  -30.8905   27.0220 H   0  0  0  0  0  0
  -26.2928  -29.6744   24.1225 H   0  0  0  0  0  0
  -27.4012  -29.7260   25.4734 H   0  0  0  0  0  0
  -27.8814  -30.4265   23.9462 H   0  0  0  0  0  0
  -27.2661  -33.3627   26.2061 H   0  0  0  0  0  0
  -28.3870  -32.6878   25.0328 H   0  0  0  0  0  0
  -28.0715  -31.8456   26.5422 H   0  0  0  0  0  0
  -28.2593  -38.0099   24.7514 H   0  0  0  0  0  0
  -28.1082  -36.2630   24.6285 H   0  0  0  0  0  0
  -27.2299  -37.1441   25.8867 H   0  0  0  0  0  0
  -20.9396  -29.8763   21.6863 H   0  0  0  0  0  0
  -26.0171  -38.2843   24.1407 H   0  0  0  0  0  0
  -31.7873  -17.5265   19.8259 H   0  0  0  0  0  0
  -27.5403  -19.8609   20.8849 H   0  0  0  0  0  0
  -28.3362  -25.7951   18.2710 H   0  0  0  0  0  0
  -29.6285  -23.6808   17.3546 H   0  0  0  0  0  0
  -27.9007  -23.3030   17.4205 H   0  0  0  0  0  0
  -28.0928  -22.7148   20.9636 H   0  0  0  0  0  0
  -29.8117  -23.1221   20.9932 H   0  0  0  0  0  0
  -32.8730  -19.6373   19.5163 H   0  0  0  0  0  0
  -32.0248  -21.1709   19.6365 H   0  0  0  0  0  0
  -31.8834  -20.1951   18.1673 H   0  0  0  0  0  0
  -28.8759  -15.4574   21.1594 H   0  0  0  0  0  0
  1 25  1  0  0  0
  1 30  2  0  0  0
  1 84  1  0  0  0
  2  3  1  0  0  0
  2 25  1  0  0  0
  2 87  1  0  0  0
  2 88  1  0  0  0
  3  4  1  0  0  0
  3 89  1  0  0  0
  3 90  1  0  0  0
  4  5  1  0  0  0
  4 91  1  0  0  0
  4 92  1  0  0  0
  5  6  1  0  0  0
  5 26  1  0  0  0
  5 93  1  0  0  0
  6 25  1  0  0  0
  6 94  1  0  0  0
  6 95  1  0  0  0
  7  8  2  0  0  0
  7 26  1  0  0  0
  7 29  1  0  0  0
  8  9  1  0  0  0
  8 22  1  0  0  0
  9 10  1  0  0  0
  9 27  2  0  0  0
 10 11  2  0  0  0
 10 15  1  0  0  0
 11 12  1  0  0  0
 11 96  1  0  0  0
 12 13  2  0  0  0
 12 97  1  0  0  0
 13 14  1  0  0  0
 13 31  1  0  0  0
 14 15  2  0  0  0
 14 98  1  0  0  0
 15 99  1  0  0  0
 16 17  2  0  0  0
 16 21  1  0  0  0
 16 31  1  0  0  0
 17 18  1  0  0  0
 17100  1  0  0  0
 18 19  2  0  0  0
 18101  1  0  0  0
 19 20  1  0  0  0
 19 24  1  0  0  0
 20 21  2  0  0  0
 20102  1  0  0  0
 21 23  1  0  0  0
 22 28  1  0  0  0
 22 32  2  0  0  0
 26 27  1  0  0  0
 28103  1  0  0  0
 28104  1  0  0  0
 29105  1  0  0  0
 29106  1  0  0  0
 33 34  1  0  0  0
 33 66  1  0  0  0
 33 70  2  0  0  0
 34 36  1  0  0  0
 34 59  1  0  0  0
 34107  1  0  0  0
 35 44  2  0  0  0
 35 45  1  0  0  0
 35 68  1  0  0  0
 36 56  1  0  0  0
 36108  1  0  0  0
 37 39  1  0  0  0
 37 47  1  0  0  0
 37 66  1  0  0  0
 37109  1  0  0  0
 38 43  2  0  0  0
 38 46  1  0  0  0
 38 47  1  0  0  0
 39 64  1  0  0  0
 39 67  2  0  0  0
 40 52  1  0  0  0
 40 53  2  0  0  0
 40 58  1  0  0  0
 41110  1  0  0  0
 41111  1  0  0  0
 41112  1  0  0  0
 41 48  1  0  0  0
 42 43  1  0  0  0
 42 66  1  0  0  0
 42113  1  0  0  0
 42114  1  0  0  0
 43 44  1  0  0  0
 44115  1  0  0  0
 45 46  2  0  0  0
 45116  1  0  0  0
 46117  1  0  0  0
 47118  1  0  0  0
 47119  1  0  0  0
 48 56  1  0  0  0
 48 65  1  0  0  0
 48120  1  0  0  0
 49 50  1  0  0  0
 49 53  1  0  0  0
 49 64  1  0  0  0
 49121  1  0  0  0
 50 51  1  0  0  0
 50122  1  0  0  0
 50123  1  0  0  0
 51 52  1  0  0  0
 51124  1  0  0  0
 51125  1  0  0  0
 52126  1  0  0  0
 52127  1  0  0  0
 53 54  1  0  0  0
 54 55  2  0  0  0
 54128  1  0  0  0
 55 57  1  0  0  0
 55129  1  0  0  0
 56 69  2  0  0  0
 57 58  2  0  0  0
 57130  1  0  0  0
 58131  1  0  0  0
 59 60  1  0  0  0
 59 61  1  0  0  0
 59 62  1  0  0  0
 60132  1  0  0  0
 60133  1  0  0  0
 60134  1  0  0  0
 61135  1  0  0  0
 61136  1  0  0  0
 61137  1  0  0  0
 62138  1  0  0  0
 62139  1  0  0  0
 62140  1  0  0  0
 63 65  1  0  0  0
 63141  1  0  0  0
 63142  1  0  0  0
 63143  1  0  0  0
 64144  1  0  0  0
 65145  1  0  0  0
 68 79  1  0  0  0
 71 73  2  0  0  0
 71 75  1  0  0  0
 71146  1  0  0  0
 72 74  2  0  0  0
 72 76  1  0  0  0
 72147  1  0  0  0
 73 74  1  0  0  0
 73 82  1  0  0  0
 74 83  1  0  0  0
 75 76  2  0  0  0
 75 84  1  0  0  0
 76 86  1  0  0  0
 77 79  2  0  0  0
 77 80  1  0  0  0
 77 81  1  0  0  0
 78 80  1  0  0  0
 78 83  1  0  0  0
 78 85  2  0  0  0
 79148  1  0  0  0
 80149  1  0  0  0
 80150  1  0  0  0
 81 83  1  0  0  0
 81151  1  0  0  0
 81152  1  0  0  0
 82153  1  0  0  0
 82154  1  0  0  0
 82155  1  0  0  0
 84156  1  0  0  0
M  ISO  4   1 100  68 101  79 101  84 100
M  END
> <chiral flag>
0

> <version>
0

> <s_m_source_file>
/data/baiqing/PycharmProjects/Reinvent-master-3.2/result/LINK_invent/BTK/process_docking_weight1_custom_product_contain_oxygen_bond_distance_aromatic_linkinvent_7_9_3/rearranged_h_0071.sdf

> <i_m_source_file_index>
55

> <r_mmod_Potential_Energy-OPLS-2005>
219.491744995117

> <r_mmod_Stretch_Energy-OPLS-2005>
103.526374816895

> <r_mmod_Bend_Energy-OPLS-2005>
220.771331787109

> <r_mmod_Torsional_Energy-OPLS-2005>
283.615966796875

> <r_mmod_Improper_Torsional_Energy-OPLS-2005>
5.24561262130737

> <r_mmod_Van_der_Waal_Energy-OPLS-2005>
134.888198852539

> <r_mmod_Electrostatic_Energy-OPLS-2005>
-397.835113525391

> <r_mmod_Solvation_Energy-OPLS-2005>
-207.873779296875

> <b_mmod_Minimization_Converged-OPLS-2005>
0

> <r_mmod_RMS_Derivative-OPLS-2005>
0.210660487413406

$$$$
55
                    3D
 Structure written by MMmdl.
155164  0  0  1  0            999 V2000
  -30.5933  -14.7013   20.4917 C   0  0  0  0  0  0
  -30.4456  -12.4301   19.4630 C   0  0  0  0  0  0
  -29.5134  -12.5164   18.2324 C   0  0  0  0  0  0
  -28.0376  -12.3427   18.6438 C   0  0  0  0  0  0
  -27.6529  -13.2203   19.8641 C   0  0  2  0  0  0
  -28.6976  -13.0922   20.9957 C   0  0  0  0  0  0
  -25.2557  -13.8173   20.5689 C   0  0  0  0  0  0
  -24.1826  -13.0436   20.9189 C   0  0  0  0  0  0
  -24.6400  -11.6908   20.8737 C   0  0  0  0  0  0
  -23.9068  -10.4291   21.0403 C   0  0  0  0  0  0
  -24.3618   -9.4207   21.9182 C   0  0  0  0  0  0
  -23.6291   -8.2243   22.0753 C   0  0  0  0  0  0
  -22.4274   -8.0281   21.3543 C   0  0  0  0  0  0
  -21.9908   -9.0256   20.4646 C   0  0  0  0  0  0
  -22.7238  -10.2134   20.3054 C   0  0  0  0  0  0
  -21.6853   -6.0735   22.5278 C   0  0  0  0  0  0
  -21.4015   -6.5639   23.8211 C   0  0  0  0  0  0
  -21.3660   -5.6792   24.9173 C   0  0  0  0  0  0
  -21.6044   -4.3055   24.7225 C   0  0  0  0  0  0
  -21.8819   -3.8146   23.4346 C   0  0  0  0  0  0
  -21.9193   -4.6962   22.3402 C   0  0  0  0  0  0
  -22.7848  -13.5228   21.1852 C   0  0  0  0  0  0
  -22.1661   -4.2147   21.0979 F   0  0  0  0  0  0
  -21.5628   -3.4539   25.7738 F   0  0  0  0  0  0
  -30.0086  -13.4571   20.4338 N   0  0  0  0  0  0
  -26.2990  -12.9360   20.3323 N   0  0  0  0  0  0
  -25.9332  -11.6512   20.5758 N   0  0  0  0  0  0
  -22.0492  -12.8222   22.0412 N   0  0  0  0  0  0
  -25.4268  -15.1894   20.4105 N   0  0  0  0  0  0
  -31.7489  -14.8709   20.0927 O   0  0  0  0  0  0
  -21.6639   -6.8878   21.4240 O   0  0  0  0  0  0
  -22.3532  -14.5534   20.6702 O   0  0  0  0  0  0
  -24.6297  -31.8569   23.2004 C   0  0  0  0  0  0
  -25.9131  -32.4763   23.8342 C   0  0  1  0  0  0
  -27.2234  -27.2818   20.1202 C   0  0  0  0  0  0
  -25.5933  -33.8565   24.2265 N   0  0  0  0  0  0
  -23.4254  -30.4806   21.5437 C   0  0  2  0  0  0
  -24.8727  -28.9329   20.1094 C   0  0  0  0  0  0
  -22.7494  -29.4610   22.4919 C   0  0  0  0  0  0
  -18.0291  -28.1386   22.8485 C   0  0  0  0  0  0
  -24.1490  -36.7288   23.2639 C   0  0  0  0  0  0
  -25.9706  -30.7755   21.3786 C   0  0  0  0  0  0
  -26.0438  -29.4007   20.7186 C   0  0  0  0  0  0
  -27.2209  -28.5873   20.7143 C   0  0  0  0  0  0
  -26.0279  -26.8829   19.4768 C   0  0  0  0  0  0
  -24.8690  -27.6811   19.4786 C   0  0  0  0  0  0
  -23.6424  -29.8169   20.1589 C   0  0  0  0  0  0
  -25.4116  -36.3075   24.0326 C   0  0  1  0  0  0
  -20.5893  -28.3696   23.1272 C   0  0  2  0  0  0
  -20.6779  -26.9415   22.5407 C   0  0  0  0  0  0
  -19.5753  -26.6383   21.5212 C   0  0  0  0  0  0
  -18.1935  -26.7928   22.1626 C   0  0  0  0  0  0
  -19.1544  -28.8858   23.2874 C   0  0  0  0  0  0
  -18.9465  -30.1459   23.8892 C   0  0  0  0  0  0
  -17.6464  -30.6587   24.0562 C   0  0  0  0  0  0
  -25.9055  -34.9444   23.5097 C   0  0  0  0  0  0
  -16.5356  -29.9085   23.6331 C   0  0  0  0  0  0
  -16.7277  -28.6502   23.0352 C   0  0  0  0  0  0
  -26.4501  -31.6585   25.0727 C   0  0  0  0  0  0
  -25.3726  -31.3735   26.1448 C   0  0  0  0  0  0
  -27.0348  -30.3001   24.6211 C   0  0  0  0  0  0
  -27.6055  -32.4326   25.7500 C   0  0  0  0  0  0
  -27.5579  -37.1799   24.8464 C   0  0  0  0  0  0
  -21.4203  -29.3045   22.3662 N   0  0  0  0  0  0
  -26.4291  -37.3772   23.9407 N   0  0  0  0  0  0
  -24.6942  -31.0550   22.0973 N   0  0  0  0  0  0
  -23.4202  -28.8148   23.3010 O   0  0  0  0  0  0
  -28.3252  -26.3982   20.1874 O   0  0  0  0  0  0
  -26.5627  -34.8916   22.4666 O   0  0  0  0  0  0
  -23.5452  -32.1384   23.7309 O   0  0  0  0  0  0
  -30.2086  -19.4093   19.6867 C   0  0  0  0  0  0
  -28.9113  -19.3750   21.6554 C   0  0  0  0  0  0
  -29.4733  -20.1959   20.6335 C   0  0  0  0  0  0
  -29.7946  -17.2013   20.7898 C   0  0  0  0  0  0
  -30.3723  -17.9795   19.7465 C   0  0  0  0  0  0
  -29.0491  -17.9546   21.7315 C   0  0  0  0  0  0
  -28.6257  -22.6647   21.3425 C   0  0  0  0  0  0
  -29.4340  -22.5325   19.4419 C   0  0  0  0  0  0
  -29.1664  -23.7963   20.3616 C   0  0  2  0  0  0
  -30.3945  -24.4803   20.9723 C   0  0  0  0  0  0
  -28.1016  -24.9327   19.9473 C   0  0  0  0  0  0
  -29.3208  -21.6745   20.6275 N   0  0  0  0  0  0
  -29.7874  -15.7296   20.9212 N   0  0  0  0  0  0
  -27.8784  -22.5902   22.2957 O   0  0  0  0  0  0
  -31.0600  -17.3637   18.7552 F   0  0  0  0  0  0
  -28.4326  -17.2931   22.7421 F   0  0  0  0  0  0
  -31.4844  -12.5693   19.1588 H   0  0  0  0  0  0
  -30.3980  -11.4380   19.9147 H   0  0  0  0  0  0
  -29.7879  -11.7589   17.4970 H   0  0  0  0  0  0
  -29.6444  -13.4814   17.7400 H   0  0  0  0  0  0
  -27.8847  -11.2901   18.8850 H   0  0  0  0  0  0
  -27.3812  -12.5589   17.8000 H   0  0  0  0  0  0
  -27.6656  -14.2530   19.5149 H   0  0  0  0  0  0
  -28.7233  -12.0714   21.3799 H   0  0  0  0  0  0
  -28.4300  -13.7206   21.8464 H   0  0  0  0  0  0
  -25.2764   -9.5682   22.4755 H   0  0  0  0  0  0
  -24.0000   -7.4635   22.7473 H   0  0  0  0  0  0
  -21.0839   -8.8775   19.8954 H   0  0  0  0  0  0
  -22.3696  -10.9673   19.6164 H   0  0  0  0  0  0
  -21.2008   -7.6147   23.9714 H   0  0  0  0  0  0
  -21.1482   -6.0522   25.9076 H   0  0  0  0  0  0
  -22.0598   -2.7608   23.2847 H   0  0  0  0  0  0
  -22.4108  -11.9884   22.4801 H   0  0  0  0  0  0
  -21.1112  -13.1250   22.2622 H   0  0  0  0  0  0
  -24.6609  -15.8443   20.5242 H   0  0  0  0  0  0
  -26.2779  -15.6296   20.0856 H   0  0  0  0  0  0
  -26.7196  -32.5419   23.1085 H   0  0  0  0  0  0
  -25.0073  -33.9705   25.0406 H   0  0  0  0  0  0
  -22.7210  -31.3025   21.3996 H   0  0  0  0  0  0
  -23.3751  -35.9623   23.3301 H   0  0  0  0  0  0
  -24.3581  -36.8911   22.2053 H   0  0  0  0  0  0
  -23.7246  -37.6491   23.6663 H   0  0  0  0  0  0
  -26.1088  -31.5382   20.6111 H   0  0  0  0  0  0
  -26.8485  -30.8223   22.0115 H   0  0  0  0  0  0
  -28.1162  -28.9398   21.2071 H   0  0  0  0  0  0
  -25.9529  -25.9305   18.9746 H   0  0  0  0  0  0
  -23.9735  -27.3185   18.9928 H   0  0  0  0  0  0
  -23.7649  -30.5944   19.4040 H   0  0  0  0  0  0
  -22.7613  -29.2493   19.8541 H   0  0  0  0  0  0
  -25.1297  -36.1924   25.0819 H   0  0  0  0  0  0
  -20.9987  -28.3274   24.1392 H   0  0  0  0  0  0
  -20.5681  -26.2305   23.3610 H   0  0  0  0  0  0
  -21.6647  -26.7442   22.1199 H   0  0  0  0  0  0
  -19.6915  -25.6293   21.1244 H   0  0  0  0  0  0
  -19.6689  -27.3192   20.6740 H   0  0  0  0  0  0
  -17.4202  -26.6670   21.4033 H   0  0  0  0  0  0
  -18.0340  -26.0072   22.9027 H   0  0  0  0  0  0
  -19.7941  -30.7278   24.2257 H   0  0  0  0  0  0
  -17.5018  -31.6267   24.5165 H   0  0  0  0  0  0
  -15.5356  -30.2985   23.7657 H   0  0  0  0  0  0
  -15.8678  -28.0820   22.7070 H   0  0  0  0  0  0
  -24.5900  -30.7086   25.7778 H   0  0  0  0  0  0
  -24.8920  -32.2907   26.4864 H   0  0  0  0  0  0
  -25.8043  -30.8918   27.0230 H   0  0  0  0  0  0
  -26.2933  -29.6747   24.1226 H   0  0  0  0  0  0
  -27.4020  -29.7265   25.4732 H   0  0  0  0  0  0
  -27.8815  -30.4273   23.9461 H   0  0  0  0  0  0
  -27.2660  -33.3629   26.2067 H   0  0  0  0  0  0
  -28.3870  -32.6883   25.0332 H   0  0  0  0  0  0
  -28.0717  -31.8459   26.5425 H   0  0  0  0  0  0
  -28.2595  -38.0099   24.7512 H   0  0  0  0  0  0
  -28.1078  -36.2630   24.6289 H   0  0  0  0  0  0
  -27.2297  -37.1446   25.8867 H   0  0  0  0  0  0
  -20.9385  -29.8770   21.6871 H   0  0  0  0  0  0
  -26.0171  -38.2846   24.1408 H   0  0  0  0  0  0
  -30.6819  -19.9205   18.8616 H   0  0  0  0  0  0
  -28.3317  -19.8497   22.4334 H   0  0  0  0  0  0
  -30.4201  -22.5158   18.9750 H   0  0  0  0  0  0
  -28.6441  -22.3415   18.7108 H   0  0  0  0  0  0
  -31.1404  -23.7598   21.3108 H   0  0  0  0  0  0
  -30.1226  -25.0934   21.8322 H   0  0  0  0  0  0
  -30.8826  -25.1313   20.2472 H   0  0  0  0  0  0
  -27.1552  -24.6747   20.4252 H   0  0  0  0  0  0
  -27.9174  -24.8294   18.8774 H   0  0  0  0  0  0
  -28.9673  -15.3933   21.4015 H   0  0  0  0  0  0
  1 25  1  0  0  0
  1 30  2  0  0  0
  1 83  1  0  0  0
  2  3  1  0  0  0
  2 25  1  0  0  0
  2 87  1  0  0  0
  2 88  1  0  0  0
  3  4  1  0  0  0
  3 89  1  0  0  0
  3 90  1  0  0  0
  4  5  1  0  0  0
  4 91  1  0  0  0
  4 92  1  0  0  0
  5  6  1  0  0  0
  5 26  1  0  0  0
  5 93  1  0  0  0
  6 25  1  0  0  0
  6 94  1  0  0  0
  6 95  1  0  0  0
  7  8  2  0  0  0
  7 26  1  0  0  0
  7 29  1  0  0  0
  8  9  1  0  0  0
  8 22  1  0  0  0
  9 10  1  0  0  0
  9 27  2  0  0  0
 10 11  2  0  0  0
 10 15  1  0  0  0
 11 12  1  0  0  0
 11 96  1  0  0  0
 12 13  2  0  0  0
 12 97  1  0  0  0
 13 14  1  0  0  0
 13 31  1  0  0  0
 14 15  2  0  0  0
 14 98  1  0  0  0
 15 99  1  0  0  0
 16 17  2  0  0  0
 16 21  1  0  0  0
 16 31  1  0  0  0
 17 18  1  0  0  0
 17100  1  0  0  0
 18 19  2  0  0  0
 18101  1  0  0  0
 19 20  1  0  0  0
 19 24  1  0  0  0
 20 21  2  0  0  0
 20102  1  0  0  0
 21 23  1  0  0  0
 22 28  1  0  0  0
 22 32  2  0  0  0
 26 27  1  0  0  0
 28103  1  0  0  0
 28104  1  0  0  0
 29105  1  0  0  0
 29106  1  0  0  0
 33 34  1  0  0  0
 33 66  1  0  0  0
 33 70  2  0  0  0
 34 36  1  0  0  0
 34 59  1  0  0  0
 34107  1  0  0  0
 35 44  2  0  0  0
 35 45  1  0  0  0
 35 68  1  0  0  0
 36 56  1  0  0  0
 36108  1  0  0  0
 37 39  1  0  0  0
 37 47  1  0  0  0
 37 66  1  0  0  0
 37109  1  0  0  0
 38 43  2  0  0  0
 38 46  1  0  0  0
 38 47  1  0  0  0
 39 64  1  0  0  0
 39 67  2  0  0  0
 40 52  1  0  0  0
 40 53  2  0  0  0
 40 58  1  0  0  0
 41110  1  0  0  0
 41111  1  0  0  0
 41112  1  0  0  0
 41 48  1  0  0  0
 42 43  1  0  0  0
 42 66  1  0  0  0
 42113  1  0  0  0
 42114  1  0  0  0
 43 44  1  0  0  0
 44115  1  0  0  0
 45 46  2  0  0  0
 45116  1  0  0  0
 46117  1  0  0  0
 47118  1  0  0  0
 47119  1  0  0  0
 48 56  1  0  0  0
 48 65  1  0  0  0
 48120  1  0  0  0
 49 50  1  0  0  0
 49 53  1  0  0  0
 49 64  1  0  0  0
 49121  1  0  0  0
 50 51  1  0  0  0
 50122  1  0  0  0
 50123  1  0  0  0
 51 52  1  0  0  0
 51124  1  0  0  0
 51125  1  0  0  0
 52126  1  0  0  0
 52127  1  0  0  0
 53 54  1  0  0  0
 54 55  2  0  0  0
 54128  1  0  0  0
 55 57  1  0  0  0
 55129  1  0  0  0
 56 69  2  0  0  0
 57 58  2  0  0  0
 57130  1  0  0  0
 58131  1  0  0  0
 59 60  1  0  0  0
 59 61  1  0  0  0
 59 62  1  0  0  0
 60132  1  0  0  0
 60133  1  0  0  0
 60134  1  0  0  0
 61135  1  0  0  0
 61136  1  0  0  0
 61137  1  0  0  0
 62138  1  0  0  0
 62139  1  0  0  0
 62140  1  0  0  0
 63 65  1  0  0  0
 63141  1  0  0  0
 63142  1  0  0  0
 63143  1  0  0  0
 64144  1  0  0  0
 65145  1  0  0  0
 68 81  1  0  0  0
 71 73  2  0  0  0
 71 75  1  0  0  0
 71146  1  0  0  0
 72 73  1  0  0  0
 72 76  2  0  0  0
 72147  1  0  0  0
 73 82  1  0  0  0
 74 75  2  0  0  0
 74 76  1  0  0  0
 74 83  1  0  0  0
 75 85  1  0  0  0
 76 86  1  0  0  0
 77 79  1  0  0  0
 77 82  1  0  0  0
 77 84  2  0  0  0
 78 79  1  0  0  0
 78 82  1  0  0  0
 78148  1  0  0  0
 78149  1  0  0  0
 79 80  1  0  0  0
 79 81  1  0  0  0
 80150  1  0  0  0
 80151  1  0  0  0
 80152  1  0  0  0
 81153  1  0  0  0
 81154  1  0  0  0
 83155  1  0  0  0
M  ISO  4   1 100  68 101  81 101  83 100
M  END
> <chiral flag>
0

> <version>
0

> <s_m_source_file>
/data/baiqing/PycharmProjects/Reinvent-master-3.2/result/LINK_invent/BTK/process_docking_weight1_custom_product_contain_oxygen_bond_distance_aromatic_linkinvent_7_9_3/rearranged_h_0071.sdf

> <i_m_source_file_index>
56

> <r_mmod_Potential_Energy-OPLS-2005>
84.944206237793

> <r_mmod_Stretch_Energy-OPLS-2005>
101.898963928223

> <r_mmod_Bend_Energy-OPLS-2005>
191.172058105469

> <r_mmod_Torsional_Energy-OPLS-2005>
239.455520629883

> <r_mmod_Improper_Torsional_Energy-OPLS-2005>
4.68955135345459

> <r_mmod_Van_der_Waal_Energy-OPLS-2005>
140.647964477539

> <r_mmod_Electrostatic_Energy-OPLS-2005>
-442.261840820312

> <r_mmod_Solvation_Energy-OPLS-2005>
-220.052505493164

> <b_mmod_Minimization_Converged-OPLS-2005>
0

> <r_mmod_RMS_Derivative-OPLS-2005>
0.202505126595497

$$$$
56
                    3D
 Structure written by MMmdl.
154162  0  0  1  0            999 V2000
  -30.7249  -14.4759   20.5726 C   0  0  0  0  0  0
  -30.4145  -12.3115   19.4256 C   0  0  0  0  0  0
  -29.4911  -12.4991   18.2062 C   0  0  0  0  0  0
  -28.0132  -12.3622   18.6199 C   0  0  0  0  0  0
  -27.6577  -13.2118   19.8695 C   0  0  2  0  0  0
  -28.7011  -13.0209   20.9936 C   0  0  0  0  0  0
  -25.2574  -13.8174   20.5682 C   0  0  0  0  0  0
  -24.1835  -13.0443   20.9185 C   0  0  0  0  0  0
  -24.6395  -11.6910   20.8736 C   0  0  0  0  0  0
  -23.9064  -10.4294   21.0409 C   0  0  0  0  0  0
  -24.3616   -9.4209   21.9188 C   0  0  0  0  0  0
  -23.6290   -8.2244   22.0755 C   0  0  0  0  0  0
  -22.4273   -8.0285   21.3545 C   0  0  0  0  0  0
  -21.9914   -9.0257   20.4644 C   0  0  0  0  0  0
  -22.7239  -10.2137   20.3055 C   0  0  0  0  0  0
  -21.6851   -6.0739   22.5279 C   0  0  0  0  0  0
  -21.4012   -6.5642   23.8213 C   0  0  0  0  0  0
  -21.3658   -5.6794   24.9175 C   0  0  0  0  0  0
  -21.6044   -4.3058   24.7225 C   0  0  0  0  0  0
  -21.8820   -3.8151   23.4346 C   0  0  0  0  0  0
  -21.9192   -4.6967   22.3402 C   0  0  0  0  0  0
  -22.7860  -13.5236   21.1854 C   0  0  0  0  0  0
  -22.1662   -4.2152   21.0979 F   0  0  0  0  0  0
  -21.5629   -3.4542   25.7737 F   0  0  0  0  0  0
  -30.0280  -13.3148   20.4309 N   0  0  0  0  0  0
  -26.3007  -12.9352   20.3352 N   0  0  0  0  0  0
  -25.9321  -11.6507   20.5765 N   0  0  0  0  0  0
  -22.0507  -12.8218   22.0405 N   0  0  0  0  0  0
  -25.4294  -15.1894   20.4081 N   0  0  0  0  0  0
  -31.8599  -14.6200   20.1097 O   0  0  0  0  0  0
  -21.6638   -6.8881   21.4241 O   0  0  0  0  0  0
  -22.3544  -14.5547   20.6708 O   0  0  0  0  0  0
  -24.6175  -31.8680   23.2113 C   0  0  0  0  0  0
  -25.9064  -32.4821   23.8408 C   0  0  1  0  0  0
  -27.2230  -27.4091   20.0931 C   0  0  0  0  0  0
  -25.5913  -33.8621   24.2336 N   0  0  0  0  0  0
  -23.4052  -30.4949   21.5532 C   0  0  2  0  0  0
  -24.8485  -28.9664   20.1110 C   0  0  0  0  0  0
  -22.7424  -29.4664   22.4984 C   0  0  0  0  0  0
  -18.0275  -28.1380   22.8497 C   0  0  0  0  0  0
  -24.1487  -36.7309   23.2641 C   0  0  0  0  0  0
  -25.9393  -30.8250   21.3705 C   0  0  0  0  0  0
  -26.0133  -29.4610   20.7110 C   0  0  0  0  0  0
  -27.2031  -28.6908   20.6988 C   0  0  0  0  0  0
  -26.0372  -26.9509   19.4672 C   0  0  0  0  0  0
  -24.8574  -27.7120   19.4846 C   0  0  0  0  0  0
  -23.6127  -29.8351   20.1657 C   0  0  0  0  0  0
  -25.4109  -36.3112   24.0339 C   0  0  1  0  0  0
  -20.5870  -28.3676   23.1310 C   0  0  2  0  0  0
  -20.6766  -26.9410   22.5414 C   0  0  0  0  0  0
  -19.5738  -26.6385   21.5215 C   0  0  0  0  0  0
  -18.1919  -26.7927   22.1626 C   0  0  0  0  0  0
  -19.1527  -28.8845   23.2898 C   0  0  0  0  0  0
  -18.9452  -30.1452   23.8905 C   0  0  0  0  0  0
  -17.6455  -30.6589   24.0564 C   0  0  0  0  0  0
  -25.9038  -34.9476   23.5132 C   0  0  0  0  0  0
  -16.5345  -29.9089   23.6330 C   0  0  0  0  0  0
  -16.7263  -28.6504   23.0355 C   0  0  0  0  0  0
  -26.4481  -31.6598   25.0740 C   0  0  0  0  0  0
  -25.3737  -31.3685   26.1473 C   0  0  0  0  0  0
  -27.0334  -30.3048   24.6131 C   0  0  0  0  0  0
  -27.6052  -32.4324   25.7505 C   0  0  0  0  0  0
  -27.5582  -37.1808   24.8468 C   0  0  0  0  0  0
  -21.4151  -29.3041   22.3718 N   0  0  0  0  0  0
  -26.4298  -37.3797   23.9409 N   0  0  0  0  0  0
  -24.6726  -31.0766   22.1027 N   0  0  0  0  0  0
  -23.4190  -28.8195   23.3023 O   0  0  0  0  0  0
  -28.3698  -26.6268   20.1398 O   0  0  0  0  0  0
  -26.5596  -34.8927   22.4690 O   0  0  0  0  0  0
  -23.5360  -32.1444   23.7492 O   0  0  0  0  0  0
  -32.3618  -18.2138   22.3260 C   0  0  0  0  0  0
  -31.6787  -19.3798   21.9369 C   0  0  0  0  0  0
  -31.8242  -16.9463   22.0475 C   0  0  0  0  0  0
  -29.8919  -18.0102   21.0063 C   0  0  0  0  0  0
  -30.4306  -19.3036   21.2693 C   0  0  0  0  0  0
  -30.5904  -16.8247   21.3706 C   0  0  0  0  0  0
  -29.9674  -21.7907   20.9767 C   0  0  0  0  0  0
  -28.9618  -22.7790   20.3497 C   0  0  0  0  0  0
  -29.2974  -24.2959   20.5163 C   0  0  0  0  0  0
  -28.1820  -25.2051   19.9495 C   0  0  0  0  0  0
  -29.6984  -20.4679   20.8360 N   0  0  0  0  0  0
  -30.0502  -15.5250   21.0947 N   0  0  0  0  0  0
  -30.9474  -22.2404   21.5735 O   0  0  0  0  0  0
  -31.4601  -12.3951   19.1240 H   0  0  0  0  0  0
  -30.3055  -11.3077   19.8391 H   0  0  0  0  0  0
  -29.7316  -11.7660   17.4350 H   0  0  0  0  0  0
  -29.6607  -13.4807   17.7602 H   0  0  0  0  0  0
  -27.8242  -11.3075   18.8235 H   0  0  0  0  0  0
  -27.3627  -12.6302   17.7866 H   0  0  0  0  0  0
  -27.6938  -14.2556   19.5566 H   0  0  0  0  0  0
  -28.6796  -11.9950   21.3645 H   0  0  0  0  0  0
  -28.4660  -13.6492   21.8540 H   0  0  0  0  0  0
  -25.2761   -9.5687   22.4761 H   0  0  0  0  0  0
  -24.0002   -7.4638   22.7476 H   0  0  0  0  0  0
  -21.0849   -8.8774   19.8947 H   0  0  0  0  0  0
  -22.3701  -10.9676   19.6161 H   0  0  0  0  0  0
  -21.2005   -7.6151   23.9716 H   0  0  0  0  0  0
  -21.1479   -6.0526   25.9077 H   0  0  0  0  0  0
  -22.0601   -2.7614   23.2844 H   0  0  0  0  0  0
  -22.4124  -11.9861   22.4760 H   0  0  0  0  0  0
  -21.1129  -13.1243   22.2632 H   0  0  0  0  0  0
  -24.6633  -15.8459   20.5134 H   0  0  0  0  0  0
  -26.2799  -15.6257   20.0751 H   0  0  0  0  0  0
  -26.7130  -32.5527   23.1167 H   0  0  0  0  0  0
  -25.0075  -33.9782   25.0487 H   0  0  0  0  0  0
  -22.6944  -31.3130   21.4179 H   0  0  0  0  0  0
  -23.3758  -35.9633   23.3305 H   0  0  0  0  0  0
  -24.3574  -36.8926   22.2053 H   0  0  0  0  0  0
  -23.7230  -37.6510   23.6655 H   0  0  0  0  0  0
  -26.0600  -31.5943   20.6063 H   0  0  0  0  0  0
  -26.8241  -30.8712   21.9935 H   0  0  0  0  0  0
  -28.0986  -29.0652   21.1752 H   0  0  0  0  0  0
  -25.9925  -25.9991   18.9587 H   0  0  0  0  0  0
  -23.9649  -27.3288   19.0090 H   0  0  0  0  0  0
  -23.7214  -30.6138   19.4097 H   0  0  0  0  0  0
  -22.7348  -29.2583   19.8690 H   0  0  0  0  0  0
  -25.1284  -36.1980   25.0833 H   0  0  0  0  0  0
  -20.9961  -28.3245   24.1430 H   0  0  0  0  0  0
  -20.5684  -26.2279   23.3602 H   0  0  0  0  0  0
  -21.6634  -26.7459   22.1197 H   0  0  0  0  0  0
  -19.6900  -25.6299   21.1235 H   0  0  0  0  0  0
  -19.6675  -27.3198   20.6749 H   0  0  0  0  0  0
  -17.4193  -26.6696   21.4021 H   0  0  0  0  0  0
  -18.0304  -26.0064   22.9015 H   0  0  0  0  0  0
  -19.7930  -30.7267   24.2272 H   0  0  0  0  0  0
  -17.5013  -31.6269   24.5168 H   0  0  0  0  0  0
  -15.5345  -30.2993   23.7650 H   0  0  0  0  0  0
  -15.8665  -28.0822   22.7066 H   0  0  0  0  0  0
  -24.5923  -30.7027   25.7791 H   0  0  0  0  0  0
  -24.8910  -32.2829   26.4934 H   0  0  0  0  0  0
  -25.8086  -30.8839   27.0225 H   0  0  0  0  0  0
  -26.2896  -29.6789   24.1192 H   0  0  0  0  0  0
  -27.4118  -29.7302   25.4596 H   0  0  0  0  0  0
  -27.8719  -30.4377   23.9290 H   0  0  0  0  0  0
  -27.2672  -33.3617   26.2105 H   0  0  0  0  0  0
  -28.3848  -32.6898   25.0322 H   0  0  0  0  0  0
  -28.0738  -31.8438   26.5402 H   0  0  0  0  0  0
  -28.2601  -38.0107   24.7534 H   0  0  0  0  0  0
  -28.1082  -36.2640   24.6284 H   0  0  0  0  0  0
  -27.2295  -37.1449   25.8870 H   0  0  0  0  0  0
  -20.9308  -29.8772   21.6950 H   0  0  0  0  0  0
  -26.0191  -38.2877   24.1413 H   0  0  0  0  0  0
  -33.3101  -18.2927   22.8387 H   0  0  0  0  0  0
  -32.1516  -20.3206   22.1691 H   0  0  0  0  0  0
  -32.3733  -16.0678   22.3580 H   0  0  0  0  0  0
  -28.9424  -17.9244   20.4971 H   0  0  0  0  0  0
  -27.9860  -22.5773   20.7934 H   0  0  0  0  0  0
  -28.8721  -22.5442   19.2886 H   0  0  0  0  0  0
  -30.2427  -24.5241   20.0228 H   0  0  0  0  0  0
  -29.4366  -24.5237   21.5737 H   0  0  0  0  0  0
  -27.2592  -24.8875   20.4387 H   0  0  0  0  0  0
  -28.0679  -25.0057   18.8828 H   0  0  0  0  0  0
  -28.8428  -20.2730   20.3335 H   0  0  0  0  0  0
  -29.0649  -15.3863   21.2601 H   0  0  0  0  0  0
  1 25  1  0  0  0
  1 30  2  0  0  0
  1 82  1  0  0  0
  2  3  1  0  0  0
  2 25  1  0  0  0
  2 84  1  0  0  0
  2 85  1  0  0  0
  3  4  1  0  0  0
  3 86  1  0  0  0
  3 87  1  0  0  0
  4  5  1  0  0  0
  4 88  1  0  0  0
  4 89  1  0  0  0
  5  6  1  0  0  0
  5 26  1  0  0  0
  5 90  1  0  0  0
  6 25  1  0  0  0
  6 91  1  0  0  0
  6 92  1  0  0  0
  7  8  2  0  0  0
  7 26  1  0  0  0
  7 29  1  0  0  0
  8  9  1  0  0  0
  8 22  1  0  0  0
  9 10  1  0  0  0
  9 27  2  0  0  0
 10 11  2  0  0  0
 10 15  1  0  0  0
 11 12  1  0  0  0
 11 93  1  0  0  0
 12 13  2  0  0  0
 12 94  1  0  0  0
 13 14  1  0  0  0
 13 31  1  0  0  0
 14 15  2  0  0  0
 14 95  1  0  0  0
 15 96  1  0  0  0
 16 17  2  0  0  0
 16 21  1  0  0  0
 16 31  1  0  0  0
 17 18  1  0  0  0
 17 97  1  0  0  0
 18 19  2  0  0  0
 18 98  1  0  0  0
 19 20  1  0  0  0
 19 24  1  0  0  0
 20 21  2  0  0  0
 20 99  1  0  0  0
 21 23  1  0  0  0
 22 28  1  0  0  0
 22 32  2  0  0  0
 26 27  1  0  0  0
 28100  1  0  0  0
 28101  1  0  0  0
 29102  1  0  0  0
 29103  1  0  0  0
 33 34  1  0  0  0
 33 66  1  0  0  0
 33 70  2  0  0  0
 34 36  1  0  0  0
 34 59  1  0  0  0
 34104  1  0  0  0
 35 44  2  0  0  0
 35 45  1  0  0  0
 35 68  1  0  0  0
 36 56  1  0  0  0
 36105  1  0  0  0
 37 39  1  0  0  0
 37 47  1  0  0  0
 37 66  1  0  0  0
 37106  1  0  0  0
 38 43  2  0  0  0
 38 46  1  0  0  0
 38 47  1  0  0  0
 39 64  1  0  0  0
 39 67  2  0  0  0
 40 52  1  0  0  0
 40 53  2  0  0  0
 40 58  1  0  0  0
 41107  1  0  0  0
 41108  1  0  0  0
 41109  1  0  0  0
 41 48  1  0  0  0
 42 43  1  0  0  0
 42 66  1  0  0  0
 42110  1  0  0  0
 42111  1  0  0  0
 43 44  1  0  0  0
 44112  1  0  0  0
 45 46  2  0  0  0
 45113  1  0  0  0
 46114  1  0  0  0
 47115  1  0  0  0
 47116  1  0  0  0
 48 56  1  0  0  0
 48 65  1  0  0  0
 48117  1  0  0  0
 49 50  1  0  0  0
 49 53  1  0  0  0
 49 64  1  0  0  0
 49118  1  0  0  0
 50 51  1  0  0  0
 50119  1  0  0  0
 50120  1  0  0  0
 51 52  1  0  0  0
 51121  1  0  0  0
 51122  1  0  0  0
 52123  1  0  0  0
 52124  1  0  0  0
 53 54  1  0  0  0
 54 55  2  0  0  0
 54125  1  0  0  0
 55 57  1  0  0  0
 55126  1  0  0  0
 56 69  2  0  0  0
 57 58  2  0  0  0
 57127  1  0  0  0
 58128  1  0  0  0
 59 60  1  0  0  0
 59 61  1  0  0  0
 59 62  1  0  0  0
 60129  1  0  0  0
 60130  1  0  0  0
 60131  1  0  0  0
 61132  1  0  0  0
 61133  1  0  0  0
 61134  1  0  0  0
 62135  1  0  0  0
 62136  1  0  0  0
 62137  1  0  0  0
 63 65  1  0  0  0
 63138  1  0  0  0
 63139  1  0  0  0
 63140  1  0  0  0
 64141  1  0  0  0
 65142  1  0  0  0
 68 80  1  0  0  0
 71 72  2  0  0  0
 71 73  1  0  0  0
 71143  1  0  0  0
 72 75  1  0  0  0
 72144  1  0  0  0
 73 76  2  0  0  0
 73145  1  0  0  0
 74 75  2  0  0  0
 74 76  1  0  0  0
 74146  1  0  0  0
 75 81  1  0  0  0
 76 82  1  0  0  0
 77 78  1  0  0  0
 77 81  1  0  0  0
 77 83  2  0  0  0
 78 79  1  0  0  0
 78147  1  0  0  0
 78148  1  0  0  0
 79 80  1  0  0  0
 79149  1  0  0  0
 79150  1  0  0  0
 80151  1  0  0  0
 80152  1  0  0  0
 81153  1  0  0  0
 82154  1  0  0  0
M  ISO  4   1 100  68 101  80 101  82 100
M  END
> <chiral flag>
0

> <version>
0

> <s_m_source_file>
/data/baiqing/PycharmProjects/Reinvent-master-3.2/result/LINK_invent/BTK/process_docking_weight1_custom_product_contain_oxygen_bond_distance_aromatic_linkinvent_7_9_3/rearranged_h_0071.sdf

> <i_m_source_file_index>
57

> <r_mmod_Potential_Energy-OPLS-2005>
-82.9036636352539

> <r_mmod_Stretch_Energy-OPLS-2005>
43.5146064758301

> <r_mmod_Bend_Energy-OPLS-2005>
102.434417724609

> <r_mmod_Torsional_Energy-OPLS-2005>
222.946380615234

> <r_mmod_Improper_Torsional_Energy-OPLS-2005>
3.56133818626404

> <r_mmod_Van_der_Waal_Energy-OPLS-2005>
167.015167236328

> <r_mmod_Electrostatic_Energy-OPLS-2005>
-401.277069091797

> <r_mmod_Solvation_Energy-OPLS-2005>
-238.666366577148

> <b_mmod_Minimization_Converged-OPLS-2005>
0

> <r_mmod_RMS_Derivative-OPLS-2005>
0.538797676563263

$$$$
57
                    3D
 Structure written by MMmdl.
163172  0  0  1  0            999 V2000
  -30.6426  -14.7568   20.4627 C   0  0  0  0  0  0
  -30.4224  -12.4680   19.4743 C   0  0  0  0  0  0
  -29.5036  -12.5222   18.2350 C   0  0  0  0  0  0
  -28.0313  -12.3460   18.6478 C   0  0  0  0  0  0
  -27.6389  -13.2406   19.8535 C   0  0  2  0  0  0
  -28.6892  -13.1939   20.9872 C   0  0  0  0  0  0
  -25.2488  -13.8210   20.5702 C   0  0  0  0  0  0
  -24.1792  -13.0452   20.9198 C   0  0  0  0  0  0
  -24.6389  -11.6929   20.8743 C   0  0  0  0  0  0
  -23.9060  -10.4299   21.0393 C   0  0  0  0  0  0
  -24.3617   -9.4221   21.9184 C   0  0  0  0  0  0
  -23.6281   -8.2263   22.0763 C   0  0  0  0  0  0
  -22.4271   -8.0286   21.3542 C   0  0  0  0  0  0
  -21.9909   -9.0259   20.4649 C   0  0  0  0  0  0
  -22.7229  -10.2134   20.3046 C   0  0  0  0  0  0
  -21.6861   -6.0720   22.5263 C   0  0  0  0  0  0
  -21.4026   -6.5638   23.8197 C   0  0  0  0  0  0
  -21.3659   -5.6786   24.9165 C   0  0  0  0  0  0
  -21.6045   -4.3047   24.7220 C   0  0  0  0  0  0
  -21.8818   -3.8139   23.4345 C   0  0  0  0  0  0
  -21.9196   -4.6944   22.3396 C   0  0  0  0  0  0
  -22.7812  -13.5229   21.1844 C   0  0  0  0  0  0
  -22.1662   -4.2137   21.0972 F   0  0  0  0  0  0
  -21.5625   -3.4534   25.7740 F   0  0  0  0  0  0
  -29.9872  -13.5436   20.3968 N   0  0  0  0  0  0
  -26.2937  -12.9444   20.3324 N   0  0  0  0  0  0
  -25.9331  -11.6567   20.5780 N   0  0  0  0  0  0
  -22.0460  -12.8218   22.0394 N   0  0  0  0  0  0
  -25.4149  -15.1940   20.4100 N   0  0  0  0  0  0
  -31.8304  -14.8024   20.1345 O   0  0  0  0  0  0
  -21.6646   -6.8872   21.4229 O   0  0  0  0  0  0
  -22.3490  -14.5535   20.6686 O   0  0  0  0  0  0
  -24.6335  -31.8548   23.1967 C   0  0  0  0  0  0
  -25.9191  -32.4729   23.8294 C   0  0  1  0  0  0
  -27.2252  -27.2417   20.1219 C   0  0  0  0  0  0
  -25.6006  -33.8528   24.2228 N   0  0  0  0  0  0
  -23.4311  -30.4714   21.5421 C   0  0  2  0  0  0
  -24.8771  -28.9204   20.1034 C   0  0  0  0  0  0
  -22.7535  -29.4566   22.4944 C   0  0  0  0  0  0
  -18.0310  -28.1368   22.8461 C   0  0  0  0  0  0
  -24.1513  -36.7253   23.2634 C   0  0  0  0  0  0
  -25.9753  -30.7566   21.3835 C   0  0  0  0  0  0
  -26.0458  -29.3773   20.7235 C   0  0  0  0  0  0
  -27.2160  -28.5473   20.7289 C   0  0  0  0  0  0
  -26.0320  -26.8701   19.4560 C   0  0  0  0  0  0
  -24.8759  -27.6756   19.4587 C   0  0  0  0  0  0
  -23.6479  -29.8075   20.1555 C   0  0  0  0  0  0
  -25.4138  -36.3031   24.0302 C   0  0  1  0  0  0
  -20.5903  -28.3686   23.1266 C   0  0  2  0  0  0
  -20.6821  -26.9412   22.5404 C   0  0  0  0  0  0
  -19.5794  -26.6372   21.5206 C   0  0  0  0  0  0
  -18.1963  -26.7908   22.1587 C   0  0  0  0  0  0
  -19.1556  -28.8851   23.2840 C   0  0  0  0  0  0
  -18.9478  -30.1453   23.8849 C   0  0  0  0  0  0
  -17.6475  -30.6573   24.0538 C   0  0  0  0  0  0
  -25.9079  -34.9410   23.5057 C   0  0  0  0  0  0
  -16.5368  -29.9052   23.6328 C   0  0  0  0  0  0
  -16.7296  -28.6473   23.0329 C   0  0  0  0  0  0
  -26.4547  -31.6558   25.0695 C   0  0  0  0  0  0
  -25.3748  -31.3704   26.1403 C   0  0  0  0  0  0
  -27.0437  -30.2983   24.6197 C   0  0  0  0  0  0
  -27.6092  -32.4321   25.7487 C   0  0  0  0  0  0
  -27.5581  -37.1789   24.8460 C   0  0  0  0  0  0
  -21.4252  -29.3003   22.3656 N   0  0  0  0  0  0
  -26.4306  -37.3736   23.9383 N   0  0  0  0  0  0
  -24.6985  -31.0461   22.0970 N   0  0  0  0  0  0
  -23.4223  -28.8142   23.3086 O   0  0  0  0  0  0
  -28.3310  -26.3506   20.2169 O   0  0  0  0  0  0
  -26.5634  -34.8901   22.4616 O   0  0  0  0  0  0
  -23.5496  -32.1405   23.7252 O   0  0  0  0  0  0
  -31.3097  -20.0830   20.8932 C   0  0  0  0  0  0
  -31.6869  -17.6602   21.0571 C   0  0  0  0  0  0
  -29.4801  -18.5254   20.5293 C   0  0  0  0  0  0
  -32.1624  -18.9869   21.1563 C   0  0  0  0  0  0
  -29.9397  -19.9127   20.5965 C   0  0  0  0  0  0
  -30.3445  -17.3607   20.7265 C   0  0  0  0  0  0
  -28.1773  -21.5432   21.3503 C   0  0  0  0  0  0
  -28.0279  -22.8828   21.4714 C   0  0  0  0  0  0
  -25.7973  -23.1376   22.4609 C   0  0  0  0  0  0
  -27.0840  -23.5082   22.3747 C   0  0  0  0  0  0
  -29.5766  -22.3970   19.7893 C   0  0  0  0  0  0
  -28.9626  -23.6645   20.5646 C   0  0  1  0  0  0
  -28.2843  -24.9081   19.7535 C   0  0  0  0  0  0
  -33.6082  -19.2517   21.5515 C   0  0  0  0  0  0
  -29.1256  -21.1119   20.4391 N   0  0  0  0  0  0
  -34.4222  -19.5467   20.4022 N   0  0  0  0  0  0
  -29.9114  -15.9280   20.6655 N   0  0  0  0  0  0
  -33.6682  -20.2928   22.3809 F   0  0  0  0  0  0
  -34.1413  -18.2021   22.1756 F   0  0  0  0  0  0
  -31.4643  -12.5758   19.1714 H   0  0  0  0  0  0
  -30.3548  -11.4971   19.9662 H   0  0  0  0  0  0
  -29.7887  -11.7532   17.5159 H   0  0  0  0  0  0
  -29.6265  -13.4780   17.7238 H   0  0  0  0  0  0
  -27.8821  -11.2954   18.8995 H   0  0  0  0  0  0
  -27.3751  -12.5530   17.8018 H   0  0  0  0  0  0
  -27.6270  -14.2608   19.4723 H   0  0  0  0  0  0
  -28.7311  -12.2047   21.4475 H   0  0  0  0  0  0
  -28.4260  -13.8904   21.7857 H   0  0  0  0  0  0
  -25.2755   -9.5707   22.4761 H   0  0  0  0  0  0
  -23.9984   -7.4665   22.7504 H   0  0  0  0  0  0
  -21.0835   -8.8768   19.8961 H   0  0  0  0  0  0
  -22.3677  -10.9670   19.6159 H   0  0  0  0  0  0
  -21.2028   -7.6150   23.9692 H   0  0  0  0  0  0
  -21.1480   -6.0532   25.9069 H   0  0  0  0  0  0
  -22.0598   -2.7601   23.2849 H   0  0  0  0  0  0
  -22.4084  -11.9867   22.4755 H   0  0  0  0  0  0
  -21.1089  -13.1253   22.2625 H   0  0  0  0  0  0
  -24.6403  -15.8419   20.5069 H   0  0  0  0  0  0
  -26.2555  -15.6350   20.0605 H   0  0  0  0  0  0
  -26.7259  -32.5373   23.1027 H   0  0  0  0  0  0
  -25.0232  -33.9663   25.0430 H   0  0  0  0  0  0
  -22.7269  -31.2927   21.3984 H   0  0  0  0  0  0
  -23.3777  -35.9589   23.3293 H   0  0  0  0  0  0
  -24.3607  -36.8892   22.2051 H   0  0  0  0  0  0
  -23.7270  -37.6442   23.6685 H   0  0  0  0  0  0
  -26.1175  -31.5206   20.6190 H   0  0  0  0  0  0
  -26.8492  -30.7985   22.0212 H   0  0  0  0  0  0
  -28.1068  -28.8853   21.2388 H   0  0  0  0  0  0
  -25.9372  -25.9370   18.9267 H   0  0  0  0  0  0
  -23.9843  -27.3238   18.9567 H   0  0  0  0  0  0
  -23.7706  -30.5855   19.4013 H   0  0  0  0  0  0
  -22.7663  -29.2390   19.8560 H   0  0  0  0  0  0
  -25.1326  -36.1856   25.0789 H   0  0  0  0  0  0
  -20.9949  -28.3282   24.1398 H   0  0  0  0  0  0
  -20.5793  -26.2287   23.3607 H   0  0  0  0  0  0
  -21.6692  -26.7496   22.1158 H   0  0  0  0  0  0
  -19.6991  -25.6288   21.1235 H   0  0  0  0  0  0
  -19.6747  -27.3191   20.6748 H   0  0  0  0  0  0
  -17.4258  -26.6662   21.3962 H   0  0  0  0  0  0
  -18.0327  -26.0053   22.8975 H   0  0  0  0  0  0
  -19.7970  -30.7260   24.2201 H   0  0  0  0  0  0
  -17.5042  -31.6243   24.5155 H   0  0  0  0  0  0
  -15.5368  -30.2920   23.7706 H   0  0  0  0  0  0
  -15.8695  -28.0795   22.7039 H   0  0  0  0  0  0
  -24.5969  -30.7007   25.7710 H   0  0  0  0  0  0
  -24.8899  -32.2874   26.4762 H   0  0  0  0  0  0
  -25.8062  -30.8930   27.0210 H   0  0  0  0  0  0
  -26.3041  -29.6680   24.1256 H   0  0  0  0  0  0
  -27.4163  -29.7286   25.4715 H   0  0  0  0  0  0
  -27.8882  -30.4247   23.9423 H   0  0  0  0  0  0
  -27.2695  -33.3660   26.1966 H   0  0  0  0  0  0
  -28.3956  -32.6808   25.0350 H   0  0  0  0  0  0
  -28.0689  -31.8497   26.5481 H   0  0  0  0  0  0
  -28.2571  -38.0117   24.7530 H   0  0  0  0  0  0
  -28.1111  -36.2642   24.6272 H   0  0  0  0  0  0
  -27.2296  -37.1391   25.8866 H   0  0  0  0  0  0
  -20.9495  -29.8652   21.6765 H   0  0  0  0  0  0
  -26.0173  -38.2797   24.1414 H   0  0  0  0  0  0
  -31.7225  -21.0762   20.9882 H   0  0  0  0  0  0
  -32.3869  -16.8662   21.2674 H   0  0  0  0  0  0
  -28.4361  -18.3564   20.3094 H   0  0  0  0  0  0
  -27.6315  -20.7815   21.8908 H   0  0  0  0  0  0
  -25.1228  -23.6262   23.1499 H   0  0  0  0  0  0
  -25.3998  -22.3442   21.8425 H   0  0  0  0  0  0
  -27.4382  -24.3058   23.0137 H   0  0  0  0  0  0
  -30.6607  -22.4761   19.7176 H   0  0  0  0  0  0
  -29.2038  -22.3895   18.7645 H   0  0  0  0  0  0
  -29.7528  -24.0718   21.1958 H   0  0  0  0  0  0
  -27.2675  -24.5776   19.5686 H   0  0  0  0  0  0
  -28.7479  -24.9308   18.7663 H   0  0  0  0  0  0
  -33.8470  -19.3840   19.5870 H   0  0  0  0  0  0
  -35.1387  -18.8338   20.3553 H   0  0  0  0  0  0
  -28.9197  -15.7772   20.7655 H   0  0  0  0  0  0
  1 25  1  0  0  0
  1 30  2  0  0  0
  1 87  1  0  0  0
  2  3  1  0  0  0
  2 25  1  0  0  0
  2 90  1  0  0  0
  2 91  1  0  0  0
  3  4  1  0  0  0
  3 92  1  0  0  0
  3 93  1  0  0  0
  4  5  1  0  0  0
  4 94  1  0  0  0
  4 95  1  0  0  0
  5  6  1  0  0  0
  5 26  1  0  0  0
  5 96  1  0  0  0
  6 25  1  0  0  0
  6 97  1  0  0  0
  6 98  1  0  0  0
  7  8  2  0  0  0
  7 26  1  0  0  0
  7 29  1  0  0  0
  8  9  1  0  0  0
  8 22  1  0  0  0
  9 10  1  0  0  0
  9 27  2  0  0  0
 10 11  2  0  0  0
 10 15  1  0  0  0
 11 12  1  0  0  0
 11 99  1  0  0  0
 12 13  2  0  0  0
 12100  1  0  0  0
 13 14  1  0  0  0
 13 31  1  0  0  0
 14 15  2  0  0  0
 14101  1  0  0  0
 15102  1  0  0  0
 16 17  2  0  0  0
 16 21  1  0  0  0
 16 31  1  0  0  0
 17 18  1  0  0  0
 17103  1  0  0  0
 18 19  2  0  0  0
 18104  1  0  0  0
 19 20  1  0  0  0
 19 24  1  0  0  0
 20 21  2  0  0  0
 20105  1  0  0  0
 21 23  1  0  0  0
 22 28  1  0  0  0
 22 32  2  0  0  0
 26 27  1  0  0  0
 28106  1  0  0  0
 28107  1  0  0  0
 29108  1  0  0  0
 29109  1  0  0  0
 33 34  1  0  0  0
 33 66  1  0  0  0
 33 70  2  0  0  0
 34 36  1  0  0  0
 34 59  1  0  0  0
 34110  1  0  0  0
 35 44  2  0  0  0
 35 45  1  0  0  0
 35 68  1  0  0  0
 36 56  1  0  0  0
 36111  1  0  0  0
 37 39  1  0  0  0
 37 47  1  0  0  0
 37 66  1  0  0  0
 37112  1  0  0  0
 38 43  2  0  0  0
 38 46  1  0  0  0
 38 47  1  0  0  0
 39 64  1  0  0  0
 39 67  2  0  0  0
 40 52  1  0  0  0
 40 53  2  0  0  0
 40 58  1  0  0  0
 41113  1  0  0  0
 41114  1  0  0  0
 41115  1  0  0  0
 41 48  1  0  0  0
 42 43  1  0  0  0
 42 66  1  0  0  0
 42116  1  0  0  0
 42117  1  0  0  0
 43 44  1  0  0  0
 44118  1  0  0  0
 45 46  2  0  0  0
 45119  1  0  0  0
 46120  1  0  0  0
 47121  1  0  0  0
 47122  1  0  0  0
 48 56  1  0  0  0
 48 65  1  0  0  0
 48123  1  0  0  0
 49 50  1  0  0  0
 49 53  1  0  0  0
 49 64  1  0  0  0
 49124  1  0  0  0
 50 51  1  0  0  0
 50125  1  0  0  0
 50126  1  0  0  0
 51 52  1  0  0  0
 51127  1  0  0  0
 51128  1  0  0  0
 52129  1  0  0  0
 52130  1  0  0  0
 53 54  1  0  0  0
 54 55  2  0  0  0
 54131  1  0  0  0
 55 57  1  0  0  0
 55132  1  0  0  0
 56 69  2  0  0  0
 57 58  2  0  0  0
 57133  1  0  0  0
 58134  1  0  0  0
 59 60  1  0  0  0
 59 61  1  0  0  0
 59 62  1  0  0  0
 60135  1  0  0  0
 60136  1  0  0  0
 60137  1  0  0  0
 61138  1  0  0  0
 61139  1  0  0  0
 61140  1  0  0  0
 62141  1  0  0  0
 62142  1  0  0  0
 62143  1  0  0  0
 63 65  1  0  0  0
 63144  1  0  0  0
 63145  1  0  0  0
 63146  1  0  0  0
 64147  1  0  0  0
 65148  1  0  0  0
 68 83  1  0  0  0
 71 74  2  0  0  0
 71 75  1  0  0  0
 71149  1  0  0  0
 72 74  1  0  0  0
 72 76  2  0  0  0
 72150  1  0  0  0
 73 75  2  0  0  0
 73 76  1  0  0  0
 73151  1  0  0  0
 74 84  1  0  0  0
 75 85  1  0  0  0
 76 87  1  0  0  0
 77 78  2  0  0  0
 77 85  1  0  0  0
 77152  1  0  0  0
 78 80  1  0  0  0
 78 82  1  0  0  0
 79 80  2  0  0  0
 79153  1  0  0  0
 79154  1  0  0  0
 80155  1  0  0  0
 81 82  1  0  0  0
 81 85  1  0  0  0
 81156  1  0  0  0
 81157  1  0  0  0
 82 83  1  0  0  0
 82158  1  0  0  0
 83159  1  0  0  0
 83160  1  0  0  0
 84 86  1  0  0  0
 84 88  1  0  0  0
 84 89  1  0  0  0
 86161  1  0  0  0
 86162  1  0  0  0
 87163  1  0  0  0
M  ISO  4   1 100  68 101  83 101  87 100
M  END
> <chiral flag>
0

> <version>
0

> <s_m_source_file>
/data/baiqing/PycharmProjects/Reinvent-master-3.2/result/LINK_invent/BTK/process_docking_weight1_custom_product_contain_oxygen_bond_distance_aromatic_linkinvent_7_9_3/rearranged_h_0071.sdf

> <i_m_source_file_index>
58

> <r_mmod_Potential_Energy-OPLS-2005>
190.527450561523

> <r_mmod_Stretch_Energy-OPLS-2005>
133.627014160156

> <r_mmod_Bend_Energy-OPLS-2005>
238.077529907227

> <r_mmod_Torsional_Energy-OPLS-2005>
268.615600585938

> <r_mmod_Improper_Torsional_Energy-OPLS-2005>
7.24995470046997

> <r_mmod_Van_der_Waal_Energy-OPLS-2005>
141.298370361328

> <r_mmod_Electrostatic_Energy-OPLS-2005>
-476.278747558594

> <r_mmod_Solvation_Energy-OPLS-2005>
-215.038543701172

> <b_mmod_Minimization_Converged-OPLS-2005>
0

> <r_mmod_RMS_Derivative-OPLS-2005>
2.79646301269531

$$$$
58
                    3D
 Structure written by MMmdl.
160169  0  0  1  0            999 V2000
  -30.7540  -14.4788   20.5639 C   0  0  0  0  0  0
  -30.4013  -12.3133   19.4325 C   0  0  0  0  0  0
  -29.4868  -12.4960   18.2078 C   0  0  0  0  0  0
  -28.0096  -12.3597   18.6225 C   0  0  0  0  0  0
  -27.6518  -13.2198   19.8650 C   0  0  2  0  0  0
  -28.6969  -13.0600   20.9925 C   0  0  0  0  0  0
  -25.2543  -13.8194   20.5696 C   0  0  0  0  0  0
  -24.1815  -13.0448   20.9196 C   0  0  0  0  0  0
  -24.6385  -11.6919   20.8742 C   0  0  0  0  0  0
  -23.9058  -10.4297   21.0401 C   0  0  0  0  0  0
  -24.3610   -9.4213   21.9178 C   0  0  0  0  0  0
  -23.6290   -8.2245   22.0748 C   0  0  0  0  0  0
  -22.4275   -8.0277   21.3540 C   0  0  0  0  0  0
  -21.9908   -9.0248   20.4644 C   0  0  0  0  0  0
  -22.7229  -10.2133   20.3052 C   0  0  0  0  0  0
  -21.6856   -6.0734   22.5279 C   0  0  0  0  0  0
  -21.4015   -6.5637   23.8210 C   0  0  0  0  0  0
  -21.3659   -5.6791   24.9170 C   0  0  0  0  0  0
  -21.6045   -4.3053   24.7224 C   0  0  0  0  0  0
  -21.8820   -3.8145   23.4343 C   0  0  0  0  0  0
  -21.9195   -4.6962   22.3400 C   0  0  0  0  0  0
  -22.7838  -13.5233   21.1851 C   0  0  0  0  0  0
  -22.1661   -4.2145   21.0979 F   0  0  0  0  0  0
  -21.5627   -3.4536   25.7737 F   0  0  0  0  0  0
  -30.0200  -13.3395   20.4196 N   0  0  0  0  0  0
  -26.2978  -12.9387   20.3347 N   0  0  0  0  0  0
  -25.9316  -11.6534   20.5769 N   0  0  0  0  0  0
  -22.0486  -12.8223   22.0409 N   0  0  0  0  0  0
  -25.4257  -15.1916   20.4104 N   0  0  0  0  0  0
  -31.9059  -14.5378   20.1238 O   0  0  0  0  0  0
  -21.6639   -6.8877   21.4240 O   0  0  0  0  0  0
  -22.3525  -14.5536   20.6691 O   0  0  0  0  0  0
  -24.6147  -31.8683   23.2108 C   0  0  0  0  0  0
  -25.9048  -32.4818   23.8397 C   0  0  1  0  0  0
  -27.2241  -27.4277   20.1055 C   0  0  0  0  0  0
  -25.5908  -33.8617   24.2331 N   0  0  0  0  0  0
  -23.4025  -30.4922   21.5505 C   0  0  2  0  0  0
  -24.8492  -28.9569   20.1148 C   0  0  0  0  0  0
  -22.7409  -29.4663   22.4988 C   0  0  0  0  0  0
  -18.0274  -28.1374   22.8488 C   0  0  0  0  0  0
  -24.1487  -36.7311   23.2638 C   0  0  0  0  0  0
  -25.9315  -30.8309   21.3663 C   0  0  0  0  0  0
  -26.0083  -29.4631   20.7183 C   0  0  0  0  0  0
  -27.2011  -28.7029   20.7170 C   0  0  0  0  0  0
  -26.0583  -26.9446   19.4803 C   0  0  0  0  0  0
  -24.8684  -27.6958   19.4933 C   0  0  0  0  0  0
  -23.6119  -29.8250   20.1644 C   0  0  0  0  0  0
  -25.4105  -36.3106   24.0339 C   0  0  1  0  0  0
  -20.5863  -28.3660   23.1318 C   0  0  2  0  0  0
  -20.6763  -26.9397   22.5420 C   0  0  0  0  0  0
  -19.5743  -26.6383   21.5214 C   0  0  0  0  0  0
  -18.1920  -26.7920   22.1621 C   0  0  0  0  0  0
  -19.1525  -28.8834   23.2900 C   0  0  0  0  0  0
  -18.9452  -30.1440   23.8906 C   0  0  0  0  0  0
  -17.6456  -30.6580   24.0564 C   0  0  0  0  0  0
  -25.9033  -34.9473   23.5129 C   0  0  0  0  0  0
  -16.5345  -29.9081   23.6329 C   0  0  0  0  0  0
  -16.7265  -28.6501   23.0343 C   0  0  0  0  0  0
  -26.4478  -31.6589   25.0719 C   0  0  0  0  0  0
  -25.3753  -31.3693   26.1474 C   0  0  0  0  0  0
  -27.0303  -30.3030   24.6087 C   0  0  0  0  0  0
  -27.6055  -32.4303   25.7483 C   0  0  0  0  0  0
  -27.5579  -37.1811   24.8466 C   0  0  0  0  0  0
  -21.4138  -29.3028   22.3725 N   0  0  0  0  0  0
  -26.4295  -37.3789   23.9410 N   0  0  0  0  0  0
  -24.6675  -31.0784   22.1008 N   0  0  0  0  0  0
  -23.4186  -28.8208   23.3030 O   0  0  0  0  0  0
  -28.3588  -26.6486   20.0946 O   0  0  0  0  0  0
  -26.5593  -34.8926   22.4688 O   0  0  0  0  0  0
  -23.5342  -32.1442   23.7506 O   0  0  0  0  0  0
  -28.9265  -18.3772   22.0866 C   0  0  0  0  0  0
  -28.3626  -19.6744   22.1240 C   0  0  0  0  0  0
  -29.7262  -20.3344   20.2427 C   0  0  0  0  0  0
  -29.9327  -18.0533   21.1529 C   0  0  0  0  0  0
  -30.2989  -19.0414   20.1962 C   0  0  0  0  0  0
  -28.7811  -20.7023   21.2337 C   0  0  0  0  0  0
  -28.5724  -23.1794   20.6678 C   0  0  0  0  0  0
  -30.7228  -16.7671   21.2776 C   0  0  0  0  0  0
  -27.1653  -23.9075   22.4398 C   0  0  0  0  0  0
  -27.2628  -22.3797   22.3922 C   0  0  0  0  0  0
  -27.7377  -24.3936   21.1088 C   0  0  1  0  0  0
  -31.3329  -18.7585   19.1125 C   0  0  0  0  0  0
  -28.4836  -25.7642   21.2234 C   0  0  0  0  0  0
  -28.2568  -22.0540   21.3677 N   0  0  0  0  0  0
  -30.1135  -15.5847   21.0190 N   0  0  0  0  0  0
  -29.4123  -23.2835   19.7693 O   0  0  0  0  0  0
  -31.9147  -16.8765   21.5914 O   0  0  0  0  0  0
  -31.4483  -12.3710   19.1305 H   0  0  0  0  0  0
  -30.2755  -11.3173   19.8602 H   0  0  0  0  0  0
  -29.7289  -11.7590   17.4408 H   0  0  0  0  0  0
  -29.6588  -13.4752   17.7584 H   0  0  0  0  0  0
  -27.8228  -11.3063   18.8343 H   0  0  0  0  0  0
  -27.3590  -12.6192   17.7860 H   0  0  0  0  0  0
  -27.6783  -14.2593   19.5373 H   0  0  0  0  0  0
  -28.6766  -12.0453   21.3934 H   0  0  0  0  0  0
  -28.4683  -13.7177   21.8325 H   0  0  0  0  0  0
  -25.2756   -9.5695   22.4747 H   0  0  0  0  0  0
  -24.0004   -7.4641   22.7466 H   0  0  0  0  0  0
  -21.0840   -8.8761   19.8952 H   0  0  0  0  0  0
  -22.3680  -10.9664   19.6157 H   0  0  0  0  0  0
  -21.2006   -7.6146   23.9707 H   0  0  0  0  0  0
  -21.1482   -6.0522   25.9073 H   0  0  0  0  0  0
  -22.0602   -2.7606   23.2841 H   0  0  0  0  0  0
  -22.4096  -11.9882   22.4799 H   0  0  0  0  0  0
  -21.1099  -13.1239   22.2603 H   0  0  0  0  0  0
  -24.6581  -15.8463   20.5158 H   0  0  0  0  0  0
  -26.2736  -15.6299   20.0744 H   0  0  0  0  0  0
  -26.7118  -32.5541   23.1164 H   0  0  0  0  0  0
  -25.0092  -33.9777   25.0498 H   0  0  0  0  0  0
  -22.6912  -31.3091   21.4119 H   0  0  0  0  0  0
  -23.3744  -35.9650   23.3314 H   0  0  0  0  0  0
  -24.3587  -36.8911   22.2051 H   0  0  0  0  0  0
  -23.7246  -37.6524   23.6639 H   0  0  0  0  0  0
  -26.0448  -31.5942   20.5950 H   0  0  0  0  0  0
  -26.8196  -30.8862   21.9838 H   0  0  0  0  0  0
  -28.0949  -29.0863   21.1885 H   0  0  0  0  0  0
  -26.0657  -25.9846   18.9852 H   0  0  0  0  0  0
  -23.9798  -27.3034   19.0183 H   0  0  0  0  0  0
  -23.7222  -30.6005   19.4054 H   0  0  0  0  0  0
  -22.7352  -29.2458   19.8679 H   0  0  0  0  0  0
  -25.1282  -36.1972   25.0832 H   0  0  0  0  0  0
  -20.9959  -28.3226   24.1438 H   0  0  0  0  0  0
  -20.5665  -26.2269   23.3604 H   0  0  0  0  0  0
  -21.6634  -26.7441   22.1212 H   0  0  0  0  0  0
  -19.6904  -25.6298   21.1232 H   0  0  0  0  0  0
  -19.6685  -27.3203   20.6752 H   0  0  0  0  0  0
  -17.4193  -26.6677   21.4015 H   0  0  0  0  0  0
  -18.0318  -26.0058   22.9012 H   0  0  0  0  0  0
  -19.7932  -30.7255   24.2273 H   0  0  0  0  0  0
  -17.5014  -31.6260   24.5164 H   0  0  0  0  0  0
  -15.5346  -30.2984   23.7645 H   0  0  0  0  0  0
  -15.8667  -28.0826   22.7041 H   0  0  0  0  0  0
  -24.5926  -30.7034   25.7823 H   0  0  0  0  0  0
  -24.8945  -32.2848   26.4932 H   0  0  0  0  0  0
  -25.8122  -30.8866   27.0227 H   0  0  0  0  0  0
  -26.2843  -29.6794   24.1148 H   0  0  0  0  0  0
  -27.4085  -29.7257   25.4535 H   0  0  0  0  0  0
  -27.8674  -30.4344   23.9226 H   0  0  0  0  0  0
  -27.2673  -33.3592   26.2087 H   0  0  0  0  0  0
  -28.3854  -32.6880   25.0305 H   0  0  0  0  0  0
  -28.0736  -31.8413   26.5381 H   0  0  0  0  0  0
  -28.2603  -38.0101   24.7507 H   0  0  0  0  0  0
  -28.1065  -36.2634   24.6293 H   0  0  0  0  0  0
  -27.2304  -37.1468   25.8873 H   0  0  0  0  0  0
  -20.9296  -29.8758   21.6955 H   0  0  0  0  0  0
  -26.0182  -38.2870   24.1403 H   0  0  0  0  0  0
  -28.6293  -17.6503   22.8302 H   0  0  0  0  0  0
  -27.6238  -19.8646   22.8884 H   0  0  0  0  0  0
  -30.0624  -21.0472   19.5067 H   0  0  0  0  0  0
  -27.7652  -24.2797   23.2718 H   0  0  0  0  0  0
  -26.1413  -24.2475   22.5985 H   0  0  0  0  0  0
  -26.3048  -21.9354   22.1170 H   0  0  0  0  0  0
  -27.5454  -22.0009   23.3749 H   0  0  0  0  0  0
  -26.9154  -24.4714   20.4014 H   0  0  0  0  0  0
  -31.3226  -19.5279   18.3397 H   0  0  0  0  0  0
  -31.1359  -17.8059   18.6188 H   0  0  0  0  0  0
  -32.3380  -18.7282   19.5348 H   0  0  0  0  0  0
  -29.5476  -25.5913   21.3896 H   0  0  0  0  0  0
  -28.1444  -26.2926   22.1167 H   0  0  0  0  0  0
  -29.1091  -15.5629   21.0457 H   0  0  0  0  0  0
  1 25  1  0  0  0
  1 30  2  0  0  0
  1 85  1  0  0  0
  2  3  1  0  0  0
  2 25  1  0  0  0
  2 88  1  0  0  0
  2 89  1  0  0  0
  3  4  1  0  0  0
  3 90  1  0  0  0
  3 91  1  0  0  0
  4  5  1  0  0  0
  4 92  1  0  0  0
  4 93  1  0  0  0
  5  6  1  0  0  0
  5 26  1  0  0  0
  5 94  1  0  0  0
  6 25  1  0  0  0
  6 95  1  0  0  0
  6 96  1  0  0  0
  7  8  2  0  0  0
  7 26  1  0  0  0
  7 29  1  0  0  0
  8  9  1  0  0  0
  8 22  1  0  0  0
  9 10  1  0  0  0
  9 27  2  0  0  0
 10 11  2  0  0  0
 10 15  1  0  0  0
 11 12  1  0  0  0
 11 97  1  0  0  0
 12 13  2  0  0  0
 12 98  1  0  0  0
 13 14  1  0  0  0
 13 31  1  0  0  0
 14 15  2  0  0  0
 14 99  1  0  0  0
 15100  1  0  0  0
 16 17  2  0  0  0
 16 21  1  0  0  0
 16 31  1  0  0  0
 17 18  1  0  0  0
 17101  1  0  0  0
 18 19  2  0  0  0
 18102  1  0  0  0
 19 20  1  0  0  0
 19 24  1  0  0  0
 20 21  2  0  0  0
 20103  1  0  0  0
 21 23  1  0  0  0
 22 28  1  0  0  0
 22 32  2  0  0  0
 26 27  1  0  0  0
 28104  1  0  0  0
 28105  1  0  0  0
 29106  1  0  0  0
 29107  1  0  0  0
 33 34  1  0  0  0
 33 66  1  0  0  0
 33 70  2  0  0  0
 34 36  1  0  0  0
 34 59  1  0  0  0
 34108  1  0  0  0
 35 44  2  0  0  0
 35 45  1  0  0  0
 35 68  1  0  0  0
 36 56  1  0  0  0
 36109  1  0  0  0
 37 39  1  0  0  0
 37 47  1  0  0  0
 37 66  1  0  0  0
 37110  1  0  0  0
 38 43  2  0  0  0
 38 46  1  0  0  0
 38 47  1  0  0  0
 39 64  1  0  0  0
 39 67  2  0  0  0
 40 52  1  0  0  0
 40 53  2  0  0  0
 40 58  1  0  0  0
 41111  1  0  0  0
 41112  1  0  0  0
 41113  1  0  0  0
 41 48  1  0  0  0
 42 43  1  0  0  0
 42 66  1  0  0  0
 42114  1  0  0  0
 42115  1  0  0  0
 43 44  1  0  0  0
 44116  1  0  0  0
 45 46  2  0  0  0
 45117  1  0  0  0
 46118  1  0  0  0
 47119  1  0  0  0
 47120  1  0  0  0
 48 56  1  0  0  0
 48 65  1  0  0  0
 48121  1  0  0  0
 49 50  1  0  0  0
 49 53  1  0  0  0
 49 64  1  0  0  0
 49122  1  0  0  0
 50 51  1  0  0  0
 50123  1  0  0  0
 50124  1  0  0  0
 51 52  1  0  0  0
 51125  1  0  0  0
 51126  1  0  0  0
 52127  1  0  0  0
 52128  1  0  0  0
 53 54  1  0  0  0
 54 55  2  0  0  0
 54129  1  0  0  0
 55 57  1  0  0  0
 55130  1  0  0  0
 56 69  2  0  0  0
 57 58  2  0  0  0
 57131  1  0  0  0
 58132  1  0  0  0
 59 60  1  0  0  0
 59 61  1  0  0  0
 59 62  1  0  0  0
 60133  1  0  0  0
 60134  1  0  0  0
 60135  1  0  0  0
 61136  1  0  0  0
 61137  1  0  0  0
 61138  1  0  0  0
 62139  1  0  0  0
 62140  1  0  0  0
 62141  1  0  0  0
 63 65  1  0  0  0
 63142  1  0  0  0
 63143  1  0  0  0
 63144  1  0  0  0
 64145  1  0  0  0
 65146  1  0  0  0
 68 83  1  0  0  0
 71 72  2  0  0  0
 71 74  1  0  0  0
 71147  1  0  0  0
 72 76  1  0  0  0
 72148  1  0  0  0
 73 75  1  0  0  0
 73 76  2  0  0  0
 73149  1  0  0  0
 74 75  2  0  0  0
 74 78  1  0  0  0
 75 82  1  0  0  0
 76 84  1  0  0  0
 77 81  1  0  0  0
 77 84  1  0  0  0
 77 86  2  0  0  0
 78 85  1  0  0  0
 78 87  2  0  0  0
 79 80  1  0  0  0
 79 81  1  0  0  0
 79150  1  0  0  0
 79151  1  0  0  0
 80 84  1  0  0  0
 80152  1  0  0  0
 80153  1  0  0  0
 81 83  1  0  0  0
 81154  1  0  0  0
 82155  1  0  0  0
 82156  1  0  0  0
 82157  1  0  0  0
 83158  1  0  0  0
 83159  1  0  0  0
 85160  1  0  0  0
M  ISO  4   1 100  68 101  83 101  85 100
M  END
> <chiral flag>
0

> <version>
0

> <s_m_source_file>
/data/baiqing/PycharmProjects/Reinvent-master-3.2/result/LINK_invent/BTK/process_docking_weight1_custom_product_contain_oxygen_bond_distance_aromatic_linkinvent_7_9_3/rearranged_h_0071.sdf

> <i_m_source_file_index>
59

> <r_mmod_Potential_Energy-OPLS-2005>
64.9520263671875

> <r_mmod_Stretch_Energy-OPLS-2005>
45.3768730163574

> <r_mmod_Bend_Energy-OPLS-2005>
130.932510375977

> <r_mmod_Torsional_Energy-OPLS-2005>
307.590240478516

> <r_mmod_Improper_Torsional_Energy-OPLS-2005>
5.0588846206665

> <r_mmod_Van_der_Waal_Energy-OPLS-2005>
164.467895507812

> <r_mmod_Electrostatic_Energy-OPLS-2005>
-373.022918701172

> <r_mmod_Solvation_Energy-OPLS-2005>
-234.563629150391

> <b_mmod_Minimization_Converged-OPLS-2005>
0

> <r_mmod_RMS_Derivative-OPLS-2005>
0.903962314128876

$$$$
59
                    3D
 Structure written by MMmdl.
165172  0  0  1  0            999 V2000
  -30.3954  -15.2620   20.4275 C   0  0  0  0  0  0
  -30.4327  -12.8042   19.5629 C   0  0  0  0  0  0
  -29.5377  -12.5941   18.3132 C   0  0  0  0  0  0
  -28.0852  -12.3193   18.7280 C   0  0  0  0  0  0
  -27.6154  -13.2767   19.8449 C   0  0  2  0  0  0
  -28.6332  -13.4176   20.9922 C   0  0  0  0  0  0
  -25.2408  -13.8217   20.5760 C   0  0  0  0  0  0
  -24.1744  -13.0443   20.9218 C   0  0  0  0  0  0
  -24.6389  -11.6924   20.8759 C   0  0  0  0  0  0
  -23.9090  -10.4294   21.0387 C   0  0  0  0  0  0
  -24.3624   -9.4194   21.9176 C   0  0  0  0  0  0
  -23.6315   -8.2232   22.0755 C   0  0  0  0  0  0
  -22.4305   -8.0268   21.3543 C   0  0  0  0  0  0
  -21.9924   -9.0220   20.4640 C   0  0  0  0  0  0
  -22.7240  -10.2104   20.3054 C   0  0  0  0  0  0
  -21.6852   -6.0716   22.5269 C   0  0  0  0  0  0
  -21.4012   -6.5627   23.8198 C   0  0  0  0  0  0
  -21.3674   -5.6779   24.9158 C   0  0  0  0  0  0
  -21.6054   -4.3048   24.7212 C   0  0  0  0  0  0
  -21.8842   -3.8136   23.4343 C   0  0  0  0  0  0
  -21.9213   -4.6948   22.3390 C   0  0  0  0  0  0
  -22.7758  -13.5154   21.1917 C   0  0  0  0  0  0
  -22.1679   -4.2131   21.0971 F   0  0  0  0  0  0
  -21.5636   -3.4548   25.7734 F   0  0  0  0  0  0
  -29.8794  -13.9315   20.4016 N   0  0  0  0  0  0
  -26.2845  -12.9506   20.3298 N   0  0  0  0  0  0
  -25.9330  -11.6631   20.5725 N   0  0  0  0  0  0
  -22.0451  -12.8098   22.0444 N   0  0  0  0  0  0
  -25.4134  -15.1943   20.4163 N   0  0  0  0  0  0
  -31.5898  -15.2861   20.0835 O   0  0  0  0  0  0
  -21.6662   -6.8850   21.4233 O   0  0  0  0  0  0
  -22.3430  -14.5488   20.6807 O   0  0  0  0  0  0
  -24.6599  -31.8250   23.1724 C   0  0  0  0  0  0
  -25.9288  -32.4598   23.8200 C   0  0  1  0  0  0
  -27.2207  -26.9609   20.1735 C   0  0  0  0  0  0
  -25.5979  -33.8430   24.2121 N   0  0  0  0  0  0
  -23.4739  -30.4282   21.5296 C   0  0  2  0  0  0
  -24.9227  -28.8248   20.1072 C   0  0  0  0  0  0
  -22.7652  -29.4356   22.4857 C   0  0  0  0  0  0
  -18.0276  -28.1411   22.8422 C   0  0  0  0  0  0
  -24.1490  -36.7200   23.2652 C   0  0  0  0  0  0
  -26.0378  -30.6387   21.3986 C   0  0  0  0  0  0
  -26.1027  -29.2329   20.7402 C   0  0  0  0  0  0
  -27.2418  -28.3132   20.7645 C   0  0  0  0  0  0
  -26.0187  -26.7004   19.4789 C   0  0  0  0  0  0
  -24.9020  -27.5750   19.4636 C   0  0  0  0  0  0
  -23.7055  -29.7483   20.1520 C   0  0  0  0  0  0
  -25.4117  -36.2974   24.0316 C   0  0  1  0  0  0
  -20.5895  -28.3717   23.1204 C   0  0  2  0  0  0
  -20.6771  -26.9413   22.5405 C   0  0  0  0  0  0
  -19.5740  -26.6359   21.5232 C   0  0  0  0  0  0
  -18.1899  -26.7940   22.1599 C   0  0  0  0  0  0
  -19.1539  -28.8899   23.2776 C   0  0  0  0  0  0
  -18.9475  -30.1492   23.8773 C   0  0  0  0  0  0
  -17.6472  -30.6580   24.0545 C   0  0  0  0  0  0
  -25.9094  -34.9366   23.5026 C   0  0  0  0  0  0
  -16.5353  -29.9060   23.6388 C   0  0  0  0  0  0
  -16.7279  -28.6512   23.0333 C   0  0  0  0  0  0
  -26.4538  -31.6548   25.0733 C   0  0  0  0  0  0
  -25.3722  -31.3723   26.1446 C   0  0  0  0  0  0
  -27.0471  -30.2926   24.6451 C   0  0  0  0  0  0
  -27.6024  -32.4412   25.7509 C   0  0  0  0  0  0
  -27.5562  -37.1726   24.8479 C   0  0  0  0  0  0
  -21.4305  -29.2994   22.3592 N   0  0  0  0  0  0
  -26.4265  -37.3710   23.9442 N   0  0  0  0  0  0
  -24.7454  -30.9882   22.0898 N   0  0  0  0  0  0
  -23.4225  -28.7911   23.3062 O   0  0  0  0  0  0
  -28.2322  -25.8844   20.3067 O   0  0  0  0  0  0
  -26.5711  -34.8892   22.4646 O   0  0  0  0  0  0
  -23.5656  -32.1257   23.6767 O   0  0  0  0  0  0
  -29.0574  -24.1251   22.6851 C   0  0  0  0  0  0
  -28.5327  -23.0364   22.0930 C   0  0  0  0  0  0
  -28.5751  -22.8063   20.6373 C   0  0  0  0  0  0
  -27.3665  -18.8501   23.9558 C   0  0  0  0  0  0
  -30.8843  -18.8940   18.1859 C   0  0  0  0  0  0
  -27.6728  -19.1637   25.4120 C   0  0  0  0  0  0
  -32.2228  -19.4255   17.7097 C   0  0  0  0  0  0
  -28.2249  -24.3236   19.7963 C   0  0  0  0  0  0
  -29.6221  -16.7816   20.8672 C   0  0  0  0  0  0
  -27.6160  -19.7146   21.6236 C   0  0  0  0  0  0
  -28.9630  -20.0055   20.9148 C   0  0  1  0  0  0
  -29.4949  -18.4537   20.1941 C   0  0  1  0  0  0
  -28.7999  -21.4899   20.1716 N   0  0  0  0  0  0
  -27.7626  -19.7695   23.0747 N   0  0  0  0  0  0
  -30.7338  -18.7886   19.5097 N   0  0  0  0  0  0
  -26.7940  -17.8085   23.6361 O   0  0  0  0  0  0
  -30.0071  -18.5954   17.3756 O   0  0  0  0  0  0
  -31.4571  -13.0026   19.2490 H   0  0  0  0  0  0
  -30.4805  -11.8868   20.1499 H   0  0  0  0  0  0
  -29.9148  -11.7648   17.7146 H   0  0  0  0  0  0
  -29.5762  -13.4766   17.6707 H   0  0  0  0  0  0
  -28.0332  -11.2898   19.0842 H   0  0  0  0  0  0
  -27.4193  -12.3830   17.8676 H   0  0  0  0  0  0
  -27.5434  -14.2550   19.3716 H   0  0  0  0  0  0
  -28.7826  -12.4682   21.5094 H   0  0  0  0  0  0
  -28.2624  -14.1141   21.7456 H   0  0  0  0  0  0
  -25.2767   -9.5679   22.4755 H   0  0  0  0  0  0
  -24.0028   -7.4620   22.7477 H   0  0  0  0  0  0
  -21.0874   -8.8734   19.8917 H   0  0  0  0  0  0
  -22.3701  -10.9658   19.6177 H   0  0  0  0  0  0
  -21.1992   -7.6140   23.9675 H   0  0  0  0  0  0
  -21.1478   -6.0521   25.9054 H   0  0  0  0  0  0
  -22.0623   -2.7606   23.2843 H   0  0  0  0  0  0
  -22.4122  -11.9777   22.4828 H   0  0  0  0  0  0
  -21.1062  -13.1078   22.2671 H   0  0  0  0  0  0
  -24.6656  -15.8624   20.5575 H   0  0  0  0  0  0
  -26.2687  -15.6209   20.0888 H   0  0  0  0  0  0
  -26.7393  -32.5121   23.0938 H   0  0  0  0  0  0
  -25.0162  -33.9580   25.0284 H   0  0  0  0  0  0
  -22.7829  -31.2547   21.3655 H   0  0  0  0  0  0
  -23.3791  -35.9495   23.3272 H   0  0  0  0  0  0
  -24.3538  -36.8909   22.2073 H   0  0  0  0  0  0
  -23.7206  -37.6346   23.6758 H   0  0  0  0  0  0
  -26.2137  -31.3859   20.6232 H   0  0  0  0  0  0
  -26.9022  -30.6899   22.0474 H   0  0  0  0  0  0
  -28.1240  -28.6104   21.3157 H   0  0  0  0  0  0
  -25.8966  -25.7520   18.9786 H   0  0  0  0  0  0
  -24.0016  -27.2399   18.9629 H   0  0  0  0  0  0
  -23.8541  -30.5295   19.4074 H   0  0  0  0  0  0
  -22.8121  -29.2030   19.8408 H   0  0  0  0  0  0
  -25.1286  -36.1755   25.0794 H   0  0  0  0  0  0
  -20.9943  -28.3351   24.1345 H   0  0  0  0  0  0
  -20.5707  -26.2330   23.3634 H   0  0  0  0  0  0
  -21.6621  -26.7420   22.1155 H   0  0  0  0  0  0
  -19.6945  -25.6266   21.1279 H   0  0  0  0  0  0
  -19.6710  -27.3175   20.6773 H   0  0  0  0  0  0
  -17.4176  -26.6681   21.3989 H   0  0  0  0  0  0
  -18.0212  -26.0126   22.9025 H   0  0  0  0  0  0
  -19.7964  -30.7328   24.2065 H   0  0  0  0  0  0
  -17.5027  -31.6251   24.5174 H   0  0  0  0  0  0
  -15.5323  -30.2904   23.7831 H   0  0  0  0  0  0
  -15.8658  -28.0835   22.7066 H   0  0  0  0  0  0
  -24.5853  -30.7136   25.7717 H   0  0  0  0  0  0
  -24.8971  -32.2911   26.4906 H   0  0  0  0  0  0
  -25.7994  -30.8813   27.0221 H   0  0  0  0  0  0
  -26.3169  -29.6554   24.1442 H   0  0  0  0  0  0
  -27.4026  -29.7256   25.5063 H   0  0  0  0  0  0
  -27.9077  -30.4101   23.9866 H   0  0  0  0  0  0
  -27.2590  -33.3781   26.1906 H   0  0  0  0  0  0
  -28.3876  -32.6909   25.0367 H   0  0  0  0  0  0
  -28.0700  -31.8722   26.5564 H   0  0  0  0  0  0
  -28.2528  -38.0061   24.7530 H   0  0  0  0  0  0
  -28.1099  -36.2581   24.6277 H   0  0  0  0  0  0
  -27.2298  -37.1324   25.8885 H   0  0  0  0  0  0
  -20.9570  -29.8668   21.6696 H   0  0  0  0  0  0
  -26.0111  -38.2760   24.1486 H   0  0  0  0  0  0
  -28.9763  -24.2788   23.7494 H   0  0  0  0  0  0
  -29.5769  -24.8834   22.1216 H   0  0  0  0  0  0
  -28.0291  -22.3040   22.6922 H   0  0  0  0  0  0
  -28.7503  -19.1282   25.5753 H   0  0  0  0  0  0
  -27.1903  -18.4541   26.0855 H   0  0  0  0  0  0
  -27.3192  -20.1652   25.6643 H   0  0  0  0  0  0
  -33.0296  -18.9559   18.2722 H   0  0  0  0  0  0
  -32.2706  -20.5012   17.8741 H   0  0  0  0  0  0
  -32.3799  -19.2324   16.6473 H   0  0  0  0  0  0
  -27.2831  -24.1513   19.2847 H   0  0  0  0  0  0
  -28.9497  -24.3329   18.9801 H   0  0  0  0  0  0
  -28.5959  -16.4955   21.1013 H   0  0  0  0  0  0
  -30.0631  -16.9584   21.8488 H   0  0  0  0  0  0
  -27.2257  -18.7498   21.2988 H   0  0  0  0  0  0
  -26.8451  -20.4388   21.3526 H   0  0  0  0  0  0
  -29.7074  -20.1633   21.6984 H   0  0  0  0  0  0
  -28.7165  -18.3116   19.4423 H   0  0  0  0  0  0
  -28.2307  -20.5812   23.4501 H   0  0  0  0  0  0
  -31.5110  -19.0830   20.0869 H   0  0  0  0  0  0
  1 25  1  0  0  0
  1 30  2  0  0  0
  1 79  1  0  0  0
  2  3  1  0  0  0
  2 25  1  0  0  0
  2 88  1  0  0  0
  2 89  1  0  0  0
  3  4  1  0  0  0
  3 90  1  0  0  0
  3 91  1  0  0  0
  4  5  1  0  0  0
  4 92  1  0  0  0
  4 93  1  0  0  0
  5  6  1  0  0  0
  5 26  1  0  0  0
  5 94  1  0  0  0
  6 25  1  0  0  0
  6 95  1  0  0  0
  6 96  1  0  0  0
  7  8  2  0  0  0
  7 26  1  0  0  0
  7 29  1  0  0  0
  8  9  1  0  0  0
  8 22  1  0  0  0
  9 10  1  0  0  0
  9 27  2  0  0  0
 10 11  2  0  0  0
 10 15  1  0  0  0
 11 12  1  0  0  0
 11 97  1  0  0  0
 12 13  2  0  0  0
 12 98  1  0  0  0
 13 14  1  0  0  0
 13 31  1  0  0  0
 14 15  2  0  0  0
 14 99  1  0  0  0
 15100  1  0  0  0
 16 17  2  0  0  0
 16 21  1  0  0  0
 16 31  1  0  0  0
 17 18  1  0  0  0
 17101  1  0  0  0
 18 19  2  0  0  0
 18102  1  0  0  0
 19 20  1  0  0  0
 19 24  1  0  0  0
 20 21  2  0  0  0
 20103  1  0  0  0
 21 23  1  0  0  0
 22 28  1  0  0  0
 22 32  2  0  0  0
 26 27  1  0  0  0
 28104  1  0  0  0
 28105  1  0  0  0
 29106  1  0  0  0
 29107  1  0  0  0
 33 34  1  0  0  0
 33 66  1  0  0  0
 33 70  2  0  0  0
 34 36  1  0  0  0
 34 59  1  0  0  0
 34108  1  0  0  0
 35 44  2  0  0  0
 35 45  1  0  0  0
 35 68  1  0  0  0
 36 56  1  0  0  0
 36109  1  0  0  0
 37 39  1  0  0  0
 37 47  1  0  0  0
 37 66  1  0  0  0
 37110  1  0  0  0
 38 43  2  0  0  0
 38 46  1  0  0  0
 38 47  1  0  0  0
 39 64  1  0  0  0
 39 67  2  0  0  0
 40 52  1  0  0  0
 40 53  2  0  0  0
 40 58  1  0  0  0
 41111  1  0  0  0
 41112  1  0  0  0
 41113  1  0  0  0
 41 48  1  0  0  0
 42 43  1  0  0  0
 42 66  1  0  0  0
 42114  1  0  0  0
 42115  1  0  0  0
 43 44  1  0  0  0
 44116  1  0  0  0
 45 46  2  0  0  0
 45117  1  0  0  0
 46118  1  0  0  0
 47119  1  0  0  0
 47120  1  0  0  0
 48 56  1  0  0  0
 48 65  1  0  0  0
 48121  1  0  0  0
 49 50  1  0  0  0
 49 53  1  0  0  0
 49 64  1  0  0  0
 49122  1  0  0  0
 50 51  1  0  0  0
 50123  1  0  0  0
 50124  1  0  0  0
 51 52  1  0  0  0
 51125  1  0  0  0
 51126  1  0  0  0
 52127  1  0  0  0
 52128  1  0  0  0
 53 54  1  0  0  0
 54 55  2  0  0  0
 54129  1  0  0  0
 55 57  1  0  0  0
 55130  1  0  0  0
 56 69  2  0  0  0
 57 58  2  0  0  0
 57131  1  0  0  0
 58132  1  0  0  0
 59 60  1  0  0  0
 59 61  1  0  0  0
 59 62  1  0  0  0
 60133  1  0  0  0
 60134  1  0  0  0
 60135  1  0  0  0
 61136  1  0  0  0
 61137  1  0  0  0
 61138  1  0  0  0
 62139  1  0  0  0
 62140  1  0  0  0
 62141  1  0  0  0
 63 65  1  0  0  0
 63142  1  0  0  0
 63143  1  0  0  0
 63144  1  0  0  0
 64145  1  0  0  0
 65146  1  0  0  0
 68 78  1  0  0  0
 71 72  2  0  0  0
 71147  1  0  0  0
 71148  1  0  0  0
 72 73  1  0  0  0
 72149  1  0  0  0
 73 78  1  0  0  0
 73 83  2  0  0  0
 74 76  1  0  0  0
 74 84  1  0  0  0
 74 86  2  0  0  0
 75 77  1  0  0  0
 75 85  1  0  0  0
 75 87  2  0  0  0
 76150  1  0  0  0
 76151  1  0  0  0
 76152  1  0  0  0
 77153  1  0  0  0
 77154  1  0  0  0
 77155  1  0  0  0
 78156  1  0  0  0
 78157  1  0  0  0
 79158  1  0  0  0
 79159  1  0  0  0
 79 82  1  0  0  0
 80 84  1  0  0  0
 80160  1  0  0  0
 80161  1  0  0  0
 80 81  1  0  0  0
 81 82  1  0  0  0
 81 83  1  0  0  0
 81162  1  0  0  0
 82 85  1  0  0  0
 82163  1  0  0  0
 84164  1  0  0  0
 85165  1  0  0  0
M  ISO  4   1 100  68 101  78 101  79 100
M  END
> <chiral flag>
0

> <version>
0

> <s_m_source_file>
/data/baiqing/PycharmProjects/Reinvent-master-3.2/result/LINK_invent/BTK/process_docking_weight1_custom_product_contain_oxygen_bond_distance_aromatic_linkinvent_7_9_3/rearranged_h_0071.sdf

> <i_m_source_file_index>
60

> <r_mmod_Potential_Energy-OPLS-2005>
1051.1611328125

> <r_mmod_Stretch_Energy-OPLS-2005>
615.161315917969

> <r_mmod_Bend_Energy-OPLS-2005>
442.738403320312

> <r_mmod_Torsional_Energy-OPLS-2005>
188.545211791992

> <r_mmod_Improper_Torsional_Energy-OPLS-2005>
2.41039228439331

> <r_mmod_Van_der_Waal_Energy-OPLS-2005>
106.466125488281

> <r_mmod_Electrostatic_Energy-OPLS-2005>
-483.162078857422

> <r_mmod_Solvation_Energy-OPLS-2005>
-256.878234863281

> <b_mmod_Minimization_Converged-OPLS-2005>
0

> <r_mmod_RMS_Derivative-OPLS-2005>
6.90457916259766

$$$$
60
                    3D
 Structure written by MMmdl.
158166  0  0  1  0            999 V2000
  -30.6947  -14.4576   20.6179 C   0  0  0  0  0  0
  -30.4320  -12.3098   19.4249 C   0  0  0  0  0  0
  -29.5008  -12.5159   18.2115 C   0  0  0  0  0  0
  -28.0216  -12.3686   18.6200 C   0  0  0  0  0  0
  -27.6667  -13.2000   19.8813 C   0  0  2  0  0  0
  -28.7035  -12.9547   21.0018 C   0  0  0  0  0  0
  -25.2610  -13.8130   20.5671 C   0  0  0  0  0  0
  -24.1856  -13.0426   20.9180 C   0  0  0  0  0  0
  -24.6397  -11.6893   20.8720 C   0  0  0  0  0  0
  -23.9056  -10.4287   21.0394 C   0  0  0  0  0  0
  -24.3619   -9.4209   21.9176 C   0  0  0  0  0  0
  -23.6298   -8.2240   22.0746 C   0  0  0  0  0  0
  -22.4277   -8.0274   21.3538 C   0  0  0  0  0  0
  -21.9904   -9.0247   20.4645 C   0  0  0  0  0  0
  -22.7225  -10.2131   20.3053 C   0  0  0  0  0  0
  -21.6850   -6.0742   22.5286 C   0  0  0  0  0  0
  -21.4014   -6.5644   23.8222 C   0  0  0  0  0  0
  -21.3657   -5.6795   24.9181 C   0  0  0  0  0  0
  -21.6049   -4.3058   24.7224 C   0  0  0  0  0  0
  -21.8817   -3.8149   23.4344 C   0  0  0  0  0  0
  -21.9191   -4.6972   22.3403 C   0  0  0  0  0  0
  -22.7883  -13.5234   21.1845 C   0  0  0  0  0  0
  -22.1656   -4.2163   21.0975 F   0  0  0  0  0  0
  -21.5642   -3.4533   25.7735 F   0  0  0  0  0  0
  -30.0430  -13.2708   20.4698 N   0  0  0  0  0  0
  -26.3046  -12.9293   20.3359 N   0  0  0  0  0  0
  -25.9319  -11.6462   20.5737 N   0  0  0  0  0  0
  -22.0521  -12.8246   22.0412 N   0  0  0  0  0  0
  -25.4322  -15.1843   20.4061 N   0  0  0  0  0  0
  -31.7838  -14.6952   20.0842 O   0  0  0  0  0  0
  -21.6636   -6.8876   21.4243 O   0  0  0  0  0  0
  -22.3571  -14.5541   20.6690 O   0  0  0  0  0  0
  -24.6134  -31.8685   23.2096 C   0  0  0  0  0  0
  -25.9029  -32.4823   23.8386 C   0  0  1  0  0  0
  -27.2483  -27.4420   20.0754 C   0  0  0  0  0  0
  -25.5886  -33.8622   24.2324 N   0  0  0  0  0  0
  -23.4006  -30.4909   21.5518 C   0  0  2  0  0  0
  -24.8468  -28.9565   20.1169 C   0  0  0  0  0  0
  -22.7399  -29.4661   22.5009 C   0  0  0  0  0  0
  -18.0271  -28.1376   22.8500 C   0  0  0  0  0  0
  -24.1483  -36.7311   23.2638 C   0  0  0  0  0  0
  -25.9287  -30.8345   21.3607 C   0  0  0  0  0  0
  -26.0060  -29.4679   20.7096 C   0  0  0  0  0  0
  -27.2026  -28.7157   20.6909 C   0  0  0  0  0  0
  -26.0550  -26.9329   19.5057 C   0  0  0  0  0  0
  -24.8652  -27.6854   19.5193 C   0  0  0  0  0  0
  -23.6076  -29.8212   20.1674 C   0  0  0  0  0  0
  -25.4106  -36.3117   24.0342 C   0  0  1  0  0  0
  -20.5855  -28.3660   23.1332 C   0  0  2  0  0  0
  -20.6761  -26.9400   22.5421 C   0  0  0  0  0  0
  -19.5741  -26.6392   21.5216 C   0  0  0  0  0  0
  -18.1920  -26.7925   22.1628 C   0  0  0  0  0  0
  -19.1516  -28.8835   23.2910 C   0  0  0  0  0  0
  -18.9446  -30.1443   23.8919 C   0  0  0  0  0  0
  -17.6445  -30.6583   24.0568 C   0  0  0  0  0  0
  -25.9037  -34.9479   23.5134 C   0  0  0  0  0  0
  -16.5339  -29.9087   23.6320 C   0  0  0  0  0  0
  -16.7258  -28.6501   23.0348 C   0  0  0  0  0  0
  -26.4465  -31.6596   25.0704 C   0  0  0  0  0  0
  -25.3738  -31.3693   26.1457 C   0  0  0  0  0  0
  -27.0288  -30.3044   24.6060 C   0  0  0  0  0  0
  -27.6056  -32.4308   25.7448 C   0  0  0  0  0  0
  -27.5585  -37.1798   24.8464 C   0  0  0  0  0  0
  -21.4125  -29.3028   22.3742 N   0  0  0  0  0  0
  -26.4295  -37.3798   23.9417 N   0  0  0  0  0  0
  -24.6662  -31.0784   22.0996 N   0  0  0  0  0  0
  -23.4176  -28.8213   23.3053 O   0  0  0  0  0  0
  -28.4530  -26.7583   20.0908 O   0  0  0  0  0  0
  -26.5603  -34.8932   22.4700 O   0  0  0  0  0  0
  -23.5329  -32.1437   23.7497 O   0  0  0  0  0  0
  -30.5838  -18.9196   20.1152 C   0  0  0  0  0  0
  -28.2108  -18.5154   20.4722 C   0  0  0  0  0  0
  -30.8727  -17.6111   20.5774 C   0  0  0  0  0  0
  -28.5031  -17.2259   20.9651 C   0  0  0  0  0  0
  -29.2444  -19.3625   20.0145 C   0  0  0  0  0  0
  -29.8271  -16.7352   20.9634 C   0  0  0  0  0  0
  -28.9019  -20.6104   19.3096 C   0  0  0  0  0  0
  -29.0402  -23.1050   19.0929 C   0  0  0  0  0  0
  -30.6350  -24.5539   20.4493 C   0  0  0  0  0  0
  -28.7100  -25.6650   19.1922 C   0  0  0  0  0  0
  -29.1874  -24.3869   19.9483 C   0  0  1  0  0  0
  -30.0368  -15.3774   21.3480 N   0  0  0  0  0  0
  -29.2484  -21.8394   19.7693 N   0  0  0  0  0  0
  -28.2074  -20.4568   18.1779 N   0  3  0  0  0  0
  -28.7211  -23.1539   17.8980 O   0  0  0  0  0  0
  -31.4748  -12.4225   19.1237 H   0  0  0  0  0  0
  -30.3430  -11.2905   19.8040 H   0  0  0  0  0  0
  -29.7449  -11.7991   17.4267 H   0  0  0  0  0  0
  -29.6681  -13.5058   17.7828 H   0  0  0  0  0  0
  -27.8348  -11.3108   18.8113 H   0  0  0  0  0  0
  -27.3721  -12.6459   17.7888 H   0  0  0  0  0  0
  -27.7199  -14.2514   19.5980 H   0  0  0  0  0  0
  -28.6763  -11.9095   21.3145 H   0  0  0  0  0  0
  -28.4455  -13.5217   21.8970 H   0  0  0  0  0  0
  -25.2764   -9.5700   22.4754 H   0  0  0  0  0  0
  -24.0021   -7.4627   22.7461 H   0  0  0  0  0  0
  -21.0840   -8.8758   19.8951 H   0  0  0  0  0  0
  -22.3670  -10.9674   19.6175 H   0  0  0  0  0  0
  -21.2000   -7.6151   23.9730 H   0  0  0  0  0  0
  -21.1483   -6.0521   25.9089 H   0  0  0  0  0  0
  -22.0596   -2.7614   23.2837 H   0  0  0  0  0  0
  -22.4120  -11.9905   22.4807 H   0  0  0  0  0  0
  -21.1147  -13.1280   22.2611 H   0  0  0  0  0  0
  -24.6570  -15.8306   20.5014 H   0  0  0  0  0  0
  -26.2552  -15.6102   20.0030 H   0  0  0  0  0  0
  -26.7094  -32.5543   23.1146 H   0  0  0  0  0  0
  -25.0017  -33.9783   25.0456 H   0  0  0  0  0  0
  -22.6892  -31.3076   21.4128 H   0  0  0  0  0  0
  -23.3750  -35.9637   23.3303 H   0  0  0  0  0  0
  -24.3581  -36.8922   22.2051 H   0  0  0  0  0  0
  -23.7226  -37.6516   23.6648 H   0  0  0  0  0  0
  -26.0357  -31.5996   20.5903 H   0  0  0  0  0  0
  -26.8188  -30.8916   21.9756 H   0  0  0  0  0  0
  -28.0994  -29.1154   21.1433 H   0  0  0  0  0  0
  -25.9991  -25.9514   19.0624 H   0  0  0  0  0  0
  -23.9681  -27.2766   19.0751 H   0  0  0  0  0  0
  -23.7122  -30.5945   19.4058 H   0  0  0  0  0  0
  -22.7320  -29.2387   19.8749 H   0  0  0  0  0  0
  -25.1277  -36.1981   25.0834 H   0  0  0  0  0  0
  -20.9948  -28.3221   24.1453 H   0  0  0  0  0  0
  -20.5681  -26.2261   23.3601 H   0  0  0  0  0  0
  -21.6631  -26.7458   22.1204 H   0  0  0  0  0  0
  -19.6904  -25.6313   21.1226 H   0  0  0  0  0  0
  -19.6680  -27.3220   20.6763 H   0  0  0  0  0  0
  -17.4190  -26.6678   21.4027 H   0  0  0  0  0  0
  -18.0319  -26.0061   22.9020 H   0  0  0  0  0  0
  -19.7919  -30.7253   24.2301 H   0  0  0  0  0  0
  -17.5001  -31.6270   24.5162 H   0  0  0  0  0  0
  -15.5340  -30.2997   23.7636 H   0  0  0  0  0  0
  -15.8658  -28.0833   22.7049 H   0  0  0  0  0  0
  -24.5902  -30.7055   25.7784 H   0  0  0  0  0  0
  -24.8935  -32.2846   26.4929 H   0  0  0  0  0  0
  -25.8092  -30.8836   27.0198 H   0  0  0  0  0  0
  -26.2815  -29.6801   24.1146 H   0  0  0  0  0  0
  -27.4107  -29.7280   25.4497 H   0  0  0  0  0  0
  -27.8628  -30.4371   23.9163 H   0  0  0  0  0  0
  -27.2690  -33.3593   26.2069 H   0  0  0  0  0  0
  -28.3825  -32.6894   25.0240 H   0  0  0  0  0  0
  -28.0769  -31.8405   26.5315 H   0  0  0  0  0  0
  -28.2600  -38.0099   24.7536 H   0  0  0  0  0  0
  -28.1084  -36.2637   24.6256 H   0  0  0  0  0  0
  -27.2310  -37.1410   25.8867 H   0  0  0  0  0  0
  -20.9291  -29.8733   21.6949 H   0  0  0  0  0  0
  -26.0187  -38.2875   24.1434 H   0  0  0  0  0  0
  -31.3915  -19.5490   19.7673 H   0  0  0  0  0  0
  -27.1804  -18.8390   20.4167 H   0  0  0  0  0  0
  -31.9001  -17.2750   20.5984 H   0  0  0  0  0  0
  -27.6886  -16.5980   21.2961 H   0  0  0  0  0  0
  -30.9701  -23.6962   21.0325 H   0  0  0  0  0  0
  -30.7221  -25.4334   21.0886 H   0  0  0  0  0  0
  -31.3318  -24.6828   19.6193 H   0  0  0  0  0  0
  -27.8864  -25.4449   18.5190 H   0  0  0  0  0  0
  -29.5071  -25.9965   18.5251 H   0  0  0  0  0  0
  -28.5320  -24.2513   20.8089 H   0  0  0  0  0  0
  -29.2682  -14.9704   21.8570 H   0  0  0  0  0  0
  -29.5996  -21.7971   20.7146 H   0  0  0  0  0  0
  -27.9684  -19.5346   17.8476 H   0  0  0  0  0  0
  -28.0489  -21.2672   17.5924 H   0  0  0  0  0  0
  1 25  1  0  0  0
  1 30  2  0  0  0
  1 82  1  0  0  0
  2  3  1  0  0  0
  2 25  1  0  0  0
  2 86  1  0  0  0
  2 87  1  0  0  0
  3  4  1  0  0  0
  3 88  1  0  0  0
  3 89  1  0  0  0
  4  5  1  0  0  0
  4 90  1  0  0  0
  4 91  1  0  0  0
  5  6  1  0  0  0
  5 26  1  0  0  0
  5 92  1  0  0  0
  6 25  1  0  0  0
  6 93  1  0  0  0
  6 94  1  0  0  0
  7  8  2  0  0  0
  7 26  1  0  0  0
  7 29  1  0  0  0
  8  9  1  0  0  0
  8 22  1  0  0  0
  9 10  1  0  0  0
  9 27  2  0  0  0
 10 11  2  0  0  0
 10 15  1  0  0  0
 11 12  1  0  0  0
 11 95  1  0  0  0
 12 13  2  0  0  0
 12 96  1  0  0  0
 13 14  1  0  0  0
 13 31  1  0  0  0
 14 15  2  0  0  0
 14 97  1  0  0  0
 15 98  1  0  0  0
 16 17  2  0  0  0
 16 21  1  0  0  0
 16 31  1  0  0  0
 17 18  1  0  0  0
 17 99  1  0  0  0
 18 19  2  0  0  0
 18100  1  0  0  0
 19 20  1  0  0  0
 19 24  1  0  0  0
 20 21  2  0  0  0
 20101  1  0  0  0
 21 23  1  0  0  0
 22 28  1  0  0  0
 22 32  2  0  0  0
 26 27  1  0  0  0
 28102  1  0  0  0
 28103  1  0  0  0
 29104  1  0  0  0
 29105  1  0  0  0
 33 34  1  0  0  0
 33 66  1  0  0  0
 33 70  2  0  0  0
 34 36  1  0  0  0
 34 59  1  0  0  0
 34106  1  0  0  0
 35 44  2  0  0  0
 35 45  1  0  0  0
 35 68  1  0  0  0
 36 56  1  0  0  0
 36107  1  0  0  0
 37 39  1  0  0  0
 37 47  1  0  0  0
 37 66  1  0  0  0
 37108  1  0  0  0
 38 43  2  0  0  0
 38 46  1  0  0  0
 38 47  1  0  0  0
 39 64  1  0  0  0
 39 67  2  0  0  0
 40 52  1  0  0  0
 40 53  2  0  0  0
 40 58  1  0  0  0
 41109  1  0  0  0
 41110  1  0  0  0
 41111  1  0  0  0
 41 48  1  0  0  0
 42 43  1  0  0  0
 42 66  1  0  0  0
 42112  1  0  0  0
 42113  1  0  0  0
 43 44  1  0  0  0
 44114  1  0  0  0
 45 46  2  0  0  0
 45115  1  0  0  0
 46116  1  0  0  0
 47117  1  0  0  0
 47118  1  0  0  0
 48 56  1  0  0  0
 48 65  1  0  0  0
 48119  1  0  0  0
 49 50  1  0  0  0
 49 53  1  0  0  0
 49 64  1  0  0  0
 49120  1  0  0  0
 50 51  1  0  0  0
 50121  1  0  0  0
 50122  1  0  0  0
 51 52  1  0  0  0
 51123  1  0  0  0
 51124  1  0  0  0
 52125  1  0  0  0
 52126  1  0  0  0
 53 54  1  0  0  0
 54 55  2  0  0  0
 54127  1  0  0  0
 55 57  1  0  0  0
 55128  1  0  0  0
 56 69  2  0  0  0
 57 58  2  0  0  0
 57129  1  0  0  0
 58130  1  0  0  0
 59 60  1  0  0  0
 59 61  1  0  0  0
 59 62  1  0  0  0
 60131  1  0  0  0
 60132  1  0  0  0
 60133  1  0  0  0
 61134  1  0  0  0
 61135  1  0  0  0
 61136  1  0  0  0
 62137  1  0  0  0
 62138  1  0  0  0
 62139  1  0  0  0
 63 65  1  0  0  0
 63140  1  0  0  0
 63141  1  0  0  0
 63142  1  0  0  0
 64143  1  0  0  0
 65144  1  0  0  0
 68 80  1  0  0  0
 71 73  2  0  0  0
 71 75  1  0  0  0
 71145  1  0  0  0
 72 74  1  0  0  0
 72 75  2  0  0  0
 72146  1  0  0  0
 73 76  1  0  0  0
 73147  1  0  0  0
 74 76  2  0  0  0
 74148  1  0  0  0
 75 77  1  0  0  0
 76 82  1  0  0  0
 77 83  1  0  0  0
 77 84  2  0  0  0
 78 81  1  0  0  0
 78 83  1  0  0  0
 78 85  2  0  0  0
 79149  1  0  0  0
 79150  1  0  0  0
 79151  1  0  0  0
 79 81  1  0  0  0
 80 81  1  0  0  0
 80152  1  0  0  0
 80153  1  0  0  0
 81154  1  0  0  0
 82155  1  0  0  0
 83156  1  0  0  0
 84157  1  0  0  0
 84158  1  0  0  0
M  CHG  1  84   1
M  ISO  4   1 100  68 101  80 101  82 100
M  END
> <chiral flag>
0

> <version>
0

> <s_m_source_file>
/data/baiqing/PycharmProjects/Reinvent-master-3.2/result/LINK_invent/BTK/process_docking_weight1_custom_product_contain_oxygen_bond_distance_aromatic_linkinvent_7_9_3/rearranged_h_0071.sdf

> <i_m_source_file_index>
61

> <r_mmod_Potential_Energy-OPLS-2005>
-285.88427734375

> <r_mmod_Stretch_Energy-OPLS-2005>
39.9119834899902

> <r_mmod_Bend_Energy-OPLS-2005>
115.895774841309

> <r_mmod_Torsional_Energy-OPLS-2005>
252.66194152832

> <r_mmod_Improper_Torsional_Energy-OPLS-2005>
6.39427518844604

> <r_mmod_Van_der_Waal_Energy-OPLS-2005>
166.200592041016

> <r_mmod_Electrostatic_Energy-OPLS-2005>
-434.285217285156

> <r_mmod_Solvation_Energy-OPLS-2005>
-443.542907714844

> <b_mmod_Minimization_Converged-OPLS-2005>
0

> <r_mmod_RMS_Derivative-OPLS-2005>
1.42965888977051

$$$$
61
                    3D
 Structure written by MMmdl.
164173  0  0  1  0            999 V2000
  -30.6205  -14.7809   20.4483 C   0  0  0  0  0  0
  -30.4268  -12.4787   19.4768 C   0  0  0  0  0  0
  -29.5078  -12.5048   18.2373 C   0  0  0  0  0  0
  -28.0373  -12.3201   18.6561 C   0  0  0  0  0  0
  -27.6361  -13.2361   19.8432 C   0  0  2  0  0  0
  -28.6818  -13.2086   20.9789 C   0  0  0  0  0  0
  -25.2489  -13.8208   20.5704 C   0  0  0  0  0  0
  -24.1789  -13.0444   20.9219 C   0  0  0  0  0  0
  -24.6389  -11.6925   20.8757 C   0  0  0  0  0  0
  -23.9073  -10.4294   21.0418 C   0  0  0  0  0  0
  -24.3622   -9.4207   21.9195 C   0  0  0  0  0  0
  -23.6294   -8.2245   22.0761 C   0  0  0  0  0  0
  -22.4279   -8.0283   21.3549 C   0  0  0  0  0  0
  -21.9918   -9.0257   20.4652 C   0  0  0  0  0  0
  -22.7246  -10.2134   20.3064 C   0  0  0  0  0  0
  -21.6853   -6.0741   22.5279 C   0  0  0  0  0  0
  -21.4016   -6.5643   23.8213 C   0  0  0  0  0  0
  -21.3655   -5.6794   24.9175 C   0  0  0  0  0  0
  -21.6047   -4.3060   24.7226 C   0  0  0  0  0  0
  -21.8814   -3.8148   23.4348 C   0  0  0  0  0  0
  -21.9195   -4.6967   22.3406 C   0  0  0  0  0  0
  -22.7809  -13.5223   21.1867 C   0  0  0  0  0  0
  -22.1660   -4.2152   21.0986 F   0  0  0  0  0  0
  -21.5627   -3.4543   25.7739 F   0  0  0  0  0  0
  -29.9760  -13.5625   20.3843 N   0  0  0  0  0  0
  -26.2909  -12.9419   20.3269 N   0  0  0  0  0  0
  -25.9321  -11.6556   20.5764 N   0  0  0  0  0  0
  -22.0459  -12.8214   22.0423 N   0  0  0  0  0  0
  -25.4169  -15.1934   20.4113 N   0  0  0  0  0  0
  -31.8172  -14.8206   20.1496 O   0  0  0  0  0  0
  -21.6641   -6.8880   21.4242 O   0  0  0  0  0  0
  -22.3500  -14.5532   20.6717 O   0  0  0  0  0  0
  -24.6333  -31.8530   23.1952 C   0  0  0  0  0  0
  -25.9149  -32.4739   23.8300 C   0  0  1  0  0  0
  -27.2228  -27.2515   20.1414 C   0  0  0  0  0  0
  -25.5934  -33.8543   24.2229 N   0  0  0  0  0  0
  -23.4304  -30.4737   21.5381 C   0  0  2  0  0  0
  -24.8777  -28.9088   20.1161 C   0  0  0  0  0  0
  -22.7507  -29.4605   22.4912 C   0  0  0  0  0  0
  -18.0295  -28.1403   22.8473 C   0  0  0  0  0  0
  -24.1499  -36.7280   23.2643 C   0  0  0  0  0  0
  -25.9753  -30.7648   21.3727 C   0  0  0  0  0  0
  -26.0498  -29.3834   20.7201 C   0  0  0  0  0  0
  -27.2279  -28.5684   20.7156 C   0  0  0  0  0  0
  -26.0286  -26.8352   19.5213 C   0  0  0  0  0  0
  -24.8722  -27.6432   19.5061 C   0  0  0  0  0  0
  -23.6492  -29.7992   20.1576 C   0  0  0  0  0  0
  -25.4120  -36.3062   24.0325 C   0  0  1  0  0  0
  -20.5900  -28.3710   23.1269 C   0  0  2  0  0  0
  -20.6793  -26.9426   22.5417 C   0  0  0  0  0  0
  -19.5769  -26.6386   21.5226 C   0  0  0  0  0  0
  -18.1939  -26.7937   22.1627 C   0  0  0  0  0  0
  -19.1549  -28.8868   23.2867 C   0  0  0  0  0  0
  -18.9470  -30.1464   23.8893 C   0  0  0  0  0  0
  -17.6472  -30.6592   24.0564 C   0  0  0  0  0  0
  -25.9060  -34.9430   23.5081 C   0  0  0  0  0  0
  -16.5362  -29.9090   23.6335 C   0  0  0  0  0  0
  -16.7285  -28.6515   23.0342 C   0  0  0  0  0  0
  -26.4505  -31.6577   25.0705 C   0  0  0  0  0  0
  -25.3716  -31.3737   26.1416 C   0  0  0  0  0  0
  -27.0362  -30.3001   24.6198 C   0  0  0  0  0  0
  -27.6054  -32.4323   25.7480 C   0  0  0  0  0  0
  -27.5577  -37.1787   24.8460 C   0  0  0  0  0  0
  -21.4215  -29.3053   22.3652 N   0  0  0  0  0  0
  -26.4288  -37.3767   23.9408 N   0  0  0  0  0  0
  -24.6988  -31.0487   22.0925 N   0  0  0  0  0  0
  -23.4193  -28.8164   23.3042 O   0  0  0  0  0  0
  -28.3247  -26.3688   20.1189 O   0  0  0  0  0  0
  -26.5635  -34.8911   22.4652 O   0  0  0  0  0  0
  -23.5478  -32.1346   23.7245 O   0  0  0  0  0  0
  -31.6127  -17.6649   21.1378 C   0  0  0  0  0  0
  -29.4590  -18.5864   20.5379 C   0  0  0  0  0  0
  -32.0774  -18.9634   21.4188 C   0  0  0  0  0  0
  -31.2140  -20.0927   21.3336 C   0  0  0  0  0  0
  -29.8993  -19.9705   20.7730 C   0  0  0  0  0  0
  -30.2905  -17.3945   20.7368 C   0  0  0  0  0  0
  -29.3589  -22.5017   20.1495 C   0  0  0  0  0  0
  -27.1013  -22.6276   20.7831 C   0  0  0  0  0  0
  -27.5910  -21.1573   20.6660 C   0  0  0  0  0  0
  -28.1586  -23.5403   20.1247 C   0  0  1  0  0  0
  -31.7095  -21.4038   21.9463 C   0  0  0  0  0  0
  -34.4147  -19.5716   20.6303 C   0  0  0  0  0  0
  -33.5528  -19.0867   21.8042 C   0  0  0  0  0  0
  -28.2393  -25.0305   20.8073 C   0  0  0  0  0  0
  -29.0435  -21.1992   20.5407 N   0  0  0  0  0  0
  -29.8715  -15.9576   20.5968 N   0  0  0  0  0  0
  -30.4709  -22.8640   19.7574 O   0  0  0  0  0  0
  -31.4680  -12.5948   19.1717 H   0  0  0  0  0  0
  -30.3716  -11.5122   19.9804 H   0  0  0  0  0  0
  -29.7984  -11.7234   17.5333 H   0  0  0  0  0  0
  -29.6239  -13.4526   17.7097 H   0  0  0  0  0  0
  -27.9081  -11.2750   18.9392 H   0  0  0  0  0  0
  -27.3748  -12.4878   17.8059 H   0  0  0  0  0  0
  -27.6184  -14.2495   19.4415 H   0  0  0  0  0  0
  -28.7276  -12.2245   21.4472 H   0  0  0  0  0  0
  -28.4119  -13.9132   21.7676 H   0  0  0  0  0  0
  -25.2767   -9.5687   22.4769 H   0  0  0  0  0  0
  -24.0003   -7.4642   22.7483 H   0  0  0  0  0  0
  -21.0851   -8.8780   19.8956 H   0  0  0  0  0  0
  -22.3712  -10.9675   19.6173 H   0  0  0  0  0  0
  -21.2007   -7.6149   23.9718 H   0  0  0  0  0  0
  -21.1480   -6.0527   25.9078 H   0  0  0  0  0  0
  -22.0596   -2.7612   23.2850 H   0  0  0  0  0  0
  -22.4073  -11.9873   22.4807 H   0  0  0  0  0  0
  -21.1080  -13.1240   22.2632 H   0  0  0  0  0  0
  -24.6461  -15.8435   20.5177 H   0  0  0  0  0  0
  -26.2593  -15.6339   20.0652 H   0  0  0  0  0  0
  -26.7211  -32.5385   23.1032 H   0  0  0  0  0  0
  -25.0083  -33.9675   25.0376 H   0  0  0  0  0  0
  -22.7287  -31.2964   21.3851 H   0  0  0  0  0  0
  -23.3770  -35.9609   23.3298 H   0  0  0  0  0  0
  -24.3591  -36.8918   22.2062 H   0  0  0  0  0  0
  -23.7250  -37.6474   23.6677 H   0  0  0  0  0  0
  -26.1121  -31.5237   20.6009 H   0  0  0  0  0  0
  -26.8542  -30.8159   22.0045 H   0  0  0  0  0  0
  -28.1311  -28.9299   21.1867 H   0  0  0  0  0  0
  -25.9887  -25.8627   19.0510 H   0  0  0  0  0  0
  -23.9736  -27.2737   19.0323 H   0  0  0  0  0  0
  -23.7755  -30.5703   19.3961 H   0  0  0  0  0  0
  -22.7676  -29.2331   19.8545 H   0  0  0  0  0  0
  -25.1312  -36.1893   25.0820 H   0  0  0  0  0  0
  -20.9981  -28.3290   24.1400 H   0  0  0  0  0  0
  -20.5731  -26.2316   23.3619 H   0  0  0  0  0  0
  -21.6653  -26.7466   22.1189 H   0  0  0  0  0  0
  -19.6942  -25.6302   21.1257 H   0  0  0  0  0  0
  -19.6720  -27.3190   20.6760 H   0  0  0  0  0  0
  -17.4220  -26.6696   21.4019 H   0  0  0  0  0  0
  -18.0327  -26.0083   22.9025 H   0  0  0  0  0  0
  -19.7950  -30.7276   24.2265 H   0  0  0  0  0  0
  -17.5029  -31.6274   24.5161 H   0  0  0  0  0  0
  -15.5362  -30.2991   23.7670 H   0  0  0  0  0  0
  -15.8687  -28.0836   22.7060 H   0  0  0  0  0  0
  -24.5899  -30.7075   25.7734 H   0  0  0  0  0  0
  -24.8895  -32.2910   26.4803 H   0  0  0  0  0  0
  -25.8017  -30.8930   27.0211 H   0  0  0  0  0  0
  -26.2948  -29.6731   24.1225 H   0  0  0  0  0  0
  -27.4061  -29.7278   25.4718 H   0  0  0  0  0  0
  -27.8814  -30.4302   23.9435 H   0  0  0  0  0  0
  -27.2667  -33.3641   26.2017 H   0  0  0  0  0  0
  -28.3878  -32.6846   25.0309 H   0  0  0  0  0  0
  -28.0700  -31.8467   26.5423 H   0  0  0  0  0  0
  -28.2578  -38.0102   24.7500 H   0  0  0  0  0  0
  -28.1088  -36.2620   24.6287 H   0  0  0  0  0  0
  -27.2285  -37.1422   25.8862 H   0  0  0  0  0  0
  -20.9413  -29.8745   21.6820 H   0  0  0  0  0  0
  -26.0166  -38.2844   24.1406 H   0  0  0  0  0  0
  -32.3101  -16.8553   21.2835 H   0  0  0  0  0  0
  -28.4461  -18.4365   20.1928 H   0  0  0  0  0  0
  -27.0056  -22.8767   21.8411 H   0  0  0  0  0  0
  -26.1150  -22.7606   20.3374 H   0  0  0  0  0  0
  -27.1780  -20.6866   19.7728 H   0  0  0  0  0  0
  -27.2836  -20.5643   21.5282 H   0  0  0  0  0  0
  -27.8911  -23.6674   19.0760 H   0  0  0  0  0  0
  -32.2644  -21.2371   22.8667 H   0  0  0  0  0  0
  -30.8946  -22.0499   22.2650 H   0  0  0  0  0  0
  -32.3528  -21.9485   21.2556 H   0  0  0  0  0  0
  -35.4677  -19.6150   20.9111 H   0  0  0  0  0  0
  -34.1205  -20.5663   20.2976 H   0  0  0  0  0  0
  -34.3310  -18.8975   19.7771 H   0  0  0  0  0  0
  -33.9287  -18.1142   22.1225 H   0  0  0  0  0  0
  -33.7004  -19.7241   22.6727 H   0  0  0  0  0  0
  -29.1028  -25.0120   21.4725 H   0  0  0  0  0  0
  -27.3967  -25.1134   21.4952 H   0  0  0  0  0  0
  -28.8762  -15.7988   20.6385 H   0  0  0  0  0  0
  1 25  1  0  0  0
  1 30  2  0  0  0
  1 86  1  0  0  0
  2  3  1  0  0  0
  2 25  1  0  0  0
  2 88  1  0  0  0
  2 89  1  0  0  0
  3  4  1  0  0  0
  3 90  1  0  0  0
  3 91  1  0  0  0
  4  5  1  0  0  0
  4 92  1  0  0  0
  4 93  1  0  0  0
  5  6  1  0  0  0
  5 26  1  0  0  0
  5 94  1  0  0  0
  6 25  1  0  0  0
  6 95  1  0  0  0
  6 96  1  0  0  0
  7  8  2  0  0  0
  7 26  1  0  0  0
  7 29  1  0  0  0
  8  9  1  0  0  0
  8 22  1  0  0  0
  9 10  1  0  0  0
  9 27  2  0  0  0
 10 11  2  0  0  0
 10 15  1  0  0  0
 11 12  1  0  0  0
 11 97  1  0  0  0
 12 13  2  0  0  0
 12 98  1  0  0  0
 13 14  1  0  0  0
 13 31  1  0  0  0
 14 15  2  0  0  0
 14 99  1  0  0  0
 15100  1  0  0  0
 16 17  2  0  0  0
 16 21  1  0  0  0
 16 31  1  0  0  0
 17 18  1  0  0  0
 17101  1  0  0  0
 18 19  2  0  0  0
 18102  1  0  0  0
 19 20  1  0  0  0
 19 24  1  0  0  0
 20 21  2  0  0  0
 20103  1  0  0  0
 21 23  1  0  0  0
 22 28  1  0  0  0
 22 32  2  0  0  0
 26 27  1  0  0  0
 28104  1  0  0  0
 28105  1  0  0  0
 29106  1  0  0  0
 29107  1  0  0  0
 33 34  1  0  0  0
 33 66  1  0  0  0
 33 70  2  0  0  0
 34 36  1  0  0  0
 34 59  1  0  0  0
 34108  1  0  0  0
 35 44  2  0  0  0
 35 45  1  0  0  0
 35 68  1  0  0  0
 36 56  1  0  0  0
 36109  1  0  0  0
 37 39  1  0  0  0
 37 47  1  0  0  0
 37 66  1  0  0  0
 37110  1  0  0  0
 38 43  2  0  0  0
 38 46  1  0  0  0
 38 47  1  0  0  0
 39 64  1  0  0  0
 39 67  2  0  0  0
 40 52  1  0  0  0
 40 53  2  0  0  0
 40 58  1  0  0  0
 41111  1  0  0  0
 41112  1  0  0  0
 41113  1  0  0  0
 41 48  1  0  0  0
 42 43  1  0  0  0
 42 66  1  0  0  0
 42114  1  0  0  0
 42115  1  0  0  0
 43 44  1  0  0  0
 44116  1  0  0  0
 45 46  2  0  0  0
 45117  1  0  0  0
 46118  1  0  0  0
 47119  1  0  0  0
 47120  1  0  0  0
 48 56  1  0  0  0
 48 65  1  0  0  0
 48121  1  0  0  0
 49 50  1  0  0  0
 49 53  1  0  0  0
 49 64  1  0  0  0
 49122  1  0  0  0
 50 51  1  0  0  0
 50123  1  0  0  0
 50124  1  0  0  0
 51 52  1  0  0  0
 51125  1  0  0  0
 51126  1  0  0  0
 52127  1  0  0  0
 52128  1  0  0  0
 53 54  1  0  0  0
 54 55  2  0  0  0
 54129  1  0  0  0
 55 57  1  0  0  0
 55130  1  0  0  0
 56 69  2  0  0  0
 57 58  2  0  0  0
 57131  1  0  0  0
 58132  1  0  0  0
 59 60  1  0  0  0
 59 61  1  0  0  0
 59 62  1  0  0  0
 60133  1  0  0  0
 60134  1  0  0  0
 60135  1  0  0  0
 61136  1  0  0  0
 61137  1  0  0  0
 61138  1  0  0  0
 62139  1  0  0  0
 62140  1  0  0  0
 62141  1  0  0  0
 63 65  1  0  0  0
 63142  1  0  0  0
 63143  1  0  0  0
 63144  1  0  0  0
 64145  1  0  0  0
 65146  1  0  0  0
 68 84  1  0  0  0
 71 73  2  0  0  0
 71 76  1  0  0  0
 71147  1  0  0  0
 72 75  1  0  0  0
 72 76  2  0  0  0
 72148  1  0  0  0
 73 74  1  0  0  0
 73 83  1  0  0  0
 74 75  2  0  0  0
 74 81  1  0  0  0
 75 85  1  0  0  0
 76 86  1  0  0  0
 77 80  1  0  0  0
 77 85  1  0  0  0
 77 87  2  0  0  0
 78 79  1  0  0  0
 78 80  1  0  0  0
 78149  1  0  0  0
 78150  1  0  0  0
 79 85  1  0  0  0
 79151  1  0  0  0
 79152  1  0  0  0
 80 84  1  0  0  0
 80153  1  0  0  0
 81154  1  0  0  0
 81155  1  0  0  0
 81156  1  0  0  0
 82 83  1  0  0  0
 82157  1  0  0  0
 82158  1  0  0  0
 82159  1  0  0  0
 83160  1  0  0  0
 83161  1  0  0  0
 84162  1  0  0  0
 84163  1  0  0  0
 86164  1  0  0  0
M  ISO  4   1 100  68 101  84 101  86 100
M  END
> <chiral flag>
0

> <version>
0

> <s_m_source_file>
/data/baiqing/PycharmProjects/Reinvent-master-3.2/result/LINK_invent/BTK/process_docking_weight1_custom_product_contain_oxygen_bond_distance_aromatic_linkinvent_7_9_3/rearranged_h_0071.sdf

> <i_m_source_file_index>
62

> <r_mmod_Potential_Energy-OPLS-2005>
344.764434814453

> <r_mmod_Stretch_Energy-OPLS-2005>
150.723861694336

> <r_mmod_Bend_Energy-OPLS-2005>
217.854507446289

> <r_mmod_Torsional_Energy-OPLS-2005>
298.939331054688

> <r_mmod_Improper_Torsional_Energy-OPLS-2005>
6.536696434021

> <r_mmod_Van_der_Waal_Energy-OPLS-2005>
148.021987915039

> <r_mmod_Electrostatic_Energy-OPLS-2005>
-348.844573974609

> <r_mmod_Solvation_Energy-OPLS-2005>
-223.246627807617

> <b_mmod_Minimization_Converged-OPLS-2005>
0

> <r_mmod_RMS_Derivative-OPLS-2005>
1.40600991249084

$$$$
62
                    3D
 Structure written by MMmdl.
153161  0  0  1  0            999 V2000
  -30.6184  -14.7432   20.4366 C   0  0  0  0  0  0
  -30.4238  -12.4407   19.4972 C   0  0  0  0  0  0
  -29.5089  -12.4968   18.2506 C   0  0  0  0  0  0
  -28.0395  -12.3105   18.6685 C   0  0  0  0  0  0
  -27.6393  -13.2314   19.8517 C   0  0  2  0  0  0
  -28.6803  -13.1875   20.9949 C   0  0  0  0  0  0
  -25.2482  -13.8182   20.5699 C   0  0  0  0  0  0
  -24.1775  -13.0413   20.9181 C   0  0  0  0  0  0
  -24.6369  -11.6896   20.8727 C   0  0  0  0  0  0
  -23.9059  -10.4269   21.0390 C   0  0  0  0  0  0
  -24.3606   -9.4185   21.9162 C   0  0  0  0  0  0
  -23.6272   -8.2231   22.0740 C   0  0  0  0  0  0
  -22.4256   -8.0264   21.3538 C   0  0  0  0  0  0
  -21.9892   -9.0242   20.4648 C   0  0  0  0  0  0
  -22.7231  -10.2114   20.3051 C   0  0  0  0  0  0
  -21.6846   -6.0727   22.5272 C   0  0  0  0  0  0
  -21.4026   -6.5638   23.8207 C   0  0  0  0  0  0
  -21.3664   -5.6787   24.9169 C   0  0  0  0  0  0
  -21.6038   -4.3046   24.7227 C   0  0  0  0  0  0
  -21.8816   -3.8140   23.4348 C   0  0  0  0  0  0
  -21.9182   -4.6954   22.3399 C   0  0  0  0  0  0
  -22.7808  -13.5199   21.1842 C   0  0  0  0  0  0
  -22.1644   -4.2138   21.0974 F   0  0  0  0  0  0
  -21.5623   -3.4533   25.7743 F   0  0  0  0  0  0
  -29.9894  -13.5170   20.4205 N   0  0  0  0  0  0
  -26.2916  -12.9394   20.3288 N   0  0  0  0  0  0
  -25.9313  -11.6539   20.5776 N   0  0  0  0  0  0
  -22.0476  -12.8193   22.0412 N   0  0  0  0  0  0
  -25.4164  -15.1917   20.4157 N   0  0  0  0  0  0
  -31.7997  -14.8230   20.0835 O   0  0  0  0  0  0
  -21.6623   -6.8864   21.4236 O   0  0  0  0  0  0
  -22.3493  -14.5511   20.6690 O   0  0  0  0  0  0
  -24.6308  -31.8562   23.1970 C   0  0  0  0  0  0
  -25.9124  -32.4765   23.8312 C   0  0  1  0  0  0
  -27.2249  -27.2673   20.1267 C   0  0  0  0  0  0
  -25.5900  -33.8565   24.2241 N   0  0  0  0  0  0
  -23.4265  -30.4746   21.5424 C   0  0  2  0  0  0
  -24.8695  -28.9175   20.1050 C   0  0  0  0  0  0
  -22.7502  -29.4591   22.4952 C   0  0  0  0  0  0
  -18.0289  -28.1397   22.8504 C   0  0  0  0  0  0
  -24.1469  -36.7289   23.2650 C   0  0  0  0  0  0
  -25.9680  -30.7690   21.3720 C   0  0  0  0  0  0
  -26.0380  -29.3900   20.7165 C   0  0  0  0  0  0
  -27.2120  -28.5757   20.7189 C   0  0  0  0  0  0
  -26.0325  -26.8506   19.4951 C   0  0  0  0  0  0
  -24.8738  -27.6574   19.4811 C   0  0  0  0  0  0
  -23.6382  -29.8034   20.1582 C   0  0  0  0  0  0
  -25.4103  -36.3094   24.0341 C   0  0  1  0  0  0
  -20.5891  -28.3692   23.1296 C   0  0  2  0  0  0
  -20.6765  -26.9414   22.5433 C   0  0  0  0  0  0
  -19.5733  -26.6390   21.5240 C   0  0  0  0  0  0
  -18.1918  -26.7941   22.1645 C   0  0  0  0  0  0
  -19.1546  -28.8872   23.2894 C   0  0  0  0  0  0
  -18.9464  -30.1467   23.8909 C   0  0  0  0  0  0
  -17.6458  -30.6598   24.0579 C   0  0  0  0  0  0
  -25.9048  -34.9461   23.5108 C   0  0  0  0  0  0
  -16.5351  -29.9095   23.6332 C   0  0  0  0  0  0
  -16.7274  -28.6519   23.0360 C   0  0  0  0  0  0
  -26.4488  -31.6597   25.0712 C   0  0  0  0  0  0
  -25.3700  -31.3736   26.1438 C   0  0  0  0  0  0
  -27.0362  -30.3036   24.6180 C   0  0  0  0  0  0
  -27.6056  -32.4339   25.7461 C   0  0  0  0  0  0
  -27.5580  -37.1791   24.8473 C   0  0  0  0  0  0
  -21.4226  -29.3022   22.3679 N   0  0  0  0  0  0
  -26.4284  -37.3792   23.9422 N   0  0  0  0  0  0
  -24.6948  -31.0512   22.0933 N   0  0  0  0  0  0
  -23.4214  -28.8166   23.3074 O   0  0  0  0  0  0
  -28.3526  -26.4224   20.2214 O   0  0  0  0  0  0
  -26.5647  -34.8945   22.4694 O   0  0  0  0  0  0
  -23.5460  -32.1382   23.7262 O   0  0  0  0  0  0
  -29.4768  -18.5043   20.5049 C   0  0  0  0  0  0
  -30.4022  -17.2256   18.6527 C   0  0  0  0  0  0
  -29.9416  -17.2143   19.9878 C   0  0  0  0  0  0
  -29.4692  -19.7518   19.7378 C   0  0  0  0  0  0
  -29.8967  -19.6187   18.3826 C   0  0  0  0  0  0
  -30.3697  -18.3910   17.8709 C   0  0  0  0  0  0
  -29.2480  -22.3879   19.9437 C   0  0  0  0  0  0
  -28.3648  -23.6484   20.4100 C   0  0  0  0  0  0
  -28.4848  -25.0596   19.6048 C   0  0  0  0  0  0
  -29.8350  -20.6699   17.4693 N   0  0  0  0  0  0
  -28.9360  -21.0616   20.2505 N   0  0  0  0  0  0
  -29.8803  -15.8958   20.6841 N   0  0  0  0  0  0
  -30.2875  -22.6524   19.3359 O   0  0  0  0  0  0
  -30.7775  -18.3240   16.5788 F   0  0  0  0  0  0
  -30.3466  -11.4704   19.9907 H   0  0  0  0  0  0
  -31.4692  -12.5414   19.2031 H   0  0  0  0  0  0
  -29.7924  -11.7245   17.5347 H   0  0  0  0  0  0
  -29.6323  -13.4521   17.7391 H   0  0  0  0  0  0
  -27.9170  -11.2659   18.9606 H   0  0  0  0  0  0
  -27.3730  -12.4632   17.8193 H   0  0  0  0  0  0
  -27.6278  -14.2475   19.4549 H   0  0  0  0  0  0
  -28.4149  -13.8950   21.7820 H   0  0  0  0  0  0
  -28.7077  -12.2046   21.4660 H   0  0  0  0  0  0
  -25.2748   -9.5663   22.4740 H   0  0  0  0  0  0
  -23.9981   -7.4626   22.7457 H   0  0  0  0  0  0
  -21.0816   -8.8763   19.8963 H   0  0  0  0  0  0
  -22.3664  -10.9653   19.6171 H   0  0  0  0  0  0
  -21.2043   -7.6147   23.9715 H   0  0  0  0  0  0
  -21.1479   -6.0515   25.9068 H   0  0  0  0  0  0
  -22.0595   -2.7605   23.2849 H   0  0  0  0  0  0
  -22.4144  -11.9873   22.4778 H   0  0  0  0  0  0
  -21.1106  -13.1224   22.2658 H   0  0  0  0  0  0
  -24.6464  -15.8422   20.5299 H   0  0  0  0  0  0
  -26.2626  -15.6359   20.0836 H   0  0  0  0  0  0
  -26.7199  -32.5407   23.1058 H   0  0  0  0  0  0
  -24.9957  -33.9685   25.0329 H   0  0  0  0  0  0
  -22.7222  -31.2975   21.3996 H   0  0  0  0  0  0
  -23.3748  -35.9604   23.3325 H   0  0  0  0  0  0
  -24.3558  -36.8912   22.2065 H   0  0  0  0  0  0
  -23.7213  -37.6488   23.6663 H   0  0  0  0  0  0
  -26.1029  -31.5271   20.5990 H   0  0  0  0  0  0
  -26.8475  -30.8220   22.0016 H   0  0  0  0  0  0
  -28.1043  -28.9336   21.2119 H   0  0  0  0  0  0
  -25.9636  -25.8754   19.0366 H   0  0  0  0  0  0
  -23.9809  -27.2894   18.9934 H   0  0  0  0  0  0
  -23.7504  -30.5793   19.3993 H   0  0  0  0  0  0
  -22.7555  -29.2326   19.8626 H   0  0  0  0  0  0
  -25.1284  -36.1946   25.0834 H   0  0  0  0  0  0
  -20.9990  -28.3274   24.1413 H   0  0  0  0  0  0
  -20.5681  -26.2309   23.3649 H   0  0  0  0  0  0
  -21.6627  -26.7439   22.1217 H   0  0  0  0  0  0
  -19.6893  -25.6307   21.1262 H   0  0  0  0  0  0
  -19.6654  -27.3206   20.6776 H   0  0  0  0  0  0
  -17.4190  -26.6716   21.4040 H   0  0  0  0  0  0
  -18.0284  -26.0079   22.9029 H   0  0  0  0  0  0
  -19.7939  -30.7295   24.2282 H   0  0  0  0  0  0
  -17.5006  -31.6273   24.5178 H   0  0  0  0  0  0
  -15.5346  -30.3002   23.7646 H   0  0  0  0  0  0
  -15.8679  -28.0840   22.7058 H   0  0  0  0  0  0
  -24.5860  -30.7129   25.7725 H   0  0  0  0  0  0
  -24.8896  -32.2893   26.4906 H   0  0  0  0  0  0
  -25.7990  -30.8829   27.0184 H   0  0  0  0  0  0
  -26.2951  -29.6776   24.1201 H   0  0  0  0  0  0
  -27.4063  -29.7303   25.4686 H   0  0  0  0  0  0
  -27.8809  -30.4367   23.9417 H   0  0  0  0  0  0
  -27.2683  -33.3645   26.2041 H   0  0  0  0  0  0
  -28.3811  -32.6922   25.0238 H   0  0  0  0  0  0
  -28.0788  -31.8472   26.5345 H   0  0  0  0  0  0
  -28.2634  -38.0056   24.7527 H   0  0  0  0  0  0
  -28.1045  -36.2606   24.6283 H   0  0  0  0  0  0
  -27.2310  -37.1435   25.8880 H   0  0  0  0  0  0
  -20.9440  -29.8727   21.6853 H   0  0  0  0  0  0
  -26.0189  -38.2881   24.1397 H   0  0  0  0  0  0
  -29.1083  -18.5381   21.5204 H   0  0  0  0  0  0
  -30.7455  -16.3202   18.1755 H   0  0  0  0  0  0
  -28.6208  -23.8304   21.4528 H   0  0  0  0  0  0
  -27.3186  -23.3398   20.4179 H   0  0  0  0  0  0
  -27.8948  -24.9986   18.6912 H   0  0  0  0  0  0
  -29.5053  -25.0925   19.2279 H   0  0  0  0  0  0
  -30.0766  -21.5646   17.8971 H   0  0  0  0  0  0
  -30.3659  -20.5031   16.6220 H   0  0  0  0  0  0
  -28.1939  -20.9707   20.9306 H   0  0  0  0  0  0
  -29.0617  -15.7528   21.2578 H   0  0  0  0  0  0
  1 25  1  0  0  0
  1 30  2  0  0  0
  1 82  1  0  0  0
  2  3  1  0  0  0
  2 25  1  0  0  0
  2 85  1  0  0  0
  2 86  1  0  0  0
  3  4  1  0  0  0
  3 87  1  0  0  0
  3 88  1  0  0  0
  4  5  1  0  0  0
  4 89  1  0  0  0
  4 90  1  0  0  0
  5  6  1  0  0  0
  5 26  1  0  0  0
  5 91  1  0  0  0
  6 25  1  0  0  0
  6 92  1  0  0  0
  6 93  1  0  0  0
  7  8  2  0  0  0
  7 26  1  0  0  0
  7 29  1  0  0  0
  8  9  1  0  0  0
  8 22  1  0  0  0
  9 10  1  0  0  0
  9 27  2  0  0  0
 10 11  2  0  0  0
 10 15  1  0  0  0
 11 12  1  0  0  0
 11 94  1  0  0  0
 12 13  2  0  0  0
 12 95  1  0  0  0
 13 14  1  0  0  0
 13 31  1  0  0  0
 14 15  2  0  0  0
 14 96  1  0  0  0
 15 97  1  0  0  0
 16 17  2  0  0  0
 16 21  1  0  0  0
 16 31  1  0  0  0
 17 18  1  0  0  0
 17 98  1  0  0  0
 18 19  2  0  0  0
 18 99  1  0  0  0
 19 20  1  0  0  0
 19 24  1  0  0  0
 20 21  2  0  0  0
 20100  1  0  0  0
 21 23  1  0  0  0
 22 28  1  0  0  0
 22 32  2  0  0  0
 26 27  1  0  0  0
 28101  1  0  0  0
 28102  1  0  0  0
 29103  1  0  0  0
 29104  1  0  0  0
 33 34  1  0  0  0
 33 66  1  0  0  0
 33 70  2  0  0  0
 34 36  1  0  0  0
 34 59  1  0  0  0
 34105  1  0  0  0
 35 44  2  0  0  0
 35 45  1  0  0  0
 35 68  1  0  0  0
 36 56  1  0  0  0
 36106  1  0  0  0
 37 39  1  0  0  0
 37 47  1  0  0  0
 37 66  1  0  0  0
 37107  1  0  0  0
 38 43  2  0  0  0
 38 46  1  0  0  0
 38 47  1  0  0  0
 39 64  1  0  0  0
 39 67  2  0  0  0
 40 52  1  0  0  0
 40 53  2  0  0  0
 40 58  1  0  0  0
 41108  1  0  0  0
 41109  1  0  0  0
 41110  1  0  0  0
 41 48  1  0  0  0
 42 43  1  0  0  0
 42 66  1  0  0  0
 42111  1  0  0  0
 42112  1  0  0  0
 43 44  1  0  0  0
 44113  1  0  0  0
 45 46  2  0  0  0
 45114  1  0  0  0
 46115  1  0  0  0
 47116  1  0  0  0
 47117  1  0  0  0
 48 56  1  0  0  0
 48 65  1  0  0  0
 48118  1  0  0  0
 49 50  1  0  0  0
 49 53  1  0  0  0
 49 64  1  0  0  0
 49119  1  0  0  0
 50 51  1  0  0  0
 50120  1  0  0  0
 50121  1  0  0  0
 51 52  1  0  0  0
 51122  1  0  0  0
 51123  1  0  0  0
 52124  1  0  0  0
 52125  1  0  0  0
 53 54  1  0  0  0
 54 55  2  0  0  0
 54126  1  0  0  0
 55 57  1  0  0  0
 55127  1  0  0  0
 56 69  2  0  0  0
 57 58  2  0  0  0
 57128  1  0  0  0
 58129  1  0  0  0
 59 60  1  0  0  0
 59 61  1  0  0  0
 59 62  1  0  0  0
 60130  1  0  0  0
 60131  1  0  0  0
 60132  1  0  0  0
 61133  1  0  0  0
 61134  1  0  0  0
 61135  1  0  0  0
 62136  1  0  0  0
 62137  1  0  0  0
 62138  1  0  0  0
 63 65  1  0  0  0
 63139  1  0  0  0
 63140  1  0  0  0
 63141  1  0  0  0
 64142  1  0  0  0
 65143  1  0  0  0
 68 79  1  0  0  0
 71 73  2  0  0  0
 71 74  1  0  0  0
 71144  1  0  0  0
 72 73  1  0  0  0
 72 76  2  0  0  0
 72145  1  0  0  0
 73 82  1  0  0  0
 74 75  2  0  0  0
 74 81  1  0  0  0
 75 76  1  0  0  0
 75 80  1  0  0  0
 76 84  1  0  0  0
 77 78  1  0  0  0
 77 81  1  0  0  0
 77 83  2  0  0  0
 78 79  1  0  0  0
 78146  1  0  0  0
 78147  1  0  0  0
 79148  1  0  0  0
 79149  1  0  0  0
 80150  1  0  0  0
 80151  1  0  0  0
 81152  1  0  0  0
 82153  1  0  0  0
M  ISO  4   1 100  68 101  79 101  82 100
M  END
> <chiral flag>
0

> <version>
0

> <s_m_source_file>
/data/baiqing/PycharmProjects/Reinvent-master-3.2/result/LINK_invent/BTK/process_docking_weight1_custom_product_contain_oxygen_bond_distance_aromatic_linkinvent_7_9_3/rearranged_h_0071.sdf

> <i_m_source_file_index>
63

> <r_mmod_Potential_Energy-OPLS-2005>
125.67658996582

> <r_mmod_Stretch_Energy-OPLS-2005>
134.70915222168

> <r_mmod_Bend_Energy-OPLS-2005>
181.213958740234

> <r_mmod_Torsional_Energy-OPLS-2005>
254.069763183594

> <r_mmod_Improper_Torsional_Energy-OPLS-2005>
10.6635971069336

> <r_mmod_Van_der_Waal_Energy-OPLS-2005>
154.195068359375

> <r_mmod_Electrostatic_Energy-OPLS-2005>
-453.369995117188

> <r_mmod_Solvation_Energy-OPLS-2005>
-238.651443481445

> <b_mmod_Minimization_Converged-OPLS-2005>
0

> <r_mmod_RMS_Derivative-OPLS-2005>
2.90092730522156

$$$$
63
                    3D
 Structure written by MMmdl.
160169  0  0  1  0            999 V2000
  -30.6057  -14.7642   20.4337 C   0  0  0  0  0  0
  -30.4289  -12.4603   19.4871 C   0  0  0  0  0  0
  -29.5202  -12.5217   18.2393 C   0  0  0  0  0  0
  -28.0417  -12.3468   18.6378 C   0  0  0  0  0  0
  -27.6431  -13.2359   19.8464 C   0  0  2  0  0  0
  -28.6830  -13.1803   20.9878 C   0  0  0  0  0  0
  -25.2529  -13.8198   20.5694 C   0  0  0  0  0  0
  -24.1821  -13.0448   20.9202 C   0  0  0  0  0  0
  -24.6392  -11.6923   20.8720 C   0  0  0  0  0  0
  -23.9044  -10.4302   21.0370 C   0  0  0  0  0  0
  -24.3605   -9.4231   21.9152 C   0  0  0  0  0  0
  -23.6306   -8.2247   22.0726 C   0  0  0  0  0  0
  -22.4287   -8.0260   21.3522 C   0  0  0  0  0  0
  -21.9910   -9.0216   20.4613 C   0  0  0  0  0  0
  -22.7212  -10.2117   20.3015 C   0  0  0  0  0  0
  -21.6841   -6.0726   22.5283 C   0  0  0  0  0  0
  -21.4000   -6.5630   23.8217 C   0  0  0  0  0  0
  -21.3677   -5.6779   24.9189 C   0  0  0  0  0  0
  -21.6070   -4.3044   24.7221 C   0  0  0  0  0  0
  -21.8819   -3.8129   23.4345 C   0  0  0  0  0  0
  -21.9195   -4.6955   22.3409 C   0  0  0  0  0  0
  -22.7842  -13.5241   21.1853 C   0  0  0  0  0  0
  -22.1661   -4.2136   21.0985 F   0  0  0  0  0  0
  -21.5656   -3.4537   25.7740 F   0  0  0  0  0  0
  -29.9903  -13.5292   20.4198 N   0  0  0  0  0  0
  -26.2944  -12.9403   20.3230 N   0  0  0  0  0  0
  -25.9332  -11.6540   20.5677 N   0  0  0  0  0  0
  -22.0470  -12.8223   22.0389 N   0  0  0  0  0  0
  -25.4247  -15.1923   20.4174 N   0  0  0  0  0  0
  -31.7779  -14.8607   20.0563 O   0  0  0  0  0  0
  -21.6646   -6.8869   21.4237 O   0  0  0  0  0  0
  -22.3565  -14.5563   20.6715 O   0  0  0  0  0  0
  -24.6324  -31.8549   23.1947 C   0  0  0  0  0  0
  -25.9145  -32.4746   23.8297 C   0  0  1  0  0  0
  -27.2174  -27.2491   20.1177 C   0  0  0  0  0  0
  -25.5962  -33.8550   24.2232 N   0  0  0  0  0  0
  -23.4306  -30.4765   21.5414 C   0  0  2  0  0  0
  -24.8765  -28.9245   20.1007 C   0  0  0  0  0  0
  -22.7530  -29.4587   22.4903 C   0  0  0  0  0  0
  -18.0286  -28.1395   22.8483 C   0  0  0  0  0  0
  -24.1491  -36.7272   23.2641 C   0  0  0  0  0  0
  -25.9780  -30.7598   21.3788 C   0  0  0  0  0  0
  -26.0479  -29.3823   20.7172 C   0  0  0  0  0  0
  -27.2189  -28.5557   20.7184 C   0  0  0  0  0  0
  -26.0290  -26.8764   19.4472 C   0  0  0  0  0  0
  -24.8735  -27.6809   19.4518 C   0  0  0  0  0  0
  -23.6468  -29.8104   20.1562 C   0  0  0  0  0  0
  -25.4129  -36.3071   24.0325 C   0  0  1  0  0  0
  -20.5901  -28.3690   23.1266 C   0  0  2  0  0  0
  -20.6773  -26.9413   22.5398 C   0  0  0  0  0  0
  -19.5747  -26.6366   21.5214 C   0  0  0  0  0  0
  -18.1928  -26.7929   22.1620 C   0  0  0  0  0  0
  -19.1553  -28.8856   23.2861 C   0  0  0  0  0  0
  -18.9475  -30.1460   23.8869 C   0  0  0  0  0  0
  -17.6473  -30.6587   24.0564 C   0  0  0  0  0  0
  -25.9069  -34.9443   23.5069 C   0  0  0  0  0  0
  -16.5356  -29.9096   23.6334 C   0  0  0  0  0  0
  -16.7270  -28.6518   23.0341 C   0  0  0  0  0  0
  -26.4504  -31.6575   25.0690 C   0  0  0  0  0  0
  -25.3722  -31.3770   26.1416 C   0  0  0  0  0  0
  -27.0303  -30.2977   24.6164 C   0  0  0  0  0  0
  -27.6099  -32.4281   25.7430 C   0  0  0  0  0  0
  -27.5584  -37.1807   24.8472 C   0  0  0  0  0  0
  -21.4237  -29.3034   22.3665 N   0  0  0  0  0  0
  -26.4296  -37.3789   23.9413 N   0  0  0  0  0  0
  -24.7007  -31.0471   22.0953 N   0  0  0  0  0  0
  -23.4242  -28.8138   23.2990 O   0  0  0  0  0  0
  -28.3022  -26.3383   20.2065 O   0  0  0  0  0  0
  -26.5625  -34.8929   22.4624 O   0  0  0  0  0  0
  -23.5457  -32.1400   23.7200 O   0  0  0  0  0  0
  -29.5304  -18.5401   20.4742 C   0  0  0  0  0  0
  -29.6746  -17.0478   18.5527 C   0  0  0  0  0  0
  -29.2532  -19.7209   19.6427 C   0  0  0  0  0  0
  -29.7382  -17.1801   19.9539 C   0  0  0  0  0  0
  -29.0832  -19.4188   18.2546 C   0  0  0  0  0  0
  -29.3323  -18.1315   17.7319 C   0  0  0  0  0  0
  -29.2608  -22.3769   19.5542 C   0  0  0  0  0  0
  -28.4661  -22.9403   21.6972 C   0  0  0  0  0  0
  -28.8030  -21.4234   21.5696 C   0  0  0  0  0  0
  -29.0352  -23.6634   20.4546 C   0  0  1  0  0  0
  -30.4286  -24.2599   20.7529 C   0  0  0  0  0  0
  -28.1105  -24.8768   19.8647 C   0  0  0  0  0  0
  -29.0833  -21.1373   20.1636 N   0  0  0  0  0  0
  -28.6116  -20.3375   17.3203 N   0  0  0  0  0  0
  -29.8688  -15.9112   20.7316 N   0  0  0  0  0  0
  -29.6626  -22.5468   18.3986 O   0  0  0  0  0  0
  -29.2014  -17.9257   16.3954 F   0  0  0  0  0  0
  -31.4716  -12.5761   19.1893 H   0  0  0  0  0  0
  -30.3599  -11.4808   19.9641 H   0  0  0  0  0  0
  -29.8082  -11.7547   17.5187 H   0  0  0  0  0  0
  -29.6590  -13.4802   17.7358 H   0  0  0  0  0  0
  -27.8875  -11.2946   18.8804 H   0  0  0  0  0  0
  -27.3946  -12.5537   17.7834 H   0  0  0  0  0  0
  -27.6357  -14.2586   19.4681 H   0  0  0  0  0  0
  -28.7170  -12.1900   21.4434 H   0  0  0  0  0  0
  -28.4076  -13.8736   21.7825 H   0  0  0  0  0  0
  -25.2751   -9.5727   22.4728 H   0  0  0  0  0  0
  -24.0018   -7.4650   22.7461 H   0  0  0  0  0  0
  -21.0824   -8.8695   19.8945 H   0  0  0  0  0  0
  -22.3619  -10.9632   19.6119 H   0  0  0  0  0  0
  -21.1943   -7.6127   23.9718 H   0  0  0  0  0  0
  -21.1527   -6.0507   25.9097 H   0  0  0  0  0  0
  -22.0579   -2.7582   23.2844 H   0  0  0  0  0  0
  -22.4042  -11.9903   22.4831 H   0  0  0  0  0  0
  -21.1054  -13.1214   22.2474 H   0  0  0  0  0  0
  -24.6666  -15.8504   20.5600 H   0  0  0  0  0  0
  -26.2676  -15.6345   20.0746 H   0  0  0  0  0  0
  -26.7204  -32.5384   23.1030 H   0  0  0  0  0  0
  -25.0155  -33.9672   25.0410 H   0  0  0  0  0  0
  -22.7290  -31.3011   21.3971 H   0  0  0  0  0  0
  -23.3779  -35.9574   23.3263 H   0  0  0  0  0  0
  -24.3595  -36.8910   22.2061 H   0  0  0  0  0  0
  -23.7181  -37.6446   23.6668 H   0  0  0  0  0  0
  -26.1156  -31.5207   20.6095 H   0  0  0  0  0  0
  -26.8572  -30.8090   22.0089 H   0  0  0  0  0  0
  -28.1118  -28.8967   21.2255 H   0  0  0  0  0  0
  -25.9529  -25.9373   18.9207 H   0  0  0  0  0  0
  -23.9832  -27.3308   18.9467 H   0  0  0  0  0  0
  -23.7728  -30.5906   19.4056 H   0  0  0  0  0  0
  -22.7623  -29.2481   19.8469 H   0  0  0  0  0  0
  -25.1314  -36.1926   25.0820 H   0  0  0  0  0  0
  -20.9986  -28.3227   24.1388 H   0  0  0  0  0  0
  -20.5672  -26.2306   23.3609 H   0  0  0  0  0  0
  -21.6645  -26.7439   22.1196 H   0  0  0  0  0  0
  -19.6930  -25.6279   21.1235 H   0  0  0  0  0  0
  -19.6668  -27.3182   20.6760 H   0  0  0  0  0  0
  -17.4220  -26.6650   21.4011 H   0  0  0  0  0  0
  -18.0327  -26.0088   22.9028 H   0  0  0  0  0  0
  -19.7963  -30.7279   24.2212 H   0  0  0  0  0  0
  -17.5041  -31.6274   24.5170 H   0  0  0  0  0  0
  -15.5360  -30.2988   23.7690 H   0  0  0  0  0  0
  -15.8673  -28.0838   22.7047 H   0  0  0  0  0  0
  -24.5847  -30.7187   25.7738 H   0  0  0  0  0  0
  -24.8976  -32.2962   26.4859 H   0  0  0  0  0  0
  -25.8004  -30.8908   27.0186 H   0  0  0  0  0  0
  -26.2857  -29.6736   24.1212 H   0  0  0  0  0  0
  -27.4014  -29.7228   25.4653 H   0  0  0  0  0  0
  -27.8733  -30.4224   23.9366 H   0  0  0  0  0  0
  -27.2800  -33.3646   26.1935 H   0  0  0  0  0  0
  -28.3947  -32.6714   25.0257 H   0  0  0  0  0  0
  -28.0729  -31.8436   26.5387 H   0  0  0  0  0  0
  -28.2636  -38.0087   24.7528 H   0  0  0  0  0  0
  -28.1048  -36.2616   24.6291 H   0  0  0  0  0  0
  -27.2300  -37.1441   25.8879 H   0  0  0  0  0  0
  -20.9433  -29.8782   21.6890 H   0  0  0  0  0  0
  -26.0168  -38.2856   24.1433 H   0  0  0  0  0  0
  -29.5855  -18.6818   21.5425 H   0  0  0  0  0  0
  -29.8086  -16.0869   18.0805 H   0  0  0  0  0  0
  -28.8628  -23.3517   22.6272 H   0  0  0  0  0  0
  -27.3841  -23.0651   21.7440 H   0  0  0  0  0  0
  -27.9870  -20.8064   21.9474 H   0  0  0  0  0  0
  -29.6997  -21.1955   22.1475 H   0  0  0  0  0  0
  -31.1640  -23.4980   21.0163 H   0  0  0  0  0  0
  -30.3824  -24.9676   21.5803 H   0  0  0  0  0  0
  -30.8181  -24.7995   19.8881 H   0  0  0  0  0  0
  -27.0878  -24.5907   20.1082 H   0  0  0  0  0  0
  -28.1655  -24.8366   18.7752 H   0  0  0  0  0  0
  -28.9324  -21.2947   17.4890 H   0  0  0  0  0  0
  -28.7606  -20.0554   16.3569 H   0  0  0  0  0  0
  -29.0995  -15.7390   21.3620 H   0  0  0  0  0  0
  1 25  1  0  0  0
  1 30  2  0  0  0
  1 85  1  0  0  0
  2  3  1  0  0  0
  2 25  1  0  0  0
  2 88  1  0  0  0
  2 89  1  0  0  0
  3  4  1  0  0  0
  3 90  1  0  0  0
  3 91  1  0  0  0
  4  5  1  0  0  0
  4 92  1  0  0  0
  4 93  1  0  0  0
  5  6  1  0  0  0
  5 26  1  0  0  0
  5 94  1  0  0  0
  6 25  1  0  0  0
  6 95  1  0  0  0
  6 96  1  0  0  0
  7  8  2  0  0  0
  7 26  1  0  0  0
  7 29  1  0  0  0
  8  9  1  0  0  0
  8 22  1  0  0  0
  9 10  1  0  0  0
  9 27  2  0  0  0
 10 11  2  0  0  0
 10 15  1  0  0  0
 11 12  1  0  0  0
 11 97  1  0  0  0
 12 13  2  0  0  0
 12 98  1  0  0  0
 13 14  1  0  0  0
 13 31  1  0  0  0
 14 15  2  0  0  0
 14 99  1  0  0  0
 15100  1  0  0  0
 16 17  2  0  0  0
 16 21  1  0  0  0
 16 31  1  0  0  0
 17 18  1  0  0  0
 17101  1  0  0  0
 18 19  2  0  0  0
 18102  1  0  0  0
 19 20  1  0  0  0
 19 24  1  0  0  0
 20 21  2  0  0  0
 20103  1  0  0  0
 21 23  1  0  0  0
 22 28  1  0  0  0
 22 32  2  0  0  0
 26 27  1  0  0  0
 28104  1  0  0  0
 28105  1  0  0  0
 29106  1  0  0  0
 29107  1  0  0  0
 33 34  1  0  0  0
 33 66  1  0  0  0
 33 70  2  0  0  0
 34 36  1  0  0  0
 34 59  1  0  0  0
 34108  1  0  0  0
 35 44  2  0  0  0
 35 45  1  0  0  0
 35 68  1  0  0  0
 36 56  1  0  0  0
 36109  1  0  0  0
 37 39  1  0  0  0
 37 47  1  0  0  0
 37 66  1  0  0  0
 37110  1  0  0  0
 38 43  2  0  0  0
 38 46  1  0  0  0
 38 47  1  0  0  0
 39 64  1  0  0  0
 39 67  2  0  0  0
 40 52  1  0  0  0
 40 53  2  0  0  0
 40 58  1  0  0  0
 41111  1  0  0  0
 41112  1  0  0  0
 41113  1  0  0  0
 41 48  1  0  0  0
 42 43  1  0  0  0
 42 66  1  0  0  0
 42114  1  0  0  0
 42115  1  0  0  0
 43 44  1  0  0  0
 44116  1  0  0  0
 45 46  2  0  0  0
 45117  1  0  0  0
 46118  1  0  0  0
 47119  1  0  0  0
 47120  1  0  0  0
 48 56  1  0  0  0
 48 65  1  0  0  0
 48121  1  0  0  0
 49 50  1  0  0  0
 49 53  1  0  0  0
 49 64  1  0  0  0
 49122  1  0  0  0
 50 51  1  0  0  0
 50123  1  0  0  0
 50124  1  0  0  0
 51 52  1  0  0  0
 51125  1  0  0  0
 51126  1  0  0  0
 52127  1  0  0  0
 52128  1  0  0  0
 53 54  1  0  0  0
 54 55  2  0  0  0
 54129  1  0  0  0
 55 57  1  0  0  0
 55130  1  0  0  0
 56 69  2  0  0  0
 57 58  2  0  0  0
 57131  1  0  0  0
 58132  1  0  0  0
 59 60  1  0  0  0
 59 61  1  0  0  0
 59 62  1  0  0  0
 60133  1  0  0  0
 60134  1  0  0  0
 60135  1  0  0  0
 61136  1  0  0  0
 61137  1  0  0  0
 61138  1  0  0  0
 62139  1  0  0  0
 62140  1  0  0  0
 62141  1  0  0  0
 63 65  1  0  0  0
 63142  1  0  0  0
 63143  1  0  0  0
 63144  1  0  0  0
 64145  1  0  0  0
 65146  1  0  0  0
 68 82  1  0  0  0
 71 73  2  0  0  0
 71 74  1  0  0  0
 71147  1  0  0  0
 72 74  2  0  0  0
 72 76  1  0  0  0
 72148  1  0  0  0
 73 75  1  0  0  0
 73 83  1  0  0  0
 74 85  1  0  0  0
 75 76  2  0  0  0
 75 84  1  0  0  0
 76 87  1  0  0  0
 77 80  1  0  0  0
 77 83  1  0  0  0
 77 86  2  0  0  0
 78 79  1  0  0  0
 78 80  1  0  0  0
 78149  1  0  0  0
 78150  1  0  0  0
 79 83  1  0  0  0
 79151  1  0  0  0
 79152  1  0  0  0
 80 81  1  0  0  0
 80 82  1  0  0  0
 81153  1  0  0  0
 81154  1  0  0  0
 81155  1  0  0  0
 82156  1  0  0  0
 82157  1  0  0  0
 84158  1  0  0  0
 84159  1  0  0  0
 85160  1  0  0  0
M  ISO  4   1 100  68 101  82 101  85 100
M  END
> <chiral flag>
0

> <version>
0

> <s_m_source_file>
/data/baiqing/PycharmProjects/Reinvent-master-3.2/result/LINK_invent/BTK/process_docking_weight1_custom_product_contain_oxygen_bond_distance_aromatic_linkinvent_7_9_3/rearranged_h_0071.sdf

> <i_m_source_file_index>
64

> <r_mmod_Potential_Energy-OPLS-2005>
327.305480957031

> <r_mmod_Stretch_Energy-OPLS-2005>
148.420364379883

> <r_mmod_Bend_Energy-OPLS-2005>
202.013809204102

> <r_mmod_Torsional_Energy-OPLS-2005>
319.048583984375

> <r_mmod_Improper_Torsional_Energy-OPLS-2005>
11.061372756958

> <r_mmod_Van_der_Waal_Energy-OPLS-2005>
154.4560546875

> <r_mmod_Electrostatic_Energy-OPLS-2005>
-382.397491455078

> <r_mmod_Solvation_Energy-OPLS-2005>
-220.715469360352

> <b_mmod_Minimization_Converged-OPLS-2005>
0

> <r_mmod_RMS_Derivative-OPLS-2005>
3.73947477340698

$$$$
64
                    3D
 Structure written by MMmdl.
155163  0  0  1  0            999 V2000
  -30.6076  -14.7372   20.4568 C   0  0  0  0  0  0
  -30.4452  -12.4634   19.4390 C   0  0  0  0  0  0
  -29.5077  -12.4893   18.2141 C   0  0  0  0  0  0
  -28.0320  -12.3234   18.6338 C   0  0  0  0  0  0
  -27.6397  -13.2277   19.8328 C   0  0  2  0  0  0
  -28.6909  -13.1656   20.9602 C   0  0  0  0  0  0
  -25.2527  -13.8184   20.5725 C   0  0  0  0  0  0
  -24.1812  -13.0448   20.9255 C   0  0  0  0  0  0
  -24.6396  -11.6926   20.8762 C   0  0  0  0  0  0
  -23.9084  -10.4310   21.0419 C   0  0  0  0  0  0
  -24.3632   -9.4220   21.9184 C   0  0  0  0  0  0
  -23.6316   -8.2248   22.0734 C   0  0  0  0  0  0
  -22.4294   -8.0287   21.3537 C   0  0  0  0  0  0
  -21.9944   -9.0267   20.4637 C   0  0  0  0  0  0
  -22.7274  -10.2147   20.3064 C   0  0  0  0  0  0
  -21.6852   -6.0764   22.5291 C   0  0  0  0  0  0
  -21.4010   -6.5656   23.8229 C   0  0  0  0  0  0
  -21.3641   -5.6791   24.9180 C   0  0  0  0  0  0
  -21.6050   -4.3058   24.7226 C   0  0  0  0  0  0
  -21.8811   -3.8165   23.4339 C   0  0  0  0  0  0
  -21.9194   -4.6994   22.3408 C   0  0  0  0  0  0
  -22.7829  -13.5225   21.1897 C   0  0  0  0  0  0
  -22.1661   -4.2182   21.0992 F   0  0  0  0  0  0
  -21.5624   -3.4536   25.7733 F   0  0  0  0  0  0
  -29.9838  -13.5180   20.3624 N   0  0  0  0  0  0
  -26.2935  -12.9379   20.3232 N   0  0  0  0  0  0
  -25.9315  -11.6534   20.5724 N   0  0  0  0  0  0
  -22.0440  -12.8234   22.0436 N   0  0  0  0  0  0
  -25.4196  -15.1919   20.4210 N   0  0  0  0  0  0
  -31.8198  -14.8326   20.2577 O   0  0  0  0  0  0
  -21.6629   -6.8905   21.4257 O   0  0  0  0  0  0
  -22.3539  -14.5523   20.6705 O   0  0  0  0  0  0
  -24.6326  -31.8576   23.1954 C   0  0  0  0  0  0
  -25.9157  -32.4780   23.8294 C   0  0  1  0  0  0
  -27.2077  -27.2497   20.1192 C   0  0  0  0  0  0
  -25.5947  -33.8574   24.2236 N   0  0  0  0  0  0
  -23.4294  -30.4820   21.5414 C   0  0  2  0  0  0
  -24.8727  -28.9319   20.1123 C   0  0  0  0  0  0
  -22.7516  -29.4603   22.4883 C   0  0  0  0  0  0
  -18.0304  -28.1401   22.8515 C   0  0  0  0  0  0
  -24.1490  -36.7276   23.2635 C   0  0  0  0  0  0
  -25.9793  -30.7684   21.3763 C   0  0  0  0  0  0
  -26.0502  -29.3901   20.7169 C   0  0  0  0  0  0
  -27.2221  -28.5633   20.7086 C   0  0  0  0  0  0
  -26.0000  -26.8667   19.4892 C   0  0  0  0  0  0
  -24.8541  -27.6798   19.4890 C   0  0  0  0  0  0
  -23.6485  -29.8224   20.1562 C   0  0  0  0  0  0
  -25.4124  -36.3090   24.0326 C   0  0  1  0  0  0
  -20.5915  -28.3707   23.1280 C   0  0  2  0  0  0
  -20.6780  -26.9422   22.5411 C   0  0  0  0  0  0
  -19.5738  -26.6394   21.5231 C   0  0  0  0  0  0
  -18.1934  -26.7956   22.1653 C   0  0  0  0  0  0
  -19.1566  -28.8862   23.2895 C   0  0  0  0  0  0
  -18.9481  -30.1455   23.8920 C   0  0  0  0  0  0
  -17.6482  -30.6597   24.0572 C   0  0  0  0  0  0
  -25.9062  -34.9459   23.5080 C   0  0  0  0  0  0
  -16.5367  -29.9103   23.6334 C   0  0  0  0  0  0
  -16.7294  -28.6513   23.0372 C   0  0  0  0  0  0
  -26.4500  -31.6622   25.0688 C   0  0  0  0  0  0
  -25.3674  -31.3811   26.1368 C   0  0  0  0  0  0
  -27.0330  -30.3036   24.6154 C   0  0  0  0  0  0
  -27.6040  -32.4355   25.7478 C   0  0  0  0  0  0
  -27.5590  -37.1791   24.8476 C   0  0  0  0  0  0
  -21.4216  -29.3069   22.3681 N   0  0  0  0  0  0
  -26.4313  -37.3782   23.9416 N   0  0  0  0  0  0
  -24.6997  -31.0527   22.0940 N   0  0  0  0  0  0
  -23.4234  -28.8148   23.2957 O   0  0  0  0  0  0
  -28.2938  -26.3375   20.1519 O   0  0  0  0  0  0
  -26.5624  -34.8955   22.4644 O   0  0  0  0  0  0
  -23.5465  -32.1390   23.7244 O   0  0  0  0  0  0
  -29.6567  -18.4867   20.3310 C   0  0  0  0  0  0
  -30.5123  -17.3096   22.2768 C   0  0  0  0  0  0
  -30.3246  -19.7762   22.3052 C   0  0  0  0  0  0
  -30.0210  -17.2251   20.9638 C   0  0  0  0  0  0
  -29.7799  -19.7937   20.9776 C   0  0  0  0  0  0
  -30.6554  -18.5463   22.9314 C   0  0  0  0  0  0
  -30.6252  -21.0275   23.0858 C   0  0  0  0  0  0
  -28.7794  -22.2007   20.6516 C   0  0  0  0  0  0
  -29.1238  -23.6898   20.1589 C   0  0  0  0  0  0
  -27.9953  -24.8535   20.1850 C   0  0  0  0  0  0
  -31.8865  -21.4453   23.0611 N   0  0  0  0  0  0
  -29.5305  -21.0913   20.2770 N   0  0  0  0  0  0
  -29.8034  -15.8665   20.4225 N   0  0  0  0  0  0
  -29.7612  -21.6178   23.7325 O   0  0  0  0  0  0
  -27.7937  -22.0513   21.3761 O   0  0  0  0  0  0
  -31.1387  -18.5353   24.1993 F   0  0  0  0  0  0
  -31.4762  -12.6278   19.1177 H   0  0  0  0  0  0
  -30.4323  -11.4904   19.9317 H   0  0  0  0  0  0
  -29.7886  -11.7024   17.5115 H   0  0  0  0  0  0
  -29.6305  -13.4339   17.6804 H   0  0  0  0  0  0
  -27.8847  -11.2753   18.8977 H   0  0  0  0  0  0
  -27.3747  -12.5173   17.7858 H   0  0  0  0  0  0
  -27.6249  -14.2487   19.4467 H   0  0  0  0  0  0
  -28.7313  -12.1714   21.4043 H   0  0  0  0  0  0
  -28.4312  -13.8568   21.7635 H   0  0  0  0  0  0
  -25.2776   -9.5672   22.4761 H   0  0  0  0  0  0
  -24.0019   -7.4624   22.7437 H   0  0  0  0  0  0
  -21.0874   -8.8818   19.8933 H   0  0  0  0  0  0
  -22.3758  -10.9692   19.6173 H   0  0  0  0  0  0
  -21.1988   -7.6159   23.9749 H   0  0  0  0  0  0
  -21.1464   -6.0515   25.9087 H   0  0  0  0  0  0
  -22.0600   -2.7634   23.2838 H   0  0  0  0  0  0
  -22.4041  -11.9939   22.4922 H   0  0  0  0  0  0
  -21.1026  -13.1216   22.2507 H   0  0  0  0  0  0
  -24.6546  -15.8418   20.5636 H   0  0  0  0  0  0
  -26.2681  -15.6492   20.1137 H   0  0  0  0  0  0
  -26.7224  -32.5436   23.1022 H   0  0  0  0  0  0
  -25.0112  -33.9728   25.0397 H   0  0  0  0  0  0
  -22.7267  -31.3042   21.3941 H   0  0  0  0  0  0
  -23.3780  -35.9583   23.3312 H   0  0  0  0  0  0
  -24.3574  -36.8875   22.2050 H   0  0  0  0  0  0
  -23.7243  -37.6469   23.6647 H   0  0  0  0  0  0
  -26.1150  -31.5300   20.6080 H   0  0  0  0  0  0
  -26.8600  -30.8176   22.0050 H   0  0  0  0  0  0
  -28.1256  -28.9100   21.1927 H   0  0  0  0  0  0
  -25.8896  -25.9216   18.9836 H   0  0  0  0  0  0
  -23.9540  -27.3257   19.0092 H   0  0  0  0  0  0
  -23.7815  -30.5980   19.4031 H   0  0  0  0  0  0
  -22.7673  -29.2583   19.8452 H   0  0  0  0  0  0
  -25.1317  -36.1906   25.0820 H   0  0  0  0  0  0
  -21.0024  -28.3269   24.1381 H   0  0  0  0  0  0
  -20.5688  -26.2311   23.3609 H   0  0  0  0  0  0
  -21.6655  -26.7434   22.1192 H   0  0  0  0  0  0
  -19.6900  -25.6297   21.1258 H   0  0  0  0  0  0
  -19.6689  -27.3203   20.6755 H   0  0  0  0  0  0
  -17.4201  -26.6729   21.4046 H   0  0  0  0  0  0
  -18.0321  -26.0089   22.9028 H   0  0  0  0  0  0
  -19.7945  -30.7273   24.2327 H   0  0  0  0  0  0
  -17.5026  -31.6295   24.5153 H   0  0  0  0  0  0
  -15.5370  -30.3016   23.7628 H   0  0  0  0  0  0
  -15.8694  -28.0820   22.7101 H   0  0  0  0  0  0
  -24.5848  -30.7184   25.7665 H   0  0  0  0  0  0
  -24.8867  -32.3003   26.4703 H   0  0  0  0  0  0
  -25.7922  -30.9012   27.0190 H   0  0  0  0  0  0
  -26.2898  -29.6801   24.1156 H   0  0  0  0  0  0
  -27.4014  -29.7276   25.4657 H   0  0  0  0  0  0
  -27.8785  -30.4333   23.9394 H   0  0  0  0  0  0
  -27.2643  -33.3670   26.2014 H   0  0  0  0  0  0
  -28.3874  -32.6893   25.0329 H   0  0  0  0  0  0
  -28.0668  -31.8494   26.5422 H   0  0  0  0  0  0
  -28.2602  -38.0083   24.7521 H   0  0  0  0  0  0
  -28.1084  -36.2623   24.6304 H   0  0  0  0  0  0
  -27.2297  -37.1436   25.8868 H   0  0  0  0  0  0
  -20.9381  -29.8823   21.6917 H   0  0  0  0  0  0
  -26.0183  -38.2850   24.1401 H   0  0  0  0  0  0
  -29.2802  -18.4534   19.3190 H   0  0  0  0  0  0
  -30.7694  -16.4117   22.8195 H   0  0  0  0  0  0
  -29.5379  -23.6214   19.1522 H   0  0  0  0  0  0
  -29.9461  -24.0136   20.7948 H   0  0  0  0  0  0
  -27.3836  -24.5974   19.3239 H   0  0  0  0  0  0
  -27.3586  -24.6877   21.0546 H   0  0  0  0  0  0
  -32.5839  -20.9394   22.5355 H   0  0  0  0  0  0
  -32.1610  -22.2488   23.6071 H   0  0  0  0  0  0
  -30.1212  -21.2535   19.4714 H   0  0  0  0  0  0
  -28.8550  -15.6755   20.1404 H   0  0  0  0  0  0
  1 25  1  0  0  0
  1 30  2  0  0  0
  1 83  1  0  0  0
  2  3  1  0  0  0
  2 25  1  0  0  0
  2 87  1  0  0  0
  2 88  1  0  0  0
  3  4  1  0  0  0
  3 89  1  0  0  0
  3 90  1  0  0  0
  4  5  1  0  0  0
  4 91  1  0  0  0
  4 92  1  0  0  0
  5  6  1  0  0  0
  5 26  1  0  0  0
  5 93  1  0  0  0
  6 25  1  0  0  0
  6 94  1  0  0  0
  6 95  1  0  0  0
  7  8  2  0  0  0
  7 26  1  0  0  0
  7 29  1  0  0  0
  8  9  1  0  0  0
  8 22  1  0  0  0
  9 10  1  0  0  0
  9 27  2  0  0  0
 10 11  2  0  0  0
 10 15  1  0  0  0
 11 12  1  0  0  0
 11 96  1  0  0  0
 12 13  2  0  0  0
 12 97  1  0  0  0
 13 14  1  0  0  0
 13 31  1  0  0  0
 14 15  2  0  0  0
 14 98  1  0  0  0
 15 99  1  0  0  0
 16 17  2  0  0  0
 16 21  1  0  0  0
 16 31  1  0  0  0
 17 18  1  0  0  0
 17100  1  0  0  0
 18 19  2  0  0  0
 18101  1  0  0  0
 19 20  1  0  0  0
 19 24  1  0  0  0
 20 21  2  0  0  0
 20102  1  0  0  0
 21 23  1  0  0  0
 22 28  1  0  0  0
 22 32  2  0  0  0
 26 27  1  0  0  0
 28103  1  0  0  0
 28104  1  0  0  0
 29105  1  0  0  0
 29106  1  0  0  0
 33 34  1  0  0  0
 33 66  1  0  0  0
 33 70  2  0  0  0
 34 36  1  0  0  0
 34 59  1  0  0  0
 34107  1  0  0  0
 35 44  2  0  0  0
 35 45  1  0  0  0
 35 68  1  0  0  0
 36 56  1  0  0  0
 36108  1  0  0  0
 37 39  1  0  0  0
 37 47  1  0  0  0
 37 66  1  0  0  0
 37109  1  0  0  0
 38 43  2  0  0  0
 38 46  1  0  0  0
 38 47  1  0  0  0
 39 64  1  0  0  0
 39 67  2  0  0  0
 40 52  1  0  0  0
 40 53  2  0  0  0
 40 58  1  0  0  0
 41110  1  0  0  0
 41111  1  0  0  0
 41112  1  0  0  0
 41 48  1  0  0  0
 42 43  1  0  0  0
 42 66  1  0  0  0
 42113  1  0  0  0
 42114  1  0  0  0
 43 44  1  0  0  0
 44115  1  0  0  0
 45 46  2  0  0  0
 45116  1  0  0  0
 46117  1  0  0  0
 47118  1  0  0  0
 47119  1  0  0  0
 48 56  1  0  0  0
 48 65  1  0  0  0
 48120  1  0  0  0
 49 50  1  0  0  0
 49 53  1  0  0  0
 49 64  1  0  0  0
 49121  1  0  0  0
 50 51  1  0  0  0
 50122  1  0  0  0
 50123  1  0  0  0
 51 52  1  0  0  0
 51124  1  0  0  0
 51125  1  0  0  0
 52126  1  0  0  0
 52127  1  0  0  0
 53 54  1  0  0  0
 54 55  2  0  0  0
 54128  1  0  0  0
 55 57  1  0  0  0
 55129  1  0  0  0
 56 69  2  0  0  0
 57 58  2  0  0  0
 57130  1  0  0  0
 58131  1  0  0  0
 59 60  1  0  0  0
 59 61  1  0  0  0
 59 62  1  0  0  0
 60132  1  0  0  0
 60133  1  0  0  0
 60134  1  0  0  0
 61135  1  0  0  0
 61136  1  0  0  0
 61137  1  0  0  0
 62138  1  0  0  0
 62139  1  0  0  0
 62140  1  0  0  0
 63 65  1  0  0  0
 63141  1  0  0  0
 63142  1  0  0  0
 63143  1  0  0  0
 64144  1  0  0  0
 65145  1  0  0  0
 68 80  1  0  0  0
 71 74  2  0  0  0
 71 75  1  0  0  0
 71146  1  0  0  0
 72 74  1  0  0  0
 72 76  2  0  0  0
 72147  1  0  0  0
 73 75  2  0  0  0
 73 76  1  0  0  0
 73 77  1  0  0  0
 74 83  1  0  0  0
 75 82  1  0  0  0
 76 86  1  0  0  0
 77 81  1  0  0  0
 77 84  2  0  0  0
 78 79  1  0  0  0
 78 82  1  0  0  0
 78 85  2  0  0  0
 79 80  1  0  0  0
 79148  1  0  0  0
 79149  1  0  0  0
 80150  1  0  0  0
 80151  1  0  0  0
 81152  1  0  0  0
 81153  1  0  0  0
 82154  1  0  0  0
 83155  1  0  0  0
M  ISO  4   1 100  68 101  80 101  83 100
M  END
> <chiral flag>
0

> <version>
0

> <s_m_source_file>
/data/baiqing/PycharmProjects/Reinvent-master-3.2/result/LINK_invent/BTK/process_docking_weight1_custom_product_contain_oxygen_bond_distance_aromatic_linkinvent_7_9_3/rearranged_h_0071.sdf

> <i_m_source_file_index>
65

> <r_mmod_Potential_Energy-OPLS-2005>
192.596832275391

> <r_mmod_Stretch_Energy-OPLS-2005>
127.510429382324

> <r_mmod_Bend_Energy-OPLS-2005>
160.050231933594

> <r_mmod_Torsional_Energy-OPLS-2005>
317.178649902344

> <r_mmod_Improper_Torsional_Energy-OPLS-2005>
10.7686891555786

> <r_mmod_Van_der_Waal_Energy-OPLS-2005>
141.635009765625

> <r_mmod_Electrostatic_Energy-OPLS-2005>
-369.270721435547

> <r_mmod_Solvation_Energy-OPLS-2005>
-287.63037109375

> <b_mmod_Minimization_Converged-OPLS-2005>
0

> <r_mmod_RMS_Derivative-OPLS-2005>
3.57038426399231

$$$$
65
                    3D
 Structure written by MMmdl.
163172  0  0  1  0            999 V2000
  -30.6422  -14.7169   20.3430 C   0  0  0  0  0  0
  -30.4321  -12.4088   19.4516 C   0  0  0  0  0  0
  -29.4952  -12.3980   18.2234 C   0  0  0  0  0  0
  -28.0195  -12.2866   18.6519 C   0  0  0  0  0  0
  -27.6362  -13.2212   19.8319 C   0  0  2  0  0  0
  -28.6973  -13.2039   20.9522 C   0  0  0  0  0  0
  -25.2489  -13.8141   20.5801 C   0  0  0  0  0  0
  -24.1782  -13.0382   20.9260 C   0  0  0  0  0  0
  -24.6386  -11.6879   20.8782 C   0  0  0  0  0  0
  -23.9068  -10.4262   21.0417 C   0  0  0  0  0  0
  -24.3617   -9.4180   21.9193 C   0  0  0  0  0  0
  -23.6287   -8.2222   22.0758 C   0  0  0  0  0  0
  -22.4268   -8.0270   21.3548 C   0  0  0  0  0  0
  -21.9910   -9.0241   20.4647 C   0  0  0  0  0  0
  -22.7246  -10.2115   20.3058 C   0  0  0  0  0  0
  -21.6845   -6.0729   22.5281 C   0  0  0  0  0  0
  -21.4009   -6.5634   23.8213 C   0  0  0  0  0  0
  -21.3660   -5.6789   24.9177 C   0  0  0  0  0  0
  -21.6045   -4.3052   24.7228 C   0  0  0  0  0  0
  -21.8822   -3.8142   23.4349 C   0  0  0  0  0  0
  -21.9192   -4.6958   22.3405 C   0  0  0  0  0  0
  -22.7799  -13.5170   21.1888 C   0  0  0  0  0  0
  -22.1661   -4.2145   21.0982 F   0  0  0  0  0  0
  -21.5629   -3.4536   25.7741 F   0  0  0  0  0  0
  -29.9903  -13.5086   20.3289 N   0  0  0  0  0  0
  -26.2929  -12.9374   20.3301 N   0  0  0  0  0  0
  -25.9316  -11.6518   20.5803 N   0  0  0  0  0  0
  -22.0438  -12.8173   22.0446 N   0  0  0  0  0  0
  -25.3989  -15.1865   20.4373 N   0  0  0  0  0  0
  -31.8755  -14.7475   20.3199 O   0  0  0  0  0  0
  -21.6630   -6.8871   21.4244 O   0  0  0  0  0  0
  -22.3484  -14.5470   20.6718 O   0  0  0  0  0  0
  -24.6251  -31.8588   23.1994 C   0  0  0  0  0  0
  -25.9096  -32.4778   23.8331 C   0  0  1  0  0  0
  -27.2339  -27.3136   20.1144 C   0  0  0  0  0  0
  -25.5908  -33.8577   24.2260 N   0  0  0  0  0  0
  -23.4194  -30.4799   21.5420 C   0  0  2  0  0  0
  -24.8670  -28.9300   20.1099 C   0  0  0  0  0  0
  -22.7468  -29.4611   22.4928 C   0  0  0  0  0  0
  -18.0283  -28.1391   22.8487 C   0  0  0  0  0  0
  -24.1486  -36.7295   23.2641 C   0  0  0  0  0  0
  -25.9587  -30.7880   21.3687 C   0  0  0  0  0  0
  -26.0325  -29.4120   20.7157 C   0  0  0  0  0  0
  -27.2128  -28.6141   20.7095 C   0  0  0  0  0  0
  -26.0398  -26.8771   19.4949 C   0  0  0  0  0  0
  -24.8730  -27.6689   19.4922 C   0  0  0  0  0  0
  -23.6338  -29.8099   20.1582 C   0  0  0  0  0  0
  -25.4112  -36.3085   24.0327 C   0  0  1  0  0  0
  -20.5881  -28.3685   23.1286 C   0  0  2  0  0  0
  -20.6767  -26.9410   22.5412 C   0  0  0  0  0  0
  -19.5744  -26.6388   21.5213 C   0  0  0  0  0  0
  -18.1925  -26.7933   22.1626 C   0  0  0  0  0  0
  -19.1537  -28.8855   23.2884 C   0  0  0  0  0  0
  -18.9460  -30.1459   23.8901 C   0  0  0  0  0  0
  -17.6460  -30.6591   24.0563 C   0  0  0  0  0  0
  -25.9048  -34.9453   23.5097 C   0  0  0  0  0  0
  -16.5349  -29.9092   23.6330 C   0  0  0  0  0  0
  -16.7270  -28.6509   23.0351 C   0  0  0  0  0  0
  -26.4482  -31.6589   25.0702 C   0  0  0  0  0  0
  -25.3714  -31.3720   26.1427 C   0  0  0  0  0  0
  -27.0318  -30.3016   24.6144 C   0  0  0  0  0  0
  -27.6047  -32.4318   25.7474 C   0  0  0  0  0  0
  -27.5575  -37.1804   24.8468 C   0  0  0  0  0  0
  -21.4180  -29.3039   22.3676 N   0  0  0  0  0  0
  -26.4289  -37.3779   23.9407 N   0  0  0  0  0  0
  -24.6870  -31.0593   22.0941 N   0  0  0  0  0  0
  -23.4196  -28.8156   23.3006 O   0  0  0  0  0  0
  -28.3899  -26.5174   20.1876 O   0  0  0  0  0  0
  -26.5630  -34.8923   22.4674 O   0  0  0  0  0  0
  -23.5415  -32.1377   23.7326 O   0  0  0  0  0  0
  -30.2928  -19.4368   20.7828 C   0  0  0  0  0  0
  -30.5942  -18.0392   20.6422 C   0  0  0  0  0  0
  -28.0588  -19.0263   20.0076 C   0  0  0  0  0  0
  -29.0097  -19.9732   20.4713 C   0  0  0  0  0  0
  -29.6425  -17.1006   20.1471 C   0  0  0  0  0  0
  -28.3705  -17.6511   19.8164 C   0  0  0  0  0  0
  -27.5438  -21.8416   21.2599 C   0  0  0  0  0  0
  -27.3936  -23.3679   21.2019 C   0  0  0  0  0  0
  -29.3469  -22.5751   20.0364 C   0  0  0  0  0  0
  -28.7253  -23.9177   20.6411 C   0  0  1  0  0  0
  -30.2528  -15.7685   18.2293 C   0  0  0  0  0  0
  -28.5136  -25.1460   19.6317 C   0  0  0  0  0  0
  -28.6420  -21.3962   20.6161 N   0  0  0  0  0  0
  -27.4130  -16.8532   19.1978 N   0  0  0  0  0  0
  -29.9860  -15.7445   19.6820 N   0  0  0  0  0  0
  -29.6120  -24.4068   21.7317 N   0  3  0  0  0  0
  -26.7254  -21.1399   21.8621 O   0  0  0  0  0  0
  -31.4687  -12.5298   19.1312 H   0  0  0  0  0  0
  -30.3861  -11.4583   19.9850 H   0  0  0  0  0  0
  -29.7505  -11.5584   17.5756 H   0  0  0  0  0  0
  -29.6366  -13.2829   17.6106 H   0  0  0  0  0  0
  -27.8565  -11.2479   18.9420 H   0  0  0  0  0  0
  -27.3634  -12.4655   17.7991 H   0  0  0  0  0  0
  -27.6133  -14.2259   19.4179 H   0  0  0  0  0  0
  -28.7292  -12.2355   21.4533 H   0  0  0  0  0  0
  -28.4572  -13.9494   21.7124 H   0  0  0  0  0  0
  -25.2761   -9.5651   22.4770 H   0  0  0  0  0  0
  -23.9993   -7.4609   22.7474 H   0  0  0  0  0  0
  -21.0843   -8.8766   19.8945 H   0  0  0  0  0  0
  -22.3717  -10.9659   19.6166 H   0  0  0  0  0  0
  -21.2000   -7.6141   23.9717 H   0  0  0  0  0  0
  -21.1478   -6.0517   25.9080 H   0  0  0  0  0  0
  -22.0601   -2.7603   23.2850 H   0  0  0  0  0  0
  -22.4057  -11.9848   22.4858 H   0  0  0  0  0  0
  -21.1049  -13.1192   22.2630 H   0  0  0  0  0  0
  -24.6178  -15.8190   20.5616 H   0  0  0  0  0  0
  -26.2364  -15.6752   20.1031 H   0  0  0  0  0  0
  -26.7161  -32.5443   23.1078 H   0  0  0  0  0  0
  -25.0040  -33.9721   25.0393 H   0  0  0  0  0  0
  -22.7136  -31.3002   21.3971 H   0  0  0  0  0  0
  -23.3745  -35.9630   23.3309 H   0  0  0  0  0  0
  -24.3572  -36.8910   22.2055 H   0  0  0  0  0  0
  -23.7240  -37.6498   23.6659 H   0  0  0  0  0  0
  -26.0852  -31.5469   20.5950 H   0  0  0  0  0  0
  -26.8415  -30.8439   21.9937 H   0  0  0  0  0  0
  -28.1079  -28.9841   21.1896 H   0  0  0  0  0  0
  -25.9597  -25.9131   19.0198 H   0  0  0  0  0  0
  -23.9771  -27.2924   19.0177 H   0  0  0  0  0  0
  -23.7506  -30.5836   19.3987 H   0  0  0  0  0  0
  -22.7542  -29.2370   19.8589 H   0  0  0  0  0  0
  -25.1295  -36.1936   25.0819 H   0  0  0  0  0  0
  -20.9979  -28.3262   24.1404 H   0  0  0  0  0  0
  -20.5664  -26.2298   23.3612 H   0  0  0  0  0  0
  -21.6636  -26.7436   22.1208 H   0  0  0  0  0  0
  -19.6902  -25.6301   21.1240 H   0  0  0  0  0  0
  -19.6681  -27.3202   20.6746 H   0  0  0  0  0  0
  -17.4192  -26.6677   21.4030 H   0  0  0  0  0  0
  -18.0324  -26.0080   22.9028 H   0  0  0  0  0  0
  -19.7935  -30.7273   24.2272 H   0  0  0  0  0  0
  -17.5014  -31.6273   24.5166 H   0  0  0  0  0  0
  -15.5352  -30.2997   23.7653 H   0  0  0  0  0  0
  -15.8667  -28.0832   22.7066 H   0  0  0  0  0  0
  -24.5912  -30.7044   25.7749 H   0  0  0  0  0  0
  -24.8877  -32.2883   26.4823 H   0  0  0  0  0  0
  -25.8040  -30.8922   27.0216 H   0  0  0  0  0  0
  -26.2880  -29.6773   24.1183 H   0  0  0  0  0  0
  -27.4039  -29.7267   25.4634 H   0  0  0  0  0  0
  -27.8737  -30.4306   23.9340 H   0  0  0  0  0  0
  -27.2668  -33.3632   26.2030 H   0  0  0  0  0  0
  -28.3869  -32.6853   25.0305 H   0  0  0  0  0  0
  -28.0697  -31.8451   26.5407 H   0  0  0  0  0  0
  -28.2603  -38.0092   24.7508 H   0  0  0  0  0  0
  -28.1062  -36.2626   24.6305 H   0  0  0  0  0  0
  -27.2295  -37.1466   25.8872 H   0  0  0  0  0  0
  -20.9356  -29.8759   21.6885 H   0  0  0  0  0  0
  -26.0171  -38.2855   24.1406 H   0  0  0  0  0  0
  -31.0689  -20.1013   21.1362 H   0  0  0  0  0  0
  -31.6007  -17.7049   20.8501 H   0  0  0  0  0  0
  -27.0726  -19.3772   19.7384 H   0  0  0  0  0  0
  -27.1382  -23.7767   22.1800 H   0  0  0  0  0  0
  -26.5633  -23.5885   20.5306 H   0  0  0  0  0  0
  -30.4239  -22.4987   20.1901 H   0  0  0  0  0  0
  -29.1888  -22.5471   18.9569 H   0  0  0  0  0  0
  -30.5864  -16.7547   17.9014 H   0  0  0  0  0  0
  -29.3447  -15.5349   17.6749 H   0  0  0  0  0  0
  -31.0270  -15.0713   17.9008 H   0  0  0  0  0  0
  -27.7472  -24.9020   18.9006 H   0  0  0  0  0  0
  -29.4189  -25.1998   19.0258 H   0  0  0  0  0  0
  -26.7019  -17.3468   18.6686 H   0  0  0  0  0  0
  -27.8033  -16.0875   18.6619 H   0  0  0  0  0  0
  -29.7760  -23.7158   22.4437 H   0  0  0  0  0  0
  -29.2120  -25.2202   22.1715 H   0  0  0  0  0  0
  -30.5078  -24.6907   21.3692 H   0  0  0  0  0  0
  1 25  1  0  0  0
  1 30  2  0  0  0
  1 85  1  0  0  0
  2  3  1  0  0  0
  2 25  1  0  0  0
  2 88  1  0  0  0
  2 89  1  0  0  0
  3  4  1  0  0  0
  3 90  1  0  0  0
  3 91  1  0  0  0
  4  5  1  0  0  0
  4 92  1  0  0  0
  4 93  1  0  0  0
  5  6  1  0  0  0
  5 26  1  0  0  0
  5 94  1  0  0  0
  6 25  1  0  0  0
  6 95  1  0  0  0
  6 96  1  0  0  0
  7  8  2  0  0  0
  7 26  1  0  0  0
  7 29  1  0  0  0
  8  9  1  0  0  0
  8 22  1  0  0  0
  9 10  1  0  0  0
  9 27  2  0  0  0
 10 11  2  0  0  0
 10 15  1  0  0  0
 11 12  1  0  0  0
 11 97  1  0  0  0
 12 13  2  0  0  0
 12 98  1  0  0  0
 13 14  1  0  0  0
 13 31  1  0  0  0
 14 15  2  0  0  0
 14 99  1  0  0  0
 15100  1  0  0  0
 16 17  2  0  0  0
 16 21  1  0  0  0
 16 31  1  0  0  0
 17 18  1  0  0  0
 17101  1  0  0  0
 18 19  2  0  0  0
 18102  1  0  0  0
 19 20  1  0  0  0
 19 24  1  0  0  0
 20 21  2  0  0  0
 20103  1  0  0  0
 21 23  1  0  0  0
 22 28  1  0  0  0
 22 32  2  0  0  0
 26 27  1  0  0  0
 28104  1  0  0  0
 28105  1  0  0  0
 29106  1  0  0  0
 29107  1  0  0  0
 33 34  1  0  0  0
 33 66  1  0  0  0
 33 70  2  0  0  0
 34 36  1  0  0  0
 34 59  1  0  0  0
 34108  1  0  0  0
 35 44  2  0  0  0
 35 45  1  0  0  0
 35 68  1  0  0  0
 36 56  1  0  0  0
 36109  1  0  0  0
 37 39  1  0  0  0
 37 47  1  0  0  0
 37 66  1  0  0  0
 37110  1  0  0  0
 38 43  2  0  0  0
 38 46  1  0  0  0
 38 47  1  0  0  0
 39 64  1  0  0  0
 39 67  2  0  0  0
 40 52  1  0  0  0
 40 53  2  0  0  0
 40 58  1  0  0  0
 41111  1  0  0  0
 41112  1  0  0  0
 41113  1  0  0  0
 41 48  1  0  0  0
 42 43  1  0  0  0
 42 66  1  0  0  0
 42114  1  0  0  0
 42115  1  0  0  0
 43 44  1  0  0  0
 44116  1  0  0  0
 45 46  2  0  0  0
 45117  1  0  0  0
 46118  1  0  0  0
 47119  1  0  0  0
 47120  1  0  0  0
 48 56  1  0  0  0
 48 65  1  0  0  0
 48121  1  0  0  0
 49 50  1  0  0  0
 49 53  1  0  0  0
 49 64  1  0  0  0
 49122  1  0  0  0
 50 51  1  0  0  0
 50123  1  0  0  0
 50124  1  0  0  0
 51 52  1  0  0  0
 51125  1  0  0  0
 51126  1  0  0  0
 52127  1  0  0  0
 52128  1  0  0  0
 53 54  1  0  0  0
 54 55  2  0  0  0
 54129  1  0  0  0
 55 57  1  0  0  0
 55130  1  0  0  0
 56 69  2  0  0  0
 57 58  2  0  0  0
 57131  1  0  0  0
 58132  1  0  0  0
 59 60  1  0  0  0
 59 61  1  0  0  0
 59 62  1  0  0  0
 60133  1  0  0  0
 60134  1  0  0  0
 60135  1  0  0  0
 61136  1  0  0  0
 61137  1  0  0  0
 61138  1  0  0  0
 62139  1  0  0  0
 62140  1  0  0  0
 62141  1  0  0  0
 63 65  1  0  0  0
 63142  1  0  0  0
 63143  1  0  0  0
 63144  1  0  0  0
 64145  1  0  0  0
 65146  1  0  0  0
 68 82  1  0  0  0
 71 72  2  0  0  0
 71 74  1  0  0  0
 71147  1  0  0  0
 72 75  1  0  0  0
 72148  1  0  0  0
 73 74  2  0  0  0
 73 76  1  0  0  0
 73149  1  0  0  0
 74 83  1  0  0  0
 75 76  2  0  0  0
 75 85  1  0  0  0
 76 84  1  0  0  0
 77 78  1  0  0  0
 77 83  1  0  0  0
 77 87  2  0  0  0
 78 80  1  0  0  0
 78150  1  0  0  0
 78151  1  0  0  0
 79 80  1  0  0  0
 79 83  1  0  0  0
 79152  1  0  0  0
 79153  1  0  0  0
 80 82  1  0  0  0
 80 86  1  0  0  0
 81 85  1  0  0  0
 81154  1  0  0  0
 81155  1  0  0  0
 81156  1  0  0  0
 82157  1  0  0  0
 82158  1  0  0  0
 84159  1  0  0  0
 84160  1  0  0  0
 86161  1  0  0  0
 86162  1  0  0  0
 86163  1  0  0  0
M  CHG  1  86   1
M  ISO  4   1 100  68 101  82 101  85 100
M  END
> <chiral flag>
0

> <version>
0

> <s_m_source_file>
/data/baiqing/PycharmProjects/Reinvent-master-3.2/result/LINK_invent/BTK/process_docking_weight1_custom_product_contain_oxygen_bond_distance_aromatic_linkinvent_7_9_3/rearranged_h_0071.sdf

> <i_m_source_file_index>
66

> <r_mmod_Potential_Energy-OPLS-2005>
192.521408081055

> <r_mmod_Stretch_Energy-OPLS-2005>
91.5961990356445

> <r_mmod_Bend_Energy-OPLS-2005>
188.394470214844

> <r_mmod_Torsional_Energy-OPLS-2005>
440.039764404297

> <r_mmod_Improper_Torsional_Energy-OPLS-2005>
36.8935012817383

> <r_mmod_Van_der_Waal_Energy-OPLS-2005>
144.594009399414

> <r_mmod_Electrostatic_Energy-OPLS-2005>
-289.710540771484

> <r_mmod_Solvation_Energy-OPLS-2005>
-500.464752197266

> <b_mmod_Minimization_Converged-OPLS-2005>
0

> <r_mmod_RMS_Derivative-OPLS-2005>
0.811645805835724

$$$$
66
                    3D
 Structure written by MMmdl.
161170  0  0  1  0            999 V2000
  -30.2021  -14.7524   19.8966 C   0  0  0  0  0  0
  -30.9910  -12.4774   19.5630 C   0  0  0  0  0  0
  -30.1640  -12.0460   18.3555 C   0  0  0  0  0  0
  -28.8283  -11.6149   19.0034 C   0  0  0  0  0  0
  -28.0730  -12.7352   19.9798 C   0  0  2  0  0  0
  -29.1637  -12.9219   21.1036 C   0  0  0  0  0  0
  -24.6781  -14.5195   20.5130 C   0  0  0  0  0  0
  -23.7945  -13.8452   21.3215 C   0  0  0  0  0  0
  -24.0780  -12.6126   21.0221 C   0  0  0  0  0  0
  -23.6935  -11.3919   21.4152 C   0  0  0  0  0  0
  -24.3825  -10.3144   22.7470 C   0  0  0  0  0  0
  -24.1920   -8.5404   22.5274 C   0  0  0  0  0  0
  -23.3510   -7.9003   21.1613 C   0  0  0  0  0  0
  -22.8214   -8.9252   19.9252 C   0  0  0  0  0  0
  -22.9553  -10.6187   20.0069 C   0  0  0  0  0  0
  -22.0141   -6.1332   22.4563 C   0  0  0  0  0  0
  -21.6225   -6.6395   23.7258 C   0  0  0  0  0  0
  -21.4228   -5.7634   24.8273 C   0  0  0  0  0  0
  -21.5882   -4.3708   24.6703 C   0  0  0  0  0  0
  -21.8517   -3.8558   23.3917 C   0  0  0  0  0  0
  -22.0253   -4.7274   22.2987 C   0  0  0  0  0  0
  -22.3661  -14.0545   21.4351 C   0  0  0  0  0  0
  -22.2363   -4.2011   21.0704 F   0  0  0  0  0  0
  -21.4960   -3.5294   25.7319 F   0  0  0  0  0  0
  -30.2528  -13.4815   20.3659 N   0  0  0  0  0  0
  -25.5291  -13.5958   19.8973 N   0  0  0  0  0  0
  -24.4025  -12.8051   19.7934 N   0  0  0  0  0  0
  -21.6810  -13.2174   22.2171 N   0  0  0  0  0  0
  -24.7892  -15.8324   20.1705 N   0  0  0  0  0  0
  -31.3244  -15.2784   19.8512 O   0  0  0  0  0  0
  -22.3310   -6.9030   21.3245 O   0  0  0  0  0  0
  -21.8555  -14.8907   20.7176 O   0  0  0  0  0  0
  -24.7237  -31.7437   23.1183 C   0  0  0  0  0  0
  -25.9636  -32.4148   23.7847 C   0  0  1  0  0  0
  -26.9002  -26.0688   20.3997 C   0  0  0  0  0  0
  -25.6040  -33.8016   24.1645 N   0  0  0  0  0  0
  -23.5560  -30.3430   21.4852 C   0  0  2  0  0  0
  -24.9630  -28.5733   20.1237 C   0  0  0  0  0  0
  -22.7875  -29.4045   22.4571 C   0  0  0  0  0  0
  -18.0348  -28.1432   22.8447 C   0  0  0  0  0  0
  -24.1517  -36.7020   23.2654 C   0  0  0  0  0  0
  -26.1441  -30.2599   21.4829 C   0  0  0  0  0  0
  -26.1368  -28.7642   20.8560 C   0  0  0  0  0  0
  -27.0879  -27.5502   20.9483 C   0  0  0  0  0  0
  -25.7951  -26.2599   19.5177 C   0  0  0  0  0  0
  -24.8781  -27.3658   19.4096 C   0  0  0  0  0  0
  -23.8247  -29.6236   20.1263 C   0  0  0  0  0  0
  -25.4179  -36.2707   24.0235 C   0  0  1  0  0  0
  -20.5992  -28.3797   23.1075 C   0  0  2  0  0  0
  -20.6789  -26.9421   22.5420 C   0  0  0  0  0  0
  -19.5775  -26.6344   21.5229 C   0  0  0  0  0  0
  -18.1956  -26.7951   22.1618 C   0  0  0  0  0  0
  -19.1622  -28.8953   23.2734 C   0  0  0  0  0  0
  -18.9523  -30.1533   23.8792 C   0  0  0  0  0  0
  -17.6508  -30.6609   24.0549 C   0  0  0  0  0  0
  -25.9203  -34.9113   23.4812 C   0  0  0  0  0  0
  -16.5397  -29.9083   23.6366 C   0  0  0  0  0  0
  -16.7326  -28.6507   23.0380 C   0  0  0  0  0  0
  -26.4662  -31.6425   25.0685 C   0  0  0  0  0  0
  -25.3594  -31.3907   26.1204 C   0  0  0  0  0  0
  -27.0655  -30.2688   24.7024 C   0  0  0  0  0  0
  -27.6023  -32.4425   25.7484 C   0  0  0  0  0  0
  -27.5568  -37.1642   24.8442 C   0  0  0  0  0  0
  -21.4496  -29.2953   22.3320 N   0  0  0  0  0  0
  -26.4249  -37.3534   23.9419 N   0  0  0  0  0  0
  -24.8410  -30.8347   22.0756 N   0  0  0  0  0  0
  -23.4145  -28.7703   23.3084 O   0  0  0  0  0  0
  -27.5303  -24.5046   20.5949 O   0  0  0  0  0  0
  -26.5919  -34.8794   22.4483 O   0  0  0  0  0  0
  -23.6183  -32.0829   23.5830 O   0  0  0  0  0  0
  -26.6914  -13.1007   21.7291 C   0  0  0  0  0  0
  -26.9250  -13.4702   18.0843 C   0  0  0  0  0  0
  -26.2368  -11.4325   20.5505 C   0  0  0  0  0  0
  -27.2376  -14.9167   20.8868 C   0  0  0  0  0  0
  -27.4845  -14.8350   19.1928 C   0  0  0  0  0  0
  -26.3686  -11.8158   18.7149 C   0  0  0  0  0  0
  -27.4401  -18.3409   20.3972 C   0  0  0  0  0  0
  -26.8037  -17.7448   22.3125 C   0  0  0  0  0  0
  -27.1800  -20.2436   20.9274 C   0  0  1  0  0  0
  -27.0639  -19.4380   22.3325 C   0  0  1  0  0  0
  -26.0522  -20.1092   23.2801 C   0  0  0  0  0  0
  -27.1072  -22.5036   20.4919 C   0  0  0  0  0  0
  -24.9741   -9.7927   20.6989 C   0  0  0  0  0  0
  -27.2593  -16.8831   21.1285 N   0  0  0  0  0  0
  -28.9998  -15.2544   19.2223 N   0  0  0  0  0  0
  -27.8450  -18.2565   19.2346 O   0  0  0  0  0  0
  -26.0277  -10.8941   17.7803 F   0  0  0  0  0  0
  -22.6159   -9.7236   21.8606 F   0  0  0  0  0  0
  -25.1168   -9.3441   19.4268 F   0  0  0  0  0  0
  -26.0348   -9.0628   21.1607 F   0  0  0  0  0  0
  -31.9465  -12.8796   19.2217 H   0  0  0  0  0  0
  -31.2470  -11.6169   20.1837 H   0  0  0  0  0  0
  -30.6434  -11.2112   17.8406 H   0  0  0  0  0  0
  -30.0494  -12.8425   17.6174 H   0  0  0  0  0  0
  -29.0080  -10.7294   19.6159 H   0  0  0  0  0  0
  -28.4040  -11.1813   18.0976 H   0  0  0  0  0  0
  -28.6250  -13.0475   19.1863 H   0  0  0  0  0  0
  -29.4362  -11.9640   21.5501 H   0  0  0  0  0  0
  -29.0107  -13.5965   21.9473 H   0  0  0  0  0  0
  -24.9324  -10.7207   23.5836 H   0  0  0  0  0  0
  -24.4571   -7.8829   23.3440 H   0  0  0  0  0  0
  -22.2337   -8.5026   19.1234 H   0  0  0  0  0  0
  -22.5862  -11.2099   19.1791 H   0  0  0  0  0  0
  -21.5396   -7.7069   23.8680 H   0  0  0  0  0  0
  -21.1847   -6.1691   25.7996 H   0  0  0  0  0  0
  -21.9298   -2.7895   23.2445 H   0  0  0  0  0  0
  -22.1424  -12.4977   22.7534 H   0  0  0  0  0  0
  -20.6756  -13.3047   22.2789 H   0  0  0  0  0  0
  -24.0714  -16.5063   20.4004 H   0  0  0  0  0  0
  -25.3718  -16.1174   19.3948 H   0  0  0  0  0  0
  -26.7742  -32.4451   23.0556 H   0  0  0  0  0  0
  -24.9969  -33.8982   24.9651 H   0  0  0  0  0  0
  -22.9101  -31.1977   21.2727 H   0  0  0  0  0  0
  -23.3834  -35.9284   23.3139 H   0  0  0  0  0  0
  -24.3598  -36.8900   22.2110 H   0  0  0  0  0  0
  -23.7222  -37.6100   23.6898 H   0  0  0  0  0  0
  -26.4341  -30.9342   20.6755 H   0  0  0  0  0  0
  -26.9754  -30.3145   22.1699 H   0  0  0  0  0  0
  -27.9429  -27.6948   21.5939 H   0  0  0  0  0  0
  -25.5166  -25.3847   18.9490 H   0  0  0  0  0  0
  -24.0152  -27.2183   18.7716 H   0  0  0  0  0  0
  -24.0726  -30.3687   19.3704 H   0  0  0  0  0  0
  -22.9072  -29.1499   19.7734 H   0  0  0  0  0  0
  -25.1412  -36.1379   25.0721 H   0  0  0  0  0  0
  -21.0080  -28.3471   24.1201 H   0  0  0  0  0  0
  -20.5619  -26.2437   23.3717 H   0  0  0  0  0  0
  -21.6649  -26.7304   22.1260 H   0  0  0  0  0  0
  -19.6924  -25.6226   21.1332 H   0  0  0  0  0  0
  -19.6738  -27.3096   20.6716 H   0  0  0  0  0  0
  -17.4232  -26.6713   21.4013 H   0  0  0  0  0  0
  -18.0325  -26.0118   22.9035 H   0  0  0  0  0  0
  -19.8000  -30.7379   24.2112 H   0  0  0  0  0  0
  -17.5054  -31.6281   24.5163 H   0  0  0  0  0  0
  -15.5394  -30.2950   23.7740 H   0  0  0  0  0  0
  -15.8727  -28.0788   22.7147 H   0  0  0  0  0  0
  -24.5828  -30.7206   25.7498 H   0  0  0  0  0  0
  -24.8739  -32.3177   26.4256 H   0  0  0  0  0  0
  -25.7654  -30.9310   27.0221 H   0  0  0  0  0  0
  -26.3412  -29.6093   24.2234 H   0  0  0  0  0  0
  -27.4013  -29.7417   25.5965 H   0  0  0  0  0  0
  -27.9458  -30.3644   24.0666 H   0  0  0  0  0  0
  -27.2506  -33.3877   26.1628 H   0  0  0  0  0  0
  -28.4016  -32.6745   25.0432 H   0  0  0  0  0  0
  -28.0484  -31.8862   26.5735 H   0  0  0  0  0  0
  -28.2441  -38.0072   24.7606 H   0  0  0  0  0  0
  -28.1213  -36.2596   24.6126 H   0  0  0  0  0  0
  -27.2303  -37.1080   25.8841 H   0  0  0  0  0  0
  -20.9872  -29.8561   21.6297 H   0  0  0  0  0  0
  -26.0021  -38.2541   24.1500 H   0  0  0  0  0  0
  -26.4129  -13.0764   22.7723 H   0  0  0  0  0  0
  -27.1257  -13.5484   17.0262 H   0  0  0  0  0  0
  -25.7270  -17.5782   22.3843 H   0  0  0  0  0  0
  -27.2119  -17.3059   23.2227 H   0  0  0  0  0  0
  -26.1588  -20.1812   20.5493 H   0  0  0  0  0  0
  -28.0384  -19.5733   22.8069 H   0  0  0  0  0  0
  -25.0328  -20.0209   22.9041 H   0  0  0  0  0  0
  -26.2599  -21.1725   23.4090 H   0  0  0  0  0  0
  -26.0778  -19.6532   24.2709 H   0  0  0  0  0  0
  -26.0389  -22.6306   20.6661 H   0  0  0  0  0  0
  -27.1906  -22.4378   19.4065 H   0  0  0  0  0  0
  -29.1730  -16.1434   18.7725 H   0  0  0  0  0  0
  1 25  1  0  0  0
  1 30  2  0  0  0
  1 85  1  0  0  0
  2  3  1  0  0  0
  2 25  1  0  0  0
  2 91  1  0  0  0
  2 92  1  0  0  0
  3  4  1  0  0  0
  3 93  1  0  0  0
  3 94  1  0  0  0
  4  5  1  0  0  0
  4 95  1  0  0  0
  4 96  1  0  0  0
  5  6  1  0  0  0
  5 26  1  0  0  0
  5 97  1  0  0  0
  6 25  1  0  0  0
  6 98  1  0  0  0
  6 99  1  0  0  0
  7  8  2  0  0  0
  7 26  1  0  0  0
  7 29  1  0  0  0
  8  9  1  0  0  0
  8 22  1  0  0  0
  9 10  1  0  0  0
  9 27  2  0  0  0
 10 11  2  0  0  0
 10 15  1  0  0  0
 11 12  1  0  0  0
 11100  1  0  0  0
 12 13  2  0  0  0
 12101  1  0  0  0
 13 14  1  0  0  0
 13 31  1  0  0  0
 14 15  2  0  0  0
 14102  1  0  0  0
 15103  1  0  0  0
 16 17  2  0  0  0
 16 21  1  0  0  0
 16 31  1  0  0  0
 17 18  1  0  0  0
 17104  1  0  0  0
 18 19  2  0  0  0
 18105  1  0  0  0
 19 20  1  0  0  0
 19 24  1  0  0  0
 20 21  2  0  0  0
 20106  1  0  0  0
 21 23  1  0  0  0
 22 28  1  0  0  0
 22 32  2  0  0  0
 26 27  1  0  0  0
 28107  1  0  0  0
 28108  1  0  0  0
 29109  1  0  0  0
 29110  1  0  0  0
 33 34  1  0  0  0
 33 66  1  0  0  0
 33 70  2  0  0  0
 34 36  1  0  0  0
 34 59  1  0  0  0
 34111  1  0  0  0
 35 44  2  0  0  0
 35 45  1  0  0  0
 35 68  1  0  0  0
 36 56  1  0  0  0
 36112  1  0  0  0
 37 39  1  0  0  0
 37 47  1  0  0  0
 37 66  1  0  0  0
 37113  1  0  0  0
 38 43  2  0  0  0
 38 46  1  0  0  0
 38 47  1  0  0  0
 39 64  1  0  0  0
 39 67  2  0  0  0
 40 52  1  0  0  0
 40 53  2  0  0  0
 40 58  1  0  0  0
 41114  1  0  0  0
 41115  1  0  0  0
 41116  1  0  0  0
 41 48  1  0  0  0
 42 43  1  0  0  0
 42 66  1  0  0  0
 42117  1  0  0  0
 42118  1  0  0  0
 43 44  1  0  0  0
 44119  1  0  0  0
 45 46  2  0  0  0
 45120  1  0  0  0
 46121  1  0  0  0
 47122  1  0  0  0
 47123  1  0  0  0
 48 56  1  0  0  0
 48 65  1  0  0  0
 48124  1  0  0  0
 49 50  1  0  0  0
 49 53  1  0  0  0
 49 64  1  0  0  0
 49125  1  0  0  0
 50 51  1  0  0  0
 50126  1  0  0  0
 50127  1  0  0  0
 51 52  1  0  0  0
 51128  1  0  0  0
 51129  1  0  0  0
 52130  1  0  0  0
 52131  1  0  0  0
 53 54  1  0  0  0
 54 55  2  0  0  0
 54132  1  0  0  0
 55 57  1  0  0  0
 55133  1  0  0  0
 56 69  2  0  0  0
 57 58  2  0  0  0
 57134  1  0  0  0
 58135  1  0  0  0
 59 60  1  0  0  0
 59 61  1  0  0  0
 59 62  1  0  0  0
 60136  1  0  0  0
 60137  1  0  0  0
 60138  1  0  0  0
 61139  1  0  0  0
 61140  1  0  0  0
 61141  1  0  0  0
 62142  1  0  0  0
 62143  1  0  0  0
 62144  1  0  0  0
 63 65  1  0  0  0
 63145  1  0  0  0
 63146  1  0  0  0
 63147  1  0  0  0
 64148  1  0  0  0
 65149  1  0  0  0
 68 82  1  0  0  0
 71 73  2  0  0  0
 71 74  1  0  0  0
 71150  1  0  0  0
 72 75  1  0  0  0
 72 76  2  0  0  0
 72151  1  0  0  0
 73 76  1  0  0  0
 73 83  1  0  0  0
 74 75  2  0  0  0
 74 84  1  0  0  0
 75 85  1  0  0  0
 76 87  1  0  0  0
 77 79  1  0  0  0
 77 84  1  0  0  0
 77 86  2  0  0  0
 78 80  1  0  0  0
 78 84  1  0  0  0
 78152  1  0  0  0
 78153  1  0  0  0
 79 80  1  0  0  0
 79 82  1  0  0  0
 79154  1  0  0  0
 80 81  1  0  0  0
 80155  1  0  0  0
 81156  1  0  0  0
 81157  1  0  0  0
 81158  1  0  0  0
 82159  1  0  0  0
 82160  1  0  0  0
 83 88  1  0  0  0
 83 89  1  0  0  0
 83 90  1  0  0  0
 85161  1  0  0  0
M  ISO  4   1 100  68 101  82 101  85 100
M  END
> <chiral flag>
0

> <version>
0

> <s_m_source_file>
/data/baiqing/PycharmProjects/Reinvent-master-3.2/result/LINK_invent/BTK/process_docking_weight1_custom_product_contain_oxygen_bond_distance_aromatic_linkinvent_7_9_3/rearranged_h_0071.sdf

> <i_m_source_file_index>
67

> <r_mmod_Potential_Energy-OPLS-2005>
23071.279296875

> <r_mmod_Stretch_Energy-OPLS-2005>
12712.37890625

> <r_mmod_Bend_Energy-OPLS-2005>
1803.35205078125

> <r_mmod_Torsional_Energy-OPLS-2005>
827.213134765625

> <r_mmod_Improper_Torsional_Energy-OPLS-2005>
94.8049774169922

> <r_mmod_Van_der_Waal_Energy-OPLS-2005>
4795.669921875

> <r_mmod_Electrostatic_Energy-OPLS-2005>
-340.533050537109

> <r_mmod_Solvation_Energy-OPLS-2005>
-222.253555297852

> <b_mmod_Minimization_Converged-OPLS-2005>
0

> <r_mmod_RMS_Derivative-OPLS-2005>
3.49710011482239

$$$$
67
                    3D
 Structure written by MMmdl.
158167  0  0  1  0            999 V2000
  -30.6222  -14.7471   20.4717 C   0  0  0  0  0  0
  -30.4324  -12.4599   19.4707 C   0  0  0  0  0  0
  -29.5108  -12.5006   18.2329 C   0  0  0  0  0  0
  -28.0359  -12.3264   18.6450 C   0  0  0  0  0  0
  -27.6397  -13.2301   19.8428 C   0  0  2  0  0  0
  -28.6849  -13.1760   20.9768 C   0  0  0  0  0  0
  -25.2515  -13.8195   20.5693 C   0  0  0  0  0  0
  -24.1803  -13.0443   20.9215 C   0  0  0  0  0  0
  -24.6396  -11.6922   20.8760 C   0  0  0  0  0  0
  -23.9076  -10.4296   21.0420 C   0  0  0  0  0  0
  -24.3625   -9.4215   21.9199 C   0  0  0  0  0  0
  -23.6303   -8.2248   22.0762 C   0  0  0  0  0  0
  -22.4283   -8.0283   21.3547 C   0  0  0  0  0  0
  -21.9924   -9.0255   20.4645 C   0  0  0  0  0  0
  -22.7252  -10.2138   20.3062 C   0  0  0  0  0  0
  -21.6850   -6.0748   22.5294 C   0  0  0  0  0  0
  -21.4007   -6.5655   23.8227 C   0  0  0  0  0  0
  -21.3653   -5.6806   24.9187 C   0  0  0  0  0  0
  -21.6047   -4.3069   24.7237 C   0  0  0  0  0  0
  -21.8811   -3.8158   23.4356 C   0  0  0  0  0  0
  -21.9194   -4.6978   22.3415 C   0  0  0  0  0  0
  -22.7828  -13.5234   21.1884 C   0  0  0  0  0  0
  -22.1661   -4.2166   21.0993 F   0  0  0  0  0  0
  -21.5627   -3.4551   25.7746 F   0  0  0  0  0  0
  -29.9804  -13.5313   20.3874 N   0  0  0  0  0  0
  -26.2932  -12.9397   20.3247 N   0  0  0  0  0  0
  -25.9326  -11.6545   20.5735 N   0  0  0  0  0  0
  -22.0468  -12.8199   22.0417 N   0  0  0  0  0  0
  -25.4214  -15.1919   20.4112 N   0  0  0  0  0  0
  -31.8210  -14.8176   20.1896 O   0  0  0  0  0  0
  -21.6641   -6.8881   21.4244 O   0  0  0  0  0  0
  -22.3511  -14.5545   20.6744 O   0  0  0  0  0  0
  -24.6320  -31.8538   23.1980 C   0  0  0  0  0  0
  -25.9155  -32.4746   23.8347 C   0  0  1  0  0  0
  -27.2229  -27.2526   20.1398 C   0  0  0  0  0  0
  -25.5953  -33.8549   24.2258 N   0  0  0  0  0  0
  -23.4307  -30.4742   21.5412 C   0  0  2  0  0  0
  -24.8798  -28.9215   20.1134 C   0  0  0  0  0  0
  -22.7524  -29.4568   22.4913 C   0  0  0  0  0  0
  -18.0296  -28.1395   22.8478 C   0  0  0  0  0  0
  -24.1484  -36.7273   23.2641 C   0  0  0  0  0  0
  -25.9781  -30.7625   21.3825 C   0  0  0  0  0  0
  -26.0517  -29.3850   20.7273 C   0  0  0  0  0  0
  -27.2255  -28.5628   20.7294 C   0  0  0  0  0  0
  -26.0338  -26.8684   19.4821 C   0  0  0  0  0  0
  -24.8791  -27.6723   19.4782 C   0  0  0  0  0  0
  -23.6499  -29.8066   20.1585 C   0  0  0  0  0  0
  -25.4104  -36.3061   24.0323 C   0  0  1  0  0  0
  -20.5899  -28.3682   23.1278 C   0  0  2  0  0  0
  -20.6773  -26.9397   22.5419 C   0  0  0  0  0  0
  -19.5743  -26.6371   21.5238 C   0  0  0  0  0  0
  -18.1920  -26.7941   22.1625 C   0  0  0  0  0  0
  -19.1549  -28.8858   23.2875 C   0  0  0  0  0  0
  -18.9471  -30.1469   23.8877 C   0  0  0  0  0  0
  -17.6467  -30.6593   24.0545 C   0  0  0  0  0  0
  -25.9050  -34.9427   23.5074 C   0  0  0  0  0  0
  -16.5361  -29.9072   23.6342 C   0  0  0  0  0  0
  -16.7286  -28.6501   23.0350 C   0  0  0  0  0  0
  -26.4517  -31.6590   25.0754 C   0  0  0  0  0  0
  -25.3726  -31.3747   26.1472 C   0  0  0  0  0  0
  -27.0385  -30.3017   24.6259 C   0  0  0  0  0  0
  -27.6058  -32.4356   25.7526 C   0  0  0  0  0  0
  -27.5566  -37.1796   24.8461 C   0  0  0  0  0  0
  -21.4227  -29.3038   22.3672 N   0  0  0  0  0  0
  -26.4275  -37.3771   23.9400 N   0  0  0  0  0  0
  -24.6996  -31.0485   22.0967 N   0  0  0  0  0  0
  -23.4218  -28.8095   23.3005 O   0  0  0  0  0  0
  -28.3128  -26.3482   20.1795 O   0  0  0  0  0  0
  -26.5615  -34.8893   22.4642 O   0  0  0  0  0  0
  -23.5464  -32.1363   23.7268 O   0  0  0  0  0  0
  -31.8418  -18.7704   22.0844 C   0  0  0  0  0  0
  -31.3926  -17.4888   21.7268 C   0  0  0  0  0  0
  -29.6108  -18.5335   20.4509 C   0  0  0  0  0  0
  -31.2321  -19.9592   21.6208 C   0  0  0  0  0  0
  -30.0622  -19.8852   20.7987 C   0  0  0  0  0  0
  -30.2777  -17.3063   20.8882 C   0  0  0  0  0  0
  -29.6690  -21.6480   19.0568 C   0  0  0  0  0  0
  -29.2730  -23.1343   18.9019 C   0  0  0  0  0  0
  -28.8582  -22.2958   21.0861 C   0  0  0  0  0  0
  -29.0937  -23.6840   20.3285 C   0  0  2  0  0  0
  -28.0353  -24.9034   20.5188 C   0  0  0  0  0  0
  -31.9075  -21.2785   22.0296 C   0  0  0  0  0  0
  -29.4494  -21.1543   20.2939 N   0  0  0  0  0  0
  -29.8582  -15.9055   20.6082 N   0  0  0  0  0  0
  -30.1354  -21.0065   18.1112 O   0  0  0  0  0  0
  -33.1882  -21.0827   22.3508 F   0  0  0  0  0  0
  -31.9040  -22.1862   21.0557 F   0  0  0  0  0  0
  -31.3023  -21.7849   23.1021 F   0  0  0  0  0  0
  -31.4738  -12.5845   19.1703 H   0  0  0  0  0  0
  -30.3791  -11.4879   19.9651 H   0  0  0  0  0  0
  -29.7975  -11.7211   17.5259 H   0  0  0  0  0  0
  -29.6373  -13.4498   17.7112 H   0  0  0  0  0  0
  -27.8920  -11.2779   18.9087 H   0  0  0  0  0  0
  -27.3816  -12.5187   17.7938 H   0  0  0  0  0  0
  -27.6291  -14.2488   19.4545 H   0  0  0  0  0  0
  -28.7258  -12.1820   21.4235 H   0  0  0  0  0  0
  -28.4208  -13.8640   21.7803 H   0  0  0  0  0  0
  -25.2772   -9.5705   22.4775 H   0  0  0  0  0  0
  -24.0023   -7.4642   22.7485 H   0  0  0  0  0  0
  -21.0862   -8.8772   19.8940 H   0  0  0  0  0  0
  -22.3721  -10.9675   19.6171 H   0  0  0  0  0  0
  -21.1983   -7.6159   23.9736 H   0  0  0  0  0  0
  -21.1478   -6.0537   25.9094 H   0  0  0  0  0  0
  -22.0587   -2.7623   23.2861 H   0  0  0  0  0  0
  -22.4062  -11.9833   22.4772 H   0  0  0  0  0  0
  -21.1079  -13.1208   22.2621 H   0  0  0  0  0  0
  -24.6543  -15.8458   20.5242 H   0  0  0  0  0  0
  -26.2658  -15.6322   20.0687 H   0  0  0  0  0  0
  -26.7192  -32.5390   23.1058 H   0  0  0  0  0  0
  -25.0131  -33.9690   25.0424 H   0  0  0  0  0  0
  -22.7290  -31.2965   21.3904 H   0  0  0  0  0  0
  -23.3765  -35.9596   23.3300 H   0  0  0  0  0  0
  -24.3573  -36.8919   22.2066 H   0  0  0  0  0  0
  -23.7237  -37.6458   23.6677 H   0  0  0  0  0  0
  -26.1211  -31.5220   20.6130 H   0  0  0  0  0  0
  -26.8550  -30.8117   22.0169 H   0  0  0  0  0  0
  -28.1187  -28.9080   21.2301 H   0  0  0  0  0  0
  -25.9771  -25.9249   18.9621 H   0  0  0  0  0  0
  -23.9866  -27.3177   18.9814 H   0  0  0  0  0  0
  -23.7675  -30.5797   19.3995 H   0  0  0  0  0  0
  -22.7708  -29.2348   19.8560 H   0  0  0  0  0  0
  -25.1292  -36.1894   25.0822 H   0  0  0  0  0  0
  -20.9984  -28.3257   24.1400 H   0  0  0  0  0  0
  -20.5702  -26.2283   23.3621 H   0  0  0  0  0  0
  -21.6615  -26.7410   22.1173 H   0  0  0  0  0  0
  -19.6893  -25.6291   21.1249 H   0  0  0  0  0  0
  -19.6696  -27.3173   20.6772 H   0  0  0  0  0  0
  -17.4195  -26.6719   21.4024 H   0  0  0  0  0  0
  -18.0271  -26.0099   22.9022 H   0  0  0  0  0  0
  -19.7959  -30.7290   24.2220 H   0  0  0  0  0  0
  -17.5023  -31.6273   24.5146 H   0  0  0  0  0  0
  -15.5358  -30.2951   23.7716 H   0  0  0  0  0  0
  -15.8686  -28.0817   22.7072 H   0  0  0  0  0  0
  -24.5891  -30.7105   25.7810 H   0  0  0  0  0  0
  -24.8918  -32.2916   26.4906 H   0  0  0  0  0  0
  -25.8041  -30.8926   27.0257 H   0  0  0  0  0  0
  -26.2985  -29.6757   24.1260 H   0  0  0  0  0  0
  -27.4058  -29.7307   25.4799 H   0  0  0  0  0  0
  -27.8858  -30.4323   23.9520 H   0  0  0  0  0  0
  -27.2665  -33.3691   26.2028 H   0  0  0  0  0  0
  -28.3908  -32.6874   25.0381 H   0  0  0  0  0  0
  -28.0663  -31.8527   26.5516 H   0  0  0  0  0  0
  -28.2574  -38.0106   24.7501 H   0  0  0  0  0  0
  -28.1079  -36.2633   24.6287 H   0  0  0  0  0  0
  -27.2272  -37.1420   25.8865 H   0  0  0  0  0  0
  -20.9420  -29.8798   21.6904 H   0  0  0  0  0  0
  -26.0159  -38.2841   24.1435 H   0  0  0  0  0  0
  -32.7045  -18.8327   22.7307 H   0  0  0  0  0  0
  -31.9243  -16.6380   22.1262 H   0  0  0  0  0  0
  -28.7387  -18.4462   19.8178 H   0  0  0  0  0  0
  -28.3438  -23.1894   18.3352 H   0  0  0  0  0  0
  -30.0358  -23.6899   18.3563 H   0  0  0  0  0  0
  -27.7857  -22.1094   21.1640 H   0  0  0  0  0  0
  -29.2305  -22.3386   22.1065 H   0  0  0  0  0  0
  -30.0626  -24.0573   20.6656 H   0  0  0  0  0  0
  -27.7840  -24.9223   21.5795 H   0  0  0  0  0  0
  -27.1207  -24.5642   20.0404 H   0  0  0  0  0  0
  -28.8629  -15.7520   20.5658 H   0  0  0  0  0  0
  1 25  1  0  0  0
  1 30  2  0  0  0
  1 84  1  0  0  0
  2  3  1  0  0  0
  2 25  1  0  0  0
  2 89  1  0  0  0
  2 90  1  0  0  0
  3  4  1  0  0  0
  3 91  1  0  0  0
  3 92  1  0  0  0
  4  5  1  0  0  0
  4 93  1  0  0  0
  4 94  1  0  0  0
  5  6  1  0  0  0
  5 26  1  0  0  0
  5 95  1  0  0  0
  6 25  1  0  0  0
  6 96  1  0  0  0
  6 97  1  0  0  0
  7  8  2  0  0  0
  7 26  1  0  0  0
  7 29  1  0  0  0
  8  9  1  0  0  0
  8 22  1  0  0  0
  9 10  1  0  0  0
  9 27  2  0  0  0
 10 11  2  0  0  0
 10 15  1  0  0  0
 11 12  1  0  0  0
 11 98  1  0  0  0
 12 13  2  0  0  0
 12 99  1  0  0  0
 13 14  1  0  0  0
 13 31  1  0  0  0
 14 15  2  0  0  0
 14100  1  0  0  0
 15101  1  0  0  0
 16 17  2  0  0  0
 16 21  1  0  0  0
 16 31  1  0  0  0
 17 18  1  0  0  0
 17102  1  0  0  0
 18 19  2  0  0  0
 18103  1  0  0  0
 19 20  1  0  0  0
 19 24  1  0  0  0
 20 21  2  0  0  0
 20104  1  0  0  0
 21 23  1  0  0  0
 22 28  1  0  0  0
 22 32  2  0  0  0
 26 27  1  0  0  0
 28105  1  0  0  0
 28106  1  0  0  0
 29107  1  0  0  0
 29108  1  0  0  0
 33 34  1  0  0  0
 33 66  1  0  0  0
 33 70  2  0  0  0
 34 36  1  0  0  0
 34 59  1  0  0  0
 34109  1  0  0  0
 35 44  2  0  0  0
 35 45  1  0  0  0
 35 68  1  0  0  0
 36 56  1  0  0  0
 36110  1  0  0  0
 37 39  1  0  0  0
 37 47  1  0  0  0
 37 66  1  0  0  0
 37111  1  0  0  0
 38 43  2  0  0  0
 38 46  1  0  0  0
 38 47  1  0  0  0
 39 64  1  0  0  0
 39 67  2  0  0  0
 40 52  1  0  0  0
 40 53  2  0  0  0
 40 58  1  0  0  0
 41112  1  0  0  0
 41113  1  0  0  0
 41114  1  0  0  0
 41 48  1  0  0  0
 42 43  1  0  0  0
 42 66  1  0  0  0
 42115  1  0  0  0
 42116  1  0  0  0
 43 44  1  0  0  0
 44117  1  0  0  0
 45 46  2  0  0  0
 45118  1  0  0  0
 46119  1  0  0  0
 47120  1  0  0  0
 47121  1  0  0  0
 48 56  1  0  0  0
 48 65  1  0  0  0
 48122  1  0  0  0
 49 50  1  0  0  0
 49 53  1  0  0  0
 49 64  1  0  0  0
 49123  1  0  0  0
 50 51  1  0  0  0
 50124  1  0  0  0
 50125  1  0  0  0
 51 52  1  0  0  0
 51126  1  0  0  0
 51127  1  0  0  0
 52128  1  0  0  0
 52129  1  0  0  0
 53 54  1  0  0  0
 54 55  2  0  0  0
 54130  1  0  0  0
 55 57  1  0  0  0
 55131  1  0  0  0
 56 69  2  0  0  0
 57 58  2  0  0  0
 57132  1  0  0  0
 58133  1  0  0  0
 59 60  1  0  0  0
 59 61  1  0  0  0
 59 62  1  0  0  0
 60134  1  0  0  0
 60135  1  0  0  0
 60136  1  0  0  0
 61137  1  0  0  0
 61138  1  0  0  0
 61139  1  0  0  0
 62140  1  0  0  0
 62141  1  0  0  0
 62142  1  0  0  0
 63 65  1  0  0  0
 63143  1  0  0  0
 63144  1  0  0  0
 63145  1  0  0  0
 64146  1  0  0  0
 65147  1  0  0  0
 68 81  1  0  0  0
 71 72  2  0  0  0
 71 74  1  0  0  0
 71148  1  0  0  0
 72 76  1  0  0  0
 72149  1  0  0  0
 73 75  1  0  0  0
 73 76  2  0  0  0
 73150  1  0  0  0
 74 75  2  0  0  0
 74 82  1  0  0  0
 75 83  1  0  0  0
 76 84  1  0  0  0
 77 78  1  0  0  0
 77 83  1  0  0  0
 77 85  2  0  0  0
 78 80  1  0  0  0
 78151  1  0  0  0
 78152  1  0  0  0
 79 80  1  0  0  0
 79 83  1  0  0  0
 79153  1  0  0  0
 79154  1  0  0  0
 80 81  1  0  0  0
 80155  1  0  0  0
 81156  1  0  0  0
 81157  1  0  0  0
 82 86  1  0  0  0
 82 87  1  0  0  0
 82 88  1  0  0  0
 84158  1  0  0  0
M  ISO  4   1 100  68 101  81 101  84 100
M  END
> <chiral flag>
0

> <version>
0

> <s_m_source_file>
/data/baiqing/PycharmProjects/Reinvent-master-3.2/result/LINK_invent/BTK/process_docking_weight1_custom_product_contain_oxygen_bond_distance_aromatic_linkinvent_7_9_3/rearranged_h_0071.sdf

> <i_m_source_file_index>
68

> <r_mmod_Potential_Energy-OPLS-2005>
300.585998535156

> <r_mmod_Stretch_Energy-OPLS-2005>
130.740798950195

> <r_mmod_Bend_Energy-OPLS-2005>
190.628005981445

> <r_mmod_Torsional_Energy-OPLS-2005>
314.266906738281

> <r_mmod_Improper_Torsional_Energy-OPLS-2005>
6.9633150100708

> <r_mmod_Van_der_Waal_Energy-OPLS-2005>
141.878570556641

> <r_mmod_Electrostatic_Energy-OPLS-2005>
-350.351715087891

> <r_mmod_Solvation_Energy-OPLS-2005>
-223.204971313477

> <b_mmod_Minimization_Converged-OPLS-2005>
0

> <r_mmod_RMS_Derivative-OPLS-2005>
2.36087346076965

$$$$
68
                    3D
 Structure written by MMmdl.
155163  0  0  1  0            999 V2000
  -30.5795  -14.7929   20.4561 C   0  0  0  0  0  0
  -30.4350  -12.4850   19.4937 C   0  0  0  0  0  0
  -29.5166  -12.5327   18.2506 C   0  0  0  0  0  0
  -28.0398  -12.3539   18.6518 C   0  0  0  0  0  0
  -27.6422  -13.2388   19.8632 C   0  0  2  0  0  0
  -28.6829  -13.1728   21.0027 C   0  0  0  0  0  0
  -25.2477  -13.8198   20.5701 C   0  0  0  0  0  0
  -24.1783  -13.0425   20.9197 C   0  0  0  0  0  0
  -24.6380  -11.6904   20.8722 C   0  0  0  0  0  0
  -23.9046  -10.4289   21.0368 C   0  0  0  0  0  0
  -24.3595   -9.4215   21.9159 C   0  0  0  0  0  0
  -23.6271   -8.2253   22.0735 C   0  0  0  0  0  0
  -22.4254   -8.0285   21.3532 C   0  0  0  0  0  0
  -21.9885   -9.0251   20.4627 C   0  0  0  0  0  0
  -22.7207  -10.2133   20.3026 C   0  0  0  0  0  0
  -21.6857   -6.0731   22.5270 C   0  0  0  0  0  0
  -21.4013   -6.5631   23.8205 C   0  0  0  0  0  0
  -21.3667   -5.6782   24.9167 C   0  0  0  0  0  0
  -21.6053   -4.3047   24.7216 C   0  0  0  0  0  0
  -21.8817   -3.8141   23.4332 C   0  0  0  0  0  0
  -21.9190   -4.6959   22.3386 C   0  0  0  0  0  0
  -22.7805  -13.5214   21.1852 C   0  0  0  0  0  0
  -22.1640   -4.2142   21.0957 F   0  0  0  0  0  0
  -21.5642   -3.4530   25.7724 F   0  0  0  0  0  0
  -29.9871  -13.5437   20.4346 N   0  0  0  0  0  0
  -26.2928  -12.9425   20.3335 N   0  0  0  0  0  0
  -25.9325  -11.6553   20.5777 N   0  0  0  0  0  0
  -22.0467  -12.8193   22.0405 N   0  0  0  0  0  0
  -25.4130  -15.1928   20.4115 N   0  0  0  0  0  0
  -31.7347  -14.9172   20.0354 O   0  0  0  0  0  0
  -21.6631   -6.8872   21.4230 O   0  0  0  0  0  0
  -22.3481  -14.5528   20.6711 O   0  0  0  0  0  0
  -24.6394  -31.8500   23.1978 C   0  0  0  0  0  0
  -25.9199  -32.4731   23.8337 C   0  0  1  0  0  0
  -27.2115  -27.2065   20.1383 C   0  0  0  0  0  0
  -25.5975  -33.8533   24.2259 N   0  0  0  0  0  0
  -23.4384  -30.4748   21.5407 C   0  0  2  0  0  0
  -24.8851  -28.9165   20.1096 C   0  0  0  0  0  0
  -22.7543  -29.4602   22.4894 C   0  0  0  0  0  0
  -18.0307  -28.1403   22.8499 C   0  0  0  0  0  0
  -24.1487  -36.7256   23.2647 C   0  0  0  0  0  0
  -25.9908  -30.7427   21.3915 C   0  0  0  0  0  0
  -26.0585  -29.3617   20.7326 C   0  0  0  0  0  0
  -27.2231  -28.5182   20.7410 C   0  0  0  0  0  0
  -26.0235  -26.8619   19.4540 C   0  0  0  0  0  0
  -24.8755  -27.6761   19.4584 C   0  0  0  0  0  0
  -23.6594  -29.8101   20.1571 C   0  0  0  0  0  0
  -25.4119  -36.3055   24.0333 C   0  0  1  0  0  0
  -20.5922  -28.3734   23.1244 C   0  0  2  0  0  0
  -20.6803  -26.9437   22.5407 C   0  0  0  0  0  0
  -19.5756  -26.6390   21.5231 C   0  0  0  0  0  0
  -18.1942  -26.7955   22.1636 C   0  0  0  0  0  0
  -19.1565  -28.8885   23.2868 C   0  0  0  0  0  0
  -18.9476  -30.1488   23.8882 C   0  0  0  0  0  0
  -17.6467  -30.6600   24.0573 C   0  0  0  0  0  0
  -25.9062  -34.9425   23.5095 C   0  0  0  0  0  0
  -16.5358  -29.9091   23.6351 C   0  0  0  0  0  0
  -16.7290  -28.6512   23.0372 C   0  0  0  0  0  0
  -26.4537  -31.6600   25.0765 C   0  0  0  0  0  0
  -25.3735  -31.3749   26.1466 C   0  0  0  0  0  0
  -27.0430  -30.3012   24.6332 C   0  0  0  0  0  0
  -27.6071  -32.4382   25.7530 C   0  0  0  0  0  0
  -27.5578  -37.1783   24.8472 C   0  0  0  0  0  0
  -21.4254  -29.3058   22.3616 N   0  0  0  0  0  0
  -26.4288  -37.3765   23.9424 N   0  0  0  0  0  0
  -24.7087  -31.0426   22.0981 N   0  0  0  0  0  0
  -23.4205  -28.8147   23.3025 O   0  0  0  0  0  0
  -28.2697  -26.2496   20.1976 O   0  0  0  0  0  0
  -26.5621  -34.8912   22.4653 O   0  0  0  0  0  0
  -23.5535  -32.1347   23.7237 O   0  0  0  0  0  0
  -28.4292  -19.4650   18.7484 C   0  0  0  0  0  0
  -28.8692  -17.0451   18.9176 C   0  0  0  0  0  0
  -29.6256  -18.5652   20.6662 C   0  0  0  0  0  0
  -28.3146  -18.1508   18.2368 C   0  0  0  0  0  0
  -29.0894  -19.7465   19.9698 C   0  0  0  0  0  0
  -29.5251  -17.1872   20.1578 C   0  0  0  0  0  0
  -28.8389  -23.7163   20.2313 C   0  0  0  0  0  0
  -27.9894  -24.8293   20.2310 C   0  0  0  0  0  0
  -27.5845  -17.9228   16.9907 C   0  0  0  0  0  0
  -28.3543  -22.2734   20.1459 C   0  0  0  0  0  0
  -26.4014  -18.4961   16.7864 N   0  0  0  0  0  0
  -29.2286  -21.1981   20.3604 N   0  0  0  0  0  0
  -29.8445  -15.9058   20.8668 N   0  0  0  0  0  0
  -28.0868  -17.1265   16.0496 N   0  3  0  0  0  0
  -27.1743  -22.0271   19.8864 O   0  0  0  0  0  0
  -31.4750  -12.6165   19.1917 H   0  0  0  0  0  0
  -30.3873  -11.5054   19.9721 H   0  0  0  0  0  0
  -29.8060  -11.7572   17.5399 H   0  0  0  0  0  0
  -29.6475  -13.4839   17.7327 H   0  0  0  0  0  0
  -27.8907  -11.3022   18.8978 H   0  0  0  0  0  0
  -27.3888  -12.5642   17.8022 H   0  0  0  0  0  0
  -27.6326  -14.2637   19.4961 H   0  0  0  0  0  0
  -28.7250  -12.1720   21.4354 H   0  0  0  0  0  0
  -28.4043  -13.8441   21.8158 H   0  0  0  0  0  0
  -25.2739   -9.5704   22.4740 H   0  0  0  0  0  0
  -23.9986   -7.4642   22.7436 H   0  0  0  0  0  0
  -21.0828   -8.8752   19.8920 H   0  0  0  0  0  0
  -22.3646  -10.9666   19.6133 H   0  0  0  0  0  0
  -21.1996   -7.6127   23.9718 H   0  0  0  0  0  0
  -21.1493   -6.0493   25.9075 H   0  0  0  0  0  0
  -22.0595   -2.7598   23.2824 H   0  0  0  0  0  0
  -22.4089  -11.9841   22.4758 H   0  0  0  0  0  0
  -21.1100  -13.1223   22.2656 H   0  0  0  0  0  0
  -24.6388  -15.8401   20.5131 H   0  0  0  0  0  0
  -26.2622  -15.6374   20.0920 H   0  0  0  0  0  0
  -26.7274  -32.5346   23.1080 H   0  0  0  0  0  0
  -25.0204  -33.9664   25.0461 H   0  0  0  0  0  0
  -22.7405  -31.3013   21.3929 H   0  0  0  0  0  0
  -23.3773  -35.9563   23.3299 H   0  0  0  0  0  0
  -24.3577  -36.8883   22.2061 H   0  0  0  0  0  0
  -23.7205  -37.6439   23.6675 H   0  0  0  0  0  0
  -26.1509  -31.4997   20.6224 H   0  0  0  0  0  0
  -26.8611  -30.7810   22.0357 H   0  0  0  0  0  0
  -28.1173  -28.8497   21.2511 H   0  0  0  0  0  0
  -25.9517  -25.9252   18.9211 H   0  0  0  0  0  0
  -23.9838  -27.3357   18.9517 H   0  0  0  0  0  0
  -23.7882  -30.5851   19.4002 H   0  0  0  0  0  0
  -22.7758  -29.2461   19.8533 H   0  0  0  0  0  0
  -25.1306  -36.1897   25.0826 H   0  0  0  0  0  0
  -21.0024  -28.3316   24.1361 H   0  0  0  0  0  0
  -20.5735  -26.2337   23.3629 H   0  0  0  0  0  0
  -21.6659  -26.7474   22.1161 H   0  0  0  0  0  0
  -19.6911  -25.6296   21.1271 H   0  0  0  0  0  0
  -19.6686  -27.3198   20.6758 H   0  0  0  0  0  0
  -17.4222  -26.6750   21.4025 H   0  0  0  0  0  0
  -18.0299  -26.0082   22.9008 H   0  0  0  0  0  0
  -19.7940  -30.7334   24.2226 H   0  0  0  0  0  0
  -17.5006  -31.6275   24.5180 H   0  0  0  0  0  0
  -15.5357  -30.2979   23.7679 H   0  0  0  0  0  0
  -15.8700  -28.0817   22.7098 H   0  0  0  0  0  0
  -24.5925  -30.7089   25.7784 H   0  0  0  0  0  0
  -24.8911  -32.2912   26.4876 H   0  0  0  0  0  0
  -25.8023  -30.8934   27.0260 H   0  0  0  0  0  0
  -26.3060  -29.6714   24.1329 H   0  0  0  0  0  0
  -27.4065  -29.7333   25.4911 H   0  0  0  0  0  0
  -27.8958  -30.4303   23.9658 H   0  0  0  0  0  0
  -27.2671  -33.3712   26.2038 H   0  0  0  0  0  0
  -28.3889  -32.6893   25.0350 H   0  0  0  0  0  0
  -28.0735  -31.8560   26.5485 H   0  0  0  0  0  0
  -28.2584  -38.0092   24.7549 H   0  0  0  0  0  0
  -28.1082  -36.2624   24.6271 H   0  0  0  0  0  0
  -27.2294  -37.1396   25.8871 H   0  0  0  0  0  0
  -20.9464  -29.8729   21.6762 H   0  0  0  0  0  0
  -26.0160  -38.2835   24.1431 H   0  0  0  0  0  0
  -28.0120  -20.2749   18.1662 H   0  0  0  0  0  0
  -28.7288  -16.0586   18.4999 H   0  0  0  0  0  0
  -30.1051  -18.7165   21.6213 H   0  0  0  0  0  0
  -29.9052  -23.8869   20.2492 H   0  0  0  0  0  0
  -26.9277  -24.6397   20.2557 H   0  0  0  0  0  0
  -25.9800  -19.0375   17.5272 H   0  0  0  0  0  0
  -25.8746  -18.3812   15.9352 H   0  0  0  0  0  0
  -30.1179  -21.4487   20.7687 H   0  0  0  0  0  0
  -29.0979  -15.6263   21.4861 H   0  0  0  0  0  0
  -29.0157  -16.7505   16.1706 H   0  0  0  0  0  0
  -27.6015  -16.9284   15.1888 H   0  0  0  0  0  0
  1 25  1  0  0  0
  1 30  2  0  0  0
  1 83  1  0  0  0
  2  3  1  0  0  0
  2 25  1  0  0  0
  2 86  1  0  0  0
  2 87  1  0  0  0
  3  4  1  0  0  0
  3 88  1  0  0  0
  3 89  1  0  0  0
  4  5  1  0  0  0
  4 90  1  0  0  0
  4 91  1  0  0  0
  5  6  1  0  0  0
  5 26  1  0  0  0
  5 92  1  0  0  0
  6 25  1  0  0  0
  6 93  1  0  0  0
  6 94  1  0  0  0
  7  8  2  0  0  0
  7 26  1  0  0  0
  7 29  1  0  0  0
  8  9  1  0  0  0
  8 22  1  0  0  0
  9 10  1  0  0  0
  9 27  2  0  0  0
 10 11  2  0  0  0
 10 15  1  0  0  0
 11 12  1  0  0  0
 11 95  1  0  0  0
 12 13  2  0  0  0
 12 96  1  0  0  0
 13 14  1  0  0  0
 13 31  1  0  0  0
 14 15  2  0  0  0
 14 97  1  0  0  0
 15 98  1  0  0  0
 16 17  2  0  0  0
 16 21  1  0  0  0
 16 31  1  0  0  0
 17 18  1  0  0  0
 17 99  1  0  0  0
 18 19  2  0  0  0
 18100  1  0  0  0
 19 20  1  0  0  0
 19 24  1  0  0  0
 20 21  2  0  0  0
 20101  1  0  0  0
 21 23  1  0  0  0
 22 28  1  0  0  0
 22 32  2  0  0  0
 26 27  1  0  0  0
 28102  1  0  0  0
 28103  1  0  0  0
 29104  1  0  0  0
 29105  1  0  0  0
 33 34  1  0  0  0
 33 66  1  0  0  0
 33 70  2  0  0  0
 34 36  1  0  0  0
 34 59  1  0  0  0
 34106  1  0  0  0
 35 44  2  0  0  0
 35 45  1  0  0  0
 35 68  1  0  0  0
 36 56  1  0  0  0
 36107  1  0  0  0
 37 39  1  0  0  0
 37 47  1  0  0  0
 37 66  1  0  0  0
 37108  1  0  0  0
 38 43  2  0  0  0
 38 46  1  0  0  0
 38 47  1  0  0  0
 39 64  1  0  0  0
 39 67  2  0  0  0
 40 52  1  0  0  0
 40 53  2  0  0  0
 40 58  1  0  0  0
 41109  1  0  0  0
 41110  1  0  0  0
 41111  1  0  0  0
 41 48  1  0  0  0
 42 43  1  0  0  0
 42 66  1  0  0  0
 42112  1  0  0  0
 42113  1  0  0  0
 43 44  1  0  0  0
 44114  1  0  0  0
 45 46  2  0  0  0
 45115  1  0  0  0
 46116  1  0  0  0
 47117  1  0  0  0
 47118  1  0  0  0
 48 56  1  0  0  0
 48 65  1  0  0  0
 48119  1  0  0  0
 49 50  1  0  0  0
 49 53  1  0  0  0
 49 64  1  0  0  0
 49120  1  0  0  0
 50 51  1  0  0  0
 50121  1  0  0  0
 50122  1  0  0  0
 51 52  1  0  0  0
 51123  1  0  0  0
 51124  1  0  0  0
 52125  1  0  0  0
 52126  1  0  0  0
 53 54  1  0  0  0
 54 55  2  0  0  0
 54127  1  0  0  0
 55 57  1  0  0  0
 55128  1  0  0  0
 56 69  2  0  0  0
 57 58  2  0  0  0
 57129  1  0  0  0
 58130  1  0  0  0
 59 60  1  0  0  0
 59 61  1  0  0  0
 59 62  1  0  0  0
 60131  1  0  0  0
 60132  1  0  0  0
 60133  1  0  0  0
 61134  1  0  0  0
 61135  1  0  0  0
 61136  1  0  0  0
 62137  1  0  0  0
 62138  1  0  0  0
 62139  1  0  0  0
 63 65  1  0  0  0
 63140  1  0  0  0
 63141  1  0  0  0
 63142  1  0  0  0
 64143  1  0  0  0
 65144  1  0  0  0
 68 78  1  0  0  0
 71 74  2  0  0  0
 71 75  1  0  0  0
 71145  1  0  0  0
 72 74  1  0  0  0
 72 76  2  0  0  0
 72146  1  0  0  0
 73 75  2  0  0  0
 73 76  1  0  0  0
 73147  1  0  0  0
 74 79  1  0  0  0
 75 82  1  0  0  0
 76 83  1  0  0  0
 77 78  2  0  0  0
 77 80  1  0  0  0
 77148  1  0  0  0
 78149  1  0  0  0
 79 81  1  0  0  0
 79 84  2  0  0  0
 80 82  1  0  0  0
 80 85  2  0  0  0
 81150  1  0  0  0
 81151  1  0  0  0
 82152  1  0  0  0
 83153  1  0  0  0
 84154  1  0  0  0
 84155  1  0  0  0
M  CHG  1  84   1
M  ISO  4   1 100  68 101  78 101  83 100
M  END
> <chiral flag>
0

> <version>
0

> <s_m_source_file>
/data/baiqing/PycharmProjects/Reinvent-master-3.2/result/LINK_invent/BTK/process_docking_weight1_custom_product_contain_oxygen_bond_distance_aromatic_linkinvent_7_9_3/rearranged_h_0071.sdf

> <i_m_source_file_index>
69

> <r_mmod_Potential_Energy-OPLS-2005>
-93.3492202758789

> <r_mmod_Stretch_Energy-OPLS-2005>
153.157730102539

> <r_mmod_Bend_Energy-OPLS-2005>
173.677810668945

> <r_mmod_Torsional_Energy-OPLS-2005>
276.308380126953

> <r_mmod_Improper_Torsional_Energy-OPLS-2005>
6.50043106079102

> <r_mmod_Van_der_Waal_Energy-OPLS-2005>
139.578491210938

> <r_mmod_Electrostatic_Energy-OPLS-2005>
-492.774353027344

> <r_mmod_Solvation_Energy-OPLS-2005>
-466.680969238281

> <b_mmod_Minimization_Converged-OPLS-2005>
0

> <r_mmod_RMS_Derivative-OPLS-2005>
2.32938003540039

$$$$
70
                    3D
 Structure written by MMmdl.
151159  0  0  1  0            999 V2000
  -30.6414  -14.7410   20.3875 C   0  0  0  0  0  0
  -30.4252  -12.4589   19.4034 C   0  0  0  0  0  0
  -29.4849  -12.4738   18.1792 C   0  0  0  0  0  0
  -28.0065  -12.3489   18.6048 C   0  0  0  0  0  0
  -27.6344  -13.2359   19.8266 C   0  0  2  0  0  0
  -28.7092  -13.1782   20.9378 C   0  0  0  0  0  0
  -25.2414  -13.8163   20.5619 C   0  0  0  0  0  0
  -24.1751  -13.0393   20.9250 C   0  0  0  0  0  0
  -24.6381  -11.6894   20.8769 C   0  0  0  0  0  0
  -23.9026  -10.4254   21.0358 C   0  0  0  0  0  0
  -24.3568   -9.4187   21.9154 C   0  0  0  0  0  0
  -23.6274   -8.2212   22.0742 C   0  0  0  0  0  0
  -22.4257   -8.0228   21.3516 C   0  0  0  0  0  0
  -21.9870   -9.0189   20.4607 C   0  0  0  0  0  0
  -22.7190  -10.2087   20.3020 C   0  0  0  0  0  0
  -21.6891   -6.0666   22.5242 C   0  0  0  0  0  0
  -21.4021   -6.5559   23.8165 C   0  0  0  0  0  0
  -21.3675   -5.6752   24.9149 C   0  0  0  0  0  0
  -21.6052   -4.3002   24.7237 C   0  0  0  0  0  0
  -21.8829   -3.8054   23.4362 C   0  0  0  0  0  0
  -21.9201   -4.6875   22.3397 C   0  0  0  0  0  0
  -22.7786  -13.5157   21.1889 C   0  0  0  0  0  0
  -22.1651   -4.2056   21.0995 F   0  0  0  0  0  0
  -21.5662   -3.4496   25.7751 F   0  0  0  0  0  0
  -29.9924  -13.5287   20.3250 N   0  0  0  0  0  0
  -26.2916  -12.9444   20.3256 N   0  0  0  0  0  0
  -25.9321  -11.6555   20.5765 N   0  0  0  0  0  0
  -22.0407  -12.8169   22.0446 N   0  0  0  0  0  0
  -25.3979  -15.1911   20.3821 N   0  0  0  0  0  0
  -31.8531  -14.7887   20.1726 O   0  0  0  0  0  0
  -21.6663   -6.8805   21.4206 O   0  0  0  0  0  0
  -22.3448  -14.5448   20.6702 O   0  0  0  0  0  0
  -24.6346  -31.8513   23.1981 C   0  0  0  0  0  0
  -25.9152  -32.4713   23.8314 C   0  0  1  0  0  0
  -27.2103  -27.2352   20.1413 C   0  0  0  0  0  0
  -25.5903  -33.8515   24.2171 N   0  0  0  0  0  0
  -23.4258  -30.4740   21.5442 C   0  0  2  0  0  0
  -24.8636  -28.9081   20.1102 C   0  0  0  0  0  0
  -22.7427  -29.4647   22.4983 C   0  0  0  0  0  0
  -18.0302  -28.1192   22.8513 C   0  0  0  0  0  0
  -24.1482  -36.7311   23.2656 C   0  0  0  0  0  0
  -25.9725  -30.7499   21.3814 C   0  0  0  0  0  0
  -26.0361  -29.3748   20.7194 C   0  0  0  0  0  0
  -27.2054  -28.5503   20.7181 C   0  0  0  0  0  0
  -26.0076  -26.8234   19.5261 C   0  0  0  0  0  0
  -24.8519  -27.6378   19.5061 C   0  0  0  0  0  0
  -23.6394  -29.8058   20.1611 C   0  0  0  0  0  0
  -25.4122  -36.3060   24.0313 C   0  0  1  0  0  0
  -20.5867  -28.3679   23.1183 C   0  0  2  0  0  0
  -20.6907  -26.9465   22.5117 C   0  0  0  0  0  0
  -19.5693  -26.6086   21.5332 C   0  0  0  0  0  0
  -18.1928  -26.7731   22.1736 C   0  0  0  0  0  0
  -19.1520  -28.8717   23.2882 C   0  0  0  0  0  0
  -18.9384  -30.1319   23.8825 C   0  0  0  0  0  0
  -17.6398  -30.6397   24.0431 C   0  0  0  0  0  0
  -25.9053  -34.9418   23.5052 C   0  0  0  0  0  0
  -16.5310  -29.8858   23.6186 C   0  0  0  0  0  0
  -16.7269  -28.6210   23.0345 C   0  0  0  0  0  0
  -26.4484  -31.6621   25.0773 C   0  0  0  0  0  0
  -25.3715  -31.3819   26.1536 C   0  0  0  0  0  0
  -27.0332  -30.2995   24.6364 C   0  0  0  0  0  0
  -27.5931  -32.4484   25.7602 C   0  0  0  0  0  0
  -27.5544  -37.1860   24.8484 C   0  0  0  0  0  0
  -21.4134  -29.3210   22.3744 N   0  0  0  0  0  0
  -26.4310  -37.3746   23.9357 N   0  0  0  0  0  0
  -24.6971  -31.0459   22.0942 N   0  0  0  0  0  0
  -23.4112  -28.8104   23.3023 O   0  0  0  0  0  0
  -28.3202  -26.3607   20.2521 O   0  0  0  0  0  0
  -26.5650  -34.8947   22.4641 O   0  0  0  0  0  0
  -23.5492  -32.1321   23.7265 O   0  0  0  0  0  0
  -31.5649  -17.7036   20.8386 C   0  0  0  0  0  0
  -31.9658  -19.0498   20.9282 C   0  0  0  0  0  0
  -29.3472  -18.4791   20.2102 C   0  0  0  0  0  0
  -29.7174  -19.8967   20.3263 C   0  0  0  0  0  0
  -30.2461  -17.3485   20.4659 C   0  0  0  0  0  0
  -31.0788  -20.1233   20.6893 C   0  0  0  0  0  0
  -28.2626  -23.5892   20.0483 C   0  0  0  0  0  0
  -28.7470  -21.1398   20.1206 C   0  0  0  0  0  0
  -28.5231  -25.0820   19.4755 C   0  0  0  0  0  0
  -29.0751  -22.5278   20.0338 N   0  0  0  0  0  0
  -29.8655  -15.8962   20.4012 N   0  0  0  0  0  0
  -27.4856  -20.8343   19.9827 N   0  3  0  0  0  0
  -31.5724  -21.3769   20.8419 F   0  0  0  0  0  0
  -31.4473  -12.6133   19.0637 H   0  0  0  0  0  0
  -30.4182  -11.4882   19.8961 H   0  0  0  0  0  0
  -29.7463  -11.6550   17.5041 H   0  0  0  0  0  0
  -29.6243  -13.3859   17.5980 H   0  0  0  0  0  0
  -27.7995  -11.3016   18.8252 H   0  0  0  0  0  0
  -27.3776  -12.6135   17.7565 H   0  0  0  0  0  0
  -27.6055  -14.2558   19.4448 H   0  0  0  0  0  0
  -28.7834  -12.1828   21.3668 H   0  0  0  0  0  0
  -28.4681  -13.8693   21.7482 H   0  0  0  0  0  0
  -25.2725   -9.5723   22.4718 H   0  0  0  0  0  0
  -23.9983   -7.4626   22.7476 H   0  0  0  0  0  0
  -21.0792   -8.8656   19.8942 H   0  0  0  0  0  0
  -22.3566  -10.9595   19.6090 H   0  0  0  0  0  0
  -21.1994   -7.6067   23.9645 H   0  0  0  0  0  0
  -21.1528   -6.0477   25.9059 H   0  0  0  0  0  0
  -22.0623   -2.7528   23.2908 H   0  0  0  0  0  0
  -22.4049  -11.9843   22.4832 H   0  0  0  0  0  0
  -21.0977  -13.1133   22.2537 H   0  0  0  0  0  0
  -24.5709  -15.7781   20.3550 H   0  0  0  0  0  0
  -26.1777  -15.6027   19.8899 H   0  0  0  0  0  0
  -26.7227  -32.5282   23.1070 H   0  0  0  0  0  0
  -25.0028  -33.9597   25.0310 H   0  0  0  0  0  0
  -22.7281  -31.3043   21.4034 H   0  0  0  0  0  0
  -23.3700  -35.9695   23.3387 H   0  0  0  0  0  0
  -24.3509  -36.8874   22.2045 H   0  0  0  0  0  0
  -23.7337  -37.6563   23.6671 H   0  0  0  0  0  0
  -26.1360  -31.5073   20.6143 H   0  0  0  0  0  0
  -26.8449  -30.7712   22.0264 H   0  0  0  0  0  0
  -28.1009  -28.9023   21.2029 H   0  0  0  0  0  0
  -25.9328  -25.8319   19.1096 H   0  0  0  0  0  0
  -23.9446  -27.2581   19.0575 H   0  0  0  0  0  0
  -23.7766  -30.5914   19.4173 H   0  0  0  0  0  0
  -22.7518  -29.2531   19.8452 H   0  0  0  0  0  0
  -25.1328  -36.1865   25.0808 H   0  0  0  0  0  0
  -20.9997  -28.3097   24.1269 H   0  0  0  0  0  0
  -21.6545  -26.7981   22.0226 H   0  0  0  0  0  0
  -20.6388  -26.2202   23.3251 H   0  0  0  0  0  0
  -19.6831  -25.5830   21.1829 H   0  0  0  0  0  0
  -19.6445  -27.2593   20.6600 H   0  0  0  0  0  0
  -17.4278  -26.6592   21.4047 H   0  0  0  0  0  0
  -18.0314  -25.9926   22.9204 H   0  0  0  0  0  0
  -19.7906  -30.7191   24.2042 H   0  0  0  0  0  0
  -17.4882  -31.6149   24.4857 H   0  0  0  0  0  0
  -15.5294  -30.2739   23.7262 H   0  0  0  0  0  0
  -15.8704  -28.0469   22.7011 H   0  0  0  0  0  0
  -24.5871  -30.7147   25.7961 H   0  0  0  0  0  0
  -24.8982  -32.3016   26.4961 H   0  0  0  0  0  0
  -25.8092  -30.9050   27.0324 H   0  0  0  0  0  0
  -26.2933  -29.6764   24.1340 H   0  0  0  0  0  0
  -27.3819  -29.7259   25.4957 H   0  0  0  0  0  0
  -27.8897  -30.4156   23.9736 H   0  0  0  0  0  0
  -27.2365  -33.3790   26.2061 H   0  0  0  0  0  0
  -28.3846  -32.7078   25.0556 H   0  0  0  0  0  0
  -28.0534  -31.8773   26.5677 H   0  0  0  0  0  0
  -28.2684  -38.0022   24.7312 H   0  0  0  0  0  0
  -28.0907  -36.2535   24.6604 H   0  0  0  0  0  0
  -27.2222  -37.1907   25.8883 H   0  0  0  0  0  0
  -20.9347  -29.9091   21.7046 H   0  0  0  0  0  0
  -26.0163  -38.2836   24.1243 H   0  0  0  0  0  0
  -32.3149  -16.9627   21.0891 H   0  0  0  0  0  0
  -32.9899  -19.2484   21.2146 H   0  0  0  0  0  0
  -28.3377  -18.2507   19.9090 H   0  0  0  0  0  0
  -27.2286  -23.4798   20.3920 H   0  0  0  0  0  0
  -27.9944  -25.1657   18.5261 H   0  0  0  0  0  0
  -29.5698  -25.1041   19.1739 H   0  0  0  0  0  0
  -28.8785  -15.7034   20.3327 H   0  0  0  0  0  0
  -27.1326  -19.8790   19.9272 H   0  0  0  0  0  0
  -26.7661  -21.5236   19.7895 H   0  0  0  0  0  0
  1 25  1  0  0  0
  1 30  2  0  0  0
  1 81  1  0  0  0
  2  3  1  0  0  0
  2 25  1  0  0  0
  2 84  1  0  0  0
  2 85  1  0  0  0
  3  4  1  0  0  0
  3 86  1  0  0  0
  3 87  1  0  0  0
  4  5  1  0  0  0
  4 88  1  0  0  0
  4 89  1  0  0  0
  5  6  1  0  0  0
  5 26  1  0  0  0
  5 90  1  0  0  0
  6 25  1  0  0  0
  6 91  1  0  0  0
  6 92  1  0  0  0
  7  8  2  0  0  0
  7 26  1  0  0  0
  7 29  1  0  0  0
  8  9  1  0  0  0
  8 22  1  0  0  0
  9 10  1  0  0  0
  9 27  2  0  0  0
 10 11  2  0  0  0
 10 15  1  0  0  0
 11 12  1  0  0  0
 11 93  1  0  0  0
 12 13  2  0  0  0
 12 94  1  0  0  0
 13 14  1  0  0  0
 13 31  1  0  0  0
 14 15  2  0  0  0
 14 95  1  0  0  0
 15 96  1  0  0  0
 16 17  2  0  0  0
 16 21  1  0  0  0
 16 31  1  0  0  0
 17 18  1  0  0  0
 17 97  1  0  0  0
 18 19  2  0  0  0
 18 98  1  0  0  0
 19 20  1  0  0  0
 19 24  1  0  0  0
 20 21  2  0  0  0
 20 99  1  0  0  0
 21 23  1  0  0  0
 22 28  1  0  0  0
 22 32  2  0  0  0
 26 27  1  0  0  0
 28100  1  0  0  0
 28101  1  0  0  0
 29102  1  0  0  0
 29103  1  0  0  0
 33 34  1  0  0  0
 33 66  1  0  0  0
 33 70  2  0  0  0
 34 36  1  0  0  0
 34 59  1  0  0  0
 34104  1  0  0  0
 35 44  2  0  0  0
 35 45  1  0  0  0
 35 68  1  0  0  0
 36 56  1  0  0  0
 36105  1  0  0  0
 37 39  1  0  0  0
 37 47  1  0  0  0
 37 66  1  0  0  0
 37106  1  0  0  0
 38 43  2  0  0  0
 38 46  1  0  0  0
 38 47  1  0  0  0
 39 64  1  0  0  0
 39 67  2  0  0  0
 40 52  1  0  0  0
 40 53  2  0  0  0
 40 58  1  0  0  0
 41107  1  0  0  0
 41108  1  0  0  0
 41109  1  0  0  0
 41 48  1  0  0  0
 42 43  1  0  0  0
 42 66  1  0  0  0
 42110  1  0  0  0
 42111  1  0  0  0
 43 44  1  0  0  0
 44112  1  0  0  0
 45 46  2  0  0  0
 45113  1  0  0  0
 46114  1  0  0  0
 47115  1  0  0  0
 47116  1  0  0  0
 48 56  1  0  0  0
 48 65  1  0  0  0
 48117  1  0  0  0
 49 50  1  0  0  0
 49 53  1  0  0  0
 49 64  1  0  0  0
 49118  1  0  0  0
 50 51  1  0  0  0
 50119  1  0  0  0
 50120  1  0  0  0
 51 52  1  0  0  0
 51121  1  0  0  0
 51122  1  0  0  0
 52123  1  0  0  0
 52124  1  0  0  0
 53 54  1  0  0  0
 54 55  2  0  0  0
 54125  1  0  0  0
 55 57  1  0  0  0
 55126  1  0  0  0
 56 69  2  0  0  0
 57 58  2  0  0  0
 57127  1  0  0  0
 58128  1  0  0  0
 59 60  1  0  0  0
 59 61  1  0  0  0
 59 62  1  0  0  0
 60129  1  0  0  0
 60130  1  0  0  0
 60131  1  0  0  0
 61132  1  0  0  0
 61133  1  0  0  0
 61134  1  0  0  0
 62135  1  0  0  0
 62136  1  0  0  0
 62137  1  0  0  0
 63 65  1  0  0  0
 63138  1  0  0  0
 63139  1  0  0  0
 63140  1  0  0  0
 64141  1  0  0  0
 65142  1  0  0  0
 68 79  1  0  0  0
 71 72  2  0  0  0
 71 75  1  0  0  0
 71143  1  0  0  0
 72 76  1  0  0  0
 72144  1  0  0  0
 73 74  1  0  0  0
 73 75  2  0  0  0
 73145  1  0  0  0
 74 76  2  0  0  0
 74 78  1  0  0  0
 75 81  1  0  0  0
 76 83  1  0  0  0
 77 79  1  0  0  0
 77 80  2  0  0  0
 77146  1  0  0  0
 78 80  1  0  0  0
 78 82  2  0  0  0
 79147  1  0  0  0
 79148  1  0  0  0
 81149  1  0  0  0
 82150  1  0  0  0
 82151  1  0  0  0
M  CHG  1  82   1
M  ISO  4   1 100  68 101  79 101  81 100
M  END
> <chiral flag>
0

> <version>
0

> <s_m_source_file>
/data/baiqing/PycharmProjects/Reinvent-master-3.2/result/LINK_invent/BTK/process_docking_weight1_custom_product_contain_oxygen_bond_distance_aromatic_linkinvent_7_9_3/rearranged_h_0071.sdf

> <i_m_source_file_index>
70

> <r_mmod_Potential_Energy-OPLS-2005>
353.193359375

> <r_mmod_Stretch_Energy-OPLS-2005>
167.397201538086

> <r_mmod_Bend_Energy-OPLS-2005>
188.398941040039

> <r_mmod_Torsional_Energy-OPLS-2005>
231.710510253906

> <r_mmod_Improper_Torsional_Energy-OPLS-2005>
10.0874929428101

> <r_mmod_Van_der_Waal_Energy-OPLS-2005>
147.735244750977

> <r_mmod_Electrostatic_Energy-OPLS-2005>
15.4985780715942

> <r_mmod_Solvation_Energy-OPLS-2005>
-506.002563476562

> <b_mmod_Minimization_Converged-OPLS-2005>
0

> <r_mmod_RMS_Derivative-OPLS-2005>
10.2564420700073

$$$$
71
                    3D
 Structure written by MMmdl.
155164  0  0  1  0            999 V2000
  -30.5907  -14.7716   20.4115 C   0  0  0  0  0  0
  -30.4320  -12.4560   19.5014 C   0  0  0  0  0  0
  -29.5161  -12.4731   18.2577 C   0  0  0  0  0  0
  -28.0477  -12.2889   18.6809 C   0  0  0  0  0  0
  -27.6408  -13.2233   19.8512 C   0  0  2  0  0  0
  -28.6802  -13.1927   20.9942 C   0  0  0  0  0  0
  -25.2535  -13.8185   20.5709 C   0  0  0  0  0  0
  -24.1812  -13.0440   20.9217 C   0  0  0  0  0  0
  -24.6377  -11.6919   20.8762 C   0  0  0  0  0  0
  -23.9056  -10.4298   21.0422 C   0  0  0  0  0  0
  -24.3596   -9.4220   21.9210 C   0  0  0  0  0  0
  -23.6272   -8.2251   22.0777 C   0  0  0  0  0  0
  -22.4267   -8.0289   21.3551 C   0  0  0  0  0  0
  -21.9900   -9.0267   20.4661 C   0  0  0  0  0  0
  -22.7226  -10.2151   20.3074 C   0  0  0  0  0  0
  -21.6849   -6.0737   22.5279 C   0  0  0  0  0  0
  -21.4016   -6.5645   23.8210 C   0  0  0  0  0  0
  -21.3658   -5.6792   24.9175 C   0  0  0  0  0  0
  -21.6032   -4.3052   24.7221 C   0  0  0  0  0  0
  -21.8817   -3.8153   23.4339 C   0  0  0  0  0  0
  -21.9198   -4.6969   22.3397 C   0  0  0  0  0  0
  -22.7848  -13.5250   21.1866 C   0  0  0  0  0  0
  -22.1666   -4.2157   21.0970 F   0  0  0  0  0  0
  -21.5625   -3.4534   25.7734 F   0  0  0  0  0  0
  -29.9800  -13.5375   20.4088 N   0  0  0  0  0  0
  -26.2933  -12.9366   20.3297 N   0  0  0  0  0  0
  -25.9304  -11.6528   20.5787 N   0  0  0  0  0  0
  -22.0465  -12.8253   22.0407 N   0  0  0  0  0  0
  -25.4223  -15.1891   20.4111 N   0  0  0  0  0  0
  -31.7882  -14.8447   20.1179 O   0  0  0  0  0  0
  -21.6638   -6.8881   21.4245 O   0  0  0  0  0  0
  -22.3559  -14.5571   20.6721 O   0  0  0  0  0  0
  -24.6290  -31.8525   23.2019 C   0  0  0  0  0  0
  -25.9116  -32.4753   23.8379 C   0  0  1  0  0  0
  -27.2184  -27.2561   20.1108 C   0  0  0  0  0  0
  -25.5896  -33.8558   24.2270 N   0  0  0  0  0  0
  -23.4271  -30.4734   21.5434 C   0  0  2  0  0  0
  -24.8747  -28.9153   20.1075 C   0  0  0  0  0  0
  -22.7493  -29.4564   22.4913 C   0  0  0  0  0  0
  -18.0290  -28.1343   22.8486 C   0  0  0  0  0  0
  -24.1473  -36.7269   23.2654 C   0  0  0  0  0  0
  -25.9759  -30.7560   21.3929 C   0  0  0  0  0  0
  -26.0438  -29.3819   20.7206 C   0  0  0  0  0  0
  -27.2144  -28.5594   20.7152 C   0  0  0  0  0  0
  -26.0248  -26.8465   19.4812 C   0  0  0  0  0  0
  -24.8671  -27.6551   19.4840 C   0  0  0  0  0  0
  -23.6469  -29.8033   20.1590 C   0  0  0  0  0  0
  -25.4103  -36.3062   24.0337 C   0  0  1  0  0  0
  -20.5890  -28.3647   23.1268 C   0  0  2  0  0  0
  -20.6759  -26.9356   22.5396 C   0  0  0  0  0  0
  -19.5745  -26.6358   21.5176 C   0  0  0  0  0  0
  -18.1929  -26.7898   22.1584 C   0  0  0  0  0  0
  -19.1545  -28.8814   23.2876 C   0  0  0  0  0  0
  -18.9484  -30.1416   23.8891 C   0  0  0  0  0  0
  -17.6492  -30.6580   24.0523 C   0  0  0  0  0  0
  -25.9036  -34.9437   23.5113 C   0  0  0  0  0  0
  -16.5369  -29.9066   23.6339 C   0  0  0  0  0  0
  -16.7280  -28.6459   23.0400 C   0  0  0  0  0  0
  -26.4486  -31.6654   25.0824 C   0  0  0  0  0  0
  -25.3713  -31.3796   26.1559 C   0  0  0  0  0  0
  -27.0424  -30.3083   24.6434 C   0  0  0  0  0  0
  -27.5989  -32.4484   25.7594 C   0  0  0  0  0  0
  -27.5579  -37.1772   24.8456 C   0  0  0  0  0  0
  -21.4201  -29.3003   22.3672 N   0  0  0  0  0  0
  -26.4277  -37.3768   23.9423 N   0  0  0  0  0  0
  -24.6955  -31.0487   22.0987 N   0  0  0  0  0  0
  -23.4209  -28.8108   23.3001 O   0  0  0  0  0  0
  -28.3340  -26.3956   20.1978 O   0  0  0  0  0  0
  -26.5634  -34.8902   22.4703 O   0  0  0  0  0  0
  -23.5434  -32.1363   23.7301 O   0  0  0  0  0  0
  -30.8067  -18.5762   18.0321 C   0  0  0  0  0  0
  -30.2155  -19.7627   18.5056 C   0  0  0  0  0  0
  -30.6878  -17.3639   18.7367 C   0  0  0  0  0  0
  -29.3680  -18.5282   20.4194 C   0  0  0  0  0  0
  -29.4895  -19.8125   19.7180 C   0  0  0  0  0  0
  -29.9659  -17.2740   19.9485 C   0  0  0  0  0  0
  -28.4891  -23.1220   21.3768 C   0  0  0  0  0  0
  -28.8653  -21.6352   21.3883 C   0  0  0  0  0  0
  -28.7626  -22.3387   19.1951 C   0  0  0  0  0  0
  -28.1342  -23.5755   19.9773 C   0  0  2  0  0  0
  -28.5022  -25.0877   19.4754 C   0  0  0  0  0  0
  -28.4273  -23.8618   22.4054 N   0  0  0  0  0  0
  -28.9566  -21.1590   20.1222 N   0  0  0  0  0  0
  -29.8127  -15.9211   20.5674 N   0  0  0  0  0  0
  -29.0440  -20.9965   22.4325 O   0  0  0  0  0  0
  -31.4753  -12.5714   19.2058 H   0  0  0  0  0  0
  -30.3750  -11.4931   20.0111 H   0  0  0  0  0  0
  -29.8057  -11.6763   17.5705 H   0  0  0  0  0  0
  -29.6337  -13.4117   17.7142 H   0  0  0  0  0  0
  -27.9354  -11.2498   18.9941 H   0  0  0  0  0  0
  -27.3785  -12.4175   17.8299 H   0  0  0  0  0  0
  -27.6288  -14.2328   19.4407 H   0  0  0  0  0  0
  -28.7210  -12.2091   21.4649 H   0  0  0  0  0  0
  -28.4079  -13.8948   21.7828 H   0  0  0  0  0  0
  -25.2717   -9.5719   22.4821 H   0  0  0  0  0  0
  -23.9979   -7.4658   22.7510 H   0  0  0  0  0  0
  -21.0833   -8.8792   19.8968 H   0  0  0  0  0  0
  -22.3670  -10.9706   19.6209 H   0  0  0  0  0  0
  -21.2011   -7.6153   23.9720 H   0  0  0  0  0  0
  -21.1476   -6.0520   25.9075 H   0  0  0  0  0  0
  -22.0594   -2.7618   23.2833 H   0  0  0  0  0  0
  -22.4053  -11.9881   22.4752 H   0  0  0  0  0  0
  -21.1101  -13.1352   22.2628 H   0  0  0  0  0  0
  -24.6471  -15.8343   20.5150 H   0  0  0  0  0  0
  -26.2615  -15.6339   20.0618 H   0  0  0  0  0  0
  -26.7184  -32.5381   23.1117 H   0  0  0  0  0  0
  -24.9927  -33.9669   25.0334 H   0  0  0  0  0  0
  -22.7228  -31.2942   21.3963 H   0  0  0  0  0  0
  -23.3765  -35.9569   23.3280 H   0  0  0  0  0  0
  -24.3523  -36.8947   22.2066 H   0  0  0  0  0  0
  -23.7187  -37.6438   23.6718 H   0  0  0  0  0  0
  -26.1457  -31.5294   20.6416 H   0  0  0  0  0  0
  -26.8339  -30.7774   22.0529 H   0  0  0  0  0  0
  -28.1103  -28.8997   21.2184 H   0  0  0  0  0  0
  -25.9565  -25.8705   19.0204 H   0  0  0  0  0  0
  -23.9652  -27.2887   19.0137 H   0  0  0  0  0  0
  -23.7631  -30.5788   19.4003 H   0  0  0  0  0  0
  -22.7660  -29.2331   19.8600 H   0  0  0  0  0  0
  -25.1280  -36.1905   25.0829 H   0  0  0  0  0  0
  -20.9954  -28.3225   24.1396 H   0  0  0  0  0  0
  -20.5622  -26.2225   23.3584 H   0  0  0  0  0  0
  -21.6637  -26.7370   22.1203 H   0  0  0  0  0  0
  -19.6889  -25.6271   21.1219 H   0  0  0  0  0  0
  -19.6725  -27.3141   20.6694 H   0  0  0  0  0  0
  -17.4184  -26.6653   21.4004 H   0  0  0  0  0  0
  -18.0330  -26.0033   22.8968 H   0  0  0  0  0  0
  -19.7972  -30.7192   24.2292 H   0  0  0  0  0  0
  -17.5069  -31.6270   24.5095 H   0  0  0  0  0  0
  -15.5373  -30.2954   23.7713 H   0  0  0  0  0  0
  -15.8660  -28.0759   22.7196 H   0  0  0  0  0  0
  -24.5779  -30.7302   25.7859 H   0  0  0  0  0  0
  -24.9041  -32.2956   26.5180 H   0  0  0  0  0  0
  -25.7999  -30.8790   27.0253 H   0  0  0  0  0  0
  -26.3105  -29.6766   24.1390 H   0  0  0  0  0  0
  -27.3981  -29.7435   25.5067 H   0  0  0  0  0  0
  -27.9014  -30.4371   23.9842 H   0  0  0  0  0  0
  -27.2537  -33.3752   26.2204 H   0  0  0  0  0  0
  -28.3756  -32.7147   25.0412 H   0  0  0  0  0  0
  -28.0732  -31.8650   26.5499 H   0  0  0  0  0  0
  -28.2553  -38.0116   24.7565 H   0  0  0  0  0  0
  -28.1120  -36.2637   24.6217 H   0  0  0  0  0  0
  -27.2280  -37.1335   25.8854 H   0  0  0  0  0  0
  -20.9380  -29.8753   21.6896 H   0  0  0  0  0  0
  -26.0164  -38.2841   24.1480 H   0  0  0  0  0  0
  -31.3629  -18.5926   17.1050 H   0  0  0  0  0  0
  -30.3571  -20.6526   17.9094 H   0  0  0  0  0  0
  -31.1460  -16.4898   18.2961 H   0  0  0  0  0  0
  -28.7962  -18.5054   21.3366 H   0  0  0  0  0  0
  -29.7375  -22.6301   18.8028 H   0  0  0  0  0  0
  -28.1490  -22.0589   18.3378 H   0  0  0  0  0  0
  -27.0492  -23.4813   19.9086 H   0  0  0  0  0  0
  -28.0777  -25.2175   18.4783 H   0  0  0  0  0  0
  -29.5755  -25.0672   19.2867 H   0  0  0  0  0  0
  -28.6857  -23.3243   23.2284 H   0  0  0  0  0  0
  -28.9190  -15.7577   21.0097 H   0  0  0  0  0  0
  1 25  1  0  0  0
  1 30  2  0  0  0
  1 84  1  0  0  0
  2  3  1  0  0  0
  2 25  1  0  0  0
  2 86  1  0  0  0
  2 87  1  0  0  0
  3  4  1  0  0  0
  3 88  1  0  0  0
  3 89  1  0  0  0
  4  5  1  0  0  0
  4 90  1  0  0  0
  4 91  1  0  0  0
  5  6  1  0  0  0
  5 26  1  0  0  0
  5 92  1  0  0  0
  6 25  1  0  0  0
  6 93  1  0  0  0
  6 94  1  0  0  0
  7  8  2  0  0  0
  7 26  1  0  0  0
  7 29  1  0  0  0
  8  9  1  0  0  0
  8 22  1  0  0  0
  9 10  1  0  0  0
  9 27  2  0  0  0
 10 11  2  0  0  0
 10 15  1  0  0  0
 11 12  1  0  0  0
 11 95  1  0  0  0
 12 13  2  0  0  0
 12 96  1  0  0  0
 13 14  1  0  0  0
 13 31  1  0  0  0
 14 15  2  0  0  0
 14 97  1  0  0  0
 15 98  1  0  0  0
 16 17  2  0  0  0
 16 21  1  0  0  0
 16 31  1  0  0  0
 17 18  1  0  0  0
 17 99  1  0  0  0
 18 19  2  0  0  0
 18100  1  0  0  0
 19 20  1  0  0  0
 19 24  1  0  0  0
 20 21  2  0  0  0
 20101  1  0  0  0
 21 23  1  0  0  0
 22 28  1  0  0  0
 22 32  2  0  0  0
 26 27  1  0  0  0
 28102  1  0  0  0
 28103  1  0  0  0
 29104  1  0  0  0
 29105  1  0  0  0
 33 34  1  0  0  0
 33 66  1  0  0  0
 33 70  2  0  0  0
 34 36  1  0  0  0
 34 59  1  0  0  0
 34106  1  0  0  0
 35 44  2  0  0  0
 35 45  1  0  0  0
 35 68  1  0  0  0
 36 56  1  0  0  0
 36107  1  0  0  0
 37 39  1  0  0  0
 37 47  1  0  0  0
 37 66  1  0  0  0
 37108  1  0  0  0
 38 43  2  0  0  0
 38 46  1  0  0  0
 38 47  1  0  0  0
 39 64  1  0  0  0
 39 67  2  0  0  0
 40 52  1  0  0  0
 40 53  2  0  0  0
 40 58  1  0  0  0
 41109  1  0  0  0
 41110  1  0  0  0
 41111  1  0  0  0
 41 48  1  0  0  0
 42 43  1  0  0  0
 42 66  1  0  0  0
 42112  1  0  0  0
 42113  1  0  0  0
 43 44  1  0  0  0
 44114  1  0  0  0
 45 46  2  0  0  0
 45115  1  0  0  0
 46116  1  0  0  0
 47117  1  0  0  0
 47118  1  0  0  0
 48 56  1  0  0  0
 48 65  1  0  0  0
 48119  1  0  0  0
 49 50  1  0  0  0
 49 53  1  0  0  0
 49 64  1  0  0  0
 49120  1  0  0  0
 50 51  1  0  0  0
 50121  1  0  0  0
 50122  1  0  0  0
 51 52  1  0  0  0
 51123  1  0  0  0
 51124  1  0  0  0
 52125  1  0  0  0
 52126  1  0  0  0
 53 54  1  0  0  0
 54 55  2  0  0  0
 54127  1  0  0  0
 55 57  1  0  0  0
 55128  1  0  0  0
 56 69  2  0  0  0
 57 58  2  0  0  0
 57129  1  0  0  0
 58130  1  0  0  0
 59 60  1  0  0  0
 59 61  1  0  0  0
 59 62  1  0  0  0
 60131  1  0  0  0
 60132  1  0  0  0
 60133  1  0  0  0
 61134  1  0  0  0
 61135  1  0  0  0
 61136  1  0  0  0
 62137  1  0  0  0
 62138  1  0  0  0
 62139  1  0  0  0
 63 65  1  0  0  0
 63140  1  0  0  0
 63141  1  0  0  0
 63142  1  0  0  0
 64143  1  0  0  0
 65144  1  0  0  0
 68 81  1  0  0  0
 71 72  2  0  0  0
 71 73  1  0  0  0
 71145  1  0  0  0
 72 75  1  0  0  0
 72146  1  0  0  0
 73 76  2  0  0  0
 73147  1  0  0  0
 74 75  2  0  0  0
 74 76  1  0  0  0
 74148  1  0  0  0
 75 83  1  0  0  0
 76 84  1  0  0  0
 77 78  1  0  0  0
 77 80  1  0  0  0
 77 82  2  0  0  0
 78 83  1  0  0  0
 78 85  2  0  0  0
 79 80  1  0  0  0
 79 83  1  0  0  0
 79149  1  0  0  0
 79150  1  0  0  0
 80 81  1  0  0  0
 80151  1  0  0  0
 81152  1  0  0  0
 81153  1  0  0  0
 82154  1  0  0  0
 84155  1  0  0  0
M  ISO  4   1 100  68 101  81 101  84 100
M  END
> <chiral flag>
0

> <version>
0

> <s_m_source_file>
/data/baiqing/PycharmProjects/Reinvent-master-3.2/result/LINK_invent/BTK/process_docking_weight1_custom_product_contain_oxygen_bond_distance_aromatic_linkinvent_7_9_3/rearranged_h_0071.sdf

> <i_m_source_file_index>
71

> <r_mmod_Potential_Energy-OPLS-2005>
317.327514648438

> <r_mmod_Stretch_Energy-OPLS-2005>
135.110748291016

> <r_mmod_Bend_Energy-OPLS-2005>
222.88737487793

> <r_mmod_Torsional_Energy-OPLS-2005>
264.506805419922

> <r_mmod_Improper_Torsional_Energy-OPLS-2005>
5.49055528640747

> <r_mmod_Van_der_Waal_Energy-OPLS-2005>
132.867584228516

> <r_mmod_Electrostatic_Energy-OPLS-2005>
-293.182800292969

> <r_mmod_Solvation_Energy-OPLS-2005>
-245.858520507812

> <b_mmod_Minimization_Converged-OPLS-2005>
0

> <r_mmod_RMS_Derivative-OPLS-2005>
3.60978507995605

$$$$
72
                    3D
 Structure written by MMmdl.
166175  0  0  1  0            999 V2000
  -30.6625  -14.4602   20.6316 C   0  0  0  0  0  0
  -30.4435  -12.3054   19.4326 C   0  0  0  0  0  0
  -29.5109  -12.5007   18.2176 C   0  0  0  0  0  0
  -28.0272  -12.3558   18.6144 C   0  0  0  0  0  0
  -27.6672  -13.1887   19.8706 C   0  0  2  0  0  0
  -28.6985  -12.9320   20.9957 C   0  0  0  0  0  0
  -25.2660  -13.8121   20.5640 C   0  0  0  0  0  0
  -24.1868  -13.0435   20.9121 C   0  0  0  0  0  0
  -24.6386  -11.6892   20.8688 C   0  0  0  0  0  0
  -23.9051  -10.4290   21.0387 C   0  0  0  0  0  0
  -24.3617   -9.4194   21.9135 C   0  0  0  0  0  0
  -23.6290   -8.2238   22.0712 C   0  0  0  0  0  0
  -22.4280   -8.0266   21.3526 C   0  0  0  0  0  0
  -21.9895   -9.0247   20.4653 C   0  0  0  0  0  0
  -22.7221  -10.2124   20.3058 C   0  0  0  0  0  0
  -21.6856   -6.0736   22.5264 C   0  0  0  0  0  0
  -21.4041   -6.5653   23.8201 C   0  0  0  0  0  0
  -21.3649   -5.6793   24.9155 C   0  0  0  0  0  0
  -21.6026   -4.3055   24.7218 C   0  0  0  0  0  0
  -21.8828   -3.8148   23.4343 C   0  0  0  0  0  0
  -21.9204   -4.6958   22.3405 C   0  0  0  0  0  0
  -22.7898  -13.5240   21.1774 C   0  0  0  0  0  0
  -22.1660   -4.2142   21.0984 F   0  0  0  0  0  0
  -21.5607   -3.4544   25.7736 F   0  0  0  0  0  0
  -30.0402  -13.2598   20.4756 N   0  0  0  0  0  0
  -26.3051  -12.9248   20.3286 N   0  0  0  0  0  0
  -25.9304  -11.6428   20.5685 N   0  0  0  0  0  0
  -22.0578  -12.8274   22.0394 N   0  0  0  0  0  0
  -25.4472  -15.1829   20.4170 N   0  0  0  0  0  0
  -31.7766  -14.7063   20.1468 O   0  0  0  0  0  0
  -21.6629   -6.8872   21.4235 O   0  0  0  0  0  0
  -22.3587  -14.5521   20.6574 O   0  0  0  0  0  0
  -24.6101  -31.8683   23.2121 C   0  0  0  0  0  0
  -25.9006  -32.4814   23.8397 C   0  0  1  0  0  0
  -27.2140  -27.4415   20.1107 C   0  0  0  0  0  0
  -25.5881  -33.8614   24.2306 N   0  0  0  0  0  0
  -23.3977  -30.4942   21.5507 C   0  0  2  0  0  0
  -24.8403  -28.9595   20.1166 C   0  0  0  0  0  0
  -22.7403  -29.4665   22.4987 C   0  0  0  0  0  0
  -18.0284  -28.1377   22.8463 C   0  0  0  0  0  0
  -24.1484  -36.7324   23.2630 C   0  0  0  0  0  0
  -25.9241  -30.8349   21.3666 C   0  0  0  0  0  0
  -25.9986  -29.4709   20.7153 C   0  0  0  0  0  0
  -27.1925  -28.7171   20.7128 C   0  0  0  0  0  0
  -26.0466  -26.9388   19.5037 C   0  0  0  0  0  0
  -24.8566  -27.6921   19.5080 C   0  0  0  0  0  0
  -23.6060  -29.8304   20.1632 C   0  0  0  0  0  0
  -25.4097  -36.3092   24.0331 C   0  0  1  0  0  0
  -20.5862  -28.3659   23.1310 C   0  0  2  0  0  0
  -20.6755  -26.9388   22.5443 C   0  0  0  0  0  0
  -19.5780  -26.6391   21.5192 C   0  0  0  0  0  0
  -18.1945  -26.7919   22.1589 C   0  0  0  0  0  0
  -19.1530  -28.8839   23.2886 C   0  0  0  0  0  0
  -18.9459  -30.1438   23.8921 C   0  0  0  0  0  0
  -17.6463  -30.6568   24.0593 C   0  0  0  0  0  0
  -25.9033  -34.9466   23.5111 C   0  0  0  0  0  0
  -16.5359  -29.9089   23.6325 C   0  0  0  0  0  0
  -16.7271  -28.6517   23.0309 C   0  0  0  0  0  0
  -26.4465  -31.6625   25.0721 C   0  0  0  0  0  0
  -25.3786  -31.3832   26.1539 C   0  0  0  0  0  0
  -27.0244  -30.3028   24.6129 C   0  0  0  0  0  0
  -27.6071  -32.4352   25.7403 C   0  0  0  0  0  0
  -27.5605  -37.1778   24.8426 C   0  0  0  0  0  0
  -21.4140  -29.3010   22.3708 N   0  0  0  0  0  0
  -26.4270  -37.3790   23.9435 N   0  0  0  0  0  0
  -24.6617  -31.0806   22.1011 N   0  0  0  0  0  0
  -23.4172  -28.8231   23.3050 O   0  0  0  0  0  0
  -28.3556  -26.6822   20.1038 O   0  0  0  0  0  0
  -26.5606  -34.8934   22.4680 O   0  0  0  0  0  0
  -23.5301  -32.1427   23.7530 O   0  0  0  0  0  0
  -31.2026  -21.0458   20.6807 C   0  0  0  0  0  0
  -31.2379  -19.6389   20.6582 C   0  0  0  0  0  0
  -30.1048  -21.0024   22.8195 C   0  0  0  0  0  0
  -30.6117  -21.7778   21.7399 C   0  0  0  0  0  0
  -30.6806  -18.8945   21.7176 C   0  0  0  0  0  0
  -30.1353  -19.5805   22.8293 C   0  0  0  0  0  0
  -30.0119  -24.1957   22.5034 C   0  0  0  0  0  0
  -29.3655  -19.1180   25.1641 C   0  0  0  0  0  0
  -29.7979  -16.6992   20.9649 C   0  0  0  0  0  0
  -30.0374  -23.8088   20.4611 C   0  0  0  0  0  0
  -29.8431  -25.1211   21.2542 C   0  0  2  0  0  0
  -28.5749  -18.1243   26.0076 C   0  0  0  0  0  0
  -30.9463  -26.1849   21.1996 C   0  0  0  0  0  0
  -28.4638  -25.8068   21.2342 C   0  0  0  0  0  0
  -30.5361  -23.2040   21.6888 N   0  0  0  0  0  0
  -29.5407  -18.8069   23.8690 N   0  0  0  0  0  0
  -30.6830  -17.4666   21.6640 N   0  0  0  0  0  0
  -29.8890  -15.3799   21.2544 N   0  0  0  0  0  0
  -29.7244  -24.2116   23.6824 O   0  0  0  0  0  0
  -29.8164  -20.1325   25.7012 O   0  0  0  0  0  0
  -28.5545  -17.2758   20.0005 S   0  0  0  0  0  0
  -31.4851  -12.4367   19.1373 H   0  0  0  0  0  0
  -30.3709  -11.2832   19.8079 H   0  0  0  0  0  0
  -29.7553  -11.7775   17.4393 H   0  0  0  0  0  0
  -29.6807  -13.4856   17.7809 H   0  0  0  0  0  0
  -27.8402  -11.2980   18.8074 H   0  0  0  0  0  0
  -27.3862  -12.6314   17.7756 H   0  0  0  0  0  0
  -27.7213  -14.2371   19.5771 H   0  0  0  0  0  0
  -28.6746  -11.8851   21.2964 H   0  0  0  0  0  0
  -28.4329  -13.4820   21.8999 H   0  0  0  0  0  0
  -25.2773   -9.5627   22.4693 H   0  0  0  0  0  0
  -23.9971   -7.4642   22.7446 H   0  0  0  0  0  0
  -21.0788   -8.8802   19.9011 H   0  0  0  0  0  0
  -22.3654  -10.9678   19.6189 H   0  0  0  0  0  0
  -21.2063   -7.6169   23.9720 H   0  0  0  0  0  0
  -21.1448   -6.0519   25.9056 H   0  0  0  0  0  0
  -22.0622   -2.7618   23.2850 H   0  0  0  0  0  0
  -22.4179  -11.9948   22.4831 H   0  0  0  0  0  0
  -21.1212  -13.1301   22.2627 H   0  0  0  0  0  0
  -24.6917  -15.8480   20.5372 H   0  0  0  0  0  0
  -26.3230  -15.6285   20.1677 H   0  0  0  0  0  0
  -26.7063  -32.5509   23.1155 H   0  0  0  0  0  0
  -25.0043  -33.9793   25.0456 H   0  0  0  0  0  0
  -22.6855  -31.3095   21.4131 H   0  0  0  0  0  0
  -23.3740  -35.9663   23.3254 H   0  0  0  0  0  0
  -24.3597  -36.8978   22.2055 H   0  0  0  0  0  0
  -23.7245  -37.6520   23.6673 H   0  0  0  0  0  0
  -26.0396  -31.6035   20.6023 H   0  0  0  0  0  0
  -26.8083  -30.8790   21.9894 H   0  0  0  0  0  0
  -28.0883  -29.1026   21.1783 H   0  0  0  0  0  0
  -26.0535  -25.9645   19.0358 H   0  0  0  0  0  0
  -23.9627  -27.2936   19.0475 H   0  0  0  0  0  0
  -23.7248  -30.6069   19.4063 H   0  0  0  0  0  0
  -22.7269  -29.2596   19.8570 H   0  0  0  0  0  0
  -25.1274  -36.1938   25.0821 H   0  0  0  0  0  0
  -20.9946  -28.3226   24.1427 H   0  0  0  0  0  0
  -20.5585  -26.2287   23.3644 H   0  0  0  0  0  0
  -21.6639  -26.7388   22.1301 H   0  0  0  0  0  0
  -19.6963  -25.6315   21.1199 H   0  0  0  0  0  0
  -19.6753  -27.3222   20.6739 H   0  0  0  0  0  0
  -17.4227  -26.6647   21.3985 H   0  0  0  0  0  0
  -18.0386  -26.0059   22.8996 H   0  0  0  0  0  0
  -19.7942  -30.7230   24.2304 H   0  0  0  0  0  0
  -17.5026  -31.6219   24.5252 H   0  0  0  0  0  0
  -15.5366  -30.2992   23.7655 H   0  0  0  0  0  0
  -15.8668  -28.0863   22.6974 H   0  0  0  0  0  0
  -24.5869  -30.7238   25.7976 H   0  0  0  0  0  0
  -24.9104  -32.3054   26.4994 H   0  0  0  0  0  0
  -25.8185  -30.9024   27.0285 H   0  0  0  0  0  0
  -26.2763  -29.6805   24.1191 H   0  0  0  0  0  0
  -27.3974  -29.7265   25.4611 H   0  0  0  0  0  0
  -27.8643  -30.4295   23.9286 H   0  0  0  0  0  0
  -27.2677  -33.3584   26.2113 H   0  0  0  0  0  0
  -28.3757  -32.7039   25.0145 H   0  0  0  0  0  0
  -28.0888  -31.8427   26.5192 H   0  0  0  0  0  0
  -28.2557  -38.0135   24.7521 H   0  0  0  0  0  0
  -28.1153  -36.2672   24.6117 H   0  0  0  0  0  0
  -27.2379  -37.1280   25.8840 H   0  0  0  0  0  0
  -20.9324  -29.8682   21.6876 H   0  0  0  0  0  0
  -26.0146  -38.2836   24.1552 H   0  0  0  0  0  0
  -31.6337  -21.5791   19.8445 H   0  0  0  0  0  0
  -31.6748  -19.1307   19.8093 H   0  0  0  0  0  0
  -29.6378  -21.5191   23.6429 H   0  0  0  0  0  0
  -30.7822  -23.8714   19.6656 H   0  0  0  0  0  0
  -29.1032  -23.3616   20.1155 H   0  0  0  0  0  0
  -28.7136  -17.0980   25.6630 H   0  0  0  0  0  0
  -27.5118  -18.3628   25.9609 H   0  0  0  0  0  0
  -28.8856  -18.1734   27.0521 H   0  0  0  0  0  0
  -31.9378  -25.7443   21.0978 H   0  0  0  0  0  0
  -30.9425  -26.8131   22.0905 H   0  0  0  0  0  0
  -30.8133  -26.8484   20.3433 H   0  0  0  0  0  0
  -28.3115  -26.3700   22.1587 H   0  0  0  0  0  0
  -27.6575  -25.0707   21.1979 H   0  0  0  0  0  0
  -29.2370  -17.8838   23.5951 H   0  0  0  0  0  0
  -31.2837  -16.9944   22.3274 H   0  0  0  0  0  0
  -28.9971  -14.9550   21.4515 H   0  0  0  0  0  0
  1 25  1  0  0  0
  1 30  2  0  0  0
  1 88  1  0  0  0
  2  3  1  0  0  0
  2 25  1  0  0  0
  2 92  1  0  0  0
  2 93  1  0  0  0
  3  4  1  0  0  0
  3 94  1  0  0  0
  3 95  1  0  0  0
  4  5  1  0  0  0
  4 96  1  0  0  0
  4 97  1  0  0  0
  5  6  1  0  0  0
  5 26  1  0  0  0
  5 98  1  0  0  0
  6 25  1  0  0  0
  6 99  1  0  0  0
  6100  1  0  0  0
  7  8  2  0  0  0
  7 26  1  0  0  0
  7 29  1  0  0  0
  8  9  1  0  0  0
  8 22  1  0  0  0
  9 10  1  0  0  0
  9 27  2  0  0  0
 10 11  2  0  0  0
 10 15  1  0  0  0
 11 12  1  0  0  0
 11101  1  0  0  0
 12 13  2  0  0  0
 12102  1  0  0  0
 13 14  1  0  0  0
 13 31  1  0  0  0
 14 15  2  0  0  0
 14103  1  0  0  0
 15104  1  0  0  0
 16 17  2  0  0  0
 16 21  1  0  0  0
 16 31  1  0  0  0
 17 18  1  0  0  0
 17105  1  0  0  0
 18 19  2  0  0  0
 18106  1  0  0  0
 19 20  1  0  0  0
 19 24  1  0  0  0
 20 21  2  0  0  0
 20107  1  0  0  0
 21 23  1  0  0  0
 22 28  1  0  0  0
 22 32  2  0  0  0
 26 27  1  0  0  0
 28108  1  0  0  0
 28109  1  0  0  0
 29110  1  0  0  0
 29111  1  0  0  0
 33 34  1  0  0  0
 33 66  1  0  0  0
 33 70  2  0  0  0
 34 36  1  0  0  0
 34 59  1  0  0  0
 34112  1  0  0  0
 35 44  2  0  0  0
 35 45  1  0  0  0
 35 68  1  0  0  0
 36 56  1  0  0  0
 36113  1  0  0  0
 37 39  1  0  0  0
 37 47  1  0  0  0
 37 66  1  0  0  0
 37114  1  0  0  0
 38 43  2  0  0  0
 38 46  1  0  0  0
 38 47  1  0  0  0
 39 64  1  0  0  0
 39 67  2  0  0  0
 40 52  1  0  0  0
 40 53  2  0  0  0
 40 58  1  0  0  0
 41115  1  0  0  0
 41116  1  0  0  0
 41117  1  0  0  0
 41 48  1  0  0  0
 42 43  1  0  0  0
 42 66  1  0  0  0
 42118  1  0  0  0
 42119  1  0  0  0
 43 44  1  0  0  0
 44120  1  0  0  0
 45 46  2  0  0  0
 45121  1  0  0  0
 46122  1  0  0  0
 47123  1  0  0  0
 47124  1  0  0  0
 48 56  1  0  0  0
 48 65  1  0  0  0
 48125  1  0  0  0
 49 50  1  0  0  0
 49 53  1  0  0  0
 49 64  1  0  0  0
 49126  1  0  0  0
 50 51  1  0  0  0
 50127  1  0  0  0
 50128  1  0  0  0
 51 52  1  0  0  0
 51129  1  0  0  0
 51130  1  0  0  0
 52131  1  0  0  0
 52132  1  0  0  0
 53 54  1  0  0  0
 54 55  2  0  0  0
 54133  1  0  0  0
 55 57  1  0  0  0
 55134  1  0  0  0
 56 69  2  0  0  0
 57 58  2  0  0  0
 57135  1  0  0  0
 58136  1  0  0  0
 59 60  1  0  0  0
 59 61  1  0  0  0
 59 62  1  0  0  0
 60137  1  0  0  0
 60138  1  0  0  0
 60139  1  0  0  0
 61140  1  0  0  0
 61141  1  0  0  0
 61142  1  0  0  0
 62143  1  0  0  0
 62144  1  0  0  0
 62145  1  0  0  0
 63 65  1  0  0  0
 63146  1  0  0  0
 63147  1  0  0  0
 63148  1  0  0  0
 64149  1  0  0  0
 65150  1  0  0  0
 68 84  1  0  0  0
 71 72  2  0  0  0
 71 74  1  0  0  0
 71151  1  0  0  0
 72 75  1  0  0  0
 72152  1  0  0  0
 73 74  2  0  0  0
 73 76  1  0  0  0
 73153  1  0  0  0
 74 85  1  0  0  0
 75 76  2  0  0  0
 75 87  1  0  0  0
 76 86  1  0  0  0
 77 81  1  0  0  0
 77 85  1  0  0  0
 77 89  2  0  0  0
 78 82  1  0  0  0
 78 86  1  0  0  0
 78 90  2  0  0  0
 79 87  1  0  0  0
 79 88  1  0  0  0
 79 91  2  0  0  0
 80 81  1  0  0  0
 80 85  1  0  0  0
 80154  1  0  0  0
 80155  1  0  0  0
 81 83  1  0  0  0
 81 84  1  0  0  0
 82156  1  0  0  0
 82157  1  0  0  0
 82158  1  0  0  0
 83159  1  0  0  0
 83160  1  0  0  0
 83161  1  0  0  0
 84162  1  0  0  0
 84163  1  0  0  0
 86164  1  0  0  0
 87165  1  0  0  0
 88166  1  0  0  0
M  ISO  4   1 100  68 101  84 101  88 100
M  END
> <chiral flag>
0

> <version>
0

> <s_m_source_file>
/data/baiqing/PycharmProjects/Reinvent-master-3.2/result/LINK_invent/BTK/process_docking_weight1_custom_product_contain_oxygen_bond_distance_aromatic_linkinvent_7_9_3/rearranged_h_0071.sdf

> <i_m_source_file_index>
72

> <r_mmod_Potential_Energy-OPLS-2005>
-59.7273025512695

> <r_mmod_Stretch_Energy-OPLS-2005>
38.8249855041504

> <r_mmod_Bend_Energy-OPLS-2005>
124.292289733887

> <r_mmod_Torsional_Energy-OPLS-2005>
382.102264404297

> <r_mmod_Improper_Torsional_Energy-OPLS-2005>
13.4717483520508

> <r_mmod_Van_der_Waal_Energy-OPLS-2005>
152.806411743164

> <r_mmod_Electrostatic_Energy-OPLS-2005>
-523.76953125

> <r_mmod_Solvation_Energy-OPLS-2005>
-260.721130371094

> <b_mmod_Minimization_Converged-OPLS-2005>
0

> <r_mmod_RMS_Derivative-OPLS-2005>
4.8330283164978

$$$$
73
                    3D
 Structure written by MMmdl.
158167  0  0  1  0            999 V2000
  -30.6233  -14.6447   20.4984 C   0  0  0  0  0  0
  -30.4394  -12.3950   19.4526 C   0  0  0  0  0  0
  -29.5077  -12.5094   18.2252 C   0  0  0  0  0  0
  -28.0309  -12.3470   18.6377 C   0  0  0  0  0  0
  -27.6541  -13.2179   19.8663 C   0  0  2  0  0  0
  -28.7005  -13.0727   20.9946 C   0  0  0  0  0  0
  -25.2557  -13.8172   20.5696 C   0  0  0  0  0  0
  -24.1814  -13.0430   20.9152 C   0  0  0  0  0  0
  -24.6392  -11.6906   20.8720 C   0  0  0  0  0  0
  -23.9063  -10.4290   21.0396 C   0  0  0  0  0  0
  -24.3615   -9.4209   21.9179 C   0  0  0  0  0  0
  -23.6289   -8.2247   22.0752 C   0  0  0  0  0  0
  -22.4272   -8.0281   21.3543 C   0  0  0  0  0  0
  -21.9901   -9.0255   20.4647 C   0  0  0  0  0  0
  -22.7230  -10.2133   20.3054 C   0  0  0  0  0  0
  -21.6852   -6.0736   22.5277 C   0  0  0  0  0  0
  -21.4017   -6.5642   23.8211 C   0  0  0  0  0  0
  -21.3658   -5.6795   24.9173 C   0  0  0  0  0  0
  -21.6041   -4.3057   24.7225 C   0  0  0  0  0  0
  -21.8820   -3.8148   23.4347 C   0  0  0  0  0  0
  -21.9192   -4.6963   22.3402 C   0  0  0  0  0  0
  -22.7841  -13.5226   21.1834 C   0  0  0  0  0  0
  -22.1661   -4.2147   21.0978 F   0  0  0  0  0  0
  -21.5623   -3.4543   25.7741 F   0  0  0  0  0  0
  -30.0162  -13.4170   20.4307 N   0  0  0  0  0  0
  -26.3000  -12.9359   20.3356 N   0  0  0  0  0  0
  -25.9330  -11.6510   20.5769 N   0  0  0  0  0  0
  -22.0493  -12.8229   22.0407 N   0  0  0  0  0  0
  -25.4257  -15.1900   20.4200 N   0  0  0  0  0  0
  -31.7846  -14.8053   20.1118 O   0  0  0  0  0  0
  -21.6636   -6.8879   21.4240 O   0  0  0  0  0  0
  -22.3519  -14.5531   20.6689 O   0  0  0  0  0  0
  -24.6266  -31.8598   23.2034 C   0  0  0  0  0  0
  -25.9112  -32.4778   23.8359 C   0  0  1  0  0  0
  -27.2230  -27.3158   20.1121 C   0  0  0  0  0  0
  -25.5924  -33.8578   24.2284 N   0  0  0  0  0  0
  -23.4201  -30.4847   21.5465 C   0  0  2  0  0  0
  -24.8661  -28.9427   20.1105 C   0  0  0  0  0  0
  -22.7480  -29.4621   22.4935 C   0  0  0  0  0  0
  -18.0291  -28.1381   22.8484 C   0  0  0  0  0  0
  -24.1492  -36.7301   23.2641 C   0  0  0  0  0  0
  -25.9629  -30.7890   21.3763 C   0  0  0  0  0  0
  -26.0367  -29.4176   20.7155 C   0  0  0  0  0  0
  -27.2179  -28.6160   20.7072 C   0  0  0  0  0  0
  -26.0271  -26.9000   19.4788 C   0  0  0  0  0  0
  -24.8636  -27.6893   19.4836 C   0  0  0  0  0  0
  -23.6346  -29.8230   20.1608 C   0  0  0  0  0  0
  -25.4118  -36.3083   24.0326 C   0  0  1  0  0  0
  -20.5890  -28.3685   23.1281 C   0  0  2  0  0  0
  -20.6778  -26.9407   22.5410 C   0  0  0  0  0  0
  -19.5753  -26.6378   21.5213 C   0  0  0  0  0  0
  -18.1935  -26.7924   22.1625 C   0  0  0  0  0  0
  -19.1543  -28.8851   23.2877 C   0  0  0  0  0  0
  -18.9465  -30.1455   23.8892 C   0  0  0  0  0  0
  -17.6463  -30.6583   24.0563 C   0  0  0  0  0  0
  -25.9047  -34.9449   23.5105 C   0  0  0  0  0  0
  -16.5356  -29.9080   23.6327 C   0  0  0  0  0  0
  -16.7278  -28.6498   23.0349 C   0  0  0  0  0  0
  -26.4491  -31.6589   25.0731 C   0  0  0  0  0  0
  -25.3728  -31.3744   26.1465 C   0  0  0  0  0  0
  -27.0323  -30.3005   24.6194 C   0  0  0  0  0  0
  -27.6056  -32.4321   25.7496 C   0  0  0  0  0  0
  -27.5570  -37.1820   24.8472 C   0  0  0  0  0  0
  -21.4193  -29.3040   22.3678 N   0  0  0  0  0  0
  -26.4306  -37.3764   23.9380 N   0  0  0  0  0  0
  -24.6887  -31.0610   22.0987 N   0  0  0  0  0  0
  -23.4202  -28.8156   23.3012 O   0  0  0  0  0  0
  -28.3346  -26.4545   20.1680 O   0  0  0  0  0  0
  -26.5615  -34.8911   22.4671 O   0  0  0  0  0  0
  -23.5429  -32.1398   23.7358 O   0  0  0  0  0  0
  -30.8545  -19.2631   19.8482 C   0  0  0  0  0  0
  -30.9040  -17.8473   20.0213 C   0  0  0  0  0  0
  -28.7765  -19.3548   21.0389 C   0  0  0  0  0  0
  -29.7832  -20.0730   20.3366 C   0  0  0  0  0  0
  -29.8855  -17.1413   20.7110 C   0  0  0  0  0  0
  -28.8210  -17.9331   21.2359 C   0  0  0  0  0  0
  -30.5318  -22.3287   19.3454 C   0  0  0  0  0  0
  -28.6616  -22.4340   20.7005 C   0  0  0  0  0  0
  -29.1585  -23.9049   20.4512 C   0  0  2  0  0  0
  -26.7139  -17.9946   22.5568 C   0  0  0  0  0  0
  -28.0839  -24.9981   20.0128 C   0  0  0  0  0  0
  -29.7037  -21.5430   20.1514 N   0  0  0  0  0  0
  -29.8175  -15.6850   20.8742 N   0  0  0  0  0  0
  -27.8188  -17.2567   21.9571 N   0  0  0  0  0  0
  -31.4569  -21.9776   18.6123 O   0  0  0  0  0  0
  -30.1390  -23.6285   19.4579 O   0  0  0  0  0  0
  -31.4805  -12.5208   19.1493 H   0  0  0  0  0  0
  -30.3749  -11.3996   19.8946 H   0  0  0  0  0  0
  -29.7716  -11.7582   17.4796 H   0  0  0  0  0  0
  -29.6489  -13.4791   17.7448 H   0  0  0  0  0  0
  -27.8679  -11.2935   18.8690 H   0  0  0  0  0  0
  -27.3759  -12.5769   17.7965 H   0  0  0  0  0  0
  -27.6710  -14.2533   19.5259 H   0  0  0  0  0  0
  -28.7126  -12.0511   21.3767 H   0  0  0  0  0  0
  -28.4451  -13.7031   21.8476 H   0  0  0  0  0  0
  -25.2762   -9.5684   22.4751 H   0  0  0  0  0  0
  -23.9995   -7.4638   22.7474 H   0  0  0  0  0  0
  -21.0827   -8.8777   19.8961 H   0  0  0  0  0  0
  -22.3686  -10.9673   19.6165 H   0  0  0  0  0  0
  -21.2016   -7.6152   23.9714 H   0  0  0  0  0  0
  -21.1478   -6.0527   25.9075 H   0  0  0  0  0  0
  -22.0600   -2.7610   23.2850 H   0  0  0  0  0  0
  -22.4112  -11.9888   22.4793 H   0  0  0  0  0  0
  -21.1120  -13.1272   22.2634 H   0  0  0  0  0  0
  -24.6703  -15.8448   20.5874 H   0  0  0  0  0  0
  -26.3125  -15.6545   20.2625 H   0  0  0  0  0  0
  -26.7181  -32.5442   23.1108 H   0  0  0  0  0  0
  -25.0062  -33.9724   25.0422 H   0  0  0  0  0  0
  -22.7139  -31.3054   21.4052 H   0  0  0  0  0  0
  -23.3718  -35.9677   23.3378 H   0  0  0  0  0  0
  -24.3563  -36.8844   22.2039 H   0  0  0  0  0  0
  -23.7301  -37.6552   23.6613 H   0  0  0  0  0  0
  -26.0978  -31.5538   20.6102 H   0  0  0  0  0  0
  -26.8422  -30.8343   22.0074 H   0  0  0  0  0  0
  -28.1142  -28.9750   21.1937 H   0  0  0  0  0  0
  -25.9546  -25.9461   18.9795 H   0  0  0  0  0  0
  -23.9673  -27.3204   19.0039 H   0  0  0  0  0  0
  -23.7542  -30.6015   19.4064 H   0  0  0  0  0  0
  -22.7539  -29.2540   19.8570 H   0  0  0  0  0  0
  -25.1307  -36.1951   25.0822 H   0  0  0  0  0  0
  -20.9982  -28.3261   24.1402 H   0  0  0  0  0  0
  -20.5676  -26.2295   23.3610 H   0  0  0  0  0  0
  -21.6648  -26.7432   22.1205 H   0  0  0  0  0  0
  -19.6913  -25.6289   21.1242 H   0  0  0  0  0  0
  -19.6689  -27.3188   20.6743 H   0  0  0  0  0  0
  -17.4202  -26.6669   21.4030 H   0  0  0  0  0  0
  -18.0336  -26.0066   22.9022 H   0  0  0  0  0  0
  -19.7941  -30.7275   24.2251 H   0  0  0  0  0  0
  -17.5018  -31.6261   24.5167 H   0  0  0  0  0  0
  -15.5356  -30.2981   23.7648 H   0  0  0  0  0  0
  -15.8679  -28.0816   22.7060 H   0  0  0  0  0  0
  -24.5895  -30.7093   25.7811 H   0  0  0  0  0  0
  -24.8928  -32.2919   26.4881 H   0  0  0  0  0  0
  -25.8056  -30.8935   27.0248 H   0  0  0  0  0  0
  -26.2896  -29.6766   24.1205 H   0  0  0  0  0  0
  -27.3997  -29.7250   25.4703 H   0  0  0  0  0  0
  -27.8781  -30.4278   23.9433 H   0  0  0  0  0  0
  -27.2663  -33.3611   26.2091 H   0  0  0  0  0  0
  -28.3852  -32.6900   25.0316 H   0  0  0  0  0  0
  -28.0739  -31.8439   26.5398 H   0  0  0  0  0  0
  -28.2651  -38.0050   24.7417 H   0  0  0  0  0  0
  -28.1001  -36.2579   24.6433 H   0  0  0  0  0  0
  -27.2271  -37.1638   25.8874 H   0  0  0  0  0  0
  -20.9370  -29.8775   21.6901 H   0  0  0  0  0  0
  -26.0196  -38.2857   24.1317 H   0  0  0  0  0  0
  -31.6807  -19.7044   19.3139 H   0  0  0  0  0  0
  -31.7410  -17.3106   19.5992 H   0  0  0  0  0  0
  -27.9508  -19.9224   21.4375 H   0  0  0  0  0  0
  -27.7261  -22.2476   20.1711 H   0  0  0  0  0  0
  -28.4910  -22.2547   21.7622 H   0  0  0  0  0  0
  -29.6739  -24.2500   21.3481 H   0  0  0  0  0  0
  -26.0428  -17.3072   23.0739 H   0  0  0  0  0  0
  -26.1291  -18.5192   21.7995 H   0  0  0  0  0  0
  -27.0725  -18.7205   23.2884 H   0  0  0  0  0  0
  -27.1960  -24.7731   20.6058 H   0  0  0  0  0  0
  -27.8161  -24.7961   18.9752 H   0  0  0  0  0  0
  -28.9155  -15.3757   21.1983 H   0  0  0  0  0  0
  -28.1108  -16.4243   22.4590 H   0  0  0  0  0  0
  1 25  1  0  0  0
  1 30  2  0  0  0
  1 83  1  0  0  0
  2  3  1  0  0  0
  2 25  1  0  0  0
  2 87  1  0  0  0
  2 88  1  0  0  0
  3  4  1  0  0  0
  3 89  1  0  0  0
  3 90  1  0  0  0
  4  5  1  0  0  0
  4 91  1  0  0  0
  4 92  1  0  0  0
  5  6  1  0  0  0
  5 26  1  0  0  0
  5 93  1  0  0  0
  6 25  1  0  0  0
  6 94  1  0  0  0
  6 95  1  0  0  0
  7  8  2  0  0  0
  7 26  1  0  0  0
  7 29  1  0  0  0
  8  9  1  0  0  0
  8 22  1  0  0  0
  9 10  1  0  0  0
  9 27  2  0  0  0
 10 11  2  0  0  0
 10 15  1  0  0  0
 11 12  1  0  0  0
 11 96  1  0  0  0
 12 13  2  0  0  0
 12 97  1  0  0  0
 13 14  1  0  0  0
 13 31  1  0  0  0
 14 15  2  0  0  0
 14 98  1  0  0  0
 15 99  1  0  0  0
 16 17  2  0  0  0
 16 21  1  0  0  0
 16 31  1  0  0  0
 17 18  1  0  0  0
 17100  1  0  0  0
 18 19  2  0  0  0
 18101  1  0  0  0
 19 20  1  0  0  0
 19 24  1  0  0  0
 20 21  2  0  0  0
 20102  1  0  0  0
 21 23  1  0  0  0
 22 28  1  0  0  0
 22 32  2  0  0  0
 26 27  1  0  0  0
 28103  1  0  0  0
 28104  1  0  0  0
 29105  1  0  0  0
 29106  1  0  0  0
 33 34  1  0  0  0
 33 66  1  0  0  0
 33 70  2  0  0  0
 34 36  1  0  0  0
 34 59  1  0  0  0
 34107  1  0  0  0
 35 44  2  0  0  0
 35 45  1  0  0  0
 35 68  1  0  0  0
 36 56  1  0  0  0
 36108  1  0  0  0
 37 39  1  0  0  0
 37 47  1  0  0  0
 37 66  1  0  0  0
 37109  1  0  0  0
 38 43  2  0  0  0
 38 46  1  0  0  0
 38 47  1  0  0  0
 39 64  1  0  0  0
 39 67  2  0  0  0
 40 52  1  0  0  0
 40 53  2  0  0  0
 40 58  1  0  0  0
 41110  1  0  0  0
 41111  1  0  0  0
 41112  1  0  0  0
 41 48  1  0  0  0
 42 43  1  0  0  0
 42 66  1  0  0  0
 42113  1  0  0  0
 42114  1  0  0  0
 43 44  1  0  0  0
 44115  1  0  0  0
 45 46  2  0  0  0
 45116  1  0  0  0
 46117  1  0  0  0
 47118  1  0  0  0
 47119  1  0  0  0
 48 56  1  0  0  0
 48 65  1  0  0  0
 48120  1  0  0  0
 49 50  1  0  0  0
 49 53  1  0  0  0
 49 64  1  0  0  0
 49121  1  0  0  0
 50 51  1  0  0  0
 50122  1  0  0  0
 50123  1  0  0  0
 51 52  1  0  0  0
 51124  1  0  0  0
 51125  1  0  0  0
 52126  1  0  0  0
 52127  1  0  0  0
 53 54  1  0  0  0
 54 55  2  0  0  0
 54128  1  0  0  0
 55 57  1  0  0  0
 55129  1  0  0  0
 56 69  2  0  0  0
 57 58  2  0  0  0
 57130  1  0  0  0
 58131  1  0  0  0
 59 60  1  0  0  0
 59 61  1  0  0  0
 59 62  1  0  0  0
 60132  1  0  0  0
 60133  1  0  0  0
 60134  1  0  0  0
 61135  1  0  0  0
 61136  1  0  0  0
 61137  1  0  0  0
 62138  1  0  0  0
 62139  1  0  0  0
 62140  1  0  0  0
 63 65  1  0  0  0
 63141  1  0  0  0
 63142  1  0  0  0
 63143  1  0  0  0
 64144  1  0  0  0
 65145  1  0  0  0
 68 81  1  0  0  0
 71 72  2  0  0  0
 71 74  1  0  0  0
 71146  1  0  0  0
 72 75  1  0  0  0
 72147  1  0  0  0
 73 74  2  0  0  0
 73 76  1  0  0  0
 73148  1  0  0  0
 74 82  1  0  0  0
 75 76  2  0  0  0
 75 83  1  0  0  0
 76 84  1  0  0  0
 77 82  1  0  0  0
 77 85  2  0  0  0
 77 86  1  0  0  0
 78 79  1  0  0  0
 78 82  1  0  0  0
 78149  1  0  0  0
 78150  1  0  0  0
 79 81  1  0  0  0
 79 86  1  0  0  0
 79151  1  0  0  0
 80 84  1  0  0  0
 80152  1  0  0  0
 80153  1  0  0  0
 80154  1  0  0  0
 81155  1  0  0  0
 81156  1  0  0  0
 83157  1  0  0  0
 84158  1  0  0  0
M  ISO  4   1 100  68 101  81 101  83 100
M  END
> <chiral flag>
0

> <version>
0

> <s_m_source_file>
/data/baiqing/PycharmProjects/Reinvent-master-3.2/result/LINK_invent/BTK/process_docking_weight1_custom_product_contain_oxygen_bond_distance_aromatic_linkinvent_7_9_3/rearranged_h_0071.sdf

> <i_m_source_file_index>
73

> <r_mmod_Potential_Energy-OPLS-2005>
5.85144090652466

> <r_mmod_Stretch_Energy-OPLS-2005>
83.0291061401367

> <r_mmod_Bend_Energy-OPLS-2005>
171.594009399414

> <r_mmod_Torsional_Energy-OPLS-2005>
224.870330810547

> <r_mmod_Improper_Torsional_Energy-OPLS-2005>
6.29643535614014

> <r_mmod_Van_der_Waal_Energy-OPLS-2005>
153.418075561523

> <r_mmod_Electrostatic_Energy-OPLS-2005>
-452.118377685547

> <r_mmod_Solvation_Energy-OPLS-2005>
-231.853073120117

> <b_mmod_Minimization_Converged-OPLS-2005>
0

> <r_mmod_RMS_Derivative-OPLS-2005>
0.604923784732819

$$$$
74
                    3D
 Structure written by MMmdl.
156164  0  0  1  0            999 V2000
  -30.6229  -14.7269   20.4427 C   0  0  0  0  0  0
  -30.4317  -12.4351   19.4867 C   0  0  0  0  0  0
  -29.5176  -12.5047   18.2423 C   0  0  0  0  0  0
  -28.0401  -12.3383   18.6482 C   0  0  0  0  0  0
  -27.6454  -13.2340   19.8538 C   0  0  2  0  0  0
  -28.6877  -13.1624   20.9933 C   0  0  0  0  0  0
  -25.2535  -13.8210   20.5700 C   0  0  0  0  0  0
  -24.1812  -13.0454   20.9195 C   0  0  0  0  0  0
  -24.6400  -11.6926   20.8727 C   0  0  0  0  0  0
  -23.9079  -10.4298   21.0399 C   0  0  0  0  0  0
  -24.3622   -9.4207   21.9179 C   0  0  0  0  0  0
  -23.6286   -8.2255   22.0756 C   0  0  0  0  0  0
  -22.4271   -8.0286   21.3554 C   0  0  0  0  0  0
  -21.9903   -9.0265   20.4659 C   0  0  0  0  0  0
  -22.7244  -10.2142   20.3052 C   0  0  0  0  0  0
  -21.6860   -6.0732   22.5277 C   0  0  0  0  0  0
  -21.4018   -6.5637   23.8211 C   0  0  0  0  0  0
  -21.3659   -5.6783   24.9173 C   0  0  0  0  0  0
  -21.6043   -4.3049   24.7218 C   0  0  0  0  0  0
  -21.8817   -3.8145   23.4345 C   0  0  0  0  0  0
  -21.9192   -4.6959   22.3403 C   0  0  0  0  0  0
  -22.7831  -13.5237   21.1855 C   0  0  0  0  0  0
  -22.1664   -4.2152   21.0976 F   0  0  0  0  0  0
  -21.5626   -3.4531   25.7736 F   0  0  0  0  0  0
  -29.9989  -13.4999   20.4217 N   0  0  0  0  0  0
  -26.2955  -12.9415   20.3276 N   0  0  0  0  0  0
  -25.9334  -11.6558   20.5731 N   0  0  0  0  0  0
  -22.0468  -12.8236   22.0413 N   0  0  0  0  0  0
  -25.4243  -15.1944   20.4174 N   0  0  0  0  0  0
  -31.8005  -14.8211   20.0826 O   0  0  0  0  0  0
  -21.6641   -6.8878   21.4241 O   0  0  0  0  0  0
  -22.3507  -14.5532   20.6670 O   0  0  0  0  0  0
  -24.6323  -31.8557   23.1982 C   0  0  0  0  0  0
  -25.9148  -32.4761   23.8330 C   0  0  1  0  0  0
  -27.2193  -27.2628   20.1307 C   0  0  0  0  0  0
  -25.5931  -33.8562   24.2254 N   0  0  0  0  0  0
  -23.4288  -30.4782   21.5421 C   0  0  2  0  0  0
  -24.8749  -28.9271   20.1076 C   0  0  0  0  0  0
  -22.7511  -29.4608   22.4920 C   0  0  0  0  0  0
  -18.0291  -28.1389   22.8482 C   0  0  0  0  0  0
  -24.1484  -36.7283   23.2639 C   0  0  0  0  0  0
  -25.9736  -30.7694   21.3778 C   0  0  0  0  0  0
  -26.0450  -29.3915   20.7203 C   0  0  0  0  0  0
  -27.2182  -28.5714   20.7223 C   0  0  0  0  0  0
  -26.0304  -26.8744   19.4716 C   0  0  0  0  0  0
  -24.8729  -27.6766   19.4723 C   0  0  0  0  0  0
  -23.6455  -29.8132   20.1570 C   0  0  0  0  0  0
  -25.4109  -36.3071   24.0325 C   0  0  1  0  0  0
  -20.5895  -28.3699   23.1269 C   0  0  2  0  0  0
  -20.6778  -26.9416   22.5409 C   0  0  0  0  0  0
  -19.5749  -26.6386   21.5217 C   0  0  0  0  0  0
  -18.1934  -26.7931   22.1629 C   0  0  0  0  0  0
  -19.1544  -28.8862   23.2869 C   0  0  0  0  0  0
  -18.9470  -30.1460   23.8895 C   0  0  0  0  0  0
  -17.6469  -30.6586   24.0568 C   0  0  0  0  0  0
  -25.9051  -34.9445   23.5093 C   0  0  0  0  0  0
  -16.5361  -29.9087   23.6328 C   0  0  0  0  0  0
  -16.7280  -28.6504   23.0353 C   0  0  0  0  0  0
  -26.4499  -31.6595   25.0734 C   0  0  0  0  0  0
  -25.3704  -31.3770   26.1445 C   0  0  0  0  0  0
  -27.0357  -30.3014   24.6238 C   0  0  0  0  0  0
  -27.6054  -32.4337   25.7507 C   0  0  0  0  0  0
  -27.5572  -37.1792   24.8460 C   0  0  0  0  0  0
  -21.4217  -29.3048   22.3664 N   0  0  0  0  0  0
  -26.4279  -37.3774   23.9413 N   0  0  0  0  0  0
  -24.6972  -31.0529   22.0954 N   0  0  0  0  0  0
  -23.4207  -28.8154   23.3026 O   0  0  0  0  0  0
  -28.3142  -26.3702   20.2194 O   0  0  0  0  0  0
  -26.5641  -34.8920   22.4674 O   0  0  0  0  0  0
  -23.5472  -32.1390   23.7272 O   0  0  0  0  0  0
  -30.4550  -17.3461   18.7888 C   0  0  0  0  0  0
  -30.4966  -18.5933   18.1338 C   0  0  0  0  0  0
  -29.5712  -18.4626   20.7580 C   0  0  0  0  0  0
  -29.6475  -19.7730   20.1173 C   0  0  0  0  0  0
  -29.9865  -17.2220   20.1178 C   0  0  0  0  0  0
  -30.1026  -19.7833   18.7764 C   0  0  0  0  0  0
  -29.3770  -21.1181   20.8074 C   0  0  0  0  0  0
  -30.4814  -24.2949   20.8197 C   0  0  0  0  0  0
  -28.1367  -24.8966   19.9540 C   0  0  0  0  0  0
  -29.0364  -23.7863   20.7135 C   0  0  1  0  0  0
  -29.5434  -21.1599   22.1305 N   0  0  0  0  0  0
  -29.8743  -15.8630   20.7093 N   0  0  0  0  0  0
  -29.0509  -22.3268   20.1940 N   0  3  0  0  0  0
  -30.1769  -20.9481   18.0821 F   0  0  0  0  0  0
  -31.4783  -12.5392   19.1946 H   0  0  0  0  0  0
  -30.3560  -11.4584   19.9670 H   0  0  0  0  0  0
  -29.7962  -11.7314   17.5248 H   0  0  0  0  0  0
  -29.6595  -13.4593   17.7318 H   0  0  0  0  0  0
  -27.8884  -11.2887   18.9032 H   0  0  0  0  0  0
  -27.3895  -12.5416   17.7967 H   0  0  0  0  0  0
  -27.6414  -14.2562   19.4744 H   0  0  0  0  0  0
  -28.7112  -12.1652   21.4341 H   0  0  0  0  0  0
  -28.4211  -13.8479   21.7997 H   0  0  0  0  0  0
  -25.2778   -9.5671   22.4746 H   0  0  0  0  0  0
  -24.0001   -7.4630   22.7461 H   0  0  0  0  0  0
  -21.0841   -8.8773   19.8960 H   0  0  0  0  0  0
  -22.3704  -10.9665   19.6148 H   0  0  0  0  0  0
  -21.2018   -7.6145   23.9709 H   0  0  0  0  0  0
  -21.1485   -6.0524   25.9072 H   0  0  0  0  0  0
  -22.0599   -2.7608   23.2844 H   0  0  0  0  0  0
  -22.4086  -11.9904   22.4816 H   0  0  0  0  0  0
  -21.1084  -13.1242   22.2603 H   0  0  0  0  0  0
  -24.6567  -15.8486   20.5240 H   0  0  0  0  0  0
  -26.2731  -15.6332   20.0827 H   0  0  0  0  0  0
  -26.7234  -32.5412   23.1087 H   0  0  0  0  0  0
  -25.0043  -33.9695   25.0376 H   0  0  0  0  0  0
  -22.7251  -31.3005   21.3973 H   0  0  0  0  0  0
  -23.3744  -35.9615   23.3295 H   0  0  0  0  0  0
  -24.3582  -36.8920   22.2057 H   0  0  0  0  0  0
  -23.7233  -37.6478   23.6674 H   0  0  0  0  0  0
  -26.1135  -31.5282   20.6063 H   0  0  0  0  0  0
  -26.8517  -30.8186   22.0105 H   0  0  0  0  0  0
  -28.1108  -28.9214   21.2220 H   0  0  0  0  0  0
  -25.9617  -25.9274   18.9587 H   0  0  0  0  0  0
  -23.9797  -27.3191   18.9793 H   0  0  0  0  0  0
  -23.7689  -30.5919   19.4031 H   0  0  0  0  0  0
  -22.7637  -29.2459   19.8527 H   0  0  0  0  0  0
  -25.1284  -36.1916   25.0813 H   0  0  0  0  0  0
  -20.9977  -28.3281   24.1396 H   0  0  0  0  0  0
  -20.5680  -26.2314   23.3617 H   0  0  0  0  0  0
  -21.6648  -26.7442   22.1209 H   0  0  0  0  0  0
  -19.6911  -25.6297   21.1248 H   0  0  0  0  0  0
  -19.6683  -27.3197   20.6749 H   0  0  0  0  0  0
  -17.4202  -26.6678   21.4037 H   0  0  0  0  0  0
  -18.0331  -26.0077   22.9026 H   0  0  0  0  0  0
  -19.7946  -30.7275   24.2268 H   0  0  0  0  0  0
  -17.5024  -31.6271   24.5166 H   0  0  0  0  0  0
  -15.5360  -30.2995   23.7645 H   0  0  0  0  0  0
  -15.8683  -28.0823   22.7069 H   0  0  0  0  0  0
  -24.5877  -30.7126   25.7770 H   0  0  0  0  0  0
  -24.8902  -32.2953   26.4835 H   0  0  0  0  0  0
  -25.7995  -30.8969   27.0248 H   0  0  0  0  0  0
  -26.2964  -29.6759   24.1225 H   0  0  0  0  0  0
  -27.4000  -29.7286   25.4775 H   0  0  0  0  0  0
  -27.8849  -30.4301   23.9526 H   0  0  0  0  0  0
  -27.2666  -33.3642   26.2072 H   0  0  0  0  0  0
  -28.3864  -32.6885   25.0331 H   0  0  0  0  0  0
  -28.0719  -31.8472   26.5432 H   0  0  0  0  0  0
  -28.2580  -38.0098   24.7524 H   0  0  0  0  0  0
  -28.1075  -36.2633   24.6250 H   0  0  0  0  0  0
  -27.2303  -37.1401   25.8866 H   0  0  0  0  0  0
  -20.9404  -29.8772   21.6868 H   0  0  0  0  0  0
  -26.0151  -38.2843   24.1427 H   0  0  0  0  0  0
  -30.7653  -16.4759   18.2298 H   0  0  0  0  0  0
  -30.8396  -18.6418   17.1109 H   0  0  0  0  0  0
  -29.2028  -18.4117   21.7721 H   0  0  0  0  0  0
  -30.5449  -25.1414   21.5038 H   0  0  0  0  0  0
  -30.8524  -24.6280   19.8515 H   0  0  0  0  0  0
  -31.1593  -23.5271   21.1920 H   0  0  0  0  0  0
  -27.1132  -24.6153   20.1990 H   0  0  0  0  0  0
  -28.2397  -24.7511   18.8785 H   0  0  0  0  0  0
  -28.6478  -23.7339   21.7311 H   0  0  0  0  0  0
  -29.9032  -20.3483   22.6107 H   0  0  0  0  0  0
  -29.3926  -21.9958   22.6676 H   0  0  0  0  0  0
  -29.0203  -15.6896   21.2186 H   0  0  0  0  0  0
  -29.0388  -22.2484   19.1805 H   0  0  0  0  0  0
  1 25  1  0  0  0
  1 30  2  0  0  0
  1 82  1  0  0  0
  2  3  1  0  0  0
  2 25  1  0  0  0
  2 85  1  0  0  0
  2 86  1  0  0  0
  3  4  1  0  0  0
  3 87  1  0  0  0
  3 88  1  0  0  0
  4  5  1  0  0  0
  4 89  1  0  0  0
  4 90  1  0  0  0
  5  6  1  0  0  0
  5 26  1  0  0  0
  5 91  1  0  0  0
  6 25  1  0  0  0
  6 92  1  0  0  0
  6 93  1  0  0  0
  7  8  2  0  0  0
  7 26  1  0  0  0
  7 29  1  0  0  0
  8  9  1  0  0  0
  8 22  1  0  0  0
  9 10  1  0  0  0
  9 27  2  0  0  0
 10 11  2  0  0  0
 10 15  1  0  0  0
 11 12  1  0  0  0
 11 94  1  0  0  0
 12 13  2  0  0  0
 12 95  1  0  0  0
 13 14  1  0  0  0
 13 31  1  0  0  0
 14 15  2  0  0  0
 14 96  1  0  0  0
 15 97  1  0  0  0
 16 17  2  0  0  0
 16 21  1  0  0  0
 16 31  1  0  0  0
 17 18  1  0  0  0
 17 98  1  0  0  0
 18 19  2  0  0  0
 18 99  1  0  0  0
 19 20  1  0  0  0
 19 24  1  0  0  0
 20 21  2  0  0  0
 20100  1  0  0  0
 21 23  1  0  0  0
 22 28  1  0  0  0
 22 32  2  0  0  0
 26 27  1  0  0  0
 28101  1  0  0  0
 28102  1  0  0  0
 29103  1  0  0  0
 29104  1  0  0  0
 33 34  1  0  0  0
 33 66  1  0  0  0
 33 70  2  0  0  0
 34 36  1  0  0  0
 34 59  1  0  0  0
 34105  1  0  0  0
 35 44  2  0  0  0
 35 45  1  0  0  0
 35 68  1  0  0  0
 36 56  1  0  0  0
 36106  1  0  0  0
 37 39  1  0  0  0
 37 47  1  0  0  0
 37 66  1  0  0  0
 37107  1  0  0  0
 38 43  2  0  0  0
 38 46  1  0  0  0
 38 47  1  0  0  0
 39 64  1  0  0  0
 39 67  2  0  0  0
 40 52  1  0  0  0
 40 53  2  0  0  0
 40 58  1  0  0  0
 41108  1  0  0  0
 41109  1  0  0  0
 41110  1  0  0  0
 41 48  1  0  0  0
 42 43  1  0  0  0
 42 66  1  0  0  0
 42111  1  0  0  0
 42112  1  0  0  0
 43 44  1  0  0  0
 44113  1  0  0  0
 45 46  2  0  0  0
 45114  1  0  0  0
 46115  1  0  0  0
 47116  1  0  0  0
 47117  1  0  0  0
 48 56  1  0  0  0
 48 65  1  0  0  0
 48118  1  0  0  0
 49 50  1  0  0  0
 49 53  1  0  0  0
 49 64  1  0  0  0
 49119  1  0  0  0
 50 51  1  0  0  0
 50120  1  0  0  0
 50121  1  0  0  0
 51 52  1  0  0  0
 51122  1  0  0  0
 51123  1  0  0  0
 52124  1  0  0  0
 52125  1  0  0  0
 53 54  1  0  0  0
 54 55  2  0  0  0
 54126  1  0  0  0
 55 57  1  0  0  0
 55127  1  0  0  0
 56 69  2  0  0  0
 57 58  2  0  0  0
 57128  1  0  0  0
 58129  1  0  0  0
 59 60  1  0  0  0
 59 61  1  0  0  0
 59 62  1  0  0  0
 60130  1  0  0  0
 60131  1  0  0  0
 60132  1  0  0  0
 61133  1  0  0  0
 61134  1  0  0  0
 61135  1  0  0  0
 62136  1  0  0  0
 62137  1  0  0  0
 62138  1  0  0  0
 63 65  1  0  0  0
 63139  1  0  0  0
 63140  1  0  0  0
 63141  1  0  0  0
 64142  1  0  0  0
 65143  1  0  0  0
 68 79  1  0  0  0
 71 72  2  0  0  0
 71 75  1  0  0  0
 71144  1  0  0  0
 72 76  1  0  0  0
 72145  1  0  0  0
 73 74  1  0  0  0
 73 75  2  0  0  0
 73146  1  0  0  0
 74 76  2  0  0  0
 74 77  1  0  0  0
 75 82  1  0  0  0
 76 84  1  0  0  0
 77 81  1  0  0  0
 77 83  2  0  0  0
 78147  1  0  0  0
 78148  1  0  0  0
 78149  1  0  0  0
 78 80  1  0  0  0
 79 80  1  0  0  0
 79150  1  0  0  0
 79151  1  0  0  0
 80 83  1  0  0  0
 80152  1  0  0  0
 81153  1  0  0  0
 81154  1  0  0  0
 82155  1  0  0  0
 83156  1  0  0  0
M  CHG  1  83   1
M  ISO  4   1 100  68 101  79 101  82 100
M  END
> <chiral flag>
0

> <version>
0

> <s_m_source_file>
/data/baiqing/PycharmProjects/Reinvent-master-3.2/result/LINK_invent/BTK/process_docking_weight1_custom_product_contain_oxygen_bond_distance_aromatic_linkinvent_7_9_3/rearranged_h_0071.sdf

> <i_m_source_file_index>
74

> <r_mmod_Potential_Energy-OPLS-2005>
-73.6348266601562

> <r_mmod_Stretch_Energy-OPLS-2005>
121.46312713623

> <r_mmod_Bend_Energy-OPLS-2005>
154.924011230469

> <r_mmod_Torsional_Energy-OPLS-2005>
232.893356323242

> <r_mmod_Improper_Torsional_Energy-OPLS-2005>
5.61565637588501

> <r_mmod_Van_der_Waal_Energy-OPLS-2005>
145.047271728516

> <r_mmod_Electrostatic_Energy-OPLS-2005>
-396.20654296875

> <r_mmod_Solvation_Energy-OPLS-2005>
-419.417785644531

> <b_mmod_Minimization_Converged-OPLS-2005>
0

> <r_mmod_RMS_Derivative-OPLS-2005>
2.09509301185608

$$$$
75
                    3D
 Structure written by MMmdl.
155164  0  0  1  0            999 V2000
  -30.6107  -14.7449   20.4573 C   0  0  0  0  0  0
  -30.4320  -12.4485   19.4937 C   0  0  0  0  0  0
  -29.5174  -12.5126   18.2490 C   0  0  0  0  0  0
  -28.0413  -12.3411   18.6545 C   0  0  0  0  0  0
  -27.6465  -13.2355   19.8600 C   0  0  2  0  0  0
  -28.6870  -13.1615   21.0006 C   0  0  0  0  0  0
  -25.2525  -13.8209   20.5717 C   0  0  0  0  0  0
  -24.1815  -13.0447   20.9209 C   0  0  0  0  0  0
  -24.6408  -11.6926   20.8748 C   0  0  0  0  0  0
  -23.9081  -10.4297   21.0397 C   0  0  0  0  0  0
  -24.3622   -9.4213   21.9179 C   0  0  0  0  0  0
  -23.6295   -8.2250   22.0753 C   0  0  0  0  0  0
  -22.4279   -8.0285   21.3545 C   0  0  0  0  0  0
  -21.9914   -9.0261   20.4651 C   0  0  0  0  0  0
  -22.7247  -10.2137   20.3057 C   0  0  0  0  0  0
  -21.6857   -6.0744   22.5282 C   0  0  0  0  0  0
  -21.4020   -6.5645   23.8216 C   0  0  0  0  0  0
  -21.3660   -5.6794   24.9176 C   0  0  0  0  0  0
  -21.6039   -4.3055   24.7225 C   0  0  0  0  0  0
  -21.8819   -3.8153   23.4343 C   0  0  0  0  0  0
  -21.9193   -4.6973   22.3401 C   0  0  0  0  0  0
  -22.7835  -13.5225   21.1856 C   0  0  0  0  0  0
  -22.1663   -4.2162   21.0980 F   0  0  0  0  0  0
  -21.5617   -3.4534   25.7736 F   0  0  0  0  0  0
  -29.9950  -13.5110   20.4329 N   0  0  0  0  0  0
  -26.2961  -12.9424   20.3313 N   0  0  0  0  0  0
  -25.9344  -11.6560   20.5759 N   0  0  0  0  0  0
  -22.0477  -12.8224   22.0417 N   0  0  0  0  0  0
  -25.4208  -15.1938   20.4174 N   0  0  0  0  0  0
  -31.7791  -14.8475   20.0720 O   0  0  0  0  0  0
  -21.6639   -6.8885   21.4245 O   0  0  0  0  0  0
  -22.3522  -14.5532   20.6704 O   0  0  0  0  0  0
  -24.6326  -31.8545   23.1991 C   0  0  0  0  0  0
  -25.9154  -32.4750   23.8338 C   0  0  1  0  0  0
  -27.2167  -27.2388   20.1316 C   0  0  0  0  0  0
  -25.5949  -33.8554   24.2265 N   0  0  0  0  0  0
  -23.4306  -30.4785   21.5422 C   0  0  2  0  0  0
  -24.8798  -28.9283   20.1064 C   0  0  0  0  0  0
  -22.7512  -29.4600   22.4900 C   0  0  0  0  0  0
  -18.0292  -28.1392   22.8489 C   0  0  0  0  0  0
  -24.1489  -36.7270   23.2640 C   0  0  0  0  0  0
  -25.9795  -30.7582   21.3870 C   0  0  0  0  0  0
  -26.0503  -29.3800   20.7272 C   0  0  0  0  0  0
  -27.2175  -28.5455   20.7350 C   0  0  0  0  0  0
  -26.0303  -26.8821   19.4470 C   0  0  0  0  0  0
  -24.8769  -27.6886   19.4531 C   0  0  0  0  0  0
  -23.6505  -29.8153   20.1576 C   0  0  0  0  0  0
  -25.4118  -36.3066   24.0329 C   0  0  1  0  0  0
  -20.5896  -28.3702   23.1265 C   0  0  2  0  0  0
  -20.6779  -26.9419   22.5411 C   0  0  0  0  0  0
  -19.5753  -26.6388   21.5217 C   0  0  0  0  0  0
  -18.1933  -26.7932   22.1631 C   0  0  0  0  0  0
  -19.1548  -28.8867   23.2871 C   0  0  0  0  0  0
  -18.9465  -30.1469   23.8887 C   0  0  0  0  0  0
  -17.6462  -30.6590   24.0564 C   0  0  0  0  0  0
  -25.9061  -34.9438   23.5100 C   0  0  0  0  0  0
  -16.5354  -29.9085   23.6336 C   0  0  0  0  0  0
  -16.7279  -28.6504   23.0357 C   0  0  0  0  0  0
  -26.4511  -31.6573   25.0731 C   0  0  0  0  0  0
  -25.3723  -31.3727   26.1439 C   0  0  0  0  0  0
  -27.0364  -30.2984   24.6245 C   0  0  0  0  0  0
  -27.6061  -32.4313   25.7502 C   0  0  0  0  0  0
  -27.5572  -37.1803   24.8471 C   0  0  0  0  0  0
  -21.4214  -29.3043   22.3644 N   0  0  0  0  0  0
  -26.4294  -37.3764   23.9400 N   0  0  0  0  0  0
  -24.6998  -31.0494   22.0982 N   0  0  0  0  0  0
  -23.4203  -28.8135   23.3010 O   0  0  0  0  0  0
  -28.2971  -26.3174   20.2348 O   0  0  0  0  0  0
  -26.5629  -34.8907   22.4665 O   0  0  0  0  0  0
  -23.5477  -32.1383   23.7277 O   0  0  0  0  0  0
  -29.6222  -18.5164   20.7147 C   0  0  0  0  0  0
  -29.9457  -17.2056   18.6873 C   0  0  0  0  0  0
  -29.5049  -19.7620   19.9522 C   0  0  0  0  0  0
  -29.8474  -17.2072   20.0967 C   0  0  0  0  0  0
  -29.8297  -18.3894   17.9325 C   0  0  0  0  0  0
  -29.6163  -19.6391   18.5477 C   0  0  0  0  0  0
  -28.4064  -22.0999   20.2114 C   0  0  0  0  0  0
  -30.2857  -23.4067   20.7278 C   0  0  0  0  0  0
  -30.5355  -21.8873   20.9925 C   0  0  0  0  0  0
  -28.7632  -23.5768   20.6713 C   0  0  1  0  0  0
  -28.1245  -24.8516   19.8769 C   0  0  0  0  0  0
  -29.3758  -21.1543   20.4777 N   0  0  0  0  0  0
  -29.8723  -15.8805   20.7776 N   0  0  0  0  0  0
  -27.3160  -21.8385   19.6950 O   0  0  0  0  0  0
  -29.9272  -18.3221   16.5833 F   0  0  0  0  0  0
  -29.5548  -20.7440   17.7641 F   0  0  0  0  0  0
  -31.4770  -12.5575   19.1996 H   0  0  0  0  0  0
  -30.3620  -11.4699   19.9718 H   0  0  0  0  0  0
  -29.8000  -11.7406   17.5323 H   0  0  0  0  0  0
  -29.6532  -13.4685   17.7399 H   0  0  0  0  0  0
  -27.8939  -11.2916   18.9110 H   0  0  0  0  0  0
  -27.3884  -12.5393   17.8039 H   0  0  0  0  0  0
  -27.6447  -14.2599   19.4875 H   0  0  0  0  0  0
  -28.7179  -12.1616   21.4360 H   0  0  0  0  0  0
  -28.4189  -13.8382   21.8130 H   0  0  0  0  0  0
  -25.2764   -9.5688   22.4754 H   0  0  0  0  0  0
  -24.0007   -7.4641   22.7469 H   0  0  0  0  0  0
  -21.0840   -8.8782   19.8955 H   0  0  0  0  0  0
  -22.3702  -10.9676   19.6164 H   0  0  0  0  0  0
  -21.2024   -7.6157   23.9729 H   0  0  0  0  0  0
  -21.1474   -6.0519   25.9077 H   0  0  0  0  0  0
  -22.0597   -2.7617   23.2837 H   0  0  0  0  0  0
  -22.4091  -11.9891   22.4823 H   0  0  0  0  0  0
  -21.1097  -13.1254   22.2615 H   0  0  0  0  0  0
  -24.6510  -15.8438   20.5325 H   0  0  0  0  0  0
  -26.2695  -15.6384   20.0906 H   0  0  0  0  0  0
  -26.7215  -32.5399   23.1073 H   0  0  0  0  0  0
  -25.0093  -33.9689   25.0410 H   0  0  0  0  0  0
  -22.7282  -31.3018   21.3975 H   0  0  0  0  0  0
  -23.3753  -35.9602   23.3321 H   0  0  0  0  0  0
  -24.3571  -36.8875   22.2050 H   0  0  0  0  0  0
  -23.7245  -37.6481   23.6648 H   0  0  0  0  0  0
  -26.1268  -31.5192   20.6191 H   0  0  0  0  0  0
  -26.8547  -30.8047   22.0235 H   0  0  0  0  0  0
  -28.1057  -28.8819   21.2513 H   0  0  0  0  0  0
  -25.9488  -25.9569   18.8989 H   0  0  0  0  0  0
  -23.9870  -27.3466   18.9425 H   0  0  0  0  0  0
  -23.7738  -30.5938   19.4038 H   0  0  0  0  0  0
  -22.7690  -29.2493   19.8514 H   0  0  0  0  0  0
  -25.1304  -36.1915   25.0824 H   0  0  0  0  0  0
  -21.0001  -28.3290   24.1383 H   0  0  0  0  0  0
  -20.5685  -26.2313   23.3618 H   0  0  0  0  0  0
  -21.6642  -26.7443   22.1202 H   0  0  0  0  0  0
  -19.6913  -25.6298   21.1248 H   0  0  0  0  0  0
  -19.6688  -27.3199   20.6744 H   0  0  0  0  0  0
  -17.4204  -26.6682   21.4034 H   0  0  0  0  0  0
  -18.0333  -26.0072   22.9028 H   0  0  0  0  0  0
  -19.7940  -30.7296   24.2244 H   0  0  0  0  0  0
  -17.5012  -31.6267   24.5173 H   0  0  0  0  0  0
  -15.5355  -30.2983   23.7664 H   0  0  0  0  0  0
  -15.8676  -28.0821   22.7074 H   0  0  0  0  0  0
  -24.5911  -30.7057   25.7761 H   0  0  0  0  0  0
  -24.8890  -32.2894   26.4831 H   0  0  0  0  0  0
  -25.8033  -30.8928   27.0234 H   0  0  0  0  0  0
  -26.2962  -29.6721   24.1246 H   0  0  0  0  0  0
  -27.4000  -29.7255   25.4785 H   0  0  0  0  0  0
  -27.8859  -30.4240   23.9528 H   0  0  0  0  0  0
  -27.2673  -33.3617   26.2066 H   0  0  0  0  0  0
  -28.3877  -32.6868   25.0334 H   0  0  0  0  0  0
  -28.0719  -31.8445   26.5428 H   0  0  0  0  0  0
  -28.2618  -38.0073   24.7488 H   0  0  0  0  0  0
  -28.1047  -36.2607   24.6346 H   0  0  0  0  0  0
  -27.2284  -37.1504   25.8875 H   0  0  0  0  0  0
  -20.9399  -29.8753   21.6832 H   0  0  0  0  0  0
  -26.0176  -38.2845   24.1381 H   0  0  0  0  0  0
  -29.5407  -18.5701   21.7911 H   0  0  0  0  0  0
  -30.0904  -16.2803   18.1484 H   0  0  0  0  0  0
  -30.7252  -23.6966   19.7726 H   0  0  0  0  0  0
  -30.7404  -24.0322   21.4967 H   0  0  0  0  0  0
  -30.6182  -21.6905   22.0622 H   0  0  0  0  0  0
  -31.4601  -21.5499   20.5225 H   0  0  0  0  0  0
  -28.4050  -23.6404   21.6993 H   0  0  0  0  0  0
  -27.0663  -24.6145   19.9428 H   0  0  0  0  0  0
  -28.3782  -24.7571   18.8208 H   0  0  0  0  0  0
  -29.0648  -15.6930   21.3536 H   0  0  0  0  0  0
  1 25  1  0  0  0
  1 30  2  0  0  0
  1 83  1  0  0  0
  2  3  1  0  0  0
  2 25  1  0  0  0
  2 87  1  0  0  0
  2 88  1  0  0  0
  3  4  1  0  0  0
  3 89  1  0  0  0
  3 90  1  0  0  0
  4  5  1  0  0  0
  4 91  1  0  0  0
  4 92  1  0  0  0
  5  6  1  0  0  0
  5 26  1  0  0  0
  5 93  1  0  0  0
  6 25  1  0  0  0
  6 94  1  0  0  0
  6 95  1  0  0  0
  7  8  2  0  0  0
  7 26  1  0  0  0
  7 29  1  0  0  0
  8  9  1  0  0  0
  8 22  1  0  0  0
  9 10  1  0  0  0
  9 27  2  0  0  0
 10 11  2  0  0  0
 10 15  1  0  0  0
 11 12  1  0  0  0
 11 96  1  0  0  0
 12 13  2  0  0  0
 12 97  1  0  0  0
 13 14  1  0  0  0
 13 31  1  0  0  0
 14 15  2  0  0  0
 14 98  1  0  0  0
 15 99  1  0  0  0
 16 17  2  0  0  0
 16 21  1  0  0  0
 16 31  1  0  0  0
 17 18  1  0  0  0
 17100  1  0  0  0
 18 19  2  0  0  0
 18101  1  0  0  0
 19 20  1  0  0  0
 19 24  1  0  0  0
 20 21  2  0  0  0
 20102  1  0  0  0
 21 23  1  0  0  0
 22 28  1  0  0  0
 22 32  2  0  0  0
 26 27  1  0  0  0
 28103  1  0  0  0
 28104  1  0  0  0
 29105  1  0  0  0
 29106  1  0  0  0
 33 34  1  0  0  0
 33 66  1  0  0  0
 33 70  2  0  0  0
 34 36  1  0  0  0
 34 59  1  0  0  0
 34107  1  0  0  0
 35 44  2  0  0  0
 35 45  1  0  0  0
 35 68  1  0  0  0
 36 56  1  0  0  0
 36108  1  0  0  0
 37 39  1  0  0  0
 37 47  1  0  0  0
 37 66  1  0  0  0
 37109  1  0  0  0
 38 43  2  0  0  0
 38 46  1  0  0  0
 38 47  1  0  0  0
 39 64  1  0  0  0
 39 67  2  0  0  0
 40 52  1  0  0  0
 40 53  2  0  0  0
 40 58  1  0  0  0
 41110  1  0  0  0
 41111  1  0  0  0
 41112  1  0  0  0
 41 48  1  0  0  0
 42 43  1  0  0  0
 42 66  1  0  0  0
 42113  1  0  0  0
 42114  1  0  0  0
 43 44  1  0  0  0
 44115  1  0  0  0
 45 46  2  0  0  0
 45116  1  0  0  0
 46117  1  0  0  0
 47118  1  0  0  0
 47119  1  0  0  0
 48 56  1  0  0  0
 48 65  1  0  0  0
 48120  1  0  0  0
 49 50  1  0  0  0
 49 53  1  0  0  0
 49 64  1  0  0  0
 49121  1  0  0  0
 50 51  1  0  0  0
 50122  1  0  0  0
 50123  1  0  0  0
 51 52  1  0  0  0
 51124  1  0  0  0
 51125  1  0  0  0
 52126  1  0  0  0
 52127  1  0  0  0
 53 54  1  0  0  0
 54 55  2  0  0  0
 54128  1  0  0  0
 55 57  1  0  0  0
 55129  1  0  0  0
 56 69  2  0  0  0
 57 58  2  0  0  0
 57130  1  0  0  0
 58131  1  0  0  0
 59 60  1  0  0  0
 59 61  1  0  0  0
 59 62  1  0  0  0
 60132  1  0  0  0
 60133  1  0  0  0
 60134  1  0  0  0
 61135  1  0  0  0
 61136  1  0  0  0
 61137  1  0  0  0
 62138  1  0  0  0
 62139  1  0  0  0
 62140  1  0  0  0
 63 65  1  0  0  0
 63141  1  0  0  0
 63142  1  0  0  0
 63143  1  0  0  0
 64144  1  0  0  0
 65145  1  0  0  0
 68 81  1  0  0  0
 71 73  2  0  0  0
 71 74  1  0  0  0
 71146  1  0  0  0
 72 74  2  0  0  0
 72 75  1  0  0  0
 72147  1  0  0  0
 73 76  1  0  0  0
 73 82  1  0  0  0
 74 83  1  0  0  0
 75 76  2  0  0  0
 75 85  1  0  0  0
 76 86  1  0  0  0
 77 80  1  0  0  0
 77 82  1  0  0  0
 77 84  2  0  0  0
 78 79  1  0  0  0
 78 80  1  0  0  0
 78148  1  0  0  0
 78149  1  0  0  0
 79 82  1  0  0  0
 79150  1  0  0  0
 79151  1  0  0  0
 80 81  1  0  0  0
 80152  1  0  0  0
 81153  1  0  0  0
 81154  1  0  0  0
 83155  1  0  0  0
M  ISO  4   1 100  68 101  81 101  83 100
M  END
> <chiral flag>
0

> <version>
0

> <s_m_source_file>
/data/baiqing/PycharmProjects/Reinvent-master-3.2/result/LINK_invent/BTK/process_docking_weight1_custom_product_contain_oxygen_bond_distance_aromatic_linkinvent_7_9_3/rearranged_h_0071.sdf

> <i_m_source_file_index>
75

> <r_mmod_Potential_Energy-OPLS-2005>
329.272247314453

> <r_mmod_Stretch_Energy-OPLS-2005>
133.572463989258

> <r_mmod_Bend_Energy-OPLS-2005>
203.959213256836

> <r_mmod_Torsional_Energy-OPLS-2005>
315.611907958984

> <r_mmod_Improper_Torsional_Energy-OPLS-2005>
5.95462417602539

> <r_mmod_Van_der_Waal_Energy-OPLS-2005>
136.06315612793

> <r_mmod_Electrostatic_Energy-OPLS-2005>
-339.860137939453

> <r_mmod_Solvation_Energy-OPLS-2005>
-219.733871459961

> <b_mmod_Minimization_Converged-OPLS-2005>
0

> <r_mmod_RMS_Derivative-OPLS-2005>
1.29958593845367

$$$$
76
                    3D
 Structure written by MMmdl.
159168  0  0  1  0            999 V2000
  -30.5964  -14.5826   20.5401 C   0  0  0  0  0  0
  -30.4494  -12.3614   19.4345 C   0  0  0  0  0  0
  -29.5071  -12.4814   18.2148 C   0  0  0  0  0  0
  -28.0300  -12.3110   18.6300 C   0  0  0  0  0  0
  -27.6511  -13.1852   19.8544 C   0  0  2  0  0  0
  -28.6940  -13.0046   20.9827 C   0  0  0  0  0  0
  -25.2559  -13.8096   20.5608 C   0  0  0  0  0  0
  -24.1810  -13.0419   20.9169 C   0  0  0  0  0  0
  -24.6339  -11.6877   20.8722 C   0  0  0  0  0  0
  -23.9010  -10.4285   21.0417 C   0  0  0  0  0  0
  -24.3568   -9.4209   21.9198 C   0  0  0  0  0  0
  -23.6261   -8.2235   22.0753 C   0  0  0  0  0  0
  -22.4253   -8.0265   21.3547 C   0  0  0  0  0  0
  -21.9884   -9.0237   20.4654 C   0  0  0  0  0  0
  -22.7187  -10.2131   20.3070 C   0  0  0  0  0  0
  -21.6854   -6.0701   22.5291 C   0  0  0  0  0  0
  -21.4008   -6.5623   23.8216 C   0  0  0  0  0  0
  -21.3656   -5.6778   24.9171 C   0  0  0  0  0  0
  -21.6054   -4.3045   24.7240 C   0  0  0  0  0  0
  -21.8811   -3.8130   23.4368 C   0  0  0  0  0  0
  -21.9191   -4.6926   22.3412 C   0  0  0  0  0  0
  -22.7855  -13.5246   21.1847 C   0  0  0  0  0  0
  -22.1665   -4.2108   21.0984 F   0  0  0  0  0  0
  -21.5625   -3.4535   25.7759 F   0  0  0  0  0  0
  -30.0130  -13.3541   20.4269 N   0  0  0  0  0  0
  -26.2944  -12.9212   20.3233 N   0  0  0  0  0  0
  -25.9245  -11.6400   20.5698 N   0  0  0  0  0  0
  -22.0488  -12.8253   22.0406 N   0  0  0  0  0  0
  -25.4303  -15.1800   20.3983 N   0  0  0  0  0  0
  -31.7715  -14.8063   20.2356 O   0  0  0  0  0  0
  -21.6635   -6.8858   21.4258 O   0  0  0  0  0  0
  -22.3569  -14.5553   20.6673 O   0  0  0  0  0  0
  -24.6196  -31.8663   23.2055 C   0  0  0  0  0  0
  -25.9081  -32.4808   23.8366 C   0  0  1  0  0  0
  -27.2280  -27.3830   20.1132 C   0  0  0  0  0  0
  -25.5929  -33.8603   24.2323 N   0  0  0  0  0  0
  -23.4099  -30.4865   21.5498 C   0  0  2  0  0  0
  -24.8514  -28.9398   20.1192 C   0  0  0  0  0  0
  -22.7450  -29.4646   22.5006 C   0  0  0  0  0  0
  -18.0290  -28.1395   22.8525 C   0  0  0  0  0  0
  -24.1496  -36.7275   23.2636 C   0  0  0  0  0  0
  -25.9428  -30.8143   21.3643 C   0  0  0  0  0  0
  -26.0160  -29.4433   20.7151 C   0  0  0  0  0  0
  -27.2078  -28.6761   20.7021 C   0  0  0  0  0  0
  -26.0487  -26.9028   19.5142 C   0  0  0  0  0  0
  -24.8654  -27.6725   19.5131 C   0  0  0  0  0  0
  -23.6161  -29.8157   20.1655 C   0  0  0  0  0  0
  -25.4107  -36.3085   24.0353 C   0  0  1  0  0  0
  -20.5893  -28.3679   23.1355 C   0  0  2  0  0  0
  -20.6779  -26.9419   22.5438 C   0  0  0  0  0  0
  -19.5744  -26.6412   21.5238 C   0  0  0  0  0  0
  -18.1921  -26.7947   22.1647 C   0  0  0  0  0  0
  -19.1548  -28.8855   23.2925 C   0  0  0  0  0  0
  -18.9442  -30.1458   23.8938 C   0  0  0  0  0  0
  -17.6441  -30.6583   24.0584 C   0  0  0  0  0  0
  -25.9041  -34.9458   23.5134 C   0  0  0  0  0  0
  -16.5335  -29.9085   23.6330 C   0  0  0  0  0  0
  -16.7279  -28.6502   23.0364 C   0  0  0  0  0  0
  -26.4488  -31.6567   25.0687 C   0  0  0  0  0  0
  -25.3739  -31.3669   26.1419 C   0  0  0  0  0  0
  -27.0312  -30.3010   24.6057 C   0  0  0  0  0  0
  -27.6082  -32.4273   25.7452 C   0  0  0  0  0  0
  -27.5589  -37.1788   24.8469 C   0  0  0  0  0  0
  -21.4183  -29.3012   22.3730 N   0  0  0  0  0  0
  -26.4286  -37.3774   23.9422 N   0  0  0  0  0  0
  -24.6762  -31.0705   22.0984 N   0  0  0  0  0  0
  -23.4179  -28.8202   23.3098 O   0  0  0  0  0  0
  -28.3927  -26.6316   20.0875 O   0  0  0  0  0  0
  -26.5595  -34.8920   22.4697 O   0  0  0  0  0  0
  -23.5396  -32.1456   23.7436 O   0  0  0  0  0  0
  -28.8817  -19.3276   22.5145 C   0  0  0  0  0  0
  -29.1167  -16.8976   22.6211 C   0  0  0  0  0  0
  -29.8169  -18.0934   20.6226 C   0  0  0  0  0  0
  -28.7257  -18.1134   23.2143 C   0  0  0  0  0  0
  -29.4274  -19.3496   21.2076 C   0  0  0  0  0  0
  -29.6552  -16.8553   21.3183 C   0  0  0  0  0  0
  -30.0814  -22.3280   19.1134 C   0  0  0  0  0  0
  -29.0155  -22.8031   19.7638 C   0  0  0  0  0  0
  -30.4237  -21.0001   19.5941 C   0  0  0  0  0  0
  -28.5578  -21.7579   20.7616 C   0  0  0  0  0  0
  -28.0553  -18.1017   24.5770 C   0  0  0  0  0  0
  -28.2782  -24.1372   19.4675 C   0  0  0  0  0  0
  -28.3498  -25.2530   20.5593 C   0  0  0  0  0  0
  -29.4926  -20.6265   20.5095 N   0  0  0  0  0  0
  -29.6677  -15.5668   20.6710 N   0  0  0  0  0  0
  -31.4092  -20.3394   19.2472 O   0  0  0  0  0  0
  -31.4870  -12.5147   19.1368 H   0  0  0  0  0  0
  -30.4018  -11.3613   19.8635 H   0  0  0  0  0  0
  -29.7736  -11.7340   17.4667 H   0  0  0  0  0  0
  -29.6421  -13.4516   17.7344 H   0  0  0  0  0  0
  -27.8741  -11.2580   18.8698 H   0  0  0  0  0  0
  -27.3743  -12.5292   17.7859 H   0  0  0  0  0  0
  -27.6768  -14.2161   19.5052 H   0  0  0  0  0  0
  -28.6983  -11.9710   21.3317 H   0  0  0  0  0  0
  -28.4394  -13.6122   21.8547 H   0  0  0  0  0  0
  -25.2723   -9.5672   22.4748 H   0  0  0  0  0  0
  -23.9977   -7.4622   22.7461 H   0  0  0  0  0  0
  -21.0825   -8.8738   19.8963 H   0  0  0  0  0  0
  -22.3653  -10.9644   19.6157 H   0  0  0  0  0  0
  -21.2003   -7.6138   23.9703 H   0  0  0  0  0  0
  -21.1491   -6.0515   25.9067 H   0  0  0  0  0  0
  -22.0596   -2.7592   23.2882 H   0  0  0  0  0  0
  -22.4086  -11.9942   22.4848 H   0  0  0  0  0  0
  -21.1100  -13.1276   22.2578 H   0  0  0  0  0  0
  -24.6511  -15.8235   20.4845 H   0  0  0  0  0  0
  -26.2598  -15.6240   20.0248 H   0  0  0  0  0  0
  -26.7152  -32.5491   23.1126 H   0  0  0  0  0  0
  -25.0140  -33.9772   25.0513 H   0  0  0  0  0  0
  -22.6988  -31.3033   21.4129 H   0  0  0  0  0  0
  -23.3773  -35.9598   23.3316 H   0  0  0  0  0  0
  -24.3583  -36.8860   22.2042 H   0  0  0  0  0  0
  -23.7228  -37.6484   23.6626 H   0  0  0  0  0  0
  -26.0602  -31.5776   20.5930 H   0  0  0  0  0  0
  -26.8283  -30.8701   21.9858 H   0  0  0  0  0  0
  -28.1055  -29.0648   21.1603 H   0  0  0  0  0  0
  -26.0420  -25.9333   19.0368 H   0  0  0  0  0  0
  -23.9727  -27.2836   19.0410 H   0  0  0  0  0  0
  -23.7305  -30.5932   19.4087 H   0  0  0  0  0  0
  -22.7371  -29.2390   19.8690 H   0  0  0  0  0  0
  -25.1285  -36.1950   25.0848 H   0  0  0  0  0  0
  -21.0002  -28.3242   24.1473 H   0  0  0  0  0  0
  -20.5716  -26.2277   23.3613 H   0  0  0  0  0  0
  -21.6641  -26.7474   22.1193 H   0  0  0  0  0  0
  -19.6889  -25.6333   21.1233 H   0  0  0  0  0  0
  -19.6678  -27.3260   20.6794 H   0  0  0  0  0  0
  -17.4201  -26.6769   21.4016 H   0  0  0  0  0  0
  -18.0274  -26.0061   22.9019 H   0  0  0  0  0  0
  -19.7900  -30.7288   24.2321 H   0  0  0  0  0  0
  -17.4967  -31.6272   24.5179 H   0  0  0  0  0  0
  -15.5331  -30.2984   23.7608 H   0  0  0  0  0  0
  -15.8685  -28.0802   22.7076 H   0  0  0  0  0  0
  -24.5981  -30.6933   25.7747 H   0  0  0  0  0  0
  -24.8841  -32.2822   26.4768 H   0  0  0  0  0  0
  -25.8094  -30.8920   27.0226 H   0  0  0  0  0  0
  -26.2858  -29.6778   24.1110 H   0  0  0  0  0  0
  -27.4093  -29.7212   25.4480 H   0  0  0  0  0  0
  -27.8687  -30.4324   23.9205 H   0  0  0  0  0  0
  -27.2751  -33.3616   26.1994 H   0  0  0  0  0  0
  -28.3926  -32.6762   25.0283 H   0  0  0  0  0  0
  -28.0720  -31.8396   26.5390 H   0  0  0  0  0  0
  -28.2603  -38.0092   24.7538 H   0  0  0  0  0  0
  -28.1106  -36.2627   24.6286 H   0  0  0  0  0  0
  -27.2320  -37.1424   25.8877 H   0  0  0  0  0  0
  -20.9344  -29.8699   21.6923 H   0  0  0  0  0  0
  -26.0187  -38.2866   24.1411 H   0  0  0  0  0  0
  -28.5490  -20.2405   22.9891 H   0  0  0  0  0  0
  -28.9266  -15.9786   23.1568 H   0  0  0  0  0  0
  -30.1673  -18.0728   19.6010 H   0  0  0  0  0  0
  -30.6058  -22.8295   18.3130 H   0  0  0  0  0  0
  -27.5226  -21.4654   20.5692 H   0  0  0  0  0  0
  -28.6442  -22.1574   21.7736 H   0  0  0  0  0  0
  -28.6121  -17.4812   25.2750 H   0  0  0  0  0  0
  -27.0489  -17.6923   24.4943 H   0  0  0  0  0  0
  -27.9723  -19.0999   25.0077 H   0  0  0  0  0  0
  -27.2376  -23.9108   19.2306 H   0  0  0  0  0  0
  -28.7060  -24.5450   18.5513 H   0  0  0  0  0  0
  -29.2758  -25.1088   21.1166 H   0  0  0  0  0  0
  -27.5542  -25.1084   21.2933 H   0  0  0  0  0  0
  -28.7586  -15.1338   20.6894 H   0  0  0  0  0  0
  1 25  1  0  0  0
  1 30  2  0  0  0
  1 85  1  0  0  0
  2  3  1  0  0  0
  2 25  1  0  0  0
  2 87  1  0  0  0
  2 88  1  0  0  0
  3  4  1  0  0  0
  3 89  1  0  0  0
  3 90  1  0  0  0
  4  5  1  0  0  0
  4 91  1  0  0  0
  4 92  1  0  0  0
  5  6  1  0  0  0
  5 26  1  0  0  0
  5 93  1  0  0  0
  6 25  1  0  0  0
  6 94  1  0  0  0
  6 95  1  0  0  0
  7  8  2  0  0  0
  7 26  1  0  0  0
  7 29  1  0  0  0
  8  9  1  0  0  0
  8 22  1  0  0  0
  9 10  1  0  0  0
  9 27  2  0  0  0
 10 11  2  0  0  0
 10 15  1  0  0  0
 11 12  1  0  0  0
 11 96  1  0  0  0
 12 13  2  0  0  0
 12 97  1  0  0  0
 13 14  1  0  0  0
 13 31  1  0  0  0
 14 15  2  0  0  0
 14 98  1  0  0  0
 15 99  1  0  0  0
 16 17  2  0  0  0
 16 21  1  0  0  0
 16 31  1  0  0  0
 17 18  1  0  0  0
 17100  1  0  0  0
 18 19  2  0  0  0
 18101  1  0  0  0
 19 20  1  0  0  0
 19 24  1  0  0  0
 20 21  2  0  0  0
 20102  1  0  0  0
 21 23  1  0  0  0
 22 28  1  0  0  0
 22 32  2  0  0  0
 26 27  1  0  0  0
 28103  1  0  0  0
 28104  1  0  0  0
 29105  1  0  0  0
 29106  1  0  0  0
 33 34  1  0  0  0
 33 66  1  0  0  0
 33 70  2  0  0  0
 34 36  1  0  0  0
 34 59  1  0  0  0
 34107  1  0  0  0
 35 44  2  0  0  0
 35 45  1  0  0  0
 35 68  1  0  0  0
 36 56  1  0  0  0
 36108  1  0  0  0
 37 39  1  0  0  0
 37 47  1  0  0  0
 37 66  1  0  0  0
 37109  1  0  0  0
 38 43  2  0  0  0
 38 46  1  0  0  0
 38 47  1  0  0  0
 39 64  1  0  0  0
 39 67  2  0  0  0
 40 52  1  0  0  0
 40 53  2  0  0  0
 40 58  1  0  0  0
 41110  1  0  0  0
 41111  1  0  0  0
 41112  1  0  0  0
 41 48  1  0  0  0
 42 43  1  0  0  0
 42 66  1  0  0  0
 42113  1  0  0  0
 42114  1  0  0  0
 43 44  1  0  0  0
 44115  1  0  0  0
 45 46  2  0  0  0
 45116  1  0  0  0
 46117  1  0  0  0
 47118  1  0  0  0
 47119  1  0  0  0
 48 56  1  0  0  0
 48 65  1  0  0  0
 48120  1  0  0  0
 49 50  1  0  0  0
 49 53  1  0  0  0
 49 64  1  0  0  0
 49121  1  0  0  0
 50 51  1  0  0  0
 50122  1  0  0  0
 50123  1  0  0  0
 51 52  1  0  0  0
 51124  1  0  0  0
 51125  1  0  0  0
 52126  1  0  0  0
 52127  1  0  0  0
 53 54  1  0  0  0
 54 55  2  0  0  0
 54128  1  0  0  0
 55 57  1  0  0  0
 55129  1  0  0  0
 56 69  2  0  0  0
 57 58  2  0  0  0
 57130  1  0  0  0
 58131  1  0  0  0
 59 60  1  0  0  0
 59 61  1  0  0  0
 59 62  1  0  0  0
 60132  1  0  0  0
 60133  1  0  0  0
 60134  1  0  0  0
 61135  1  0  0  0
 61136  1  0  0  0
 61137  1  0  0  0
 62138  1  0  0  0
 62139  1  0  0  0
 62140  1  0  0  0
 63 65  1  0  0  0
 63141  1  0  0  0
 63142  1  0  0  0
 63143  1  0  0  0
 64144  1  0  0  0
 65145  1  0  0  0
 68 83  1  0  0  0
 71 74  2  0  0  0
 71 75  1  0  0  0
 71146  1  0  0  0
 72 74  1  0  0  0
 72 76  2  0  0  0
 72147  1  0  0  0
 73 75  2  0  0  0
 73 76  1  0  0  0
 73148  1  0  0  0
 74 81  1  0  0  0
 75 84  1  0  0  0
 76 85  1  0  0  0
 77 78  2  0  0  0
 77 79  1  0  0  0
 77149  1  0  0  0
 78 80  1  0  0  0
 78 82  1  0  0  0
 79 84  1  0  0  0
 79 86  2  0  0  0
 80 84  1  0  0  0
 80150  1  0  0  0
 80151  1  0  0  0
 81152  1  0  0  0
 81153  1  0  0  0
 81154  1  0  0  0
 82 83  1  0  0  0
 82155  1  0  0  0
 82156  1  0  0  0
 83157  1  0  0  0
 83158  1  0  0  0
 85159  1  0  0  0
M  ISO  4   1 100  68 101  83 101  85 100
M  END
> <chiral flag>
0

> <version>
0

> <s_m_source_file>
/data/baiqing/PycharmProjects/Reinvent-master-3.2/result/LINK_invent/BTK/process_docking_weight1_custom_product_contain_oxygen_bond_distance_aromatic_linkinvent_7_9_3/rearranged_h_0071.sdf

> <i_m_source_file_index>
76

> <r_mmod_Potential_Energy-OPLS-2005>
161.986083984375

> <r_mmod_Stretch_Energy-OPLS-2005>
55.5209808349609

> <r_mmod_Bend_Energy-OPLS-2005>
171.671401977539

> <r_mmod_Torsional_Energy-OPLS-2005>
308.9501953125

> <r_mmod_Improper_Torsional_Energy-OPLS-2005>
14.9433355331421

> <r_mmod_Van_der_Waal_Energy-OPLS-2005>
135.63215637207

> <r_mmod_Electrostatic_Energy-OPLS-2005>
-331.306121826172

> <r_mmod_Solvation_Energy-OPLS-2005>
-225.030090332031

> <b_mmod_Minimization_Converged-OPLS-2005>
0

> <r_mmod_RMS_Derivative-OPLS-2005>
5.20644426345825

$$$$
77
                    3D
 Structure written by MMmdl.
156165  0  0  1  0            999 V2000
  -30.5697  -14.8735   20.4249 C   0  0  0  0  0  0
  -30.4335  -12.5403   19.4753 C   0  0  0  0  0  0
  -29.5150  -12.5288   18.2343 C   0  0  0  0  0  0
  -28.0454  -12.3243   18.6530 C   0  0  0  0  0  0
  -27.6280  -13.2435   19.8324 C   0  0  2  0  0  0
  -28.6734  -13.2464   20.9657 C   0  0  0  0  0  0
  -25.2456  -13.8204   20.5713 C   0  0  0  0  0  0
  -24.1768  -13.0421   20.9205 C   0  0  0  0  0  0
  -24.6376  -11.6903   20.8719 C   0  0  0  0  0  0
  -23.9049  -10.4279   21.0371 C   0  0  0  0  0  0
  -24.3595   -9.4204   21.9152 C   0  0  0  0  0  0
  -23.6279   -8.2239   22.0735 C   0  0  0  0  0  0
  -22.4261   -8.0266   21.3532 C   0  0  0  0  0  0
  -21.9885   -9.0234   20.4634 C   0  0  0  0  0  0
  -22.7211  -10.2118   20.3037 C   0  0  0  0  0  0
  -21.6856   -6.0712   22.5262 C   0  0  0  0  0  0
  -21.4024   -6.5619   23.8196 C   0  0  0  0  0  0
  -21.3666   -5.6778   24.9162 C   0  0  0  0  0  0
  -21.6049   -4.3037   24.7219 C   0  0  0  0  0  0
  -21.8822   -3.8123   23.4338 C   0  0  0  0  0  0
  -21.9200   -4.6940   22.3397 C   0  0  0  0  0  0
  -22.7789  -13.5192   21.1888 C   0  0  0  0  0  0
  -22.1667   -4.2126   21.0975 F   0  0  0  0  0  0
  -21.5631   -3.4524   25.7730 F   0  0  0  0  0  0
  -29.9545  -13.6313   20.3636 N   0  0  0  0  0  0
  -26.2866  -12.9428   20.3202 N   0  0  0  0  0  0
  -25.9302  -11.6552   20.5686 N   0  0  0  0  0  0
  -22.0447  -12.8194   22.0470 N   0  0  0  0  0  0
  -25.4083  -15.1931   20.4161 N   0  0  0  0  0  0
  -31.7874  -14.9095   20.2217 O   0  0  0  0  0  0
  -21.6643   -6.8852   21.4221 O   0  0  0  0  0  0
  -22.3456  -14.5484   20.6724 O   0  0  0  0  0  0
  -24.6383  -31.8482   23.1908 C   0  0  0  0  0  0
  -25.9180  -32.4716   23.8293 C   0  0  1  0  0  0
  -27.2276  -27.1916   20.1474 C   0  0  0  0  0  0
  -25.5942  -33.8523   24.2210 N   0  0  0  0  0  0
  -23.4415  -30.4650   21.5365 C   0  0  2  0  0  0
  -24.8929  -28.8960   20.1157 C   0  0  0  0  0  0
  -22.7558  -29.4554   22.4890 C   0  0  0  0  0  0
  -18.0299  -28.1383   22.8476 C   0  0  0  0  0  0
  -24.1493  -36.7259   23.2639 C   0  0  0  0  0  0
  -25.9932  -30.7389   21.3823 C   0  0  0  0  0  0
  -26.0689  -29.3538   20.7241 C   0  0  0  0  0  0
  -27.2417  -28.5190   20.7175 C   0  0  0  0  0  0
  -26.0259  -26.8106   19.5167 C   0  0  0  0  0  0
  -24.8808  -27.6344   19.4988 C   0  0  0  0  0  0
  -23.6669  -29.7922   20.1565 C   0  0  0  0  0  0
  -25.4122  -36.3051   24.0321 C   0  0  1  0  0  0
  -20.5909  -28.3701   23.1257 C   0  0  2  0  0  0
  -20.6787  -26.9406   22.5420 C   0  0  0  0  0  0
  -19.5764  -26.6367   21.5219 C   0  0  0  0  0  0
  -18.1942  -26.7923   22.1622 C   0  0  0  0  0  0
  -19.1555  -28.8859   23.2856 C   0  0  0  0  0  0
  -18.9471  -30.1455   23.8882 C   0  0  0  0  0  0
  -17.6470  -30.6583   24.0556 C   0  0  0  0  0  0
  -25.9070  -34.9426   23.5076 C   0  0  0  0  0  0
  -16.5362  -29.9080   23.6321 C   0  0  0  0  0  0
  -16.7289  -28.6496   23.0349 C   0  0  0  0  0  0
  -26.4503  -31.6566   25.0716 C   0  0  0  0  0  0
  -25.3693  -31.3792   26.1420 C   0  0  0  0  0  0
  -27.0336  -30.2959   24.6279 C   0  0  0  0  0  0
  -27.6049  -32.4321   25.7494 C   0  0  0  0  0  0
  -27.5582  -37.1790   24.8462 C   0  0  0  0  0  0
  -21.4256  -29.3031   22.3643 N   0  0  0  0  0  0
  -26.4291  -37.3751   23.9408 N   0  0  0  0  0  0
  -24.7102  -31.0371   22.0928 N   0  0  0  0  0  0
  -23.4220  -28.8103   23.3033 O   0  0  0  0  0  0
  -28.3046  -26.2528   20.1714 O   0  0  0  0  0  0
  -26.5653  -34.8908   22.4650 O   0  0  0  0  0  0
  -23.5514  -32.1335   23.7156 O   0  0  0  0  0  0
  -27.2706  -20.7113   19.3989 C   0  0  0  0  0  0
  -26.9820  -19.3629   19.1274 C   0  0  0  0  0  0
  -29.3312  -20.0334   20.3760 C   0  0  0  0  0  0
  -29.0888  -18.5867   20.1189 C   0  0  0  0  0  0
  -28.4450  -21.1761   20.0378 C   0  0  0  0  0  0
  -27.8573  -18.3122   19.4556 C   0  0  0  0  0  0
  -29.3530  -23.7746   20.5889 C   0  0  0  0  0  0
  -30.1230  -17.4162   20.4429 C   0  0  0  0  0  0
  -27.4970  -23.6565   19.7143 C   0  0  0  0  0  0
  -28.0888  -24.7975   20.6372 C   0  0  2  0  0  0
  -27.5811  -24.8935   22.0816 C   0  0  0  0  0  0
  -28.4970  -22.6884   20.2554 N   0  0  0  0  0  0
  -27.4415  -17.0370   19.0584 N   0  0  0  0  0  0
  -29.7820  -16.0454   20.4563 N   0  0  0  0  0  0
  -30.5550  -23.8315   20.7419 O   0  0  0  0  0  0
  -31.2781  -17.7771   20.6965 O   0  0  0  0  0  0
  -31.4711  -12.6818   19.1688 H   0  0  0  0  0  0
  -30.4003  -11.5783   19.9898 H   0  0  0  0  0  0
  -29.8213  -11.7451   17.5394 H   0  0  0  0  0  0
  -29.6173  -13.4727   17.6953 H   0  0  0  0  0  0
  -27.9340  -11.2798   18.9461 H   0  0  0  0  0  0
  -27.3832  -12.4771   17.7993 H   0  0  0  0  0  0
  -27.5968  -14.2506   19.4168 H   0  0  0  0  0  0
  -28.7423  -12.2667   21.4405 H   0  0  0  0  0  0
  -28.3869  -13.9538   21.7448 H   0  0  0  0  0  0
  -25.2732   -9.5698   22.4722 H   0  0  0  0  0  0
  -23.9995   -7.4632   22.7444 H   0  0  0  0  0  0
  -21.0815   -8.8718   19.8940 H   0  0  0  0  0  0
  -22.3626  -10.9637   19.6149 H   0  0  0  0  0  0
  -21.2015   -7.6126   23.9692 H   0  0  0  0  0  0
  -21.1496   -6.0508   25.9070 H   0  0  0  0  0  0
  -22.0601   -2.7580   23.2841 H   0  0  0  0  0  0
  -22.4084  -11.9894   22.4913 H   0  0  0  0  0  0
  -21.1051  -13.1192   22.2647 H   0  0  0  0  0  0
  -24.6269  -15.8318   20.5094 H   0  0  0  0  0  0
  -26.2487  -15.6579   20.0751 H   0  0  0  0  0  0
  -26.7251  -32.5345   23.1034 H   0  0  0  0  0  0
  -25.0084  -33.9650   25.0355 H   0  0  0  0  0  0
  -22.7402  -31.2875   21.3833 H   0  0  0  0  0  0
  -23.3762  -35.9580   23.3292 H   0  0  0  0  0  0
  -24.3583  -36.8889   22.2054 H   0  0  0  0  0  0
  -23.7233  -37.6451   23.6670 H   0  0  0  0  0  0
  -26.1435  -31.4985   20.6125 H   0  0  0  0  0  0
  -26.8651  -30.7887   22.0244 H   0  0  0  0  0  0
  -28.1444  -28.8700   21.1979 H   0  0  0  0  0  0
  -25.9591  -25.8420   19.0446 H   0  0  0  0  0  0
  -23.9816  -27.2762   19.0175 H   0  0  0  0  0  0
  -23.8025  -30.5660   19.3999 H   0  0  0  0  0  0
  -22.7837  -29.2315   19.8468 H   0  0  0  0  0  0
  -25.1302  -36.1888   25.0810 H   0  0  0  0  0  0
  -20.9992  -28.3288   24.1384 H   0  0  0  0  0  0
  -20.5660  -26.2319   23.3638 H   0  0  0  0  0  0
  -21.6658  -26.7408   22.1232 H   0  0  0  0  0  0
  -19.6927  -25.6268   21.1269 H   0  0  0  0  0  0
  -19.6708  -27.3162   20.6735 H   0  0  0  0  0  0
  -17.4217  -26.6664   21.4026 H   0  0  0  0  0  0
  -18.0335  -26.0069   22.9017 H   0  0  0  0  0  0
  -19.7949  -30.7268   24.2263 H   0  0  0  0  0  0
  -17.5025  -31.6263   24.5154 H   0  0  0  0  0  0
  -15.5362  -30.2980   23.7642 H   0  0  0  0  0  0
  -15.8690  -28.0807   22.7076 H   0  0  0  0  0  0
  -24.5898  -30.7091   25.7780 H   0  0  0  0  0  0
  -24.8841  -32.2984   26.4727 H   0  0  0  0  0  0
  -25.7978  -30.9084   27.0276 H   0  0  0  0  0  0
  -26.2944  -29.6718   24.1256 H   0  0  0  0  0  0
  -27.3905  -29.7229   25.4841 H   0  0  0  0  0  0
  -27.8866  -30.4170   23.9603 H   0  0  0  0  0  0
  -27.2662  -33.3655   26.2006 H   0  0  0  0  0  0
  -28.3898  -32.6828   25.0347 H   0  0  0  0  0  0
  -28.0664  -31.8483   26.5467 H   0  0  0  0  0  0
  -28.2598  -38.0090   24.7503 H   0  0  0  0  0  0
  -28.1082  -36.2621   24.6290 H   0  0  0  0  0  0
  -27.2306  -37.1439   25.8867 H   0  0  0  0  0  0
  -20.9471  -29.8764   21.6834 H   0  0  0  0  0  0
  -26.0169  -38.2820   24.1411 H   0  0  0  0  0  0
  -26.5117  -21.4066   19.0795 H   0  0  0  0  0  0
  -26.0488  -19.1472   18.6244 H   0  0  0  0  0  0
  -30.2636  -20.2738   20.8679 H   0  0  0  0  0  0
  -27.6255  -23.8453   18.6454 H   0  0  0  0  0  0
  -26.4582  -23.4246   19.9508 H   0  0  0  0  0  0
  -27.4429  -23.9091   22.5317 H   0  0  0  0  0  0
  -26.6197  -25.4025   22.1399 H   0  0  0  0  0  0
  -28.2850  -25.4401   22.7092 H   0  0  0  0  0  0
  -26.5597  -17.0477   18.5557 H   0  0  0  0  0  0
  -28.1115  -16.5532   18.4692 H   0  0  0  0  0  0
  -28.7857  -15.9061   20.3783 H   0  0  0  0  0  0
  1 25  1  0  0  0
  1 30  2  0  0  0
  1 84  1  0  0  0
  2  3  1  0  0  0
  2 25  1  0  0  0
  2 87  1  0  0  0
  2 88  1  0  0  0
  3  4  1  0  0  0
  3 89  1  0  0  0
  3 90  1  0  0  0
  4  5  1  0  0  0
  4 91  1  0  0  0
  4 92  1  0  0  0
  5  6  1  0  0  0
  5 26  1  0  0  0
  5 93  1  0  0  0
  6 25  1  0  0  0
  6 94  1  0  0  0
  6 95  1  0  0  0
  7  8  2  0  0  0
  7 26  1  0  0  0
  7 29  1  0  0  0
  8  9  1  0  0  0
  8 22  1  0  0  0
  9 10  1  0  0  0
  9 27  2  0  0  0
 10 11  2  0  0  0
 10 15  1  0  0  0
 11 12  1  0  0  0
 11 96  1  0  0  0
 12 13  2  0  0  0
 12 97  1  0  0  0
 13 14  1  0  0  0
 13 31  1  0  0  0
 14 15  2  0  0  0
 14 98  1  0  0  0
 15 99  1  0  0  0
 16 17  2  0  0  0
 16 21  1  0  0  0
 16 31  1  0  0  0
 17 18  1  0  0  0
 17100  1  0  0  0
 18 19  2  0  0  0
 18101  1  0  0  0
 19 20  1  0  0  0
 19 24  1  0  0  0
 20 21  2  0  0  0
 20102  1  0  0  0
 21 23  1  0  0  0
 22 28  1  0  0  0
 22 32  2  0  0  0
 26 27  1  0  0  0
 28103  1  0  0  0
 28104  1  0  0  0
 29105  1  0  0  0
 29106  1  0  0  0
 33 34  1  0  0  0
 33 66  1  0  0  0
 33 70  2  0  0  0
 34 36  1  0  0  0
 34 59  1  0  0  0
 34107  1  0  0  0
 35 44  2  0  0  0
 35 45  1  0  0  0
 35 68  1  0  0  0
 36 56  1  0  0  0
 36108  1  0  0  0
 37 39  1  0  0  0
 37 47  1  0  0  0
 37 66  1  0  0  0
 37109  1  0  0  0
 38 43  2  0  0  0
 38 46  1  0  0  0
 38 47  1  0  0  0
 39 64  1  0  0  0
 39 67  2  0  0  0
 40 52  1  0  0  0
 40 53  2  0  0  0
 40 58  1  0  0  0
 41110  1  0  0  0
 41111  1  0  0  0
 41112  1  0  0  0
 41 48  1  0  0  0
 42 43  1  0  0  0
 42 66  1  0  0  0
 42113  1  0  0  0
 42114  1  0  0  0
 43 44  1  0  0  0
 44115  1  0  0  0
 45 46  2  0  0  0
 45116  1  0  0  0
 46117  1  0  0  0
 47118  1  0  0  0
 47119  1  0  0  0
 48 56  1  0  0  0
 48 65  1  0  0  0
 48120  1  0  0  0
 49 50  1  0  0  0
 49 53  1  0  0  0
 49 64  1  0  0  0
 49121  1  0  0  0
 50 51  1  0  0  0
 50122  1  0  0  0
 50123  1  0  0  0
 51 52  1  0  0  0
 51124  1  0  0  0
 51125  1  0  0  0
 52126  1  0  0  0
 52127  1  0  0  0
 53 54  1  0  0  0
 54 55  2  0  0  0
 54128  1  0  0  0
 55 57  1  0  0  0
 55129  1  0  0  0
 56 69  2  0  0  0
 57 58  2  0  0  0
 57130  1  0  0  0
 58131  1  0  0  0
 59 60  1  0  0  0
 59 61  1  0  0  0
 59 62  1  0  0  0
 60132  1  0  0  0
 60133  1  0  0  0
 60134  1  0  0  0
 61135  1  0  0  0
 61136  1  0  0  0
 61137  1  0  0  0
 62138  1  0  0  0
 62139  1  0  0  0
 62140  1  0  0  0
 63 65  1  0  0  0
 63141  1  0  0  0
 63142  1  0  0  0
 63143  1  0  0  0
 64144  1  0  0  0
 65145  1  0  0  0
 68 80  1  0  0  0
 71 72  2  0  0  0
 71 75  1  0  0  0
 71146  1  0  0  0
 72 76  1  0  0  0
 72147  1  0  0  0
 73 74  1  0  0  0
 73 75  2  0  0  0
 73148  1  0  0  0
 74 76  2  0  0  0
 74 78  1  0  0  0
 75 82  1  0  0  0
 76 83  1  0  0  0
 77 80  1  0  0  0
 77 82  1  0  0  0
 77 85  2  0  0  0
 78 84  1  0  0  0
 78 86  2  0  0  0
 79 80  1  0  0  0
 79 82  1  0  0  0
 79149  1  0  0  0
 79150  1  0  0  0
 80 81  1  0  0  0
 81151  1  0  0  0
 81152  1  0  0  0
 81153  1  0  0  0
 83154  1  0  0  0
 83155  1  0  0  0
 84156  1  0  0  0
M  ISO  4   1 100  68 101  80 101  84 100
M  END
> <chiral flag>
0

> <version>
0

> <s_m_source_file>
/data/baiqing/PycharmProjects/Reinvent-master-3.2/result/LINK_invent/BTK/process_docking_weight1_custom_product_contain_oxygen_bond_distance_aromatic_linkinvent_7_9_3/rearranged_h_0071.sdf

> <i_m_source_file_index>
77

> <r_mmod_Potential_Energy-OPLS-2005>
354.169158935547

> <r_mmod_Stretch_Energy-OPLS-2005>
190.580917358398

> <r_mmod_Bend_Energy-OPLS-2005>
255.374114990234

> <r_mmod_Torsional_Energy-OPLS-2005>
251.132019042969

> <r_mmod_Improper_Torsional_Energy-OPLS-2005>
12.8922157287598

> <r_mmod_Van_der_Waal_Energy-OPLS-2005>
140.575622558594

> <r_mmod_Electrostatic_Energy-OPLS-2005>
-400.769989013672

> <r_mmod_Solvation_Energy-OPLS-2005>
-240.346954345703

> <b_mmod_Minimization_Converged-OPLS-2005>
0

> <r_mmod_RMS_Derivative-OPLS-2005>
2.50774383544922

$$$$
78
                    3D
 Structure written by MMmdl.
164173  0  0  1  0            999 V2000
  -30.6159  -14.7740   20.3819 C   0  0  0  0  0  0
  -30.4465  -12.4347   19.5055 C   0  0  0  0  0  0
  -29.5307  -12.3815   18.2621 C   0  0  0  0  0  0
  -28.0410  -12.3026   18.6586 C   0  0  0  0  0  0
  -27.6450  -13.2307   19.8403 C   0  0  2  0  0  0
  -28.6923  -13.2053   20.9742 C   0  0  0  0  0  0
  -25.2539  -13.8215   20.5663 C   0  0  0  0  0  0
  -24.1822  -13.0468   20.9200 C   0  0  0  0  0  0
  -24.6398  -11.6943   20.8747 C   0  0  0  0  0  0
  -23.9059  -10.4322   21.0395 C   0  0  0  0  0  0
  -24.3599   -9.4247   21.9184 C   0  0  0  0  0  0
  -23.6291   -8.2272   22.0740 C   0  0  0  0  0  0
  -22.4275   -8.0301   21.3531 C   0  0  0  0  0  0
  -21.9905   -9.0276   20.4632 C   0  0  0  0  0  0
  -22.7224  -10.2159   20.3049 C   0  0  0  0  0  0
  -21.6862   -6.0750   22.5263 C   0  0  0  0  0  0
  -21.4023   -6.5647   23.8208 C   0  0  0  0  0  0
  -21.3657   -5.6785   24.9160 C   0  0  0  0  0  0
  -21.6046   -4.3055   24.7202 C   0  0  0  0  0  0
  -21.8820   -3.8152   23.4319 C   0  0  0  0  0  0
  -21.9197   -4.6976   22.3382 C   0  0  0  0  0  0
  -22.7842  -13.5256   21.1857 C   0  0  0  0  0  0
  -22.1655   -4.2161   21.0958 F   0  0  0  0  0  0
  -21.5636   -3.4534   25.7714 F   0  0  0  0  0  0
  -29.9907  -13.5424   20.3796 N   0  0  0  0  0  0
  -26.2969  -12.9412   20.3261 N   0  0  0  0  0  0
  -25.9343  -11.6567   20.5800 N   0  0  0  0  0  0
  -22.0482  -12.8246   22.0401 N   0  0  0  0  0  0
  -25.4240  -15.1926   20.4019 N   0  0  0  0  0  0
  -31.8164  -14.8457   20.1170 O   0  0  0  0  0  0
  -21.6647   -6.8893   21.4231 O   0  0  0  0  0  0
  -22.3534  -14.5563   20.6707 O   0  0  0  0  0  0
  -24.6311  -31.8563   23.1975 C   0  0  0  0  0  0
  -25.9136  -32.4762   23.8328 C   0  0  1  0  0  0
  -27.2377  -27.2800   20.1283 C   0  0  0  0  0  0
  -25.5929  -33.8560   24.2255 N   0  0  0  0  0  0
  -23.4286  -30.4773   21.5408 C   0  0  2  0  0  0
  -24.8801  -28.9281   20.1104 C   0  0  0  0  0  0
  -22.7515  -29.4599   22.4917 C   0  0  0  0  0  0
  -18.0294  -28.1385   22.8488 C   0  0  0  0  0  0
  -24.1490  -36.7294   23.2638 C   0  0  0  0  0  0
  -25.9733  -30.7774   21.3727 C   0  0  0  0  0  0
  -26.0501  -29.3995   20.7192 C   0  0  0  0  0  0
  -27.2297  -28.5881   20.7183 C   0  0  0  0  0  0
  -26.0432  -26.8817   19.4805 C   0  0  0  0  0  0
  -24.8819  -27.6765   19.4792 C   0  0  0  0  0  0
  -23.6466  -29.8078   20.1584 C   0  0  0  0  0  0
  -25.4113  -36.3073   24.0325 C   0  0  1  0  0  0
  -20.5899  -28.3694   23.1277 C   0  0  2  0  0  0
  -20.6773  -26.9410   22.5407 C   0  0  0  0  0  0
  -19.5742  -26.6383   21.5212 C   0  0  0  0  0  0
  -18.1928  -26.7931   22.1627 C   0  0  0  0  0  0
  -19.1549  -28.8859   23.2877 C   0  0  0  0  0  0
  -18.9461  -30.1462   23.8894 C   0  0  0  0  0  0
  -17.6455  -30.6587   24.0557 C   0  0  0  0  0  0
  -25.9053  -34.9443   23.5093 C   0  0  0  0  0  0
  -16.5349  -29.9083   23.6322 C   0  0  0  0  0  0
  -16.7279  -28.6498   23.0352 C   0  0  0  0  0  0
  -26.4496  -31.6577   25.0713 C   0  0  0  0  0  0
  -25.3710  -31.3719   26.1425 C   0  0  0  0  0  0
  -27.0329  -30.2996   24.6170 C   0  0  0  0  0  0
  -27.6059  -32.4304   25.7490 C   0  0  0  0  0  0
  -27.5580  -37.1797   24.8460 C   0  0  0  0  0  0
  -21.4219  -29.3047   22.3675 N   0  0  0  0  0  0
  -26.4288  -37.3771   23.9408 N   0  0  0  0  0  0
  -24.6969  -31.0550   22.0937 N   0  0  0  0  0  0
  -23.4223  -28.8139   23.3010 O   0  0  0  0  0  0
  -28.3409  -26.3934   20.2035 O   0  0  0  0  0  0
  -26.5629  -34.8922   22.4665 O   0  0  0  0  0  0
  -23.5461  -32.1370   23.7274 O   0  0  0  0  0  0
  -29.7235  -18.5483   20.4916 C   0  0  0  0  0  0
  -30.1848  -19.8200   18.4809 C   0  0  0  0  0  0
  -30.2262  -17.3581   18.4046 C   0  0  0  0  0  0
  -29.7696  -19.8501   19.8236 C   0  0  0  0  0  0
  -29.9807  -17.2681   19.8204 C   0  0  0  0  0  0
  -30.4177  -18.6230   17.7939 C   0  0  0  0  0  0
  -29.7453  -21.7199   21.5717 C   0  0  0  0  0  0
  -28.8564  -22.3410   19.5622 C   0  0  0  0  0  0
  -29.1546  -23.7321   20.2547 C   0  0  2  0  0  0
  -29.4143  -23.2447   21.7123 C   0  0  0  0  0  0
  -28.1819  -23.4078   22.6249 C   0  0  0  0  0  0
  -30.6056  -24.0029   22.3403 C   0  0  0  0  0  0
  -28.1078  -24.9341   19.9476 C   0  0  0  0  0  0
  -30.1556  -16.1474   17.4635 C   0  0  0  0  0  0
  -29.4475  -21.2094   20.3580 N   0  0  0  0  0  0
  -29.8486  -15.9324   20.5009 N   0  0  0  0  0  0
  -30.2365  -21.0752   22.5033 O   0  0  0  0  0  0
  -30.7971  -18.7304   16.4958 F   0  0  0  0  0  0
  -31.2713  -15.4220   17.4872 F   0  0  0  0  0  0
  -29.1116  -15.4038   17.8156 F   0  0  0  0  0  0
  -29.9283  -16.4704   16.1892 F   0  0  0  0  0  0
  -31.4898  -12.5432   19.2011 H   0  0  0  0  0  0
  -30.4011  -11.4900   20.0494 H   0  0  0  0  0  0
  -29.7843  -11.5056   17.6634 H   0  0  0  0  0  0
  -29.7254  -13.2247   17.6093 H   0  0  0  0  0  0
  -27.8511  -11.2654   18.9367 H   0  0  0  0  0  0
  -27.4066  -12.5001   17.7938 H   0  0  0  0  0  0
  -27.6275  -14.2426   19.4367 H   0  0  0  0  0  0
  -28.7315  -12.2253   21.4518 H   0  0  0  0  0  0
  -28.4294  -13.9191   21.7567 H   0  0  0  0  0  0
  -25.2728   -9.5761   22.4781 H   0  0  0  0  0  0
  -24.0030   -7.4659   22.7441 H   0  0  0  0  0  0
  -21.0851   -8.8780   19.8919 H   0  0  0  0  0  0
  -22.3670  -10.9698   19.6165 H   0  0  0  0  0  0
  -21.2023   -7.6155   23.9713 H   0  0  0  0  0  0
  -21.1471   -6.0507   25.9063 H   0  0  0  0  0  0
  -22.0606   -2.7621   23.2789 H   0  0  0  0  0  0
  -22.4094  -11.9910   22.4803 H   0  0  0  0  0  0
  -21.1105  -13.1273   22.2614 H   0  0  0  0  0  0
  -24.6461  -15.8393   20.4780 H   0  0  0  0  0  0
  -26.2617  -15.6253   20.0341 H   0  0  0  0  0  0
  -26.7219  -32.5430   23.1090 H   0  0  0  0  0  0
  -25.0070  -33.9686   25.0397 H   0  0  0  0  0  0
  -22.7240  -31.2981   21.3921 H   0  0  0  0  0  0
  -23.3750  -35.9628   23.3280 H   0  0  0  0  0  0
  -24.3592  -36.8937   22.2058 H   0  0  0  0  0  0
  -23.7242  -37.6489   23.6675 H   0  0  0  0  0  0
  -26.1033  -31.5347   20.5981 H   0  0  0  0  0  0
  -26.8551  -30.8346   21.9994 H   0  0  0  0  0  0
  -28.1235  -28.9459   21.2094 H   0  0  0  0  0  0
  -25.9715  -25.9304   18.9762 H   0  0  0  0  0  0
  -23.9898  -27.3100   18.9900 H   0  0  0  0  0  0
  -23.7634  -30.5799   19.3970 H   0  0  0  0  0  0
  -22.7687  -29.2317   19.8597 H   0  0  0  0  0  0
  -25.1290  -36.1916   25.0816 H   0  0  0  0  0  0
  -20.9995  -28.3260   24.1394 H   0  0  0  0  0  0
  -20.5666  -26.2301   23.3610 H   0  0  0  0  0  0
  -21.6639  -26.7422   22.1199 H   0  0  0  0  0  0
  -19.6893  -25.6289   21.1251 H   0  0  0  0  0  0
  -19.6681  -27.3187   20.6736 H   0  0  0  0  0  0
  -17.4195  -26.6692   21.4029 H   0  0  0  0  0  0
  -18.0319  -26.0076   22.9024 H   0  0  0  0  0  0
  -19.7932  -30.7282   24.2265 H   0  0  0  0  0  0
  -17.5003  -31.6266   24.5157 H   0  0  0  0  0  0
  -15.5347  -30.2976   23.7639 H   0  0  0  0  0  0
  -15.8685  -28.0812   22.7063 H   0  0  0  0  0  0
  -24.5898  -30.7059   25.7738 H   0  0  0  0  0  0
  -24.8882  -32.2882   26.4831 H   0  0  0  0  0  0
  -25.8021  -30.8903   27.0211 H   0  0  0  0  0  0
  -26.2895  -29.6756   24.1199 H   0  0  0  0  0  0
  -27.4023  -29.7247   25.4671 H   0  0  0  0  0  0
  -27.8771  -30.4273   23.9391 H   0  0  0  0  0  0
  -27.2685  -33.3622   26.2040 H   0  0  0  0  0  0
  -28.3889  -32.6828   25.0327 H   0  0  0  0  0  0
  -28.0703  -31.8435   26.5424 H   0  0  0  0  0  0
  -28.2575  -38.0113   24.7518 H   0  0  0  0  0  0
  -28.1093  -36.2641   24.6259 H   0  0  0  0  0  0
  -27.2304  -37.1418   25.8864 H   0  0  0  0  0  0
  -20.9407  -29.8794   21.6899 H   0  0  0  0  0  0
  -26.0164  -38.2845   24.1402 H   0  0  0  0  0  0
  -29.4515  -18.5281   21.5378 H   0  0  0  0  0  0
  -30.3256  -20.7289   17.9172 H   0  0  0  0  0  0
  -29.1914  -22.3724   18.5280 H   0  0  0  0  0  0
  -27.7783  -22.1786   19.5285 H   0  0  0  0  0  0
  -30.1098  -24.0657   19.8452 H   0  0  0  0  0  0
  -27.3125  -22.8850   22.2253 H   0  0  0  0  0  0
  -27.9136  -24.4579   22.7468 H   0  0  0  0  0  0
  -28.3732  -23.0084   23.6216 H   0  0  0  0  0  0
  -31.5227  -23.8657   21.7659 H   0  0  0  0  0  0
  -30.8088  -23.6627   23.3566 H   0  0  0  0  0  0
  -30.4082  -25.0741   22.3891 H   0  0  0  0  0  0
  -27.1642  -24.6492   20.4124 H   0  0  0  0  0  0
  -27.9305  -24.8751   18.8728 H   0  0  0  0  0  0
  -28.9568  -15.7819   20.9462 H   0  0  0  0  0  0
  1 25  1  0  0  0
  1 30  2  0  0  0
  1 86  1  0  0  0
  2  3  1  0  0  0
  2 25  1  0  0  0
  2 92  1  0  0  0
  2 93  1  0  0  0
  3  4  1  0  0  0
  3 94  1  0  0  0
  3 95  1  0  0  0
  4  5  1  0  0  0
  4 96  1  0  0  0
  4 97  1  0  0  0
  5  6  1  0  0  0
  5 26  1  0  0  0
  5 98  1  0  0  0
  6 25  1  0  0  0
  6 99  1  0  0  0
  6100  1  0  0  0
  7  8  2  0  0  0
  7 26  1  0  0  0
  7 29  1  0  0  0
  8  9  1  0  0  0
  8 22  1  0  0  0
  9 10  1  0  0  0
  9 27  2  0  0  0
 10 11  2  0  0  0
 10 15  1  0  0  0
 11 12  1  0  0  0
 11101  1  0  0  0
 12 13  2  0  0  0
 12102  1  0  0  0
 13 14  1  0  0  0
 13 31  1  0  0  0
 14 15  2  0  0  0
 14103  1  0  0  0
 15104  1  0  0  0
 16 17  2  0  0  0
 16 21  1  0  0  0
 16 31  1  0  0  0
 17 18  1  0  0  0
 17105  1  0  0  0
 18 19  2  0  0  0
 18106  1  0  0  0
 19 20  1  0  0  0
 19 24  1  0  0  0
 20 21  2  0  0  0
 20107  1  0  0  0
 21 23  1  0  0  0
 22 28  1  0  0  0
 22 32  2  0  0  0
 26 27  1  0  0  0
 28108  1  0  0  0
 28109  1  0  0  0
 29110  1  0  0  0
 29111  1  0  0  0
 33 34  1  0  0  0
 33 66  1  0  0  0
 33 70  2  0  0  0
 34 36  1  0  0  0
 34 59  1  0  0  0
 34112  1  0  0  0
 35 44  2  0  0  0
 35 45  1  0  0  0
 35 68  1  0  0  0
 36 56  1  0  0  0
 36113  1  0  0  0
 37 39  1  0  0  0
 37 47  1  0  0  0
 37 66  1  0  0  0
 37114  1  0  0  0
 38 43  2  0  0  0
 38 46  1  0  0  0
 38 47  1  0  0  0
 39 64  1  0  0  0
 39 67  2  0  0  0
 40 52  1  0  0  0
 40 53  2  0  0  0
 40 58  1  0  0  0
 41115  1  0  0  0
 41116  1  0  0  0
 41117  1  0  0  0
 41 48  1  0  0  0
 42 43  1  0  0  0
 42 66  1  0  0  0
 42118  1  0  0  0
 42119  1  0  0  0
 43 44  1  0  0  0
 44120  1  0  0  0
 45 46  2  0  0  0
 45121  1  0  0  0
 46122  1  0  0  0
 47123  1  0  0  0
 47124  1  0  0  0
 48 56  1  0  0  0
 48 65  1  0  0  0
 48125  1  0  0  0
 49 50  1  0  0  0
 49 53  1  0  0  0
 49 64  1  0  0  0
 49126  1  0  0  0
 50 51  1  0  0  0
 50127  1  0  0  0
 50128  1  0  0  0
 51 52  1  0  0  0
 51129  1  0  0  0
 51130  1  0  0  0
 52131  1  0  0  0
 52132  1  0  0  0
 53 54  1  0  0  0
 54 55  2  0  0  0
 54133  1  0  0  0
 55 57  1  0  0  0
 55134  1  0  0  0
 56 69  2  0  0  0
 57 58  2  0  0  0
 57135  1  0  0  0
 58136  1  0  0  0
 59 60  1  0  0  0
 59 61  1  0  0  0
 59 62  1  0  0  0
 60137  1  0  0  0
 60138  1  0  0  0
 60139  1  0  0  0
 61140  1  0  0  0
 61141  1  0  0  0
 61142  1  0  0  0
 62143  1  0  0  0
 62144  1  0  0  0
 62145  1  0  0  0
 63 65  1  0  0  0
 63146  1  0  0  0
 63147  1  0  0  0
 63148  1  0  0  0
 64149  1  0  0  0
 65150  1  0  0  0
 68 83  1  0  0  0
 71 74  2  0  0  0
 71 75  1  0  0  0
 71151  1  0  0  0
 72 74  1  0  0  0
 72 76  2  0  0  0
 72152  1  0  0  0
 73 75  2  0  0  0
 73 76  1  0  0  0
 73 84  1  0  0  0
 74 85  1  0  0  0
 75 86  1  0  0  0
 76 88  1  0  0  0
 77 80  1  0  0  0
 77 85  1  0  0  0
 77 87  2  0  0  0
 78 79  1  0  0  0
 78 85  1  0  0  0
 78153  1  0  0  0
 78154  1  0  0  0
 79 80  1  0  0  0
 79 83  1  0  0  0
 79155  1  0  0  0
 80 81  1  0  0  0
 80 82  1  0  0  0
 81156  1  0  0  0
 81157  1  0  0  0
 81158  1  0  0  0
 82159  1  0  0  0
 82160  1  0  0  0
 82161  1  0  0  0
 83162  1  0  0  0
 83163  1  0  0  0
 84 89  1  0  0  0
 84 90  1  0  0  0
 84 91  1  0  0  0
 86164  1  0  0  0
M  ISO  4   1 100  68 101  83 101  86 100
M  END
> <chiral flag>
0

> <version>
0

> <s_m_source_file>
/data/baiqing/PycharmProjects/Reinvent-master-3.2/result/LINK_invent/BTK/process_docking_weight1_custom_product_contain_oxygen_bond_distance_aromatic_linkinvent_7_9_3/rearranged_h_0071.sdf

> <i_m_source_file_index>
78

> <r_mmod_Potential_Energy-OPLS-2005>
428.382080078125

> <r_mmod_Stretch_Energy-OPLS-2005>
134.296417236328

> <r_mmod_Bend_Energy-OPLS-2005>
203.832962036133

> <r_mmod_Torsional_Energy-OPLS-2005>
324.292236328125

> <r_mmod_Improper_Torsional_Energy-OPLS-2005>
5.72133731842041

> <r_mmod_Van_der_Waal_Energy-OPLS-2005>
149.234008789062

> <r_mmod_Electrostatic_Energy-OPLS-2005>
-264.265197753906

> <r_mmod_Solvation_Energy-OPLS-2005>
-218.891174316406

> <b_mmod_Minimization_Converged-OPLS-2005>
0

> <r_mmod_RMS_Derivative-OPLS-2005>
1.92244565486908

$$$$
79
                    3D
 Structure written by MMmdl.
157165  0  0  1  0            999 V2000
  -30.5828  -14.7135   20.4779 C   0  0  0  0  0  0
  -30.4450  -12.4341   19.4606 C   0  0  0  0  0  0
  -29.5119  -12.5149   18.2297 C   0  0  0  0  0  0
  -28.0368  -12.3360   18.6427 C   0  0  0  0  0  0
  -27.6489  -13.2118   19.8619 C   0  0  2  0  0  0
  -28.6967  -13.1007   20.9925 C   0  0  0  0  0  0
  -25.2548  -13.8169   20.5723 C   0  0  0  0  0  0
  -24.1816  -13.0425   20.9199 C   0  0  0  0  0  0
  -24.6385  -11.6896   20.8739 C   0  0  0  0  0  0
  -23.9064  -10.4282   21.0405 C   0  0  0  0  0  0
  -24.3612   -9.4198   21.9183 C   0  0  0  0  0  0
  -23.6281   -8.2238   22.0762 C   0  0  0  0  0  0
  -22.4264   -8.0283   21.3552 C   0  0  0  0  0  0
  -21.9901   -9.0258   20.4653 C   0  0  0  0  0  0
  -22.7242  -10.2127   20.3052 C   0  0  0  0  0  0
  -21.6855   -6.0729   22.5282 C   0  0  0  0  0  0
  -21.4021   -6.5635   23.8217 C   0  0  0  0  0  0
  -21.3661   -5.6788   24.9179 C   0  0  0  0  0  0
  -21.6036   -4.3052   24.7230 C   0  0  0  0  0  0
  -21.8817   -3.8146   23.4354 C   0  0  0  0  0  0
  -21.9192   -4.6955   22.3403 C   0  0  0  0  0  0
  -22.7833  -13.5210   21.1869 C   0  0  0  0  0  0
  -22.1657   -4.2138   21.0981 F   0  0  0  0  0  0
  -21.5623   -3.4543   25.7747 F   0  0  0  0  0  0
  -30.0036  -13.4664   20.4221 N   0  0  0  0  0  0
  -26.2968  -12.9328   20.3327 N   0  0  0  0  0  0
  -25.9317  -11.6487   20.5764 N   0  0  0  0  0  0
  -22.0472  -12.8219   22.0439 N   0  0  0  0  0  0
  -25.4208  -15.1906   20.4219 N   0  0  0  0  0  0
  -31.7544  -14.8851   20.1259 O   0  0  0  0  0  0
  -21.6635   -6.8877   21.4248 O   0  0  0  0  0  0
  -22.3509  -14.5510   20.6716 O   0  0  0  0  0  0
  -24.6303  -31.8562   23.1977 C   0  0  0  0  0  0
  -25.9144  -32.4757   23.8315 C   0  0  1  0  0  0
  -27.2343  -27.2874   20.1169 C   0  0  0  0  0  0
  -25.5952  -33.8553   24.2253 N   0  0  0  0  0  0
  -23.4248  -30.4762   21.5432 C   0  0  2  0  0  0
  -24.8726  -28.9228   20.1136 C   0  0  0  0  0  0
  -22.7486  -29.4599   22.4947 C   0  0  0  0  0  0
  -18.0296  -28.1355   22.8496 C   0  0  0  0  0  0
  -24.1495  -36.7282   23.2635 C   0  0  0  0  0  0
  -25.9670  -30.7773   21.3714 C   0  0  0  0  0  0
  -26.0434  -29.4006   20.7150 C   0  0  0  0  0  0
  -27.2259  -28.5963   20.7026 C   0  0  0  0  0  0
  -26.0343  -26.8656   19.5001 C   0  0  0  0  0  0
  -24.8716  -27.6617   19.4976 C   0  0  0  0  0  0
  -23.6402  -29.8054   20.1607 C   0  0  0  0  0  0
  -25.4114  -36.3063   24.0323 C   0  0  1  0  0  0
  -20.5894  -28.3667   23.1283 C   0  0  2  0  0  0
  -20.6784  -26.9389   22.5404 C   0  0  0  0  0  0
  -19.5762  -26.6363   21.5205 C   0  0  0  0  0  0
  -18.1941  -26.7906   22.1612 C   0  0  0  0  0  0
  -19.1543  -28.8828   23.2888 C   0  0  0  0  0  0
  -18.9465  -30.1425   23.8909 C   0  0  0  0  0  0
  -17.6463  -30.6569   24.0547 C   0  0  0  0  0  0
  -25.9057  -34.9438   23.5089 C   0  0  0  0  0  0
  -16.5357  -29.9055   23.6317 C   0  0  0  0  0  0
  -16.7283  -28.6457   23.0373 C   0  0  0  0  0  0
  -26.4517  -31.6566   25.0691 C   0  0  0  0  0  0
  -25.3732  -31.3720   26.1404 C   0  0  0  0  0  0
  -27.0361  -30.2989   24.6149 C   0  0  0  0  0  0
  -27.6093  -32.4271   25.7471 C   0  0  0  0  0  0
  -27.5574  -37.1791   24.8457 C   0  0  0  0  0  0
  -21.4196  -29.3027   22.3682 N   0  0  0  0  0  0
  -26.4289  -37.3757   23.9401 N   0  0  0  0  0  0
  -24.6930  -31.0538   22.0947 N   0  0  0  0  0  0
  -23.4197  -28.8154   23.3049 O   0  0  0  0  0  0
  -28.3622  -26.4390   20.1448 O   0  0  0  0  0  0
  -26.5618  -34.8916   22.4649 O   0  0  0  0  0  0
  -23.5464  -32.1388   23.7288 O   0  0  0  0  0  0
  -30.2987  -19.5974   20.9759 C   0  0  0  0  0  0
  -30.5595  -18.1838   21.0899 C   0  0  0  0  0  0
  -28.3404  -19.1241   19.6804 C   0  0  0  0  0  0
  -29.1655  -20.1183   20.2761 C   0  0  0  0  0  0
  -29.7034  -17.1999   20.5099 C   0  0  0  0  0  0
  -28.5963  -17.7242   19.7902 C   0  0  0  0  0  0
  -28.7308  -21.6194   20.2252 C   0  0  0  0  0  0
  -29.5072  -24.1080   20.1550 C   0  0  0  0  0  0
  -32.0181  -24.4802   20.0880 C   0  0  0  0  0  0
  -28.1947  -24.9467   20.0802 C   0  0  0  0  0  0
  -27.7106  -16.8351   19.1841 N   0  0  0  0  0  0
  -29.7299  -15.7508   20.7869 N   0  0  0  0  0  0
  -29.6885  -22.7251   20.2368 N   0  0  0  0  0  0
  -30.6046  -24.8905   20.1093 N   0  3  0  0  0  0
  -27.5333  -21.8996   20.1001 O   0  0  0  0  0  0
  -31.4865  -12.5688   19.1614 H   0  0  0  0  0  0
  -30.3912  -11.4453   19.9176 H   0  0  0  0  0  0
  -29.7866  -11.7576   17.4953 H   0  0  0  0  0  0
  -29.6395  -13.4792   17.7360 H   0  0  0  0  0  0
  -27.8857  -11.2850   18.8877 H   0  0  0  0  0  0
  -27.3802  -12.5514   17.7983 H   0  0  0  0  0  0
  -27.6530  -14.2355   19.5015 H   0  0  0  0  0  0
  -28.7247  -12.0856   21.3927 H   0  0  0  0  0  0
  -28.4330  -13.7438   21.8338 H   0  0  0  0  0  0
  -25.2752   -9.5668   22.4760 H   0  0  0  0  0  0
  -23.9995   -7.4615   22.7473 H   0  0  0  0  0  0
  -21.0835   -8.8780   19.8944 H   0  0  0  0  0  0
  -22.3717  -10.9666   19.6158 H   0  0  0  0  0  0
  -21.2027   -7.6140   23.9726 H   0  0  0  0  0  0
  -21.1482   -6.0514   25.9080 H   0  0  0  0  0  0
  -22.0597   -2.7611   23.2862 H   0  0  0  0  0  0
  -22.4108  -11.9904   22.4848 H   0  0  0  0  0  0
  -21.1079  -13.1234   22.2625 H   0  0  0  0  0  0
  -24.6447  -15.8328   20.5316 H   0  0  0  0  0  0
  -26.2674  -15.6635   20.0998 H   0  0  0  0  0  0
  -26.7214  -32.5416   23.1061 H   0  0  0  0  0  0
  -25.0110  -33.9686   25.0408 H   0  0  0  0  0  0
  -22.7212  -31.2979   21.3967 H   0  0  0  0  0  0
  -23.3753  -35.9616   23.3287 H   0  0  0  0  0  0
  -24.3599  -36.8915   22.2054 H   0  0  0  0  0  0
  -23.7258  -37.6484   23.6666 H   0  0  0  0  0  0
  -26.0977  -31.5387   20.6015 H   0  0  0  0  0  0
  -26.8472  -30.8305   21.9998 H   0  0  0  0  0  0
  -28.1250  -28.9608   21.1789 H   0  0  0  0  0  0
  -25.9667  -25.9048   19.0141 H   0  0  0  0  0  0
  -23.9746  -27.2893   19.0218 H   0  0  0  0  0  0
  -23.7582  -30.5784   19.4006 H   0  0  0  0  0  0
  -22.7599  -29.2337   19.8610 H   0  0  0  0  0  0
  -25.1299  -36.1905   25.0816 H   0  0  0  0  0  0
  -20.9989  -28.3231   24.1402 H   0  0  0  0  0  0
  -20.5675  -26.2272   23.3599 H   0  0  0  0  0  0
  -21.6659  -26.7409   22.1207 H   0  0  0  0  0  0
  -19.6921  -25.6271   21.1241 H   0  0  0  0  0  0
  -19.6693  -27.3167   20.6731 H   0  0  0  0  0  0
  -17.4213  -26.6669   21.4009 H   0  0  0  0  0  0
  -18.0326  -26.0025   22.8979 H   0  0  0  0  0  0
  -19.7939  -30.7232   24.2297 H   0  0  0  0  0  0
  -17.5016  -31.6263   24.5106 H   0  0  0  0  0  0
  -15.5356  -30.2956   23.7619 H   0  0  0  0  0  0
  -15.8688  -28.0747   22.7123 H   0  0  0  0  0  0
  -24.5916  -30.7069   25.7718 H   0  0  0  0  0  0
  -24.8916  -32.2894   26.4797 H   0  0  0  0  0  0
  -25.8035  -30.8909   27.0195 H   0  0  0  0  0  0
  -26.2932  -29.6727   24.1196 H   0  0  0  0  0  0
  -27.4098  -29.7263   25.4650 H   0  0  0  0  0  0
  -27.8787  -30.4287   23.9350 H   0  0  0  0  0  0
  -27.2738  -33.3577   26.2059 H   0  0  0  0  0  0
  -28.3913  -32.6801   25.0296 H   0  0  0  0  0  0
  -28.0747  -31.8366   26.5377 H   0  0  0  0  0  0
  -28.2588  -38.0090   24.7507 H   0  0  0  0  0  0
  -28.1078  -36.2626   24.6275 H   0  0  0  0  0  0
  -27.2300  -37.1432   25.8863 H   0  0  0  0  0  0
  -20.9372  -29.8743   21.6887 H   0  0  0  0  0  0
  -26.0168  -38.2835   24.1385 H   0  0  0  0  0  0
  -30.9649  -20.2817   21.4834 H   0  0  0  0  0  0
  -31.3968  -17.8593   21.6903 H   0  0  0  0  0  0
  -27.4619  -19.4501   19.1400 H   0  0  0  0  0  0
  -32.6645  -25.3571   20.0562 H   0  0  0  0  0  0
  -32.2334  -23.8790   19.2038 H   0  0  0  0  0  0
  -32.2801  -23.9037   20.9753 H   0  0  0  0  0  0
  -27.5355  -24.6299   20.8892 H   0  0  0  0  0  0
  -27.7102  -24.6730   19.1437 H   0  0  0  0  0  0
  -27.0527  -17.2547   18.5365 H   0  0  0  0  0  0
  -28.1636  -16.0392   18.7525 H   0  0  0  0  0  0
  -28.8043  -15.3997   20.9762 H   0  0  0  0  0  0
  -30.6607  -22.4864   20.2992 H   0  0  0  0  0  0
  -30.4210  -25.8862   20.0645 H   0  0  0  0  0  0
  1 25  1  0  0  0
  1 30  2  0  0  0
  1 82  1  0  0  0
  2  3  1  0  0  0
  2 25  1  0  0  0
  2 86  1  0  0  0
  2 87  1  0  0  0
  3  4  1  0  0  0
  3 88  1  0  0  0
  3 89  1  0  0  0
  4  5  1  0  0  0
  4 90  1  0  0  0
  4 91  1  0  0  0
  5  6  1  0  0  0
  5 26  1  0  0  0
  5 92  1  0  0  0
  6 25  1  0  0  0
  6 93  1  0  0  0
  6 94  1  0  0  0
  7  8  2  0  0  0
  7 26  1  0  0  0
  7 29  1  0  0  0
  8  9  1  0  0  0
  8 22  1  0  0  0
  9 10  1  0  0  0
  9 27  2  0  0  0
 10 11  2  0  0  0
 10 15  1  0  0  0
 11 12  1  0  0  0
 11 95  1  0  0  0
 12 13  2  0  0  0
 12 96  1  0  0  0
 13 14  1  0  0  0
 13 31  1  0  0  0
 14 15  2  0  0  0
 14 97  1  0  0  0
 15 98  1  0  0  0
 16 17  2  0  0  0
 16 21  1  0  0  0
 16 31  1  0  0  0
 17 18  1  0  0  0
 17 99  1  0  0  0
 18 19  2  0  0  0
 18100  1  0  0  0
 19 20  1  0  0  0
 19 24  1  0  0  0
 20 21  2  0  0  0
 20101  1  0  0  0
 21 23  1  0  0  0
 22 28  1  0  0  0
 22 32  2  0  0  0
 26 27  1  0  0  0
 28102  1  0  0  0
 28103  1  0  0  0
 29104  1  0  0  0
 29105  1  0  0  0
 33 34  1  0  0  0
 33 66  1  0  0  0
 33 70  2  0  0  0
 34 36  1  0  0  0
 34 59  1  0  0  0
 34106  1  0  0  0
 35 44  2  0  0  0
 35 45  1  0  0  0
 35 68  1  0  0  0
 36 56  1  0  0  0
 36107  1  0  0  0
 37 39  1  0  0  0
 37 47  1  0  0  0
 37 66  1  0  0  0
 37108  1  0  0  0
 38 43  2  0  0  0
 38 46  1  0  0  0
 38 47  1  0  0  0
 39 64  1  0  0  0
 39 67  2  0  0  0
 40 52  1  0  0  0
 40 53  2  0  0  0
 40 58  1  0  0  0
 41109  1  0  0  0
 41110  1  0  0  0
 41111  1  0  0  0
 41 48  1  0  0  0
 42 43  1  0  0  0
 42 66  1  0  0  0
 42112  1  0  0  0
 42113  1  0  0  0
 43 44  1  0  0  0
 44114  1  0  0  0
 45 46  2  0  0  0
 45115  1  0  0  0
 46116  1  0  0  0
 47117  1  0  0  0
 47118  1  0  0  0
 48 56  1  0  0  0
 48 65  1  0  0  0
 48119  1  0  0  0
 49 50  1  0  0  0
 49 53  1  0  0  0
 49 64  1  0  0  0
 49120  1  0  0  0
 50 51  1  0  0  0
 50121  1  0  0  0
 50122  1  0  0  0
 51 52  1  0  0  0
 51123  1  0  0  0
 51124  1  0  0  0
 52125  1  0  0  0
 52126  1  0  0  0
 53 54  1  0  0  0
 54 55  2  0  0  0
 54127  1  0  0  0
 55 57  1  0  0  0
 55128  1  0  0  0
 56 69  2  0  0  0
 57 58  2  0  0  0
 57129  1  0  0  0
 58130  1  0  0  0
 59 60  1  0  0  0
 59 61  1  0  0  0
 59 62  1  0  0  0
 60131  1  0  0  0
 60132  1  0  0  0
 60133  1  0  0  0
 61134  1  0  0  0
 61135  1  0  0  0
 61136  1  0  0  0
 62137  1  0  0  0
 62138  1  0  0  0
 62139  1  0  0  0
 63 65  1  0  0  0
 63140  1  0  0  0
 63141  1  0  0  0
 63142  1  0  0  0
 64143  1  0  0  0
 65144  1  0  0  0
 68 80  1  0  0  0
 71 72  2  0  0  0
 71 74  1  0  0  0
 71145  1  0  0  0
 72 75  1  0  0  0
 72146  1  0  0  0
 73 74  2  0  0  0
 73 76  1  0  0  0
 73147  1  0  0  0
 74 77  1  0  0  0
 75 76  2  0  0  0
 75 82  1  0  0  0
 76 81  1  0  0  0
 77 83  1  0  0  0
 77 85  2  0  0  0
 78 80  1  0  0  0
 78 83  1  0  0  0
 78 84  2  0  0  0
 79 84  1  0  0  0
 79148  1  0  0  0
 79149  1  0  0  0
 79150  1  0  0  0
 80151  1  0  0  0
 80152  1  0  0  0
 81153  1  0  0  0
 81154  1  0  0  0
 82155  1  0  0  0
 83156  1  0  0  0
 84157  1  0  0  0
M  CHG  1  84   1
M  ISO  4   1 100  68 101  80 101  82 100
M  END
> <chiral flag>
0

> <version>
0

> <s_m_source_file>
/data/baiqing/PycharmProjects/Reinvent-master-3.2/result/LINK_invent/BTK/process_docking_weight1_custom_product_contain_oxygen_bond_distance_aromatic_linkinvent_7_9_3/rearranged_h_0071.sdf

> <i_m_source_file_index>
79

> <r_mmod_Potential_Energy-OPLS-2005>
-233.21257019043

> <r_mmod_Stretch_Energy-OPLS-2005>
99.1996002197266

> <r_mmod_Bend_Energy-OPLS-2005>
175.98291015625

> <r_mmod_Torsional_Energy-OPLS-2005>
250.598220825195

> <r_mmod_Improper_Torsional_Energy-OPLS-2005>
12.2630968093872

> <r_mmod_Van_der_Waal_Energy-OPLS-2005>
142.041793823242

> <r_mmod_Electrostatic_Energy-OPLS-2005>
-507.652313232422

> <r_mmod_Solvation_Energy-OPLS-2005>
-473.842254638672

> <b_mmod_Minimization_Converged-OPLS-2005>
0

> <r_mmod_RMS_Derivative-OPLS-2005>
1.97551786899567

$$$$
80
                    3D
 Structure written by MMmdl.
161170  0  0  1  0            999 V2000
  -30.6105  -14.6360   20.5090 C   0  0  0  0  0  0
  -30.4463  -12.3942   19.4407 C   0  0  0  0  0  0
  -29.5063  -12.5160   18.2195 C   0  0  0  0  0  0
  -28.0279  -12.3582   18.6332 C   0  0  0  0  0  0
  -27.6569  -13.2170   19.8720 C   0  0  2  0  0  0
  -28.7058  -13.0443   20.9942 C   0  0  0  0  0  0
  -25.2564  -13.8173   20.5705 C   0  0  0  0  0  0
  -24.1813  -13.0426   20.9129 C   0  0  0  0  0  0
  -24.6401  -11.6906   20.8714 C   0  0  0  0  0  0
  -23.9070  -10.4290   21.0392 C   0  0  0  0  0  0
  -24.3619   -9.4207   21.9177 C   0  0  0  0  0  0
  -23.6291   -8.2245   22.0752 C   0  0  0  0  0  0
  -22.4273   -8.0286   21.3543 C   0  0  0  0  0  0
  -21.9910   -9.0256   20.4641 C   0  0  0  0  0  0
  -22.7241  -10.2132   20.3044 C   0  0  0  0  0  0
  -21.6852   -6.0738   22.5282 C   0  0  0  0  0  0
  -21.4014   -6.5641   23.8214 C   0  0  0  0  0  0
  -21.3658   -5.6795   24.9174 C   0  0  0  0  0  0
  -21.6043   -4.3058   24.7225 C   0  0  0  0  0  0
  -21.8821   -3.8149   23.4349 C   0  0  0  0  0  0
  -21.9194   -4.6966   22.3405 C   0  0  0  0  0  0
  -22.7839  -13.5219   21.1821 C   0  0  0  0  0  0
  -22.1662   -4.2153   21.0982 F   0  0  0  0  0  0
  -21.5629   -3.4541   25.7738 F   0  0  0  0  0  0
  -30.0214  -13.4001   20.4335 N   0  0  0  0  0  0
  -26.3019  -12.9363   20.3403 N   0  0  0  0  0  0
  -25.9341  -11.6509   20.5784 N   0  0  0  0  0  0
  -22.0489  -12.8210   22.0389 N   0  0  0  0  0  0
  -25.4252  -15.1904   20.4258 N   0  0  0  0  0  0
  -31.7622  -14.8299   20.1088 O   0  0  0  0  0  0
  -21.6639   -6.8881   21.4244 O   0  0  0  0  0  0
  -22.3518  -14.5536   20.6702 O   0  0  0  0  0  0
  -24.6260  -31.8590   23.2025 C   0  0  0  0  0  0
  -25.9104  -32.4774   23.8357 C   0  0  1  0  0  0
  -27.2275  -27.3191   20.1165 C   0  0  0  0  0  0
  -25.5924  -33.8574   24.2283 N   0  0  0  0  0  0
  -23.4204  -30.4829   21.5440 C   0  0  2  0  0  0
  -24.8675  -28.9388   20.1100 C   0  0  0  0  0  0
  -22.7478  -29.4615   22.4922 C   0  0  0  0  0  0
  -18.0289  -28.1390   22.8471 C   0  0  0  0  0  0
  -24.1492  -36.7292   23.2641 C   0  0  0  0  0  0
  -25.9615  -30.7893   21.3745 C   0  0  0  0  0  0
  -26.0352  -29.4168   20.7176 C   0  0  0  0  0  0
  -27.2160  -28.6171   20.7142 C   0  0  0  0  0  0
  -26.0367  -26.8984   19.4772 C   0  0  0  0  0  0
  -24.8708  -27.6847   19.4810 C   0  0  0  0  0  0
  -23.6357  -29.8188   20.1587 C   0  0  0  0  0  0
  -25.4108  -36.3077   24.0339 C   0  0  1  0  0  0
  -20.5889  -28.3686   23.1280 C   0  0  2  0  0  0
  -20.6781  -26.9411   22.5404 C   0  0  0  0  0  0
  -19.5758  -26.6383   21.5207 C   0  0  0  0  0  0
  -18.1936  -26.7928   22.1618 C   0  0  0  0  0  0
  -19.1545  -28.8853   23.2872 C   0  0  0  0  0  0
  -18.9470  -30.1453   23.8891 C   0  0  0  0  0  0
  -17.6472  -30.6587   24.0560 C   0  0  0  0  0  0
  -25.9050  -34.9447   23.5104 C   0  0  0  0  0  0
  -16.5359  -29.9084   23.6337 C   0  0  0  0  0  0
  -16.7278  -28.6511   23.0340 C   0  0  0  0  0  0
  -26.4492  -31.6581   25.0725 C   0  0  0  0  0  0
  -25.3726  -31.3727   26.1455 C   0  0  0  0  0  0
  -27.0335  -30.3010   24.6161 C   0  0  0  0  0  0
  -27.6054  -32.4316   25.7495 C   0  0  0  0  0  0
  -27.5574  -37.1797   24.8464 C   0  0  0  0  0  0
  -21.4191  -29.3042   22.3677 N   0  0  0  0  0  0
  -26.4282  -37.3769   23.9416 N   0  0  0  0  0  0
  -24.6880  -31.0605   22.0972 N   0  0  0  0  0  0
  -23.4205  -28.8146   23.2991 O   0  0  0  0  0  0
  -28.3491  -26.4745   20.1797 O   0  0  0  0  0  0
  -26.5613  -34.8917   22.4669 O   0  0  0  0  0  0
  -23.5418  -32.1388   23.7346 O   0  0  0  0  0  0
  -30.6088  -19.3581   20.1975 C   0  0  0  0  0  0
  -30.7494  -17.9313   20.2169 C   0  0  0  0  0  0
  -28.5064  -19.1669   21.3750 C   0  0  0  0  0  0
  -29.4951  -20.0030   20.8012 C   0  0  0  0  0  0
  -29.7754  -17.0962   20.8333 C   0  0  0  0  0  0
  -28.6466  -17.7496   21.3963 C   0  0  0  0  0  0
  -29.1731  -23.6279   21.8934 C   0  0  0  0  0  0
  -29.3350  -22.1402   22.1291 C   0  0  0  0  0  0
  -29.1668  -22.4717   19.8264 C   0  0  0  0  0  0
  -29.2687  -23.9669   20.4033 C   0  0  2  0  0  0
  -30.6757  -24.5270   20.1057 C   0  0  0  0  0  0
  -28.1702  -25.0231   19.9207 C   0  0  0  0  0  0
  -29.3879  -21.4867   20.9494 N   0  0  0  0  0  0
  -27.6580  -16.9743   22.0098 N   0  0  0  0  0  0
  -29.7815  -15.6392   20.9208 N   0  0  0  0  0  0
  -29.4237  -21.6358   23.3655 N   0  3  0  0  0  0
  -29.0297  -24.4394   22.8134 O   0  0  0  0  0  0
  -31.4839  -12.5354   19.1327 H   0  0  0  0  0  0
  -30.3954  -11.3924   19.8702 H   0  0  0  0  0  0
  -29.7646  -11.7681   17.4682 H   0  0  0  0  0  0
  -29.6496  -13.4875   17.7437 H   0  0  0  0  0  0
  -27.8556  -11.3034   18.8495 H   0  0  0  0  0  0
  -27.3747  -12.6059   17.7956 H   0  0  0  0  0  0
  -27.6790  -14.2576   19.5474 H   0  0  0  0  0  0
  -28.7185  -12.0122   21.3485 H   0  0  0  0  0  0
  -28.4526  -13.6485   21.8666 H   0  0  0  0  0  0
  -25.2763   -9.5690   22.4752 H   0  0  0  0  0  0
  -24.0004   -7.4639   22.7473 H   0  0  0  0  0  0
  -21.0843   -8.8772   19.8949 H   0  0  0  0  0  0
  -22.3699  -10.9667   19.6154 H   0  0  0  0  0  0
  -21.2005   -7.6146   23.9720 H   0  0  0  0  0  0
  -21.1476   -6.0521   25.9079 H   0  0  0  0  0  0
  -22.0601   -2.7611   23.2847 H   0  0  0  0  0  0
  -22.4097  -11.9857   22.4757 H   0  0  0  0  0  0
  -21.1111  -13.1244   22.2611 H   0  0  0  0  0  0
  -24.6700  -15.8330   20.6350 H   0  0  0  0  0  0
  -26.3304  -15.6514   20.4296 H   0  0  0  0  0  0
  -26.7167  -32.5449   23.1104 H   0  0  0  0  0  0
  -25.0080  -33.9717   25.0432 H   0  0  0  0  0  0
  -22.7145  -31.3030   21.3997 H   0  0  0  0  0  0
  -23.3746  -35.9628   23.3302 H   0  0  0  0  0  0
  -24.3586  -36.8911   22.2054 H   0  0  0  0  0  0
  -23.7261  -37.6501   23.6660 H   0  0  0  0  0  0
  -26.0923  -31.5509   20.6049 H   0  0  0  0  0  0
  -26.8426  -30.8382   22.0019 H   0  0  0  0  0  0
  -28.1090  -28.9749   21.2072 H   0  0  0  0  0  0
  -25.9772  -25.9454   18.9739 H   0  0  0  0  0  0
  -23.9782  -27.3154   18.9952 H   0  0  0  0  0  0
  -23.7552  -30.5967   19.4032 H   0  0  0  0  0  0
  -22.7566  -29.2470   19.8554 H   0  0  0  0  0  0
  -25.1289  -36.1923   25.0830 H   0  0  0  0  0  0
  -20.9987  -28.3260   24.1397 H   0  0  0  0  0  0
  -20.5687  -26.2295   23.3599 H   0  0  0  0  0  0
  -21.6649  -26.7434   22.1195 H   0  0  0  0  0  0
  -19.6925  -25.6295   21.1238 H   0  0  0  0  0  0
  -19.6709  -27.3190   20.6735 H   0  0  0  0  0  0
  -17.4206  -26.6670   21.4022 H   0  0  0  0  0  0
  -18.0342  -26.0071   22.9022 H   0  0  0  0  0  0
  -19.7946  -30.7267   24.2261 H   0  0  0  0  0  0
  -17.5027  -31.6268   24.5156 H   0  0  0  0  0  0
  -15.5363  -30.2985   23.7662 H   0  0  0  0  0  0
  -15.8679  -28.0833   22.7051 H   0  0  0  0  0  0
  -24.5904  -30.7072   25.7792 H   0  0  0  0  0  0
  -24.8913  -32.2896   26.4865 H   0  0  0  0  0  0
  -25.8052  -30.8920   27.0241 H   0  0  0  0  0  0
  -26.2907  -29.6765   24.1188 H   0  0  0  0  0  0
  -27.4052  -29.7263   25.4655 H   0  0  0  0  0  0
  -27.8769  -30.4311   23.9378 H   0  0  0  0  0  0
  -27.2666  -33.3623   26.2061 H   0  0  0  0  0  0
  -28.3871  -32.6864   25.0329 H   0  0  0  0  0  0
  -28.0710  -31.8447   26.5421 H   0  0  0  0  0  0
  -28.2581  -38.0101   24.7498 H   0  0  0  0  0  0
  -28.1086  -36.2629   24.6303 H   0  0  0  0  0  0
  -27.2298  -37.1459   25.8871 H   0  0  0  0  0  0
  -20.9369  -29.8778   21.6903 H   0  0  0  0  0  0
  -26.0169  -38.2847   24.1406 H   0  0  0  0  0  0
  -31.3888  -19.9563   19.7485 H   0  0  0  0  0  0
  -31.6223  -17.4879   19.7592 H   0  0  0  0  0  0
  -27.6395  -19.6214   21.8328 H   0  0  0  0  0  0
  -29.8925  -22.2983   19.0306 H   0  0  0  0  0  0
  -28.1802  -22.2976   19.3946 H   0  0  0  0  0  0
  -31.4638  -23.8574   20.4564 H   0  0  0  0  0  0
  -30.8300  -25.4958   20.5825 H   0  0  0  0  0  0
  -30.8203  -24.6707   19.0343 H   0  0  0  0  0  0
  -27.2240  -24.7036   20.3618 H   0  0  0  0  0  0
  -28.0510  -24.9064   18.8428 H   0  0  0  0  0  0
  -26.9293  -17.4860   22.4961 H   0  0  0  0  0  0
  -27.9918  -16.2175   22.5943 H   0  0  0  0  0  0
  -28.8961  -15.2918   21.2549 H   0  0  0  0  0  0
  -29.3597  -22.2668   24.1438 H   0  0  0  0  0  0
  -29.5888  -20.6684   23.5556 H   0  0  0  0  0  0
  1 25  1  0  0  0
  1 30  2  0  0  0
  1 85  1  0  0  0
  2  3  1  0  0  0
  2 25  1  0  0  0
  2 88  1  0  0  0
  2 89  1  0  0  0
  3  4  1  0  0  0
  3 90  1  0  0  0
  3 91  1  0  0  0
  4  5  1  0  0  0
  4 92  1  0  0  0
  4 93  1  0  0  0
  5  6  1  0  0  0
  5 26  1  0  0  0
  5 94  1  0  0  0
  6 25  1  0  0  0
  6 95  1  0  0  0
  6 96  1  0  0  0
  7  8  2  0  0  0
  7 26  1  0  0  0
  7 29  1  0  0  0
  8  9  1  0  0  0
  8 22  1  0  0  0
  9 10  1  0  0  0
  9 27  2  0  0  0
 10 11  2  0  0  0
 10 15  1  0  0  0
 11 12  1  0  0  0
 11 97  1  0  0  0
 12 13  2  0  0  0
 12 98  1  0  0  0
 13 14  1  0  0  0
 13 31  1  0  0  0
 14 15  2  0  0  0
 14 99  1  0  0  0
 15100  1  0  0  0
 16 17  2  0  0  0
 16 21  1  0  0  0
 16 31  1  0  0  0
 17 18  1  0  0  0
 17101  1  0  0  0
 18 19  2  0  0  0
 18102  1  0  0  0
 19 20  1  0  0  0
 19 24  1  0  0  0
 20 21  2  0  0  0
 20103  1  0  0  0
 21 23  1  0  0  0
 22 28  1  0  0  0
 22 32  2  0  0  0
 26 27  1  0  0  0
 28104  1  0  0  0
 28105  1  0  0  0
 29106  1  0  0  0
 29107  1  0  0  0
 33 34  1  0  0  0
 33 66  1  0  0  0
 33 70  2  0  0  0
 34 36  1  0  0  0
 34 59  1  0  0  0
 34108  1  0  0  0
 35 44  2  0  0  0
 35 45  1  0  0  0
 35 68  1  0  0  0
 36 56  1  0  0  0
 36109  1  0  0  0
 37 39  1  0  0  0
 37 47  1  0  0  0
 37 66  1  0  0  0
 37110  1  0  0  0
 38 43  2  0  0  0
 38 46  1  0  0  0
 38 47  1  0  0  0
 39 64  1  0  0  0
 39 67  2  0  0  0
 40 52  1  0  0  0
 40 53  2  0  0  0
 40 58  1  0  0  0
 41111  1  0  0  0
 41112  1  0  0  0
 41113  1  0  0  0
 41 48  1  0  0  0
 42 43  1  0  0  0
 42 66  1  0  0  0
 42114  1  0  0  0
 42115  1  0  0  0
 43 44  1  0  0  0
 44116  1  0  0  0
 45 46  2  0  0  0
 45117  1  0  0  0
 46118  1  0  0  0
 47119  1  0  0  0
 47120  1  0  0  0
 48 56  1  0  0  0
 48 65  1  0  0  0
 48121  1  0  0  0
 49 50  1  0  0  0
 49 53  1  0  0  0
 49 64  1  0  0  0
 49122  1  0  0  0
 50 51  1  0  0  0
 50123  1  0  0  0
 50124  1  0  0  0
 51 52  1  0  0  0
 51125  1  0  0  0
 51126  1  0  0  0
 52127  1  0  0  0
 52128  1  0  0  0
 53 54  1  0  0  0
 54 55  2  0  0  0
 54129  1  0  0  0
 55 57  1  0  0  0
 55130  1  0  0  0
 56 69  2  0  0  0
 57 58  2  0  0  0
 57131  1  0  0  0
 58132  1  0  0  0
 59 60  1  0  0  0
 59 61  1  0  0  0
 59 62  1  0  0  0
 60133  1  0  0  0
 60134  1  0  0  0
 60135  1  0  0  0
 61136  1  0  0  0
 61137  1  0  0  0
 61138  1  0  0  0
 62139  1  0  0  0
 62140  1  0  0  0
 62141  1  0  0  0
 63 65  1  0  0  0
 63142  1  0  0  0
 63143  1  0  0  0
 63144  1  0  0  0
 64145  1  0  0  0
 65146  1  0  0  0
 68 82  1  0  0  0
 71 72  2  0  0  0
 71 74  1  0  0  0
 71147  1  0  0  0
 72 75  1  0  0  0
 72148  1  0  0  0
 73 74  2  0  0  0
 73 76  1  0  0  0
 73149  1  0  0  0
 74 83  1  0  0  0
 75 76  2  0  0  0
 75 85  1  0  0  0
 76 84  1  0  0  0
 77 78  1  0  0  0
 77 80  1  0  0  0
 77 87  2  0  0  0
 78 83  1  0  0  0
 78 86  2  0  0  0
 79 80  1  0  0  0
 79 83  1  0  0  0
 79150  1  0  0  0
 79151  1  0  0  0
 80 81  1  0  0  0
 80 82  1  0  0  0
 81152  1  0  0  0
 81153  1  0  0  0
 81154  1  0  0  0
 82155  1  0  0  0
 82156  1  0  0  0
 84157  1  0  0  0
 84158  1  0  0  0
 85159  1  0  0  0
 86160  1  0  0  0
 86161  1  0  0  0
M  CHG  1  86   1
M  ISO  4   1 100  68 101  82 101  85 100
M  END
> <chiral flag>
0

> <version>
0

> <s_m_source_file>
/data/baiqing/PycharmProjects/Reinvent-master-3.2/result/LINK_invent/BTK/process_docking_weight1_custom_product_contain_oxygen_bond_distance_aromatic_linkinvent_7_9_3/rearranged_h_0071.sdf

> <i_m_source_file_index>
80

> <r_mmod_Potential_Energy-OPLS-2005>
-272.041534423828

> <r_mmod_Stretch_Energy-OPLS-2005>
80.8144073486328

> <r_mmod_Bend_Energy-OPLS-2005>
203.267349243164

> <r_mmod_Torsional_Energy-OPLS-2005>
232.57585144043

> <r_mmod_Improper_Torsional_Energy-OPLS-2005>
10.038670539856

> <r_mmod_Van_der_Waal_Energy-OPLS-2005>
140.757827758789

> <r_mmod_Electrostatic_Energy-OPLS-2005>
-469.733581542969

> <r_mmod_Solvation_Energy-OPLS-2005>
-517.792602539062

> <b_mmod_Minimization_Converged-OPLS-2005>
0

> <r_mmod_RMS_Derivative-OPLS-2005>
1.2584593296051

$$$$
81
                    3D
 Structure written by MMmdl.
159168  0  0  1  0            999 V2000
  -30.6262  -14.6631   20.5091 C   0  0  0  0  0  0
  -30.4384  -12.4101   19.4603 C   0  0  0  0  0  0
  -29.5121  -12.5169   18.2281 C   0  0  0  0  0  0
  -28.0342  -12.3476   18.6358 C   0  0  0  0  0  0
  -27.6518  -13.2209   19.8609 C   0  0  2  0  0  0
  -28.6952  -13.0910   20.9938 C   0  0  0  0  0  0
  -25.2554  -13.8176   20.5696 C   0  0  0  0  0  0
  -24.1825  -13.0438   20.9199 C   0  0  0  0  0  0
  -24.6392  -11.6911   20.8724 C   0  0  0  0  0  0
  -23.9057  -10.4298   21.0393 C   0  0  0  0  0  0
  -24.3611   -9.4216   21.9176 C   0  0  0  0  0  0
  -23.6295   -8.2241   22.0742 C   0  0  0  0  0  0
  -22.4274   -8.0276   21.3534 C   0  0  0  0  0  0
  -21.9906   -9.0246   20.4634 C   0  0  0  0  0  0
  -22.7228  -10.2131   20.3048 C   0  0  0  0  0  0
  -21.6853   -6.0730   22.5281 C   0  0  0  0  0  0
  -21.4007   -6.5635   23.8214 C   0  0  0  0  0  0
  -21.3668   -5.6783   24.9176 C   0  0  0  0  0  0
  -21.6044   -4.3044   24.7220 C   0  0  0  0  0  0
  -21.8823   -3.8140   23.4342 C   0  0  0  0  0  0
  -21.9190   -4.6958   22.3403 C   0  0  0  0  0  0
  -22.7848  -13.5233   21.1863 C   0  0  0  0  0  0
  -22.1666   -4.2151   21.0977 F   0  0  0  0  0  0
  -21.5632   -3.4525   25.7732 F   0  0  0  0  0  0
  -30.0096  -13.4389   20.4308 N   0  0  0  0  0  0
  -26.2978  -12.9365   20.3299 N   0  0  0  0  0  0
  -25.9322  -11.6518   20.5735 N   0  0  0  0  0  0
  -22.0475  -12.8237   22.0415 N   0  0  0  0  0  0
  -25.4271  -15.1894   20.4135 N   0  0  0  0  0  0
  -31.7841  -14.8144   20.1184 O   0  0  0  0  0  0
  -21.6637   -6.8874   21.4241 O   0  0  0  0  0  0
  -22.3546  -14.5545   20.6720 O   0  0  0  0  0  0
  -24.6293  -31.8576   23.2023 C   0  0  0  0  0  0
  -25.9131  -32.4763   23.8352 C   0  0  1  0  0  0
  -27.2304  -27.3034   20.1142 C   0  0  0  0  0  0
  -25.5943  -33.8561   24.2274 N   0  0  0  0  0  0
  -23.4236  -30.4820   21.5448 C   0  0  2  0  0  0
  -24.8719  -28.9372   20.1107 C   0  0  0  0  0  0
  -22.7484  -29.4622   22.4934 C   0  0  0  0  0  0
  -18.0277  -28.1387   22.8489 C   0  0  0  0  0  0
  -24.1491  -36.7278   23.2642 C   0  0  0  0  0  0
  -25.9675  -30.7838   21.3764 C   0  0  0  0  0  0
  -26.0424  -29.4101   20.7170 C   0  0  0  0  0  0
  -27.2230  -28.6054   20.7107 C   0  0  0  0  0  0
  -26.0328  -26.8919   19.4810 C   0  0  0  0  0  0
  -24.8704  -27.6839   19.4833 C   0  0  0  0  0  0
  -23.6398  -29.8169   20.1607 C   0  0  0  0  0  0
  -25.4109  -36.3064   24.0340 C   0  0  1  0  0  0
  -20.5883  -28.3692   23.1281 C   0  0  2  0  0  0
  -20.6767  -26.9413   22.5408 C   0  0  0  0  0  0
  -19.5743  -26.6383   21.5212 C   0  0  0  0  0  0
  -18.1925  -26.7931   22.1622 C   0  0  0  0  0  0
  -19.1532  -28.8853   23.2880 C   0  0  0  0  0  0
  -18.9452  -30.1458   23.8899 C   0  0  0  0  0  0
  -17.6448  -30.6592   24.0556 C   0  0  0  0  0  0
  -25.9060  -34.9439   23.5107 C   0  0  0  0  0  0
  -16.5343  -29.9082   23.6338 C   0  0  0  0  0  0
  -16.7267  -28.6503   23.0363 C   0  0  0  0  0  0
  -26.4503  -31.6578   25.0729 C   0  0  0  0  0  0
  -25.3734  -31.3717   26.1459 C   0  0  0  0  0  0
  -27.0338  -30.2994   24.6201 C   0  0  0  0  0  0
  -27.6072  -32.4300   25.7483 C   0  0  0  0  0  0
  -27.5584  -37.1782   24.8453 C   0  0  0  0  0  0
  -21.4193  -29.3045   22.3680 N   0  0  0  0  0  0
  -26.4272  -37.3773   23.9434 N   0  0  0  0  0  0
  -24.6922  -31.0582   22.0979 N   0  0  0  0  0  0
  -23.4209  -28.8166   23.3017 O   0  0  0  0  0  0
  -28.3438  -26.4388   20.1677 O   0  0  0  0  0  0
  -26.5619  -34.8913   22.4667 O   0  0  0  0  0  0
  -23.5452  -32.1370   23.7351 O   0  0  0  0  0  0
  -29.0014  -19.3918   20.0887 C   0  0  0  0  0  0
  -28.9836  -17.9620   20.1499 C   0  0  0  0  0  0
  -31.0564  -19.3802   21.2951 C   0  0  0  0  0  0
  -31.0489  -17.9482   21.3921 C   0  0  0  0  0  0
  -30.0509  -20.1654   20.6475 C   0  0  0  0  0  0
  -30.0041  -17.1869   20.7738 C   0  0  0  0  0  0
  -29.0849  -22.5773   20.3186 C   0  0  0  0  0  0
  -29.2545  -23.9482   20.2224 C   0  0  0  0  0  0
  -31.7297  -23.5354   20.1300 C   0  0  0  0  0  0
  -30.6357  -24.5708   20.3887 C   0  0  0  0  0  0
  -31.4997  -22.1316   20.7118 C   0  0  0  0  0  0
  -28.1144  -24.9874   19.9206 C   0  0  0  0  0  0
  -32.1657  -17.3005   22.2188 C   0  0  0  0  0  0
  -30.1228  -21.6171   20.5552 N   0  0  0  0  0  0
  -29.8219  -15.7253   20.8511 N   0  0  0  0  0  0
  -32.7550  -23.8235   19.5060 O   0  0  0  0  0  0
  -32.6626  -18.1577   23.1139 F   0  0  0  0  0  0
  -31.7345  -16.2429   22.9070 F   0  0  0  0  0  0
  -33.1676  -16.9306   21.4237 F   0  0  0  0  0  0
  -31.4810  -12.5336   19.1627 H   0  0  0  0  0  0
  -30.3713  -11.4166   19.9065 H   0  0  0  0  0  0
  -29.7840  -11.7652   17.4855 H   0  0  0  0  0  0
  -29.6503  -13.4874   17.7477 H   0  0  0  0  0  0
  -27.8747  -11.2949   18.8688 H   0  0  0  0  0  0
  -27.3807  -12.5733   17.7932 H   0  0  0  0  0  0
  -27.6647  -14.2541   19.5135 H   0  0  0  0  0  0
  -28.7104  -12.0725   21.3847 H   0  0  0  0  0  0
  -28.4348  -13.7294   21.8387 H   0  0  0  0  0  0
  -25.2753   -9.5706   22.4751 H   0  0  0  0  0  0
  -24.0013   -7.4632   22.7456 H   0  0  0  0  0  0
  -21.0834   -8.8757   19.8937 H   0  0  0  0  0  0
  -22.3678  -10.9665   19.6155 H   0  0  0  0  0  0
  -21.1993   -7.6144   23.9728 H   0  0  0  0  0  0
  -21.1490   -6.0503   25.9084 H   0  0  0  0  0  0
  -22.0592   -2.7602   23.2829 H   0  0  0  0  0  0
  -22.4071  -11.9886   22.4803 H   0  0  0  0  0  0
  -21.1094  -13.1284   22.2613 H   0  0  0  0  0  0
  -24.6585  -15.8421   20.5217 H   0  0  0  0  0  0
  -26.2726  -15.6275   20.0735 H   0  0  0  0  0  0
  -26.7201  -32.5423   23.1103 H   0  0  0  0  0  0
  -25.0099  -33.9694   25.0426 H   0  0  0  0  0  0
  -22.7182  -31.3034   21.4010 H   0  0  0  0  0  0
  -23.3765  -35.9594   23.3244 H   0  0  0  0  0  0
  -24.3611  -36.8958   22.2072 H   0  0  0  0  0  0
  -23.7217  -37.6456   23.6689 H   0  0  0  0  0  0
  -26.1025  -31.5471   20.6090 H   0  0  0  0  0  0
  -26.8458  -30.8300   22.0085 H   0  0  0  0  0  0
  -28.1179  -28.9647   21.1996 H   0  0  0  0  0  0
  -25.9565  -25.9380   18.9823 H   0  0  0  0  0  0
  -23.9754  -27.3164   19.0000 H   0  0  0  0  0  0
  -23.7583  -30.5913   19.4020 H   0  0  0  0  0  0
  -22.7599  -29.2457   19.8597 H   0  0  0  0  0  0
  -25.1285  -36.1902   25.0831 H   0  0  0  0  0  0
  -20.9970  -28.3254   24.1404 H   0  0  0  0  0  0
  -20.5666  -26.2302   23.3606 H   0  0  0  0  0  0
  -21.6635  -26.7441   22.1207 H   0  0  0  0  0  0
  -19.6905  -25.6291   21.1250 H   0  0  0  0  0  0
  -19.6691  -27.3184   20.6735 H   0  0  0  0  0  0
  -17.4201  -26.6681   21.4016 H   0  0  0  0  0  0
  -18.0318  -26.0069   22.9012 H   0  0  0  0  0  0
  -19.7924  -30.7265   24.2277 H   0  0  0  0  0  0
  -17.5007  -31.6277   24.5139 H   0  0  0  0  0  0
  -15.5338  -30.2979   23.7679 H   0  0  0  0  0  0
  -15.8665  -28.0818   22.7086 H   0  0  0  0  0  0
  -24.5900  -30.7082   25.7774 H   0  0  0  0  0  0
  -24.8942  -32.2886   26.4901 H   0  0  0  0  0  0
  -25.8072  -30.8869   27.0220 H   0  0  0  0  0  0
  -26.2912  -29.6739   24.1240 H   0  0  0  0  0  0
  -27.4025  -29.7267   25.4721 H   0  0  0  0  0  0
  -27.8790  -30.4247   23.9431 H   0  0  0  0  0  0
  -27.2696  -33.3604   26.2054 H   0  0  0  0  0  0
  -28.3884  -32.6850   25.0308 H   0  0  0  0  0  0
  -28.0735  -31.8425   26.5403 H   0  0  0  0  0  0
  -28.2549  -38.0131   24.7582 H   0  0  0  0  0  0
  -28.1132  -36.2674   24.6156 H   0  0  0  0  0  0
  -27.2333  -37.1287   25.8860 H   0  0  0  0  0  0
  -20.9374  -29.8775   21.6894 H   0  0  0  0  0  0
  -26.0144  -38.2836   24.1468 H   0  0  0  0  0  0
  -28.1895  -19.8925   19.5820 H   0  0  0  0  0  0
  -28.1437  -17.4542   19.6977 H   0  0  0  0  0  0
  -31.8771  -19.8809   21.7820 H   0  0  0  0  0  0
  -28.1045  -22.1373   20.1920 H   0  0  0  0  0  0
  -30.7405  -24.9924   21.3877 H   0  0  0  0  0  0
  -30.7536  -25.3822   19.6699 H   0  0  0  0  0  0
  -31.7593  -22.1613   21.7704 H   0  0  0  0  0  0
  -32.2100  -21.4659   20.2186 H   0  0  0  0  0  0
  -27.2306  -24.6545   20.4670 H   0  0  0  0  0  0
  -27.8940  -24.8684   18.8586 H   0  0  0  0  0  0
  -28.8749  -15.4348   21.0406 H   0  0  0  0  0  0
  1 25  1  0  0  0
  1 30  2  0  0  0
  1 85  1  0  0  0
  2  3  1  0  0  0
  2 25  1  0  0  0
  2 90  1  0  0  0
  2 91  1  0  0  0
  3  4  1  0  0  0
  3 92  1  0  0  0
  3 93  1  0  0  0
  4  5  1  0  0  0
  4 94  1  0  0  0
  4 95  1  0  0  0
  5  6  1  0  0  0
  5 26  1  0  0  0
  5 96  1  0  0  0
  6 25  1  0  0  0
  6 97  1  0  0  0
  6 98  1  0  0  0
  7  8  2  0  0  0
  7 26  1  0  0  0
  7 29  1  0  0  0
  8  9  1  0  0  0
  8 22  1  0  0  0
  9 10  1  0  0  0
  9 27  2  0  0  0
 10 11  2  0  0  0
 10 15  1  0  0  0
 11 12  1  0  0  0
 11 99  1  0  0  0
 12 13  2  0  0  0
 12100  1  0  0  0
 13 14  1  0  0  0
 13 31  1  0  0  0
 14 15  2  0  0  0
 14101  1  0  0  0
 15102  1  0  0  0
 16 17  2  0  0  0
 16 21  1  0  0  0
 16 31  1  0  0  0
 17 18  1  0  0  0
 17103  1  0  0  0
 18 19  2  0  0  0
 18104  1  0  0  0
 19 20  1  0  0  0
 19 24  1  0  0  0
 20 21  2  0  0  0
 20105  1  0  0  0
 21 23  1  0  0  0
 22 28  1  0  0  0
 22 32  2  0  0  0
 26 27  1  0  0  0
 28106  1  0  0  0
 28107  1  0  0  0
 29108  1  0  0  0
 29109  1  0  0  0
 33 34  1  0  0  0
 33 66  1  0  0  0
 33 70  2  0  0  0
 34 36  1  0  0  0
 34 59  1  0  0  0
 34110  1  0  0  0
 35 44  2  0  0  0
 35 45  1  0  0  0
 35 68  1  0  0  0
 36 56  1  0  0  0
 36111  1  0  0  0
 37 39  1  0  0  0
 37 47  1  0  0  0
 37 66  1  0  0  0
 37112  1  0  0  0
 38 43  2  0  0  0
 38 46  1  0  0  0
 38 47  1  0  0  0
 39 64  1  0  0  0
 39 67  2  0  0  0
 40 52  1  0  0  0
 40 53  2  0  0  0
 40 58  1  0  0  0
 41113  1  0  0  0
 41114  1  0  0  0
 41115  1  0  0  0
 41 48  1  0  0  0
 42 43  1  0  0  0
 42 66  1  0  0  0
 42116  1  0  0  0
 42117  1  0  0  0
 43 44  1  0  0  0
 44118  1  0  0  0
 45 46  2  0  0  0
 45119  1  0  0  0
 46120  1  0  0  0
 47121  1  0  0  0
 47122  1  0  0  0
 48 56  1  0  0  0
 48 65  1  0  0  0
 48123  1  0  0  0
 49 50  1  0  0  0
 49 53  1  0  0  0
 49 64  1  0  0  0
 49124  1  0  0  0
 50 51  1  0  0  0
 50125  1  0  0  0
 50126  1  0  0  0
 51 52  1  0  0  0
 51127  1  0  0  0
 51128  1  0  0  0
 52129  1  0  0  0
 52130  1  0  0  0
 53 54  1  0  0  0
 54 55  2  0  0  0
 54131  1  0  0  0
 55 57  1  0  0  0
 55132  1  0  0  0
 56 69  2  0  0  0
 57 58  2  0  0  0
 57133  1  0  0  0
 58134  1  0  0  0
 59 60  1  0  0  0
 59 61  1  0  0  0
 59 62  1  0  0  0
 60135  1  0  0  0
 60136  1  0  0  0
 60137  1  0  0  0
 61138  1  0  0  0
 61139  1  0  0  0
 61140  1  0  0  0
 62141  1  0  0  0
 62142  1  0  0  0
 62143  1  0  0  0
 63 65  1  0  0  0
 63144  1  0  0  0
 63145  1  0  0  0
 63146  1  0  0  0
 64147  1  0  0  0
 65148  1  0  0  0
 68 82  1  0  0  0
 71 72  2  0  0  0
 71 75  1  0  0  0
 71149  1  0  0  0
 72 76  1  0  0  0
 72150  1  0  0  0
 73 74  1  0  0  0
 73 75  2  0  0  0
 73151  1  0  0  0
 74 76  2  0  0  0
 74 83  1  0  0  0
 75 84  1  0  0  0
 76 85  1  0  0  0
 77 78  2  0  0  0
 77 84  1  0  0  0
 77152  1  0  0  0
 78 80  1  0  0  0
 78 82  1  0  0  0
 79 80  1  0  0  0
 79 81  1  0  0  0
 79 86  2  0  0  0
 80153  1  0  0  0
 80154  1  0  0  0
 81 84  1  0  0  0
 81155  1  0  0  0
 81156  1  0  0  0
 82157  1  0  0  0
 82158  1  0  0  0
 83 87  1  0  0  0
 83 88  1  0  0  0
 83 89  1  0  0  0
 85159  1  0  0  0
M  ISO  4   1 100  68 101  82 101  85 100
M  END
> <chiral flag>
0

> <version>
0

> <s_m_source_file>
/data/baiqing/PycharmProjects/Reinvent-master-3.2/result/LINK_invent/BTK/process_docking_weight1_custom_product_contain_oxygen_bond_distance_aromatic_linkinvent_7_9_3/rearranged_h_0071.sdf

> <i_m_source_file_index>
81

> <r_mmod_Potential_Energy-OPLS-2005>
126.625289916992

> <r_mmod_Stretch_Energy-OPLS-2005>
95.7365417480469

> <r_mmod_Bend_Energy-OPLS-2005>
142.509719848633

> <r_mmod_Torsional_Energy-OPLS-2005>
229.38948059082

> <r_mmod_Improper_Torsional_Energy-OPLS-2005>
5.41112852096558

> <r_mmod_Van_der_Waal_Energy-OPLS-2005>
167.491165161133

> <r_mmod_Electrostatic_Energy-OPLS-2005>
-343.184844970703

> <r_mmod_Solvation_Energy-OPLS-2005>
-226.582443237305

> <b_mmod_Minimization_Converged-OPLS-2005>
0

> <r_mmod_RMS_Derivative-OPLS-2005>
1.62533092498779

$$$$
82
                    3D
 Structure written by MMmdl.
150158  0  0  1  0            999 V2000
  -30.5894  -14.7882   20.4487 C   0  0  0  0  0  0
  -30.4362  -12.4846   19.4679 C   0  0  0  0  0  0
  -29.5096  -12.5068   18.2322 C   0  0  0  0  0  0
  -28.0373  -12.3224   18.6504 C   0  0  0  0  0  0
  -27.6363  -13.2314   19.8427 C   0  0  2  0  0  0
  -28.6836  -13.1881   20.9754 C   0  0  0  0  0  0
  -25.2493  -13.8189   20.5695 C   0  0  0  0  0  0
  -24.1793  -13.0432   20.9219 C   0  0  0  0  0  0
  -24.6387  -11.6911   20.8753 C   0  0  0  0  0  0
  -23.9066  -10.4288   21.0411 C   0  0  0  0  0  0
  -24.3617   -9.4203   21.9187 C   0  0  0  0  0  0
  -23.6294   -8.2238   22.0754 C   0  0  0  0  0  0
  -22.4276   -8.0277   21.3544 C   0  0  0  0  0  0
  -21.9910   -9.0250   20.4648 C   0  0  0  0  0  0
  -22.7237  -10.2131   20.3060 C   0  0  0  0  0  0
  -21.6854   -6.0736   22.5281 C   0  0  0  0  0  0
  -21.4013   -6.5640   23.8214 C   0  0  0  0  0  0
  -21.3660   -5.6793   24.9176 C   0  0  0  0  0  0
  -21.6045   -4.3056   24.7227 C   0  0  0  0  0  0
  -21.8818   -3.8148   23.4348 C   0  0  0  0  0  0
  -21.9191   -4.6964   22.3405 C   0  0  0  0  0  0
  -22.7814  -13.5215   21.1877 C   0  0  0  0  0  0
  -22.1659   -4.2151   21.0981 F   0  0  0  0  0  0
  -21.5631   -3.4538   25.7738 F   0  0  0  0  0  0
  -29.9745  -13.5552   20.3815 N   0  0  0  0  0  0
  -26.2911  -12.9392   20.3255 N   0  0  0  0  0  0
  -25.9315  -11.6538   20.5748 N   0  0  0  0  0  0
  -22.0462  -12.8206   22.0434 N   0  0  0  0  0  0
  -25.4159  -15.1916   20.4100 N   0  0  0  0  0  0
  -31.7946  -14.8729   20.1940 O   0  0  0  0  0  0
  -21.6640   -6.8875   21.4240 O   0  0  0  0  0  0
  -22.3500  -14.5521   20.6723 O   0  0  0  0  0  0
  -24.6333  -31.8524   23.1950 C   0  0  0  0  0  0
  -25.9146  -32.4741   23.8311 C   0  0  1  0  0  0
  -27.2228  -27.2414   20.1419 C   0  0  0  0  0  0
  -25.5930  -33.8543   24.2232 N   0  0  0  0  0  0
  -23.4317  -30.4722   21.5395 C   0  0  2  0  0  0
  -24.8797  -28.9068   20.1175 C   0  0  0  0  0  0
  -22.7510  -29.4588   22.4914 C   0  0  0  0  0  0
  -18.0293  -28.1386   22.8485 C   0  0  0  0  0  0
  -24.1489  -36.7278   23.2639 C   0  0  0  0  0  0
  -25.9781  -30.7600   21.3755 C   0  0  0  0  0  0
  -26.0527  -29.3777   20.7227 C   0  0  0  0  0  0
  -27.2307  -28.5602   20.7154 C   0  0  0  0  0  0
  -26.0272  -26.8325   19.5193 C   0  0  0  0  0  0
  -24.8725  -27.6427   19.5041 C   0  0  0  0  0  0
  -23.6519  -29.7983   20.1590 C   0  0  0  0  0  0
  -25.4116  -36.3061   24.0322 C   0  0  1  0  0  0
  -20.5896  -28.3700   23.1267 C   0  0  2  0  0  0
  -20.6778  -26.9415   22.5410 C   0  0  0  0  0  0
  -19.5754  -26.6381   21.5213 C   0  0  0  0  0  0
  -18.1935  -26.7927   22.1625 C   0  0  0  0  0  0
  -19.1546  -28.8861   23.2870 C   0  0  0  0  0  0
  -18.9467  -30.1461   23.8889 C   0  0  0  0  0  0
  -17.6465  -30.6588   24.0561 C   0  0  0  0  0  0
  -25.9062  -34.9434   23.5085 C   0  0  0  0  0  0
  -16.5356  -29.9084   23.6331 C   0  0  0  0  0  0
  -16.7279  -28.6500   23.0355 C   0  0  0  0  0  0
  -26.4504  -31.6580   25.0715 C   0  0  0  0  0  0
  -25.3717  -31.3736   26.1431 C   0  0  0  0  0  0
  -27.0357  -30.2995   24.6219 C   0  0  0  0  0  0
  -27.6051  -32.4329   25.7493 C   0  0  0  0  0  0
  -27.5582  -37.1786   24.8458 C   0  0  0  0  0  0
  -21.4216  -29.3042   22.3655 N   0  0  0  0  0  0
  -26.4284  -37.3768   23.9416 N   0  0  0  0  0  0
  -24.7004  -31.0470   22.0932 N   0  0  0  0  0  0
  -23.4197  -28.8137   23.3032 O   0  0  0  0  0  0
  -28.3213  -26.3504   20.1247 O   0  0  0  0  0  0
  -26.5645  -34.8916   22.4661 O   0  0  0  0  0  0
  -23.5478  -32.1353   23.7235 O   0  0  0  0  0  0
  -29.2749  -18.5053   20.2431 C   0  0  0  0  0  0
  -30.7866  -20.1649   21.1809 C   0  0  0  0  0  0
  -31.2756  -17.7546   21.3921 C   0  0  0  0  0  0
  -29.5947  -19.9202   20.4672 C   0  0  0  0  0  0
  -30.1057  -17.3845   20.6903 C   0  0  0  0  0  0
  -31.6037  -19.1074   21.6336 C   0  0  0  0  0  0
  -28.8141  -21.1347   19.8502 C   0  0  0  0  0  0
  -28.4013  -23.6474   19.8608 C   0  0  0  0  0  0
  -28.2029  -24.9767   20.7541 C   0  0  0  0  0  0
  -29.7841  -15.9297   20.5269 N   0  0  0  0  0  0
  -28.8377  -22.4241   20.3956 N   0  0  0  0  0  0
  -28.1528  -20.8799   18.8385 O   0  0  0  0  0  0
  -28.1204  -23.7624   18.6620 O   0  0  0  0  0  0
  -32.7398  -19.3991   22.3102 F   0  0  0  0  0  0
  -31.4737  -12.6257   19.1602 H   0  0  0  0  0  0
  -30.3994  -11.5143   19.9658 H   0  0  0  0  0  0
  -29.7995  -11.7255   17.5286 H   0  0  0  0  0  0
  -29.6247  -13.4539   17.7024 H   0  0  0  0  0  0
  -27.9041  -11.2755   18.9254 H   0  0  0  0  0  0
  -27.3769  -12.4988   17.8008 H   0  0  0  0  0  0
  -27.6205  -14.2472   19.4480 H   0  0  0  0  0  0
  -28.7337  -12.1956   21.4257 H   0  0  0  0  0  0
  -28.4143  -13.8774   21.7774 H   0  0  0  0  0  0
  -25.2758   -9.5683   22.4765 H   0  0  0  0  0  0
  -24.0005   -7.4629   22.7469 H   0  0  0  0  0  0
  -21.0842   -8.8764   19.8954 H   0  0  0  0  0  0
  -22.3688  -10.9671   19.6172 H   0  0  0  0  0  0
  -21.2004   -7.6149   23.9718 H   0  0  0  0  0  0
  -21.1484   -6.0524   25.9079 H   0  0  0  0  0  0
  -22.0598   -2.7611   23.2848 H   0  0  0  0  0  0
  -22.4077  -11.9867   22.4824 H   0  0  0  0  0  0
  -21.1080  -13.1232   22.2644 H   0  0  0  0  0  0
  -24.6433  -15.8395   20.5196 H   0  0  0  0  0  0
  -26.2525  -15.6345   20.0545 H   0  0  0  0  0  0
  -26.7214  -32.5384   23.1053 H   0  0  0  0  0  0
  -25.0055  -33.9673   25.0363 H   0  0  0  0  0  0
  -22.7296  -31.2948   21.3885 H   0  0  0  0  0  0
  -23.3757  -35.9602   23.3283 H   0  0  0  0  0  0
  -24.3581  -36.8925   22.2058 H   0  0  0  0  0  0
  -23.7232  -37.6467   23.6681 H   0  0  0  0  0  0
  -26.1168  -31.5171   20.6025 H   0  0  0  0  0  0
  -26.8553  -30.8127   22.0089 H   0  0  0  0  0  0
  -28.1350  -28.9225   21.1840 H   0  0  0  0  0  0
  -25.9835  -25.8618   19.0451 H   0  0  0  0  0  0
  -23.9745  -27.2764   19.0255 H   0  0  0  0  0  0
  -23.7803  -30.5705   19.3996 H   0  0  0  0  0  0
  -22.7694  -29.2328   19.8544 H   0  0  0  0  0  0
  -25.1298  -36.1897   25.0813 H   0  0  0  0  0  0
  -20.9989  -28.3279   24.1388 H   0  0  0  0  0  0
  -20.5671  -26.2312   23.3618 H   0  0  0  0  0  0
  -21.6647  -26.7432   22.1208 H   0  0  0  0  0  0
  -19.6915  -25.6289   21.1249 H   0  0  0  0  0  0
  -19.6691  -27.3187   20.6740 H   0  0  0  0  0  0
  -17.4204  -26.6674   21.4028 H   0  0  0  0  0  0
  -18.0336  -26.0070   22.9022 H   0  0  0  0  0  0
  -19.7942  -30.7278   24.2255 H   0  0  0  0  0  0
  -17.5018  -31.6267   24.5162 H   0  0  0  0  0  0
  -15.5355  -30.2983   23.7657 H   0  0  0  0  0  0
  -15.8678  -28.0815   22.7076 H   0  0  0  0  0  0
  -24.5897  -30.7082   25.7754 H   0  0  0  0  0  0
  -24.8902  -32.2906   26.4837 H   0  0  0  0  0  0
  -25.8024  -30.8923   27.0220 H   0  0  0  0  0  0
  -26.2947  -29.6735   24.1232 H   0  0  0  0  0  0
  -27.4019  -29.7267   25.4750 H   0  0  0  0  0  0
  -27.8831  -30.4264   23.9479 H   0  0  0  0  0  0
  -27.2652  -33.3632   26.2055 H   0  0  0  0  0  0
  -28.3868  -32.6887   25.0328 H   0  0  0  0  0  0
  -28.0714  -31.8468   26.5422 H   0  0  0  0  0  0
  -28.2572  -38.0113   24.7547 H   0  0  0  0  0  0
  -28.1108  -36.2646   24.6227 H   0  0  0  0  0  0
  -27.2309  -37.1363   25.8862 H   0  0  0  0  0  0
  -20.9410  -29.8755   21.6846 H   0  0  0  0  0  0
  -26.0157  -38.2833   24.1448 H   0  0  0  0  0  0
  -28.3749  -18.2822   19.6870 H   0  0  0  0  0  0
  -31.1126  -21.1783   21.3638 H   0  0  0  0  0  0
  -31.9436  -16.9969   21.7742 H   0  0  0  0  0  0
  -28.9363  -24.9357   21.5589 H   0  0  0  0  0  0
  -27.2330  -24.8895   21.2451 H   0  0  0  0  0  0
  -28.7992  -15.7199   20.4814 H   0  0  0  0  0  0
  -29.2154  -22.4785   21.3277 H   0  0  0  0  0  0
  1 25  1  0  0  0
  1 30  2  0  0  0
  1 80  1  0  0  0
  2  3  1  0  0  0
  2 25  1  0  0  0
  2 85  1  0  0  0
  2 86  1  0  0  0
  3  4  1  0  0  0
  3 87  1  0  0  0
  3 88  1  0  0  0
  4  5  1  0  0  0
  4 89  1  0  0  0
  4 90  1  0  0  0
  5  6  1  0  0  0
  5 26  1  0  0  0
  5 91  1  0  0  0
  6 25  1  0  0  0
  6 92  1  0  0  0
  6 93  1  0  0  0
  7  8  2  0  0  0
  7 26  1  0  0  0
  7 29  1  0  0  0
  8  9  1  0  0  0
  8 22  1  0  0  0
  9 10  1  0  0  0
  9 27  2  0  0  0
 10 11  2  0  0  0
 10 15  1  0  0  0
 11 12  1  0  0  0
 11 94  1  0  0  0
 12 13  2  0  0  0
 12 95  1  0  0  0
 13 14  1  0  0  0
 13 31  1  0  0  0
 14 15  2  0  0  0
 14 96  1  0  0  0
 15 97  1  0  0  0
 16 17  2  0  0  0
 16 21  1  0  0  0
 16 31  1  0  0  0
 17 18  1  0  0  0
 17 98  1  0  0  0
 18 19  2  0  0  0
 18 99  1  0  0  0
 19 20  1  0  0  0
 19 24  1  0  0  0
 20 21  2  0  0  0
 20100  1  0  0  0
 21 23  1  0  0  0
 22 28  1  0  0  0
 22 32  2  0  0  0
 26 27  1  0  0  0
 28101  1  0  0  0
 28102  1  0  0  0
 29103  1  0  0  0
 29104  1  0  0  0
 33 34  1  0  0  0
 33 66  1  0  0  0
 33 70  2  0  0  0
 34 36  1  0  0  0
 34 59  1  0  0  0
 34105  1  0  0  0
 35 44  2  0  0  0
 35 45  1  0  0  0
 35 68  1  0  0  0
 36 56  1  0  0  0
 36106  1  0  0  0
 37 39  1  0  0  0
 37 47  1  0  0  0
 37 66  1  0  0  0
 37107  1  0  0  0
 38 43  2  0  0  0
 38 46  1  0  0  0
 38 47  1  0  0  0
 39 64  1  0  0  0
 39 67  2  0  0  0
 40 52  1  0  0  0
 40 53  2  0  0  0
 40 58  1  0  0  0
 41108  1  0  0  0
 41109  1  0  0  0
 41110  1  0  0  0
 41 48  1  0  0  0
 42 43  1  0  0  0
 42 66  1  0  0  0
 42111  1  0  0  0
 42112  1  0  0  0
 43 44  1  0  0  0
 44113  1  0  0  0
 45 46  2  0  0  0
 45114  1  0  0  0
 46115  1  0  0  0
 47116  1  0  0  0
 47117  1  0  0  0
 48 56  1  0  0  0
 48 65  1  0  0  0
 48118  1  0  0  0
 49 50  1  0  0  0
 49 53  1  0  0  0
 49 64  1  0  0  0
 49119  1  0  0  0
 50 51  1  0  0  0
 50120  1  0  0  0
 50121  1  0  0  0
 51 52  1  0  0  0
 51122  1  0  0  0
 51123  1  0  0  0
 52124  1  0  0  0
 52125  1  0  0  0
 53 54  1  0  0  0
 54 55  2  0  0  0
 54126  1  0  0  0
 55 57  1  0  0  0
 55127  1  0  0  0
 56 69  2  0  0  0
 57 58  2  0  0  0
 57128  1  0  0  0
 58129  1  0  0  0
 59 60  1  0  0  0
 59 61  1  0  0  0
 59 62  1  0  0  0
 60130  1  0  0  0
 60131  1  0  0  0
 60132  1  0  0  0
 61133  1  0  0  0
 61134  1  0  0  0
 61135  1  0  0  0
 62136  1  0  0  0
 62137  1  0  0  0
 62138  1  0  0  0
 63 65  1  0  0  0
 63139  1  0  0  0
 63140  1  0  0  0
 63141  1  0  0  0
 64142  1  0  0  0
 65143  1  0  0  0
 68 79  1  0  0  0
 71 74  2  0  0  0
 71 75  1  0  0  0
 71144  1  0  0  0
 72 74  1  0  0  0
 72 76  2  0  0  0
 72145  1  0  0  0
 73 75  2  0  0  0
 73 76  1  0  0  0
 73146  1  0  0  0
 74 77  1  0  0  0
 75 80  1  0  0  0
 76 84  1  0  0  0
 77 81  1  0  0  0
 77 82  2  0  0  0
 78 79  1  0  0  0
 78 81  1  0  0  0
 78 83  2  0  0  0
 79147  1  0  0  0
 79148  1  0  0  0
 80149  1  0  0  0
 81150  1  0  0  0
M  ISO  4   1 100  68 101  79 101  80 100
M  END
> <chiral flag>
0

> <version>
0

> <s_m_source_file>
/data/baiqing/PycharmProjects/Reinvent-master-3.2/result/LINK_invent/BTK/process_docking_weight1_custom_product_contain_oxygen_bond_distance_aromatic_linkinvent_7_9_3/rearranged_h_0071.sdf

> <i_m_source_file_index>
82

> <r_mmod_Potential_Energy-OPLS-2005>
31.3443984985352

> <r_mmod_Stretch_Energy-OPLS-2005>
139.995620727539

> <r_mmod_Bend_Energy-OPLS-2005>
167.697937011719

> <r_mmod_Torsional_Energy-OPLS-2005>
255.502304077148

> <r_mmod_Improper_Torsional_Energy-OPLS-2005>
7.18705034255981

> <r_mmod_Van_der_Waal_Energy-OPLS-2005>
134.371337890625

> <r_mmod_Electrostatic_Energy-OPLS-2005>
-492.495971679688

> <r_mmod_Solvation_Energy-OPLS-2005>
-281.597747802734

> <b_mmod_Minimization_Converged-OPLS-2005>
0

> <r_mmod_RMS_Derivative-OPLS-2005>
0.429647743701935

$$$$
83
                    3D
 Structure written by MMmdl.
164173  0  0  1  0            999 V2000
  -30.5672  -14.7641   20.4469 C   0  0  0  0  0  0
  -30.4524  -12.4691   19.4413 C   0  0  0  0  0  0
  -29.5154  -12.4860   18.2143 C   0  0  0  0  0  0
  -28.0411  -12.3104   18.6377 C   0  0  0  0  0  0
  -27.6393  -13.2134   19.8327 C   0  0  2  0  0  0
  -28.6909  -13.1541   20.9574 C   0  0  0  0  0  0
  -25.2558  -13.8157   20.5746 C   0  0  0  0  0  0
  -24.1821  -13.0461   20.9224 C   0  0  0  0  0  0
  -24.6337  -11.6906   20.8716 C   0  0  0  0  0  0
  -23.9007  -10.4303   21.0390 C   0  0  0  0  0  0
  -24.3569   -9.4243   21.9165 C   0  0  0  0  0  0
  -23.6261   -8.2275   22.0767 C   0  0  0  0  0  0
  -22.4233   -8.0298   21.3579 C   0  0  0  0  0  0
  -21.9825   -9.0254   20.4664 C   0  0  0  0  0  0
  -22.7171  -10.2147   20.3058 C   0  0  0  0  0  0
  -21.6847   -6.0710   22.5261 C   0  0  0  0  0  0
  -21.4010   -6.5602   23.8197 C   0  0  0  0  0  0
  -21.3674   -5.6762   24.9156 C   0  0  0  0  0  0
  -21.6038   -4.3039   24.7194 C   0  0  0  0  0  0
  -21.8828   -3.8130   23.4328 C   0  0  0  0  0  0
  -21.9211   -4.6949   22.3379 C   0  0  0  0  0  0
  -22.7851  -13.5303   21.1829 C   0  0  0  0  0  0
  -22.1687   -4.2134   21.0955 F   0  0  0  0  0  0
  -21.5643   -3.4522   25.7722 F   0  0  0  0  0  0
  -29.9790  -13.5239   20.3601 N   0  0  0  0  0  0
  -26.2918  -12.9304   20.3205 N   0  0  0  0  0  0
  -25.9252  -11.6467   20.5646 N   0  0  0  0  0  0
  -22.0438  -12.8354   22.0393 N   0  0  0  0  0  0
  -25.4239  -15.1878   20.4236 N   0  0  0  0  0  0
  -31.7840  -14.8893   20.2690 O   0  0  0  0  0  0
  -21.6645   -6.8871   21.4233 O   0  0  0  0  0  0
  -22.3581  -14.5628   20.6673 O   0  0  0  0  0  0
  -24.6351  -31.8559   23.1966 C   0  0  0  0  0  0
  -25.9171  -32.4762   23.8337 C   0  0  1  0  0  0
  -27.2182  -27.2368   20.1518 C   0  0  0  0  0  0
  -25.5962  -33.8563   24.2284 N   0  0  0  0  0  0
  -23.4335  -30.4773   21.5384 C   0  0  2  0  0  0
  -24.8866  -28.9184   20.1114 C   0  0  0  0  0  0
  -22.7531  -29.4599   22.4873 C   0  0  0  0  0  0
  -18.0307  -28.1421   22.8480 C   0  0  0  0  0  0
  -24.1482  -36.7253   23.2622 C   0  0  0  0  0  0
  -25.9824  -30.7656   21.3765 C   0  0  0  0  0  0
  -26.0583  -29.3817   20.7248 C   0  0  0  0  0  0
  -27.2306  -28.5554   20.7268 C   0  0  0  0  0  0
  -26.0308  -26.8462   19.4995 C   0  0  0  0  0  0
  -24.8805  -27.6626   19.4829 C   0  0  0  0  0  0
  -23.6599  -29.8143   20.1529 C   0  0  0  0  0  0
  -25.4098  -36.3060   24.0325 C   0  0  1  0  0  0
  -20.5914  -28.3734   23.1270 C   0  0  2  0  0  0
  -20.6799  -26.9443   22.5415 C   0  0  0  0  0  0
  -19.5767  -26.6399   21.5222 C   0  0  0  0  0  0
  -18.1943  -26.7960   22.1624 C   0  0  0  0  0  0
  -19.1562  -28.8895   23.2869 C   0  0  0  0  0  0
  -18.9480  -30.1478   23.8913 C   0  0  0  0  0  0
  -17.6476  -30.6600   24.0576 C   0  0  0  0  0  0
  -25.9055  -34.9436   23.5103 C   0  0  0  0  0  0
  -16.5372  -29.9109   23.6316 C   0  0  0  0  0  0
  -16.7282  -28.6530   23.0336 C   0  0  0  0  0  0
  -26.4518  -31.6570   25.0720 C   0  0  0  0  0  0
  -25.3728  -31.3744   26.1439 C   0  0  0  0  0  0
  -27.0330  -30.2985   24.6169 C   0  0  0  0  0  0
  -27.6112  -32.4260   25.7474 C   0  0  0  0  0  0
  -27.5581  -37.1764   24.8450 C   0  0  0  0  0  0
  -21.4231  -29.3071   22.3642 N   0  0  0  0  0  0
  -26.4257  -37.3779   23.9447 N   0  0  0  0  0  0
  -24.7028  -31.0511   22.0939 N   0  0  0  0  0  0
  -23.4233  -28.8131   23.2964 O   0  0  0  0  0  0
  -28.2967  -26.3192   20.1828 O   0  0  0  0  0  0
  -26.5605  -34.8920   22.4661 O   0  0  0  0  0  0
  -23.5489  -32.1381   23.7256 O   0  0  0  0  0  0
  -29.2132  -18.1947   23.1767 C   0  0  0  0  0  0
  -29.4007  -18.4817   20.4280 C   0  0  0  0  0  0
  -28.9158  -19.4552   22.6100 C   0  0  0  0  0  0
  -29.0769  -19.6928   21.1952 C   0  0  0  0  0  0
  -29.6438  -17.1574   21.0114 C   0  0  0  0  0  0
  -29.5704  -17.0790   22.4136 C   0  0  0  0  0  0
  -29.1451  -22.3372   21.0355 C   0  0  0  0  0  0
  -28.3417  -20.3939   23.5837 C   0  0  0  0  0  0
  -28.2993  -21.2366   19.2244 C   0  0  0  0  0  0
  -28.7304  -23.5420   20.0867 C   0  0  1  0  0  0
  -27.8750  -22.7363   19.0777 C   0  0  1  0  0  0
  -27.9607  -23.2558   17.6305 C   0  0  0  0  0  0
  -28.0593  -24.9103   20.6971 C   0  0  0  0  0  0
  -28.8435  -21.0600   20.5770 N   0  0  0  0  0  0
  -27.1332  -20.9257   23.4039 N   0  0  0  0  0  0
  -29.7179  -15.8546   20.3080 N   0  0  0  0  0  0
  -28.9846  -20.6666   24.7180 N   0  3  0  0  0  0
  -29.7657  -22.5628   22.0781 O   0  0  0  0  0  0
  -29.7260  -15.8847   23.0376 F   0  0  0  0  0  0
  -31.4844  -12.6361   19.1259 H   0  0  0  0  0  0
  -30.4393  -11.4940   19.9310 H   0  0  0  0  0  0
  -29.7931  -11.6927   17.5152 H   0  0  0  0  0  0
  -29.6353  -13.4249   17.6686 H   0  0  0  0  0  0
  -27.8990  -11.2646   18.9102 H   0  0  0  0  0  0
  -27.3875  -12.4983   17.7860 H   0  0  0  0  0  0
  -27.6226  -14.2260   19.4310 H   0  0  0  0  0  0
  -28.7413  -12.1568   21.3946 H   0  0  0  0  0  0
  -28.4302  -13.8377   21.7687 H   0  0  0  0  0  0
  -25.2727   -9.5714   22.4742 H   0  0  0  0  0  0
  -23.9988   -7.4638   22.7465 H   0  0  0  0  0  0
  -21.0771   -8.8753   19.8944 H   0  0  0  0  0  0
  -22.3622  -10.9663   19.6179 H   0  0  0  0  0  0
  -21.1992   -7.6100   23.9675 H   0  0  0  0  0  0
  -21.1478   -6.0495   25.9054 H   0  0  0  0  0  0
  -22.0589   -2.7583   23.2819 H   0  0  0  0  0  0
  -22.4066  -12.0068   22.4840 H   0  0  0  0  0  0
  -21.1058  -13.1415   22.2532 H   0  0  0  0  0  0
  -24.6464  -15.8282   20.5477 H   0  0  0  0  0  0
  -26.2466  -15.6347   20.0428 H   0  0  0  0  0  0
  -26.7260  -32.5440   23.1100 H   0  0  0  0  0  0
  -25.0164  -33.9721   25.0468 H   0  0  0  0  0  0
  -22.7264  -31.2960   21.3904 H   0  0  0  0  0  0
  -23.3771  -35.9556   23.3239 H   0  0  0  0  0  0
  -24.3590  -36.8922   22.2049 H   0  0  0  0  0  0
  -23.7210  -37.6425   23.6671 H   0  0  0  0  0  0
  -26.1135  -31.5216   20.6010 H   0  0  0  0  0  0
  -26.8622  -30.8296   22.0041 H   0  0  0  0  0  0
  -28.1312  -28.8959   21.2178 H   0  0  0  0  0  0
  -25.9835  -25.8815   19.0136 H   0  0  0  0  0  0
  -23.9901  -27.3094   18.9845 H   0  0  0  0  0  0
  -23.8056  -30.5948   19.4047 H   0  0  0  0  0  0
  -22.7762  -29.2625   19.8281 H   0  0  0  0  0  0
  -25.1266  -36.1870   25.0807 H   0  0  0  0  0  0
  -21.0018  -28.3342   24.1383 H   0  0  0  0  0  0
  -20.5733  -26.2334   23.3622 H   0  0  0  0  0  0
  -21.6671  -26.7476   22.1210 H   0  0  0  0  0  0
  -19.6919  -25.6303   21.1265 H   0  0  0  0  0  0
  -19.6696  -27.3200   20.6740 H   0  0  0  0  0  0
  -17.4205  -26.6714   21.4021 H   0  0  0  0  0  0
  -18.0316  -26.0114   22.9029 H   0  0  0  0  0  0
  -19.7947  -30.7294   24.2311 H   0  0  0  0  0  0
  -17.5019  -31.6271   24.5192 H   0  0  0  0  0  0
  -15.5377  -30.3023   23.7618 H   0  0  0  0  0  0
  -15.8676  -28.0842   22.7061 H   0  0  0  0  0  0
  -24.5946  -30.7020   25.7792 H   0  0  0  0  0  0
  -24.8857  -32.2917   26.4766 H   0  0  0  0  0  0
  -25.8059  -30.9021   27.0269 H   0  0  0  0  0  0
  -26.2894  -29.6746   24.1200 H   0  0  0  0  0  0
  -27.4024  -29.7227   25.4660 H   0  0  0  0  0  0
  -27.8767  -30.4246   23.9385 H   0  0  0  0  0  0
  -27.2793  -33.3587   26.2034 H   0  0  0  0  0  0
  -28.3939  -32.6756   25.0299 H   0  0  0  0  0  0
  -28.0747  -31.8363   26.5392 H   0  0  0  0  0  0
  -28.2539  -38.0121   24.7590 H   0  0  0  0  0  0
  -28.1137  -36.2662   24.6127 H   0  0  0  0  0  0
  -27.2328  -37.1256   25.8856 H   0  0  0  0  0  0
  -20.9413  -29.8810   21.6861 H   0  0  0  0  0  0
  -26.0110  -38.2818   24.1546 H   0  0  0  0  0  0
  -29.0736  -18.0278   24.2366 H   0  0  0  0  0  0
  -29.4409  -18.5614   19.3512 H   0  0  0  0  0  0
  -29.0762  -20.9771   18.5003 H   0  0  0  0  0  0
  -27.4534  -20.5668   19.0553 H   0  0  0  0  0  0
  -29.6703  -23.8377   19.6144 H   0  0  0  0  0  0
  -26.8312  -22.8082   19.3958 H   0  0  0  0  0  0
  -28.9915  -23.2671   17.2623 H   0  0  0  0  0  0
  -27.5741  -24.2735   17.5580 H   0  0  0  0  0  0
  -27.3684  -22.6402   16.9510 H   0  0  0  0  0  0
  -28.3718  -24.9583   21.7398 H   0  0  0  0  0  0
  -26.9868  -24.7359   20.7762 H   0  0  0  0  0  0
  -26.5498  -20.5829   22.6558 H   0  0  0  0  0  0
  -26.7049  -21.5405   24.0785 H   0  0  0  0  0  0
  -28.8050  -15.5459   20.0186 H   0  0  0  0  0  0
  -29.9226  -20.3156   24.8407 H   0  0  0  0  0  0
  -28.5877  -21.2212   25.4610 H   0  0  0  0  0  0
  1 25  1  0  0  0
  1 30  2  0  0  0
  1 86  1  0  0  0
  2  3  1  0  0  0
  2 25  1  0  0  0
  2 90  1  0  0  0
  2 91  1  0  0  0
  3  4  1  0  0  0
  3 92  1  0  0  0
  3 93  1  0  0  0
  4  5  1  0  0  0
  4 94  1  0  0  0
  4 95  1  0  0  0
  5  6  1  0  0  0
  5 26  1  0  0  0
  5 96  1  0  0  0
  6 25  1  0  0  0
  6 97  1  0  0  0
  6 98  1  0  0  0
  7  8  2  0  0  0
  7 26  1  0  0  0
  7 29  1  0  0  0
  8  9  1  0  0  0
  8 22  1  0  0  0
  9 10  1  0  0  0
  9 27  2  0  0  0
 10 11  2  0  0  0
 10 15  1  0  0  0
 11 12  1  0  0  0
 11 99  1  0  0  0
 12 13  2  0  0  0
 12100  1  0  0  0
 13 14  1  0  0  0
 13 31  1  0  0  0
 14 15  2  0  0  0
 14101  1  0  0  0
 15102  1  0  0  0
 16 17  2  0  0  0
 16 21  1  0  0  0
 16 31  1  0  0  0
 17 18  1  0  0  0
 17103  1  0  0  0
 18 19  2  0  0  0
 18104  1  0  0  0
 19 20  1  0  0  0
 19 24  1  0  0  0
 20 21  2  0  0  0
 20105  1  0  0  0
 21 23  1  0  0  0
 22 28  1  0  0  0
 22 32  2  0  0  0
 26 27  1  0  0  0
 28106  1  0  0  0
 28107  1  0  0  0
 29108  1  0  0  0
 29109  1  0  0  0
 33 34  1  0  0  0
 33 66  1  0  0  0
 33 70  2  0  0  0
 34 36  1  0  0  0
 34 59  1  0  0  0
 34110  1  0  0  0
 35 44  2  0  0  0
 35 45  1  0  0  0
 35 68  1  0  0  0
 36 56  1  0  0  0
 36111  1  0  0  0
 37 39  1  0  0  0
 37 47  1  0  0  0
 37 66  1  0  0  0
 37112  1  0  0  0
 38 43  2  0  0  0
 38 46  1  0  0  0
 38 47  1  0  0  0
 39 64  1  0  0  0
 39 67  2  0  0  0
 40 52  1  0  0  0
 40 53  2  0  0  0
 40 58  1  0  0  0
 41113  1  0  0  0
 41114  1  0  0  0
 41115  1  0  0  0
 41 48  1  0  0  0
 42 43  1  0  0  0
 42 66  1  0  0  0
 42116  1  0  0  0
 42117  1  0  0  0
 43 44  1  0  0  0
 44118  1  0  0  0
 45 46  2  0  0  0
 45119  1  0  0  0
 46120  1  0  0  0
 47121  1  0  0  0
 47122  1  0  0  0
 48 56  1  0  0  0
 48 65  1  0  0  0
 48123  1  0  0  0
 49 50  1  0  0  0
 49 53  1  0  0  0
 49 64  1  0  0  0
 49124  1  0  0  0
 50 51  1  0  0  0
 50125  1  0  0  0
 50126  1  0  0  0
 51 52  1  0  0  0
 51127  1  0  0  0
 51128  1  0  0  0
 52129  1  0  0  0
 52130  1  0  0  0
 53 54  1  0  0  0
 54 55  2  0  0  0
 54131  1  0  0  0
 55 57  1  0  0  0
 55132  1  0  0  0
 56 69  2  0  0  0
 57 58  2  0  0  0
 57133  1  0  0  0
 58134  1  0  0  0
 59 60  1  0  0  0
 59 61  1  0  0  0
 59 62  1  0  0  0
 60135  1  0  0  0
 60136  1  0  0  0
 60137  1  0  0  0
 61138  1  0  0  0
 61139  1  0  0  0
 61140  1  0  0  0
 62141  1  0  0  0
 62142  1  0  0  0
 62143  1  0  0  0
 63 65  1  0  0  0
 63144  1  0  0  0
 63145  1  0  0  0
 63146  1  0  0  0
 64147  1  0  0  0
 65148  1  0  0  0
 68 83  1  0  0  0
 71 73  2  0  0  0
 71 76  1  0  0  0
 71149  1  0  0  0
 72 74  2  0  0  0
 72 75  1  0  0  0
 72150  1  0  0  0
 73 74  1  0  0  0
 73 78  1  0  0  0
 74 84  1  0  0  0
 75 76  2  0  0  0
 75 86  1  0  0  0
 76 89  1  0  0  0
 77 80  1  0  0  0
 77 84  1  0  0  0
 77 88  2  0  0  0
 78 85  1  0  0  0
 78 87  2  0  0  0
 79 81  1  0  0  0
 79 84  1  0  0  0
 79151  1  0  0  0
 79152  1  0  0  0
 80 81  1  0  0  0
 80 83  1  0  0  0
 80153  1  0  0  0
 81 82  1  0  0  0
 81154  1  0  0  0
 82155  1  0  0  0
 82156  1  0  0  0
 82157  1  0  0  0
 83158  1  0  0  0
 83159  1  0  0  0
 85160  1  0  0  0
 85161  1  0  0  0
 86162  1  0  0  0
 87163  1  0  0  0
 87164  1  0  0  0
M  CHG  1  87   1
M  ISO  4   1 100  68 101  83 101  86 100
M  END
> <chiral flag>
0

> <version>
0

> <s_m_source_file>
/data/baiqing/PycharmProjects/Reinvent-master-3.2/result/LINK_invent/BTK/process_docking_weight1_custom_product_contain_oxygen_bond_distance_aromatic_linkinvent_7_9_3/rearranged_h_0071.sdf

> <i_m_source_file_index>
83

> <r_mmod_Potential_Energy-OPLS-2005>
68.9318313598633

> <r_mmod_Stretch_Energy-OPLS-2005>
146.968383789062

> <r_mmod_Bend_Energy-OPLS-2005>
211.891632080078

> <r_mmod_Torsional_Energy-OPLS-2005>
345.266510009766

> <r_mmod_Improper_Torsional_Energy-OPLS-2005>
18.0696144104004

> <r_mmod_Van_der_Waal_Energy-OPLS-2005>
131.513565063477

> <r_mmod_Electrostatic_Energy-OPLS-2005>
-427.573883056641

> <r_mmod_Solvation_Energy-OPLS-2005>
-461.177520751953

> <b_mmod_Minimization_Converged-OPLS-2005>
0

> <r_mmod_RMS_Derivative-OPLS-2005>
5.46871757507324

$$$$
84
                    3D
 Structure written by MMmdl.
172181  0  0  1  0            999 V2000
  -30.5898  -14.7786   20.5899 C   0  0  0  0  0  0
  -30.4217  -12.5136   19.4668 C   0  0  0  0  0  0
  -29.5111  -12.5802   18.2154 C   0  0  0  0  0  0
  -28.0211  -12.4015   18.5933 C   0  0  0  0  0  0
  -27.6227  -13.2559   19.8240 C   0  0  2  0  0  0
  -28.6533  -13.1835   20.9686 C   0  0  0  0  0  0
  -25.2328  -13.8282   20.5622 C   0  0  0  0  0  0
  -24.1701  -13.0443   20.9174 C   0  0  0  0  0  0
  -24.6339  -11.6955   20.8662 C   0  0  0  0  0  0
  -23.9034  -10.4301   21.0357 C   0  0  0  0  0  0
  -24.3584   -9.4247   21.9191 C   0  0  0  0  0  0
  -23.6263   -8.2286   22.0782 C   0  0  0  0  0  0
  -22.4234   -8.0305   21.3592 C   0  0  0  0  0  0
  -21.9822   -9.0280   20.4684 C   0  0  0  0  0  0
  -22.7154  -10.2148   20.3053 C   0  0  0  0  0  0
  -21.6813   -6.0727   22.5287 C   0  0  0  0  0  0
  -21.4008   -6.5624   23.8230 C   0  0  0  0  0  0
  -21.3676   -5.6763   24.9181 C   0  0  0  0  0  0
  -21.6049   -4.3031   24.7226 C   0  0  0  0  0  0
  -21.8775   -3.8141   23.4330 C   0  0  0  0  0  0
  -21.9174   -4.6961   22.3412 C   0  0  0  0  0  0
  -22.7730  -13.5196   21.1908 C   0  0  0  0  0  0
  -22.1640   -4.2165   21.0978 F   0  0  0  0  0  0
  -21.5668   -3.4518   25.7726 F   0  0  0  0  0  0
  -29.9641  -13.5598   20.4200 N   0  0  0  0  0  0
  -26.2765  -12.9561   20.2961 N   0  0  0  0  0  0
  -25.9215  -11.6678   20.5390 N   0  0  0  0  0  0
  -22.0288  -12.8309   22.0489 N   0  0  0  0  0  0
  -25.3922  -15.2046   20.4168 N   0  0  0  0  0  0
  -31.7780  -14.8957   20.2608 O   0  0  0  0  0  0
  -21.6633   -6.8882   21.4250 O   0  0  0  0  0  0
  -22.3465  -14.5510   20.6731 O   0  0  0  0  0  0
  -24.6313  -31.8571   23.1852 C   0  0  0  0  0  0
  -25.9106  -32.4786   23.8249 C   0  0  1  0  0  0
  -27.2576  -27.2613   20.1493 C   0  0  0  0  0  0
  -25.5819  -33.8568   24.2145 N   0  0  0  0  0  0
  -23.4320  -30.4704   21.5330 C   0  0  2  0  0  0
  -24.8855  -28.8975   20.1241 C   0  0  0  0  0  0
  -22.7513  -29.4625   22.4897 C   0  0  0  0  0  0
  -18.0312  -28.1404   22.8523 C   0  0  0  0  0  0
  -24.1484  -36.7299   23.2636 C   0  0  0  0  0  0
  -25.9778  -30.7717   21.3657 C   0  0  0  0  0  0
  -26.0581  -29.3867   20.7145 C   0  0  0  0  0  0
  -27.2474  -28.5858   20.7010 C   0  0  0  0  0  0
  -26.0538  -26.8218   19.5597 C   0  0  0  0  0  0
  -24.8886  -27.6200   19.5373 C   0  0  0  0  0  0
  -23.6512  -29.7835   20.1585 C   0  0  0  0  0  0
  -25.4113  -36.3084   24.0320 C   0  0  1  0  0  0
  -20.5923  -28.3726   23.1292 C   0  0  2  0  0  0
  -20.6791  -26.9441   22.5426 C   0  0  0  0  0  0
  -19.5717  -26.6399   21.5263 C   0  0  0  0  0  0
  -18.1910  -26.7964   22.1678 C   0  0  0  0  0  0
  -19.1569  -28.8865   23.2922 C   0  0  0  0  0  0
  -18.9483  -30.1481   23.8945 C   0  0  0  0  0  0
  -17.6486  -30.6602   24.0577 C   0  0  0  0  0  0
  -25.9050  -34.9467   23.5066 C   0  0  0  0  0  0
  -16.5377  -29.9096   23.6320 C   0  0  0  0  0  0
  -16.7328  -28.6498   23.0364 C   0  0  0  0  0  0
  -26.4329  -31.6647   25.0703 C   0  0  0  0  0  0
  -25.3426  -31.3955   26.1363 C   0  0  0  0  0  0
  -27.0114  -30.3002   24.6312 C   0  0  0  0  0  0
  -27.5876  -32.4394   25.7502 C   0  0  0  0  0  0
  -27.5617  -37.1801   24.8430 C   0  0  0  0  0  0
  -21.4215  -29.3057   22.3631 N   0  0  0  0  0  0
  -26.4284  -37.3803   23.9429 N   0  0  0  0  0  0
  -24.7002  -31.0512   22.0838 N   0  0  0  0  0  0
  -23.4188  -28.8188   23.3015 O   0  0  0  0  0  0
  -28.4019  -26.4267   20.0948 O   0  0  0  0  0  0
  -26.5704  -34.8981   22.4684 O   0  0  0  0  0  0
  -23.5451  -32.1367   23.7122 O   0  0  0  0  0  0
  -30.4743  -20.0053   22.2671 C   0  0  0  0  0  0
  -29.8236  -18.4405   20.5585 C   0  0  0  0  0  0
  -30.6981  -18.9415   23.1617 C   0  0  0  0  0  0
  -30.4079  -17.5711   22.7942 C   0  0  0  0  0  0
  -29.9506  -19.8396   20.9786 C   0  0  0  0  0  0
  -30.0898  -17.2779   21.4107 C   0  0  0  0  0  0
  -30.0725  -23.7525   18.9049 C   0  0  0  0  0  0
  -30.7778  -24.8637   18.6141 C   0  0  0  0  0  0
  -30.3843  -22.4379   18.1893 C   0  0  0  0  0  0
  -30.6648  -21.2392   19.1449 C   0  0  0  0  0  0
  -29.2636  -22.3621   20.8648 C   0  0  0  0  0  0
  -28.9253  -23.6479   19.9268 C   0  0  1  0  0  0
  -31.2102  -19.3931   24.5420 C   0  0  0  0  0  0
  -28.7478  -16.7559   24.4732 C   0  0  0  0  0  0
  -30.5305  -15.0664   23.8099 C   0  0  0  0  0  0
  -28.4200  -25.0286   20.6763 C   0  0  0  0  0  0
  -30.1907  -16.5613   23.9706 C   0  0  0  0  0  0
  -29.6561  -21.0437   20.1962 N   0  0  0  0  0  0
  -29.8023  -15.8773   20.9418 N   0  0  0  0  0  0
  -30.9916  -16.8261   24.9974 F   0  0  0  0  0  0
  -31.4623  -12.6664   19.1698 H   0  0  0  0  0  0
  -30.3792  -11.5314   19.9372 H   0  0  0  0  0  0
  -29.8205  -11.8411   17.4729 H   0  0  0  0  0  0
  -29.6426  -13.5547   17.7331 H   0  0  0  0  0  0
  -27.8156  -11.3479   18.7722 H   0  0  0  0  0  0
  -27.3930  -12.6887   17.7436 H   0  0  0  0  0  0
  -27.6091  -14.2870   19.4679 H   0  0  0  0  0  0
  -28.6796  -12.1878   21.4094 H   0  0  0  0  0  0
  -28.3538  -13.8648   21.7618 H   0  0  0  0  0  0
  -25.2696   -9.5791   22.4800 H   0  0  0  0  0  0
  -24.0005   -7.4643   22.7504 H   0  0  0  0  0  0
  -21.0749   -8.8794   19.8991 H   0  0  0  0  0  0
  -22.3592  -10.9723   19.6211 H   0  0  0  0  0  0
  -21.2005   -7.6117   23.9711 H   0  0  0  0  0  0
  -21.1551   -6.0513   25.9077 H   0  0  0  0  0  0
  -22.0544   -2.7621   23.2788 H   0  0  0  0  0  0
  -22.3745  -11.9966   22.5035 H   0  0  0  0  0  0
  -21.0948  -13.1606   22.2571 H   0  0  0  0  0  0
  -24.6161  -15.8403   20.5572 H   0  0  0  0  0  0
  -26.2020  -15.6555   20.0113 H   0  0  0  0  0  0
  -26.7222  -32.5417   23.1044 H   0  0  0  0  0  0
  -24.9715  -33.9651   25.0109 H   0  0  0  0  0  0
  -22.7361  -31.2961   21.3768 H   0  0  0  0  0  0
  -23.3767  -35.9602   23.3190 H   0  0  0  0  0  0
  -24.3613  -36.9022   22.2080 H   0  0  0  0  0  0
  -23.7200  -37.6457   23.6717 H   0  0  0  0  0  0
  -26.1289  -31.5345   20.5983 H   0  0  0  0  0  0
  -26.8492  -30.8155   22.0102 H   0  0  0  0  0  0
  -28.1535  -28.9807   21.1435 H   0  0  0  0  0  0
  -26.0148  -25.8337   19.1206 H   0  0  0  0  0  0
  -23.9875  -27.2270   19.0864 H   0  0  0  0  0  0
  -23.7673  -30.5484   19.3906 H   0  0  0  0  0  0
  -22.7734  -29.2063   19.8647 H   0  0  0  0  0  0
  -25.1295  -36.1904   25.0816 H   0  0  0  0  0  0
  -21.0090  -28.3320   24.1388 H   0  0  0  0  0  0
  -20.5714  -26.2340   23.3631 H   0  0  0  0  0  0
  -21.6652  -26.7454   22.1202 H   0  0  0  0  0  0
  -19.6853  -25.6285   21.1310 H   0  0  0  0  0  0
  -19.6634  -27.3200   20.6768 H   0  0  0  0  0  0
  -17.4196  -26.6794   21.4064 H   0  0  0  0  0  0
  -18.0259  -26.0101   22.9058 H   0  0  0  0  0  0
  -19.7960  -30.7298   24.2329 H   0  0  0  0  0  0
  -17.5024  -31.6298   24.5159 H   0  0  0  0  0  0
  -15.5363  -30.3005   23.7587 H   0  0  0  0  0  0
  -15.8740  -28.0820   22.7044 H   0  0  0  0  0  0
  -24.5528  -30.7412   25.7644 H   0  0  0  0  0  0
  -24.8648  -32.3192   26.4654 H   0  0  0  0  0  0
  -25.7536  -30.9158   27.0240 H   0  0  0  0  0  0
  -26.2729  -29.6890   24.1109 H   0  0  0  0  0  0
  -27.3395  -29.7211   25.4946 H   0  0  0  0  0  0
  -27.8775  -30.4158   23.9800 H   0  0  0  0  0  0
  -27.2425  -33.3676   26.2086 H   0  0  0  0  0  0
  -28.3652  -32.7021   25.0314 H   0  0  0  0  0  0
  -28.0559  -31.8520   26.5409 H   0  0  0  0  0  0
  -28.2555  -38.0181   24.7600 H   0  0  0  0  0  0
  -28.1183  -36.2722   24.6042 H   0  0  0  0  0  0
  -27.2367  -37.1235   25.8834 H   0  0  0  0  0  0
  -20.9376  -29.8732   21.6815 H   0  0  0  0  0  0
  -26.0140  -38.2875   24.1419 H   0  0  0  0  0  0
  -30.6913  -21.0043   22.6140 H   0  0  0  0  0  0
  -29.4599  -18.2576   19.5609 H   0  0  0  0  0  0
  -31.5684  -24.8325   17.8753 H   0  0  0  0  0  0
  -30.6023  -25.8208   19.0822 H   0  0  0  0  0  0
  -31.2582  -22.5703   17.5453 H   0  0  0  0  0  0
  -29.5617  -22.2135   17.5060 H   0  0  0  0  0  0
  -31.6396  -21.3803   19.6203 H   0  0  0  0  0  0
  -30.7462  -20.3304   18.5411 H   0  0  0  0  0  0
  -28.4316  -22.1856   21.5510 H   0  0  0  0  0  0
  -30.0908  -22.6891   21.5017 H   0  0  0  0  0  0
  -28.0757  -23.3482   19.3103 H   0  0  0  0  0  0
  -31.2538  -20.4816   24.6333 H   0  0  0  0  0  0
  -32.2300  -19.0407   24.7147 H   0  0  0  0  0  0
  -30.5826  -19.0570   25.3706 H   0  0  0  0  0  0
  -28.0405  -16.5889   23.6597 H   0  0  0  0  0  0
  -28.5900  -17.7788   24.8211 H   0  0  0  0  0  0
  -28.4772  -16.0761   25.2827 H   0  0  0  0  0  0
  -29.7593  -14.4831   23.3155 H   0  0  0  0  0  0
  -30.6266  -14.6151   24.8042 H   0  0  0  0  0  0
  -31.4858  -14.9124   23.3120 H   0  0  0  0  0  0
  -29.0266  -25.1329   21.5789 H   0  0  0  0  0  0
  -27.4263  -24.8189   21.0700 H   0  0  0  0  0  0
  -28.8202  -15.6425   20.9533 H   0  0  0  0  0  0
  1 25  1  0  0  0
  1 30  2  0  0  0
  1 89  1  0  0  0
  2  3  1  0  0  0
  2 25  1  0  0  0
  2 91  1  0  0  0
  2 92  1  0  0  0
  3  4  1  0  0  0
  3 93  1  0  0  0
  3 94  1  0  0  0
  4  5  1  0  0  0
  4 95  1  0  0  0
  4 96  1  0  0  0
  5  6  1  0  0  0
  5 26  1  0  0  0
  5 97  1  0  0  0
  6 25  1  0  0  0
  6 98  1  0  0  0
  6 99  1  0  0  0
  7  8  2  0  0  0
  7 26  1  0  0  0
  7 29  1  0  0  0
  8  9  1  0  0  0
  8 22  1  0  0  0
  9 10  1  0  0  0
  9 27  2  0  0  0
 10 11  2  0  0  0
 10 15  1  0  0  0
 11 12  1  0  0  0
 11100  1  0  0  0
 12 13  2  0  0  0
 12101  1  0  0  0
 13 14  1  0  0  0
 13 31  1  0  0  0
 14 15  2  0  0  0
 14102  1  0  0  0
 15103  1  0  0  0
 16 17  2  0  0  0
 16 21  1  0  0  0
 16 31  1  0  0  0
 17 18  1  0  0  0
 17104  1  0  0  0
 18 19  2  0  0  0
 18105  1  0  0  0
 19 20  1  0  0  0
 19 24  1  0  0  0
 20 21  2  0  0  0
 20106  1  0  0  0
 21 23  1  0  0  0
 22 28  1  0  0  0
 22 32  2  0  0  0
 26 27  1  0  0  0
 28107  1  0  0  0
 28108  1  0  0  0
 29109  1  0  0  0
 29110  1  0  0  0
 33 34  1  0  0  0
 33 66  1  0  0  0
 33 70  2  0  0  0
 34 36  1  0  0  0
 34 59  1  0  0  0
 34111  1  0  0  0
 35 44  2  0  0  0
 35 45  1  0  0  0
 35 68  1  0  0  0
 36 56  1  0  0  0
 36112  1  0  0  0
 37 39  1  0  0  0
 37 47  1  0  0  0
 37 66  1  0  0  0
 37113  1  0  0  0
 38 43  2  0  0  0
 38 46  1  0  0  0
 38 47  1  0  0  0
 39 64  1  0  0  0
 39 67  2  0  0  0
 40 52  1  0  0  0
 40 53  2  0  0  0
 40 58  1  0  0  0
 41114  1  0  0  0
 41115  1  0  0  0
 41116  1  0  0  0
 41 48  1  0  0  0
 42 43  1  0  0  0
 42 66  1  0  0  0
 42117  1  0  0  0
 42118  1  0  0  0
 43 44  1  0  0  0
 44119  1  0  0  0
 45 46  2  0  0  0
 45120  1  0  0  0
 46121  1  0  0  0
 47122  1  0  0  0
 47123  1  0  0  0
 48 56  1  0  0  0
 48 65  1  0  0  0
 48124  1  0  0  0
 49 50  1  0  0  0
 49 53  1  0  0  0
 49 64  1  0  0  0
 49125  1  0  0  0
 50 51  1  0  0  0
 50126  1  0  0  0
 50127  1  0  0  0
 51 52  1  0  0  0
 51128  1  0  0  0
 51129  1  0  0  0
 52130  1  0  0  0
 52131  1  0  0  0
 53 54  1  0  0  0
 54 55  2  0  0  0
 54132  1  0  0  0
 55 57  1  0  0  0
 55133  1  0  0  0
 56 69  2  0  0  0
 57 58  2  0  0  0
 57134  1  0  0  0
 58135  1  0  0  0
 59 60  1  0  0  0
 59 61  1  0  0  0
 59 62  1  0  0  0
 60136  1  0  0  0
 60137  1  0  0  0
 60138  1  0  0  0
 61139  1  0  0  0
 61140  1  0  0  0
 61141  1  0  0  0
 62142  1  0  0  0
 62143  1  0  0  0
 62144  1  0  0  0
 63 65  1  0  0  0
 63145  1  0  0  0
 63146  1  0  0  0
 63147  1  0  0  0
 64148  1  0  0  0
 65149  1  0  0  0
 68 86  1  0  0  0
 71 73  2  0  0  0
 71 75  1  0  0  0
 71150  1  0  0  0
 72 75  2  0  0  0
 72 76  1  0  0  0
 72151  1  0  0  0
 73 74  1  0  0  0
 73 83  1  0  0  0
 74 76  2  0  0  0
 74 87  1  0  0  0
 75 88  1  0  0  0
 76 89  1  0  0  0
 77 78  2  0  0  0
 77 79  1  0  0  0
 77 82  1  0  0  0
 78152  1  0  0  0
 78153  1  0  0  0
 79 80  1  0  0  0
 79154  1  0  0  0
 79155  1  0  0  0
 80 88  1  0  0  0
 80156  1  0  0  0
 80157  1  0  0  0
 81 82  1  0  0  0
 81 88  1  0  0  0
 81158  1  0  0  0
 81159  1  0  0  0
 82 86  1  0  0  0
 82160  1  0  0  0
 83161  1  0  0  0
 83162  1  0  0  0
 83163  1  0  0  0
 84164  1  0  0  0
 84165  1  0  0  0
 84166  1  0  0  0
 84 87  1  0  0  0
 85 87  1  0  0  0
 85167  1  0  0  0
 85168  1  0  0  0
 85169  1  0  0  0
 86170  1  0  0  0
 86171  1  0  0  0
 87 90  1  0  0  0
 89172  1  0  0  0
M  ISO  4   1 100  68 101  86 101  89 100
M  END
> <chiral flag>
0

> <version>
0

> <s_m_source_file>
/data/baiqing/PycharmProjects/Reinvent-master-3.2/result/LINK_invent/BTK/process_docking_weight1_custom_product_contain_oxygen_bond_distance_aromatic_linkinvent_7_9_3/rearranged_h_0071.sdf

> <i_m_source_file_index>
84

> <r_mmod_Potential_Energy-OPLS-2005>
422.106872558594

> <r_mmod_Stretch_Energy-OPLS-2005>
167.98356628418

> <r_mmod_Bend_Energy-OPLS-2005>
223.448669433594

> <r_mmod_Torsional_Energy-OPLS-2005>
311.462921142578

> <r_mmod_Improper_Torsional_Energy-OPLS-2005>
11.7253398895264

> <r_mmod_Van_der_Waal_Energy-OPLS-2005>
150.991836547852

> <r_mmod_Electrostatic_Energy-OPLS-2005>
-325.746490478516

> <r_mmod_Solvation_Energy-OPLS-2005>
-211.706741333008

> <b_mmod_Minimization_Converged-OPLS-2005>
0

> <r_mmod_RMS_Derivative-OPLS-2005>
10.6448421478271

$$$$
85
                    3D
 Structure written by MMmdl.
160169  0  0  1  0            999 V2000
  -30.6408  -14.7739   20.4245 C   0  0  0  0  0  0
  -30.4229  -12.4706   19.4715 C   0  0  0  0  0  0
  -29.4975  -12.4862   18.2354 C   0  0  0  0  0  0
  -28.0308  -12.3078   18.6641 C   0  0  0  0  0  0
  -27.6351  -13.2371   19.8416 C   0  0  2  0  0  0
  -28.6855  -13.2225   20.9748 C   0  0  0  0  0  0
  -25.2497  -13.8220   20.5726 C   0  0  0  0  0  0
  -24.1791  -13.0451   20.9231 C   0  0  0  0  0  0
  -24.6389  -11.6937   20.8775 C   0  0  0  0  0  0
  -23.9079  -10.4309   21.0430 C   0  0  0  0  0  0
  -24.3622   -9.4210   21.9197 C   0  0  0  0  0  0
  -23.6295   -8.2243   22.0754 C   0  0  0  0  0  0
  -22.4278   -8.0288   21.3546 C   0  0  0  0  0  0
  -21.9922   -9.0267   20.4647 C   0  0  0  0  0  0
  -22.7255  -10.2150   20.3071 C   0  0  0  0  0  0
  -21.6854   -6.0741   22.5275 C   0  0  0  0  0  0
  -21.4008   -6.5640   23.8210 C   0  0  0  0  0  0
  -21.3656   -5.6792   24.9172 C   0  0  0  0  0  0
  -21.6048   -4.3056   24.7222 C   0  0  0  0  0  0
  -21.8822   -3.8148   23.4341 C   0  0  0  0  0  0
  -21.9187   -4.6966   22.3395 C   0  0  0  0  0  0
  -22.7815  -13.5234   21.1878 C   0  0  0  0  0  0
  -22.1661   -4.2150   21.0977 F   0  0  0  0  0  0
  -21.5627   -3.4540   25.7735 F   0  0  0  0  0  0
  -29.9794  -13.5628   20.3732 N   0  0  0  0  0  0
  -26.2917  -12.9437   20.3306 N   0  0  0  0  0  0
  -25.9319  -11.6578   20.5802 N   0  0  0  0  0  0
  -22.0456  -12.8217   22.0426 N   0  0  0  0  0  0
  -25.4188  -15.1949   20.4120 N   0  0  0  0  0  0
  -31.8387  -14.7866   20.1376 O   0  0  0  0  0  0
  -21.6642   -6.8884   21.4242 O   0  0  0  0  0  0
  -22.3500  -14.5534   20.6717 O   0  0  0  0  0  0
  -24.6350  -31.8527   23.1946 C   0  0  0  0  0  0
  -25.9171  -32.4734   23.8312 C   0  0  1  0  0  0
  -27.2155  -27.2404   20.1251 C   0  0  0  0  0  0
  -25.5944  -33.8530   24.2220 N   0  0  0  0  0  0
  -23.4309  -30.4754   21.5386 C   0  0  2  0  0  0
  -24.8757  -28.9172   20.1069 C   0  0  0  0  0  0
  -22.7521  -29.4603   22.4904 C   0  0  0  0  0  0
  -18.0298  -28.1400   22.8476 C   0  0  0  0  0  0
  -24.1493  -36.7261   23.2633 C   0  0  0  0  0  0
  -25.9787  -30.7575   21.3799 C   0  0  0  0  0  0
  -26.0484  -29.3805   20.7152 C   0  0  0  0  0  0
  -27.2187  -28.5527   20.7133 C   0  0  0  0  0  0
  -26.0087  -26.8373   19.5108 C   0  0  0  0  0  0
  -24.8605  -27.6544   19.4962 C   0  0  0  0  0  0
  -23.6484  -29.8061   20.1555 C   0  0  0  0  0  0
  -25.4118  -36.3037   24.0306 C   0  0  1  0  0  0
  -20.5905  -28.3720   23.1253 C   0  0  2  0  0  0
  -20.6797  -26.9438   22.5394 C   0  0  0  0  0  0
  -19.5761  -26.6402   21.5198 C   0  0  0  0  0  0
  -18.1940  -26.7952   22.1610 C   0  0  0  0  0  0
  -19.1552  -28.8871   23.2862 C   0  0  0  0  0  0
  -18.9475  -30.1472   23.8879 C   0  0  0  0  0  0
  -17.6477  -30.6607   24.0562 C   0  0  0  0  0  0
  -25.9074  -34.9417   23.5071 C   0  0  0  0  0  0
  -16.5363  -29.9094   23.6345 C   0  0  0  0  0  0
  -16.7283  -28.6517   23.0349 C   0  0  0  0  0  0
  -26.4520  -31.6585   25.0730 C   0  0  0  0  0  0
  -25.3728  -31.3743   26.1442 C   0  0  0  0  0  0
  -27.0393  -30.2985   24.6297 C   0  0  0  0  0  0
  -27.6053  -32.4364   25.7492 C   0  0  0  0  0  0
  -27.5590  -37.1761   24.8453 C   0  0  0  0  0  0
  -21.4226  -29.3067   22.3654 N   0  0  0  0  0  0
  -26.4280  -37.3745   23.9428 N   0  0  0  0  0  0
  -24.6999  -31.0477   22.0934 N   0  0  0  0  0  0
  -23.4210  -28.8145   23.3018 O   0  0  0  0  0  0
  -28.3150  -26.3502   20.2213 O   0  0  0  0  0  0
  -26.5661  -34.8894   22.4654 O   0  0  0  0  0  0
  -23.5487  -32.1360   23.7237 O   0  0  0  0  0  0
  -31.2709  -20.1409   20.2988 C   0  0  0  0  0  0
  -29.4251  -18.5648   20.4148 C   0  0  0  0  0  0
  -31.7134  -17.7424   20.5039 C   0  0  0  0  0  0
  -29.8721  -19.9598   20.3191 C   0  0  0  0  0  0
  -32.1826  -19.0721   20.4334 C   0  0  0  0  0  0
  -30.3326  -17.4108   20.4846 C   0  0  0  0  0  0
  -27.5408  -22.9185   20.7535 C   0  0  0  0  0  0
  -28.4787  -23.5989   20.0791 C   0  0  0  0  0  0
  -27.8845  -21.4896   20.8928 C   0  0  0  0  0  0
  -34.2649  -20.3610   20.9319 C   0  0  0  0  0  0
  -29.5475  -22.5503   19.7164 C   0  0  0  0  0  0
  -35.7811  -20.3393   20.7885 C   0  0  0  0  0  0
  -28.4242  -25.0697   19.4397 C   0  0  0  0  0  0
  -29.0633  -21.2277   20.2629 N   0  0  0  0  0  0
  -33.5935  -19.2902   20.4645 N   0  0  0  0  0  0
  -29.9144  -15.9655   20.5608 N   0  0  0  0  0  0
  -27.1998  -20.6424   21.4729 O   0  0  0  0  0  0
  -33.7348  -21.3326   21.4763 O   0  0  0  0  0  0
  -31.4618  -12.5806   19.1534 H   0  0  0  0  0  0
  -30.3706  -11.5083   19.9840 H   0  0  0  0  0  0
  -29.7782  -11.6914   17.5433 H   0  0  0  0  0  0
  -29.6153  -13.4242   17.6899 H   0  0  0  0  0  0
  -27.9053  -11.2671   18.9634 H   0  0  0  0  0  0
  -27.3631  -12.4606   17.8167 H   0  0  0  0  0  0
  -27.6149  -14.2455   19.4278 H   0  0  0  0  0  0
  -28.7320  -12.2456   21.4574 H   0  0  0  0  0  0
  -28.4235  -13.9410   21.7527 H   0  0  0  0  0  0
  -25.2759   -9.5682   22.4781 H   0  0  0  0  0  0
  -23.9992   -7.4639   22.7482 H   0  0  0  0  0  0
  -21.0846   -8.8805   19.8956 H   0  0  0  0  0  0
  -22.3713  -10.9699   19.6187 H   0  0  0  0  0  0
  -21.2005   -7.6149   23.9712 H   0  0  0  0  0  0
  -21.1474   -6.0526   25.9079 H   0  0  0  0  0  0
  -22.0601   -2.7609   23.2846 H   0  0  0  0  0  0
  -22.4051  -11.9861   22.4803 H   0  0  0  0  0  0
  -21.1084  -13.1262   22.2649 H   0  0  0  0  0  0
  -24.6530  -15.8509   20.5268 H   0  0  0  0  0  0
  -26.2649  -15.6329   20.0715 H   0  0  0  0  0  0
  -26.7244  -32.5362   23.1047 H   0  0  0  0  0  0
  -25.0041  -33.9662   25.0332 H   0  0  0  0  0  0
  -22.7289  -31.2984   21.3907 H   0  0  0  0  0  0
  -23.3769  -35.9585   23.3245 H   0  0  0  0  0  0
  -24.3587  -36.8938   22.2063 H   0  0  0  0  0  0
  -23.7238  -37.6428   23.6711 H   0  0  0  0  0  0
  -26.1341  -31.5244   20.6194 H   0  0  0  0  0  0
  -26.8483  -30.7941   22.0246 H   0  0  0  0  0  0
  -28.1177  -28.8985   21.2042 H   0  0  0  0  0  0
  -25.8987  -25.8529   19.0838 H   0  0  0  0  0  0
  -23.9509  -27.2845   19.0413 H   0  0  0  0  0  0
  -23.7763  -30.5790   19.3971 H   0  0  0  0  0  0
  -22.7672  -29.2391   19.8505 H   0  0  0  0  0  0
  -25.1299  -36.1855   25.0791 H   0  0  0  0  0  0
  -20.9979  -28.3315   24.1373 H   0  0  0  0  0  0
  -20.5695  -26.2327   23.3606 H   0  0  0  0  0  0
  -21.6660  -26.7480   22.1170 H   0  0  0  0  0  0
  -19.6914  -25.6308   21.1240 H   0  0  0  0  0  0
  -19.6688  -27.3213   20.6729 H   0  0  0  0  0  0
  -17.4206  -26.6696   21.4018 H   0  0  0  0  0  0
  -18.0332  -26.0093   22.8998 H   0  0  0  0  0  0
  -19.7947  -30.7295   24.2234 H   0  0  0  0  0  0
  -17.5029  -31.6276   24.5200 H   0  0  0  0  0  0
  -15.5357  -30.2988   23.7705 H   0  0  0  0  0  0
  -15.8674  -28.0845   22.7059 H   0  0  0  0  0  0
  -24.5916  -30.7088   25.7755 H   0  0  0  0  0  0
  -24.8916  -32.2910   26.4862 H   0  0  0  0  0  0
  -25.8029  -30.8918   27.0231 H   0  0  0  0  0  0
  -26.3011  -29.6685   24.1325 H   0  0  0  0  0  0
  -27.4022  -29.7308   25.4879 H   0  0  0  0  0  0
  -27.8903  -30.4199   23.9590 H   0  0  0  0  0  0
  -27.2650  -33.3678   26.2036 H   0  0  0  0  0  0
  -28.3868  -32.6922   25.0321 H   0  0  0  0  0  0
  -28.0742  -31.8538   26.5436 H   0  0  0  0  0  0
  -28.2538  -38.0126   24.7586 H   0  0  0  0  0  0
  -28.1145  -36.2657   24.6161 H   0  0  0  0  0  0
  -27.2319  -37.1254   25.8851 H   0  0  0  0  0  0
  -20.9439  -29.8771   21.6822 H   0  0  0  0  0  0
  -26.0142  -38.2788   24.1497 H   0  0  0  0  0  0
  -31.6715  -21.1358   20.2078 H   0  0  0  0  0  0
  -28.3604  -18.3767   20.4216 H   0  0  0  0  0  0
  -32.4626  -16.9743   20.5923 H   0  0  0  0  0  0
  -26.6035  -23.3385   21.0866 H   0  0  0  0  0  0
  -30.4917  -22.8734   20.1527 H   0  0  0  0  0  0
  -29.6640  -22.4875   18.6328 H   0  0  0  0  0  0
  -36.1418  -19.3761   20.4284 H   0  0  0  0  0  0
  -36.2546  -20.5448   21.7489 H   0  0  0  0  0  0
  -36.0982  -21.1078   20.0834 H   0  0  0  0  0  0
  -27.7475  -25.0451   18.5897 H   0  0  0  0  0  0
  -29.3974  -25.1714   18.9591 H   0  0  0  0  0  0
  -34.1716  -18.5187   20.1588 H   0  0  0  0  0  0
  -28.9250  -15.8167   20.6855 H   0  0  0  0  0  0
  1 25  1  0  0  0
  1 30  2  0  0  0
  1 86  1  0  0  0
  2  3  1  0  0  0
  2 25  1  0  0  0
  2 89  1  0  0  0
  2 90  1  0  0  0
  3  4  1  0  0  0
  3 91  1  0  0  0
  3 92  1  0  0  0
  4  5  1  0  0  0
  4 93  1  0  0  0
  4 94  1  0  0  0
  5  6  1  0  0  0
  5 26  1  0  0  0
  5 95  1  0  0  0
  6 25  1  0  0  0
  6 96  1  0  0  0
  6 97  1  0  0  0
  7  8  2  0  0  0
  7 26  1  0  0  0
  7 29  1  0  0  0
  8  9  1  0  0  0
  8 22  1  0  0  0
  9 10  1  0  0  0
  9 27  2  0  0  0
 10 11  2  0  0  0
 10 15  1  0  0  0
 11 12  1  0  0  0
 11 98  1  0  0  0
 12 13  2  0  0  0
 12 99  1  0  0  0
 13 14  1  0  0  0
 13 31  1  0  0  0
 14 15  2  0  0  0
 14100  1  0  0  0
 15101  1  0  0  0
 16 17  2  0  0  0
 16 21  1  0  0  0
 16 31  1  0  0  0
 17 18  1  0  0  0
 17102  1  0  0  0
 18 19  2  0  0  0
 18103  1  0  0  0
 19 20  1  0  0  0
 19 24  1  0  0  0
 20 21  2  0  0  0
 20104  1  0  0  0
 21 23  1  0  0  0
 22 28  1  0  0  0
 22 32  2  0  0  0
 26 27  1  0  0  0
 28105  1  0  0  0
 28106  1  0  0  0
 29107  1  0  0  0
 29108  1  0  0  0
 33 34  1  0  0  0
 33 66  1  0  0  0
 33 70  2  0  0  0
 34 36  1  0  0  0
 34 59  1  0  0  0
 34109  1  0  0  0
 35 44  2  0  0  0
 35 45  1  0  0  0
 35 68  1  0  0  0
 36 56  1  0  0  0
 36110  1  0  0  0
 37 39  1  0  0  0
 37 47  1  0  0  0
 37 66  1  0  0  0
 37111  1  0  0  0
 38 43  2  0  0  0
 38 46  1  0  0  0
 38 47  1  0  0  0
 39 64  1  0  0  0
 39 67  2  0  0  0
 40 52  1  0  0  0
 40 53  2  0  0  0
 40 58  1  0  0  0
 41112  1  0  0  0
 41113  1  0  0  0
 41114  1  0  0  0
 41 48  1  0  0  0
 42 43  1  0  0  0
 42 66  1  0  0  0
 42115  1  0  0  0
 42116  1  0  0  0
 43 44  1  0  0  0
 44117  1  0  0  0
 45 46  2  0  0  0
 45118  1  0  0  0
 46119  1  0  0  0
 47120  1  0  0  0
 47121  1  0  0  0
 48 56  1  0  0  0
 48 65  1  0  0  0
 48122  1  0  0  0
 49 50  1  0  0  0
 49 53  1  0  0  0
 49 64  1  0  0  0
 49123  1  0  0  0
 50 51  1  0  0  0
 50124  1  0  0  0
 50125  1  0  0  0
 51 52  1  0  0  0
 51126  1  0  0  0
 51127  1  0  0  0
 52128  1  0  0  0
 52129  1  0  0  0
 53 54  1  0  0  0
 54 55  2  0  0  0
 54130  1  0  0  0
 55 57  1  0  0  0
 55131  1  0  0  0
 56 69  2  0  0  0
 57 58  2  0  0  0
 57132  1  0  0  0
 58133  1  0  0  0
 59 60  1  0  0  0
 59 61  1  0  0  0
 59 62  1  0  0  0
 60134  1  0  0  0
 60135  1  0  0  0
 60136  1  0  0  0
 61137  1  0  0  0
 61138  1  0  0  0
 61139  1  0  0  0
 62140  1  0  0  0
 62141  1  0  0  0
 62142  1  0  0  0
 63 65  1  0  0  0
 63143  1  0  0  0
 63144  1  0  0  0
 63145  1  0  0  0
 64146  1  0  0  0
 65147  1  0  0  0
 68 83  1  0  0  0
 71 74  2  0  0  0
 71 75  1  0  0  0
 71148  1  0  0  0
 72 74  1  0  0  0
 72 76  2  0  0  0
 72149  1  0  0  0
 73 75  2  0  0  0
 73 76  1  0  0  0
 73150  1  0  0  0
 74 84  1  0  0  0
 75 85  1  0  0  0
 76 86  1  0  0  0
 77 78  2  0  0  0
 77 79  1  0  0  0
 77151  1  0  0  0
 78 81  1  0  0  0
 78 83  1  0  0  0
 79 84  1  0  0  0
 79 87  2  0  0  0
 80 82  1  0  0  0
 80 85  1  0  0  0
 80 88  2  0  0  0
 81 84  1  0  0  0
 81152  1  0  0  0
 81153  1  0  0  0
 82154  1  0  0  0
 82155  1  0  0  0
 82156  1  0  0  0
 83157  1  0  0  0
 83158  1  0  0  0
 85159  1  0  0  0
 86160  1  0  0  0
M  ISO  4   1 100  68 101  83 101  86 100
M  END
> <chiral flag>
0

> <version>
0

> <s_m_source_file>
/data/baiqing/PycharmProjects/Reinvent-master-3.2/result/LINK_invent/BTK/process_docking_weight1_custom_product_contain_oxygen_bond_distance_aromatic_linkinvent_7_9_3/rearranged_h_0071.sdf

> <i_m_source_file_index>
85

> <r_mmod_Potential_Energy-OPLS-2005>
268.466918945312

> <r_mmod_Stretch_Energy-OPLS-2005>
140.344177246094

> <r_mmod_Bend_Energy-OPLS-2005>
242.093551635742

> <r_mmod_Torsional_Energy-OPLS-2005>
269.754913330078

> <r_mmod_Improper_Torsional_Energy-OPLS-2005>
6.69183826446533

> <r_mmod_Van_der_Waal_Energy-OPLS-2005>
148.547714233398

> <r_mmod_Electrostatic_Energy-OPLS-2005>
-399.050262451172

> <r_mmod_Solvation_Energy-OPLS-2005>
-241.254089355469

> <b_mmod_Minimization_Converged-OPLS-2005>
0

> <r_mmod_RMS_Derivative-OPLS-2005>
2.57590198516846

$$$$
86
                    3D
 Structure written by MMmdl.
153161  0  0  1  0            999 V2000
  -30.6684  -14.4908   20.5838 C   0  0  0  0  0  0
  -30.4378  -12.3240   19.4122 C   0  0  0  0  0  0
  -29.4971  -12.5119   18.2021 C   0  0  0  0  0  0
  -28.0179  -12.3664   18.6167 C   0  0  0  0  0  0
  -27.6630  -13.2003   19.8764 C   0  0  2  0  0  0
  -28.7072  -12.9609   20.9907 C   0  0  0  0  0  0
  -25.2596  -13.8137   20.5680 C   0  0  0  0  0  0
  -24.1832  -13.0421   20.9140 C   0  0  0  0  0  0
  -24.6385  -11.6888   20.8711 C   0  0  0  0  0  0
  -23.9050  -10.4282   21.0392 C   0  0  0  0  0  0
  -24.3603   -9.4204   21.9175 C   0  0  0  0  0  0
  -23.6280   -8.2240   22.0755 C   0  0  0  0  0  0
  -22.4262   -8.0276   21.3545 C   0  0  0  0  0  0
  -21.9890   -9.0249   20.4649 C   0  0  0  0  0  0
  -22.7219  -10.2126   20.3050 C   0  0  0  0  0  0
  -21.6852   -6.0727   22.5276 C   0  0  0  0  0  0
  -21.4017   -6.5633   23.8208 C   0  0  0  0  0  0
  -21.3658   -5.6790   24.9172 C   0  0  0  0  0  0
  -21.6042   -4.3051   24.7225 C   0  0  0  0  0  0
  -21.8821   -3.8142   23.4347 C   0  0  0  0  0  0
  -21.9194   -4.6956   22.3400 C   0  0  0  0  0  0
  -22.7861  -13.5234   21.1818 C   0  0  0  0  0  0
  -22.1661   -4.2141   21.0976 F   0  0  0  0  0  0
  -21.5626   -3.4536   25.7740 F   0  0  0  0  0  0
  -30.0364  -13.2925   20.4426 N   0  0  0  0  0  0
  -26.3034  -12.9297   20.3378 N   0  0  0  0  0  0
  -25.9315  -11.6462   20.5758 N   0  0  0  0  0  0
  -22.0506  -12.8239   22.0389 N   0  0  0  0  0  0
  -25.4305  -15.1859   20.4168 N   0  0  0  0  0  0
  -31.7986  -14.7144   20.1379 O   0  0  0  0  0  0
  -21.6633   -6.8869   21.4238 O   0  0  0  0  0  0
  -22.3547  -14.5544   20.6679 O   0  0  0  0  0  0
  -24.6152  -31.8672   23.2093 C   0  0  0  0  0  0
  -25.9041  -32.4820   23.8390 C   0  0  1  0  0  0
  -27.2379  -27.4282   20.1047 C   0  0  0  0  0  0
  -25.5893  -33.8617   24.2320 N   0  0  0  0  0  0
  -23.4047  -30.4889   21.5499 C   0  0  2  0  0  0
  -24.8536  -28.9478   20.1229 C   0  0  0  0  0  0
  -22.7415  -29.4652   22.4992 C   0  0  0  0  0  0
  -18.0272  -28.1378   22.8491 C   0  0  0  0  0  0
  -24.1486  -36.7317   23.2639 C   0  0  0  0  0  0
  -25.9337  -30.8296   21.3645 C   0  0  0  0  0  0
  -26.0135  -29.4597   20.7202 C   0  0  0  0  0  0
  -27.2122  -28.7068   20.7094 C   0  0  0  0  0  0
  -26.0636  -26.9274   19.5096 C   0  0  0  0  0  0
  -24.8723  -27.6789   19.5167 C   0  0  0  0  0  0
  -23.6162  -29.8170   20.1666 C   0  0  0  0  0  0
  -25.4106  -36.3108   24.0336 C   0  0  1  0  0  0
  -20.5862  -28.3665   23.1317 C   0  0  2  0  0  0
  -20.6764  -26.9401   22.5418 C   0  0  0  0  0  0
  -19.5744  -26.6386   21.5213 C   0  0  0  0  0  0
  -18.1921  -26.7924   22.1623 C   0  0  0  0  0  0
  -19.1521  -28.8837   23.2903 C   0  0  0  0  0  0
  -18.9451  -30.1443   23.8914 C   0  0  0  0  0  0
  -17.6454  -30.6584   24.0568 C   0  0  0  0  0  0
  -25.9032  -34.9474   23.5126 C   0  0  0  0  0  0
  -16.5344  -29.9089   23.6323 C   0  0  0  0  0  0
  -16.7262  -28.6505   23.0345 C   0  0  0  0  0  0
  -26.4470  -31.6599   25.0717 C   0  0  0  0  0  0
  -25.3741  -31.3711   26.1473 C   0  0  0  0  0  0
  -27.0298  -30.3041   24.6088 C   0  0  0  0  0  0
  -27.6047  -32.4320   25.7476 C   0  0  0  0  0  0
  -27.5578  -37.1813   24.8465 C   0  0  0  0  0  0
  -21.4142  -29.3031   22.3726 N   0  0  0  0  0  0
  -26.4295  -37.3788   23.9403 N   0  0  0  0  0  0
  -24.6693  -31.0765   22.0998 N   0  0  0  0  0  0
  -23.4179  -28.8197   23.3044 O   0  0  0  0  0  0
  -28.3906  -26.6807   20.0190 O   0  0  0  0  0  0
  -26.5599  -34.8927   22.4690 O   0  0  0  0  0  0
  -23.5344  -32.1425   23.7485 O   0  0  0  0  0  0
  -31.2782  -18.9190   21.6987 C   0  0  0  0  0  0
  -31.2609  -17.5191   21.4771 C   0  0  0  0  0  0
  -28.8939  -19.0420   21.2345 C   0  0  0  0  0  0
  -30.0908  -19.6910   21.6088 C   0  0  0  0  0  0
  -30.0438  -16.8647   21.1756 C   0  0  0  0  0  0
  -28.8724  -17.6432   21.0380 C   0  0  0  0  0  0
  -28.9953  -24.4394   20.6577 C   0  0  0  0  0  0
  -28.5940  -25.6985   20.9608 C   0  0  0  0  0  0
  -30.0739  -21.1040   22.0479 C   0  0  0  0  0  0
  -29.3099  -23.4866   21.7229 C   0  0  0  0  0  0
  -29.8873  -15.4478   21.1172 N   0  0  0  0  0  0
  -29.5297  -22.1105   21.3075 N   0  0  0  0  0  0
  -30.6184  -21.3383   23.2478 N   0  3  0  0  0  0
  -29.4293  -23.8023   22.9146 O   0  0  0  0  0  0
  -27.7008  -17.0258   20.7485 F   0  0  0  0  0  0
  -31.4781  -12.4511   19.1070 H   0  0  0  0  0  0
  -30.3634  -11.3080   19.8033 H   0  0  0  0  0  0
  -29.7379  -11.7876   17.4229 H   0  0  0  0  0  0
  -29.6584  -13.4975   17.7622 H   0  0  0  0  0  0
  -27.8303  -11.3095   18.8097 H   0  0  0  0  0  0
  -27.3660  -12.6432   17.7870 H   0  0  0  0  0  0
  -27.7082  -14.2498   19.5853 H   0  0  0  0  0  0
  -28.6924  -11.9158   21.3028 H   0  0  0  0  0  0
  -28.4621  -13.5278   21.8902 H   0  0  0  0  0  0
  -25.2749   -9.5681   22.4745 H   0  0  0  0  0  0
  -23.9989   -7.4635   22.7476 H   0  0  0  0  0  0
  -21.0817   -8.8770   19.8959 H   0  0  0  0  0  0
  -22.3677  -10.9664   19.6159 H   0  0  0  0  0  0
  -21.2014   -7.6144   23.9710 H   0  0  0  0  0  0
  -21.1475   -6.0519   25.9073 H   0  0  0  0  0  0
  -22.0602   -2.7606   23.2851 H   0  0  0  0  0  0
  -22.4113  -11.9896   22.4776 H   0  0  0  0  0  0
  -21.1135  -13.1288   22.2611 H   0  0  0  0  0  0
  -24.6693  -15.8390   20.5606 H   0  0  0  0  0  0
  -26.3073  -15.6514   20.2103 H   0  0  0  0  0  0
  -26.7116  -32.5538   23.1159 H   0  0  0  0  0  0
  -25.0040  -33.9776   25.0464 H   0  0  0  0  0  0
  -22.6939  -31.3055   21.4076 H   0  0  0  0  0  0
  -23.3735  -35.9665   23.3323 H   0  0  0  0  0  0
  -24.3578  -36.8910   22.2049 H   0  0  0  0  0  0
  -23.7258  -37.6537   23.6640 H   0  0  0  0  0  0
  -26.0441  -31.5903   20.5906 H   0  0  0  0  0  0
  -26.8224  -30.8887   21.9809 H   0  0  0  0  0  0
  -28.1136  -29.1019   21.1562 H   0  0  0  0  0  0
  -26.0782  -25.9573   19.0328 H   0  0  0  0  0  0
  -23.9814  -27.2785   19.0524 H   0  0  0  0  0  0
  -23.7282  -30.5891   19.4046 H   0  0  0  0  0  0
  -22.7401  -29.2372   19.8703 H   0  0  0  0  0  0
  -25.1284  -36.1974   25.0830 H   0  0  0  0  0  0
  -20.9949  -28.3232   24.1441 H   0  0  0  0  0  0
  -20.5661  -26.2274   23.3606 H   0  0  0  0  0  0
  -21.6639  -26.7445   22.1213 H   0  0  0  0  0  0
  -19.6906  -25.6300   21.1232 H   0  0  0  0  0  0
  -19.6680  -27.3206   20.6749 H   0  0  0  0  0  0
  -17.4189  -26.6668   21.4028 H   0  0  0  0  0  0
  -18.0324  -26.0062   22.9015 H   0  0  0  0  0  0
  -19.7929  -30.7254   24.2289 H   0  0  0  0  0  0
  -17.5012  -31.6264   24.5169 H   0  0  0  0  0  0
  -15.5346  -30.3000   23.7638 H   0  0  0  0  0  0
  -15.8660  -28.0833   22.7050 H   0  0  0  0  0  0
  -24.5894  -30.7080   25.7813 H   0  0  0  0  0  0
  -24.8960  -32.2873   26.4946 H   0  0  0  0  0  0
  -25.8097  -30.8856   27.0214 H   0  0  0  0  0  0
  -26.2836  -29.6806   24.1147 H   0  0  0  0  0  0
  -27.4079  -29.7273   25.4539 H   0  0  0  0  0  0
  -27.8668  -30.4362   23.9226 H   0  0  0  0  0  0
  -27.2659  -33.3602   26.2092 H   0  0  0  0  0  0
  -28.3832  -32.6912   25.0288 H   0  0  0  0  0  0
  -28.0743  -31.8423   26.5360 H   0  0  0  0  0  0
  -28.2612  -38.0094   24.7491 H   0  0  0  0  0  0
  -28.1055  -36.2625   24.6313 H   0  0  0  0  0  0
  -27.2296  -37.1496   25.8870 H   0  0  0  0  0  0
  -20.9306  -29.8760   21.6951 H   0  0  0  0  0  0
  -26.0185  -38.2870   24.1389 H   0  0  0  0  0  0
  -32.2083  -19.3919   21.9857 H   0  0  0  0  0  0
  -32.1719  -16.9508   21.5992 H   0  0  0  0  0  0
  -27.9665  -19.5934   21.1726 H   0  0  0  0  0  0
  -29.1131  -24.1525   19.6234 H   0  0  0  0  0  0
  -28.4308  -26.0583   21.9691 H   0  0  0  0  0  0
  -28.9538  -15.1317   21.3272 H   0  0  0  0  0  0
  -29.3492  -21.8183   20.3595 H   0  0  0  0  0  0
  -30.9669  -20.5775   23.8098 H   0  0  0  0  0  0
  -30.5295  -22.2631   23.6496 H   0  0  0  0  0  0
  1 25  1  0  0  0
  1 30  2  0  0  0
  1 81  1  0  0  0
  2  3  1  0  0  0
  2 25  1  0  0  0
  2 86  1  0  0  0
  2 87  1  0  0  0
  3  4  1  0  0  0
  3 88  1  0  0  0
  3 89  1  0  0  0
  4  5  1  0  0  0
  4 90  1  0  0  0
  4 91  1  0  0  0
  5  6  1  0  0  0
  5 26  1  0  0  0
  5 92  1  0  0  0
  6 25  1  0  0  0
  6 93  1  0  0  0
  6 94  1  0  0  0
  7  8  2  0  0  0
  7 26  1  0  0  0
  7 29  1  0  0  0
  8  9  1  0  0  0
  8 22  1  0  0  0
  9 10  1  0  0  0
  9 27  2  0  0  0
 10 11  2  0  0  0
 10 15  1  0  0  0
 11 12  1  0  0  0
 11 95  1  0  0  0
 12 13  2  0  0  0
 12 96  1  0  0  0
 13 14  1  0  0  0
 13 31  1  0  0  0
 14 15  2  0  0  0
 14 97  1  0  0  0
 15 98  1  0  0  0
 16 17  2  0  0  0
 16 21  1  0  0  0
 16 31  1  0  0  0
 17 18  1  0  0  0
 17 99  1  0  0  0
 18 19  2  0  0  0
 18100  1  0  0  0
 19 20  1  0  0  0
 19 24  1  0  0  0
 20 21  2  0  0  0
 20101  1  0  0  0
 21 23  1  0  0  0
 22 28  1  0  0  0
 22 32  2  0  0  0
 26 27  1  0  0  0
 28102  1  0  0  0
 28103  1  0  0  0
 29104  1  0  0  0
 29105  1  0  0  0
 33 34  1  0  0  0
 33 66  1  0  0  0
 33 70  2  0  0  0
 34 36  1  0  0  0
 34 59  1  0  0  0
 34106  1  0  0  0
 35 44  2  0  0  0
 35 45  1  0  0  0
 35 68  1  0  0  0
 36 56  1  0  0  0
 36107  1  0  0  0
 37 39  1  0  0  0
 37 47  1  0  0  0
 37 66  1  0  0  0
 37108  1  0  0  0
 38 43  2  0  0  0
 38 46  1  0  0  0
 38 47  1  0  0  0
 39 64  1  0  0  0
 39 67  2  0  0  0
 40 52  1  0  0  0
 40 53  2  0  0  0
 40 58  1  0  0  0
 41109  1  0  0  0
 41110  1  0  0  0
 41111  1  0  0  0
 41 48  1  0  0  0
 42 43  1  0  0  0
 42 66  1  0  0  0
 42112  1  0  0  0
 42113  1  0  0  0
 43 44  1  0  0  0
 44114  1  0  0  0
 45 46  2  0  0  0
 45115  1  0  0  0
 46116  1  0  0  0
 47117  1  0  0  0
 47118  1  0  0  0
 48 56  1  0  0  0
 48 65  1  0  0  0
 48119  1  0  0  0
 49 50  1  0  0  0
 49 53  1  0  0  0
 49 64  1  0  0  0
 49120  1  0  0  0
 50 51  1  0  0  0
 50121  1  0  0  0
 50122  1  0  0  0
 51 52  1  0  0  0
 51123  1  0  0  0
 51124  1  0  0  0
 52125  1  0  0  0
 52126  1  0  0  0
 53 54  1  0  0  0
 54 55  2  0  0  0
 54127  1  0  0  0
 55 57  1  0  0  0
 55128  1  0  0  0
 56 69  2  0  0  0
 57 58  2  0  0  0
 57129  1  0  0  0
 58130  1  0  0  0
 59 60  1  0  0  0
 59 61  1  0  0  0
 59 62  1  0  0  0
 60131  1  0  0  0
 60132  1  0  0  0
 60133  1  0  0  0
 61134  1  0  0  0
 61135  1  0  0  0
 61136  1  0  0  0
 62137  1  0  0  0
 62138  1  0  0  0
 62139  1  0  0  0
 63 65  1  0  0  0
 63140  1  0  0  0
 63141  1  0  0  0
 63142  1  0  0  0
 64143  1  0  0  0
 65144  1  0  0  0
 68 78  1  0  0  0
 71 72  2  0  0  0
 71 74  1  0  0  0
 71145  1  0  0  0
 72 75  1  0  0  0
 72146  1  0  0  0
 73 74  2  0  0  0
 73 76  1  0  0  0
 73147  1  0  0  0
 74 79  1  0  0  0
 75 76  2  0  0  0
 75 81  1  0  0  0
 76 85  1  0  0  0
 77 78  2  0  0  0
 77 80  1  0  0  0
 77148  1  0  0  0
 78149  1  0  0  0
 79 82  1  0  0  0
 79 83  2  0  0  0
 80 82  1  0  0  0
 80 84  2  0  0  0
 81150  1  0  0  0
 82151  1  0  0  0
 83152  1  0  0  0
 83153  1  0  0  0
M  CHG  1  83   1
M  ISO  4   1 100  68 101  78 101  81 100
M  END
> <chiral flag>
0

> <version>
0

> <s_m_source_file>
/data/baiqing/PycharmProjects/Reinvent-master-3.2/result/LINK_invent/BTK/process_docking_weight1_custom_product_contain_oxygen_bond_distance_aromatic_linkinvent_7_9_3/rearranged_h_0071.sdf

> <i_m_source_file_index>
86

> <r_mmod_Potential_Energy-OPLS-2005>
-391.929107666016

> <r_mmod_Stretch_Energy-OPLS-2005>
39.0806159973145

> <r_mmod_Bend_Energy-OPLS-2005>
108.951728820801

> <r_mmod_Torsional_Energy-OPLS-2005>
240.52702331543

> <r_mmod_Improper_Torsional_Energy-OPLS-2005>
5.69613361358643

> <r_mmod_Van_der_Waal_Energy-OPLS-2005>
161.190231323242

> <r_mmod_Electrostatic_Energy-OPLS-2005>
-511.949615478516

> <r_mmod_Solvation_Energy-OPLS-2005>
-448.688903808594

> <b_mmod_Minimization_Converged-OPLS-2005>
0

> <r_mmod_RMS_Derivative-OPLS-2005>
0.629418015480042

$$$$
87
                    3D
 Structure written by MMmdl.
155164  0  0  1  0            999 V2000
  -30.6200  -14.7815   20.4904 C   0  0  0  0  0  0
  -30.4382  -12.4879   19.4866 C   0  0  0  0  0  0
  -29.5161  -12.5009   18.2512 C   0  0  0  0  0  0
  -28.0467  -12.3000   18.6683 C   0  0  0  0  0  0
  -27.6357  -13.2259   19.8442 C   0  0  2  0  0  0
  -28.6798  -13.2078   20.9820 C   0  0  0  0  0  0
  -25.2531  -13.8163   20.5746 C   0  0  0  0  0  0
  -24.1800  -13.0428   20.9195 C   0  0  0  0  0  0
  -24.6363  -11.6894   20.8713 C   0  0  0  0  0  0
  -23.9044  -10.4287   21.0368 C   0  0  0  0  0  0
  -24.3614   -9.4240   21.9167 C   0  0  0  0  0  0
  -23.6292   -8.2291   22.0779 C   0  0  0  0  0  0
  -22.4280   -8.0291   21.3558 C   0  0  0  0  0  0
  -21.9888   -9.0267   20.4669 C   0  0  0  0  0  0
  -22.7209  -10.2155   20.3052 C   0  0  0  0  0  0
  -21.6861   -6.0740   22.5278 C   0  0  0  0  0  0
  -21.4011   -6.5649   23.8205 C   0  0  0  0  0  0
  -21.3663   -5.6798   24.9165 C   0  0  0  0  0  0
  -21.6054   -4.3064   24.7221 C   0  0  0  0  0  0
  -21.8814   -3.8157   23.4336 C   0  0  0  0  0  0
  -21.9200   -4.6959   22.3389 C   0  0  0  0  0  0
  -22.7849  -13.5233   21.1869 C   0  0  0  0  0  0
  -22.1653   -4.2137   21.0959 F   0  0  0  0  0  0
  -21.5652   -3.4545   25.7733 F   0  0  0  0  0  0
  -29.9787  -13.5646   20.3948 N   0  0  0  0  0  0
  -26.2913  -12.9347   20.3276 N   0  0  0  0  0  0
  -25.9279  -11.6486   20.5699 N   0  0  0  0  0  0
  -22.0483  -12.8232   22.0405 N   0  0  0  0  0  0
  -25.4301  -15.1898   20.4266 N   0  0  0  0  0  0
  -31.8150  -14.8498   20.1908 O   0  0  0  0  0  0
  -21.6659   -6.8891   21.4246 O   0  0  0  0  0  0
  -22.3545  -14.5548   20.6706 O   0  0  0  0  0  0
  -24.6351  -31.8533   23.1956 C   0  0  0  0  0  0
  -25.9158  -32.4749   23.8316 C   0  0  1  0  0  0
  -27.2136  -27.2280   20.1635 C   0  0  0  0  0  0
  -25.5940  -33.8555   24.2219 N   0  0  0  0  0  0
  -23.4363  -30.4752   21.5405 C   0  0  2  0  0  0
  -24.8842  -28.9201   20.1155 C   0  0  0  0  0  0
  -22.7549  -29.4620   22.4916 C   0  0  0  0  0  0
  -18.0324  -28.1396   22.8424 C   0  0  0  0  0  0
  -24.1506  -36.7283   23.2635 C   0  0  0  0  0  0
  -25.9848  -30.7616   21.3811 C   0  0  0  0  0  0
  -26.0591  -29.3823   20.7252 C   0  0  0  0  0  0
  -27.2320  -28.5519   20.7321 C   0  0  0  0  0  0
  -26.0181  -26.8465   19.5192 C   0  0  0  0  0  0
  -24.8717  -27.6612   19.4989 C   0  0  0  0  0  0
  -23.6580  -29.8095   20.1573 C   0  0  0  0  0  0
  -25.4126  -36.3048   24.0315 C   0  0  1  0  0  0
  -20.5942  -28.3686   23.1229 C   0  0  2  0  0  0
  -20.6822  -26.9486   22.5135 C   0  0  0  0  0  0
  -19.5775  -26.6677   21.4906 C   0  0  0  0  0  0
  -18.1983  -26.8012   22.1399 C   0  0  0  0  0  0
  -19.1572  -28.8818   23.2885 C   0  0  0  0  0  0
  -18.9493  -30.1388   23.8948 C   0  0  0  0  0  0
  -17.6507  -30.6534   24.0642 C   0  0  0  0  0  0
  -25.9064  -34.9428   23.5054 C   0  0  0  0  0  0
  -16.5385  -29.9063   23.6364 C   0  0  0  0  0  0
  -16.7311  -28.6526   23.0302 C   0  0  0  0  0  0
  -26.4506  -31.6592   25.0727 C   0  0  0  0  0  0
  -25.3736  -31.3797   26.1455 C   0  0  0  0  0  0
  -27.0361  -30.2990   24.6296 C   0  0  0  0  0  0
  -27.6038  -32.4342   25.7532 C   0  0  0  0  0  0
  -27.5574  -37.1786   24.8459 C   0  0  0  0  0  0
  -21.4240  -29.3115   22.3692 N   0  0  0  0  0  0
  -26.4285  -37.3740   23.9405 N   0  0  0  0  0  0
  -24.7040  -31.0483   22.0947 N   0  0  0  0  0  0
  -23.4244  -28.8107   23.2986 O   0  0  0  0  0  0
  -28.2688  -26.2774   20.2035 O   0  0  0  0  0  0
  -26.5634  -34.8918   22.4636 O   0  0  0  0  0  0
  -23.5485  -32.1345   23.7228 O   0  0  0  0  0  0
  -31.8945  -18.9752   21.7747 C   0  0  0  0  0  0
  -31.0508  -20.0811   21.5343 C   0  0  0  0  0  0
  -31.5009  -17.6572   21.4623 C   0  0  0  0  0  0
  -29.3905  -18.5497   20.6459 C   0  0  0  0  0  0
  -29.7793  -19.9344   20.9385 C   0  0  0  0  0  0
  -30.2366  -17.3737   20.8964 C   0  0  0  0  0  0
  -29.1280  -22.5212   21.1124 C   0  0  0  0  0  0
  -28.4301  -23.4888   20.4202 C   0  0  0  0  0  0
  -27.8138  -22.7056   19.3620 C   0  0  0  0  0  0
  -27.1205  -23.2177   18.3362 C   0  0  0  0  0  0
  -28.0918  -21.2068   19.5356 C   0  0  0  0  0  0
  -27.9953  -24.9673   20.9180 C   0  0  0  0  0  0
  -29.0208  -21.1567   20.6585 N   0  0  0  0  0  0
  -29.8525  -15.9376   20.6744 N   0  0  0  0  0  0
  -31.4726  -12.6310   19.1684 H   0  0  0  0  0  0
  -30.4090  -11.5237   19.9973 H   0  0  0  0  0  0
  -29.8145  -11.7175   17.5520 H   0  0  0  0  0  0
  -29.6189  -13.4511   17.7247 H   0  0  0  0  0  0
  -27.9305  -11.2578   18.9634 H   0  0  0  0  0  0
  -27.3862  -12.4448   17.8116 H   0  0  0  0  0  0
  -27.6125  -14.2339   19.4340 H   0  0  0  0  0  0
  -28.7308  -12.2240   21.4512 H   0  0  0  0  0  0
  -28.4052  -13.9124   21.7721 H   0  0  0  0  0  0
  -25.2755   -9.5743   22.4731 H   0  0  0  0  0  0
  -24.0007   -7.4699   22.7522 H   0  0  0  0  0  0
  -21.0830   -8.8811   19.8976 H   0  0  0  0  0  0
  -22.3654  -10.9709   19.6203 H   0  0  0  0  0  0
  -21.1990   -7.6150   23.9676 H   0  0  0  0  0  0
  -21.1485   -6.0546   25.9054 H   0  0  0  0  0  0
  -22.0577   -2.7609   23.2845 H   0  0  0  0  0  0
  -22.4095  -11.9851   22.4737 H   0  0  0  0  0  0
  -21.1145  -13.1348   22.2667 H   0  0  0  0  0  0
  -24.6735  -15.8519   20.5470 H   0  0  0  0  0  0
  -26.3073  -15.6296   20.1793 H   0  0  0  0  0  0
  -26.7245  -32.5402   23.1066 H   0  0  0  0  0  0
  -25.0084  -33.9691   25.0359 H   0  0  0  0  0  0
  -22.7370  -31.3008   21.3893 H   0  0  0  0  0  0
  -23.3753  -35.9621   23.3280 H   0  0  0  0  0  0
  -24.3603  -36.8915   22.2048 H   0  0  0  0  0  0
  -23.7283  -37.6492   23.6676 H   0  0  0  0  0  0
  -26.1331  -31.5249   20.6164 H   0  0  0  0  0  0
  -26.8592  -30.8053   22.0216 H   0  0  0  0  0  0
  -28.1283  -28.9045   21.2202 H   0  0  0  0  0  0
  -25.9435  -25.8768   19.0571 H   0  0  0  0  0  0
  -23.9700  -27.2984   19.0266 H   0  0  0  0  0  0
  -23.7938  -30.5869   19.4054 H   0  0  0  0  0  0
  -22.7760  -29.2451   19.8482 H   0  0  0  0  0  0
  -25.1307  -36.1864   25.0800 H   0  0  0  0  0  0
  -21.0059  -28.3117   24.1350 H   0  0  0  0  0  0
  -20.5805  -26.2156   23.3161 H   0  0  0  0  0  0
  -21.6657  -26.7671   22.0780 H   0  0  0  0  0  0
  -19.6985  -25.6777   21.0511 H   0  0  0  0  0  0
  -19.6669  -27.3823   20.6716 H   0  0  0  0  0  0
  -17.4253  -26.6923   21.3766 H   0  0  0  0  0  0
  -18.0430  -25.9945   22.8581 H   0  0  0  0  0  0
  -19.7991  -30.7134   24.2419 H   0  0  0  0  0  0
  -17.5059  -31.6162   24.5342 H   0  0  0  0  0  0
  -15.5372  -30.2914   23.7739 H   0  0  0  0  0  0
  -15.8718  -28.0862   22.6942 H   0  0  0  0  0  0
  -24.5884  -30.7151   25.7826 H   0  0  0  0  0  0
  -24.8960  -32.2994   26.4841 H   0  0  0  0  0  0
  -25.8046  -30.9012   27.0256 H   0  0  0  0  0  0
  -26.2963  -29.6748   24.1269 H   0  0  0  0  0  0
  -27.3935  -29.7248   25.4856 H   0  0  0  0  0  0
  -27.8890  -30.4218   23.9625 H   0  0  0  0  0  0
  -27.2599  -33.3624   26.2109 H   0  0  0  0  0  0
  -28.3874  -32.6929   25.0404 H   0  0  0  0  0  0
  -28.0694  -31.8483   26.5460 H   0  0  0  0  0  0
  -28.2573  -38.0090   24.7472 H   0  0  0  0  0  0
  -28.1069  -36.2614   24.6297 H   0  0  0  0  0  0
  -27.2299  -37.1458   25.8860 H   0  0  0  0  0  0
  -20.9398  -29.8880   21.6954 H   0  0  0  0  0  0
  -26.0157  -38.2809   24.1376 H   0  0  0  0  0  0
  -32.8707  -19.1368   22.2147 H   0  0  0  0  0  0
  -31.4102  -21.0666   21.7982 H   0  0  0  0  0  0
  -32.1926  -16.8592   21.6980 H   0  0  0  0  0  0
  -28.4068  -18.3803   20.2311 H   0  0  0  0  0  0
  -29.6011  -22.6783   22.0736 H   0  0  0  0  0  0
  -26.9976  -24.2785   18.2148 H   0  0  0  0  0  0
  -26.6949  -22.5759   17.5799 H   0  0  0  0  0  0
  -28.5336  -20.7776   18.6323 H   0  0  0  0  0  0
  -27.1747  -20.6627   19.7670 H   0  0  0  0  0  0
  -28.4229  -25.0877   21.9127 H   0  0  0  0  0  0
  -26.9231  -24.8940   21.1024 H   0  0  0  0  0  0
  -28.8618  -15.7597   20.6778 H   0  0  0  0  0  0
  1 25  1  0  0  0
  1 30  2  0  0  0
  1 84  1  0  0  0
  2  3  1  0  0  0
  2 25  1  0  0  0
  2 85  1  0  0  0
  2 86  1  0  0  0
  3  4  1  0  0  0
  3 87  1  0  0  0
  3 88  1  0  0  0
  4  5  1  0  0  0
  4 89  1  0  0  0
  4 90  1  0  0  0
  5  6  1  0  0  0
  5 26  1  0  0  0
  5 91  1  0  0  0
  6 25  1  0  0  0
  6 92  1  0  0  0
  6 93  1  0  0  0
  7  8  2  0  0  0
  7 26  1  0  0  0
  7 29  1  0  0  0
  8  9  1  0  0  0
  8 22  1  0  0  0
  9 10  1  0  0  0
  9 27  2  0  0  0
 10 11  2  0  0  0
 10 15  1  0  0  0
 11 12  1  0  0  0
 11 94  1  0  0  0
 12 13  2  0  0  0
 12 95  1  0  0  0
 13 14  1  0  0  0
 13 31  1  0  0  0
 14 15  2  0  0  0
 14 96  1  0  0  0
 15 97  1  0  0  0
 16 17  2  0  0  0
 16 21  1  0  0  0
 16 31  1  0  0  0
 17 18  1  0  0  0
 17 98  1  0  0  0
 18 19  2  0  0  0
 18 99  1  0  0  0
 19 20  1  0  0  0
 19 24  1  0  0  0
 20 21  2  0  0  0
 20100  1  0  0  0
 21 23  1  0  0  0
 22 28  1  0  0  0
 22 32  2  0  0  0
 26 27  1  0  0  0
 28101  1  0  0  0
 28102  1  0  0  0
 29103  1  0  0  0
 29104  1  0  0  0
 33 34  1  0  0  0
 33 66  1  0  0  0
 33 70  2  0  0  0
 34 36  1  0  0  0
 34 59  1  0  0  0
 34105  1  0  0  0
 35 44  2  0  0  0
 35 45  1  0  0  0
 35 68  1  0  0  0
 36 56  1  0  0  0
 36106  1  0  0  0
 37 39  1  0  0  0
 37 47  1  0  0  0
 37 66  1  0  0  0
 37107  1  0  0  0
 38 43  2  0  0  0
 38 46  1  0  0  0
 38 47  1  0  0  0
 39 64  1  0  0  0
 39 67  2  0  0  0
 40 52  1  0  0  0
 40 53  2  0  0  0
 40 58  1  0  0  0
 41108  1  0  0  0
 41109  1  0  0  0
 41110  1  0  0  0
 41 48  1  0  0  0
 42 43  1  0  0  0
 42 66  1  0  0  0
 42111  1  0  0  0
 42112  1  0  0  0
 43 44  1  0  0  0
 44113  1  0  0  0
 45 46  2  0  0  0
 45114  1  0  0  0
 46115  1  0  0  0
 47116  1  0  0  0
 47117  1  0  0  0
 48 56  1  0  0  0
 48 65  1  0  0  0
 48118  1  0  0  0
 49 50  1  0  0  0
 49 53  1  0  0  0
 49 64  1  0  0  0
 49119  1  0  0  0
 50 51  1  0  0  0
 50120  1  0  0  0
 50121  1  0  0  0
 51 52  1  0  0  0
 51122  1  0  0  0
 51123  1  0  0  0
 52124  1  0  0  0
 52125  1  0  0  0
 53 54  1  0  0  0
 54 55  2  0  0  0
 54126  1  0  0  0
 55 57  1  0  0  0
 55127  1  0  0  0
 56 69  2  0  0  0
 57 58  2  0  0  0
 57128  1  0  0  0
 58129  1  0  0  0
 59 60  1  0  0  0
 59 61  1  0  0  0
 59 62  1  0  0  0
 60130  1  0  0  0
 60131  1  0  0  0
 60132  1  0  0  0
 61133  1  0  0  0
 61134  1  0  0  0
 61135  1  0  0  0
 62136  1  0  0  0
 62137  1  0  0  0
 62138  1  0  0  0
 63 65  1  0  0  0
 63139  1  0  0  0
 63140  1  0  0  0
 63141  1  0  0  0
 64142  1  0  0  0
 65143  1  0  0  0
 68 82  1  0  0  0
 71 72  2  0  0  0
 71 73  1  0  0  0
 71144  1  0  0  0
 72 75  1  0  0  0
 72145  1  0  0  0
 73 76  2  0  0  0
 73146  1  0  0  0
 74 75  2  0  0  0
 74 76  1  0  0  0
 74147  1  0  0  0
 75 83  1  0  0  0
 76 84  1  0  0  0
 77 78  2  0  0  0
 77 83  1  0  0  0
 77148  1  0  0  0
 78 79  1  0  0  0
 78 82  1  0  0  0
 79 80  2  0  0  0
 79 81  1  0  0  0
 80149  1  0  0  0
 80150  1  0  0  0
 81 83  1  0  0  0
 81151  1  0  0  0
 81152  1  0  0  0
 82153  1  0  0  0
 82154  1  0  0  0
 84155  1  0  0  0
M  ISO  4   1 100  68 101  82 101  84 100
M  END
> <chiral flag>
0

> <version>
0

> <s_m_source_file>
/data/baiqing/PycharmProjects/Reinvent-master-3.2/result/LINK_invent/BTK/process_docking_weight1_custom_product_contain_oxygen_bond_distance_aromatic_linkinvent_7_9_3/rearranged_h_0071.sdf

> <i_m_source_file_index>
87

> <r_mmod_Potential_Energy-OPLS-2005>
348.430633544922

> <r_mmod_Stretch_Energy-OPLS-2005>
142.166732788086

> <r_mmod_Bend_Energy-OPLS-2005>
261.381774902344

> <r_mmod_Torsional_Energy-OPLS-2005>
240.30387878418

> <r_mmod_Improper_Torsional_Energy-OPLS-2005>
7.65624856948853

> <r_mmod_Van_der_Waal_Energy-OPLS-2005>
133.428848266602

> <r_mmod_Electrostatic_Energy-OPLS-2005>
-334.602813720703

> <r_mmod_Solvation_Energy-OPLS-2005>
-212.450164794922

> <b_mmod_Minimization_Converged-OPLS-2005>
0

> <r_mmod_RMS_Derivative-OPLS-2005>
5.06523704528809

$$$$
88
                    3D
 Structure written by MMmdl.
153161  0  0  1  0            999 V2000
  -30.6032  -14.6502   20.5111 C   0  0  0  0  0  0
  -30.4502  -12.4036   19.4465 C   0  0  0  0  0  0
  -29.5108  -12.5118   18.2229 C   0  0  0  0  0  0
  -28.0331  -12.3482   18.6353 C   0  0  0  0  0  0
  -27.6575  -13.2120   19.8680 C   0  0  2  0  0  0
  -28.7041  -13.0492   20.9941 C   0  0  0  0  0  0
  -25.2581  -13.8154   20.5677 C   0  0  0  0  0  0
  -24.1838  -13.0430   20.9181 C   0  0  0  0  0  0
  -24.6404  -11.6899   20.8740 C   0  0  0  0  0  0
  -23.9067  -10.4289   21.0404 C   0  0  0  0  0  0
  -24.3616   -9.4205   21.9184 C   0  0  0  0  0  0
  -23.6290   -8.2242   22.0756 C   0  0  0  0  0  0
  -22.4273   -8.0282   21.3545 C   0  0  0  0  0  0
  -21.9906   -9.0256   20.4648 C   0  0  0  0  0  0
  -22.7238  -10.2134   20.3055 C   0  0  0  0  0  0
  -21.6852   -6.0734   22.5278 C   0  0  0  0  0  0
  -21.4012   -6.5638   23.8212 C   0  0  0  0  0  0
  -21.3657   -5.6791   24.9174 C   0  0  0  0  0  0
  -21.6045   -4.3054   24.7224 C   0  0  0  0  0  0
  -21.8821   -3.8147   23.4345 C   0  0  0  0  0  0
  -21.9194   -4.6962   22.3402 C   0  0  0  0  0  0
  -22.7862  -13.5233   21.1842 C   0  0  0  0  0  0
  -22.1664   -4.2149   21.0979 F   0  0  0  0  0  0
  -21.5627   -3.4538   25.7736 F   0  0  0  0  0  0
  -30.0199  -13.4105   20.4369 N   0  0  0  0  0  0
  -26.3014  -12.9329   20.3339 N   0  0  0  0  0  0
  -25.9334  -11.6488   20.5762 N   0  0  0  0  0  0
  -22.0500  -12.8232   22.0399 N   0  0  0  0  0  0
  -25.4296  -15.1869   20.4074 N   0  0  0  0  0  0
  -31.7472  -14.8535   20.0916 O   0  0  0  0  0  0
  -21.6639   -6.8878   21.4241 O   0  0  0  0  0  0
  -22.3548  -14.5542   20.6694 O   0  0  0  0  0  0
  -24.6262  -31.8592   23.2016 C   0  0  0  0  0  0
  -25.9105  -32.4781   23.8351 C   0  0  1  0  0  0
  -27.2306  -27.3203   20.1142 C   0  0  0  0  0  0
  -25.5914  -33.8579   24.2280 N   0  0  0  0  0  0
  -23.4201  -30.4817   21.5440 C   0  0  2  0  0  0
  -24.8679  -28.9364   20.1092 C   0  0  0  0  0  0
  -22.7479  -29.4614   22.4934 C   0  0  0  0  0  0
  -18.0284  -28.1380   22.8492 C   0  0  0  0  0  0
  -24.1488  -36.7296   23.2641 C   0  0  0  0  0  0
  -25.9609  -30.7909   21.3715 C   0  0  0  0  0  0
  -26.0359  -29.4178   20.7136 C   0  0  0  0  0  0
  -27.2192  -28.6215   20.7052 C   0  0  0  0  0  0
  -26.0385  -26.8909   19.4863 C   0  0  0  0  0  0
  -24.8715  -27.6789   19.4859 C   0  0  0  0  0  0
  -23.6345  -29.8153   20.1595 C   0  0  0  0  0  0
  -25.4110  -36.3086   24.0333 C   0  0  1  0  0  0
  -20.5886  -28.3683   23.1288 C   0  0  2  0  0  0
  -20.6770  -26.9405   22.5415 C   0  0  0  0  0  0
  -19.5743  -26.6380   21.5218 C   0  0  0  0  0  0
  -18.1923  -26.7925   22.1631 C   0  0  0  0  0  0
  -19.1538  -28.8848   23.2885 C   0  0  0  0  0  0
  -18.9460  -30.1451   23.8901 C   0  0  0  0  0  0
  -17.6460  -30.6584   24.0562 C   0  0  0  0  0  0
  -25.9046  -34.9455   23.5109 C   0  0  0  0  0  0
  -16.5352  -29.9083   23.6327 C   0  0  0  0  0  0
  -16.7271  -28.6499   23.0353 C   0  0  0  0  0  0
  -26.4489  -31.6589   25.0721 C   0  0  0  0  0  0
  -25.3726  -31.3721   26.1452 C   0  0  0  0  0  0
  -27.0328  -30.3015   24.6168 C   0  0  0  0  0  0
  -27.6048  -32.4325   25.7491 C   0  0  0  0  0  0
  -27.5575  -37.1803   24.8466 C   0  0  0  0  0  0
  -21.4190  -29.3038   22.3684 N   0  0  0  0  0  0
  -26.4289  -37.3779   23.9409 N   0  0  0  0  0  0
  -24.6880  -31.0604   22.0963 N   0  0  0  0  0  0
  -23.4202  -28.8155   23.3014 O   0  0  0  0  0  0
  -28.3575  -26.4827   20.1659 O   0  0  0  0  0  0
  -26.5621  -34.8927   22.4681 O   0  0  0  0  0  0
  -23.5424  -32.1386   23.7346 O   0  0  0  0  0  0
  -28.5903  -19.1692   21.6243 C   0  0  0  0  0  0
  -30.6361  -17.9670   20.1397 C   0  0  0  0  0  0
  -29.4653  -20.0397   20.9249 C   0  0  0  0  0  0
  -29.7680  -17.1105   20.8778 C   0  0  0  0  0  0
  -28.7326  -17.7572   21.5953 C   0  0  0  0  0  0
  -30.4850  -19.3973   20.1574 C   0  0  0  0  0  0
  -29.3443  -21.5345   21.1739 C   0  0  0  0  0  0
  -29.3593  -24.0723   20.4955 C   0  0  0  0  0  0
  -28.1805  -25.0184   20.0007 C   0  0  0  0  0  0
  -29.2908  -21.9060   22.4535 N   0  0  0  0  0  0
  -29.7820  -15.6479   20.9553 N   0  0  0  0  0  0
  -29.2571  -22.5604   20.2638 N   0  3  0  0  0  0
  -27.8541  -16.9954   22.2914 F   0  0  0  0  0  0
  -31.3683  -20.1517   19.4596 F   0  0  0  0  0  0
  -31.4871  -12.5502   19.1378 H   0  0  0  0  0  0
  -30.4069  -11.4035   19.8810 H   0  0  0  0  0  0
  -29.7751  -11.7590   17.4790 H   0  0  0  0  0  0
  -29.6490  -13.4794   17.7385 H   0  0  0  0  0  0
  -27.8678  -11.2938   18.8600 H   0  0  0  0  0  0
  -27.3786  -12.5846   17.7954 H   0  0  0  0  0  0
  -27.6796  -14.2502   19.5363 H   0  0  0  0  0  0
  -28.7211  -12.0186   21.3513 H   0  0  0  0  0  0
  -28.4429  -13.6540   21.8640 H   0  0  0  0  0  0
  -25.2760   -9.5678   22.4757 H   0  0  0  0  0  0
  -23.9998   -7.4632   22.7473 H   0  0  0  0  0  0
  -21.0837   -8.8776   19.8954 H   0  0  0  0  0  0
  -22.3697  -10.9674   19.6164 H   0  0  0  0  0  0
  -21.2006   -7.6146   23.9714 H   0  0  0  0  0  0
  -21.1475   -6.0521   25.9076 H   0  0  0  0  0  0
  -22.0603   -2.7608   23.2845 H   0  0  0  0  0  0
  -22.4108  -11.9889   22.4785 H   0  0  0  0  0  0
  -21.1119  -13.1265   22.2601 H   0  0  0  0  0  0
  -24.6684  -15.8444   20.5363 H   0  0  0  0  0  0
  -26.2838  -15.6290   20.0952 H   0  0  0  0  0  0
  -26.7175  -32.5456   23.1102 H   0  0  0  0  0  0
  -25.0046  -33.9721   25.0415 H   0  0  0  0  0  0
  -22.7134  -31.3020   21.4004 H   0  0  0  0  0  0
  -23.3750  -35.9630   23.3307 H   0  0  0  0  0  0
  -24.3573  -36.8912   22.2054 H   0  0  0  0  0  0
  -23.7244  -37.6500   23.6660 H   0  0  0  0  0  0
  -26.0905  -31.5538   20.6025 H   0  0  0  0  0  0
  -26.8422  -30.8419   21.9997 H   0  0  0  0  0  0
  -28.1158  -28.9881   21.1853 H   0  0  0  0  0  0
  -25.9833  -25.9312   18.9946 H   0  0  0  0  0  0
  -23.9772  -27.3062   19.0056 H   0  0  0  0  0  0
  -23.7509  -30.5915   19.4020 H   0  0  0  0  0  0
  -22.7547  -29.2430   19.8592 H   0  0  0  0  0  0
  -25.1291  -36.1933   25.0824 H   0  0  0  0  0  0
  -20.9983  -28.3255   24.1408 H   0  0  0  0  0  0
  -20.5667  -26.2293   23.3615 H   0  0  0  0  0  0
  -21.6635  -26.7427   22.1210 H   0  0  0  0  0  0
  -19.6902  -25.6294   21.1239 H   0  0  0  0  0  0
  -19.6677  -27.3197   20.6754 H   0  0  0  0  0  0
  -17.4195  -26.6677   21.4032 H   0  0  0  0  0  0
  -18.0317  -26.0065   22.9025 H   0  0  0  0  0  0
  -19.7935  -30.7263   24.2276 H   0  0  0  0  0  0
  -17.5014  -31.6266   24.5160 H   0  0  0  0  0  0
  -15.5352  -30.2986   23.7642 H   0  0  0  0  0  0
  -15.8672  -28.0816   22.7066 H   0  0  0  0  0  0
  -24.5906  -30.7059   25.7789 H   0  0  0  0  0  0
  -24.8912  -32.2881   26.4883 H   0  0  0  0  0  0
  -25.8060  -30.8901   27.0223 H   0  0  0  0  0  0
  -26.2896  -29.6773   24.1191 H   0  0  0  0  0  0
  -27.4032  -29.7259   25.4661 H   0  0  0  0  0  0
  -27.8766  -30.4311   23.9387 H   0  0  0  0  0  0
  -27.2653  -33.3624   26.2065 H   0  0  0  0  0  0
  -28.3857  -32.6886   25.0319 H   0  0  0  0  0  0
  -28.0720  -31.8454   26.5409 H   0  0  0  0  0  0
  -28.2597  -38.0095   24.7506 H   0  0  0  0  0  0
  -28.1064  -36.2625   24.6300 H   0  0  0  0  0  0
  -27.2293  -37.1465   25.8870 H   0  0  0  0  0  0
  -20.9366  -29.8779   21.6912 H   0  0  0  0  0  0
  -26.0171  -38.2855   24.1405 H   0  0  0  0  0  0
  -27.7958  -19.5874   22.2249 H   0  0  0  0  0  0
  -31.4367  -17.5389   19.5562 H   0  0  0  0  0  0
  -29.5328  -24.2760   21.5521 H   0  0  0  0  0  0
  -30.2732  -24.4008   19.9995 H   0  0  0  0  0  0
  -27.2828  -24.7135   20.5403 H   0  0  0  0  0  0
  -27.9948  -24.8112   18.9465 H   0  0  0  0  0  0
  -29.4153  -21.2134   23.1769 H   0  0  0  0  0  0
  -29.1304  -22.8579   22.7336 H   0  0  0  0  0  0
  -28.9393  -15.2859   21.3756 H   0  0  0  0  0  0
  -29.2713  -22.2759   19.2906 H   0  0  0  0  0  0
  1 25  1  0  0  0
  1 30  2  0  0  0
  1 81  1  0  0  0
  2  3  1  0  0  0
  2 25  1  0  0  0
  2 85  1  0  0  0
  2 86  1  0  0  0
  3  4  1  0  0  0
  3 87  1  0  0  0
  3 88  1  0  0  0
  4  5  1  0  0  0
  4 89  1  0  0  0
  4 90  1  0  0  0
  5  6  1  0  0  0
  5 26  1  0  0  0
  5 91  1  0  0  0
  6 25  1  0  0  0
  6 92  1  0  0  0
  6 93  1  0  0  0
  7  8  2  0  0  0
  7 26  1  0  0  0
  7 29  1  0  0  0
  8  9  1  0  0  0
  8 22  1  0  0  0
  9 10  1  0  0  0
  9 27  2  0  0  0
 10 11  2  0  0  0
 10 15  1  0  0  0
 11 12  1  0  0  0
 11 94  1  0  0  0
 12 13  2  0  0  0
 12 95  1  0  0  0
 13 14  1  0  0  0
 13 31  1  0  0  0
 14 15  2  0  0  0
 14 96  1  0  0  0
 15 97  1  0  0  0
 16 17  2  0  0  0
 16 21  1  0  0  0
 16 31  1  0  0  0
 17 18  1  0  0  0
 17 98  1  0  0  0
 18 19  2  0  0  0
 18 99  1  0  0  0
 19 20  1  0  0  0
 19 24  1  0  0  0
 20 21  2  0  0  0
 20100  1  0  0  0
 21 23  1  0  0  0
 22 28  1  0  0  0
 22 32  2  0  0  0
 26 27  1  0  0  0
 28101  1  0  0  0
 28102  1  0  0  0
 29103  1  0  0  0
 29104  1  0  0  0
 33 34  1  0  0  0
 33 66  1  0  0  0
 33 70  2  0  0  0
 34 36  1  0  0  0
 34 59  1  0  0  0
 34105  1  0  0  0
 35 44  2  0  0  0
 35 45  1  0  0  0
 35 68  1  0  0  0
 36 56  1  0  0  0
 36106  1  0  0  0
 37 39  1  0  0  0
 37 47  1  0  0  0
 37 66  1  0  0  0
 37107  1  0  0  0
 38 43  2  0  0  0
 38 46  1  0  0  0
 38 47  1  0  0  0
 39 64  1  0  0  0
 39 67  2  0  0  0
 40 52  1  0  0  0
 40 53  2  0  0  0
 40 58  1  0  0  0
 41108  1  0  0  0
 41109  1  0  0  0
 41110  1  0  0  0
 41 48  1  0  0  0
 42 43  1  0  0  0
 42 66  1  0  0  0
 42111  1  0  0  0
 42112  1  0  0  0
 43 44  1  0  0  0
 44113  1  0  0  0
 45 46  2  0  0  0
 45114  1  0  0  0
 46115  1  0  0  0
 47116  1  0  0  0
 47117  1  0  0  0
 48 56  1  0  0  0
 48 65  1  0  0  0
 48118  1  0  0  0
 49 50  1  0  0  0
 49 53  1  0  0  0
 49 64  1  0  0  0
 49119  1  0  0  0
 50 51  1  0  0  0
 50120  1  0  0  0
 50121  1  0  0  0
 51 52  1  0  0  0
 51122  1  0  0  0
 51123  1  0  0  0
 52124  1  0  0  0
 52125  1  0  0  0
 53 54  1  0  0  0
 54 55  2  0  0  0
 54126  1  0  0  0
 55 57  1  0  0  0
 55127  1  0  0  0
 56 69  2  0  0  0
 57 58  2  0  0  0
 57128  1  0  0  0
 58129  1  0  0  0
 59 60  1  0  0  0
 59 61  1  0  0  0
 59 62  1  0  0  0
 60130  1  0  0  0
 60131  1  0  0  0
 60132  1  0  0  0
 61133  1  0  0  0
 61134  1  0  0  0
 61135  1  0  0  0
 62136  1  0  0  0
 62137  1  0  0  0
 62138  1  0  0  0
 63 65  1  0  0  0
 63139  1  0  0  0
 63140  1  0  0  0
 63141  1  0  0  0
 64142  1  0  0  0
 65143  1  0  0  0
 68 79  1  0  0  0
 71 73  2  0  0  0
 71 75  1  0  0  0
 71144  1  0  0  0
 72 74  1  0  0  0
 72 76  2  0  0  0
 72145  1  0  0  0
 73 76  1  0  0  0
 73 77  1  0  0  0
 74 75  2  0  0  0
 74 81  1  0  0  0
 75 83  1  0  0  0
 76 84  1  0  0  0
 77 80  1  0  0  0
 77 82  2  0  0  0
 78 79  1  0  0  0
 78 82  1  0  0  0
 78146  1  0  0  0
 78147  1  0  0  0
 79148  1  0  0  0
 79149  1  0  0  0
 80150  1  0  0  0
 80151  1  0  0  0
 81152  1  0  0  0
 82153  1  0  0  0
M  CHG  1  82   1
M  ISO  4   1 100  68 101  79 101  81 100
M  END
> <chiral flag>
0

> <version>
0

> <s_m_source_file>
/data/baiqing/PycharmProjects/Reinvent-master-3.2/result/LINK_invent/BTK/process_docking_weight1_custom_product_contain_oxygen_bond_distance_aromatic_linkinvent_7_9_3/rearranged_h_0071.sdf

> <i_m_source_file_index>
88

> <r_mmod_Potential_Energy-OPLS-2005>
-228.685455322266

> <r_mmod_Stretch_Energy-OPLS-2005>
80.9212417602539

> <r_mmod_Bend_Energy-OPLS-2005>
152.405227661133

> <r_mmod_Torsional_Energy-OPLS-2005>
215.983535766602

> <r_mmod_Improper_Torsional_Energy-OPLS-2005>
4.09884071350098

> <r_mmod_Van_der_Waal_Energy-OPLS-2005>
146.009994506836

> <r_mmod_Electrostatic_Energy-OPLS-2005>
-447.18359375

> <r_mmod_Solvation_Energy-OPLS-2005>
-430.5146484375

> <b_mmod_Minimization_Converged-OPLS-2005>
0

> <r_mmod_RMS_Derivative-OPLS-2005>
0.610220789909363

$$$$
89
                    3D
 Structure written by MMmdl.
160169  0  0  1  0            999 V2000
  -30.6087  -14.7240   20.4317 C   0  0  0  0  0  0
  -30.4314  -12.4221   19.4844 C   0  0  0  0  0  0
  -29.5138  -12.4633   18.2416 C   0  0  0  0  0  0
  -28.0343  -12.3173   18.6453 C   0  0  0  0  0  0
  -27.6421  -13.2268   19.8426 C   0  0  2  0  0  0
  -28.6819  -13.1535   20.9834 C   0  0  0  0  0  0
  -25.2549  -13.8225   20.5747 C   0  0  0  0  0  0
  -24.1814  -13.0465   20.9201 C   0  0  0  0  0  0
  -24.6374  -11.6946   20.8712 C   0  0  0  0  0  0
  -23.9068  -10.4309   21.0392 C   0  0  0  0  0  0
  -24.3624   -9.4220   21.9159 C   0  0  0  0  0  0
  -23.6306   -8.2252   22.0723 C   0  0  0  0  0  0
  -22.4284   -8.0288   21.3525 C   0  0  0  0  0  0
  -21.9931   -9.0262   20.4621 C   0  0  0  0  0  0
  -22.7255  -10.2137   20.3042 C   0  0  0  0  0  0
  -21.6877   -6.0731   22.5272 C   0  0  0  0  0  0
  -21.4017   -6.5610   23.8207 C   0  0  0  0  0  0
  -21.3654   -5.6757   24.9166 C   0  0  0  0  0  0
  -21.6054   -4.3029   24.7217 C   0  0  0  0  0  0
  -21.8834   -3.8129   23.4335 C   0  0  0  0  0  0
  -21.9210   -4.6959   22.3394 C   0  0  0  0  0  0
  -22.7844  -13.5264   21.1895 C   0  0  0  0  0  0
  -22.1666   -4.2139   21.0977 F   0  0  0  0  0  0
  -21.5616   -3.4503   25.7721 F   0  0  0  0  0  0
  -29.9930  -13.4919   20.4128 N   0  0  0  0  0  0
  -26.2925  -12.9403   20.3197 N   0  0  0  0  0  0
  -25.9282  -11.6557   20.5663 N   0  0  0  0  0  0
  -22.0498  -12.8248   22.0443 N   0  0  0  0  0  0
  -25.4363  -15.1963   20.4408 N   0  0  0  0  0  0
  -31.7841  -14.8290   20.0701 O   0  0  0  0  0  0
  -21.6641   -6.8884   21.4240 O   0  0  0  0  0  0
  -22.3533  -14.5578   20.6762 O   0  0  0  0  0  0
  -24.6310  -31.8557   23.1996 C   0  0  0  0  0  0
  -25.9121  -32.4771   23.8356 C   0  0  1  0  0  0
  -27.2260  -27.2745   20.1202 C   0  0  0  0  0  0
  -25.5909  -33.8574   24.2261 N   0  0  0  0  0  0
  -23.4296  -30.4790   21.5420 C   0  0  2  0  0  0
  -24.8783  -28.9315   20.1110 C   0  0  0  0  0  0
  -22.7515  -29.4589   22.4896 C   0  0  0  0  0  0
  -18.0289  -28.1411   22.8459 C   0  0  0  0  0  0
  -24.1480  -36.7275   23.2643 C   0  0  0  0  0  0
  -25.9770  -30.7727   21.3819 C   0  0  0  0  0  0
  -26.0507  -29.3992   20.7168 C   0  0  0  0  0  0
  -27.2283  -28.5841   20.7071 C   0  0  0  0  0  0
  -26.0237  -26.8731   19.4901 C   0  0  0  0  0  0
  -24.8688  -27.6763   19.4884 C   0  0  0  0  0  0
  -23.6496  -29.8166   20.1577 C   0  0  0  0  0  0
  -25.4108  -36.3075   24.0326 C   0  0  1  0  0  0
  -20.5896  -28.3701   23.1262 C   0  0  2  0  0  0
  -20.6770  -26.9416   22.5411 C   0  0  0  0  0  0
  -19.5749  -26.6390   21.5201 C   0  0  0  0  0  0
  -18.1931  -26.7950   22.1609 C   0  0  0  0  0  0
  -19.1550  -28.8873   23.2858 C   0  0  0  0  0  0
  -18.9473  -30.1472   23.8885 C   0  0  0  0  0  0
  -17.6475  -30.6602   24.0565 C   0  0  0  0  0  0
  -25.9050  -34.9447   23.5100 C   0  0  0  0  0  0
  -16.5364  -29.9103   23.6341 C   0  0  0  0  0  0
  -16.7274  -28.6531   23.0331 C   0  0  0  0  0  0
  -26.4488  -31.6620   25.0763 C   0  0  0  0  0  0
  -25.3713  -31.3768   26.1487 C   0  0  0  0  0  0
  -27.0343  -30.3037   24.6280 C   0  0  0  0  0  0
  -27.6044  -32.4378   25.7520 C   0  0  0  0  0  0
  -27.5575  -37.1788   24.8453 C   0  0  0  0  0  0
  -21.4224  -29.3036   22.3648 N   0  0  0  0  0  0
  -26.4270  -37.3786   23.9425 N   0  0  0  0  0  0
  -24.6981  -31.0527   22.0977 N   0  0  0  0  0  0
  -23.4210  -28.8114   23.2986 O   0  0  0  0  0  0
  -28.3281  -26.3873   20.1783 O   0  0  0  0  0  0
  -26.5630  -34.8918   22.4675 O   0  0  0  0  0  0
  -23.5454  -32.1367   23.7278 O   0  0  0  0  0  0
  -29.5358  -19.6559   18.5696 C   0  0  0  0  0  0
  -29.5652  -18.4193   17.9012 C   0  0  0  0  0  0
  -29.7535  -18.4630   20.6756 C   0  0  0  0  0  0
  -29.6159  -19.7440   19.9767 C   0  0  0  0  0  0
  -29.7052  -17.1999   18.5929 C   0  0  0  0  0  0
  -29.8267  -17.1684   20.0078 C   0  0  0  0  0  0
  -30.1826  -22.8388   22.2505 C   0  0  0  0  0  0
  -30.3420  -21.4182   21.6690 C   0  0  0  0  0  0
  -28.6981  -22.2364   20.0248 C   0  0  0  0  0  0
  -29.1461  -23.7524   20.3293 C   0  0  1  0  0  0
  -30.7915  -23.0363   23.6290 C   0  0  0  0  0  0
  -28.0681  -24.9177   20.0144 C   0  0  0  0  0  0
  -29.6037  -23.8488   21.7066 N   0  0  0  0  0  0
  -29.5728  -21.1135   20.5830 N   0  0  0  0  0  0
  -29.6726  -16.0387   17.8254 N   0  0  0  0  0  0
  -29.8467  -15.8487   20.6985 N   0  0  0  0  0  0
  -31.1407  -20.6273   22.1881 O   0  0  0  0  0  0
  -31.4757  -12.5292   19.1851 H   0  0  0  0  0  0
  -30.3621  -11.4494   19.9743 H   0  0  0  0  0  0
  -29.7878  -11.6666   17.5479 H   0  0  0  0  0  0
  -29.6568  -13.3945   17.6956 H   0  0  0  0  0  0
  -27.8725  -11.2713   18.9086 H   0  0  0  0  0  0
  -27.3915  -12.5162   17.7861 H   0  0  0  0  0  0
  -27.6421  -14.2488   19.4607 H   0  0  0  0  0  0
  -28.7014  -12.1552   21.4243 H   0  0  0  0  0  0
  -28.4114  -13.8387   21.7889 H   0  0  0  0  0  0
  -25.2772   -9.5682   22.4721 H   0  0  0  0  0  0
  -24.0036   -7.4655   22.7446 H   0  0  0  0  0  0
  -21.0853   -8.8804   19.8920 H   0  0  0  0  0  0
  -22.3754  -10.9686   19.6152 H   0  0  0  0  0  0
  -21.1976   -7.6118   23.9711 H   0  0  0  0  0  0
  -21.1480   -6.0465   25.9066 H   0  0  0  0  0  0
  -22.0629   -2.7586   23.2846 H   0  0  0  0  0  0
  -22.4172  -11.9912   22.4803 H   0  0  0  0  0  0
  -21.1124  -13.1255   22.2690 H   0  0  0  0  0  0
  -24.7003  -15.8638   20.6420 H   0  0  0  0  0  0
  -26.3024  -15.6390   20.1609 H   0  0  0  0  0  0
  -26.7194  -32.5417   23.1104 H   0  0  0  0  0  0
  -25.0026  -33.9723   25.0382 H   0  0  0  0  0  0
  -22.7260  -31.3011   21.3944 H   0  0  0  0  0  0
  -23.3764  -35.9585   23.3294 H   0  0  0  0  0  0
  -24.3567  -36.8916   22.2060 H   0  0  0  0  0  0
  -23.7211  -37.6457   23.6687 H   0  0  0  0  0  0
  -26.1224  -31.5404   20.6213 H   0  0  0  0  0  0
  -26.8513  -30.8146   22.0201 H   0  0  0  0  0  0
  -28.1293  -28.9353   21.1896 H   0  0  0  0  0  0
  -25.9336  -25.9148   19.0027 H   0  0  0  0  0  0
  -23.9669  -27.3139   19.0149 H   0  0  0  0  0  0
  -23.7785  -30.5927   19.4025 H   0  0  0  0  0  0
  -22.7701  -29.2496   19.8481 H   0  0  0  0  0  0
  -25.1289  -36.1923   25.0816 H   0  0  0  0  0  0
  -20.9962  -28.3284   24.1387 H   0  0  0  0  0  0
  -20.5643  -26.2310   23.3612 H   0  0  0  0  0  0
  -21.6649  -26.7425   22.1232 H   0  0  0  0  0  0
  -19.6913  -25.6294   21.1247 H   0  0  0  0  0  0
  -19.6710  -27.3184   20.6718 H   0  0  0  0  0  0
  -17.4197  -26.6668   21.4024 H   0  0  0  0  0  0
  -18.0347  -26.0117   22.9030 H   0  0  0  0  0  0
  -19.7955  -30.7286   24.2254 H   0  0  0  0  0  0
  -17.5035  -31.6275   24.5180 H   0  0  0  0  0  0
  -15.5368  -30.2996   23.7691 H   0  0  0  0  0  0
  -15.8665  -28.0855   22.7037 H   0  0  0  0  0  0
  -24.5836  -30.7193   25.7791 H   0  0  0  0  0  0
  -24.8970  -32.2944   26.4986 H   0  0  0  0  0  0
  -25.8021  -30.8862   27.0226 H   0  0  0  0  0  0
  -26.2946  -29.6788   24.1268 H   0  0  0  0  0  0
  -27.3960  -29.7319   25.4836 H   0  0  0  0  0  0
  -27.8854  -30.4307   23.9586 H   0  0  0  0  0  0
  -27.2643  -33.3655   26.2136 H   0  0  0  0  0  0
  -28.3817  -32.6991   25.0327 H   0  0  0  0  0  0
  -28.0767  -31.8502   26.5400 H   0  0  0  0  0  0
  -28.2575  -38.0103   24.7550 H   0  0  0  0  0  0
  -28.1091  -36.2647   24.6218 H   0  0  0  0  0  0
  -27.2312  -37.1365   25.8856 H   0  0  0  0  0  0
  -20.9419  -29.8746   21.6839 H   0  0  0  0  0  0
  -26.0147  -38.2848   24.1480 H   0  0  0  0  0  0
  -29.4670  -20.5405   17.9557 H   0  0  0  0  0  0
  -29.4750  -18.4183   16.8238 H   0  0  0  0  0  0
  -29.7964  -18.4671   21.7549 H   0  0  0  0  0  0
  -28.5649  -22.1433   18.9501 H   0  0  0  0  0  0
  -27.7014  -22.0834   20.4418 H   0  0  0  0  0  0
  -30.0030  -23.9564   19.6822 H   0  0  0  0  0  0
  -30.3398  -22.3528   24.3480 H   0  0  0  0  0  0
  -30.6397  -24.0554   23.9851 H   0  0  0  0  0  0
  -31.8650  -22.8490   23.5994 H   0  0  0  0  0  0
  -27.1862  -24.6789   20.6127 H   0  0  0  0  0  0
  -27.7750  -24.7698   18.9737 H   0  0  0  0  0  0
  -29.6645  -16.1579   16.8185 H   0  0  0  0  0  0
  -30.3165  -15.3091   18.1048 H   0  0  0  0  0  0
  -28.9886  -15.6358   21.1824 H   0  0  0  0  0  0
  1 25  1  0  0  0
  1 30  2  0  0  0
  1 86  1  0  0  0
  2  3  1  0  0  0
  2 25  1  0  0  0
  2 88  1  0  0  0
  2 89  1  0  0  0
  3  4  1  0  0  0
  3 90  1  0  0  0
  3 91  1  0  0  0
  4  5  1  0  0  0
  4 92  1  0  0  0
  4 93  1  0  0  0
  5  6  1  0  0  0
  5 26  1  0  0  0
  5 94  1  0  0  0
  6 25  1  0  0  0
  6 95  1  0  0  0
  6 96  1  0  0  0
  7  8  2  0  0  0
  7 26  1  0  0  0
  7 29  1  0  0  0
  8  9  1  0  0  0
  8 22  1  0  0  0
  9 10  1  0  0  0
  9 27  2  0  0  0
 10 11  2  0  0  0
 10 15  1  0  0  0
 11 12  1  0  0  0
 11 97  1  0  0  0
 12 13  2  0  0  0
 12 98  1  0  0  0
 13 14  1  0  0  0
 13 31  1  0  0  0
 14 15  2  0  0  0
 14 99  1  0  0  0
 15100  1  0  0  0
 16 17  2  0  0  0
 16 21  1  0  0  0
 16 31  1  0  0  0
 17 18  1  0  0  0
 17101  1  0  0  0
 18 19  2  0  0  0
 18102  1  0  0  0
 19 20  1  0  0  0
 19 24  1  0  0  0
 20 21  2  0  0  0
 20103  1  0  0  0
 21 23  1  0  0  0
 22 28  1  0  0  0
 22 32  2  0  0  0
 26 27  1  0  0  0
 28104  1  0  0  0
 28105  1  0  0  0
 29106  1  0  0  0
 29107  1  0  0  0
 33 34  1  0  0  0
 33 66  1  0  0  0
 33 70  2  0  0  0
 34 36  1  0  0  0
 34 59  1  0  0  0
 34108  1  0  0  0
 35 44  2  0  0  0
 35 45  1  0  0  0
 35 68  1  0  0  0
 36 56  1  0  0  0
 36109  1  0  0  0
 37 39  1  0  0  0
 37 47  1  0  0  0
 37 66  1  0  0  0
 37110  1  0  0  0
 38 43  2  0  0  0
 38 46  1  0  0  0
 38 47  1  0  0  0
 39 64  1  0  0  0
 39 67  2  0  0  0
 40 52  1  0  0  0
 40 53  2  0  0  0
 40 58  1  0  0  0
 41111  1  0  0  0
 41112  1  0  0  0
 41113  1  0  0  0
 41 48  1  0  0  0
 42 43  1  0  0  0
 42 66  1  0  0  0
 42114  1  0  0  0
 42115  1  0  0  0
 43 44  1  0  0  0
 44116  1  0  0  0
 45 46  2  0  0  0
 45117  1  0  0  0
 46118  1  0  0  0
 47119  1  0  0  0
 47120  1  0  0  0
 48 56  1  0  0  0
 48 65  1  0  0  0
 48121  1  0  0  0
 49 50  1  0  0  0
 49 53  1  0  0  0
 49 64  1  0  0  0
 49122  1  0  0  0
 50 51  1  0  0  0
 50123  1  0  0  0
 50124  1  0  0  0
 51 52  1  0  0  0
 51125  1  0  0  0
 51126  1  0  0  0
 52127  1  0  0  0
 52128  1  0  0  0
 53 54  1  0  0  0
 54 55  2  0  0  0
 54129  1  0  0  0
 55 57  1  0  0  0
 55130  1  0  0  0
 56 69  2  0  0  0
 57 58  2  0  0  0
 57131  1  0  0  0
 58132  1  0  0  0
 59 60  1  0  0  0
 59 61  1  0  0  0
 59 62  1  0  0  0
 60133  1  0  0  0
 60134  1  0  0  0
 60135  1  0  0  0
 61136  1  0  0  0
 61137  1  0  0  0
 61138  1  0  0  0
 62139  1  0  0  0
 62140  1  0  0  0
 62141  1  0  0  0
 63 65  1  0  0  0
 63142  1  0  0  0
 63143  1  0  0  0
 63144  1  0  0  0
 64145  1  0  0  0
 65146  1  0  0  0
 68 82  1  0  0  0
 71 72  2  0  0  0
 71 74  1  0  0  0
 71147  1  0  0  0
 72 75  1  0  0  0
 72148  1  0  0  0
 73 74  2  0  0  0
 73 76  1  0  0  0
 73149  1  0  0  0
 74 84  1  0  0  0
 75 76  2  0  0  0
 75 85  1  0  0  0
 76 86  1  0  0  0
 77 78  1  0  0  0
 77 81  1  0  0  0
 77 83  2  0  0  0
 78 84  1  0  0  0
 78 87  2  0  0  0
 79 80  1  0  0  0
 79 84  1  0  0  0
 79150  1  0  0  0
 79151  1  0  0  0
 80 82  1  0  0  0
 80 83  1  0  0  0
 80152  1  0  0  0
 81153  1  0  0  0
 81154  1  0  0  0
 81155  1  0  0  0
 82156  1  0  0  0
 82157  1  0  0  0
 85158  1  0  0  0
 85159  1  0  0  0
 86160  1  0  0  0
M  ISO  4   1 100  68 101  82 101  86 100
M  END
> <chiral flag>
0

> <version>
0

> <s_m_source_file>
/data/baiqing/PycharmProjects/Reinvent-master-3.2/result/LINK_invent/BTK/process_docking_weight1_custom_product_contain_oxygen_bond_distance_aromatic_linkinvent_7_9_3/rearranged_h_0071.sdf

> <i_m_source_file_index>
89

> <r_mmod_Potential_Energy-OPLS-2005>
206.851455688477

> <r_mmod_Stretch_Energy-OPLS-2005>
133.188934326172

> <r_mmod_Bend_Energy-OPLS-2005>
160.934204101562

> <r_mmod_Torsional_Energy-OPLS-2005>
298.192810058594

> <r_mmod_Improper_Torsional_Energy-OPLS-2005>
9.99518299102783

> <r_mmod_Van_der_Waal_Energy-OPLS-2005>
173.1064453125

> <r_mmod_Electrostatic_Energy-OPLS-2005>
-409.805389404297

> <r_mmod_Solvation_Energy-OPLS-2005>
-237.336791992188

> <b_mmod_Minimization_Converged-OPLS-2005>
0

> <r_mmod_RMS_Derivative-OPLS-2005>
3.1209020614624

$$$$
90
                    3D
 Structure written by MMmdl.
156164  0  0  1  0            999 V2000
  -30.6275  -14.6311   20.4886 C   0  0  0  0  0  0
  -30.4399  -12.3852   19.4404 C   0  0  0  0  0  0
  -29.5065  -12.5104   18.2152 C   0  0  0  0  0  0
  -28.0270  -12.3570   18.6243 C   0  0  0  0  0  0
  -27.6547  -13.2180   19.8599 C   0  0  2  0  0  0
  -28.7033  -13.0620   20.9848 C   0  0  0  0  0  0
  -25.2560  -13.8167   20.5659 C   0  0  0  0  0  0
  -24.1837  -13.0449   20.9218 C   0  0  0  0  0  0
  -24.6399  -11.6911   20.8756 C   0  0  0  0  0  0
  -23.9059  -10.4303   21.0419 C   0  0  0  0  0  0
  -24.3622   -9.4206   21.9182 C   0  0  0  0  0  0
  -23.6294   -8.2242   22.0744 C   0  0  0  0  0  0
  -22.4270   -8.0288   21.3544 C   0  0  0  0  0  0
  -21.9917   -9.0262   20.4647 C   0  0  0  0  0  0
  -22.7241  -10.2139   20.3058 C   0  0  0  0  0  0
  -21.6849   -6.0738   22.5275 C   0  0  0  0  0  0
  -21.4008   -6.5641   23.8207 C   0  0  0  0  0  0
  -21.3660   -5.6792   24.9176 C   0  0  0  0  0  0
  -21.6041   -4.3053   24.7222 C   0  0  0  0  0  0
  -21.8819   -3.8147   23.4343 C   0  0  0  0  0  0
  -21.9191   -4.6967   22.3398 C   0  0  0  0  0  0
  -22.7851  -13.5233   21.1868 C   0  0  0  0  0  0
  -22.1658   -4.2159   21.0970 F   0  0  0  0  0  0
  -21.5636   -3.4531   25.7730 F   0  0  0  0  0  0
  -30.0193  -13.4039   20.4220 N   0  0  0  0  0  0
  -26.3000  -12.9362   20.3307 N   0  0  0  0  0  0
  -25.9329  -11.6517   20.5768 N   0  0  0  0  0  0
  -22.0472  -12.8244   22.0419 N   0  0  0  0  0  0
  -25.4253  -15.1889   20.3968 N   0  0  0  0  0  0
  -31.8007  -14.7749   20.1422 O   0  0  0  0  0  0
  -21.6627   -6.8890   21.4239 O   0  0  0  0  0  0
  -22.3547  -14.5531   20.6688 O   0  0  0  0  0  0
  -24.6265  -31.8579   23.1998 C   0  0  0  0  0  0
  -25.9112  -32.4763   23.8340 C   0  0  1  0  0  0
  -27.2243  -27.3048   20.1337 C   0  0  0  0  0  0
  -25.5918  -33.8566   24.2246 N   0  0  0  0  0  0
  -23.4213  -30.4798   21.5429 C   0  0  2  0  0  0
  -24.8670  -28.9229   20.1179 C   0  0  0  0  0  0
  -22.7468  -29.4626   22.4936 C   0  0  0  0  0  0
  -18.0294  -28.1405   22.8496 C   0  0  0  0  0  0
  -24.1484  -36.7262   23.2640 C   0  0  0  0  0  0
  -25.9623  -30.7827   21.3755 C   0  0  0  0  0  0
  -26.0345  -29.4074   20.7211 C   0  0  0  0  0  0
  -27.2170  -28.6099   20.7157 C   0  0  0  0  0  0
  -26.0413  -26.8750   19.4983 C   0  0  0  0  0  0
  -24.8702  -27.6596   19.5017 C   0  0  0  0  0  0
  -23.6379  -29.8076   20.1606 C   0  0  0  0  0  0
  -25.4121  -36.3057   24.0321 C   0  0  1  0  0  0
  -20.5895  -28.3708   23.1283 C   0  0  2  0  0  0
  -20.6777  -26.9429   22.5416 C   0  0  0  0  0  0
  -19.5754  -26.6395   21.5218 C   0  0  0  0  0  0
  -18.1934  -26.7954   22.1633 C   0  0  0  0  0  0
  -19.1551  -28.8875   23.2883 C   0  0  0  0  0  0
  -18.9475  -30.1475   23.8903 C   0  0  0  0  0  0
  -17.6475  -30.6605   24.0580 C   0  0  0  0  0  0
  -25.9060  -34.9444   23.5089 C   0  0  0  0  0  0
  -16.5359  -29.9108   23.6345 C   0  0  0  0  0  0
  -16.7283  -28.6525   23.0365 C   0  0  0  0  0  0
  -26.4505  -31.6594   25.0727 C   0  0  0  0  0  0
  -25.3734  -31.3744   26.1454 C   0  0  0  0  0  0
  -27.0359  -30.3014   24.6208 C   0  0  0  0  0  0
  -27.6051  -32.4347   25.7502 C   0  0  0  0  0  0
  -27.5573  -37.1788   24.8475 C   0  0  0  0  0  0
  -21.4192  -29.3041   22.3657 N   0  0  0  0  0  0
  -26.4291  -37.3757   23.9403 N   0  0  0  0  0  0
  -24.6890  -31.0569   22.0963 N   0  0  0  0  0  0
  -23.4183  -28.8193   23.3048 O   0  0  0  0  0  0
  -28.3577  -26.4770   20.1456 O   0  0  0  0  0  0
  -26.5634  -34.8928   22.4657 O   0  0  0  0  0  0
  -23.5422  -32.1396   23.7315 O   0  0  0  0  0  0
  -30.7085  -19.2513   19.6492 C   0  0  0  0  0  0
  -28.8895  -17.9418   21.2821 C   0  0  0  0  0  0
  -29.7595  -20.0665   20.3298 C   0  0  0  0  0  0
  -29.8663  -17.1292   20.6339 C   0  0  0  0  0  0
  -30.7690  -17.8330   19.7864 C   0  0  0  0  0  0
  -28.8275  -19.3636   21.1365 C   0  0  0  0  0  0
  -29.8416  -21.5784   20.2005 C   0  0  0  0  0  0
  -27.0539  -24.6446   21.3918 C   0  0  0  0  0  0
  -28.7755  -23.9219   19.6211 C   0  0  0  0  0  0
  -28.3330  -25.0644   20.6391 C   0  0  1  0  0  0
  -31.0636  -22.1107   20.1574 N   0  0  0  0  0  0
  -29.8099  -15.6739   20.8323 N   0  0  0  0  0  0
  -28.8018  -22.4683   20.1019 N   0  3  0  0  0  0
  -31.6976  -17.1733   19.0559 F   0  0  0  0  0  0
  -27.8616  -20.0485   21.7970 F   0  0  0  0  0  0
  -31.4790  -12.5131   19.1323 H   0  0  0  0  0  0
  -30.3759  -11.3863   19.8755 H   0  0  0  0  0  0
  -29.7660  -11.7620   17.4650 H   0  0  0  0  0  0
  -29.6544  -13.4821   17.7423 H   0  0  0  0  0  0
  -27.8506  -11.3032   18.8404 H   0  0  0  0  0  0
  -27.3785  -12.6082   17.7840 H   0  0  0  0  0  0
  -27.6745  -14.2548   19.5240 H   0  0  0  0  0  0
  -28.7155  -12.0370   21.3569 H   0  0  0  0  0  0
  -28.4545  -13.6881   21.8430 H   0  0  0  0  0  0
  -25.2774   -9.5667   22.4758 H   0  0  0  0  0  0
  -23.9999   -7.4629   22.7452 H   0  0  0  0  0  0
  -21.0857   -8.8794   19.8956 H   0  0  0  0  0  0
  -22.3713  -10.9685   19.6175 H   0  0  0  0  0  0
  -21.1986   -7.6147   23.9722 H   0  0  0  0  0  0
  -21.1487   -6.0514   25.9081 H   0  0  0  0  0  0
  -22.0597   -2.7611   23.2828 H   0  0  0  0  0  0
  -22.4077  -11.9926   22.4863 H   0  0  0  0  0  0
  -21.1081  -13.1279   22.2578 H   0  0  0  0  0  0
  -24.6410  -15.8285   20.4617 H   0  0  0  0  0  0
  -26.2356  -15.6064   19.9580 H   0  0  0  0  0  0
  -26.7181  -32.5432   23.1088 H   0  0  0  0  0  0
  -25.0066  -33.9705   25.0392 H   0  0  0  0  0  0
  -22.7158  -31.3006   21.3935 H   0  0  0  0  0  0
  -23.3750  -35.9590   23.3333 H   0  0  0  0  0  0
  -24.3559  -36.8852   22.2041 H   0  0  0  0  0  0
  -23.7245  -37.6478   23.6651 H   0  0  0  0  0  0
  -26.1013  -31.5452   20.6081 H   0  0  0  0  0  0
  -26.8380  -30.8263   22.0124 H   0  0  0  0  0  0
  -28.1174  -28.9754   21.1912 H   0  0  0  0  0  0
  -26.0168  -25.9141   19.0061 H   0  0  0  0  0  0
  -23.9733  -27.2792   19.0315 H   0  0  0  0  0  0
  -23.7653  -30.5803   19.4019 H   0  0  0  0  0  0
  -22.7564  -29.2382   19.8593 H   0  0  0  0  0  0
  -25.1301  -36.1904   25.0813 H   0  0  0  0  0  0
  -20.9993  -28.3300   24.1407 H   0  0  0  0  0  0
  -20.5669  -26.2323   23.3626 H   0  0  0  0  0  0
  -21.6653  -26.7451   22.1221 H   0  0  0  0  0  0
  -19.6906  -25.6297   21.1268 H   0  0  0  0  0  0
  -19.6707  -27.3202   20.6748 H   0  0  0  0  0  0
  -17.4201  -26.6723   21.4031 H   0  0  0  0  0  0
  -18.0331  -26.0094   22.9031 H   0  0  0  0  0  0
  -19.7947  -30.7295   24.2275 H   0  0  0  0  0  0
  -17.5031  -31.6298   24.5168 H   0  0  0  0  0  0
  -15.5365  -30.3011   23.7657 H   0  0  0  0  0  0
  -15.8689  -28.0838   22.7076 H   0  0  0  0  0  0
  -24.5896  -30.7104   25.7786 H   0  0  0  0  0  0
  -24.8947  -32.2920   26.4886 H   0  0  0  0  0  0
  -25.8054  -30.8921   27.0224 H   0  0  0  0  0  0
  -26.2948  -29.6756   24.1216 H   0  0  0  0  0  0
  -27.4026  -29.7287   25.4726 H   0  0  0  0  0  0
  -27.8829  -30.4288   23.9463 H   0  0  0  0  0  0
  -27.2646  -33.3643   26.2087 H   0  0  0  0  0  0
  -28.3868  -32.6927   25.0339 H   0  0  0  0  0  0
  -28.0731  -31.8481   26.5415 H   0  0  0  0  0  0
  -28.2606  -38.0069   24.7502 H   0  0  0  0  0  0
  -28.1051  -36.2598   24.6335 H   0  0  0  0  0  0
  -27.2286  -37.1482   25.8879 H   0  0  0  0  0  0
  -20.9363  -29.8730   21.6842 H   0  0  0  0  0  0
  -26.0165  -38.2825   24.1429 H   0  0  0  0  0  0
  -31.4224  -19.7183   18.9866 H   0  0  0  0  0  0
  -28.1571  -17.4687   21.9195 H   0  0  0  0  0  0
  -26.2407  -24.3880   20.7127 H   0  0  0  0  0  0
  -26.7103  -25.4160   22.0796 H   0  0  0  0  0  0
  -27.2424  -23.7553   21.9930 H   0  0  0  0  0  0
  -29.7451  -24.1855   19.1948 H   0  0  0  0  0  0
  -28.0866  -23.9525   18.7773 H   0  0  0  0  0  0
  -29.1147  -25.0785   21.3997 H   0  0  0  0  0  0
  -31.8604  -21.5109   20.3114 H   0  0  0  0  0  0
  -31.2169  -23.1048   20.1735 H   0  0  0  0  0  0
  -28.9339  -15.3475   21.2059 H   0  0  0  0  0  0
  -27.8875  -22.0565   20.2462 H   0  0  0  0  0  0
  1 25  1  0  0  0
  1 30  2  0  0  0
  1 82  1  0  0  0
  2  3  1  0  0  0
  2 25  1  0  0  0
  2 86  1  0  0  0
  2 87  1  0  0  0
  3  4  1  0  0  0
  3 88  1  0  0  0
  3 89  1  0  0  0
  4  5  1  0  0  0
  4 90  1  0  0  0
  4 91  1  0  0  0
  5  6  1  0  0  0
  5 26  1  0  0  0
  5 92  1  0  0  0
  6 25  1  0  0  0
  6 93  1  0  0  0
  6 94  1  0  0  0
  7  8  2  0  0  0
  7 26  1  0  0  0
  7 29  1  0  0  0
  8  9  1  0  0  0
  8 22  1  0  0  0
  9 10  1  0  0  0
  9 27  2  0  0  0
 10 11  2  0  0  0
 10 15  1  0  0  0
 11 12  1  0  0  0
 11 95  1  0  0  0
 12 13  2  0  0  0
 12 96  1  0  0  0
 13 14  1  0  0  0
 13 31  1  0  0  0
 14 15  2  0  0  0
 14 97  1  0  0  0
 15 98  1  0  0  0
 16 17  2  0  0  0
 16 21  1  0  0  0
 16 31  1  0  0  0
 17 18  1  0  0  0
 17 99  1  0  0  0
 18 19  2  0  0  0
 18100  1  0  0  0
 19 20  1  0  0  0
 19 24  1  0  0  0
 20 21  2  0  0  0
 20101  1  0  0  0
 21 23  1  0  0  0
 22 28  1  0  0  0
 22 32  2  0  0  0
 26 27  1  0  0  0
 28102  1  0  0  0
 28103  1  0  0  0
 29104  1  0  0  0
 29105  1  0  0  0
 33 34  1  0  0  0
 33 66  1  0  0  0
 33 70  2  0  0  0
 34 36  1  0  0  0
 34 59  1  0  0  0
 34106  1  0  0  0
 35 44  2  0  0  0
 35 45  1  0  0  0
 35 68  1  0  0  0
 36 56  1  0  0  0
 36107  1  0  0  0
 37 39  1  0  0  0
 37 47  1  0  0  0
 37 66  1  0  0  0
 37108  1  0  0  0
 38 43  2  0  0  0
 38 46  1  0  0  0
 38 47  1  0  0  0
 39 64  1  0  0  0
 39 67  2  0  0  0
 40 52  1  0  0  0
 40 53  2  0  0  0
 40 58  1  0  0  0
 41109  1  0  0  0
 41110  1  0  0  0
 41111  1  0  0  0
 41 48  1  0  0  0
 42 43  1  0  0  0
 42 66  1  0  0  0
 42112  1  0  0  0
 42113  1  0  0  0
 43 44  1  0  0  0
 44114  1  0  0  0
 45 46  2  0  0  0
 45115  1  0  0  0
 46116  1  0  0  0
 47117  1  0  0  0
 47118  1  0  0  0
 48 56  1  0  0  0
 48 65  1  0  0  0
 48119  1  0  0  0
 49 50  1  0  0  0
 49 53  1  0  0  0
 49 64  1  0  0  0
 49120  1  0  0  0
 50 51  1  0  0  0
 50121  1  0  0  0
 50122  1  0  0  0
 51 52  1  0  0  0
 51123  1  0  0  0
 51124  1  0  0  0
 52125  1  0  0  0
 52126  1  0  0  0
 53 54  1  0  0  0
 54 55  2  0  0  0
 54127  1  0  0  0
 55 57  1  0  0  0
 55128  1  0  0  0
 56 69  2  0  0  0
 57 58  2  0  0  0
 57129  1  0  0  0
 58130  1  0  0  0
 59 60  1  0  0  0
 59 61  1  0  0  0
 59 62  1  0  0  0
 60131  1  0  0  0
 60132  1  0  0  0
 60133  1  0  0  0
 61134  1  0  0  0
 61135  1  0  0  0
 61136  1  0  0  0
 62137  1  0  0  0
 62138  1  0  0  0
 62139  1  0  0  0
 63 65  1  0  0  0
 63140  1  0  0  0
 63141  1  0  0  0
 63142  1  0  0  0
 64143  1  0  0  0
 65144  1  0  0  0
 68 80  1  0  0  0
 71 73  2  0  0  0
 71 75  1  0  0  0
 71145  1  0  0  0
 72 74  1  0  0  0
 72 76  2  0  0  0
 72146  1  0  0  0
 73 76  1  0  0  0
 73 77  1  0  0  0
 74 75  2  0  0  0
 74 82  1  0  0  0
 75 84  1  0  0  0
 76 85  1  0  0  0
 77 81  1  0  0  0
 77 83  2  0  0  0
 78147  1  0  0  0
 78148  1  0  0  0
 78149  1  0  0  0
 78 80  1  0  0  0
 79 80  1  0  0  0
 79 83  1  0  0  0
 79150  1  0  0  0
 79151  1  0  0  0
 80152  1  0  0  0
 81153  1  0  0  0
 81154  1  0  0  0
 82155  1  0  0  0
 83156  1  0  0  0
M  CHG  1  83   1
M  ISO  4   1 100  68 101  80 101  82 100
M  END
> <chiral flag>
0

> <version>
0

> <s_m_source_file>
/data/baiqing/PycharmProjects/Reinvent-master-3.2/result/LINK_invent/BTK/process_docking_weight1_custom_product_contain_oxygen_bond_distance_aromatic_linkinvent_7_9_3/rearranged_h_0071.sdf

> <i_m_source_file_index>
90

> <r_mmod_Potential_Energy-OPLS-2005>
-207.681549072266

> <r_mmod_Stretch_Energy-OPLS-2005>
83.8591156005859

> <r_mmod_Bend_Energy-OPLS-2005>
157.785583496094

> <r_mmod_Torsional_Energy-OPLS-2005>
246.113388061523

> <r_mmod_Improper_Torsional_Energy-OPLS-2005>
4.89634132385254

> <r_mmod_Van_der_Waal_Energy-OPLS-2005>
145.85124206543

> <r_mmod_Electrostatic_Energy-OPLS-2005>
-458.457611083984

> <r_mmod_Solvation_Energy-OPLS-2005>
-435.331176757812

> <b_mmod_Minimization_Converged-OPLS-2005>
0

> <r_mmod_RMS_Derivative-OPLS-2005>
2.60108113288879

$$$$
91
                    3D
 Structure written by MMmdl.
164173  0  0  1  0            999 V2000
  -30.6352  -14.7687   20.4369 C   0  0  0  0  0  0
  -30.4190  -12.4685   19.4812 C   0  0  0  0  0  0
  -29.5059  -12.5098   18.2366 C   0  0  0  0  0  0
  -28.0342  -12.3293   18.6520 C   0  0  0  0  0  0
  -27.6350  -13.2421   19.8432 C   0  0  2  0  0  0
  -28.6798  -13.2128   20.9805 C   0  0  0  0  0  0
  -25.2484  -13.8218   20.5713 C   0  0  0  0  0  0
  -24.1789  -13.0446   20.9226 C   0  0  0  0  0  0
  -24.6392  -11.6926   20.8747 C   0  0  0  0  0  0
  -23.9082  -10.4294   21.0401 C   0  0  0  0  0  0
  -24.3632   -9.4215   21.9187 C   0  0  0  0  0  0
  -23.6306   -8.2248   22.0749 C   0  0  0  0  0  0
  -22.4287   -8.0282   21.3543 C   0  0  0  0  0  0
  -21.9923   -9.0256   20.4647 C   0  0  0  0  0  0
  -22.7249  -10.2132   20.3053 C   0  0  0  0  0  0
  -21.6855   -6.0744   22.5282 C   0  0  0  0  0  0
  -21.4013   -6.5650   23.8214 C   0  0  0  0  0  0
  -21.3654   -5.6796   24.9179 C   0  0  0  0  0  0
  -21.6039   -4.3058   24.7228 C   0  0  0  0  0  0
  -21.8817   -3.8154   23.4345 C   0  0  0  0  0  0
  -21.9196   -4.6971   22.3407 C   0  0  0  0  0  0
  -22.7808  -13.5217   21.1897 C   0  0  0  0  0  0
  -22.1660   -4.2159   21.0977 F   0  0  0  0  0  0
  -21.5630   -3.4539   25.7737 F   0  0  0  0  0  0
  -29.9777  -13.5553   20.3910 N   0  0  0  0  0  0
  -26.2908  -12.9447   20.3265 N   0  0  0  0  0  0
  -25.9329  -11.6575   20.5754 N   0  0  0  0  0  0
  -22.0457  -12.8180   22.0435 N   0  0  0  0  0  0
  -25.4190  -15.1949   20.4145 N   0  0  0  0  0  0
  -31.8397  -14.7776   20.1759 O   0  0  0  0  0  0
  -21.6644   -6.8885   21.4241 O   0  0  0  0  0  0
  -22.3485  -14.5533   20.6763 O   0  0  0  0  0  0
  -24.6334  -31.8558   23.2007 C   0  0  0  0  0  0
  -25.9159  -32.4752   23.8341 C   0  0  1  0  0  0
  -27.2036  -27.2343   20.1183 C   0  0  0  0  0  0
  -25.5970  -33.8554   24.2266 N   0  0  0  0  0  0
  -23.4300  -30.4834   21.5443 C   0  0  2  0  0  0
  -24.8747  -28.9389   20.1045 C   0  0  0  0  0  0
  -22.7511  -29.4615   22.4895 C   0  0  0  0  0  0
  -18.0302  -28.1395   22.8495 C   0  0  0  0  0  0
  -24.1491  -36.7254   23.2630 C   0  0  0  0  0  0
  -25.9811  -30.7550   21.3917 C   0  0  0  0  0  0
  -26.0473  -29.3777   20.7316 C   0  0  0  0  0  0
  -27.2096  -28.5342   20.7402 C   0  0  0  0  0  0
  -26.0172  -26.9058   19.4165 C   0  0  0  0  0  0
  -24.8672  -27.7108   19.4366 C   0  0  0  0  0  0
  -23.6479  -29.8278   20.1574 C   0  0  0  0  0  0
  -25.4107  -36.3054   24.0333 C   0  0  1  0  0  0
  -20.5911  -28.3710   23.1258 C   0  0  2  0  0  0
  -20.6795  -26.9421   22.5409 C   0  0  0  0  0  0
  -19.5769  -26.6385   21.5222 C   0  0  0  0  0  0
  -18.1942  -26.7945   22.1613 C   0  0  0  0  0  0
  -19.1553  -28.8865   23.2878 C   0  0  0  0  0  0
  -18.9472  -30.1466   23.8896 C   0  0  0  0  0  0
  -17.6471  -30.6596   24.0567 C   0  0  0  0  0  0
  -25.9073  -34.9437   23.5093 C   0  0  0  0  0  0
  -16.5358  -29.9092   23.6344 C   0  0  0  0  0  0
  -16.7282  -28.6505   23.0366 C   0  0  0  0  0  0
  -26.4520  -31.6578   25.0736 C   0  0  0  0  0  0
  -25.3732  -31.3747   26.1454 C   0  0  0  0  0  0
  -27.0354  -30.2968   24.6262 C   0  0  0  0  0  0
  -27.6101  -32.4306   25.7469 C   0  0  0  0  0  0
  -27.5604  -37.1741   24.8432 C   0  0  0  0  0  0
  -21.4214  -29.3058   22.3635 N   0  0  0  0  0  0
  -26.4249  -37.3789   23.9476 N   0  0  0  0  0  0
  -24.7001  -31.0510   22.0999 N   0  0  0  0  0  0
  -23.4210  -28.8144   23.2985 O   0  0  0  0  0  0
  -28.2625  -26.2842   20.2171 O   0  0  0  0  0  0
  -26.5634  -34.8921   22.4662 O   0  0  0  0  0  0
  -23.5475  -32.1384   23.7290 O   0  0  0  0  0  0
  -31.8328  -18.8858   19.0449 C   0  0  0  0  0  0
  -31.4106  -17.6015   19.4152 C   0  0  0  0  0  0
  -29.5402  -18.6079   20.5818 C   0  0  0  0  0  0
  -31.1364  -20.0495   19.4236 C   0  0  0  0  0  0
  -29.9221  -19.9674   20.1657 C   0  0  0  0  0  0
  -30.2760  -17.3827   20.2283 C   0  0  0  0  0  0
  -29.0574  -22.4079   19.6883 C   0  0  0  0  0  0
  -28.6261  -23.5267   20.3407 C   0  0  0  0  0  0
  -26.6509  -23.5738   23.4778 C   0  0  0  0  0  0
  -28.7656  -21.5681   21.8048 C   0  0  0  0  0  0
  -28.4210  -23.1122   21.7853 C   0  0  2  0  0  0
  -31.7842  -21.3702   19.0277 C   0  0  0  0  0  0
  -25.1774  -23.9058   23.6745 C   0  0  0  0  0  0
  -28.0473  -24.8751   19.6991 C   0  0  0  0  0  0
  -29.1975  -21.2104   20.4469 N   0  0  0  0  0  0
  -29.9144  -15.9633   20.5877 N   0  0  0  0  0  0
  -27.0530  -23.3823   22.2192 N   0  0  0  0  0  0
  -27.4096  -23.5037   24.4456 O   0  0  0  0  0  0
  -31.4634  -12.5677   19.1818 H   0  0  0  0  0  0
  -30.3463  -11.5007   19.9794 H   0  0  0  0  0  0
  -29.7936  -11.7309   17.5295 H   0  0  0  0  0  0
  -29.6294  -13.4598   17.7130 H   0  0  0  0  0  0
  -27.9003  -11.2828   18.9289 H   0  0  0  0  0  0
  -27.3732  -12.5042   17.8019 H   0  0  0  0  0  0
  -27.6177  -14.2573   19.4453 H   0  0  0  0  0  0
  -28.7200  -12.2285   21.4492 H   0  0  0  0  0  0
  -28.4134  -13.9181   21.7689 H   0  0  0  0  0  0
  -25.2778   -9.5697   22.4764 H   0  0  0  0  0  0
  -24.0023   -7.4633   22.7459 H   0  0  0  0  0  0
  -21.0862   -8.8776   19.8949 H   0  0  0  0  0  0
  -22.3719  -10.9673   19.6161 H   0  0  0  0  0  0
  -21.1994   -7.6157   23.9725 H   0  0  0  0  0  0
  -21.1474   -6.0525   25.9081 H   0  0  0  0  0  0
  -22.0598   -2.7614   23.2839 H   0  0  0  0  0  0
  -22.4073  -11.9834   22.4805 H   0  0  0  0  0  0
  -21.1077  -13.1183   22.2653 H   0  0  0  0  0  0
  -24.6533  -15.8517   20.5260 H   0  0  0  0  0  0
  -26.2683  -15.6301   20.0770 H   0  0  0  0  0  0
  -26.7225  -32.5392   23.1077 H   0  0  0  0  0  0
  -25.0154  -33.9700   25.0437 H   0  0  0  0  0  0
  -22.7276  -31.3078   21.4025 H   0  0  0  0  0  0
  -23.3808  -35.9523   23.3159 H   0  0  0  0  0  0
  -24.3627  -36.9002   22.2076 H   0  0  0  0  0  0
  -23.7157  -37.6377   23.6733 H   0  0  0  0  0  0
  -26.1329  -31.5132   20.6223 H   0  0  0  0  0  0
  -26.8553  -30.7964   22.0291 H   0  0  0  0  0  0
  -28.0959  -28.8586   21.2673 H   0  0  0  0  0  0
  -25.9152  -26.0087   18.8293 H   0  0  0  0  0  0
  -23.9800  -27.3830   18.9119 H   0  0  0  0  0  0
  -23.7702  -30.6092   19.4062 H   0  0  0  0  0  0
  -22.7659  -29.2631   19.8502 H   0  0  0  0  0  0
  -25.1267  -36.1866   25.0815 H   0  0  0  0  0  0
  -21.0010  -28.3298   24.1372 H   0  0  0  0  0  0
  -20.5685  -26.2328   23.3630 H   0  0  0  0  0  0
  -21.6661  -26.7445   22.1201 H   0  0  0  0  0  0
  -19.6927  -25.6292   21.1252 H   0  0  0  0  0  0
  -19.6706  -27.3197   20.6752 H   0  0  0  0  0  0
  -17.4219  -26.6723   21.4008 H   0  0  0  0  0  0
  -18.0313  -26.0073   22.8992 H   0  0  0  0  0  0
  -19.7944  -30.7294   24.2256 H   0  0  0  0  0  0
  -17.5022  -31.6282   24.5171 H   0  0  0  0  0  0
  -15.5358  -30.2995   23.7681 H   0  0  0  0  0  0
  -15.8683  -28.0827   22.7087 H   0  0  0  0  0  0
  -24.5932  -30.7069   25.7790 H   0  0  0  0  0  0
  -24.8897  -32.2913   26.4845 H   0  0  0  0  0  0
  -25.8038  -30.8956   27.0254 H   0  0  0  0  0  0
  -26.2937  -29.6710   24.1291 H   0  0  0  0  0  0
  -27.3993  -29.7264   25.4818 H   0  0  0  0  0  0
  -27.8851  -30.4188   23.9542 H   0  0  0  0  0  0
  -27.2762  -33.3670   26.1949 H   0  0  0  0  0  0
  -28.3950  -32.6746   25.0298 H   0  0  0  0  0  0
  -28.0720  -31.8473   26.5442 H   0  0  0  0  0  0
  -28.2466  -38.0193   24.7726 H   0  0  0  0  0  0
  -28.1251  -36.2751   24.5910 H   0  0  0  0  0  0
  -27.2386  -37.0958   25.8834 H   0  0  0  0  0  0
  -20.9393  -29.8772   21.6834 H   0  0  0  0  0  0
  -26.0097  -38.2811   24.1640 H   0  0  0  0  0  0
  -32.7331  -18.9708   18.4517 H   0  0  0  0  0  0
  -32.0135  -16.7913   19.0394 H   0  0  0  0  0  0
  -28.6394  -18.5037   21.1693 H   0  0  0  0  0  0
  -29.1607  -22.3162   18.6153 H   0  0  0  0  0  0
  -27.9005  -20.9670   22.0885 H   0  0  0  0  0  0
  -29.5594  -21.3633   22.5246 H   0  0  0  0  0  0
  -29.1292  -23.6760   22.3967 H   0  0  0  0  0  0
  -32.8433  -21.2400   18.8050 H   0  0  0  0  0  0
  -31.7251  -22.1002   19.8354 H   0  0  0  0  0  0
  -31.3136  -21.7811   18.1355 H   0  0  0  0  0  0
  -24.5475  -23.2424   23.0801 H   0  0  0  0  0  0
  -24.9798  -24.9348   23.3697 H   0  0  0  0  0  0
  -24.8887  -23.7985   24.7205 H   0  0  0  0  0  0
  -26.9941  -24.6238   19.7606 H   0  0  0  0  0  0
  -28.3024  -24.8788   18.6389 H   0  0  0  0  0  0
  -28.9630  -15.8291   20.8946 H   0  0  0  0  0  0
  -26.3492  -23.4312   21.4955 H   0  0  0  0  0  0
  1 25  1  0  0  0
  1 30  2  0  0  0
  1 86  1  0  0  0
  2  3  1  0  0  0
  2 25  1  0  0  0
  2 89  1  0  0  0
  2 90  1  0  0  0
  3  4  1  0  0  0
  3 91  1  0  0  0
  3 92  1  0  0  0
  4  5  1  0  0  0
  4 93  1  0  0  0
  4 94  1  0  0  0
  5  6  1  0  0  0
  5 26  1  0  0  0
  5 95  1  0  0  0
  6 25  1  0  0  0
  6 96  1  0  0  0
  6 97  1  0  0  0
  7  8  2  0  0  0
  7 26  1  0  0  0
  7 29  1  0  0  0
  8  9  1  0  0  0
  8 22  1  0  0  0
  9 10  1  0  0  0
  9 27  2  0  0  0
 10 11  2  0  0  0
 10 15  1  0  0  0
 11 12  1  0  0  0
 11 98  1  0  0  0
 12 13  2  0  0  0
 12 99  1  0  0  0
 13 14  1  0  0  0
 13 31  1  0  0  0
 14 15  2  0  0  0
 14100  1  0  0  0
 15101  1  0  0  0
 16 17  2  0  0  0
 16 21  1  0  0  0
 16 31  1  0  0  0
 17 18  1  0  0  0
 17102  1  0  0  0
 18 19  2  0  0  0
 18103  1  0  0  0
 19 20  1  0  0  0
 19 24  1  0  0  0
 20 21  2  0  0  0
 20104  1  0  0  0
 21 23  1  0  0  0
 22 28  1  0  0  0
 22 32  2  0  0  0
 26 27  1  0  0  0
 28105  1  0  0  0
 28106  1  0  0  0
 29107  1  0  0  0
 29108  1  0  0  0
 33 34  1  0  0  0
 33 66  1  0  0  0
 33 70  2  0  0  0
 34 36  1  0  0  0
 34 59  1  0  0  0
 34109  1  0  0  0
 35 44  2  0  0  0
 35 45  1  0  0  0
 35 68  1  0  0  0
 36 56  1  0  0  0
 36110  1  0  0  0
 37 39  1  0  0  0
 37 47  1  0  0  0
 37 66  1  0  0  0
 37111  1  0  0  0
 38 43  2  0  0  0
 38 46  1  0  0  0
 38 47  1  0  0  0
 39 64  1  0  0  0
 39 67  2  0  0  0
 40 52  1  0  0  0
 40 53  2  0  0  0
 40 58  1  0  0  0
 41112  1  0  0  0
 41113  1  0  0  0
 41114  1  0  0  0
 41 48  1  0  0  0
 42 43  1  0  0  0
 42 66  1  0  0  0
 42115  1  0  0  0
 42116  1  0  0  0
 43 44  1  0  0  0
 44117  1  0  0  0
 45 46  2  0  0  0
 45118  1  0  0  0
 46119  1  0  0  0
 47120  1  0  0  0
 47121  1  0  0  0
 48 56  1  0  0  0
 48 65  1  0  0  0
 48122  1  0  0  0
 49 50  1  0  0  0
 49 53  1  0  0  0
 49 64  1  0  0  0
 49123  1  0  0  0
 50 51  1  0  0  0
 50124  1  0  0  0
 50125  1  0  0  0
 51 52  1  0  0  0
 51126  1  0  0  0
 51127  1  0  0  0
 52128  1  0  0  0
 52129  1  0  0  0
 53 54  1  0  0  0
 54 55  2  0  0  0
 54130  1  0  0  0
 55 57  1  0  0  0
 55131  1  0  0  0
 56 69  2  0  0  0
 57 58  2  0  0  0
 57132  1  0  0  0
 58133  1  0  0  0
 59 60  1  0  0  0
 59 61  1  0  0  0
 59 62  1  0  0  0
 60134  1  0  0  0
 60135  1  0  0  0
 60136  1  0  0  0
 61137  1  0  0  0
 61138  1  0  0  0
 61139  1  0  0  0
 62140  1  0  0  0
 62141  1  0  0  0
 62142  1  0  0  0
 63 65  1  0  0  0
 63143  1  0  0  0
 63144  1  0  0  0
 63145  1  0  0  0
 64146  1  0  0  0
 65147  1  0  0  0
 68 84  1  0  0  0
 71 72  2  0  0  0
 71 74  1  0  0  0
 71148  1  0  0  0
 72 76  1  0  0  0
 72149  1  0  0  0
 73 75  1  0  0  0
 73 76  2  0  0  0
 73150  1  0  0  0
 74 75  2  0  0  0
 74 82  1  0  0  0
 75 85  1  0  0  0
 76 86  1  0  0  0
 77 78  2  0  0  0
 77 85  1  0  0  0
 77151  1  0  0  0
 78 81  1  0  0  0
 78 84  1  0  0  0
 79 83  1  0  0  0
 79 87  1  0  0  0
 79 88  2  0  0  0
 80 81  1  0  0  0
 80 85  1  0  0  0
 80152  1  0  0  0
 80153  1  0  0  0
 81 87  1  0  0  0
 81154  1  0  0  0
 82155  1  0  0  0
 82156  1  0  0  0
 82157  1  0  0  0
 83158  1  0  0  0
 83159  1  0  0  0
 83160  1  0  0  0
 84161  1  0  0  0
 84162  1  0  0  0
 86163  1  0  0  0
 87164  1  0  0  0
M  ISO  4   1 100  68 101  84 101  86 100
M  END
> <chiral flag>
0

> <version>
0

> <s_m_source_file>
/data/baiqing/PycharmProjects/Reinvent-master-3.2/result/LINK_invent/BTK/process_docking_weight1_custom_product_contain_oxygen_bond_distance_aromatic_linkinvent_7_9_3/rearranged_h_0071.sdf

> <i_m_source_file_index>
91

> <r_mmod_Potential_Energy-OPLS-2005>
223.882553100586

> <r_mmod_Stretch_Energy-OPLS-2005>
142.270538330078

> <r_mmod_Bend_Energy-OPLS-2005>
250.730529785156

> <r_mmod_Torsional_Energy-OPLS-2005>
237.517547607422

> <r_mmod_Improper_Torsional_Energy-OPLS-2005>
5.98832273483276

> <r_mmod_Van_der_Waal_Energy-OPLS-2005>
153.283020019531

> <r_mmod_Electrostatic_Energy-OPLS-2005>
-438.565002441406

> <r_mmod_Solvation_Energy-OPLS-2005>
-234.3544921875

> <b_mmod_Minimization_Converged-OPLS-2005>
0

> <r_mmod_RMS_Derivative-OPLS-2005>
1.78843903541565

$$$$
92
                    3D
 Structure written by MMmdl.
155163  0  0  1  0            999 V2000
  -30.7065  -14.4868   20.5783 C   0  0  0  0  0  0
  -30.4228  -12.3159   19.4314 C   0  0  0  0  0  0
  -29.4958  -12.4977   18.2115 C   0  0  0  0  0  0
  -28.0181  -12.3568   18.6240 C   0  0  0  0  0  0
  -27.6602  -13.2077   19.8718 C   0  0  2  0  0  0
  -28.7010  -13.0066   20.9972 C   0  0  0  0  0  0
  -25.2589  -13.8173   20.5677 C   0  0  0  0  0  0
  -24.1839  -13.0444   20.9164 C   0  0  0  0  0  0
  -24.6399  -11.6911   20.8738 C   0  0  0  0  0  0
  -23.9069  -10.4294   21.0417 C   0  0  0  0  0  0
  -24.3618   -9.4204   21.9192 C   0  0  0  0  0  0
  -23.6290   -8.2242   22.0757 C   0  0  0  0  0  0
  -22.4273   -8.0283   21.3545 C   0  0  0  0  0  0
  -21.9916   -9.0258   20.4647 C   0  0  0  0  0  0
  -22.7250  -10.2134   20.3061 C   0  0  0  0  0  0
  -21.6848   -6.0738   22.5279 C   0  0  0  0  0  0
  -21.4009   -6.5640   23.8210 C   0  0  0  0  0  0
  -21.3655   -5.6794   24.9173 C   0  0  0  0  0  0
  -21.6044   -4.3057   24.7226 C   0  0  0  0  0  0
  -21.8818   -3.8150   23.4346 C   0  0  0  0  0  0
  -21.9190   -4.6967   22.3403 C   0  0  0  0  0  0
  -22.7860  -13.5238   21.1829 C   0  0  0  0  0  0
  -22.1660   -4.2155   21.0980 F   0  0  0  0  0  0
  -21.5630   -3.4539   25.7736 F   0  0  0  0  0  0
  -30.0321  -13.3102   20.4452 N   0  0  0  0  0  0
  -26.3021  -12.9336   20.3356 N   0  0  0  0  0  0
  -25.9322  -11.6497   20.5769 N   0  0  0  0  0  0
  -22.0500  -12.8226   22.0382 N   0  0  0  0  0  0
  -25.4334  -15.1890   20.4103 N   0  0  0  0  0  0
  -31.8176  -14.6666   20.0738 O   0  0  0  0  0  0
  -21.6635   -6.8884   21.4243 O   0  0  0  0  0  0
  -22.3543  -14.5548   20.6689 O   0  0  0  0  0  0
  -24.6167  -31.8662   23.2076 C   0  0  0  0  0  0
  -25.9055  -32.4814   23.8379 C   0  0  1  0  0  0
  -27.2355  -27.4218   20.1002 C   0  0  0  0  0  0
  -25.5905  -33.8610   24.2312 N   0  0  0  0  0  0
  -23.4055  -30.4885   21.5482 C   0  0  2  0  0  0
  -24.8545  -28.9530   20.1134 C   0  0  0  0  0  0
  -22.7419  -29.4652   22.4978 C   0  0  0  0  0  0
  -18.0271  -28.1374   22.8493 C   0  0  0  0  0  0
  -24.1488  -36.7298   23.2642 C   0  0  0  0  0  0
  -25.9356  -30.8289   21.3624 C   0  0  0  0  0  0
  -26.0159  -29.4625   20.7090 C   0  0  0  0  0  0
  -27.2131  -28.7050   20.6971 C   0  0  0  0  0  0
  -26.0598  -26.9323   19.4939 C   0  0  0  0  0  0
  -24.8719  -27.6877   19.5018 C   0  0  0  0  0  0
  -23.6145  -29.8190   20.1642 C   0  0  0  0  0  0
  -25.4112  -36.3095   24.0341 C   0  0  1  0  0  0
  -20.5870  -28.3668   23.1315 C   0  0  2  0  0  0
  -20.6769  -26.9406   22.5414 C   0  0  0  0  0  0
  -19.5742  -26.6385   21.5213 C   0  0  0  0  0  0
  -18.1914  -26.7925   22.1619 C   0  0  0  0  0  0
  -19.1525  -28.8838   23.2897 C   0  0  0  0  0  0
  -18.9462  -30.1446   23.8908 C   0  0  0  0  0  0
  -17.6467  -30.6588   24.0569 C   0  0  0  0  0  0
  -25.9039  -34.9469   23.5123 C   0  0  0  0  0  0
  -16.5352  -29.9092   23.6335 C   0  0  0  0  0  0
  -16.7264  -28.6506   23.0361 C   0  0  0  0  0  0
  -26.4479  -31.6591   25.0708 C   0  0  0  0  0  0
  -25.3735  -31.3701   26.1451 C   0  0  0  0  0  0
  -27.0337  -30.3044   24.6086 C   0  0  0  0  0  0
  -27.6051  -32.4314   25.7479 C   0  0  0  0  0  0
  -27.5576  -37.1804   24.8470 C   0  0  0  0  0  0
  -21.4146  -29.3030   22.3715 N   0  0  0  0  0  0
  -26.4294  -37.3784   23.9413 N   0  0  0  0  0  0
  -24.6708  -31.0755   22.0980 N   0  0  0  0  0  0
  -23.4182  -28.8193   23.3029 O   0  0  0  0  0  0
  -28.3680  -26.6331   20.1157 O   0  0  0  0  0  0
  -26.5602  -34.8922   22.4683 O   0  0  0  0  0  0
  -23.5357  -32.1421   23.7460 O   0  0  0  0  0  0
  -31.0972  -19.6053   21.5738 C   0  0  0  0  0  0
  -32.0540  -18.6004   21.8158 C   0  0  0  0  0  0
  -29.7791  -19.2682   21.1935 C   0  0  0  0  0  0
  -30.4165  -16.8662   21.2722 C   0  0  0  0  0  0
  -31.7175  -17.2405   21.6900 C   0  0  0  0  0  0
  -29.4530  -17.8852   21.0390 C   0  0  0  0  0  0
  -28.7726  -20.3559   21.0678 C   0  0  0  0  0  0
  -28.8355  -24.1647   20.3302 C   0  0  0  0  0  0
  -28.2010  -22.8218   20.7582 C   0  0  0  0  0  0
  -28.2127  -25.4483   20.9323 C   0  0  0  0  0  0
  -30.0193  -15.4913   21.1587 N   0  0  0  0  0  0
  -29.0937  -21.6242   20.7126 N   0  0  0  0  0  0
  -27.5004  -20.1093   21.3793 N   0  3  0  0  0  0
  -29.8106  -24.1929   19.5690 O   0  0  0  0  0  0
  -32.6407  -16.3088   22.0337 F   0  0  0  0  0  0
  -28.1924  -17.5110   20.6980 F   0  0  0  0  0  0
  -31.4674  -12.4126   19.1301 H   0  0  0  0  0  0
  -30.3262  -11.3089   19.8407 H   0  0  0  0  0  0
  -29.7405  -11.7628   17.4434 H   0  0  0  0  0  0
  -29.6603  -13.4781   17.7617 H   0  0  0  0  0  0
  -27.8356  -11.3018   18.8318 H   0  0  0  0  0  0
  -27.3667  -12.6179   17.7893 H   0  0  0  0  0  0
  -27.6996  -14.2525   19.5618 H   0  0  0  0  0  0
  -28.6789  -11.9750   21.3521 H   0  0  0  0  0  0
  -28.4549  -13.6180   21.8660 H   0  0  0  0  0  0
  -25.2763   -9.5667   22.4767 H   0  0  0  0  0  0
  -23.9995   -7.4628   22.7469 H   0  0  0  0  0  0
  -21.0853   -8.8783   19.8943 H   0  0  0  0  0  0
  -22.3726  -10.9676   19.6162 H   0  0  0  0  0  0
  -21.1998   -7.6145   23.9720 H   0  0  0  0  0  0
  -21.1479   -6.0519   25.9075 H   0  0  0  0  0  0
  -22.0602   -2.7613   23.2844 H   0  0  0  0  0  0
  -22.4108  -11.9870   22.4748 H   0  0  0  0  0  0
  -21.1121  -13.1254   22.2595 H   0  0  0  0  0  0
  -24.6679  -15.8448   20.5191 H   0  0  0  0  0  0
  -26.2907  -15.6338   20.1070 H   0  0  0  0  0  0
  -26.7129  -32.5527   23.1146 H   0  0  0  0  0  0
  -25.0075  -33.9771   25.0474 H   0  0  0  0  0  0
  -22.6944  -31.3053   21.4068 H   0  0  0  0  0  0
  -23.3747  -35.9629   23.3317 H   0  0  0  0  0  0
  -24.3575  -36.8898   22.2049 H   0  0  0  0  0  0
  -23.7246  -37.6509   23.6654 H   0  0  0  0  0  0
  -26.0478  -31.5947   20.5936 H   0  0  0  0  0  0
  -26.8224  -30.8822   21.9817 H   0  0  0  0  0  0
  -28.1089  -29.0897   21.1647 H   0  0  0  0  0  0
  -26.0592  -25.9598   19.0222 H   0  0  0  0  0  0
  -23.9800  -27.2890   19.0381 H   0  0  0  0  0  0
  -23.7181  -30.5921   19.4025 H   0  0  0  0  0  0
  -22.7395  -29.2364   19.8705 H   0  0  0  0  0  0
  -25.1286  -36.1957   25.0834 H   0  0  0  0  0  0
  -20.9959  -28.3243   24.1439 H   0  0  0  0  0  0
  -20.5691  -26.2276   23.3598 H   0  0  0  0  0  0
  -21.6636  -26.7452   22.1196 H   0  0  0  0  0  0
  -19.6914  -25.6300   21.1229 H   0  0  0  0  0  0
  -19.6692  -27.3211   20.6756 H   0  0  0  0  0  0
  -17.4193  -26.6690   21.4008 H   0  0  0  0  0  0
  -18.0298  -26.0050   22.8995 H   0  0  0  0  0  0
  -19.7945  -30.7248   24.2277 H   0  0  0  0  0  0
  -17.5030  -31.6274   24.5160 H   0  0  0  0  0  0
  -15.5359  -30.3006   23.7661 H   0  0  0  0  0  0
  -15.8658  -28.0836   22.7083 H   0  0  0  0  0  0
  -24.5910  -30.7055   25.7772 H   0  0  0  0  0  0
  -24.8932  -32.2862   26.4897 H   0  0  0  0  0  0
  -25.8066  -30.8861   27.0213 H   0  0  0  0  0  0
  -26.2893  -29.6775   24.1167 H   0  0  0  0  0  0
  -27.4159  -29.7306   25.4538 H   0  0  0  0  0  0
  -27.8691  -30.4383   23.9210 H   0  0  0  0  0  0
  -27.2680  -33.3623   26.2050 H   0  0  0  0  0  0
  -28.3870  -32.6854   25.0309 H   0  0  0  0  0  0
  -28.0705  -31.8437   26.5401 H   0  0  0  0  0  0
  -28.2597  -38.0092   24.7509 H   0  0  0  0  0  0
  -28.1065  -36.2628   24.6312 H   0  0  0  0  0  0
  -27.2286  -37.1468   25.8867 H   0  0  0  0  0  0
  -20.9302  -29.8759   21.6947 H   0  0  0  0  0  0
  -26.0179  -38.2861   24.1404 H   0  0  0  0  0  0
  -31.3788  -20.6374   21.7242 H   0  0  0  0  0  0
  -33.0491  -18.8711   22.1370 H   0  0  0  0  0  0
  -27.3326  -22.6529   20.1206 H   0  0  0  0  0  0
  -27.8270  -22.9417   21.7756 H   0  0  0  0  0  0
  -28.7016  -25.6346   21.8889 H   0  0  0  0  0  0
  -27.1649  -25.2491   21.1588 H   0  0  0  0  0  0
  -29.0617  -15.2879   21.3948 H   0  0  0  0  0  0
  -30.0321  -21.8105   20.3753 H   0  0  0  0  0  0
  -27.2352  -19.1492   21.5580 H   0  0  0  0  0  0
  -26.7753  -20.8022   21.3288 H   0  0  0  0  0  0
  1 25  1  0  0  0
  1 30  2  0  0  0
  1 81  1  0  0  0
  2  3  1  0  0  0
  2 25  1  0  0  0
  2 87  1  0  0  0
  2 88  1  0  0  0
  3  4  1  0  0  0
  3 89  1  0  0  0
  3 90  1  0  0  0
  4  5  1  0  0  0
  4 91  1  0  0  0
  4 92  1  0  0  0
  5  6  1  0  0  0
  5 26  1  0  0  0
  5 93  1  0  0  0
  6 25  1  0  0  0
  6 94  1  0  0  0
  6 95  1  0  0  0
  7  8  2  0  0  0
  7 26  1  0  0  0
  7 29  1  0  0  0
  8  9  1  0  0  0
  8 22  1  0  0  0
  9 10  1  0  0  0
  9 27  2  0  0  0
 10 11  2  0  0  0
 10 15  1  0  0  0
 11 12  1  0  0  0
 11 96  1  0  0  0
 12 13  2  0  0  0
 12 97  1  0  0  0
 13 14  1  0  0  0
 13 31  1  0  0  0
 14 15  2  0  0  0
 14 98  1  0  0  0
 15 99  1  0  0  0
 16 17  2  0  0  0
 16 21  1  0  0  0
 16 31  1  0  0  0
 17 18  1  0  0  0
 17100  1  0  0  0
 18 19  2  0  0  0
 18101  1  0  0  0
 19 20  1  0  0  0
 19 24  1  0  0  0
 20 21  2  0  0  0
 20102  1  0  0  0
 21 23  1  0  0  0
 22 28  1  0  0  0
 22 32  2  0  0  0
 26 27  1  0  0  0
 28103  1  0  0  0
 28104  1  0  0  0
 29105  1  0  0  0
 29106  1  0  0  0
 33 34  1  0  0  0
 33 66  1  0  0  0
 33 70  2  0  0  0
 34 36  1  0  0  0
 34 59  1  0  0  0
 34107  1  0  0  0
 35 44  2  0  0  0
 35 45  1  0  0  0
 35 68  1  0  0  0
 36 56  1  0  0  0
 36108  1  0  0  0
 37 39  1  0  0  0
 37 47  1  0  0  0
 37 66  1  0  0  0
 37109  1  0  0  0
 38 43  2  0  0  0
 38 46  1  0  0  0
 38 47  1  0  0  0
 39 64  1  0  0  0
 39 67  2  0  0  0
 40 52  1  0  0  0
 40 53  2  0  0  0
 40 58  1  0  0  0
 41110  1  0  0  0
 41111  1  0  0  0
 41112  1  0  0  0
 41 48  1  0  0  0
 42 43  1  0  0  0
 42 66  1  0  0  0
 42113  1  0  0  0
 42114  1  0  0  0
 43 44  1  0  0  0
 44115  1  0  0  0
 45 46  2  0  0  0
 45116  1  0  0  0
 46117  1  0  0  0
 47118  1  0  0  0
 47119  1  0  0  0
 48 56  1  0  0  0
 48 65  1  0  0  0
 48120  1  0  0  0
 49 50  1  0  0  0
 49 53  1  0  0  0
 49 64  1  0  0  0
 49121  1  0  0  0
 50 51  1  0  0  0
 50122  1  0  0  0
 50123  1  0  0  0
 51 52  1  0  0  0
 51124  1  0  0  0
 51125  1  0  0  0
 52126  1  0  0  0
 52127  1  0  0  0
 53 54  1  0  0  0
 54 55  2  0  0  0
 54128  1  0  0  0
 55 57  1  0  0  0
 55129  1  0  0  0
 56 69  2  0  0  0
 57 58  2  0  0  0
 57130  1  0  0  0
 58131  1  0  0  0
 59 60  1  0  0  0
 59 61  1  0  0  0
 59 62  1  0  0  0
 60132  1  0  0  0
 60133  1  0  0  0
 60134  1  0  0  0
 61135  1  0  0  0
 61136  1  0  0  0
 61137  1  0  0  0
 62138  1  0  0  0
 62139  1  0  0  0
 62140  1  0  0  0
 63 65  1  0  0  0
 63141  1  0  0  0
 63142  1  0  0  0
 63143  1  0  0  0
 64144  1  0  0  0
 65145  1  0  0  0
 68 80  1  0  0  0
 71 72  2  0  0  0
 71 73  1  0  0  0
 71146  1  0  0  0
 72 75  1  0  0  0
 72147  1  0  0  0
 73 76  2  0  0  0
 73 77  1  0  0  0
 74 75  2  0  0  0
 74 76  1  0  0  0
 74 81  1  0  0  0
 75 85  1  0  0  0
 76 86  1  0  0  0
 77 82  1  0  0  0
 77 83  2  0  0  0
 78 79  1  0  0  0
 78 80  1  0  0  0
 78 84  2  0  0  0
 79 82  1  0  0  0
 79148  1  0  0  0
 79149  1  0  0  0
 80150  1  0  0  0
 80151  1  0  0  0
 81152  1  0  0  0
 82153  1  0  0  0
 83154  1  0  0  0
 83155  1  0  0  0
M  CHG  1  83   1
M  ISO  4   1 100  68 101  80 101  81 100
M  END
> <chiral flag>
0

> <version>
0

> <s_m_source_file>
/data/baiqing/PycharmProjects/Reinvent-master-3.2/result/LINK_invent/BTK/process_docking_weight1_custom_product_contain_oxygen_bond_distance_aromatic_linkinvent_7_9_3/rearranged_h_0071.sdf

> <i_m_source_file_index>
92

> <r_mmod_Potential_Energy-OPLS-2005>
-348.727874755859

> <r_mmod_Stretch_Energy-OPLS-2005>
43.4041519165039

> <r_mmod_Bend_Energy-OPLS-2005>
95.2007675170898

> <r_mmod_Torsional_Energy-OPLS-2005>
239.997467041016

> <r_mmod_Improper_Torsional_Energy-OPLS-2005>
4.69577980041504

> <r_mmod_Van_der_Waal_Energy-OPLS-2005>
157.883102416992

> <r_mmod_Electrostatic_Energy-OPLS-2005>
-445.574310302734

> <r_mmod_Solvation_Energy-OPLS-2005>
-459.261840820312

> <b_mmod_Minimization_Converged-OPLS-2005>
0

> <r_mmod_RMS_Derivative-OPLS-2005>
1.32870578765869

$$$$
93
                    3D
 Structure written by MMmdl.
153161  0  0  1  0            999 V2000
  -30.7111  -14.4914   20.5863 C   0  0  0  0  0  0
  -30.4254  -12.3209   19.4351 C   0  0  0  0  0  0
  -29.5008  -12.4995   18.2133 C   0  0  0  0  0  0
  -28.0227  -12.3494   18.6241 C   0  0  0  0  0  0
  -27.6582  -13.2074   19.8651 C   0  0  2  0  0  0
  -28.6990  -13.0172   20.9926 C   0  0  0  0  0  0
  -25.2589  -13.8162   20.5685 C   0  0  0  0  0  0
  -24.1837  -13.0436   20.9194 C   0  0  0  0  0  0
  -24.6374  -11.6901   20.8706 C   0  0  0  0  0  0
  -23.9035  -10.4291   21.0375 C   0  0  0  0  0  0
  -24.3587   -9.4222   21.9166 C   0  0  0  0  0  0
  -23.6277   -8.2253   22.0741 C   0  0  0  0  0  0
  -22.4267   -8.0272   21.3537 C   0  0  0  0  0  0
  -21.9888   -9.0235   20.4640 C   0  0  0  0  0  0
  -22.7197  -10.2124   20.3046 C   0  0  0  0  0  0
  -21.6846   -6.0733   22.5274 C   0  0  0  0  0  0
  -21.4015   -6.5635   23.8209 C   0  0  0  0  0  0
  -21.3664   -5.6788   24.9173 C   0  0  0  0  0  0
  -21.6049   -4.3050   24.7224 C   0  0  0  0  0  0
  -21.8820   -3.8142   23.4342 C   0  0  0  0  0  0
  -21.9191   -4.6960   22.3398 C   0  0  0  0  0  0
  -22.7862  -13.5244   21.1852 C   0  0  0  0  0  0
  -22.1663   -4.2140   21.0974 F   0  0  0  0  0  0
  -21.5630   -3.4535   25.7738 F   0  0  0  0  0  0
  -30.0310  -13.3196   20.4412 N   0  0  0  0  0  0
  -26.2992  -12.9321   20.3297 N   0  0  0  0  0  0
  -25.9293  -11.6480   20.5714 N   0  0  0  0  0  0
  -22.0482  -12.8247   22.0398 N   0  0  0  0  0  0
  -25.4349  -15.1885   20.4137 N   0  0  0  0  0  0
  -31.8489  -14.6606   20.1391 O   0  0  0  0  0  0
  -21.6645   -6.8864   21.4233 O   0  0  0  0  0  0
  -22.3535  -14.5552   20.6693 O   0  0  0  0  0  0
  -24.6198  -31.8677   23.2110 C   0  0  0  0  0  0
  -25.9092  -32.4814   23.8412 C   0  0  1  0  0  0
  -27.2211  -27.4052   20.0828 C   0  0  0  0  0  0
  -25.5941  -33.8604   24.2331 N   0  0  0  0  0  0
  -23.4060  -30.4977   21.5527 C   0  0  2  0  0  0
  -24.8478  -28.9729   20.1080 C   0  0  0  0  0  0
  -22.7429  -29.4661   22.4953 C   0  0  0  0  0  0
  -18.0268  -28.1383   22.8480 C   0  0  0  0  0  0
  -24.1494  -36.7310   23.2632 C   0  0  0  0  0  0
  -25.9419  -30.8254   21.3694 C   0  0  0  0  0  0
  -26.0142  -29.4607   20.7100 C   0  0  0  0  0  0
  -27.2026  -28.6856   20.6952 C   0  0  0  0  0  0
  -26.0293  -26.9636   19.4521 C   0  0  0  0  0  0
  -24.8516  -27.7234   19.4767 C   0  0  0  0  0  0
  -23.6139  -29.8444   20.1627 C   0  0  0  0  0  0
  -25.4110  -36.3089   24.0333 C   0  0  1  0  0  0
  -20.5864  -28.3672   23.1302 C   0  0  2  0  0  0
  -20.6762  -26.9406   22.5404 C   0  0  0  0  0  0
  -19.5743  -26.6392   21.5197 C   0  0  0  0  0  0
  -18.1917  -26.7929   22.1618 C   0  0  0  0  0  0
  -19.1523  -28.8842   23.2888 C   0  0  0  0  0  0
  -18.9455  -30.1446   23.8904 C   0  0  0  0  0  0
  -17.6457  -30.6583   24.0567 C   0  0  0  0  0  0
  -25.9044  -34.9461   23.5116 C   0  0  0  0  0  0
  -16.5346  -29.9092   23.6328 C   0  0  0  0  0  0
  -16.7255  -28.6510   23.0342 C   0  0  0  0  0  0
  -26.4492  -31.6576   25.0744 C   0  0  0  0  0  0
  -25.3773  -31.3691   26.1506 C   0  0  0  0  0  0
  -27.0295  -30.3008   24.6119 C   0  0  0  0  0  0
  -27.6058  -32.4282   25.7521 C   0  0  0  0  0  0
  -27.5561  -37.1819   24.8464 C   0  0  0  0  0  0
  -21.4148  -29.3051   22.3714 N   0  0  0  0  0  0
  -26.4288  -37.3786   23.9394 N   0  0  0  0  0  0
  -24.6739  -31.0774   22.1020 N   0  0  0  0  0  0
  -23.4199  -28.8175   23.2972 O   0  0  0  0  0  0
  -28.3643  -26.6095   20.1242 O   0  0  0  0  0  0
  -26.5591  -34.8912   22.4674 O   0  0  0  0  0  0
  -23.5382  -32.1412   23.7500 O   0  0  0  0  0  0
  -29.6206  -17.9127   20.6466 C   0  0  0  0  0  0
  -31.1708  -19.6147   21.4434 C   0  0  0  0  0  0
  -31.5781  -17.2476   21.9283 C   0  0  0  0  0  0
  -29.9941  -19.2863   20.7287 C   0  0  0  0  0  0
  -30.4128  -16.8850   21.2165 C   0  0  0  0  0  0
  -31.9452  -18.6041   22.0476 C   0  0  0  0  0  0
  -29.1775  -20.3409   20.0010 C   0  0  0  0  0  0
  -28.8617  -22.7379   19.6684 C   0  0  0  0  0  0
  -29.2499  -24.1655   20.1522 C   0  0  0  0  0  0
  -28.1865  -25.2219   19.7354 C   0  0  0  0  0  0
  -30.0018  -15.5164   21.1062 N   0  0  0  0  0  0
  -29.4187  -21.6523   20.2682 N   0  0  0  0  0  0
  -28.3212  -19.9454   19.2001 O   0  0  0  0  0  0
  -28.0468  -22.6532   18.7400 O   0  0  0  0  0  0
  -33.0619  -18.9385   22.7386 F   0  0  0  0  0  0
  -31.4714  -12.4165   19.1396 H   0  0  0  0  0  0
  -30.3249  -11.3170   19.8502 H   0  0  0  0  0  0
  -29.7526  -11.7683   17.4436 H   0  0  0  0  0  0
  -29.6628  -13.4822   17.7653 H   0  0  0  0  0  0
  -27.8491  -11.2939   18.8412 H   0  0  0  0  0  0
  -27.3705  -12.5962   17.7854 H   0  0  0  0  0  0
  -27.6922  -14.2498   19.5454 H   0  0  0  0  0  0
  -28.6786  -11.9896   21.3576 H   0  0  0  0  0  0
  -28.4511  -13.6372   21.8558 H   0  0  0  0  0  0
  -25.2729   -9.5719   22.4738 H   0  0  0  0  0  0
  -23.9999   -7.4650   22.7456 H   0  0  0  0  0  0
  -21.0819   -8.8729   19.8946 H   0  0  0  0  0  0
  -22.3628  -10.9649   19.6153 H   0  0  0  0  0  0
  -21.2005   -7.6143   23.9706 H   0  0  0  0  0  0
  -21.1490   -6.0523   25.9074 H   0  0  0  0  0  0
  -22.0594   -2.7599   23.2843 H   0  0  0  0  0  0
  -22.4090  -11.9916   22.4831 H   0  0  0  0  0  0
  -21.1082  -13.1256   22.2561 H   0  0  0  0  0  0
  -24.6736  -15.8488   20.5354 H   0  0  0  0  0  0
  -26.2877  -15.6219   20.0808 H   0  0  0  0  0  0
  -26.7163  -32.5500   23.1168 H   0  0  0  0  0  0
  -25.0145  -33.9765   25.0508 H   0  0  0  0  0  0
  -22.6960  -31.3164   21.4195 H   0  0  0  0  0  0
  -23.3738  -35.9664   23.3310 H   0  0  0  0  0  0
  -24.3590  -36.8901   22.2041 H   0  0  0  0  0  0
  -23.7262  -37.6533   23.6635 H   0  0  0  0  0  0
  -26.0661  -31.5941   20.6044 H   0  0  0  0  0  0
  -26.8283  -30.8709   21.9915 H   0  0  0  0  0  0
  -28.0988  -29.0560   21.1714 H   0  0  0  0  0  0
  -25.9664  -26.0258   18.9227 H   0  0  0  0  0  0
  -23.9584  -27.3446   18.9994 H   0  0  0  0  0  0
  -23.7294  -30.6295   19.4120 H   0  0  0  0  0  0
  -22.7343  -29.2746   19.8563 H   0  0  0  0  0  0
  -25.1277  -36.1960   25.0830 H   0  0  0  0  0  0
  -20.9957  -28.3238   24.1423 H   0  0  0  0  0  0
  -20.5667  -26.2269   23.3591 H   0  0  0  0  0  0
  -21.6630  -26.7445   22.1196 H   0  0  0  0  0  0
  -19.6906  -25.6307   21.1211 H   0  0  0  0  0  0
  -19.6686  -27.3221   20.6749 H   0  0  0  0  0  0
  -17.4182  -26.6651   21.4030 H   0  0  0  0  0  0
  -18.0335  -26.0071   22.9027 H   0  0  0  0  0  0
  -19.7934  -30.7248   24.2278 H   0  0  0  0  0  0
  -17.5023  -31.6274   24.5173 H   0  0  0  0  0  0
  -15.5348  -30.3014   23.7654 H   0  0  0  0  0  0
  -15.8644  -28.0851   22.7054 H   0  0  0  0  0  0
  -24.6020  -30.6915   25.7908 H   0  0  0  0  0  0
  -24.8897  -32.2842   26.4886 H   0  0  0  0  0  0
  -25.8200  -30.8986   27.0298 H   0  0  0  0  0  0
  -26.2833  -29.6806   24.1147 H   0  0  0  0  0  0
  -27.4003  -29.7204   25.4572 H   0  0  0  0  0  0
  -27.8700  -30.4282   23.9296 H   0  0  0  0  0  0
  -27.2686  -33.3604   26.2064 H   0  0  0  0  0  0
  -28.3930  -32.6785   25.0397 H   0  0  0  0  0  0
  -28.0653  -31.8417   26.5485 H   0  0  0  0  0  0
  -28.2603  -38.0091   24.7474 H   0  0  0  0  0  0
  -28.1033  -36.2618   24.6342 H   0  0  0  0  0  0
  -27.2277  -37.1528   25.8871 H   0  0  0  0  0  0
  -20.9283  -29.8832   21.6999 H   0  0  0  0  0  0
  -26.0164  -38.2861   24.1411 H   0  0  0  0  0  0
  -28.7233  -17.6400   20.1062 H   0  0  0  0  0  0
  -31.5050  -20.6369   21.5339 H   0  0  0  0  0  0
  -32.1991  -16.4933   22.3874 H   0  0  0  0  0  0
  -29.3561  -24.1607   21.2381 H   0  0  0  0  0  0
  -30.2201  -24.4319   19.7321 H   0  0  0  0  0  0
  -28.0784  -25.2095   18.6511 H   0  0  0  0  0  0
  -27.2512  -24.8499   20.1585 H   0  0  0  0  0  0
  -29.0316  -15.3124   21.2898 H   0  0  0  0  0  0
  -30.1000  -21.8354   20.9867 H   0  0  0  0  0  0
  1 25  1  0  0  0
  1 30  2  0  0  0
  1 81  1  0  0  0
  2  3  1  0  0  0
  2 25  1  0  0  0
  2 86  1  0  0  0
  2 87  1  0  0  0
  3  4  1  0  0  0
  3 88  1  0  0  0
  3 89  1  0  0  0
  4  5  1  0  0  0
  4 90  1  0  0  0
  4 91  1  0  0  0
  5  6  1  0  0  0
  5 26  1  0  0  0
  5 92  1  0  0  0
  6 25  1  0  0  0
  6 93  1  0  0  0
  6 94  1  0  0  0
  7  8  2  0  0  0
  7 26  1  0  0  0
  7 29  1  0  0  0
  8  9  1  0  0  0
  8 22  1  0  0  0
  9 10  1  0  0  0
  9 27  2  0  0  0
 10 11  2  0  0  0
 10 15  1  0  0  0
 11 12  1  0  0  0
 11 95  1  0  0  0
 12 13  2  0  0  0
 12 96  1  0  0  0
 13 14  1  0  0  0
 13 31  1  0  0  0
 14 15  2  0  0  0
 14 97  1  0  0  0
 15 98  1  0  0  0
 16 17  2  0  0  0
 16 21  1  0  0  0
 16 31  1  0  0  0
 17 18  1  0  0  0
 17 99  1  0  0  0
 18 19  2  0  0  0
 18100  1  0  0  0
 19 20  1  0  0  0
 19 24  1  0  0  0
 20 21  2  0  0  0
 20101  1  0  0  0
 21 23  1  0  0  0
 22 28  1  0  0  0
 22 32  2  0  0  0
 26 27  1  0  0  0
 28102  1  0  0  0
 28103  1  0  0  0
 29104  1  0  0  0
 29105  1  0  0  0
 33 34  1  0  0  0
 33 66  1  0  0  0
 33 70  2  0  0  0
 34 36  1  0  0  0
 34 59  1  0  0  0
 34106  1  0  0  0
 35 44  2  0  0  0
 35 45  1  0  0  0
 35 68  1  0  0  0
 36 56  1  0  0  0
 36107  1  0  0  0
 37 39  1  0  0  0
 37 47  1  0  0  0
 37 66  1  0  0  0
 37108  1  0  0  0
 38 43  2  0  0  0
 38 46  1  0  0  0
 38 47  1  0  0  0
 39 64  1  0  0  0
 39 67  2  0  0  0
 40 52  1  0  0  0
 40 53  2  0  0  0
 40 58  1  0  0  0
 41109  1  0  0  0
 41110  1  0  0  0
 41111  1  0  0  0
 41 48  1  0  0  0
 42 43  1  0  0  0
 42 66  1  0  0  0
 42112  1  0  0  0
 42113  1  0  0  0
 43 44  1  0  0  0
 44114  1  0  0  0
 45 46  2  0  0  0
 45115  1  0  0  0
 46116  1  0  0  0
 47117  1  0  0  0
 47118  1  0  0  0
 48 56  1  0  0  0
 48 65  1  0  0  0
 48119  1  0  0  0
 49 50  1  0  0  0
 49 53  1  0  0  0
 49 64  1  0  0  0
 49120  1  0  0  0
 50 51  1  0  0  0
 50121  1  0  0  0
 50122  1  0  0  0
 51 52  1  0  0  0
 51123  1  0  0  0
 51124  1  0  0  0
 52125  1  0  0  0
 52126  1  0  0  0
 53 54  1  0  0  0
 54 55  2  0  0  0
 54127  1  0  0  0
 55 57  1  0  0  0
 55128  1  0  0  0
 56 69  2  0  0  0
 57 58  2  0  0  0
 57129  1  0  0  0
 58130  1  0  0  0
 59 60  1  0  0  0
 59 61  1  0  0  0
 59 62  1  0  0  0
 60131  1  0  0  0
 60132  1  0  0  0
 60133  1  0  0  0
 61134  1  0  0  0
 61135  1  0  0  0
 61136  1  0  0  0
 62137  1  0  0  0
 62138  1  0  0  0
 62139  1  0  0  0
 63 65  1  0  0  0
 63140  1  0  0  0
 63141  1  0  0  0
 63142  1  0  0  0
 64143  1  0  0  0
 65144  1  0  0  0
 68 80  1  0  0  0
 71 74  2  0  0  0
 71 75  1  0  0  0
 71145  1  0  0  0
 72 74  1  0  0  0
 72 76  2  0  0  0
 72146  1  0  0  0
 73 75  2  0  0  0
 73 76  1  0  0  0
 73147  1  0  0  0
 74 77  1  0  0  0
 75 81  1  0  0  0
 76 85  1  0  0  0
 77 82  1  0  0  0
 77 83  2  0  0  0
 78 79  1  0  0  0
 78 82  1  0  0  0
 78 84  2  0  0  0
 79 80  1  0  0  0
 79148  1  0  0  0
 79149  1  0  0  0
 80150  1  0  0  0
 80151  1  0  0  0
 81152  1  0  0  0
 82153  1  0  0  0
M  ISO  4   1 100  68 101  80 101  81 100
M  END
> <chiral flag>
0

> <version>
0

> <s_m_source_file>
/data/baiqing/PycharmProjects/Reinvent-master-3.2/result/LINK_invent/BTK/process_docking_weight1_custom_product_contain_oxygen_bond_distance_aromatic_linkinvent_7_9_3/rearranged_h_0071.sdf

> <i_m_source_file_index>
93

> <r_mmod_Potential_Energy-OPLS-2005>
-192.743560791016

> <r_mmod_Stretch_Energy-OPLS-2005>
46.0583190917969

> <r_mmod_Bend_Energy-OPLS-2005>
104.724998474121

> <r_mmod_Torsional_Energy-OPLS-2005>
225.417907714844

> <r_mmod_Improper_Torsional_Energy-OPLS-2005>
3.80661058425903

> <r_mmod_Van_der_Waal_Energy-OPLS-2005>
175.979873657227

> <r_mmod_Electrostatic_Energy-OPLS-2005>
-502.028717041016

> <r_mmod_Solvation_Energy-OPLS-2005>
-265.952453613281

> <b_mmod_Minimization_Converged-OPLS-2005>
0

> <r_mmod_RMS_Derivative-OPLS-2005>
3.05615067481995

$$$$
94
                    3D
 Structure written by MMmdl.
156164  0  0  1  0            999 V2000
  -30.6088  -14.6476   20.5007 C   0  0  0  0  0  0
  -30.4426  -12.3968   19.4496 C   0  0  0  0  0  0
  -29.5098  -12.5061   18.2221 C   0  0  0  0  0  0
  -28.0314  -12.3433   18.6324 C   0  0  0  0  0  0
  -27.6525  -13.2124   19.8606 C   0  0  2  0  0  0
  -28.6975  -13.0660   20.9901 C   0  0  0  0  0  0
  -25.2562  -13.8151   20.5659 C   0  0  0  0  0  0
  -24.1833  -13.0429   20.9207 C   0  0  0  0  0  0
  -24.6394  -11.6898   20.8753 C   0  0  0  0  0  0
  -23.9058  -10.4284   21.0412 C   0  0  0  0  0  0
  -24.3612   -9.4201   21.9190 C   0  0  0  0  0  0
  -23.6287   -8.2237   22.0755 C   0  0  0  0  0  0
  -22.4275   -8.0276   21.3540 C   0  0  0  0  0  0
  -21.9907   -9.0252   20.4646 C   0  0  0  0  0  0
  -22.7233  -10.2131   20.3057 C   0  0  0  0  0  0
  -21.6853   -6.0734   22.5278 C   0  0  0  0  0  0
  -21.4013   -6.5637   23.8213 C   0  0  0  0  0  0
  -21.3659   -5.6790   24.9175 C   0  0  0  0  0  0
  -21.6044   -4.3052   24.7227 C   0  0  0  0  0  0
  -21.8820   -3.8145   23.4347 C   0  0  0  0  0  0
  -21.9192   -4.6961   22.3402 C   0  0  0  0  0  0
  -22.7857  -13.5231   21.1863 C   0  0  0  0  0  0
  -22.1663   -4.2147   21.0981 F   0  0  0  0  0  0
  -21.5627   -3.4535   25.7737 F   0  0  0  0  0  0
  -30.0121  -13.4152   20.4281 N   0  0  0  0  0  0
  -26.2982  -12.9324   20.3287 N   0  0  0  0  0  0
  -25.9318  -11.6488   20.5750 N   0  0  0  0  0  0
  -22.0487  -12.8222   22.0408 N   0  0  0  0  0  0
  -25.4261  -15.1864   20.3991 N   0  0  0  0  0  0
  -31.7778  -14.8180   20.1410 O   0  0  0  0  0  0
  -21.6637   -6.8877   21.4241 O   0  0  0  0  0  0
  -22.3548  -14.5539   20.6709 O   0  0  0  0  0  0
  -24.6255  -31.8612   23.2008 C   0  0  0  0  0  0
  -25.9104  -32.4792   23.8348 C   0  0  1  0  0  0
  -27.2242  -27.3198   20.1173 C   0  0  0  0  0  0
  -25.5921  -33.8591   24.2283 N   0  0  0  0  0  0
  -23.4189  -30.4838   21.5452 C   0  0  2  0  0  0
  -24.8645  -28.9374   20.1129 C   0  0  0  0  0  0
  -22.7479  -29.4633   22.4947 C   0  0  0  0  0  0
  -18.0293  -28.1391   22.8505 C   0  0  0  0  0  0
  -24.1489  -36.7288   23.2639 C   0  0  0  0  0  0
  -25.9598  -30.7925   21.3701 C   0  0  0  0  0  0
  -26.0341  -29.4187   20.7141 C   0  0  0  0  0  0
  -27.2174  -28.6223   20.7054 C   0  0  0  0  0  0
  -26.0285  -26.8891   19.4962 C   0  0  0  0  0  0
  -24.8639  -27.6783   19.4943 C   0  0  0  0  0  0
  -23.6329  -29.8181   20.1606 C   0  0  0  0  0  0
  -25.4116  -36.3094   24.0334 C   0  0  1  0  0  0
  -20.5895  -28.3682   23.1300 C   0  0  2  0  0  0
  -20.6795  -26.9413   22.5415 C   0  0  0  0  0  0
  -19.5768  -26.6396   21.5219 C   0  0  0  0  0  0
  -18.1941  -26.7939   22.1627 C   0  0  0  0  0  0
  -19.1547  -28.8852   23.2900 C   0  0  0  0  0  0
  -18.9468  -30.1463   23.8914 C   0  0  0  0  0  0
  -17.6470  -30.6601   24.0570 C   0  0  0  0  0  0
  -25.9056  -34.9464   23.5111 C   0  0  0  0  0  0
  -16.5361  -29.9101   23.6339 C   0  0  0  0  0  0
  -16.7279  -28.6512   23.0370 C   0  0  0  0  0  0
  -26.4484  -31.6591   25.0706 C   0  0  0  0  0  0
  -25.3721  -31.3726   26.1434 C   0  0  0  0  0  0
  -27.0319  -30.3025   24.6123 C   0  0  0  0  0  0
  -27.6052  -32.4312   25.7480 C   0  0  0  0  0  0
  -27.5585  -37.1808   24.8472 C   0  0  0  0  0  0
  -21.4193  -29.3039   22.3692 N   0  0  0  0  0  0
  -26.4301  -37.3783   23.9415 N   0  0  0  0  0  0
  -24.6872  -31.0625   22.0954 N   0  0  0  0  0  0
  -23.4205  -28.8186   23.3033 O   0  0  0  0  0  0
  -28.3503  -26.4831   20.1632 O   0  0  0  0  0  0
  -26.5620  -34.8927   22.4676 O   0  0  0  0  0  0
  -23.5423  -32.1398   23.7347 O   0  0  0  0  0  0
  -28.7115  -19.3663   20.6818 C   0  0  0  0  0  0
  -28.6923  -17.9360   20.6716 C   0  0  0  0  0  0
  -31.0918  -17.8750   20.7421 C   0  0  0  0  0  0
  -29.9243  -20.0965   20.7579 C   0  0  0  0  0  0
  -29.8760  -17.1448   20.7166 C   0  0  0  0  0  0
  -31.1154  -19.3030   20.7689 C   0  0  0  0  0  0
  -29.9727  -21.6075   20.9436 C   0  0  0  0  0  0
  -30.5832  -24.4955   19.4118 C   0  0  0  0  0  0
  -28.1635  -25.0188   20.0198 C   0  0  0  0  0  0
  -29.4180  -24.0929   20.3320 C   0  0  1  0  0  0
  -30.8305  -22.0702   21.8540 N   0  0  0  0  0  0
  -29.7623  -15.6846   20.7975 N   0  0  0  0  0  0
  -29.2319  -22.5710   20.2938 N   0  3  0  0  0  0
  -32.3258  -19.9097   20.8512 F   0  0  0  0  0  0
  -31.4819  -12.5320   19.1458 H   0  0  0  0  0  0
  -30.3861  -11.4000   19.8898 H   0  0  0  0  0  0
  -29.7761  -11.7540   17.4779 H   0  0  0  0  0  0
  -29.6504  -13.4741   17.7395 H   0  0  0  0  0  0
  -27.8675  -11.2898   18.8617 H   0  0  0  0  0  0
  -27.3780  -12.5750   17.7905 H   0  0  0  0  0  0
  -27.6693  -14.2470   19.5183 H   0  0  0  0  0  0
  -28.7106  -12.0430   21.3700 H   0  0  0  0  0  0
  -28.4414  -13.6948   21.8444 H   0  0  0  0  0  0
  -25.2761   -9.5677   22.4760 H   0  0  0  0  0  0
  -24.0002   -7.4626   22.7465 H   0  0  0  0  0  0
  -21.0845   -8.8766   19.8944 H   0  0  0  0  0  0
  -22.3697  -10.9669   19.6161 H   0  0  0  0  0  0
  -21.2006   -7.6146   23.9717 H   0  0  0  0  0  0
  -21.1480   -6.0519   25.9079 H   0  0  0  0  0  0
  -22.0599   -2.7608   23.2846 H   0  0  0  0  0  0
  -22.4102  -11.9882   22.4797 H   0  0  0  0  0  0
  -21.1099  -13.1244   22.2600 H   0  0  0  0  0  0
  -24.6407  -15.8247   20.4670 H   0  0  0  0  0  0
  -26.2328  -15.6011   19.9527 H   0  0  0  0  0  0
  -26.7171  -32.5463   23.1102 H   0  0  0  0  0  0
  -25.0088  -33.9736   25.0441 H   0  0  0  0  0  0
  -22.7130  -31.3041   21.4035 H   0  0  0  0  0  0
  -23.3760  -35.9611   23.3309 H   0  0  0  0  0  0
  -24.3582  -36.8888   22.2050 H   0  0  0  0  0  0
  -23.7226  -37.6491   23.6648 H   0  0  0  0  0  0
  -26.0898  -31.5542   20.6001 H   0  0  0  0  0  0
  -26.8415  -30.8437   21.9971 H   0  0  0  0  0  0
  -28.1165  -28.9884   21.1816 H   0  0  0  0  0  0
  -25.9629  -25.9276   19.0111 H   0  0  0  0  0  0
  -23.9656  -27.3036   19.0219 H   0  0  0  0  0  0
  -23.7530  -30.5936   19.4035 H   0  0  0  0  0  0
  -22.7523  -29.2482   19.8597 H   0  0  0  0  0  0
  -25.1299  -36.1948   25.0827 H   0  0  0  0  0  0
  -20.9991  -28.3254   24.1420 H   0  0  0  0  0  0
  -20.5721  -26.2285   23.3606 H   0  0  0  0  0  0
  -21.6661  -26.7479   22.1190 H   0  0  0  0  0  0
  -19.6925  -25.6308   21.1244 H   0  0  0  0  0  0
  -19.6704  -27.3222   20.6760 H   0  0  0  0  0  0
  -17.4219  -26.6709   21.4017 H   0  0  0  0  0  0
  -18.0333  -26.0079   22.9019 H   0  0  0  0  0  0
  -19.7945  -30.7287   24.2279 H   0  0  0  0  0  0
  -17.5025  -31.6279   24.5179 H   0  0  0  0  0  0
  -15.5365  -30.3016   23.7643 H   0  0  0  0  0  0
  -15.8683  -28.0834   22.7083 H   0  0  0  0  0  0
  -24.5911  -30.7055   25.7771 H   0  0  0  0  0  0
  -24.8895  -32.2891   26.4845 H   0  0  0  0  0  0
  -25.8050  -30.8930   27.0221 H   0  0  0  0  0  0
  -26.2878  -29.6792   24.1153 H   0  0  0  0  0  0
  -27.4054  -29.7257   25.4594 H   0  0  0  0  0  0
  -27.8732  -30.4338   23.9313 H   0  0  0  0  0  0
  -27.2680  -33.3618   26.2057 H   0  0  0  0  0  0
  -28.3871  -32.6850   25.0313 H   0  0  0  0  0  0
  -28.0710  -31.8428   26.5398 H   0  0  0  0  0  0
  -28.2613  -38.0095   24.7530 H   0  0  0  0  0  0
  -28.1070  -36.2634   24.6298 H   0  0  0  0  0  0
  -27.2309  -37.1453   25.8873 H   0  0  0  0  0  0
  -20.9366  -29.8741   21.6890 H   0  0  0  0  0  0
  -26.0182  -38.2859   24.1417 H   0  0  0  0  0  0
  -27.7725  -19.9014   20.6829 H   0  0  0  0  0  0
  -27.7292  -17.4461   20.6515 H   0  0  0  0  0  0
  -32.0334  -17.3485   20.7846 H   0  0  0  0  0  0
  -30.9367  -25.4973   19.6564 H   0  0  0  0  0  0
  -30.2758  -24.5068   18.3659 H   0  0  0  0  0  0
  -31.4323  -23.8179   19.5019 H   0  0  0  0  0  0
  -27.3420  -24.7053   20.6657 H   0  0  0  0  0  0
  -27.8491  -24.8117   18.9966 H   0  0  0  0  0  0
  -29.7076  -24.3412   21.3539 H   0  0  0  0  0  0
  -31.4709  -21.4192   22.2853 H   0  0  0  0  0  0
  -30.8889  -23.0398   22.1122 H   0  0  0  0  0  0
  -28.8369  -15.3553   21.0196 H   0  0  0  0  0  0
  -28.6123  -22.2239   19.5707 H   0  0  0  0  0  0
  1 25  1  0  0  0
  1 30  2  0  0  0
  1 82  1  0  0  0
  2  3  1  0  0  0
  2 25  1  0  0  0
  2 85  1  0  0  0
  2 86  1  0  0  0
  3  4  1  0  0  0
  3 87  1  0  0  0
  3 88  1  0  0  0
  4  5  1  0  0  0
  4 89  1  0  0  0
  4 90  1  0  0  0
  5  6  1  0  0  0
  5 26  1  0  0  0
  5 91  1  0  0  0
  6 25  1  0  0  0
  6 92  1  0  0  0
  6 93  1  0  0  0
  7  8  2  0  0  0
  7 26  1  0  0  0
  7 29  1  0  0  0
  8  9  1  0  0  0
  8 22  1  0  0  0
  9 10  1  0  0  0
  9 27  2  0  0  0
 10 11  2  0  0  0
 10 15  1  0  0  0
 11 12  1  0  0  0
 11 94  1  0  0  0
 12 13  2  0  0  0
 12 95  1  0  0  0
 13 14  1  0  0  0
 13 31  1  0  0  0
 14 15  2  0  0  0
 14 96  1  0  0  0
 15 97  1  0  0  0
 16 17  2  0  0  0
 16 21  1  0  0  0
 16 31  1  0  0  0
 17 18  1  0  0  0
 17 98  1  0  0  0
 18 19  2  0  0  0
 18 99  1  0  0  0
 19 20  1  0  0  0
 19 24  1  0  0  0
 20 21  2  0  0  0
 20100  1  0  0  0
 21 23  1  0  0  0
 22 28  1  0  0  0
 22 32  2  0  0  0
 26 27  1  0  0  0
 28101  1  0  0  0
 28102  1  0  0  0
 29103  1  0  0  0
 29104  1  0  0  0
 33 34  1  0  0  0
 33 66  1  0  0  0
 33 70  2  0  0  0
 34 36  1  0  0  0
 34 59  1  0  0  0
 34105  1  0  0  0
 35 44  2  0  0  0
 35 45  1  0  0  0
 35 68  1  0  0  0
 36 56  1  0  0  0
 36106  1  0  0  0
 37 39  1  0  0  0
 37 47  1  0  0  0
 37 66  1  0  0  0
 37107  1  0  0  0
 38 43  2  0  0  0
 38 46  1  0  0  0
 38 47  1  0  0  0
 39 64  1  0  0  0
 39 67  2  0  0  0
 40 52  1  0  0  0
 40 53  2  0  0  0
 40 58  1  0  0  0
 41108  1  0  0  0
 41109  1  0  0  0
 41110  1  0  0  0
 41 48  1  0  0  0
 42 43  1  0  0  0
 42 66  1  0  0  0
 42111  1  0  0  0
 42112  1  0  0  0
 43 44  1  0  0  0
 44113  1  0  0  0
 45 46  2  0  0  0
 45114  1  0  0  0
 46115  1  0  0  0
 47116  1  0  0  0
 47117  1  0  0  0
 48 56  1  0  0  0
 48 65  1  0  0  0
 48118  1  0  0  0
 49 50  1  0  0  0
 49 53  1  0  0  0
 49 64  1  0  0  0
 49119  1  0  0  0
 50 51  1  0  0  0
 50120  1  0  0  0
 50121  1  0  0  0
 51 52  1  0  0  0
 51122  1  0  0  0
 51123  1  0  0  0
 52124  1  0  0  0
 52125  1  0  0  0
 53 54  1  0  0  0
 54 55  2  0  0  0
 54126  1  0  0  0
 55 57  1  0  0  0
 55127  1  0  0  0
 56 69  2  0  0  0
 57 58  2  0  0  0
 57128  1  0  0  0
 58129  1  0  0  0
 59 60  1  0  0  0
 59 61  1  0  0  0
 59 62  1  0  0  0
 60130  1  0  0  0
 60131  1  0  0  0
 60132  1  0  0  0
 61133  1  0  0  0
 61134  1  0  0  0
 61135  1  0  0  0
 62136  1  0  0  0
 62137  1  0  0  0
 62138  1  0  0  0
 63 65  1  0  0  0
 63139  1  0  0  0
 63140  1  0  0  0
 63141  1  0  0  0
 64142  1  0  0  0
 65143  1  0  0  0
 68 79  1  0  0  0
 71 72  2  0  0  0
 71 74  1  0  0  0
 71144  1  0  0  0
 72 75  1  0  0  0
 72145  1  0  0  0
 73 75  2  0  0  0
 73 76  1  0  0  0
 73146  1  0  0  0
 74 76  2  0  0  0
 74 77  1  0  0  0
 75 82  1  0  0  0
 76 84  1  0  0  0
 77 81  1  0  0  0
 77 83  2  0  0  0
 78147  1  0  0  0
 78148  1  0  0  0
 78149  1  0  0  0
 78 80  1  0  0  0
 79 80  1  0  0  0
 79150  1  0  0  0
 79151  1  0  0  0
 80 83  1  0  0  0
 80152  1  0  0  0
 81153  1  0  0  0
 81154  1  0  0  0
 82155  1  0  0  0
 83156  1  0  0  0
M  CHG  1  83   1
M  ISO  4   1 100  68 101  79 101  82 100
M  END
> <chiral flag>
0

> <version>
0

> <s_m_source_file>
/data/baiqing/PycharmProjects/Reinvent-master-3.2/result/LINK_invent/BTK/process_docking_weight1_custom_product_contain_oxygen_bond_distance_aromatic_linkinvent_7_9_3/rearranged_h_0071.sdf

> <i_m_source_file_index>
94

> <r_mmod_Potential_Energy-OPLS-2005>
-115.386428833008

> <r_mmod_Stretch_Energy-OPLS-2005>
82.4699783325195

> <r_mmod_Bend_Energy-OPLS-2005>
136.432876586914

> <r_mmod_Torsional_Energy-OPLS-2005>
215.076812744141

> <r_mmod_Improper_Torsional_Energy-OPLS-2005>
6.27385997772217

> <r_mmod_Van_der_Waal_Energy-OPLS-2005>
148.125564575195

> <r_mmod_Electrostatic_Energy-OPLS-2005>
-340.361694335938

> <r_mmod_Solvation_Energy-OPLS-2005>
-412.781372070312

> <b_mmod_Minimization_Converged-OPLS-2005>
0

> <r_mmod_RMS_Derivative-OPLS-2005>
1.27229714393616

$$$$
95
                    3D
 Structure written by MMmdl.
151159  0  0  1  0            999 V2000
  -30.6173  -14.7275   20.4316 C   0  0  0  0  0  0
  -30.4258  -12.4370   19.4783 C   0  0  0  0  0  0
  -29.5098  -12.5018   18.2372 C   0  0  0  0  0  0
  -28.0335  -12.3350   18.6454 C   0  0  0  0  0  0
  -27.6400  -13.2342   19.8479 C   0  0  2  0  0  0
  -28.6818  -13.1682   20.9856 C   0  0  0  0  0  0
  -25.2501  -13.8206   20.5687 C   0  0  0  0  0  0
  -24.1793  -13.0448   20.9200 C   0  0  0  0  0  0
  -24.6384  -11.6925   20.8737 C   0  0  0  0  0  0
  -23.9065  -10.4296   21.0399 C   0  0  0  0  0  0
  -24.3619   -9.4215   21.9179 C   0  0  0  0  0  0
  -23.6297   -8.2249   22.0753 C   0  0  0  0  0  0
  -22.4277   -8.0284   21.3547 C   0  0  0  0  0  0
  -21.9906   -9.0255   20.4650 C   0  0  0  0  0  0
  -22.7231  -10.2136   20.3058 C   0  0  0  0  0  0
  -21.6855   -6.0734   22.5277 C   0  0  0  0  0  0
  -21.4020   -6.5640   23.8211 C   0  0  0  0  0  0
  -21.3657   -5.6791   24.9173 C   0  0  0  0  0  0
  -21.6046   -4.3053   24.7222 C   0  0  0  0  0  0
  -21.8819   -3.8144   23.4344 C   0  0  0  0  0  0
  -21.9198   -4.6962   22.3399 C   0  0  0  0  0  0
  -22.7816  -13.5227   21.1862 C   0  0  0  0  0  0
  -22.1665   -4.2151   21.0975 F   0  0  0  0  0  0
  -21.5627   -3.4534   25.7733 F   0  0  0  0  0  0
  -29.9876  -13.5046   20.4071 N   0  0  0  0  0  0
  -26.2921  -12.9416   20.3255 N   0  0  0  0  0  0
  -25.9313  -11.6555   20.5735 N   0  0  0  0  0  0
  -22.0459  -12.8226   22.0421 N   0  0  0  0  0  0
  -25.4201  -15.1934   20.4113 N   0  0  0  0  0  0
  -31.8147  -14.7930   20.1387 O   0  0  0  0  0  0
  -21.6646   -6.8875   21.4240 O   0  0  0  0  0  0
  -22.3496  -14.5518   20.6686 O   0  0  0  0  0  0
  -24.6305  -31.8551   23.1978 C   0  0  0  0  0  0
  -25.9145  -32.4743   23.8311 C   0  0  1  0  0  0
  -27.2192  -27.2660   20.1189 C   0  0  0  0  0  0
  -25.5937  -33.8547   24.2225 N   0  0  0  0  0  0
  -23.4247  -30.4777   21.5406 C   0  0  2  0  0  0
  -24.8692  -28.9243   20.1081 C   0  0  0  0  0  0
  -22.7489  -29.4601   22.4915 C   0  0  0  0  0  0
  -18.0283  -28.1376   22.8473 C   0  0  0  0  0  0
  -24.1488  -36.7286   23.2630 C   0  0  0  0  0  0
  -25.9708  -30.7678   21.3776 C   0  0  0  0  0  0
  -26.0399  -29.3917   20.7162 C   0  0  0  0  0  0
  -27.2138  -28.5744   20.7100 C   0  0  0  0  0  0
  -26.0178  -26.8574   19.4956 C   0  0  0  0  0  0
  -24.8637  -27.6646   19.4897 C   0  0  0  0  0  0
  -23.6407  -29.8108   20.1564 C   0  0  0  0  0  0
  -25.4115  -36.3062   24.0313 C   0  0  1  0  0  0
  -20.5886  -28.3684   23.1270 C   0  0  2  0  0  0
  -20.6763  -26.9402   22.5406 C   0  0  0  0  0  0
  -19.5744  -26.6374   21.5203 C   0  0  0  0  0  0
  -18.1930  -26.7916   22.1621 C   0  0  0  0  0  0
  -19.1536  -28.8850   23.2858 C   0  0  0  0  0  0
  -18.9465  -30.1456   23.8870 C   0  0  0  0  0  0
  -17.6465  -30.6579   24.0559 C   0  0  0  0  0  0
  -25.9066  -34.9436   23.5072 C   0  0  0  0  0  0
  -16.5358  -29.9076   23.6332 C   0  0  0  0  0  0
  -16.7272  -28.6496   23.0345 C   0  0  0  0  0  0
  -26.4502  -31.6582   25.0716 C   0  0  0  0  0  0
  -25.3726  -31.3746   26.1440 C   0  0  0  0  0  0
  -27.0335  -30.2982   24.6234 C   0  0  0  0  0  0
  -27.6034  -32.4342   25.7504 C   0  0  0  0  0  0
  -27.5590  -37.1787   24.8451 C   0  0  0  0  0  0
  -21.4196  -29.3039   22.3669 N   0  0  0  0  0  0
  -26.4278  -37.3782   23.9422 N   0  0  0  0  0  0
  -24.6939  -31.0526   22.0943 N   0  0  0  0  0  0
  -23.4203  -28.8149   23.3010 O   0  0  0  0  0  0
  -28.3448  -26.4143   20.1970 O   0  0  0  0  0  0
  -26.5654  -34.8929   22.4654 O   0  0  0  0  0  0
  -23.5463  -32.1376   23.7286 O   0  0  0  0  0  0
  -29.4320  -18.4819   20.5465 C   0  0  0  0  0  0
  -30.5397  -19.8354   18.8563 C   0  0  0  0  0  0
  -30.9265  -17.4181   18.9493 C   0  0  0  0  0  0
  -29.6432  -19.8010   19.9505 C   0  0  0  0  0  0
  -30.0739  -17.2573   20.0680 C   0  0  0  0  0  0
  -31.1572  -18.6735   18.3616 C   0  0  0  0  0  0
  -28.8914  -22.3035   19.7746 C   0  0  0  0  0  0
  -28.5345  -23.6792   20.5142 C   0  0  0  0  0  0
  -28.4177  -25.0282   19.6194 C   0  0  0  0  0  0
  -29.0631  -21.0889   20.4370 N   0  0  0  0  0  0
  -29.8564  -15.8804   20.6050 N   0  0  0  0  0  0
  -28.9734  -22.3540   18.5452 O   0  0  0  0  0  0
  -31.9911  -18.7645   17.2981 F   0  0  0  0  0  0
  -31.4694  -12.5482   19.1779 H   0  0  0  0  0  0
  -30.3583  -11.4611   19.9611 H   0  0  0  0  0  0
  -29.7892  -11.7291   17.5202 H   0  0  0  0  0  0
  -29.6460  -13.4575   17.7280 H   0  0  0  0  0  0
  -27.8827  -11.2864   18.9041 H   0  0  0  0  0  0
  -27.3822  -12.5359   17.7944 H   0  0  0  0  0  0
  -27.6355  -14.2561   19.4682 H   0  0  0  0  0  0
  -28.7061  -12.1730   21.4327 H   0  0  0  0  0  0
  -28.4189  -13.8582   21.7892 H   0  0  0  0  0  0
  -25.2769   -9.5694   22.4749 H   0  0  0  0  0  0
  -24.0012   -7.4640   22.7464 H   0  0  0  0  0  0
  -21.0839   -8.8766   19.8954 H   0  0  0  0  0  0
  -22.3685  -10.9672   19.6167 H   0  0  0  0  0  0
  -21.2014   -7.6148   23.9714 H   0  0  0  0  0  0
  -21.1480   -6.0522   25.9076 H   0  0  0  0  0  0
  -22.0600   -2.7610   23.2841 H   0  0  0  0  0  0
  -22.4083  -11.9917   22.4854 H   0  0  0  0  0  0
  -21.1070  -13.1250   22.2589 H   0  0  0  0  0  0
  -24.6523  -15.8474   20.5183 H   0  0  0  0  0  0
  -26.2661  -15.6312   20.0691 H   0  0  0  0  0  0
  -26.7214  -32.5375   23.1051 H   0  0  0  0  0  0
  -25.0056  -33.9678   25.0349 H   0  0  0  0  0  0
  -22.7206  -31.2996   21.3949 H   0  0  0  0  0  0
  -23.3764  -35.9603   23.3251 H   0  0  0  0  0  0
  -24.3580  -36.8965   22.2054 H   0  0  0  0  0  0
  -23.7239  -37.6467   23.6696 H   0  0  0  0  0  0
  -26.1179  -31.5312   20.6129 H   0  0  0  0  0  0
  -26.8466  -30.8085   22.0132 H   0  0  0  0  0  0
  -28.1112  -28.9279   21.1980 H   0  0  0  0  0  0
  -25.9178  -25.8909   19.0303 H   0  0  0  0  0  0
  -23.9637  -27.2957   19.0158 H   0  0  0  0  0  0
  -23.7654  -30.5863   19.3998 H   0  0  0  0  0  0
  -22.7587  -29.2441   19.8512 H   0  0  0  0  0  0
  -25.1302  -36.1876   25.0805 H   0  0  0  0  0  0
  -20.9964  -28.3250   24.1393 H   0  0  0  0  0  0
  -20.5644  -26.2290   23.3603 H   0  0  0  0  0  0
  -21.6638  -26.7417   22.1219 H   0  0  0  0  0  0
  -19.6901  -25.6280   21.1241 H   0  0  0  0  0  0
  -19.6686  -27.3173   20.6722 H   0  0  0  0  0  0
  -17.4198  -26.6653   21.4030 H   0  0  0  0  0  0
  -18.0340  -26.0058   22.9017 H   0  0  0  0  0  0
  -19.7948  -30.7275   24.2222 H   0  0  0  0  0  0
  -17.5026  -31.6254   24.5163 H   0  0  0  0  0  0
  -15.5361  -30.2974   23.7665 H   0  0  0  0  0  0
  -15.8671  -28.0818   22.7061 H   0  0  0  0  0  0
  -24.5895  -30.7097   25.7786 H   0  0  0  0  0  0
  -24.8931  -32.2918   26.4865 H   0  0  0  0  0  0
  -25.8051  -30.8933   27.0220 H   0  0  0  0  0  0
  -26.2915  -29.6738   24.1242 H   0  0  0  0  0  0
  -27.3955  -29.7254   25.4784 H   0  0  0  0  0  0
  -27.8830  -30.4221   23.9514 H   0  0  0  0  0  0
  -27.2605  -33.3632   26.2076 H   0  0  0  0  0  0
  -28.3856  -32.6929   25.0355 H   0  0  0  0  0  0
  -28.0689  -31.8482   26.5439 H   0  0  0  0  0  0
  -28.2559  -38.0132   24.7571 H   0  0  0  0  0  0
  -28.1139  -36.2672   24.6173 H   0  0  0  0  0  0
  -27.2322  -37.1311   25.8854 H   0  0  0  0  0  0
  -20.9373  -29.8767   21.6885 H   0  0  0  0  0  0
  -26.0139  -38.2839   24.1470 H   0  0  0  0  0  0
  -28.7625  -18.4087   21.3913 H   0  0  0  0  0  0
  -30.7905  -20.7640   18.3677 H   0  0  0  0  0  0
  -31.4252  -16.5741   18.4993 H   0  0  0  0  0  0
  -29.3039  -23.8370   21.2701 H   0  0  0  0  0  0
  -27.6040  -23.5347   21.0627 H   0  0  0  0  0  0
  -27.6646  -24.8654   18.8538 H   0  0  0  0  0  0
  -29.3366  -25.0602   19.0335 H   0  0  0  0  0  0
  -28.7979  -21.1034   21.4137 H   0  0  0  0  0  0
  -28.9543  -15.7201   21.0279 H   0  0  0  0  0  0
  1 25  1  0  0  0
  1 30  2  0  0  0
  1 81  1  0  0  0
  2  3  1  0  0  0
  2 25  1  0  0  0
  2 84  1  0  0  0
  2 85  1  0  0  0
  3  4  1  0  0  0
  3 86  1  0  0  0
  3 87  1  0  0  0
  4  5  1  0  0  0
  4 88  1  0  0  0
  4 89  1  0  0  0
  5  6  1  0  0  0
  5 26  1  0  0  0
  5 90  1  0  0  0
  6 25  1  0  0  0
  6 91  1  0  0  0
  6 92  1  0  0  0
  7  8  2  0  0  0
  7 26  1  0  0  0
  7 29  1  0  0  0
  8  9  1  0  0  0
  8 22  1  0  0  0
  9 10  1  0  0  0
  9 27  2  0  0  0
 10 11  2  0  0  0
 10 15  1  0  0  0
 11 12  1  0  0  0
 11 93  1  0  0  0
 12 13  2  0  0  0
 12 94  1  0  0  0
 13 14  1  0  0  0
 13 31  1  0  0  0
 14 15  2  0  0  0
 14 95  1  0  0  0
 15 96  1  0  0  0
 16 17  2  0  0  0
 16 21  1  0  0  0
 16 31  1  0  0  0
 17 18  1  0  0  0
 17 97  1  0  0  0
 18 19  2  0  0  0
 18 98  1  0  0  0
 19 20  1  0  0  0
 19 24  1  0  0  0
 20 21  2  0  0  0
 20 99  1  0  0  0
 21 23  1  0  0  0
 22 28  1  0  0  0
 22 32  2  0  0  0
 26 27  1  0  0  0
 28100  1  0  0  0
 28101  1  0  0  0
 29102  1  0  0  0
 29103  1  0  0  0
 33 34  1  0  0  0
 33 66  1  0  0  0
 33 70  2  0  0  0
 34 36  1  0  0  0
 34 59  1  0  0  0
 34104  1  0  0  0
 35 44  2  0  0  0
 35 45  1  0  0  0
 35 68  1  0  0  0
 36 56  1  0  0  0
 36105  1  0  0  0
 37 39  1  0  0  0
 37 47  1  0  0  0
 37 66  1  0  0  0
 37106  1  0  0  0
 38 43  2  0  0  0
 38 46  1  0  0  0
 38 47  1  0  0  0
 39 64  1  0  0  0
 39 67  2  0  0  0
 40 52  1  0  0  0
 40 53  2  0  0  0
 40 58  1  0  0  0
 41107  1  0  0  0
 41108  1  0  0  0
 41109  1  0  0  0
 41 48  1  0  0  0
 42 43  1  0  0  0
 42 66  1  0  0  0
 42110  1  0  0  0
 42111  1  0  0  0
 43 44  1  0  0  0
 44112  1  0  0  0
 45 46  2  0  0  0
 45113  1  0  0  0
 46114  1  0  0  0
 47115  1  0  0  0
 47116  1  0  0  0
 48 56  1  0  0  0
 48 65  1  0  0  0
 48117  1  0  0  0
 49 50  1  0  0  0
 49 53  1  0  0  0
 49 64  1  0  0  0
 49118  1  0  0  0
 50 51  1  0  0  0
 50119  1  0  0  0
 50120  1  0  0  0
 51 52  1  0  0  0
 51121  1  0  0  0
 51122  1  0  0  0
 52123  1  0  0  0
 52124  1  0  0  0
 53 54  1  0  0  0
 54 55  2  0  0  0
 54125  1  0  0  0
 55 57  1  0  0  0
 55126  1  0  0  0
 56 69  2  0  0  0
 57 58  2  0  0  0
 57127  1  0  0  0
 58128  1  0  0  0
 59 60  1  0  0  0
 59 61  1  0  0  0
 59 62  1  0  0  0
 60129  1  0  0  0
 60130  1  0  0  0
 60131  1  0  0  0
 61132  1  0  0  0
 61133  1  0  0  0
 61134  1  0  0  0
 62135  1  0  0  0
 62136  1  0  0  0
 62137  1  0  0  0
 63 65  1  0  0  0
 63138  1  0  0  0
 63139  1  0  0  0
 63140  1  0  0  0
 64141  1  0  0  0
 65142  1  0  0  0
 68 79  1  0  0  0
 71 74  2  0  0  0
 71 75  1  0  0  0
 71143  1  0  0  0
 72 74  1  0  0  0
 72 76  2  0  0  0
 72144  1  0  0  0
 73 75  2  0  0  0
 73 76  1  0  0  0
 73145  1  0  0  0
 74 80  1  0  0  0
 75 81  1  0  0  0
 76 83  1  0  0  0
 77 78  1  0  0  0
 77 80  1  0  0  0
 77 82  2  0  0  0
 78 79  1  0  0  0
 78146  1  0  0  0
 78147  1  0  0  0
 79148  1  0  0  0
 79149  1  0  0  0
 80150  1  0  0  0
 81151  1  0  0  0
M  ISO  4   1 100  68 101  79 101  81 100
M  END
> <chiral flag>
0

> <version>
0

> <s_m_source_file>
/data/baiqing/PycharmProjects/Reinvent-master-3.2/result/LINK_invent/BTK/process_docking_weight1_custom_product_contain_oxygen_bond_distance_aromatic_linkinvent_7_9_3/rearranged_h_0071.sdf

> <i_m_source_file_index>
95

> <r_mmod_Potential_Energy-OPLS-2005>
160.487426757812

> <r_mmod_Stretch_Energy-OPLS-2005>
127.065689086914

> <r_mmod_Bend_Energy-OPLS-2005>
168.079605102539

> <r_mmod_Torsional_Energy-OPLS-2005>
232.350234985352

> <r_mmod_Improper_Torsional_Energy-OPLS-2005>
4.75796127319336

> <r_mmod_Van_der_Waal_Energy-OPLS-2005>
149.042633056641

> <r_mmod_Electrostatic_Energy-OPLS-2005>
-364.885498046875

> <r_mmod_Solvation_Energy-OPLS-2005>
-234.809768676758

> <b_mmod_Minimization_Converged-OPLS-2005>
0

> <r_mmod_RMS_Derivative-OPLS-2005>
1.30600321292877

$$$$
96
                    3D
 Structure written by MMmdl.
165174  0  0  1  0            999 V2000
  -30.5967  -14.7939   20.4312 C   0  0  0  0  0  0
  -30.4474  -12.4654   19.5066 C   0  0  0  0  0  0
  -29.5368  -12.4795   18.2587 C   0  0  0  0  0  0
  -28.0698  -12.2516   18.6721 C   0  0  0  0  0  0
  -27.6473  -13.1771   19.8382 C   0  0  2  0  0  0
  -28.6858  -13.1874   20.9866 C   0  0  0  0  0  0
  -25.2567  -13.7862   20.5618 C   0  0  0  0  0  0
  -24.1827  -13.0200   20.9196 C   0  0  0  0  0  0
  -24.6391  -11.6723   20.8756 C   0  0  0  0  0  0
  -23.9032  -10.4166   21.0401 C   0  0  0  0  0  0
  -24.3558   -9.4098   21.9200 C   0  0  0  0  0  0
  -23.6223   -8.2150   22.0748 C   0  0  0  0  0  0
  -22.4220   -8.0215   21.3529 C   0  0  0  0  0  0
  -21.9839   -9.0197   20.4629 C   0  0  0  0  0  0
  -22.7199  -10.2070   20.3052 C   0  0  0  0  0  0
  -21.6835   -6.0699   22.5278 C   0  0  0  0  0  0
  -21.4019   -6.5612   23.8221 C   0  0  0  0  0  0
  -21.3641   -5.6755   24.9180 C   0  0  0  0  0  0
  -21.6046   -4.3029   24.7228 C   0  0  0  0  0  0
  -21.8837   -3.8116   23.4356 C   0  0  0  0  0  0
  -21.9188   -4.6931   22.3401 C   0  0  0  0  0  0
  -22.7895  -13.5141   21.1824 C   0  0  0  0  0  0
  -22.1661   -4.2122   21.0984 F   0  0  0  0  0  0
  -21.5623   -3.4500   25.7742 F   0  0  0  0  0  0
  -29.9955  -13.5460   20.4191 N   0  0  0  0  0  0
  -26.2975  -12.9041   20.3176 N   0  0  0  0  0  0
  -25.9311  -11.6263   20.5746 N   0  0  0  0  0  0
  -22.0445  -12.8187   22.0346 N   0  0  0  0  0  0
  -25.4054  -15.1523   20.4040 N   0  0  0  0  0  0
  -31.7419  -14.9191   19.9880 O   0  0  0  0  0  0
  -21.6578   -6.8840   21.4245 O   0  0  0  0  0  0
  -22.3693  -14.5507   20.6724 O   0  0  0  0  0  0
  -24.6277  -31.8574   23.1947 C   0  0  0  0  0  0
  -25.9061  -32.4811   23.8309 C   0  0  1  0  0  0
  -27.2427  -27.2584   20.1544 C   0  0  0  0  0  0
  -25.5870  -33.8603   24.2242 N   0  0  0  0  0  0
  -23.4205  -30.4723   21.5511 C   0  0  2  0  0  0
  -24.8729  -28.9215   20.1087 C   0  0  0  0  0  0
  -22.7495  -29.4553   22.5058 C   0  0  0  0  0  0
  -18.0266  -28.1394   22.8509 C   0  0  0  0  0  0
  -24.1432  -36.7289   23.2643 C   0  0  0  0  0  0
  -25.9553  -30.7802   21.3496 C   0  0  0  0  0  0
  -26.0397  -29.3904   20.7215 C   0  0  0  0  0  0
  -27.2175  -28.5739   20.7367 C   0  0  0  0  0  0
  -26.0395  -26.8473   19.5232 C   0  0  0  0  0  0
  -24.8820  -27.6603   19.4936 C   0  0  0  0  0  0
  -23.6297  -29.8011   20.1649 C   0  0  0  0  0  0
  -25.4070  -36.3133   24.0353 C   0  0  1  0  0  0
  -20.5874  -28.3630   23.1388 C   0  0  2  0  0  0
  -20.6751  -26.9379   22.5479 C   0  0  0  0  0  0
  -19.5738  -26.6394   21.5263 C   0  0  0  0  0  0
  -18.1901  -26.7948   22.1640 C   0  0  0  0  0  0
  -19.1524  -28.8846   23.2927 C   0  0  0  0  0  0
  -18.9443  -30.1463   23.8904 C   0  0  0  0  0  0
  -17.6437  -30.6598   24.0573 C   0  0  0  0  0  0
  -25.9043  -34.9494   23.5143 C   0  0  0  0  0  0
  -16.5326  -29.9091   23.6337 C   0  0  0  0  0  0
  -16.7258  -28.6521   23.0350 C   0  0  0  0  0  0
  -26.4442  -31.6609   25.0644 C   0  0  0  0  0  0
  -25.3634  -31.3740   26.1354 C   0  0  0  0  0  0
  -27.0211  -30.3077   24.5893 C   0  0  0  0  0  0
  -27.6044  -32.4293   25.7412 C   0  0  0  0  0  0
  -27.5586  -37.1772   24.8446 C   0  0  0  0  0  0
  -21.4216  -29.2954   22.3786 N   0  0  0  0  0  0
  -26.4235  -37.3846   23.9495 N   0  0  0  0  0  0
  -24.6913  -31.0483   22.0960 N   0  0  0  0  0  0
  -23.4208  -28.8148   23.3171 O   0  0  0  0  0  0
  -28.3931  -26.4233   20.2582 O   0  0  0  0  0  0
  -26.5638  -34.8961   22.4716 O   0  0  0  0  0  0
  -23.5433  -32.1431   23.7240 O   0  0  0  0  0  0
  -27.7639  -19.4223   19.6270 C   0  0  0  0  0  0
  -28.2302  -17.0411   19.5617 C   0  0  0  0  0  0
  -29.8181  -18.5589   20.5937 C   0  0  0  0  0  0
  -27.3671  -18.1212   19.3054 C   0  0  0  0  0  0
  -29.0226  -19.7334   20.1887 C   0  0  0  0  0  0
  -29.4169  -17.1735   20.3067 C   0  0  0  0  0  0
  -28.6254  -22.2908   19.8287 C   0  0  0  0  0  0
  -25.9339  -17.3133   17.5184 C   0  0  0  0  0  0
  -26.0297  -17.8807   18.7336 C   0  0  0  0  0  0
  -30.3240  -23.3410   21.0176 C   0  0  0  0  0  0
  -30.4111  -21.7696   21.1495 C   0  0  0  0  0  0
  -28.8841  -23.6655   20.5339 C   0  0  1  0  0  0
  -24.7927  -18.1883   19.5923 C   0  0  0  0  0  0
  -28.5323  -25.0313   19.6921 C   0  0  0  0  0  0
  -29.3129  -21.2048   20.3574 N   0  0  0  0  0  0
  -29.8913  -15.8892   20.9195 N   0  0  0  0  0  0
  -24.4768  -19.6198   19.7640 N   0  3  0  0  0  0
  -27.8978  -22.2562   18.8324 O   0  0  0  0  0  0
  -31.4938  -12.5775   19.2188 H   0  0  0  0  0  0
  -30.3856  -11.4965   20.0055 H   0  0  0  0  0  0
  -29.8578  -11.7073   17.5586 H   0  0  0  0  0  0
  -29.6398  -13.4312   17.7354 H   0  0  0  0  0  0
  -27.9768  -11.2122   18.9881 H   0  0  0  0  0  0
  -27.4046  -12.3738   17.8163 H   0  0  0  0  0  0
  -27.6170  -14.1515   19.3811 H   0  0  0  0  0  0
  -28.7348  -12.2086   21.4642 H   0  0  0  0  0  0
  -28.3827  -13.8912   21.7612 H   0  0  0  0  0  0
  -25.2692   -9.5561   22.4805 H   0  0  0  0  0  0
  -23.9907   -7.4531   22.7459 H   0  0  0  0  0  0
  -21.0763   -8.8742   19.8949 H   0  0  0  0  0  0
  -22.3663  -10.9624   19.6167 H   0  0  0  0  0  0
  -21.2051   -7.6136   23.9713 H   0  0  0  0  0  0
  -21.1430   -6.0498   25.9083 H   0  0  0  0  0  0
  -22.0637   -2.7581   23.2857 H   0  0  0  0  0  0
  -22.3920  -11.9791   22.4742 H   0  0  0  0  0  0
  -21.1110  -13.1364   22.2510 H   0  0  0  0  0  0
  -24.5520  -15.6987   20.4047 H   0  0  0  0  0  0
  -26.1705  -15.5779   19.8987 H   0  0  0  0  0  0
  -26.7105  -32.5435   23.1041 H   0  0  0  0  0  0
  -24.9948  -33.9743   25.0360 H   0  0  0  0  0  0
  -22.7131  -31.2946   21.4223 H   0  0  0  0  0  0
  -23.3780  -35.9530   23.3226 H   0  0  0  0  0  0
  -24.3562  -36.8988   22.2078 H   0  0  0  0  0  0
  -23.7031  -37.6409   23.6693 H   0  0  0  0  0  0
  -26.0113  -31.5057   20.5357 H   0  0  0  0  0  0
  -26.8619  -30.8941   21.9298 H   0  0  0  0  0  0
  -28.1061  -28.9382   21.2331 H   0  0  0  0  0  0
  -25.9319  -25.8752   19.0688 H   0  0  0  0  0  0
  -23.9849  -27.3004   19.0072 H   0  0  0  0  0  0
  -23.7077  -30.5741   19.3994 H   0  0  0  0  0  0
  -22.7443  -29.2243   19.8894 H   0  0  0  0  0  0
  -25.1232  -36.2001   25.0842 H   0  0  0  0  0  0
  -20.9938  -28.3127   24.1527 H   0  0  0  0  0  0
  -20.5656  -26.2239   23.3656 H   0  0  0  0  0  0
  -21.6631  -26.7448   22.1288 H   0  0  0  0  0  0
  -19.6894  -25.6315   21.1270 H   0  0  0  0  0  0
  -19.6658  -27.3237   20.6815 H   0  0  0  0  0  0
  -17.4218  -26.6744   21.3984 H   0  0  0  0  0  0
  -18.0215  -26.0096   22.9029 H   0  0  0  0  0  0
  -19.7902  -30.7302   24.2268 H   0  0  0  0  0  0
  -17.4977  -31.6271   24.5183 H   0  0  0  0  0  0
  -15.5323  -30.2986   23.7671 H   0  0  0  0  0  0
  -15.8666  -28.0848   22.7042 H   0  0  0  0  0  0
  -24.5851  -30.7043   25.7673 H   0  0  0  0  0  0
  -24.8728  -32.2891   26.4688 H   0  0  0  0  0  0
  -25.7918  -30.8993   27.0189 H   0  0  0  0  0  0
  -26.2686  -29.6924   24.0935 H   0  0  0  0  0  0
  -27.4090  -29.7199   25.4220 H   0  0  0  0  0  0
  -27.8477  -30.4513   23.8920 H   0  0  0  0  0  0
  -27.2751  -33.3672   26.1906 H   0  0  0  0  0  0
  -28.3890  -32.6722   25.0227 H   0  0  0  0  0  0
  -28.0637  -31.8413   26.5369 H   0  0  0  0  0  0
  -28.2544  -38.0139   24.7733 H   0  0  0  0  0  0
  -28.1148  -36.2725   24.5976 H   0  0  0  0  0  0
  -27.2372  -37.1066   25.8845 H   0  0  0  0  0  0
  -20.9432  -29.8617   21.6942 H   0  0  0  0  0  0
  -26.0136  -38.2902   24.1644 H   0  0  0  0  0  0
  -27.0508  -20.1973   19.4117 H   0  0  0  0  0  0
  -27.9047  -16.0729   19.2510 H   0  0  0  0  0  0
  -30.7278  -18.7169   21.1568 H   0  0  0  0  0  0
  -26.8241  -17.0751   16.9522 H   0  0  0  0  0  0
  -24.9832  -17.0714   17.0664 H   0  0  0  0  0  0
  -31.0766  -23.6836   20.3028 H   0  0  0  0  0  0
  -30.5596  -23.8396   21.9578 H   0  0  0  0  0  0
  -30.3235  -21.4393   22.1856 H   0  0  0  0  0  0
  -31.3672  -21.3905   20.7862 H   0  0  0  0  0  0
  -28.2159  -23.6371   21.3942 H   0  0  0  0  0  0
  -24.9101  -17.7395   20.5780 H   0  0  0  0  0  0
  -23.9222  -17.7157   19.1357 H   0  0  0  0  0  0
  -27.6593  -24.8183   19.0835 H   0  0  0  0  0  0
  -29.3172  -25.1125   18.9426 H   0  0  0  0  0  0
  -29.1661  -15.5039   21.5085 H   0  0  0  0  0  0
  -25.1928  -20.1127   20.2655 H   0  0  0  0  0  0
  -23.6349  -19.7013   20.3089 H   0  0  0  0  0  0
  -24.3093  -20.0700   18.8824 H   0  0  0  0  0  0
  1 25  1  0  0  0
  1 30  2  0  0  0
  1 86  1  0  0  0
  2  3  1  0  0  0
  2 25  1  0  0  0
  2 89  1  0  0  0
  2 90  1  0  0  0
  3  4  1  0  0  0
  3 91  1  0  0  0
  3 92  1  0  0  0
  4  5  1  0  0  0
  4 93  1  0  0  0
  4 94  1  0  0  0
  5  6  1  0  0  0
  5 26  1  0  0  0
  5 95  1  0  0  0
  6 25  1  0  0  0
  6 96  1  0  0  0
  6 97  1  0  0  0
  7  8  2  0  0  0
  7 26  1  0  0  0
  7 29  1  0  0  0
  8  9  1  0  0  0
  8 22  1  0  0  0
  9 10  1  0  0  0
  9 27  2  0  0  0
 10 11  2  0  0  0
 10 15  1  0  0  0
 11 12  1  0  0  0
 11 98  1  0  0  0
 12 13  2  0  0  0
 12 99  1  0  0  0
 13 14  1  0  0  0
 13 31  1  0  0  0
 14 15  2  0  0  0
 14100  1  0  0  0
 15101  1  0  0  0
 16 17  2  0  0  0
 16 21  1  0  0  0
 16 31  1  0  0  0
 17 18  1  0  0  0
 17102  1  0  0  0
 18 19  2  0  0  0
 18103  1  0  0  0
 19 20  1  0  0  0
 19 24  1  0  0  0
 20 21  2  0  0  0
 20104  1  0  0  0
 21 23  1  0  0  0
 22 28  1  0  0  0
 22 32  2  0  0  0
 26 27  1  0  0  0
 28105  1  0  0  0
 28106  1  0  0  0
 29107  1  0  0  0
 29108  1  0  0  0
 33 34  1  0  0  0
 33 66  1  0  0  0
 33 70  2  0  0  0
 34 36  1  0  0  0
 34 59  1  0  0  0
 34109  1  0  0  0
 35 44  2  0  0  0
 35 45  1  0  0  0
 35 68  1  0  0  0
 36 56  1  0  0  0
 36110  1  0  0  0
 37 39  1  0  0  0
 37 47  1  0  0  0
 37 66  1  0  0  0
 37111  1  0  0  0
 38 43  2  0  0  0
 38 46  1  0  0  0
 38 47  1  0  0  0
 39 64  1  0  0  0
 39 67  2  0  0  0
 40 52  1  0  0  0
 40 53  2  0  0  0
 40 58  1  0  0  0
 41112  1  0  0  0
 41113  1  0  0  0
 41114  1  0  0  0
 41 48  1  0  0  0
 42 43  1  0  0  0
 42 66  1  0  0  0
 42115  1  0  0  0
 42116  1  0  0  0
 43 44  1  0  0  0
 44117  1  0  0  0
 45 46  2  0  0  0
 45118  1  0  0  0
 46119  1  0  0  0
 47120  1  0  0  0
 47121  1  0  0  0
 48 56  1  0  0  0
 48 65  1  0  0  0
 48122  1  0  0  0
 49 50  1  0  0  0
 49 53  1  0  0  0
 49 64  1  0  0  0
 49123  1  0  0  0
 50 51  1  0  0  0
 50124  1  0  0  0
 50125  1  0  0  0
 51 52  1  0  0  0
 51126  1  0  0  0
 51127  1  0  0  0
 52128  1  0  0  0
 52129  1  0  0  0
 53 54  1  0  0  0
 54 55  2  0  0  0
 54130  1  0  0  0
 55 57  1  0  0  0
 55131  1  0  0  0
 56 69  2  0  0  0
 57 58  2  0  0  0
 57132  1  0  0  0
 58133  1  0  0  0
 59 60  1  0  0  0
 59 61  1  0  0  0
 59 62  1  0  0  0
 60134  1  0  0  0
 60135  1  0  0  0
 60136  1  0  0  0
 61137  1  0  0  0
 61138  1  0  0  0
 61139  1  0  0  0
 62140  1  0  0  0
 62141  1  0  0  0
 62142  1  0  0  0
 63 65  1  0  0  0
 63143  1  0  0  0
 63144  1  0  0  0
 63145  1  0  0  0
 64146  1  0  0  0
 65147  1  0  0  0
 68 84  1  0  0  0
 71 74  2  0  0  0
 71 75  1  0  0  0
 71148  1  0  0  0
 72 74  1  0  0  0
 72 76  2  0  0  0
 72149  1  0  0  0
 73 75  2  0  0  0
 73 76  1  0  0  0
 73150  1  0  0  0
 74 79  1  0  0  0
 75 85  1  0  0  0
 76 86  1  0  0  0
 77 82  1  0  0  0
 77 85  1  0  0  0
 77 88  2  0  0  0
 78 79  2  0  0  0
 78151  1  0  0  0
 78152  1  0  0  0
 79 83  1  0  0  0
 80 81  1  0  0  0
 80 82  1  0  0  0
 80153  1  0  0  0
 80154  1  0  0  0
 81 85  1  0  0  0
 81155  1  0  0  0
 81156  1  0  0  0
 82 84  1  0  0  0
 82157  1  0  0  0
 83 87  1  0  0  0
 83158  1  0  0  0
 83159  1  0  0  0
 84160  1  0  0  0
 84161  1  0  0  0
 86162  1  0  0  0
 87163  1  0  0  0
 87164  1  0  0  0
 87165  1  0  0  0
M  CHG  1  87   1
M  ISO  4   1 100  68 101  84 101  86 100
M  END
> <chiral flag>
0

> <version>
0

> <s_m_source_file>
/data/baiqing/PycharmProjects/Reinvent-master-3.2/result/LINK_invent/BTK/process_docking_weight1_custom_product_contain_oxygen_bond_distance_aromatic_linkinvent_7_9_3/rearranged_h_0071.sdf

> <i_m_source_file_index>
96

> <r_mmod_Potential_Energy-OPLS-2005>
177.170364379883

> <r_mmod_Stretch_Energy-OPLS-2005>
148.39860534668

> <r_mmod_Bend_Energy-OPLS-2005>
256.696258544922

> <r_mmod_Torsional_Energy-OPLS-2005>
330.499664306641

> <r_mmod_Improper_Torsional_Energy-OPLS-2005>
11.2690343856812

> <r_mmod_Van_der_Waal_Energy-OPLS-2005>
142.315017700195

> <r_mmod_Electrostatic_Energy-OPLS-2005>
-312.963165283203

> <r_mmod_Solvation_Energy-OPLS-2005>
-498.786926269531

> <b_mmod_Minimization_Converged-OPLS-2005>
0

> <r_mmod_RMS_Derivative-OPLS-2005>
6.44910764694214

$$$$
