0
                    3D
 Structure written by MMmdl.
158166  0  0  1  0            999 V2000
  -30.6808  -14.6286   20.5817 C   0  0  0  0  0  0
  -30.4344  -12.4113   19.4574 C   0  0  0  0  0  0
  -29.5090  -12.5212   18.2255 C   0  0  0  0  0  0
  -28.0327  -12.3478   18.6333 C   0  0  0  0  0  0
  -27.6521  -13.2212   19.8560 C   0  0  2  0  0  0
  -28.6888  -13.0699   20.9851 C   0  0  0  0  0  0
  -25.2556  -13.8190   20.5668 C   0  0  0  0  0  0
  -24.1826  -13.0456   20.9168 C   0  0  0  0  0  0
  -24.6399  -11.6919   20.8720 C   0  0  0  0  0  0
  -23.9076  -10.4295   21.0393 C   0  0  0  0  0  0
  -24.3624   -9.4206   21.9170 C   0  0  0  0  0  0
  -23.6294   -8.2246   22.0751 C   0  0  0  0  0  0
  -22.4277   -8.0284   21.3541 C   0  0  0  0  0  0
  -21.9910   -9.0261   20.4648 C   0  0  0  0  0  0
  -22.7250  -10.2132   20.3044 C   0  0  0  0  0  0
  -21.6845   -6.0734   22.5281 C   0  0  0  0  0  0
  -21.4025   -6.5635   23.8219 C   0  0  0  0  0  0
  -21.3660   -5.6782   24.9179 C   0  0  0  0  0  0
  -21.6044   -4.3049   24.7220 C   0  0  0  0  0  0
  -21.8818   -3.8137   23.4339 C   0  0  0  0  0  0
  -21.9197   -4.6959   22.3399 C   0  0  0  0  0  0
  -22.7843  -13.5240   21.1828 C   0  0  0  0  0  0
  -22.1663   -4.2142   21.0977 F   0  0  0  0  0  0
  -21.5621   -3.4536   25.7735 F   0  0  0  0  0  0
  -30.0114  -13.4315   20.4444 N   0  0  0  0  0  0
  -26.2979  -12.9381   20.3257 N   0  0  0  0  0  0
  -25.9321  -11.6526   20.5698 N   0  0  0  0  0  0
  -22.0487  -12.8250   22.0399 N   0  0  0  0  0  0
  -25.4278  -15.1920   20.4136 N   0  0  0  0  0  0
  -31.7955  -14.7707   20.0682 O   0  0  0  0  0  0
  -21.6643   -6.8878   21.4241 O   0  0  0  0  0  0
  -22.3522  -14.5535   20.6659 O   0  0  0  0  0  0
  -24.6265  -31.8605   23.2044 C   0  0  0  0  0  0
  -25.9114  -32.4789   23.8364 C   0  0  1  0  0  0
  -27.2195  -27.3222   20.1116 C   0  0  0  0  0  0
  -25.5936  -33.8588   24.2284 N   0  0  0  0  0  0
  -23.4184  -30.4866   21.5481 C   0  0  2  0  0  0
  -24.8624  -28.9450   20.1128 C   0  0  0  0  0  0
  -22.7471  -29.4639   22.4956 C   0  0  0  0  0  0
  -18.0287  -28.1389   22.8489 C   0  0  0  0  0  0
  -24.1484  -36.7287   23.2636 C   0  0  0  0  0  0
  -25.9610  -30.7929   21.3752 C   0  0  0  0  0  0
  -26.0338  -29.4228   20.7124 C   0  0  0  0  0  0
  -27.2170  -28.6253   20.6981 C   0  0  0  0  0  0
  -26.0191  -26.8964   19.4938 C   0  0  0  0  0  0
  -24.8566  -27.6870   19.4945 C   0  0  0  0  0  0
  -23.6317  -29.8256   20.1622 C   0  0  0  0  0  0
  -25.4113  -36.3089   24.0327 C   0  0  1  0  0  0
  -20.5887  -28.3683   23.1293 C   0  0  2  0  0  0
  -20.6779  -26.9416   22.5410 C   0  0  0  0  0  0
  -19.5754  -26.6385   21.5213 C   0  0  0  0  0  0
  -18.1930  -26.7931   22.1625 C   0  0  0  0  0  0
  -19.1540  -28.8858   23.2883 C   0  0  0  0  0  0
  -18.9461  -30.1457   23.8903 C   0  0  0  0  0  0
  -17.6462  -30.6589   24.0563 C   0  0  0  0  0  0
  -25.9055  -34.9461   23.5100 C   0  0  0  0  0  0
  -16.5354  -29.9087   23.6336 C   0  0  0  0  0  0
  -16.7275  -28.6507   23.0357 C   0  0  0  0  0  0
  -26.4493  -31.6596   25.0727 C   0  0  0  0  0  0
  -25.3723  -31.3759   26.1451 C   0  0  0  0  0  0
  -27.0325  -30.3013   24.6186 C   0  0  0  0  0  0
  -27.6051  -32.4331   25.7502 C   0  0  0  0  0  0
  -27.5586  -37.1799   24.8467 C   0  0  0  0  0  0
  -21.4192  -29.3034   22.3693 N   0  0  0  0  0  0
  -26.4294  -37.3783   23.9414 N   0  0  0  0  0  0
  -24.6873  -31.0627   22.0992 N   0  0  0  0  0  0
  -23.4205  -28.8166   23.3016 O   0  0  0  0  0  0
  -28.3394  -26.4740   20.1539 O   0  0  0  0  0  0
  -26.5616  -34.8925   22.4662 O   0  0  0  0  0  0
  -23.5435  -32.1409   23.7379 O   0  0  0  0  0  0
  -29.0541  -17.9813   21.4596 C   0  0  0  0  0  0
  -30.8349  -17.7129   19.8819 C   0  0  0  0  0  0
  -29.0392  -19.3914   21.2321 C   0  0  0  0  0  0
  -30.8330  -19.1248   19.6712 C   0  0  0  0  0  0
  -29.9805  -17.0934   20.8332 C   0  0  0  0  0  0
  -29.9681  -20.0218   20.3691 C   0  0  0  0  0  0
  -29.9079  -15.4805   22.7039 C   0  0  0  0  0  0
  -31.4550  -21.9255   19.9634 C   0  0  0  0  0  0
  -29.2905  -23.9915   20.2826 C   0  0  0  0  0  0
  -28.9575  -22.4269   20.1778 C   0  0  0  0  0  0
  -28.0998  -25.0144   20.0587 C   0  0  0  0  0  0
  -30.0727  -15.6766   21.2545 N   0  0  0  0  0  0
  -30.1017  -21.4574   20.2730 N   0  0  0  0  0  0
  -31.4766  -12.5245   19.1541 H   0  0  0  0  0  0
  -30.3708  -11.4154   19.8989 H   0  0  0  0  0  0
  -29.7804  -11.7720   17.4807 H   0  0  0  0  0  0
  -29.6489  -13.4915   17.7447 H   0  0  0  0  0  0
  -27.8809  -11.2939   18.8720 H   0  0  0  0  0  0
  -27.3737  -12.5670   17.7932 H   0  0  0  0  0  0
  -27.6760  -14.2596   19.5223 H   0  0  0  0  0  0
  -28.7032  -12.0441   21.3561 H   0  0  0  0  0  0
  -28.3862  -13.6755   21.8334 H   0  0  0  0  0  0
  -25.2772   -9.5675   22.4742 H   0  0  0  0  0  0
  -24.0000   -7.4638   22.7471 H   0  0  0  0  0  0
  -21.0832   -8.8787   19.8969 H   0  0  0  0  0  0
  -22.3711  -10.9664   19.6144 H   0  0  0  0  0  0
  -21.2033   -7.6142   23.9718 H   0  0  0  0  0  0
  -21.1476   -6.0512   25.9079 H   0  0  0  0  0  0
  -22.0597   -2.7596   23.2837 H   0  0  0  0  0  0
  -22.4125  -11.9940   22.4819 H   0  0  0  0  0  0
  -21.1098  -13.1268   22.2595 H   0  0  0  0  0  0
  -24.6628  -15.8481   20.5237 H   0  0  0  0  0  0
  -26.2874  -15.6319   20.1105 H   0  0  0  0  0  0
  -26.7175  -32.5447   23.1107 H   0  0  0  0  0  0
  -25.0103  -33.9730   25.0450 H   0  0  0  0  0  0
  -22.7115  -31.3071   21.4087 H   0  0  0  0  0  0
  -23.3761  -35.9607   23.3298 H   0  0  0  0  0  0
  -24.3586  -36.8910   22.2055 H   0  0  0  0  0  0
  -23.7222  -37.6481   23.6657 H   0  0  0  0  0  0
  -26.0969  -31.5596   20.6116 H   0  0  0  0  0  0
  -26.8406  -30.8367   22.0053 H   0  0  0  0  0  0
  -28.1175  -28.9912   21.1714 H   0  0  0  0  0  0
  -25.9380  -25.9363   19.0089 H   0  0  0  0  0  0
  -23.9577  -27.3152   19.0219 H   0  0  0  0  0  0
  -23.7532  -30.6041   19.4081 H   0  0  0  0  0  0
  -22.7497  -29.2573   19.8595 H   0  0  0  0  0  0
  -25.1296  -36.1941   25.0822 H   0  0  0  0  0  0
  -20.9980  -28.3249   24.1414 H   0  0  0  0  0  0
  -20.5687  -26.2294   23.3603 H   0  0  0  0  0  0
  -21.6645  -26.7453   22.1198 H   0  0  0  0  0  0
  -19.6917  -25.6294   21.1244 H   0  0  0  0  0  0
  -19.6687  -27.3194   20.6742 H   0  0  0  0  0  0
  -17.4200  -26.6676   21.4025 H   0  0  0  0  0  0
  -18.0334  -26.0071   22.9027 H   0  0  0  0  0  0
  -19.7936  -30.7261   24.2281 H   0  0  0  0  0  0
  -17.5022  -31.6275   24.5148 H   0  0  0  0  0  0
  -15.5360  -30.2990   23.7659 H   0  0  0  0  0  0
  -15.8673  -28.0821   22.7083 H   0  0  0  0  0  0
  -24.5887  -30.7113   25.7794 H   0  0  0  0  0  0
  -24.8914  -32.2932   26.4852 H   0  0  0  0  0  0
  -25.8031  -30.8956   27.0243 H   0  0  0  0  0  0
  -26.2899  -29.6778   24.1185 H   0  0  0  0  0  0
  -27.3998  -29.7252   25.4691 H   0  0  0  0  0  0
  -27.8784  -30.4292   23.9428 H   0  0  0  0  0  0
  -27.2662  -33.3641   26.2059 H   0  0  0  0  0  0
  -28.3874  -32.6883   25.0342 H   0  0  0  0  0  0
  -28.0698  -31.8468   26.5438 H   0  0  0  0  0  0
  -28.2602  -38.0102   24.7535 H   0  0  0  0  0  0
  -28.1087  -36.2636   24.6270 H   0  0  0  0  0  0
  -27.2309  -37.1424   25.8872 H   0  0  0  0  0  0
  -20.9378  -29.8756   21.6898 H   0  0  0  0  0  0
  -26.0177  -38.2859   24.1421 H   0  0  0  0  0  0
  -28.3454  -17.5945   22.1756 H   0  0  0  0  0  0
  -31.5691  -17.1322   19.3428 H   0  0  0  0  0  0
  -28.3414  -19.9919   21.7956 H   0  0  0  0  0  0
  -31.5561  -19.5139   18.9684 H   0  0  0  0  0  0
  -30.4377  -16.2620   23.2505 H   0  0  0  0  0  0
  -30.3075  -14.5281   23.0614 H   0  0  0  0  0  0
  -28.8589  -15.5292   22.9921 H   0  0  0  0  0  0
  -31.6434  -22.9198   20.3667 H   0  0  0  0  0  0
  -31.6303  -21.9563   18.8863 H   0  0  0  0  0  0
  -32.2121  -21.2806   20.4144 H   0  0  0  0  0  0
  -30.0483  -24.2411   19.5406 H   0  0  0  0  0  0
  -29.7398  -24.1902   21.2565 H   0  0  0  0  0  0
  -28.4485  -22.2423   19.2302 H   0  0  0  0  0  0
  -28.2304  -22.1824   20.9533 H   0  0  0  0  0  0
  -27.3131  -24.7543   20.7682 H   0  0  0  0  0  0
  -27.7086  -24.7939   19.0658 H   0  0  0  0  0  0
  1 25  1  0  0  0
  1 30  2  0  0  0
  1 82  1  0  0  0
  2  3  1  0  0  0
  2 25  1  0  0  0
  2 84  1  0  0  0
  2 85  1  0  0  0
  3  4  1  0  0  0
  3 86  1  0  0  0
  3 87  1  0  0  0
  4  5  1  0  0  0
  4 88  1  0  0  0
  4 89  1  0  0  0
  5  6  1  0  0  0
  5 26  1  0  0  0
  5 90  1  0  0  0
  6 25  1  0  0  0
  6 91  1  0  0  0
  6 92  1  0  0  0
  7  8  2  0  0  0
  7 26  1  0  0  0
  7 29  1  0  0  0
  8  9  1  0  0  0
  8 22  1  0  0  0
  9 10  1  0  0  0
  9 27  2  0  0  0
 10 11  2  0  0  0
 10 15  1  0  0  0
 11 12  1  0  0  0
 11 93  1  0  0  0
 12 13  2  0  0  0
 12 94  1  0  0  0
 13 14  1  0  0  0
 13 31  1  0  0  0
 14 15  2  0  0  0
 14 95  1  0  0  0
 15 96  1  0  0  0
 16 17  2  0  0  0
 16 21  1  0  0  0
 16 31  1  0  0  0
 17 18  1  0  0  0
 17 97  1  0  0  0
 18 19  2  0  0  0
 18 98  1  0  0  0
 19 20  1  0  0  0
 19 24  1  0  0  0
 20 21  2  0  0  0
 20 99  1  0  0  0
 21 23  1  0  0  0
 22 28  1  0  0  0
 22 32  2  0  0  0
 26 27  1  0  0  0
 28100  1  0  0  0
 28101  1  0  0  0
 29102  1  0  0  0
 29103  1  0  0  0
 33 34  1  0  0  0
 33 66  1  0  0  0
 33 70  2  0  0  0
 34 36  1  0  0  0
 34 59  1  0  0  0
 34104  1  0  0  0
 35 44  2  0  0  0
 35 45  1  0  0  0
 35 68  1  0  0  0
 36 56  1  0  0  0
 36105  1  0  0  0
 37 39  1  0  0  0
 37 47  1  0  0  0
 37 66  1  0  0  0
 37106  1  0  0  0
 38 43  2  0  0  0
 38 46  1  0  0  0
 38 47  1  0  0  0
 39 64  1  0  0  0
 39 67  2  0  0  0
 40 52  1  0  0  0
 40 53  2  0  0  0
 40 58  1  0  0  0
 41107  1  0  0  0
 41108  1  0  0  0
 41109  1  0  0  0
 41 48  1  0  0  0
 42 43  1  0  0  0
 42 66  1  0  0  0
 42110  1  0  0  0
 42111  1  0  0  0
 43 44  1  0  0  0
 44112  1  0  0  0
 45 46  2  0  0  0
 45113  1  0  0  0
 46114  1  0  0  0
 47115  1  0  0  0
 47116  1  0  0  0
 48 56  1  0  0  0
 48 65  1  0  0  0
 48117  1  0  0  0
 49 50  1  0  0  0
 49 53  1  0  0  0
 49 64  1  0  0  0
 49118  1  0  0  0
 50 51  1  0  0  0
 50119  1  0  0  0
 50120  1  0  0  0
 51 52  1  0  0  0
 51121  1  0  0  0
 51122  1  0  0  0
 52123  1  0  0  0
 52124  1  0  0  0
 53 54  1  0  0  0
 54 55  2  0  0  0
 54125  1  0  0  0
 55 57  1  0  0  0
 55126  1  0  0  0
 56 69  2  0  0  0
 57 58  2  0  0  0
 57127  1  0  0  0
 58128  1  0  0  0
 59 60  1  0  0  0
 59 61  1  0  0  0
 59 62  1  0  0  0
 60129  1  0  0  0
 60130  1  0  0  0
 60131  1  0  0  0
 61132  1  0  0  0
 61133  1  0  0  0
 61134  1  0  0  0
 62135  1  0  0  0
 62136  1  0  0  0
 62137  1  0  0  0
 63 65  1  0  0  0
 63138  1  0  0  0
 63139  1  0  0  0
 63140  1  0  0  0
 64141  1  0  0  0
 65142  1  0  0  0
 68 81  1  0  0  0
 71 73  2  0  0  0
 71 75  1  0  0  0
 71143  1  0  0  0
 72 74  1  0  0  0
 72 75  2  0  0  0
 72144  1  0  0  0
 73 76  1  0  0  0
 73145  1  0  0  0
 74 76  2  0  0  0
 74146  1  0  0  0
 75 82  1  0  0  0
 76 83  1  0  0  0
 77 82  1  0  0  0
 77147  1  0  0  0
 77148  1  0  0  0
 77149  1  0  0  0
 78 83  1  0  0  0
 78150  1  0  0  0
 78151  1  0  0  0
 78152  1  0  0  0
 79 80  1  0  0  0
 79 81  1  0  0  0
 79153  1  0  0  0
 79154  1  0  0  0
 80 83  1  0  0  0
 80155  1  0  0  0
 80156  1  0  0  0
 81157  1  0  0  0
 81158  1  0  0  0
M  ISO  4   1 100  68 101  81 101  82 100
M  END
> <chiral flag>
0

> <version>
0

> <s_m_source_file>
/data/baiqing/PycharmProjects/Reinvent-master-3.2/result/LINK_invent/BTK/process_docking_weight1_custom_product_contain_oxygen_bond_distance_aromatic_linkinvent_7_9_3/rearranged_h_0017.sdf

> <i_m_source_file_index>
1

> <r_mmod_Potential_Energy-OPLS-2005>
227.097290039062

> <r_mmod_Stretch_Energy-OPLS-2005>
89.0428237915039

> <r_mmod_Bend_Energy-OPLS-2005>
152.601806640625

> <r_mmod_Torsional_Energy-OPLS-2005>
288.566436767578

> <r_mmod_Improper_Torsional_Energy-OPLS-2005>
4.04857540130615

> <r_mmod_Van_der_Waal_Energy-OPLS-2005>
166.317947387695

> <r_mmod_Electrostatic_Energy-OPLS-2005>
-310.021820068359

> <r_mmod_Solvation_Energy-OPLS-2005>
-207.76628112793

> <b_mmod_Minimization_Converged-OPLS-2005>
0

> <r_mmod_RMS_Derivative-OPLS-2005>
1.96840369701385

$$$$
1
                    3D
 Structure written by MMmdl.
153161  0  0  1  0            999 V2000
  -30.3294  -15.5270   20.3527 C   0  0  0  0  0  0
  -30.4445  -13.0002   19.5323 C   0  0  0  0  0  0
  -29.5504  -12.5864   18.3290 C   0  0  0  0  0  0
  -28.1394  -12.1901   18.8020 C   0  0  0  0  0  0
  -27.5995  -13.2205   19.8085 C   0  0  2  0  0  0
  -28.6305  -13.5423   20.9306 C   0  0  0  0  0  0
  -25.2274  -13.8001   20.5655 C   0  0  0  0  0  0
  -24.1662  -13.0281   20.9319 C   0  0  0  0  0  0
  -24.6317  -11.6790   20.8843 C   0  0  0  0  0  0
  -23.9026  -10.4206   21.0461 C   0  0  0  0  0  0
  -24.3584   -9.4121   21.9229 C   0  0  0  0  0  0
  -23.6266   -8.2162   22.0769 C   0  0  0  0  0  0
  -22.4248   -8.0221   21.3544 C   0  0  0  0  0  0
  -21.9887   -9.0194   20.4641 C   0  0  0  0  0  0
  -22.7219  -10.2071   20.3077 C   0  0  0  0  0  0
  -21.6825   -6.0714   22.5297 C   0  0  0  0  0  0
  -21.3978   -6.5618   23.8229 C   0  0  0  0  0  0
  -21.3648   -5.6772   24.9186 C   0  0  0  0  0  0
  -21.6060   -4.3043   24.7237 C   0  0  0  0  0  0
  -21.8822   -3.8129   23.4355 C   0  0  0  0  0  0
  -21.9180   -4.6947   22.3412 C   0  0  0  0  0  0
  -22.7683  -13.5060   21.1988 C   0  0  0  0  0  0
  -22.1660   -4.2133   21.0997 F   0  0  0  0  0  0
  -21.5636   -3.4534   25.7753 F   0  0  0  0  0  0
  -29.8102  -14.1667   20.2815 N   0  0  0  0  0  0
  -26.2734  -12.9223   20.3219 N   0  0  0  0  0  0
  -25.9231  -11.6393   20.5798 N   0  0  0  0  0  0
  -22.0347  -12.8072   22.0556 N   0  0  0  0  0  0
  -25.3621  -15.1716   20.3802 N   0  0  0  0  0  0
  -31.5688  -15.4918   20.2112 O   0  0  0  0  0  0
  -21.6606   -6.8831   21.4246 O   0  0  0  0  0  0
  -22.3388  -14.5386   20.6834 O   0  0  0  0  0  0
  -24.6690  -31.8174   23.1617 C   0  0  0  0  0  0
  -25.9341  -32.4557   23.8108 C   0  0  1  0  0  0
  -27.2315  -26.8651   20.1957 C   0  0  0  0  0  0
  -25.5979  -33.8365   24.2021 N   0  0  0  0  0  0
  -23.4865  -30.4238   21.5160 C   0  0  2  0  0  0
  -24.9377  -28.7881   20.1241 C   0  0  0  0  0  0
  -22.7706  -29.4410   22.4813 C   0  0  0  0  0  0
  -18.0325  -28.1435   22.8437 C   0  0  0  0  0  0
  -24.1489  -36.7204   23.2652 C   0  0  0  0  0  0
  -26.0576  -30.6054   21.3959 C   0  0  0  0  0  0
  -26.1280  -29.1834   20.7500 C   0  0  0  0  0  0
  -27.2692  -28.2499   20.7498 C   0  0  0  0  0  0
  -26.0026  -26.6296   19.5339 C   0  0  0  0  0  0
  -24.9036  -27.5318   19.4943 C   0  0  0  0  0  0
  -23.7288  -29.7276   20.1484 C   0  0  0  0  0  0
  -25.4126  -36.2952   24.0303 C   0  0  1  0  0  0
  -20.5946  -28.3764   23.1191 C   0  0  2  0  0  0
  -20.6812  -26.9456   22.5411 C   0  0  0  0  0  0
  -19.5780  -26.6398   21.5220 C   0  0  0  0  0  0
  -18.1962  -26.7965   22.1613 C   0  0  0  0  0  0
  -19.1599  -28.8921   23.2795 C   0  0  0  0  0  0
  -18.9511  -30.1506   23.8825 C   0  0  0  0  0  0
  -17.6505  -30.6613   24.0548 C   0  0  0  0  0  0
  -25.9096  -34.9337   23.4997 C   0  0  0  0  0  0
  -16.5387  -29.9089   23.6362 C   0  0  0  0  0  0
  -16.7312  -28.6531   23.0336 C   0  0  0  0  0  0
  -26.4547  -31.6512   25.0661 C   0  0  0  0  0  0
  -25.3641  -31.3782   26.1304 C   0  0  0  0  0  0
  -27.0449  -30.2880   24.6413 C   0  0  0  0  0  0
  -27.6064  -32.4295   25.7447 C   0  0  0  0  0  0
  -27.5561  -37.1760   24.8467 C   0  0  0  0  0  0
  -21.4380  -29.3026   22.3544 N   0  0  0  0  0  0
  -26.4259  -37.3702   23.9417 N   0  0  0  0  0  0
  -24.7610  -30.9759   22.0790 N   0  0  0  0  0  0
  -23.4229  -28.8004   23.3099 O   0  0  0  0  0  0
  -28.2671  -25.7683   20.1399 O   0  0  0  0  0  0
  -26.5738  -34.8903   22.4609 O   0  0  0  0  0  0
  -23.5755  -32.1179   23.6681 O   0  0  0  0  0  0
  -29.8669  -21.5039   19.6918 C   0  0  0  0  0  0
  -28.2526  -21.1974   21.2815 C   0  0  0  0  0  0
  -29.9606  -19.7928   19.4425 C   0  0  0  0  0  0
  -28.3176  -19.5313   21.0144 C   0  0  0  0  0  0
  -28.5281  -22.3769   20.1661 C   0  0  2  0  0  0
  -29.6368  -18.6004   20.5668 C   0  0  1  0  0  0
  -28.0926  -16.6668   20.4770 C   0  0  0  0  0  0
  -28.2562  -24.1624   20.6413 C   0  0  0  0  0  0
  -29.5343  -16.8609   20.3922 N   0  0  0  0  0  0
  -31.4347  -13.2730   19.1646 H   0  0  0  0  0  0
  -30.6153  -12.1512   20.1985 H   0  0  0  0  0  0
  -30.0094  -11.7570   17.7923 H   0  0  0  0  0  0
  -29.4827  -13.4177   17.6256 H   0  0  0  0  0  0
  -28.2131  -11.2206   19.2994 H   0  0  0  0  0  0
  -27.4605  -12.0523   17.9598 H   0  0  0  0  0  0
  -27.4499  -14.0607   19.1426 H   0  0  0  0  0  0
  -28.8986  -12.6397   21.4861 H   0  0  0  0  0  0
  -28.2173  -14.2266   21.6734 H   0  0  0  0  0  0
  -25.2712   -9.5596   22.4818 H   0  0  0  0  0  0
  -23.9972   -7.4536   22.7471 H   0  0  0  0  0  0
  -21.0831   -8.8706   19.8930 H   0  0  0  0  0  0
  -22.3692  -10.9615   19.6190 H   0  0  0  0  0  0
  -21.1954   -7.6125   23.9721 H   0  0  0  0  0  0
  -21.1477   -6.0508   25.9092 H   0  0  0  0  0  0
  -22.0619   -2.7599   23.2870 H   0  0  0  0  0  0
  -22.3912  -11.9661   22.4856 H   0  0  0  0  0  0
  -21.0998  -13.1112   22.2853 H   0  0  0  0  0  0
  -24.5714  -15.8005   20.4728 H   0  0  0  0  0  0
  -26.1680  -15.6136   19.9628 H   0  0  0  0  0  0
  -26.7424  -32.5100   23.0842 H   0  0  0  0  0  0
  -25.0046  -33.9364   25.0118 H   0  0  0  0  0  0
  -22.8065  -31.2598   21.3389 H   0  0  0  0  0  0
  -23.3752  -35.9527   23.3266 H   0  0  0  0  0  0
  -24.3565  -36.8895   22.2077 H   0  0  0  0  0  0
  -23.7238  -37.6383   23.6728 H   0  0  0  0  0  0
  -26.2342  -31.3375   20.6069 H   0  0  0  0  0  0
  -26.9186  -30.6732   22.0476 H   0  0  0  0  0  0
  -28.1774  -28.5617   21.2451 H   0  0  0  0  0  0
  -25.8716  -25.6716   19.0485 H   0  0  0  0  0  0
  -24.0011  -27.2207   18.9870 H   0  0  0  0  0  0
  -23.8921  -30.4912   19.3836 H   0  0  0  0  0  0
  -22.8370  -29.1846   19.8319 H   0  0  0  0  0  0
  -25.1319  -36.1753   25.0793 H   0  0  0  0  0  0
  -21.0002  -28.3376   24.1324 H   0  0  0  0  0  0
  -20.5705  -26.2382   23.3647 H   0  0  0  0  0  0
  -21.6680  -26.7448   22.1216 H   0  0  0  0  0  0
  -19.6944  -25.6304   21.1267 H   0  0  0  0  0  0
  -19.6727  -27.3197   20.6742 H   0  0  0  0  0  0
  -17.4251  -26.6711   21.4002 H   0  0  0  0  0  0
  -18.0327  -26.0136   22.9037 H   0  0  0  0  0  0
  -19.7999  -30.7342   24.2145 H   0  0  0  0  0  0
  -17.5066  -31.6265   24.5197 H   0  0  0  0  0  0
  -15.5394  -30.2953   23.7724 H   0  0  0  0  0  0
  -15.8727  -28.0832   22.7036 H   0  0  0  0  0  0
  -24.5942  -30.6975   25.7641 H   0  0  0  0  0  0
  -24.8680  -32.2975   26.4470 H   0  0  0  0  0  0
  -25.7866  -30.9185   27.0251 H   0  0  0  0  0  0
  -26.3132  -29.6553   24.1385 H   0  0  0  0  0  0
  -27.3962  -29.7251   25.5064 H   0  0  0  0  0  0
  -27.9063  -30.4055   23.9828 H   0  0  0  0  0  0
  -27.2713  -33.3739   26.1745 H   0  0  0  0  0  0
  -28.4004  -32.6615   25.0330 H   0  0  0  0  0  0
  -28.0562  -31.8574   26.5587 H   0  0  0  0  0  0
  -28.2558  -38.0070   24.7534 H   0  0  0  0  0  0
  -28.1088  -36.2611   24.6275 H   0  0  0  0  0  0
  -27.2290  -37.1375   25.8870 H   0  0  0  0  0  0
  -20.9690  -29.8704   21.6641 H   0  0  0  0  0  0
  -26.0119  -38.2762   24.1442 H   0  0  0  0  0  0
  -30.6631  -21.7616   20.3915 H   0  0  0  0  0  0
  -30.1846  -21.9601   18.7542 H   0  0  0  0  0  0
  -28.9030  -21.4053   22.1292 H   0  0  0  0  0  0
  -27.2526  -21.3993   21.6694 H   0  0  0  0  0  0
  -30.9770  -19.6084   19.0930 H   0  0  0  0  0  0
  -29.3395  -19.5878   18.5712 H   0  0  0  0  0  0
  -27.5476  -19.4076   20.2525 H   0  0  0  0  0  0
  -27.9005  -19.0690   21.9069 H   0  0  0  0  0  0
  -27.8010  -22.2297   19.3670 H   0  0  0  0  0  0
  -30.3857  -18.7270   21.3491 H   0  0  0  0  0  0
  -27.5056  -17.3900   19.9189 H   0  0  0  0  0  0
  -27.7411  -16.6145   21.5103 H   0  0  0  0  0  0
  -27.8036  -15.7804   19.9715 H   0  0  0  0  0  0
  -28.9198  -24.2563   21.4990 H   0  0  0  0  0  0
  -27.2684  -24.1173   21.0964 H   0  0  0  0  0  0
  1 25  1  0  0  0
  1 30  2  0  0  0
  1 79  1  0  0  0
  2  3  1  0  0  0
  2 25  1  0  0  0
  2 80  1  0  0  0
  2 81  1  0  0  0
  3  4  1  0  0  0
  3 82  1  0  0  0
  3 83  1  0  0  0
  4  5  1  0  0  0
  4 84  1  0  0  0
  4 85  1  0  0  0
  5  6  1  0  0  0
  5 26  1  0  0  0
  5 86  1  0  0  0
  6 25  1  0  0  0
  6 87  1  0  0  0
  6 88  1  0  0  0
  7  8  2  0  0  0
  7 26  1  0  0  0
  7 29  1  0  0  0
  8  9  1  0  0  0
  8 22  1  0  0  0
  9 10  1  0  0  0
  9 27  2  0  0  0
 10 11  2  0  0  0
 10 15  1  0  0  0
 11 12  1  0  0  0
 11 89  1  0  0  0
 12 13  2  0  0  0
 12 90  1  0  0  0
 13 14  1  0  0  0
 13 31  1  0  0  0
 14 15  2  0  0  0
 14 91  1  0  0  0
 15 92  1  0  0  0
 16 17  2  0  0  0
 16 21  1  0  0  0
 16 31  1  0  0  0
 17 18  1  0  0  0
 17 93  1  0  0  0
 18 19  2  0  0  0
 18 94  1  0  0  0
 19 20  1  0  0  0
 19 24  1  0  0  0
 20 21  2  0  0  0
 20 95  1  0  0  0
 21 23  1  0  0  0
 22 28  1  0  0  0
 22 32  2  0  0  0
 26 27  1  0  0  0
 28 96  1  0  0  0
 28 97  1  0  0  0
 29 98  1  0  0  0
 29 99  1  0  0  0
 33 34  1  0  0  0
 33 66  1  0  0  0
 33 70  2  0  0  0
 34 36  1  0  0  0
 34 59  1  0  0  0
 34100  1  0  0  0
 35 44  2  0  0  0
 35 45  1  0  0  0
 35 68  1  0  0  0
 36 56  1  0  0  0
 36101  1  0  0  0
 37 39  1  0  0  0
 37 47  1  0  0  0
 37 66  1  0  0  0
 37102  1  0  0  0
 38 43  2  0  0  0
 38 46  1  0  0  0
 38 47  1  0  0  0
 39 64  1  0  0  0
 39 67  2  0  0  0
 40 52  1  0  0  0
 40 53  2  0  0  0
 40 58  1  0  0  0
 41103  1  0  0  0
 41104  1  0  0  0
 41105  1  0  0  0
 41 48  1  0  0  0
 42 43  1  0  0  0
 42 66  1  0  0  0
 42106  1  0  0  0
 42107  1  0  0  0
 43 44  1  0  0  0
 44108  1  0  0  0
 45 46  2  0  0  0
 45109  1  0  0  0
 46110  1  0  0  0
 47111  1  0  0  0
 47112  1  0  0  0
 48 56  1  0  0  0
 48 65  1  0  0  0
 48113  1  0  0  0
 49 50  1  0  0  0
 49 53  1  0  0  0
 49 64  1  0  0  0
 49114  1  0  0  0
 50 51  1  0  0  0
 50115  1  0  0  0
 50116  1  0  0  0
 51 52  1  0  0  0
 51117  1  0  0  0
 51118  1  0  0  0
 52119  1  0  0  0
 52120  1  0  0  0
 53 54  1  0  0  0
 54 55  2  0  0  0
 54121  1  0  0  0
 55 57  1  0  0  0
 55122  1  0  0  0
 56 69  2  0  0  0
 57 58  2  0  0  0
 57123  1  0  0  0
 58124  1  0  0  0
 59 60  1  0  0  0
 59 61  1  0  0  0
 59 62  1  0  0  0
 60125  1  0  0  0
 60126  1  0  0  0
 60127  1  0  0  0
 61128  1  0  0  0
 61129  1  0  0  0
 61130  1  0  0  0
 62131  1  0  0  0
 62132  1  0  0  0
 62133  1  0  0  0
 63 65  1  0  0  0
 63134  1  0  0  0
 63135  1  0  0  0
 63136  1  0  0  0
 64137  1  0  0  0
 65138  1  0  0  0
 68 78  1  0  0  0
 71 73  1  0  0  0
 71 75  1  0  0  0
 71139  1  0  0  0
 71140  1  0  0  0
 72 74  1  0  0  0
 72 75  1  0  0  0
 72141  1  0  0  0
 72142  1  0  0  0
 73 76  1  0  0  0
 73143  1  0  0  0
 73144  1  0  0  0
 74 76  1  0  0  0
 74145  1  0  0  0
 74146  1  0  0  0
 75 78  1  0  0  0
 75147  1  0  0  0
 76 79  1  0  0  0
 76148  1  0  0  0
 77 79  1  0  0  0
 77149  1  0  0  0
 77150  1  0  0  0
 77151  1  0  0  0
 78152  1  0  0  0
 78153  1  0  0  0
M  ISO  4   1 100  68 101  78 101  79 100
M  END
> <chiral flag>
0

> <version>
0

> <s_m_source_file>
/data/baiqing/PycharmProjects/Reinvent-master-3.2/result/LINK_invent/BTK/process_docking_weight1_custom_product_contain_oxygen_bond_distance_aromatic_linkinvent_7_9_3/rearranged_h_0017.sdf

> <i_m_source_file_index>
2

> <r_mmod_Potential_Energy-OPLS-2005>
2099.97119140625

> <r_mmod_Stretch_Energy-OPLS-2005>
760.698425292969

> <r_mmod_Bend_Energy-OPLS-2005>
677.148803710938

> <r_mmod_Torsional_Energy-OPLS-2005>
310.583709716797

> <r_mmod_Improper_Torsional_Energy-OPLS-2005>
4.66689682006836

> <r_mmod_Van_der_Waal_Energy-OPLS-2005>
143.853713989258

> <r_mmod_Electrostatic_Energy-OPLS-2005>
-268.367919921875

> <r_mmod_Solvation_Energy-OPLS-2005>
-200.562866210938

> <b_mmod_Minimization_Converged-OPLS-2005>
0

> <r_mmod_RMS_Derivative-OPLS-2005>
4.53907871246338

$$$$
2
                    3D
 Structure written by MMmdl.
171180  0  0  1  0            999 V2000
  -30.7229  -14.4103   20.7546 C   0  0  0  0  0  0
  -30.4291  -12.3510   19.3913 C   0  0  0  0  0  0
  -29.4845  -12.5763   18.1954 C   0  0  0  0  0  0
  -28.0083  -12.4057   18.6090 C   0  0  0  0  0  0
  -27.6763  -13.1787   19.9144 C   0  0  2  0  0  0
  -28.7274  -12.8344   21.0089 C   0  0  0  0  0  0
  -25.2561  -13.8111   20.5486 C   0  0  0  0  0  0
  -24.1837  -13.0418   20.9087 C   0  0  0  0  0  0
  -24.6354  -11.6888   20.8695 C   0  0  0  0  0  0
  -23.8991  -10.4291   21.0369 C   0  0  0  0  0  0
  -24.3565   -9.4254   21.9171 C   0  0  0  0  0  0
  -23.6287   -8.2272   22.0720 C   0  0  0  0  0  0
  -22.4314   -8.0233   21.3481 C   0  0  0  0  0  0
  -21.9879   -9.0196   20.4620 C   0  0  0  0  0  0
  -22.7171  -10.2106   20.3029 C   0  0  0  0  0  0
  -21.6849   -6.0685   22.5232 C   0  0  0  0  0  0
  -21.3979   -6.5606   23.8150 C   0  0  0  0  0  0
  -21.3646   -5.6792   24.9124 C   0  0  0  0  0  0
  -21.6030   -4.3056   24.7201 C   0  0  0  0  0  0
  -21.8868   -3.8106   23.4335 C   0  0  0  0  0  0
  -21.9237   -4.6897   22.3382 C   0  0  0  0  0  0
  -22.7859  -13.5224   21.1695 C   0  0  0  0  0  0
  -22.1740   -4.2091   21.0966 F   0  0  0  0  0  0
  -21.5649   -3.4583   25.7733 F   0  0  0  0  0  0
  -30.0363  -13.2553   20.4988 N   0  0  0  0  0  0
  -26.3076  -12.9249   20.3523 N   0  0  0  0  0  0
  -25.9304  -11.6447   20.5831 N   0  0  0  0  0  0
  -22.0476  -12.8218   22.0198 N   0  0  0  0  0  0
  -25.4118  -15.1809   20.3471 N   0  0  0  0  0  0
  -31.6638  -14.7339   20.0210 O   0  0  0  0  0  0
  -21.6718   -6.8809   21.4180 O   0  0  0  0  0  0
  -22.3576  -14.5578   20.6585 O   0  0  0  0  0  0
  -24.6162  -31.8674   23.2075 C   0  0  0  0  0  0
  -25.9062  -32.4811   23.8379 C   0  0  1  0  0  0
  -27.2407  -27.4414   20.0943 C   0  0  0  0  0  0
  -25.5868  -33.8603   24.2295 N   0  0  0  0  0  0
  -23.4040  -30.4920   21.5486 C   0  0  2  0  0  0
  -24.8508  -28.9494   20.1210 C   0  0  0  0  0  0
  -22.7407  -29.4675   22.4975 C   0  0  0  0  0  0
  -18.0254  -28.1388   22.8498 C   0  0  0  0  0  0
  -24.1492  -36.7343   23.2634 C   0  0  0  0  0  0
  -25.9304  -30.8369   21.3590 C   0  0  0  0  0  0
  -26.0108  -29.4692   20.7111 C   0  0  0  0  0  0
  -27.2107  -28.7204   20.6962 C   0  0  0  0  0  0
  -26.0653  -26.9318   19.5033 C   0  0  0  0  0  0
  -24.8704  -27.6773   19.5187 C   0  0  0  0  0  0
  -23.6145  -29.8185   20.1659 C   0  0  0  0  0  0
  -25.4112  -36.3112   24.0327 C   0  0  1  0  0  0
  -20.5848  -28.3685   23.1313 C   0  0  2  0  0  0
  -20.6738  -26.9420   22.5431 C   0  0  0  0  0  0
  -19.5715  -26.6410   21.5220 C   0  0  0  0  0  0
  -18.1900  -26.7928   22.1643 C   0  0  0  0  0  0
  -19.1508  -28.8856   23.2894 C   0  0  0  0  0  0
  -18.9433  -30.1457   23.8923 C   0  0  0  0  0  0
  -17.6441  -30.6599   24.0593 C   0  0  0  0  0  0
  -25.9034  -34.9474   23.5125 C   0  0  0  0  0  0
  -16.5335  -29.9126   23.6316 C   0  0  0  0  0  0
  -16.7249  -28.6538   23.0340 C   0  0  0  0  0  0
  -26.4485  -31.6568   25.0707 C   0  0  0  0  0  0
  -25.3727  -31.3687   26.1440 C   0  0  0  0  0  0
  -27.0285  -30.2998   24.6070 C   0  0  0  0  0  0
  -27.6089  -32.4263   25.7453 C   0  0  0  0  0  0
  -27.5579  -37.1823   24.8459 C   0  0  0  0  0  0
  -21.4127  -29.3065   22.3734 N   0  0  0  0  0  0
  -26.4292  -37.3812   23.9392 N   0  0  0  0  0  0
  -24.6690  -31.0774   22.0987 N   0  0  0  0  0  0
  -23.4178  -28.8209   23.3022 O   0  0  0  0  0  0
  -28.4081  -26.7127   20.0533 O   0  0  0  0  0  0
  -26.5639  -34.8949   22.4715 O   0  0  0  0  0  0
  -23.5357  -32.1425   23.7472 O   0  0  0  0  0  0
  -28.6564  -20.1309   21.3033 C   0  0  0  0  0  0
  -28.5688  -19.1449   22.2993 C   0  0  0  0  0  0
  -31.0468  -20.3278   21.7242 C   0  0  0  0  0  0
  -29.8854  -20.7621   21.0422 C   0  0  0  0  0  0
  -29.7146  -18.7266   23.0137 C   0  0  0  0  0  0
  -30.9733  -19.3033   22.7021 C   0  0  0  0  0  0
  -29.4417  -15.7269   22.6277 C   0  0  0  0  0  0
  -30.5187  -15.1608   22.0107 C   0  0  0  0  0  0
  -27.9333  -15.6954   22.4430 C   0  0  0  0  0  0
  -27.3556  -15.4797   23.8562 C   0  0  0  0  0  0
  -28.5636  -15.6135   24.7983 C   0  0  0  0  0  0
  -32.2521  -18.8929   23.4296 C   0  0  0  0  0  0
  -29.5054  -17.7876   24.2087 C   0  0  0  0  0  0
  -29.9002  -21.9582   20.0948 C   0  0  0  0  0  0
  -28.8360  -24.2572   19.9177 C   0  0  0  0  0  0
  -28.3963  -25.4742   20.7800 C   0  0  0  0  0  0
  -29.5887  -16.3071   23.9989 N   0  3  1  0  0  0
  -29.2772  -23.1189   20.7727 N   0  3  0  0  0  0
  -31.4648  -12.4907   19.0762 H   0  0  0  0  0  0
  -30.3740  -11.3135   19.7198 H   0  0  0  0  0  0
  -29.7325  -11.8949   17.3817 H   0  0  0  0  0  0
  -29.6420  -13.5801   17.7942 H   0  0  0  0  0  0
  -27.8207  -11.3422   18.7562 H   0  0  0  0  0  0
  -27.3495  -12.7187   17.7967 H   0  0  0  0  0  0
  -27.7516  -14.2383   19.6787 H   0  0  0  0  0  0
  -28.7358  -11.7517   21.1607 H   0  0  0  0  0  0
  -28.5183  -13.1962   22.0079 H   0  0  0  0  0  0
  -25.2740   -9.5731   22.4675 H   0  0  0  0  0  0
  -23.9992   -7.4696   22.7478 H   0  0  0  0  0  0
  -21.0815   -8.8668   19.8952 H   0  0  0  0  0  0
  -22.3606  -10.9625   19.6139 H   0  0  0  0  0  0
  -21.1956   -7.6123   23.9616 H   0  0  0  0  0  0
  -21.1430   -6.0531   25.9035 H   0  0  0  0  0  0
  -22.0696   -2.7576   23.2858 H   0  0  0  0  0  0
  -22.4150  -11.9977   22.4711 H   0  0  0  0  0  0
  -21.1090  -13.1224   22.2451 H   0  0  0  0  0  0
  -26.2566  -15.6312   20.0153 H   0  0  0  0  0  0
  -24.6068  -15.7985   20.3634 H   0  0  0  0  0  0
  -26.7148  -32.5549   23.1152 H   0  0  0  0  0  0
  -24.9897  -33.9760   25.0355 H   0  0  0  0  0  0
  -22.6947  -31.3090   21.4035 H   0  0  0  0  0  0
  -23.3723  -35.9705   23.3314 H   0  0  0  0  0  0
  -24.3596  -36.8951   22.2041 H   0  0  0  0  0  0
  -23.7281  -37.6570   23.6654 H   0  0  0  0  0  0
  -26.0329  -31.5948   20.5803 H   0  0  0  0  0  0
  -26.8248  -30.9009   21.9673 H   0  0  0  0  0  0
  -28.1132  -29.1186   21.1403 H   0  0  0  0  0  0
  -26.0743  -25.9668   19.0168 H   0  0  0  0  0  0
  -23.9766  -27.2728   19.0611 H   0  0  0  0  0  0
  -23.7305  -30.5906   19.4065 H   0  0  0  0  0  0
  -22.7388  -29.2385   19.8695 H   0  0  0  0  0  0
  -25.1279  -36.1977   25.0817 H   0  0  0  0  0  0
  -20.9927  -28.3264   24.1434 H   0  0  0  0  0  0
  -20.5600  -26.2320   23.3640 H   0  0  0  0  0  0
  -21.6608  -26.7437   22.1243 H   0  0  0  0  0  0
  -19.6889  -25.6327   21.1233 H   0  0  0  0  0  0
  -19.6643  -27.3237   20.6757 H   0  0  0  0  0  0
  -17.4158  -26.6666   21.4066 H   0  0  0  0  0  0
  -18.0320  -26.0077   22.9039 H   0  0  0  0  0  0
  -19.7916  -30.7251   24.2331 H   0  0  0  0  0  0
  -17.5008  -31.6276   24.5187 H   0  0  0  0  0  0
  -15.5342  -30.3048   23.7618 H   0  0  0  0  0  0
  -15.8637  -28.0883   22.7025 H   0  0  0  0  0  0
  -24.5923  -30.7021   25.7754 H   0  0  0  0  0  0
  -24.8900  -32.2842   26.4862 H   0  0  0  0  0  0
  -25.8052  -30.8869   27.0212 H   0  0  0  0  0  0
  -26.2838  -29.6813   24.1041 H   0  0  0  0  0  0
  -27.3945  -29.7191   25.4541 H   0  0  0  0  0  0
  -27.8730  -30.4304   23.9303 H   0  0  0  0  0  0
  -27.2740  -33.3561   26.2068 H   0  0  0  0  0  0
  -28.3860  -32.6802   25.0228 H   0  0  0  0  0  0
  -28.0790  -31.8345   26.5312 H   0  0  0  0  0  0
  -28.2593  -38.0120   24.7464 H   0  0  0  0  0  0
  -28.1073  -36.2639   24.6309 H   0  0  0  0  0  0
  -27.2306  -37.1492   25.8872 H   0  0  0  0  0  0
  -20.9309  -29.8846   21.6984 H   0  0  0  0  0  0
  -26.0175  -38.2899   24.1384 H   0  0  0  0  0  0
  -27.7629  -20.4476   20.7791 H   0  0  0  0  0  0
  -27.5928  -18.7497   22.5395 H   0  0  0  0  0  0
  -31.9910  -20.8076   21.5218 H   0  0  0  0  0  0
  -31.4565  -15.3376   22.5127 H   0  0  0  0  0  0
  -27.5586  -14.9594   21.7616 H   0  0  0  0  0  0
  -27.5975  -16.6401   22.0237 H   0  0  0  0  0  0
  -26.9096  -14.4903   23.9687 H   0  0  0  0  0  0
  -26.5750  -16.2094   24.0876 H   0  0  0  0  0  0
  -28.9487  -14.6227   25.0495 H   0  0  0  0  0  0
  -28.3444  -16.1107   25.7446 H   0  0  0  0  0  0
  -33.1568  -19.1850   22.8890 H   0  0  0  0  0  0
  -32.3061  -17.8074   23.5448 H   0  0  0  0  0  0
  -32.3027  -19.3519   24.4189 H   0  0  0  0  0  0
  -28.5166  -18.0313   24.5920 H   0  0  0  0  0  0
  -30.1862  -18.0700   25.0141 H   0  0  0  0  0  0
  -29.3390  -21.6998   19.1950 H   0  0  0  0  0  0
  -30.9206  -22.1876   19.7831 H   0  0  0  0  0  0
  -29.6606  -24.5342   19.2611 H   0  0  0  0  0  0
  -28.0102  -23.9354   19.2832 H   0  0  0  0  0  0
  -29.0921  -25.6145   21.6077 H   0  0  0  0  0  0
  -27.4300  -25.2789   21.2510 H   0  0  0  0  0  0
  -30.4800  -16.0367   24.3827 H   0  0  0  0  0  0
  -29.9432  -23.4483   21.4542 H   0  0  0  0  0  0
  -28.4791  -22.7660   21.2750 H   0  0  0  0  0  0
  1 25  1  0  0  0
  1 30  2  0  0  0
  1 78  1  0  0  0
  2  3  1  0  0  0
  2 25  1  0  0  0
  2 89  1  0  0  0
  2 90  1  0  0  0
  3  4  1  0  0  0
  3 91  1  0  0  0
  3 92  1  0  0  0
  4  5  1  0  0  0
  4 93  1  0  0  0
  4 94  1  0  0  0
  5  6  1  0  0  0
  5 26  1  0  0  0
  5 95  1  0  0  0
  6 25  1  0  0  0
  6 96  1  0  0  0
  6 97  1  0  0  0
  7  8  2  0  0  0
  7 26  1  0  0  0
  7 29  1  0  0  0
  8  9  1  0  0  0
  8 22  1  0  0  0
  9 10  1  0  0  0
  9 27  2  0  0  0
 10 11  2  0  0  0
 10 15  1  0  0  0
 11 12  1  0  0  0
 11 98  1  0  0  0
 12 13  2  0  0  0
 12 99  1  0  0  0
 13 14  1  0  0  0
 13 31  1  0  0  0
 14 15  2  0  0  0
 14100  1  0  0  0
 15101  1  0  0  0
 16 17  2  0  0  0
 16 21  1  0  0  0
 16 31  1  0  0  0
 17 18  1  0  0  0
 17102  1  0  0  0
 18 19  2  0  0  0
 18103  1  0  0  0
 19 20  1  0  0  0
 19 24  1  0  0  0
 20 21  2  0  0  0
 20104  1  0  0  0
 21 23  1  0  0  0
 22 28  1  0  0  0
 22 32  2  0  0  0
 26 27  1  0  0  0
 28105  1  0  0  0
 28106  1  0  0  0
 29107  1  0  0  0
 29108  1  0  0  0
 33 34  1  0  0  0
 33 66  1  0  0  0
 33 70  2  0  0  0
 34 36  1  0  0  0
 34 59  1  0  0  0
 34109  1  0  0  0
 35 44  2  0  0  0
 35 45  1  0  0  0
 35 68  1  0  0  0
 36 56  1  0  0  0
 36110  1  0  0  0
 37 39  1  0  0  0
 37 47  1  0  0  0
 37 66  1  0  0  0
 37111  1  0  0  0
 38 43  2  0  0  0
 38 46  1  0  0  0
 38 47  1  0  0  0
 39 64  1  0  0  0
 39 67  2  0  0  0
 40 52  1  0  0  0
 40 53  2  0  0  0
 40 58  1  0  0  0
 41112  1  0  0  0
 41113  1  0  0  0
 41114  1  0  0  0
 41 48  1  0  0  0
 42 43  1  0  0  0
 42 66  1  0  0  0
 42115  1  0  0  0
 42116  1  0  0  0
 43 44  1  0  0  0
 44117  1  0  0  0
 45 46  2  0  0  0
 45118  1  0  0  0
 46119  1  0  0  0
 47120  1  0  0  0
 47121  1  0  0  0
 48 56  1  0  0  0
 48 65  1  0  0  0
 48122  1  0  0  0
 49 50  1  0  0  0
 49 53  1  0  0  0
 49 64  1  0  0  0
 49123  1  0  0  0
 50 51  1  0  0  0
 50124  1  0  0  0
 50125  1  0  0  0
 51 52  1  0  0  0
 51126  1  0  0  0
 51127  1  0  0  0
 52128  1  0  0  0
 52129  1  0  0  0
 53 54  1  0  0  0
 54 55  2  0  0  0
 54130  1  0  0  0
 55 57  1  0  0  0
 55131  1  0  0  0
 56 69  2  0  0  0
 57 58  2  0  0  0
 57132  1  0  0  0
 58133  1  0  0  0
 59 60  1  0  0  0
 59 61  1  0  0  0
 59 62  1  0  0  0
 60134  1  0  0  0
 60135  1  0  0  0
 60136  1  0  0  0
 61137  1  0  0  0
 61138  1  0  0  0
 61139  1  0  0  0
 62140  1  0  0  0
 62141  1  0  0  0
 62142  1  0  0  0
 63 65  1  0  0  0
 63143  1  0  0  0
 63144  1  0  0  0
 63145  1  0  0  0
 64146  1  0  0  0
 65147  1  0  0  0
 68 86  1  0  0  0
 71 72  2  0  0  0
 71 74  1  0  0  0
 71148  1  0  0  0
 72 75  1  0  0  0
 72149  1  0  0  0
 73 74  2  0  0  0
 73 76  1  0  0  0
 73150  1  0  0  0
 74 84  1  0  0  0
 75 76  2  0  0  0
 75 83  1  0  0  0
 76 82  1  0  0  0
 77 78  2  0  0  0
 77 79  1  0  0  0
 77 87  1  0  0  0
 78151  1  0  0  0
 79 80  1  0  0  0
 79152  1  0  0  0
 79153  1  0  0  0
 80 81  1  0  0  0
 80154  1  0  0  0
 80155  1  0  0  0
 81 87  1  0  0  0
 81156  1  0  0  0
 81157  1  0  0  0
 82158  1  0  0  0
 82159  1  0  0  0
 82160  1  0  0  0
 83161  1  0  0  0
 83162  1  0  0  0
 83 87  1  0  0  0
 84 88  1  0  0  0
 84163  1  0  0  0
 84164  1  0  0  0
 85 86  1  0  0  0
 85 88  1  0  0  0
 85165  1  0  0  0
 85166  1  0  0  0
 86167  1  0  0  0
 86168  1  0  0  0
 87169  1  0  0  0
 88170  1  0  0  0
 88171  1  0  0  0
M  CHG  2  87   1  88   1
M  ISO  4   1 100  68 101  78 100  86 101
M  END
> <chiral flag>
0

> <version>
0

> <s_m_source_file>
/data/baiqing/PycharmProjects/Reinvent-master-3.2/result/LINK_invent/BTK/process_docking_weight1_custom_product_contain_oxygen_bond_distance_aromatic_linkinvent_7_9_3/rearranged_h_0017.sdf

> <i_m_source_file_index>
3

> <r_mmod_Potential_Energy-OPLS-2005>
-167.939071655273

> <r_mmod_Stretch_Energy-OPLS-2005>
43.717700958252

> <r_mmod_Bend_Energy-OPLS-2005>
194.403533935547

> <r_mmod_Torsional_Energy-OPLS-2005>
253.589080810547

> <r_mmod_Improper_Torsional_Energy-OPLS-2005>
6.14790153503418

> <r_mmod_Van_der_Waal_Energy-OPLS-2005>
145.842559814453

> <r_mmod_Electrostatic_Energy-OPLS-2005>
25.3506832122803

> <r_mmod_Solvation_Energy-OPLS-2005>
-851.130554199219

> <b_mmod_Minimization_Converged-OPLS-2005>
0

> <r_mmod_RMS_Derivative-OPLS-2005>
6.82055473327637

$$$$
3
                    3D
 Structure written by MMmdl.
164172  0  0  1  0            999 V2000
  -30.7538  -14.4502   20.6331 C   0  0  0  0  0  0
  -30.4178  -12.3255   19.4111 C   0  0  0  0  0  0
  -29.4880  -12.5146   18.1980 C   0  0  0  0  0  0
  -28.0127  -12.3584   18.6119 C   0  0  0  0  0  0
  -27.6548  -13.1984   19.8636 C   0  0  2  0  0  0
  -28.6987  -13.0031   20.9879 C   0  0  0  0  0  0
  -25.2577  -13.8144   20.5660 C   0  0  0  0  0  0
  -24.1831  -13.0429   20.9167 C   0  0  0  0  0  0
  -24.6384  -11.6884   20.8734 C   0  0  0  0  0  0
  -23.9057  -10.4273   21.0406 C   0  0  0  0  0  0
  -24.3612   -9.4198   21.9183 C   0  0  0  0  0  0
  -23.6285   -8.2236   22.0764 C   0  0  0  0  0  0
  -22.4267   -8.0274   21.3543 C   0  0  0  0  0  0
  -21.9900   -9.0249   20.4643 C   0  0  0  0  0  0
  -22.7236  -10.2127   20.3053 C   0  0  0  0  0  0
  -21.6832   -6.0746   22.5285 C   0  0  0  0  0  0
  -21.3987   -6.5641   23.8224 C   0  0  0  0  0  0
  -21.3646   -5.6789   24.9182 C   0  0  0  0  0  0
  -21.6046   -4.3058   24.7228 C   0  0  0  0  0  0
  -21.8825   -3.8159   23.4350 C   0  0  0  0  0  0
  -21.9187   -4.6974   22.3403 C   0  0  0  0  0  0
  -22.7858  -13.5234   21.1845 C   0  0  0  0  0  0
  -22.1659   -4.2166   21.0981 F   0  0  0  0  0  0
  -21.5630   -3.4543   25.7744 F   0  0  0  0  0  0
  -30.0330  -13.3074   20.4405 N   0  0  0  0  0  0
  -26.2982  -12.9284   20.3300 N   0  0  0  0  0  0
  -25.9301  -11.6461   20.5738 N   0  0  0  0  0  0
  -22.0491  -12.8222   22.0387 N   0  0  0  0  0  0
  -25.4315  -15.1880   20.4073 N   0  0  0  0  0  0
  -31.8485  -14.6365   20.0924 O   0  0  0  0  0  0
  -21.6619   -6.8893   21.4247 O   0  0  0  0  0  0
  -22.3546  -14.5542   20.6693 O   0  0  0  0  0  0
  -24.6202  -31.8669   23.2163 C   0  0  0  0  0  0
  -25.9095  -32.4823   23.8415 C   0  0  1  0  0  0
  -27.2065  -27.4143   20.0815 C   0  0  0  0  0  0
  -25.5951  -33.8623   24.2352 N   0  0  0  0  0  0
  -23.4045  -30.4994   21.5599 C   0  0  2  0  0  0
  -24.8396  -28.9792   20.1064 C   0  0  0  0  0  0
  -22.7439  -29.4646   22.4990 C   0  0  0  0  0  0
  -18.0270  -28.1347   22.8443 C   0  0  0  0  0  0
  -24.1462  -36.7272   23.2621 C   0  0  0  0  0  0
  -25.9413  -30.8253   21.3745 C   0  0  0  0  0  0
  -26.0078  -29.4661   20.7069 C   0  0  0  0  0  0
  -27.1944  -28.6947   20.6856 C   0  0  0  0  0  0
  -26.0160  -26.9561   19.4641 C   0  0  0  0  0  0
  -24.8427  -27.7262   19.4760 C   0  0  0  0  0  0
  -23.6082  -29.8536   20.1653 C   0  0  0  0  0  0
  -25.4083  -36.3111   24.0350 C   0  0  1  0  0  0
  -20.5869  -28.3638   23.1275 C   0  0  2  0  0  0
  -20.6766  -26.9371   22.5378 C   0  0  0  0  0  0
  -19.5763  -26.6348   21.5165 C   0  0  0  0  0  0
  -18.1927  -26.7875   22.1575 C   0  0  0  0  0  0
  -19.1526  -28.8805   23.2850 C   0  0  0  0  0  0
  -18.9467  -30.1392   23.8898 C   0  0  0  0  0  0
  -17.6474  -30.6556   24.0549 C   0  0  0  0  0  0
  -25.9061  -34.9484   23.5153 C   0  0  0  0  0  0
  -16.5364  -29.9067   23.6313 C   0  0  0  0  0  0
  -16.7261  -28.6485   23.0333 C   0  0  0  0  0  0
  -26.4495  -31.6612   25.0757 C   0  0  0  0  0  0
  -25.3712  -31.3751   26.1474 C   0  0  0  0  0  0
  -27.0300  -30.3049   24.6122 C   0  0  0  0  0  0
  -27.6116  -32.4292   25.7482 C   0  0  0  0  0  0
  -27.5602  -37.1721   24.8432 C   0  0  0  0  0  0
  -21.4181  -29.3021   22.3719 N   0  0  0  0  0  0
  -26.4252  -37.3823   23.9501 N   0  0  0  0  0  0
  -24.6752  -31.0770   22.1072 N   0  0  0  0  0  0
  -23.4208  -28.8152   23.2997 O   0  0  0  0  0  0
  -28.3504  -26.6349   20.1162 O   0  0  0  0  0  0
  -26.5615  -34.8933   22.4710 O   0  0  0  0  0  0
  -23.5403  -32.1417   23.7574 O   0  0  0  0  0  0
  -30.5385  -18.1418   20.1023 C   0  0  0  0  0  0
  -28.7764  -18.7288   21.6482 C   0  0  0  0  0  0
  -30.8015  -19.5119   19.8934 C   0  0  0  0  0  0
  -29.0273  -20.1002   21.4219 C   0  0  0  0  0  0
  -29.5151  -17.7355   20.9785 C   0  0  0  0  0  0
  -30.0314  -20.5371   20.5160 C   0  0  0  0  0  0
  -31.1636  -15.8885   22.5568 C   0  0  0  0  0  0
  -29.1637  -16.2558   21.1651 C   0  0  0  0  0  0
  -29.4084  -24.3678   20.2887 C   0  0  0  0  0  0
  -29.0902  -22.8411   20.3486 C   0  0  0  0  0  0
  -31.2538  -22.2412   19.2113 C   0  0  0  0  0  0
  -28.1242  -25.2113   20.1933 C   0  0  0  0  0  0
  -30.7627  -21.9860   17.7682 C   0  0  0  0  0  0
  -30.2490  -21.9256   20.2401 N   0  0  0  0  0  0
  -30.2720  -15.3492   21.5254 N   0  0  0  0  0  0
  -31.7542  -22.2209   16.9098 F   0  0  0  0  0  0
  -29.7339  -22.7700   17.4455 F   0  0  0  0  0  0
  -31.4593  -12.4246   19.1015 H   0  0  0  0  0  0
  -30.3265  -11.3139   19.8090 H   0  0  0  0  0  0
  -29.7339  -11.7909   17.4198 H   0  0  0  0  0  0
  -29.6470  -13.5010   17.7574 H   0  0  0  0  0  0
  -27.8302  -11.3009   18.8096 H   0  0  0  0  0  0
  -27.3604  -12.6294   17.7800 H   0  0  0  0  0  0
  -27.6796  -14.2334   19.5378 H   0  0  0  0  0  0
  -28.6777  -11.9732   21.3456 H   0  0  0  0  0  0
  -28.4467  -13.6136   21.8545 H   0  0  0  0  0  0
  -25.2766   -9.5663   22.4741 H   0  0  0  0  0  0
  -23.9992   -7.4631   22.7478 H   0  0  0  0  0  0
  -21.0840   -8.8775   19.8937 H   0  0  0  0  0  0
  -22.3717  -10.9666   19.6151 H   0  0  0  0  0  0
  -21.1961   -7.6142   23.9732 H   0  0  0  0  0  0
  -21.1445   -6.0514   25.9086 H   0  0  0  0  0  0
  -22.0610   -2.7622   23.2850 H   0  0  0  0  0  0
  -22.4102  -11.9878   22.4771 H   0  0  0  0  0  0
  -21.1113  -13.1258   22.2597 H   0  0  0  0  0  0
  -24.6676  -15.8446   20.5251 H   0  0  0  0  0  0
  -26.2815  -15.6256   20.0754 H   0  0  0  0  0  0
  -26.7170  -32.5493   23.1172 H   0  0  0  0  0  0
  -25.0115  -33.9768   25.0504 H   0  0  0  0  0  0
  -22.6954  -31.3210   21.4375 H   0  0  0  0  0  0
  -23.3825  -35.9495   23.3154 H   0  0  0  0  0  0
  -24.3613  -36.9022   22.2070 H   0  0  0  0  0  0
  -23.7054  -37.6367   23.6724 H   0  0  0  0  0  0
  -26.0665  -31.5982   20.6160 H   0  0  0  0  0  0
  -26.8293  -30.8620   21.9952 H   0  0  0  0  0  0
  -28.0939  -29.0642   21.1571 H   0  0  0  0  0  0
  -25.9522  -26.0085   18.9533 H   0  0  0  0  0  0
  -23.9509  -27.3549   18.9908 H   0  0  0  0  0  0
  -23.7205  -30.6457   19.4231 H   0  0  0  0  0  0
  -22.7269  -29.2884   19.8609 H   0  0  0  0  0  0
  -25.1221  -36.1971   25.0832 H   0  0  0  0  0  0
  -20.9933  -28.3182   24.1408 H   0  0  0  0  0  0
  -20.5638  -26.2244   23.3560 H   0  0  0  0  0  0
  -21.6646  -26.7374   22.1206 H   0  0  0  0  0  0
  -19.6953  -25.6265   21.1189 H   0  0  0  0  0  0
  -19.6742  -27.3160   20.6701 H   0  0  0  0  0  0
  -17.4195  -26.6591   21.3971 H   0  0  0  0  0  0
  -18.0355  -25.9997   22.8959 H   0  0  0  0  0  0
  -19.7949  -30.7159   24.2321 H   0  0  0  0  0  0
  -17.5048  -31.6246   24.5123 H   0  0  0  0  0  0
  -15.5372  -30.2991   23.7638 H   0  0  0  0  0  0
  -15.8635  -28.0821   22.7070 H   0  0  0  0  0  0
  -24.5939  -30.7043   25.7807 H   0  0  0  0  0  0
  -24.8815  -32.2907   26.4809 H   0  0  0  0  0  0
  -25.7966  -30.9005   27.0315 H   0  0  0  0  0  0
  -26.2814  -29.6838   24.1191 H   0  0  0  0  0  0
  -27.4109  -29.7281   25.4562 H   0  0  0  0  0  0
  -27.8649  -30.4411   23.9238 H   0  0  0  0  0  0
  -27.2833  -33.3642   26.2036 H   0  0  0  0  0  0
  -28.3907  -32.6750   25.0254 H   0  0  0  0  0  0
  -28.0790  -31.8397   26.5383 H   0  0  0  0  0  0
  -28.2464  -38.0170   24.7802 H   0  0  0  0  0  0
  -28.1245  -36.2752   24.5854 H   0  0  0  0  0  0
  -27.2388  -37.0878   25.8821 H   0  0  0  0  0  0
  -20.9349  -29.8795   21.6983 H   0  0  0  0  0  0
  -26.0138  -38.2846   24.1740 H   0  0  0  0  0  0
  -31.1243  -17.4062   19.5671 H   0  0  0  0  0  0
  -27.9913  -18.4420   22.3352 H   0  0  0  0  0  0
  -31.6045  -19.7257   19.2058 H   0  0  0  0  0  0
  -28.4088  -20.7925   21.9715 H   0  0  0  0  0  0
  -30.5884  -16.3480   23.3617 H   0  0  0  0  0  0
  -31.8310  -16.6471   22.1455 H   0  0  0  0  0  0
  -31.7818  -15.1058   22.9991 H   0  0  0  0  0  0
  -28.7063  -15.9511   20.2259 H   0  0  0  0  0  0
  -28.3869  -16.1553   21.9245 H   0  0  0  0  0  0
  -29.9928  -24.6213   19.4057 H   0  0  0  0  0  0
  -29.9977  -24.6653   21.1570 H   0  0  0  0  0  0
  -28.3785  -22.5761   19.5646 H   0  0  0  0  0  0
  -28.5640  -22.6886   21.2881 H   0  0  0  0  0  0
  -31.5688  -23.2793   19.2964 H   0  0  0  0  0  0
  -32.1781  -21.6985   19.4086 H   0  0  0  0  0  0
  -27.4766  -24.9890   21.0457 H   0  0  0  0  0  0
  -27.6113  -24.8560   19.3007 H   0  0  0  0  0  0
  -30.4438  -20.9569   17.6061 H   0  0  0  0  0  0
  1 25  1  0  0  0
  1 30  2  0  0  0
  1 85  1  0  0  0
  2  3  1  0  0  0
  2 25  1  0  0  0
  2 88  1  0  0  0
  2 89  1  0  0  0
  3  4  1  0  0  0
  3 90  1  0  0  0
  3 91  1  0  0  0
  4  5  1  0  0  0
  4 92  1  0  0  0
  4 93  1  0  0  0
  5  6  1  0  0  0
  5 26  1  0  0  0
  5 94  1  0  0  0
  6 25  1  0  0  0
  6 95  1  0  0  0
  6 96  1  0  0  0
  7  8  2  0  0  0
  7 26  1  0  0  0
  7 29  1  0  0  0
  8  9  1  0  0  0
  8 22  1  0  0  0
  9 10  1  0  0  0
  9 27  2  0  0  0
 10 11  2  0  0  0
 10 15  1  0  0  0
 11 12  1  0  0  0
 11 97  1  0  0  0
 12 13  2  0  0  0
 12 98  1  0  0  0
 13 14  1  0  0  0
 13 31  1  0  0  0
 14 15  2  0  0  0
 14 99  1  0  0  0
 15100  1  0  0  0
 16 17  2  0  0  0
 16 21  1  0  0  0
 16 31  1  0  0  0
 17 18  1  0  0  0
 17101  1  0  0  0
 18 19  2  0  0  0
 18102  1  0  0  0
 19 20  1  0  0  0
 19 24  1  0  0  0
 20 21  2  0  0  0
 20103  1  0  0  0
 21 23  1  0  0  0
 22 28  1  0  0  0
 22 32  2  0  0  0
 26 27  1  0  0  0
 28104  1  0  0  0
 28105  1  0  0  0
 29106  1  0  0  0
 29107  1  0  0  0
 33 34  1  0  0  0
 33 66  1  0  0  0
 33 70  2  0  0  0
 34 36  1  0  0  0
 34 59  1  0  0  0
 34108  1  0  0  0
 35 44  2  0  0  0
 35 45  1  0  0  0
 35 68  1  0  0  0
 36 56  1  0  0  0
 36109  1  0  0  0
 37 39  1  0  0  0
 37 47  1  0  0  0
 37 66  1  0  0  0
 37110  1  0  0  0
 38 43  2  0  0  0
 38 46  1  0  0  0
 38 47  1  0  0  0
 39 64  1  0  0  0
 39 67  2  0  0  0
 40 52  1  0  0  0
 40 53  2  0  0  0
 40 58  1  0  0  0
 41111  1  0  0  0
 41112  1  0  0  0
 41113  1  0  0  0
 41 48  1  0  0  0
 42 43  1  0  0  0
 42 66  1  0  0  0
 42114  1  0  0  0
 42115  1  0  0  0
 43 44  1  0  0  0
 44116  1  0  0  0
 45 46  2  0  0  0
 45117  1  0  0  0
 46118  1  0  0  0
 47119  1  0  0  0
 47120  1  0  0  0
 48 56  1  0  0  0
 48 65  1  0  0  0
 48121  1  0  0  0
 49 50  1  0  0  0
 49 53  1  0  0  0
 49 64  1  0  0  0
 49122  1  0  0  0
 50 51  1  0  0  0
 50123  1  0  0  0
 50124  1  0  0  0
 51 52  1  0  0  0
 51125  1  0  0  0
 51126  1  0  0  0
 52127  1  0  0  0
 52128  1  0  0  0
 53 54  1  0  0  0
 54 55  2  0  0  0
 54129  1  0  0  0
 55 57  1  0  0  0
 55130  1  0  0  0
 56 69  2  0  0  0
 57 58  2  0  0  0
 57131  1  0  0  0
 58132  1  0  0  0
 59 60  1  0  0  0
 59 61  1  0  0  0
 59 62  1  0  0  0
 60133  1  0  0  0
 60134  1  0  0  0
 60135  1  0  0  0
 61136  1  0  0  0
 61137  1  0  0  0
 61138  1  0  0  0
 62139  1  0  0  0
 62140  1  0  0  0
 62141  1  0  0  0
 63 65  1  0  0  0
 63142  1  0  0  0
 63143  1  0  0  0
 63144  1  0  0  0
 64145  1  0  0  0
 65146  1  0  0  0
 68 82  1  0  0  0
 71 73  2  0  0  0
 71 75  1  0  0  0
 71147  1  0  0  0
 72 74  1  0  0  0
 72 75  2  0  0  0
 72148  1  0  0  0
 73 76  1  0  0  0
 73149  1  0  0  0
 74 76  2  0  0  0
 74150  1  0  0  0
 75 78  1  0  0  0
 76 84  1  0  0  0
 77 85  1  0  0  0
 77151  1  0  0  0
 77152  1  0  0  0
 77153  1  0  0  0
 78 85  1  0  0  0
 78154  1  0  0  0
 78155  1  0  0  0
 79 80  1  0  0  0
 79 82  1  0  0  0
 79156  1  0  0  0
 79157  1  0  0  0
 80 84  1  0  0  0
 80158  1  0  0  0
 80159  1  0  0  0
 81 83  1  0  0  0
 81 84  1  0  0  0
 81160  1  0  0  0
 81161  1  0  0  0
 82162  1  0  0  0
 82163  1  0  0  0
 83 86  1  0  0  0
 83 87  1  0  0  0
 83164  1  0  0  0
M  ISO  4   1 100  68 101  82 101  85 100
M  END
> <chiral flag>
0

> <version>
0

> <s_m_source_file>
/data/baiqing/PycharmProjects/Reinvent-master-3.2/result/LINK_invent/BTK/process_docking_weight1_custom_product_contain_oxygen_bond_distance_aromatic_linkinvent_7_9_3/rearranged_h_0017.sdf

> <i_m_source_file_index>
4

> <r_mmod_Potential_Energy-OPLS-2005>
101.124786376953

> <r_mmod_Stretch_Energy-OPLS-2005>
45.4067611694336

> <r_mmod_Bend_Energy-OPLS-2005>
110.590621948242

> <r_mmod_Torsional_Energy-OPLS-2005>
263.441711425781

> <r_mmod_Improper_Torsional_Energy-OPLS-2005>
6.70492792129517

> <r_mmod_Van_der_Waal_Energy-OPLS-2005>
175.726531982422

> <r_mmod_Electrostatic_Energy-OPLS-2005>
-309.982788085938

> <r_mmod_Solvation_Energy-OPLS-2005>
-206.785293579102

> <b_mmod_Minimization_Converged-OPLS-2005>
0

> <r_mmod_RMS_Derivative-OPLS-2005>
3.08866119384766

$$$$
4
                    3D
 Structure written by MMmdl.
152160  0  0  1  0            999 V2000
  -30.6452  -14.6209   20.5138 C   0  0  0  0  0  0
  -30.4336  -12.3756   19.4629 C   0  0  0  0  0  0
  -29.5106  -12.5206   18.2323 C   0  0  0  0  0  0
  -28.0321  -12.3600   18.6358 C   0  0  0  0  0  0
  -27.6591  -13.2207   19.8730 C   0  0  2  0  0  0
  -28.7052  -13.0616   21.0012 C   0  0  0  0  0  0
  -25.2584  -13.8205   20.5738 C   0  0  0  0  0  0
  -24.1834  -13.0469   20.9205 C   0  0  0  0  0  0
  -24.6404  -11.6931   20.8766 C   0  0  0  0  0  0
  -23.9063  -10.4315   21.0423 C   0  0  0  0  0  0
  -24.3617   -9.4231   21.9200 C   0  0  0  0  0  0
  -23.6310   -8.2252   22.0753 C   0  0  0  0  0  0
  -22.4290   -8.0302   21.3542 C   0  0  0  0  0  0
  -21.9923   -9.0272   20.4640 C   0  0  0  0  0  0
  -22.7238  -10.2156   20.3066 C   0  0  0  0  0  0
  -21.6854   -6.0774   22.5280 C   0  0  0  0  0  0
  -21.4008   -6.5662   23.8220 C   0  0  0  0  0  0
  -21.3672   -5.6797   24.9168 C   0  0  0  0  0  0
  -21.6042   -4.3057   24.7214 C   0  0  0  0  0  0
  -21.8816   -3.8165   23.4329 C   0  0  0  0  0  0
  -21.9175   -4.6995   22.3391 C   0  0  0  0  0  0
  -22.7851  -13.5280   21.1804 C   0  0  0  0  0  0
  -22.1646   -4.2197   21.0970 F   0  0  0  0  0  0
  -21.5633   -3.4526   25.7724 F   0  0  0  0  0  0
  -30.0260  -13.3971   20.4462 N   0  0  0  0  0  0
  -26.3021  -12.9385   20.3375 N   0  0  0  0  0  0
  -25.9335  -11.6529   20.5795 N   0  0  0  0  0  0
  -22.0430  -12.8334   22.0357 N   0  0  0  0  0  0
  -25.4369  -15.1923   20.4194 N   0  0  0  0  0  0
  -31.7842  -14.7867   20.0669 O   0  0  0  0  0  0
  -21.6655   -6.8911   21.4241 O   0  0  0  0  0  0
  -22.3570  -14.5574   20.6604 O   0  0  0  0  0  0
  -24.6216  -31.8623   23.2024 C   0  0  0  0  0  0
  -25.9076  -32.4789   23.8366 C   0  0  1  0  0  0
  -27.2319  -27.3288   20.1542 C   0  0  0  0  0  0
  -25.5923  -33.8600   24.2293 N   0  0  0  0  0  0
  -23.4172  -30.4812   21.5443 C   0  0  2  0  0  0
  -24.8699  -28.9305   20.1211 C   0  0  0  0  0  0
  -22.7473  -29.4613   22.4936 C   0  0  0  0  0  0
  -18.0285  -28.1361   22.8471 C   0  0  0  0  0  0
  -24.1502  -36.7289   23.2639 C   0  0  0  0  0  0
  -25.9553  -30.7978   21.3737 C   0  0  0  0  0  0
  -26.0342  -29.4233   20.7239 C   0  0  0  0  0  0
  -27.2207  -28.6349   20.7272 C   0  0  0  0  0  0
  -26.0487  -26.8751   19.5348 C   0  0  0  0  0  0
  -24.8774  -27.6607   19.5186 C   0  0  0  0  0  0
  -23.6369  -29.8117   20.1603 C   0  0  0  0  0  0
  -25.4124  -36.3083   24.0325 C   0  0  1  0  0  0
  -20.5889  -28.3669   23.1284 C   0  0  2  0  0  0
  -20.6779  -26.9388   22.5408 C   0  0  0  0  0  0
  -19.5763  -26.6356   21.5204 C   0  0  0  0  0  0
  -18.1933  -26.7896   22.1606 C   0  0  0  0  0  0
  -19.1537  -28.8836   23.2865 C   0  0  0  0  0  0
  -18.9463  -30.1444   23.8864 C   0  0  0  0  0  0
  -17.6461  -30.6569   24.0543 C   0  0  0  0  0  0
  -25.9053  -34.9459   23.5110 C   0  0  0  0  0  0
  -16.5351  -29.9061   23.6326 C   0  0  0  0  0  0
  -16.7271  -28.6483   23.0342 C   0  0  0  0  0  0
  -26.4477  -31.6589   25.0733 C   0  0  0  0  0  0
  -25.3721  -31.3717   26.1468 C   0  0  0  0  0  0
  -27.0340  -30.3027   24.6167 C   0  0  0  0  0  0
  -27.6048  -32.4319   25.7498 C   0  0  0  0  0  0
  -27.5580  -37.1793   24.8452 C   0  0  0  0  0  0
  -21.4190  -29.3024   22.3681 N   0  0  0  0  0  0
  -26.4284  -37.3785   23.9411 N   0  0  0  0  0  0
  -24.6826  -31.0654   22.0957 N   0  0  0  0  0  0
  -23.4213  -28.8162   23.3005 O   0  0  0  0  0  0
  -28.3600  -26.5015   20.1677 O   0  0  0  0  0  0
  -26.5617  -34.8919   22.4672 O   0  0  0  0  0  0
  -23.5393  -32.1417   23.7371 O   0  0  0  0  0  0
  -30.7346  -17.7763   19.8521 C   0  0  0  0  0  0
  -29.0304  -17.9185   21.5440 C   0  0  0  0  0  0
  -30.6006  -19.1782   19.6254 C   0  0  0  0  0  0
  -28.9141  -19.3269   21.3342 C   0  0  0  0  0  0
  -29.9218  -17.0987   20.7979 C   0  0  0  0  0  0
  -29.6747  -19.9913   20.3353 C   0  0  0  0  0  0
  -28.8120  -23.8977   20.0171 C   0  0  0  0  0  0
  -29.0153  -22.5088   20.7929 C   0  0  0  0  0  0
  -28.2460  -25.1675   20.7984 C   0  0  0  0  0  0
  -29.8929  -15.6485   21.0082 N   0  0  0  0  0  0
  -29.5377  -21.3737   19.9700 N   0  0  0  0  0  0
  -31.4830  -12.4732   19.1765 H   0  0  0  0  0  0
  -30.3415  -11.3797   19.8997 H   0  0  0  0  0  0
  -29.7771  -11.7879   17.4703 H   0  0  0  0  0  0
  -29.6563  -13.5028   17.7794 H   0  0  0  0  0  0
  -27.8550  -11.3046   18.8497 H   0  0  0  0  0  0
  -27.3846  -12.6091   17.7956 H   0  0  0  0  0  0
  -27.6861  -14.2602   19.5442 H   0  0  0  0  0  0
  -28.7101  -12.0365   21.3758 H   0  0  0  0  0  0
  -28.4590  -13.6856   21.8612 H   0  0  0  0  0  0
  -25.2741   -9.5739   22.4781 H   0  0  0  0  0  0
  -24.0026   -7.4668   22.7482 H   0  0  0  0  0  0
  -21.0848   -8.8784   19.8965 H   0  0  0  0  0  0
  -22.3673  -10.9704   19.6190 H   0  0  0  0  0  0
  -21.2000   -7.6170   23.9742 H   0  0  0  0  0  0
  -21.1495   -6.0523   25.9085 H   0  0  0  0  0  0
  -22.0577   -2.7641   23.2796 H   0  0  0  0  0  0
  -22.3976  -12.0038   22.4883 H   0  0  0  0  0  0
  -21.1036  -13.1415   22.2461 H   0  0  0  0  0  0
  -24.6818  -15.8586   20.5363 H   0  0  0  0  0  0
  -26.3009  -15.6218   20.1136 H   0  0  0  0  0  0
  -26.7148  -32.5482   23.1128 H   0  0  0  0  0  0
  -25.0090  -33.9756   25.0449 H   0  0  0  0  0  0
  -22.7058  -31.2966   21.3985 H   0  0  0  0  0  0
  -23.3774  -35.9608   23.3292 H   0  0  0  0  0  0
  -24.3591  -36.8922   22.2048 H   0  0  0  0  0  0
  -23.7234  -37.6480   23.6683 H   0  0  0  0  0  0
  -26.0882  -31.5603   20.6057 H   0  0  0  0  0  0
  -26.8337  -30.8481   22.0046 H   0  0  0  0  0  0
  -28.1150  -29.0106   21.2065 H   0  0  0  0  0  0
  -26.0231  -25.8966   19.0765 H   0  0  0  0  0  0
  -23.9813  -27.2727   19.0554 H   0  0  0  0  0  0
  -23.7604  -30.5873   19.4022 H   0  0  0  0  0  0
  -22.7571  -29.2416   19.8550 H   0  0  0  0  0  0
  -25.1297  -36.1936   25.0811 H   0  0  0  0  0  0
  -20.9968  -28.3241   24.1417 H   0  0  0  0  0  0
  -20.5696  -26.2263   23.3611 H   0  0  0  0  0  0
  -21.6649  -26.7427   22.1201 H   0  0  0  0  0  0
  -19.6924  -25.6269   21.1238 H   0  0  0  0  0  0
  -19.6700  -27.3170   20.6745 H   0  0  0  0  0  0
  -17.4211  -26.6656   21.3996 H   0  0  0  0  0  0
  -18.0315  -26.0032   22.9007 H   0  0  0  0  0  0
  -19.7951  -30.7260   24.2209 H   0  0  0  0  0  0
  -17.5027  -31.6248   24.5149 H   0  0  0  0  0  0
  -15.5352  -30.2956   23.7663 H   0  0  0  0  0  0
  -15.8673  -28.0798   22.7058 H   0  0  0  0  0  0
  -24.5888  -30.7075   25.7790 H   0  0  0  0  0  0
  -24.8930  -32.2895   26.4910 H   0  0  0  0  0  0
  -25.8052  -30.8876   27.0235 H   0  0  0  0  0  0
  -26.2917  -29.6763   24.1211 H   0  0  0  0  0  0
  -27.4083  -29.7279   25.4647 H   0  0  0  0  0  0
  -27.8768  -30.4340   23.9373 H   0  0  0  0  0  0
  -27.2677  -33.3624   26.2087 H   0  0  0  0  0  0
  -28.3866  -32.6870   25.0326 H   0  0  0  0  0  0
  -28.0736  -31.8446   26.5405 H   0  0  0  0  0  0
  -28.2582  -38.0112   24.7541 H   0  0  0  0  0  0
  -28.1094  -36.2638   24.6238 H   0  0  0  0  0  0
  -27.2298  -37.1387   25.8856 H   0  0  0  0  0  0
  -20.9363  -29.8735   21.6884 H   0  0  0  0  0  0
  -26.0165  -38.2858   24.1438 H   0  0  0  0  0  0
  -31.4536  -17.2279   19.2592 H   0  0  0  0  0  0
  -28.3969  -17.4564   22.2905 H   0  0  0  0  0  0
  -31.2266  -19.6297   18.8673 H   0  0  0  0  0  0
  -28.1994  -19.8774   21.9300 H   0  0  0  0  0  0
  -28.1562  -23.7215   19.1642 H   0  0  0  0  0  0
  -29.7738  -24.1900   19.5942 H   0  0  0  0  0  0
  -28.0901  -22.2083   21.2839 H   0  0  0  0  0  0
  -29.7423  -22.6722   21.5900 H   0  0  0  0  0  0
  -28.7902  -25.2433   21.7417 H   0  0  0  0  0  0
  -27.2145  -24.9682   21.0923 H   0  0  0  0  0  0
  -29.0713  -15.3195   21.4908 H   0  0  0  0  0  0
  -30.0468  -21.6491   19.1331 H   0  0  0  0  0  0
  1 25  1  0  0  0
  1 30  2  0  0  0
  1 80  1  0  0  0
  2  3  1  0  0  0
  2 25  1  0  0  0
  2 82  1  0  0  0
  2 83  1  0  0  0
  3  4  1  0  0  0
  3 84  1  0  0  0
  3 85  1  0  0  0
  4  5  1  0  0  0
  4 86  1  0  0  0
  4 87  1  0  0  0
  5  6  1  0  0  0
  5 26  1  0  0  0
  5 88  1  0  0  0
  6 25  1  0  0  0
  6 89  1  0  0  0
  6 90  1  0  0  0
  7  8  2  0  0  0
  7 26  1  0  0  0
  7 29  1  0  0  0
  8  9  1  0  0  0
  8 22  1  0  0  0
  9 10  1  0  0  0
  9 27  2  0  0  0
 10 11  2  0  0  0
 10 15  1  0  0  0
 11 12  1  0  0  0
 11 91  1  0  0  0
 12 13  2  0  0  0
 12 92  1  0  0  0
 13 14  1  0  0  0
 13 31  1  0  0  0
 14 15  2  0  0  0
 14 93  1  0  0  0
 15 94  1  0  0  0
 16 17  2  0  0  0
 16 21  1  0  0  0
 16 31  1  0  0  0
 17 18  1  0  0  0
 17 95  1  0  0  0
 18 19  2  0  0  0
 18 96  1  0  0  0
 19 20  1  0  0  0
 19 24  1  0  0  0
 20 21  2  0  0  0
 20 97  1  0  0  0
 21 23  1  0  0  0
 22 28  1  0  0  0
 22 32  2  0  0  0
 26 27  1  0  0  0
 28 98  1  0  0  0
 28 99  1  0  0  0
 29100  1  0  0  0
 29101  1  0  0  0
 33 34  1  0  0  0
 33 66  1  0  0  0
 33 70  2  0  0  0
 34 36  1  0  0  0
 34 59  1  0  0  0
 34102  1  0  0  0
 35 44  2  0  0  0
 35 45  1  0  0  0
 35 68  1  0  0  0
 36 56  1  0  0  0
 36103  1  0  0  0
 37 39  1  0  0  0
 37 47  1  0  0  0
 37 66  1  0  0  0
 37104  1  0  0  0
 38 43  2  0  0  0
 38 46  1  0  0  0
 38 47  1  0  0  0
 39 64  1  0  0  0
 39 67  2  0  0  0
 40 52  1  0  0  0
 40 53  2  0  0  0
 40 58  1  0  0  0
 41105  1  0  0  0
 41106  1  0  0  0
 41107  1  0  0  0
 41 48  1  0  0  0
 42 43  1  0  0  0
 42 66  1  0  0  0
 42108  1  0  0  0
 42109  1  0  0  0
 43 44  1  0  0  0
 44110  1  0  0  0
 45 46  2  0  0  0
 45111  1  0  0  0
 46112  1  0  0  0
 47113  1  0  0  0
 47114  1  0  0  0
 48 56  1  0  0  0
 48 65  1  0  0  0
 48115  1  0  0  0
 49 50  1  0  0  0
 49 53  1  0  0  0
 49 64  1  0  0  0
 49116  1  0  0  0
 50 51  1  0  0  0
 50117  1  0  0  0
 50118  1  0  0  0
 51 52  1  0  0  0
 51119  1  0  0  0
 51120  1  0  0  0
 52121  1  0  0  0
 52122  1  0  0  0
 53 54  1  0  0  0
 54 55  2  0  0  0
 54123  1  0  0  0
 55 57  1  0  0  0
 55124  1  0  0  0
 56 69  2  0  0  0
 57 58  2  0  0  0
 57125  1  0  0  0
 58126  1  0  0  0
 59 60  1  0  0  0
 59 61  1  0  0  0
 59 62  1  0  0  0
 60127  1  0  0  0
 60128  1  0  0  0
 60129  1  0  0  0
 61130  1  0  0  0
 61131  1  0  0  0
 61132  1  0  0  0
 62133  1  0  0  0
 62134  1  0  0  0
 62135  1  0  0  0
 63 65  1  0  0  0
 63136  1  0  0  0
 63137  1  0  0  0
 63138  1  0  0  0
 64139  1  0  0  0
 65140  1  0  0  0
 68 79  1  0  0  0
 71 73  2  0  0  0
 71 75  1  0  0  0
 71141  1  0  0  0
 72 74  1  0  0  0
 72 75  2  0  0  0
 72142  1  0  0  0
 73 76  1  0  0  0
 73143  1  0  0  0
 74 76  2  0  0  0
 74144  1  0  0  0
 75 80  1  0  0  0
 76 81  1  0  0  0
 77 78  1  0  0  0
 77 79  1  0  0  0
 77145  1  0  0  0
 77146  1  0  0  0
 78 81  1  0  0  0
 78147  1  0  0  0
 78148  1  0  0  0
 79149  1  0  0  0
 79150  1  0  0  0
 80151  1  0  0  0
 81152  1  0  0  0
M  ISO  4   1 100  68 101  79 101  80 100
M  END
> <chiral flag>
0

> <version>
0

> <s_m_source_file>
/data/baiqing/PycharmProjects/Reinvent-master-3.2/result/LINK_invent/BTK/process_docking_weight1_custom_product_contain_oxygen_bond_distance_aromatic_linkinvent_7_9_3/rearranged_h_0017.sdf

> <i_m_source_file_index>
5

> <r_mmod_Potential_Energy-OPLS-2005>
29.103796005249

> <r_mmod_Stretch_Energy-OPLS-2005>
76.0687026977539

> <r_mmod_Bend_Energy-OPLS-2005>
148.314880371094

> <r_mmod_Torsional_Energy-OPLS-2005>
225.574829101562

> <r_mmod_Improper_Torsional_Energy-OPLS-2005>
3.72424745559692

> <r_mmod_Van_der_Waal_Energy-OPLS-2005>
136.938903808594

> <r_mmod_Electrostatic_Energy-OPLS-2005>
-384.576385498047

> <r_mmod_Solvation_Energy-OPLS-2005>
-218.6865234375

> <b_mmod_Minimization_Converged-OPLS-2005>
0

> <r_mmod_RMS_Derivative-OPLS-2005>
4.06231117248535

$$$$
5
                    3D
 Structure written by MMmdl.
153161  0  0  1  0            999 V2000
  -30.6009  -14.8523   20.4180 C   0  0  0  0  0  0
  -30.4203  -12.5228   19.4969 C   0  0  0  0  0  0
  -29.5147  -12.5142   18.2461 C   0  0  0  0  0  0
  -28.0383  -12.3356   18.6506 C   0  0  0  0  0  0
  -27.6280  -13.2520   19.8338 C   0  0  2  0  0  0
  -28.6659  -13.2369   20.9700 C   0  0  0  0  0  0
  -25.2462  -13.8250   20.5695 C   0  0  0  0  0  0
  -24.1775  -13.0479   20.9227 C   0  0  0  0  0  0
  -24.6385  -11.6971   20.8758 C   0  0  0  0  0  0
  -23.9076  -10.4335   21.0400 C   0  0  0  0  0  0
  -24.3629   -9.4247   21.9166 C   0  0  0  0  0  0
  -23.6309   -8.2282   22.0754 C   0  0  0  0  0  0
  -22.4294   -8.0307   21.3545 C   0  0  0  0  0  0
  -21.9914   -9.0284   20.4647 C   0  0  0  0  0  0
  -22.7249  -10.2166   20.3045 C   0  0  0  0  0  0
  -21.6872   -6.0737   22.5279 C   0  0  0  0  0  0
  -21.4018   -6.5630   23.8215 C   0  0  0  0  0  0
  -21.3654   -5.6776   24.9170 C   0  0  0  0  0  0
  -21.6044   -4.3042   24.7223 C   0  0  0  0  0  0
  -21.8818   -3.8140   23.4345 C   0  0  0  0  0  0
  -21.9201   -4.6960   22.3407 C   0  0  0  0  0  0
  -22.7789  -13.5264   21.1836 C   0  0  0  0  0  0
  -22.1661   -4.2134   21.0983 F   0  0  0  0  0  0
  -21.5622   -3.4529   25.7739 F   0  0  0  0  0  0
  -29.9487  -13.6256   20.3826 N   0  0  0  0  0  0
  -26.2871  -12.9476   20.3212 N   0  0  0  0  0  0
  -25.9309  -11.6607   20.5721 N   0  0  0  0  0  0
  -22.0407  -12.8311   22.0407 N   0  0  0  0  0  0
  -25.4168  -15.1963   20.4097 N   0  0  0  0  0  0
  -31.8151  -14.8178   20.1937 O   0  0  0  0  0  0
  -21.6669   -6.8891   21.4248 O   0  0  0  0  0  0
  -22.3491  -14.5541   20.6634 O   0  0  0  0  0  0
  -24.6343  -31.8489   23.1908 C   0  0  0  0  0  0
  -25.9154  -32.4717   23.8260 C   0  0  1  0  0  0
  -27.2093  -27.1960   20.1647 C   0  0  0  0  0  0
  -25.5935  -33.8522   24.2184 N   0  0  0  0  0  0
  -23.4332  -30.4703   21.5355 C   0  0  2  0  0  0
  -24.8814  -28.8991   20.1147 C   0  0  0  0  0  0
  -22.7505  -29.4599   22.4893 C   0  0  0  0  0  0
  -18.0299  -28.1414   22.8486 C   0  0  0  0  0  0
  -24.1494  -36.7255   23.2639 C   0  0  0  0  0  0
  -25.9823  -30.7458   21.3773 C   0  0  0  0  0  0
  -26.0558  -29.3601   20.7246 C   0  0  0  0  0  0
  -27.2263  -28.5254   20.7266 C   0  0  0  0  0  0
  -26.0136  -26.8095   19.5298 C   0  0  0  0  0  0
  -24.8693  -27.6349   19.5025 C   0  0  0  0  0  0
  -23.6532  -29.7936   20.1560 C   0  0  0  0  0  0
  -25.4129  -36.3039   24.0307 C   0  0  1  0  0  0
  -20.5902  -28.3728   23.1259 C   0  0  2  0  0  0
  -20.6793  -26.9439   22.5420 C   0  0  0  0  0  0
  -19.5766  -26.6391   21.5230 C   0  0  0  0  0  0
  -18.1939  -26.7959   22.1638 C   0  0  0  0  0  0
  -19.1549  -28.8893   23.2871 C   0  0  0  0  0  0
  -18.9481  -30.1491   23.8876 C   0  0  0  0  0  0
  -17.6476  -30.6617   24.0570 C   0  0  0  0  0  0
  -25.9066  -34.9418   23.5049 C   0  0  0  0  0  0
  -16.5365  -29.9101   23.6361 C   0  0  0  0  0  0
  -16.7282  -28.6535   23.0362 C   0  0  0  0  0  0
  -26.4495  -31.6574   25.0676 C   0  0  0  0  0  0
  -25.3692  -31.3770   26.1379 C   0  0  0  0  0  0
  -27.0363  -30.2973   24.6243 C   0  0  0  0  0  0
  -27.6030  -32.4331   25.7472 C   0  0  0  0  0  0
  -27.5573  -37.1790   24.8461 C   0  0  0  0  0  0
  -21.4213  -29.3060   22.3628 N   0  0  0  0  0  0
  -26.4288  -37.3752   23.9404 N   0  0  0  0  0  0
  -24.7024  -31.0415   22.0901 N   0  0  0  0  0  0
  -23.4178  -28.8150   23.3025 O   0  0  0  0  0  0
  -28.2879  -26.2674   20.1661 O   0  0  0  0  0  0
  -26.5635  -34.8905   22.4617 O   0  0  0  0  0  0
  -23.5489  -32.1348   23.7174 O   0  0  0  0  0  0
  -28.7106  -16.7819   20.9258 C   0  0  0  0  0  0
  -28.2649  -18.1668   20.8477 C   0  0  0  0  0  0
  -30.7248  -17.4251   19.8746 C   0  0  0  0  0  0
  -29.9691  -16.3250   20.4086 C   0  0  0  0  0  0
  -29.0188  -19.2539   20.2712 C   0  0  0  0  0  0
  -30.2919  -18.8004   19.8024 C   0  0  0  0  0  0
  -27.2045  -20.4817   19.2594 C   0  0  0  0  0  0
  -28.4128  -23.4150   19.9348 C   0  0  0  0  0  0
  -28.6486  -21.9518   20.7073 C   0  0  0  0  0  0
  -28.1327  -24.8472   20.7230 C   0  0  0  0  0  0
  -28.4711  -20.6008   19.9782 N   0  0  0  0  0  0
  -31.3551  -19.9352   19.0455 Cl  0  0  0  0  0  0
  -31.4618  -12.6354   19.1968 H   0  0  0  0  0  0
  -30.3694  -11.5623   20.0120 H   0  0  0  0  0  0
  -29.8174  -11.7183   17.5647 H   0  0  0  0  0  0
  -29.6413  -13.4480   17.6980 H   0  0  0  0  0  0
  -27.8986  -11.2910   18.9299 H   0  0  0  0  0  0
  -27.3860  -12.5112   17.7946 H   0  0  0  0  0  0
  -27.6074  -14.2651   19.4302 H   0  0  0  0  0  0
  -28.7309  -12.2409   21.4122 H   0  0  0  0  0  0
  -28.3902  -13.9062   21.7847 H   0  0  0  0  0  0
  -25.2768   -9.5730   22.4739 H   0  0  0  0  0  0
  -24.0010   -7.4684   22.7478 H   0  0  0  0  0  0
  -21.0836   -8.8820   19.8966 H   0  0  0  0  0  0
  -22.3705  -10.9706   19.6159 H   0  0  0  0  0  0
  -21.2005   -7.6129   23.9728 H   0  0  0  0  0  0
  -21.1468   -6.0484   25.9076 H   0  0  0  0  0  0
  -22.0602   -2.7601   23.2851 H   0  0  0  0  0  0
  -22.4001  -12.0034   22.4911 H   0  0  0  0  0  0
  -21.1006  -13.1360   22.2490 H   0  0  0  0  0  0
  -24.6504  -15.8515   20.5127 H   0  0  0  0  0  0
  -26.2558  -15.6286   20.0454 H   0  0  0  0  0  0
  -26.7211  -32.5345   23.0989 H   0  0  0  0  0  0
  -25.0069  -33.9650   25.0322 H   0  0  0  0  0  0
  -22.7320  -31.2944   21.3829 H   0  0  0  0  0  0
  -23.3757  -35.9586   23.3292 H   0  0  0  0  0  0
  -24.3588  -36.8887   22.2057 H   0  0  0  0  0  0
  -23.7247  -37.6448   23.6680 H   0  0  0  0  0  0
  -26.1281  -31.5050   20.6074 H   0  0  0  0  0  0
  -26.8549  -30.7959   22.0165 H   0  0  0  0  0  0
  -28.1282  -28.8788   21.2066 H   0  0  0  0  0  0
  -25.9575  -25.8353   19.0643 H   0  0  0  0  0  0
  -23.9709  -27.2770   19.0182 H   0  0  0  0  0  0
  -23.7745  -30.5623   19.3925 H   0  0  0  0  0  0
  -22.7705  -29.2255   19.8567 H   0  0  0  0  0  0
  -25.1331  -36.1856   25.0799 H   0  0  0  0  0  0
  -21.0011  -28.3327   24.1378 H   0  0  0  0  0  0
  -20.5736  -26.2333   23.3636 H   0  0  0  0  0  0
  -21.6651  -26.7484   22.1188 H   0  0  0  0  0  0
  -19.6923  -25.6294   21.1273 H   0  0  0  0  0  0
  -19.6694  -27.3190   20.6748 H   0  0  0  0  0  0
  -17.4215  -26.6702   21.4031 H   0  0  0  0  0  0
  -18.0338  -26.0117   22.9054 H   0  0  0  0  0  0
  -19.7952  -30.7327   24.2207 H   0  0  0  0  0  0
  -17.5031  -31.6301   24.5165 H   0  0  0  0  0  0
  -15.5360  -30.2993   23.7723 H   0  0  0  0  0  0
  -15.8683  -28.0861   22.7070 H   0  0  0  0  0  0
  -24.5875  -30.7106   25.7705 H   0  0  0  0  0  0
  -24.8874  -32.2963   26.4722 H   0  0  0  0  0  0
  -25.7979  -30.9001   27.0201 H   0  0  0  0  0  0
  -26.2977  -29.6701   24.1234 H   0  0  0  0  0  0
  -27.3956  -29.7273   25.4822 H   0  0  0  0  0  0
  -27.8887  -30.4202   23.9562 H   0  0  0  0  0  0
  -27.2614  -33.3650   26.1995 H   0  0  0  0  0  0
  -28.3880  -32.6859   25.0332 H   0  0  0  0  0  0
  -28.0646  -31.8480   26.5437 H   0  0  0  0  0  0
  -28.2584  -38.0092   24.7515 H   0  0  0  0  0  0
  -28.1072  -36.2619   24.6293 H   0  0  0  0  0  0
  -27.2278  -37.1441   25.8858 H   0  0  0  0  0  0
  -20.9398  -29.8767   21.6812 H   0  0  0  0  0  0
  -26.0141  -38.2802   24.1452 H   0  0  0  0  0  0
  -28.0465  -16.0692   21.3913 H   0  0  0  0  0  0
  -27.2771  -18.3904   21.2255 H   0  0  0  0  0  0
  -31.7039  -17.2092   19.4710 H   0  0  0  0  0  0
  -27.1003  -21.2805   18.5244 H   0  0  0  0  0  0
  -26.3546  -20.5454   19.9405 H   0  0  0  0  0  0
  -27.1289  -19.5425   18.7072 H   0  0  0  0  0  0
  -27.5772  -23.3054   19.2467 H   0  0  0  0  0  0
  -29.2776  -23.5702   19.2908 H   0  0  0  0  0  0
  -27.9683  -21.9267   21.5618 H   0  0  0  0  0  0
  -29.6456  -21.9579   21.1493 H   0  0  0  0  0  0
  -27.1445  -24.7783   21.1805 H   0  0  0  0  0  0
  -28.8098  -24.8344   21.5771 H   0  0  0  0  0  0
  1 25  1  0  0  0
  1 30  2  0  0  0
  1 74  1  0  0  0
  2  3  1  0  0  0
  2 25  1  0  0  0
  2 83  1  0  0  0
  2 84  1  0  0  0
  3  4  1  0  0  0
  3 85  1  0  0  0
  3 86  1  0  0  0
  4  5  1  0  0  0
  4 87  1  0  0  0
  4 88  1  0  0  0
  5  6  1  0  0  0
  5 26  1  0  0  0
  5 89  1  0  0  0
  6 25  1  0  0  0
  6 90  1  0  0  0
  6 91  1  0  0  0
  7  8  2  0  0  0
  7 26  1  0  0  0
  7 29  1  0  0  0
  8  9  1  0  0  0
  8 22  1  0  0  0
  9 10  1  0  0  0
  9 27  2  0  0  0
 10 11  2  0  0  0
 10 15  1  0  0  0
 11 12  1  0  0  0
 11 92  1  0  0  0
 12 13  2  0  0  0
 12 93  1  0  0  0
 13 14  1  0  0  0
 13 31  1  0  0  0
 14 15  2  0  0  0
 14 94  1  0  0  0
 15 95  1  0  0  0
 16 17  2  0  0  0
 16 21  1  0  0  0
 16 31  1  0  0  0
 17 18  1  0  0  0
 17 96  1  0  0  0
 18 19  2  0  0  0
 18 97  1  0  0  0
 19 20  1  0  0  0
 19 24  1  0  0  0
 20 21  2  0  0  0
 20 98  1  0  0  0
 21 23  1  0  0  0
 22 28  1  0  0  0
 22 32  2  0  0  0
 26 27  1  0  0  0
 28 99  1  0  0  0
 28100  1  0  0  0
 29101  1  0  0  0
 29102  1  0  0  0
 33 34  1  0  0  0
 33 66  1  0  0  0
 33 70  2  0  0  0
 34 36  1  0  0  0
 34 59  1  0  0  0
 34103  1  0  0  0
 35 44  2  0  0  0
 35 45  1  0  0  0
 35 68  1  0  0  0
 36 56  1  0  0  0
 36104  1  0  0  0
 37 39  1  0  0  0
 37 47  1  0  0  0
 37 66  1  0  0  0
 37105  1  0  0  0
 38 43  2  0  0  0
 38 46  1  0  0  0
 38 47  1  0  0  0
 39 64  1  0  0  0
 39 67  2  0  0  0
 40 52  1  0  0  0
 40 53  2  0  0  0
 40 58  1  0  0  0
 41106  1  0  0  0
 41107  1  0  0  0
 41108  1  0  0  0
 41 48  1  0  0  0
 42 43  1  0  0  0
 42 66  1  0  0  0
 42109  1  0  0  0
 42110  1  0  0  0
 43 44  1  0  0  0
 44111  1  0  0  0
 45 46  2  0  0  0
 45112  1  0  0  0
 46113  1  0  0  0
 47114  1  0  0  0
 47115  1  0  0  0
 48 56  1  0  0  0
 48 65  1  0  0  0
 48116  1  0  0  0
 49 50  1  0  0  0
 49 53  1  0  0  0
 49 64  1  0  0  0
 49117  1  0  0  0
 50 51  1  0  0  0
 50118  1  0  0  0
 50119  1  0  0  0
 51 52  1  0  0  0
 51120  1  0  0  0
 51121  1  0  0  0
 52122  1  0  0  0
 52123  1  0  0  0
 53 54  1  0  0  0
 54 55  2  0  0  0
 54124  1  0  0  0
 55 57  1  0  0  0
 55125  1  0  0  0
 56 69  2  0  0  0
 57 58  2  0  0  0
 57126  1  0  0  0
 58127  1  0  0  0
 59 60  1  0  0  0
 59 61  1  0  0  0
 59 62  1  0  0  0
 60128  1  0  0  0
 60129  1  0  0  0
 60130  1  0  0  0
 61131  1  0  0  0
 61132  1  0  0  0
 61133  1  0  0  0
 62134  1  0  0  0
 62135  1  0  0  0
 62136  1  0  0  0
 63 65  1  0  0  0
 63137  1  0  0  0
 63138  1  0  0  0
 63139  1  0  0  0
 64140  1  0  0  0
 65141  1  0  0  0
 68 80  1  0  0  0
 71 72  2  0  0  0
 71 74  1  0  0  0
 71142  1  0  0  0
 72 75  1  0  0  0
 72143  1  0  0  0
 73 74  2  0  0  0
 73 76  1  0  0  0
 73144  1  0  0  0
 75 76  2  0  0  0
 75 81  1  0  0  0
 76 82  1  0  0  0
 77 81  1  0  0  0
 77145  1  0  0  0
 77146  1  0  0  0
 77147  1  0  0  0
 78 79  1  0  0  0
 78 80  1  0  0  0
 78148  1  0  0  0
 78149  1  0  0  0
 79 81  1  0  0  0
 79150  1  0  0  0
 79151  1  0  0  0
 80152  1  0  0  0
 80153  1  0  0  0
M  ISO  4   1 100  68 101  74 100  80 101
M  END
> <chiral flag>
0

> <version>
0

> <s_m_source_file>
/data/baiqing/PycharmProjects/Reinvent-master-3.2/result/LINK_invent/BTK/process_docking_weight1_custom_product_contain_oxygen_bond_distance_aromatic_linkinvent_7_9_3/rearranged_h_0017.sdf

> <i_m_source_file_index>
6

> <r_mmod_Potential_Energy-OPLS-2005>
476.624420166016

> <r_mmod_Stretch_Energy-OPLS-2005>
185.755477905273

> <r_mmod_Bend_Energy-OPLS-2005>
247.012908935547

> <r_mmod_Torsional_Energy-OPLS-2005>
239.749252319336

> <r_mmod_Improper_Torsional_Energy-OPLS-2005>
9.95525646209717

> <r_mmod_Van_der_Waal_Energy-OPLS-2005>
132.948394775391

> <r_mmod_Electrostatic_Energy-OPLS-2005>
-271.425750732422

> <r_mmod_Solvation_Energy-OPLS-2005>
-200.184478759766

> <b_mmod_Minimization_Converged-OPLS-2005>
0

> <r_mmod_RMS_Derivative-OPLS-2005>
2.72476530075073

$$$$
6
                    3D
 Structure written by MMmdl.
159168  0  0  1  0            999 V2000
  -30.6161  -14.7710   20.5530 C   0  0  0  0  0  0
  -30.4347  -12.4942   19.4776 C   0  0  0  0  0  0
  -29.5125  -12.5445   18.2386 C   0  0  0  0  0  0
  -28.0411  -12.3464   18.6465 C   0  0  0  0  0  0
  -27.6440  -13.2326   19.8543 C   0  0  2  0  0  0
  -28.6805  -13.1439   20.9911 C   0  0  0  0  0  0
  -25.2518  -13.8194   20.5682 C   0  0  0  0  0  0
  -24.1802  -13.0444   20.9184 C   0  0  0  0  0  0
  -24.6392  -11.6918   20.8719 C   0  0  0  0  0  0
  -23.9069  -10.4295   21.0397 C   0  0  0  0  0  0
  -24.3621   -9.4215   21.9179 C   0  0  0  0  0  0
  -23.6298   -8.2250   22.0755 C   0  0  0  0  0  0
  -22.4280   -8.0281   21.3545 C   0  0  0  0  0  0
  -21.9912   -9.0252   20.4647 C   0  0  0  0  0  0
  -22.7241  -10.2131   20.3052 C   0  0  0  0  0  0
  -21.6856   -6.0734   22.5277 C   0  0  0  0  0  0
  -21.4015   -6.5639   23.8210 C   0  0  0  0  0  0
  -21.3661   -5.6793   24.9172 C   0  0  0  0  0  0
  -21.6043   -4.3055   24.7224 C   0  0  0  0  0  0
  -21.8819   -3.8144   23.4346 C   0  0  0  0  0  0
  -21.9196   -4.6961   22.3403 C   0  0  0  0  0  0
  -22.7828  -13.5229   21.1866 C   0  0  0  0  0  0
  -22.1661   -4.2147   21.0980 F   0  0  0  0  0  0
  -21.5632   -3.4538   25.7736 F   0  0  0  0  0  0
  -29.9890  -13.5364   20.4407 N   0  0  0  0  0  0
  -26.2938  -12.9400   20.3261 N   0  0  0  0  0  0
  -25.9322  -11.6540   20.5714 N   0  0  0  0  0  0
  -22.0482  -12.8207   22.0421 N   0  0  0  0  0  0
  -25.4242  -15.1917   20.4134 N   0  0  0  0  0  0
  -31.7165  -14.9305   20.0134 O   0  0  0  0  0  0
  -21.6646   -6.8876   21.4238 O   0  0  0  0  0  0
  -22.3509  -14.5539   20.6729 O   0  0  0  0  0  0
  -24.6348  -31.8508   23.1932 C   0  0  0  0  0  0
  -25.9156  -32.4729   23.8295 C   0  0  1  0  0  0
  -27.2218  -27.2188   20.1423 C   0  0  0  0  0  0
  -25.5946  -33.8532   24.2220 N   0  0  0  0  0  0
  -23.4343  -30.4704   21.5370 C   0  0  2  0  0  0
  -24.8822  -28.9067   20.1111 C   0  0  0  0  0  0
  -22.7522  -29.4578   22.4895 C   0  0  0  0  0  0
  -18.0295  -28.1396   22.8480 C   0  0  0  0  0  0
  -24.1492  -36.7257   23.2642 C   0  0  0  0  0  0
  -25.9827  -30.7502   21.3788 C   0  0  0  0  0  0
  -26.0544  -29.3680   20.7230 C   0  0  0  0  0  0
  -27.2264  -28.5385   20.7220 C   0  0  0  0  0  0
  -26.0285  -26.8384   19.4900 C   0  0  0  0  0  0
  -24.8771  -27.6525   19.4810 C   0  0  0  0  0  0
  -23.6544  -29.7979   20.1558 C   0  0  0  0  0  0
  -25.4119  -36.3046   24.0327 C   0  0  1  0  0  0
  -20.5898  -28.3706   23.1260 C   0  0  2  0  0  0
  -20.6777  -26.9422   22.5403 C   0  0  0  0  0  0
  -19.5757  -26.6383   21.5207 C   0  0  0  0  0  0
  -18.1937  -26.7938   22.1616 C   0  0  0  0  0  0
  -19.1549  -28.8870   23.2862 C   0  0  0  0  0  0
  -18.9469  -30.1472   23.8881 C   0  0  0  0  0  0
  -17.6466  -30.6598   24.0558 C   0  0  0  0  0  0
  -25.9067  -34.9426   23.5075 C   0  0  0  0  0  0
  -16.5357  -29.9089   23.6342 C   0  0  0  0  0  0
  -16.7279  -28.6507   23.0361 C   0  0  0  0  0  0
  -26.4513  -31.6580   25.0709 C   0  0  0  0  0  0
  -25.3724  -31.3745   26.1421 C   0  0  0  0  0  0
  -27.0370  -30.2990   24.6239 C   0  0  0  0  0  0
  -27.6055  -32.4340   25.7484 C   0  0  0  0  0  0
  -27.5582  -37.1774   24.8460 C   0  0  0  0  0  0
  -21.4222  -29.3044   22.3639 N   0  0  0  0  0  0
  -26.4279  -37.3760   23.9431 N   0  0  0  0  0  0
  -24.7028  -31.0438   22.0919 N   0  0  0  0  0  0
  -23.4204  -28.8129   23.3015 O   0  0  0  0  0  0
  -28.3207  -26.3163   20.1929 O   0  0  0  0  0  0
  -26.5640  -34.8920   22.4645 O   0  0  0  0  0  0
  -23.5487  -32.1340   23.7209 O   0  0  0  0  0  0
  -29.8697  -19.3931   19.6408 C   0  0  0  0  0  0
  -30.1030  -17.9717   19.8286 C   0  0  0  0  0  0
  -28.9017  -19.5293   21.7874 C   0  0  0  0  0  0
  -29.2778  -20.2582   20.6233 C   0  0  0  0  0  0
  -29.7639  -17.2570   21.0252 C   0  0  0  0  0  0
  -29.1132  -18.1214   21.9778 C   0  0  0  0  0  0
  -28.8224  -23.9435   19.1192 C   0  0  0  0  0  0
  -28.7323  -24.1037   21.5253 C   0  0  0  0  0  0
  -28.6840  -22.3496   19.2093 C   0  0  0  0  0  0
  -28.5553  -22.5223   21.6229 C   0  0  0  0  0  0
  -28.1437  -24.7990   20.2522 C   0  0  0  0  0  0
  -30.1516  -15.4487   22.7635 C   0  0  0  0  0  0
  -29.0938  -21.7179   20.4914 N   0  0  0  0  0  0
  -30.0455  -15.7886   21.3292 N   0  0  0  0  0  0
  -28.6417  -17.6197   23.1444 F   0  0  0  0  0  0
  -31.4749  -12.6271   19.1762 H   0  0  0  0  0  0
  -30.3906  -11.5082   19.9429 H   0  0  0  0  0  0
  -29.8056  -11.7824   17.5156 H   0  0  0  0  0  0
  -29.6259  -13.5056   17.7340 H   0  0  0  0  0  0
  -27.9058  -11.2941   18.8996 H   0  0  0  0  0  0
  -27.3822  -12.5428   17.8002 H   0  0  0  0  0  0
  -27.6459  -14.2612   19.4925 H   0  0  0  0  0  0
  -28.7254  -12.1335   21.3992 H   0  0  0  0  0  0
  -28.3632  -13.7803   21.8138 H   0  0  0  0  0  0
  -25.2769   -9.5692   22.4751 H   0  0  0  0  0  0
  -24.0008   -7.4640   22.7475 H   0  0  0  0  0  0
  -21.0844   -8.8768   19.8949 H   0  0  0  0  0  0
  -22.3700  -10.9667   19.6156 H   0  0  0  0  0  0
  -21.2002   -7.6147   23.9713 H   0  0  0  0  0  0
  -21.1484   -6.0522   25.9077 H   0  0  0  0  0  0
  -22.0595   -2.7604   23.2847 H   0  0  0  0  0  0
  -22.4095  -11.9845   22.4766 H   0  0  0  0  0  0
  -21.1107  -13.1231   22.2662 H   0  0  0  0  0  0
  -24.6654  -15.8530   20.5370 H   0  0  0  0  0  0
  -26.2892  -15.6295   20.1222 H   0  0  0  0  0  0
  -26.7223  -32.5360   23.1031 H   0  0  0  0  0  0
  -25.0104  -33.9656   25.0377 H   0  0  0  0  0  0
  -22.7328  -31.2931   21.3854 H   0  0  0  0  0  0
  -23.3771  -35.9566   23.3260 H   0  0  0  0  0  0
  -24.3589  -36.8925   22.2065 H   0  0  0  0  0  0
  -23.7223  -37.6435   23.6697 H   0  0  0  0  0  0
  -26.1291  -31.5076   20.6076 H   0  0  0  0  0  0
  -26.8569  -30.7980   22.0164 H   0  0  0  0  0  0
  -28.1247  -28.8884   21.2108 H   0  0  0  0  0  0
  -25.9643  -25.8873   18.9830 H   0  0  0  0  0  0
  -23.9828  -27.2974   18.9877 H   0  0  0  0  0  0
  -23.7800  -30.5696   19.3960 H   0  0  0  0  0  0
  -22.7726  -29.2303   19.8527 H   0  0  0  0  0  0
  -25.1303  -36.1865   25.0816 H   0  0  0  0  0  0
  -20.9990  -28.3284   24.1382 H   0  0  0  0  0  0
  -20.5669  -26.2322   23.3609 H   0  0  0  0  0  0
  -21.6645  -26.7440   22.1199 H   0  0  0  0  0  0
  -19.6914  -25.6288   21.1249 H   0  0  0  0  0  0
  -19.6703  -27.3181   20.6731 H   0  0  0  0  0  0
  -17.4208  -26.6693   21.4017 H   0  0  0  0  0  0
  -18.0338  -26.0085   22.9014 H   0  0  0  0  0  0
  -19.7945  -30.7290   24.2245 H   0  0  0  0  0  0
  -17.5024  -31.6280   24.5152 H   0  0  0  0  0  0
  -15.5356  -30.2981   23.7691 H   0  0  0  0  0  0
  -15.8678  -28.0819   22.7092 H   0  0  0  0  0  0
  -24.5909  -30.7084   25.7753 H   0  0  0  0  0  0
  -24.8902  -32.2911   26.4824 H   0  0  0  0  0  0
  -25.8027  -30.8940   27.0215 H   0  0  0  0  0  0
  -26.2963  -29.6721   24.1261 H   0  0  0  0  0  0
  -27.4026  -29.7289   25.4790 H   0  0  0  0  0  0
  -27.8856  -30.4251   23.9514 H   0  0  0  0  0  0
  -27.2663  -33.3675   26.1990 H   0  0  0  0  0  0
  -28.3900  -32.6841   25.0329 H   0  0  0  0  0  0
  -28.0680  -31.8507   26.5455 H   0  0  0  0  0  0
  -28.2554  -38.0119   24.7568 H   0  0  0  0  0  0
  -28.1124  -36.2649   24.6196 H   0  0  0  0  0  0
  -27.2313  -37.1310   25.8865 H   0  0  0  0  0  0
  -20.9420  -29.8759   21.6828 H   0  0  0  0  0  0
  -26.0137  -38.2819   24.1471 H   0  0  0  0  0  0
  -30.1953  -19.8274   18.7068 H   0  0  0  0  0  0
  -30.5853  -17.4325   19.0261 H   0  0  0  0  0  0
  -28.4152  -20.0481   22.5986 H   0  0  0  0  0  0
  -28.4276  -24.2699   18.1562 H   0  0  0  0  0  0
  -29.8839  -24.1923   19.0903 H   0  0  0  0  0  0
  -29.7947  -24.3410   21.5971 H   0  0  0  0  0  0
  -28.2757  -24.5560   22.4058 H   0  0  0  0  0  0
  -29.2563  -21.9050   18.3944 H   0  0  0  0  0  0
  -27.6431  -22.0797   19.0230 H   0  0  0  0  0  0
  -27.4949  -22.2908   21.7319 H   0  0  0  0  0  0
  -29.0337  -22.1943   22.5470 H   0  0  0  0  0  0
  -27.0813  -24.5612   20.2546 H   0  0  0  0  0  0
  -30.6921  -16.2259   23.3047 H   0  0  0  0  0  0
  -30.6903  -14.5202   22.9729 H   0  0  0  0  0  0
  -29.1666  -15.3396   23.2164 H   0  0  0  0  0  0
  1 25  1  0  0  0
  1 30  2  0  0  0
  1 84  1  0  0  0
  2  3  1  0  0  0
  2 25  1  0  0  0
  2 86  1  0  0  0
  2 87  1  0  0  0
  3  4  1  0  0  0
  3 88  1  0  0  0
  3 89  1  0  0  0
  4  5  1  0  0  0
  4 90  1  0  0  0
  4 91  1  0  0  0
  5  6  1  0  0  0
  5 26  1  0  0  0
  5 92  1  0  0  0
  6 25  1  0  0  0
  6 93  1  0  0  0
  6 94  1  0  0  0
  7  8  2  0  0  0
  7 26  1  0  0  0
  7 29  1  0  0  0
  8  9  1  0  0  0
  8 22  1  0  0  0
  9 10  1  0  0  0
  9 27  2  0  0  0
 10 11  2  0  0  0
 10 15  1  0  0  0
 11 12  1  0  0  0
 11 95  1  0  0  0
 12 13  2  0  0  0
 12 96  1  0  0  0
 13 14  1  0  0  0
 13 31  1  0  0  0
 14 15  2  0  0  0
 14 97  1  0  0  0
 15 98  1  0  0  0
 16 17  2  0  0  0
 16 21  1  0  0  0
 16 31  1  0  0  0
 17 18  1  0  0  0
 17 99  1  0  0  0
 18 19  2  0  0  0
 18100  1  0  0  0
 19 20  1  0  0  0
 19 24  1  0  0  0
 20 21  2  0  0  0
 20101  1  0  0  0
 21 23  1  0  0  0
 22 28  1  0  0  0
 22 32  2  0  0  0
 26 27  1  0  0  0
 28102  1  0  0  0
 28103  1  0  0  0
 29104  1  0  0  0
 29105  1  0  0  0
 33 34  1  0  0  0
 33 66  1  0  0  0
 33 70  2  0  0  0
 34 36  1  0  0  0
 34 59  1  0  0  0
 34106  1  0  0  0
 35 44  2  0  0  0
 35 45  1  0  0  0
 35 68  1  0  0  0
 36 56  1  0  0  0
 36107  1  0  0  0
 37 39  1  0  0  0
 37 47  1  0  0  0
 37 66  1  0  0  0
 37108  1  0  0  0
 38 43  2  0  0  0
 38 46  1  0  0  0
 38 47  1  0  0  0
 39 64  1  0  0  0
 39 67  2  0  0  0
 40 52  1  0  0  0
 40 53  2  0  0  0
 40 58  1  0  0  0
 41109  1  0  0  0
 41110  1  0  0  0
 41111  1  0  0  0
 41 48  1  0  0  0
 42 43  1  0  0  0
 42 66  1  0  0  0
 42112  1  0  0  0
 42113  1  0  0  0
 43 44  1  0  0  0
 44114  1  0  0  0
 45 46  2  0  0  0
 45115  1  0  0  0
 46116  1  0  0  0
 47117  1  0  0  0
 47118  1  0  0  0
 48 56  1  0  0  0
 48 65  1  0  0  0
 48119  1  0  0  0
 49 50  1  0  0  0
 49 53  1  0  0  0
 49 64  1  0  0  0
 49120  1  0  0  0
 50 51  1  0  0  0
 50121  1  0  0  0
 50122  1  0  0  0
 51 52  1  0  0  0
 51123  1  0  0  0
 51124  1  0  0  0
 52125  1  0  0  0
 52126  1  0  0  0
 53 54  1  0  0  0
 54 55  2  0  0  0
 54127  1  0  0  0
 55 57  1  0  0  0
 55128  1  0  0  0
 56 69  2  0  0  0
 57 58  2  0  0  0
 57129  1  0  0  0
 58130  1  0  0  0
 59 60  1  0  0  0
 59 61  1  0  0  0
 59 62  1  0  0  0
 60131  1  0  0  0
 60132  1  0  0  0
 60133  1  0  0  0
 61134  1  0  0  0
 61135  1  0  0  0
 61136  1  0  0  0
 62137  1  0  0  0
 62138  1  0  0  0
 62139  1  0  0  0
 63 65  1  0  0  0
 63140  1  0  0  0
 63141  1  0  0  0
 63142  1  0  0  0
 64143  1  0  0  0
 65144  1  0  0  0
 68 81  1  0  0  0
 71 72  2  0  0  0
 71 74  1  0  0  0
 71145  1  0  0  0
 72 75  1  0  0  0
 72146  1  0  0  0
 73 74  2  0  0  0
 73 76  1  0  0  0
 73147  1  0  0  0
 74 83  1  0  0  0
 75 76  2  0  0  0
 75 84  1  0  0  0
 76 85  1  0  0  0
 77 79  1  0  0  0
 77 81  1  0  0  0
 77148  1  0  0  0
 77149  1  0  0  0
 78 80  1  0  0  0
 78 81  1  0  0  0
 78150  1  0  0  0
 78151  1  0  0  0
 79 83  1  0  0  0
 79152  1  0  0  0
 79153  1  0  0  0
 80 83  1  0  0  0
 80154  1  0  0  0
 80155  1  0  0  0
 81156  1  0  0  0
 82 84  1  0  0  0
 82157  1  0  0  0
 82158  1  0  0  0
 82159  1  0  0  0
M  ISO  4   1 100  68 101  81 101  84 100
M  END
> <chiral flag>
0

> <version>
0

> <s_m_source_file>
/data/baiqing/PycharmProjects/Reinvent-master-3.2/result/LINK_invent/BTK/process_docking_weight1_custom_product_contain_oxygen_bond_distance_aromatic_linkinvent_7_9_3/rearranged_h_0017.sdf

> <i_m_source_file_index>
7

> <r_mmod_Potential_Energy-OPLS-2005>
392.996978759766

> <r_mmod_Stretch_Energy-OPLS-2005>
152.329360961914

> <r_mmod_Bend_Energy-OPLS-2005>
211.351501464844

> <r_mmod_Torsional_Energy-OPLS-2005>
302.739624023438

> <r_mmod_Improper_Torsional_Energy-OPLS-2005>
5.84255886077881

> <r_mmod_Van_der_Waal_Energy-OPLS-2005>
156.664749145508

> <r_mmod_Electrostatic_Energy-OPLS-2005>
-331.167694091797

> <r_mmod_Solvation_Energy-OPLS-2005>
-205.155532836914

> <b_mmod_Minimization_Converged-OPLS-2005>
0

> <r_mmod_RMS_Derivative-OPLS-2005>
0.996377766132355

$$$$
7
                    3D
 Structure written by MMmdl.
165173  0  0  1  0            999 V2000
  -30.7751  -14.4685   20.3204 C   0  0  0  0  0  0
  -30.4372  -12.2477   19.4092 C   0  0  0  0  0  0
  -29.4918  -12.3583   18.1940 C   0  0  0  0  0  0
  -28.0142  -12.2895   18.6335 C   0  0  0  0  0  0
  -27.6679  -13.1976   19.8491 C   0  0  2  0  0  0
  -28.7402  -13.0756   20.9530 C   0  0  0  0  0  0
  -25.2718  -13.8176   20.5718 C   0  0  0  0  0  0
  -24.1923  -13.0480   20.9117 C   0  0  0  0  0  0
  -24.6420  -11.6950   20.8652 C   0  0  0  0  0  0
  -23.9087  -10.4305   21.0315 C   0  0  0  0  0  0
  -24.3624   -9.4221   21.9108 C   0  0  0  0  0  0
  -23.6274   -8.2283   22.0732 C   0  0  0  0  0  0
  -22.4232   -8.0312   21.3549 C   0  0  0  0  0  0
  -21.9854   -9.0303   20.4670 C   0  0  0  0  0  0
  -22.7200  -10.2177   20.3070 C   0  0  0  0  0  0
  -21.6886   -6.0690   22.5217 C   0  0  0  0  0  0
  -21.4016   -6.5582   23.8154 C   0  0  0  0  0  0
  -21.3624   -5.6742   24.9122 C   0  0  0  0  0  0
  -21.6077   -4.3038   24.7189 C   0  0  0  0  0  0
  -21.8845   -3.8109   23.4317 C   0  0  0  0  0  0
  -21.9182   -4.6907   22.3351 C   0  0  0  0  0  0
  -22.7948  -13.5308   21.1794 C   0  0  0  0  0  0
  -22.1670   -4.2081   21.0935 F   0  0  0  0  0  0
  -21.5664   -3.4571   25.7729 F   0  0  0  0  0  0
  -30.0553  -13.3159   20.3387 N   0  0  0  0  0  0
  -26.3151  -12.9315   20.3394 N   0  0  0  0  0  0
  -25.9321  -11.6503   20.5743 N   0  0  0  0  0  0
  -22.0689  -12.8365   22.0462 N   0  0  0  0  0  0
  -25.4509  -15.1868   20.4334 N   0  0  0  0  0  0
  -31.9905  -14.4949   20.5002 O   0  0  0  0  0  0
  -21.6655   -6.8881   21.4226 O   0  0  0  0  0  0
  -22.3545  -14.5539   20.6590 O   0  0  0  0  0  0
  -24.6144  -31.8695   23.2094 C   0  0  0  0  0  0
  -25.9075  -32.4831   23.8372 C   0  0  1  0  0  0
  -27.2443  -27.4590   20.0762 C   0  0  0  0  0  0
  -25.5948  -33.8619   24.2343 N   0  0  0  0  0  0
  -23.4014  -30.4899   21.5493 C   0  0  2  0  0  0
  -24.8514  -28.9571   20.1194 C   0  0  0  0  0  0
  -22.7417  -29.4673   22.5018 C   0  0  0  0  0  0
  -18.0267  -28.1355   22.8483 C   0  0  0  0  0  0
  -24.1480  -36.7281   23.2621 C   0  0  0  0  0  0
  -25.9320  -30.8373   21.3640 C   0  0  0  0  0  0
  -26.0093  -29.4785   20.7032 C   0  0  0  0  0  0
  -27.2146  -28.7404   20.6736 C   0  0  0  0  0  0
  -26.0654  -26.9412   19.4991 C   0  0  0  0  0  0
  -24.8708  -27.6862   19.5103 C   0  0  0  0  0  0
  -23.6101  -29.8178   20.1674 C   0  0  0  0  0  0
  -25.4114  -36.3107   24.0335 C   0  0  1  0  0  0
  -20.5863  -28.3655   23.1299 C   0  0  2  0  0  0
  -20.6766  -26.9387   22.5411 C   0  0  0  0  0  0
  -19.5765  -26.6372   21.5191 C   0  0  0  0  0  0
  -18.1931  -26.7894   22.1599 C   0  0  0  0  0  0
  -19.1521  -28.8820   23.2881 C   0  0  0  0  0  0
  -18.9447  -30.1422   23.8893 C   0  0  0  0  0  0
  -17.6450  -30.6555   24.0545 C   0  0  0  0  0  0
  -25.9049  -34.9489   23.5120 C   0  0  0  0  0  0
  -16.5342  -29.9057   23.6309 C   0  0  0  0  0  0
  -16.7260  -28.6472   23.0340 C   0  0  0  0  0  0
  -26.4499  -31.6586   25.0698 C   0  0  0  0  0  0
  -25.3751  -31.3746   26.1439 C   0  0  0  0  0  0
  -27.0311  -30.3000   24.6096 C   0  0  0  0  0  0
  -27.6110  -32.4296   25.7444 C   0  0  0  0  0  0
  -27.5586  -37.1791   24.8462 C   0  0  0  0  0  0
  -21.4151  -29.3016   22.3744 N   0  0  0  0  0  0
  -26.4306  -37.3797   23.9416 N   0  0  0  0  0  0
  -24.6663  -31.0804   22.0976 N   0  0  0  0  0  0
  -23.4192  -28.8219   23.3088 O   0  0  0  0  0  0
  -28.4168  -26.7421   20.0370 O   0  0  0  0  0  0
  -26.5569  -34.8935   22.4654 O   0  0  0  0  0  0
  -23.5355  -32.1468   23.7476 O   0  0  0  0  0  0
  -28.2975  -18.4695   18.8435 C   0  0  0  0  0  0
  -27.7731  -17.5740   21.0420 C   0  0  0  0  0  0
  -29.2331  -17.4371   18.6638 C   0  0  0  0  0  0
  -28.7296  -16.5570   20.8698 C   0  0  0  0  0  0
  -27.5297  -18.5141   20.0185 C   0  0  0  0  0  0
  -29.4396  -16.4396   19.6504 C   0  0  0  0  0  0
  -31.1376  -15.4183   18.1485 C   0  0  0  0  0  0
  -25.8956  -21.0665   22.0226 C   0  0  0  0  0  0
  -26.4246  -19.5443   20.1774 C   0  0  0  0  0  0
  -27.9235  -23.0412   20.8762 C   0  0  0  0  0  0
  -28.2605  -24.2589   19.9916 C   0  0  0  0  0  0
  -27.3325  -21.8405   20.0997 C   0  0  0  0  0  0
  -28.4287  -25.5498   20.8250 C   0  0  0  0  0  0
  -30.3270  -15.3443   19.3854 N   0  0  0  0  0  0
  -26.8879  -20.7079   20.9704 N   0  3  1  0  0  0
  -31.4804  -12.3287   19.0914 H   0  0  0  0  0  0
  -30.3421  -11.2755   19.9021 H   0  0  0  0  0  0
  -29.7044  -11.5422   17.5006 H   0  0  0  0  0  0
  -29.6629  -13.2732   17.6284 H   0  0  0  0  0  0
  -27.8141  -11.2462   18.8782 H   0  0  0  0  0  0
  -27.3637  -12.5305   17.7942 H   0  0  0  0  0  0
  -27.6793  -14.2143   19.4706 H   0  0  0  0  0  0
  -28.7248  -12.0743   21.3829 H   0  0  0  0  0  0
  -28.5486  -13.7547   21.7813 H   0  0  0  0  0  0
  -25.2819   -9.5689   22.4588 H   0  0  0  0  0  0
  -23.9969   -7.4712   22.7448 H   0  0  0  0  0  0
  -21.0757   -8.8854   19.9021 H   0  0  0  0  0  0
  -22.3637  -10.9708   19.6159 H   0  0  0  0  0  0
  -21.2029   -7.6089   23.9638 H   0  0  0  0  0  0
  -21.1416   -6.0465   25.9004 H   0  0  0  0  0  0
  -22.0654   -2.7581   23.2816 H   0  0  0  0  0  0
  -22.4370  -11.9998   22.4725 H   0  0  0  0  0  0
  -21.1381  -13.1481   22.2799 H   0  0  0  0  0  0
  -24.6849  -15.8368   20.5646 H   0  0  0  0  0  0
  -26.3367  -15.6459   20.2629 H   0  0  0  0  0  0
  -26.7138  -32.5545   23.1135 H   0  0  0  0  0  0
  -25.0196  -33.9779   25.0541 H   0  0  0  0  0  0
  -22.6886  -31.3053   21.4099 H   0  0  0  0  0  0
  -23.3763  -35.9582   23.3294 H   0  0  0  0  0  0
  -24.3575  -36.8869   22.2026 H   0  0  0  0  0  0
  -23.7205  -37.6489   23.6596 H   0  0  0  0  0  0
  -26.0515  -31.6127   20.6066 H   0  0  0  0  0  0
  -26.8153  -30.8776   21.9901 H   0  0  0  0  0  0
  -28.1211  -29.1510   21.0946 H   0  0  0  0  0  0
  -26.0643  -25.9763   19.0186 H   0  0  0  0  0  0
  -23.9802  -27.2782   19.0536 H   0  0  0  0  0  0
  -23.7124  -30.5861   19.4013 H   0  0  0  0  0  0
  -22.7375  -29.2295   19.8787 H   0  0  0  0  0  0
  -25.1279  -36.1972   25.0828 H   0  0  0  0  0  0
  -20.9926  -28.3195   24.1430 H   0  0  0  0  0  0
  -20.5632  -26.2265   23.3596 H   0  0  0  0  0  0
  -21.6645  -26.7415   22.1235 H   0  0  0  0  0  0
  -19.6920  -25.6280   21.1210 H   0  0  0  0  0  0
  -19.6686  -27.3183   20.6717 H   0  0  0  0  0  0
  -17.4208  -26.6630   21.3983 H   0  0  0  0  0  0
  -18.0329  -26.0022   22.8985 H   0  0  0  0  0  0
  -19.7939  -30.7233   24.2259 H   0  0  0  0  0  0
  -17.5015  -31.6234   24.5157 H   0  0  0  0  0  0
  -15.5344  -30.2955   23.7640 H   0  0  0  0  0  0
  -15.8667  -28.0787   22.7054 H   0  0  0  0  0  0
  -24.5939  -30.7065   25.7786 H   0  0  0  0  0  0
  -24.8913  -32.2913   26.4797 H   0  0  0  0  0  0
  -25.8085  -30.8982   27.0230 H   0  0  0  0  0  0
  -26.2841  -29.6795   24.1119 H   0  0  0  0  0  0
  -27.4009  -29.7232   25.4582 H   0  0  0  0  0  0
  -27.8713  -30.4286   23.9282 H   0  0  0  0  0  0
  -27.2747  -33.3586   26.2050 H   0  0  0  0  0  0
  -28.3877  -32.6864   25.0236 H   0  0  0  0  0  0
  -28.0793  -31.8388   26.5316 H   0  0  0  0  0  0
  -28.2626  -38.0076   24.7545 H   0  0  0  0  0  0
  -28.1079  -36.2615   24.6252 H   0  0  0  0  0  0
  -27.2309  -37.1408   25.8873 H   0  0  0  0  0  0
  -20.9332  -29.8742   21.6963 H   0  0  0  0  0  0
  -26.0193  -38.2878   24.1420 H   0  0  0  0  0  0
  -28.1523  -19.1970   18.0525 H   0  0  0  0  0  0
  -27.2033  -17.5998   21.9603 H   0  0  0  0  0  0
  -29.7747  -17.4433   17.7277 H   0  0  0  0  0  0
  -28.8701  -15.8627   21.6824 H   0  0  0  0  0  0
  -30.4784  -15.3925   17.2807 H   0  0  0  0  0  0
  -31.8333  -14.5854   18.0202 H   0  0  0  0  0  0
  -31.7304  -16.3305   18.1153 H   0  0  0  0  0  0
  -25.5725  -20.1817   22.5739 H   0  0  0  0  0  0
  -25.0024  -21.5175   21.5878 H   0  0  0  0  0  0
  -26.2972  -21.7402   22.7799 H   0  0  0  0  0  0
  -25.5877  -19.0324   20.6578 H   0  0  0  0  0  0
  -26.0361  -19.8529   19.2043 H   0  0  0  0  0  0
  -27.2021  -23.3655   21.6234 H   0  0  0  0  0  0
  -28.8151  -22.7322   21.4227 H   0  0  0  0  0  0
  -27.4671  -24.3891   19.2605 H   0  0  0  0  0  0
  -29.1637  -24.0642   19.4109 H   0  0  0  0  0  0
  -28.0916  -21.4849   19.3954 H   0  0  0  0  0  0
  -26.4875  -22.1795   19.4971 H   0  0  0  0  0  0
  -29.3780  -25.5053   21.3602 H   0  0  0  0  0  0
  -27.6638  -25.6031   21.6025 H   0  0  0  0  0  0
  -27.7073  -20.3812   21.4627 H   0  0  0  0  0  0
  1 25  1  0  0  0
  1 30  2  0  0  0
  1 84  1  0  0  0
  2  3  1  0  0  0
  2 25  1  0  0  0
  2 86  1  0  0  0
  2 87  1  0  0  0
  3  4  1  0  0  0
  3 88  1  0  0  0
  3 89  1  0  0  0
  4  5  1  0  0  0
  4 90  1  0  0  0
  4 91  1  0  0  0
  5  6  1  0  0  0
  5 26  1  0  0  0
  5 92  1  0  0  0
  6 25  1  0  0  0
  6 93  1  0  0  0
  6 94  1  0  0  0
  7  8  2  0  0  0
  7 26  1  0  0  0
  7 29  1  0  0  0
  8  9  1  0  0  0
  8 22  1  0  0  0
  9 10  1  0  0  0
  9 27  2  0  0  0
 10 11  2  0  0  0
 10 15  1  0  0  0
 11 12  1  0  0  0
 11 95  1  0  0  0
 12 13  2  0  0  0
 12 96  1  0  0  0
 13 14  1  0  0  0
 13 31  1  0  0  0
 14 15  2  0  0  0
 14 97  1  0  0  0
 15 98  1  0  0  0
 16 17  2  0  0  0
 16 21  1  0  0  0
 16 31  1  0  0  0
 17 18  1  0  0  0
 17 99  1  0  0  0
 18 19  2  0  0  0
 18100  1  0  0  0
 19 20  1  0  0  0
 19 24  1  0  0  0
 20 21  2  0  0  0
 20101  1  0  0  0
 21 23  1  0  0  0
 22 28  1  0  0  0
 22 32  2  0  0  0
 26 27  1  0  0  0
 28102  1  0  0  0
 28103  1  0  0  0
 29104  1  0  0  0
 29105  1  0  0  0
 33 34  1  0  0  0
 33 66  1  0  0  0
 33 70  2  0  0  0
 34 36  1  0  0  0
 34 59  1  0  0  0
 34106  1  0  0  0
 35 44  2  0  0  0
 35 45  1  0  0  0
 35 68  1  0  0  0
 36 56  1  0  0  0
 36107  1  0  0  0
 37 39  1  0  0  0
 37 47  1  0  0  0
 37 66  1  0  0  0
 37108  1  0  0  0
 38 43  2  0  0  0
 38 46  1  0  0  0
 38 47  1  0  0  0
 39 64  1  0  0  0
 39 67  2  0  0  0
 40 52  1  0  0  0
 40 53  2  0  0  0
 40 58  1  0  0  0
 41109  1  0  0  0
 41110  1  0  0  0
 41111  1  0  0  0
 41 48  1  0  0  0
 42 43  1  0  0  0
 42 66  1  0  0  0
 42112  1  0  0  0
 42113  1  0  0  0
 43 44  1  0  0  0
 44114  1  0  0  0
 45 46  2  0  0  0
 45115  1  0  0  0
 46116  1  0  0  0
 47117  1  0  0  0
 47118  1  0  0  0
 48 56  1  0  0  0
 48 65  1  0  0  0
 48119  1  0  0  0
 49 50  1  0  0  0
 49 53  1  0  0  0
 49 64  1  0  0  0
 49120  1  0  0  0
 50 51  1  0  0  0
 50121  1  0  0  0
 50122  1  0  0  0
 51 52  1  0  0  0
 51123  1  0  0  0
 51124  1  0  0  0
 52125  1  0  0  0
 52126  1  0  0  0
 53 54  1  0  0  0
 54 55  2  0  0  0
 54127  1  0  0  0
 55 57  1  0  0  0
 55128  1  0  0  0
 56 69  2  0  0  0
 57 58  2  0  0  0
 57129  1  0  0  0
 58130  1  0  0  0
 59 60  1  0  0  0
 59 61  1  0  0  0
 59 62  1  0  0  0
 60131  1  0  0  0
 60132  1  0  0  0
 60133  1  0  0  0
 61134  1  0  0  0
 61135  1  0  0  0
 61136  1  0  0  0
 62137  1  0  0  0
 62138  1  0  0  0
 62139  1  0  0  0
 63 65  1  0  0  0
 63140  1  0  0  0
 63141  1  0  0  0
 63142  1  0  0  0
 64143  1  0  0  0
 65144  1  0  0  0
 68 83  1  0  0  0
 71 73  2  0  0  0
 71 75  1  0  0  0
 71145  1  0  0  0
 72 74  1  0  0  0
 72 75  2  0  0  0
 72146  1  0  0  0
 73 76  1  0  0  0
 73147  1  0  0  0
 74 76  2  0  0  0
 74148  1  0  0  0
 75 79  1  0  0  0
 76 84  1  0  0  0
 77 84  1  0  0  0
 77149  1  0  0  0
 77150  1  0  0  0
 77151  1  0  0  0
 78152  1  0  0  0
 78153  1  0  0  0
 78154  1  0  0  0
 78 85  1  0  0  0
 79 85  1  0  0  0
 79155  1  0  0  0
 79156  1  0  0  0
 80 81  1  0  0  0
 80 82  1  0  0  0
 80157  1  0  0  0
 80158  1  0  0  0
 81 83  1  0  0  0
 81159  1  0  0  0
 81160  1  0  0  0
 82 85  1  0  0  0
 82161  1  0  0  0
 82162  1  0  0  0
 83163  1  0  0  0
 83164  1  0  0  0
 85165  1  0  0  0
M  CHG  1  85   1
M  ISO  4   1 100  68 101  83 101  84 100
M  END
> <chiral flag>
0

> <version>
0

> <s_m_source_file>
/data/baiqing/PycharmProjects/Reinvent-master-3.2/result/LINK_invent/BTK/process_docking_weight1_custom_product_contain_oxygen_bond_distance_aromatic_linkinvent_7_9_3/rearranged_h_0017.sdf

> <i_m_source_file_index>
8

> <r_mmod_Potential_Energy-OPLS-2005>
93.9641571044922

> <r_mmod_Stretch_Energy-OPLS-2005>
38.4878234863281

> <r_mmod_Bend_Energy-OPLS-2005>
105.351264953613

> <r_mmod_Torsional_Energy-OPLS-2005>
322.881317138672

> <r_mmod_Improper_Torsional_Energy-OPLS-2005>
30.2615203857422

> <r_mmod_Van_der_Waal_Energy-OPLS-2005>
161.810211181641

> <r_mmod_Electrostatic_Energy-OPLS-2005>
-178.742935180664

> <r_mmod_Solvation_Energy-OPLS-2005>
-442.873565673828

> <b_mmod_Minimization_Converged-OPLS-2005>
0

> <r_mmod_RMS_Derivative-OPLS-2005>
6.7812933921814

$$$$
8
                    3D
 Structure written by MMmdl.
165173  0  0  1  0            999 V2000
  -30.7811  -14.4382   20.6334 C   0  0  0  0  0  0
  -30.4037  -12.3023   19.4455 C   0  0  0  0  0  0
  -29.4970  -12.5003   18.2165 C   0  0  0  0  0  0
  -28.0151  -12.3711   18.6142 C   0  0  0  0  0  0
  -27.6579  -13.2193   19.8610 C   0  0  2  0  0  0
  -28.6883  -13.0337   20.9936 C   0  0  0  0  0  0
  -25.2574  -13.8214   20.5642 C   0  0  0  0  0  0
  -24.1832  -13.0469   20.9132 C   0  0  0  0  0  0
  -24.6392  -11.6943   20.8682 C   0  0  0  0  0  0
  -23.9049  -10.4334   21.0391 C   0  0  0  0  0  0
  -24.3618   -9.4252   21.9168 C   0  0  0  0  0  0
  -23.6310   -8.2273   22.0750 C   0  0  0  0  0  0
  -22.4292   -8.0298   21.3551 C   0  0  0  0  0  0
  -21.9910   -9.0257   20.4646 C   0  0  0  0  0  0
  -22.7218  -10.2156   20.3056 C   0  0  0  0  0  0
  -21.6860   -6.0738   22.5270 C   0  0  0  0  0  0
  -21.4021   -6.5636   23.8201 C   0  0  0  0  0  0
  -21.3668   -5.6784   24.9160 C   0  0  0  0  0  0
  -21.6059   -4.3045   24.7208 C   0  0  0  0  0  0
  -21.8823   -3.8144   23.4318 C   0  0  0  0  0  0
  -21.9203   -4.6973   22.3384 C   0  0  0  0  0  0
  -22.7853  -13.5228   21.1845 C   0  0  0  0  0  0
  -22.1676   -4.2161   21.0957 F   0  0  0  0  0  0
  -21.5634   -3.4527   25.7715 F   0  0  0  0  0  0
  -30.0344  -13.3072   20.4596 N   0  0  0  0  0  0
  -26.3004  -12.9404   20.3255 N   0  0  0  0  0  0
  -25.9323  -11.6551   20.5680 N   0  0  0  0  0  0
  -22.0537  -12.8199   22.0414 N   0  0  0  0  0  0
  -25.4347  -15.1941   20.4137 N   0  0  0  0  0  0
  -31.8446  -14.6102   20.0290 O   0  0  0  0  0  0
  -21.6653   -6.8895   21.4240 O   0  0  0  0  0  0
  -22.3514  -14.5541   20.6731 O   0  0  0  0  0  0
  -24.6142  -31.8665   23.2104 C   0  0  0  0  0  0
  -25.9023  -32.4827   23.8399 C   0  0  1  0  0  0
  -27.2429  -27.4279   20.0801 C   0  0  0  0  0  0
  -25.5890  -33.8628   24.2320 N   0  0  0  0  0  0
  -23.4028  -30.4883   21.5544 C   0  0  2  0  0  0
  -24.8500  -28.9556   20.1168 C   0  0  0  0  0  0
  -22.7418  -29.4619   22.5028 C   0  0  0  0  0  0
  -18.0266  -28.1364   22.8513 C   0  0  0  0  0  0
  -24.1486  -36.7310   23.2633 C   0  0  0  0  0  0
  -25.9340  -30.8277   21.3674 C   0  0  0  0  0  0
  -26.0108  -29.4619   20.7130 C   0  0  0  0  0  0
  -27.2055  -28.7035   20.6945 C   0  0  0  0  0  0
  -26.0564  -26.9392   19.4816 C   0  0  0  0  0  0
  -24.8675  -27.6934   19.5011 C   0  0  0  0  0  0
  -23.6113  -29.8213   20.1692 C   0  0  0  0  0  0
  -25.4110  -36.3118   24.0332 C   0  0  1  0  0  0
  -20.5859  -28.3628   23.1354 C   0  0  2  0  0  0
  -20.6754  -26.9364   22.5445 C   0  0  0  0  0  0
  -19.5733  -26.6372   21.5238 C   0  0  0  0  0  0
  -18.1904  -26.7916   22.1634 C   0  0  0  0  0  0
  -19.1519  -28.8816   23.2926 C   0  0  0  0  0  0
  -18.9441  -30.1439   23.8911 C   0  0  0  0  0  0
  -17.6440  -30.6568   24.0562 C   0  0  0  0  0  0
  -25.9041  -34.9481   23.5129 C   0  0  0  0  0  0
  -16.5332  -29.9062   23.6338 C   0  0  0  0  0  0
  -16.7258  -28.6487   23.0347 C   0  0  0  0  0  0
  -26.4458  -31.6625   25.0730 C   0  0  0  0  0  0
  -25.3738  -31.3729   26.1494 C   0  0  0  0  0  0
  -27.0283  -30.3071   24.6101 C   0  0  0  0  0  0
  -27.6044  -32.4353   25.7464 C   0  0  0  0  0  0
  -27.5593  -37.1790   24.8450 C   0  0  0  0  0  0
  -21.4145  -29.2988   22.3759 N   0  0  0  0  0  0
  -26.4290  -37.3811   23.9421 N   0  0  0  0  0  0
  -24.6686  -31.0756   22.1021 N   0  0  0  0  0  0
  -23.4204  -28.8150   23.3059 O   0  0  0  0  0  0
  -28.4312  -26.7138   20.0869 O   0  0  0  0  0  0
  -26.5610  -34.8924   22.4693 O   0  0  0  0  0  0
  -23.5332  -32.1412   23.7505 O   0  0  0  0  0  0
  -30.5268  -19.2347   21.3671 C   0  0  0  0  0  0
  -30.0635  -18.4317   19.1350 C   0  0  0  0  0  0
  -30.4528  -17.9070   21.8549 C   0  0  0  0  0  0
  -30.0076  -17.1038   19.6192 C   0  0  0  0  0  0
  -30.3616  -19.5137   19.9928 C   0  0  0  0  0  0
  -30.2465  -16.7980   20.9862 C   0  0  0  0  0  0
  -31.8502  -15.2856   23.4438 C   0  0  0  0  0  0
  -28.3041  -21.7357   19.7168 C   0  0  0  0  0  0
  -30.6220  -20.9200   19.4112 C   0  0  0  0  0  0
  -29.7701  -24.6538   19.9574 C   0  0  0  0  0  0
  -30.4096  -15.1505   22.9093 C   0  0  0  0  0  0
  -30.1206  -23.3358   19.1955 C   0  0  0  0  0  0
  -28.4428  -25.3630   19.5883 C   0  0  0  0  0  0
  -30.3092  -15.4193   21.4569 N   0  0  0  0  0  0
  -29.7443  -22.0453   19.8635 N   0  3  1  0  0  0
  -31.4553  -12.3539   19.1560 H   0  0  0  0  0  0
  -30.2707  -11.3015   19.8585 H   0  0  0  0  0  0
  -29.7388  -11.7647   17.4474 H   0  0  0  0  0  0
  -29.6802  -13.4806   17.7760 H   0  0  0  0  0  0
  -27.8117  -11.3185   18.8091 H   0  0  0  0  0  0
  -27.3757  -12.6548   17.7774 H   0  0  0  0  0  0
  -27.6952  -14.2649   19.5492 H   0  0  0  0  0  0
  -28.6518  -12.0166   21.3846 H   0  0  0  0  0  0
  -28.4092  -13.6846   21.8209 H   0  0  0  0  0  0
  -25.2783   -9.5720   22.4705 H   0  0  0  0  0  0
  -24.0047   -7.4655   22.7447 H   0  0  0  0  0  0
  -21.0845   -8.8742   19.8933 H   0  0  0  0  0  0
  -22.3664  -10.9682   19.6147 H   0  0  0  0  0  0
  -21.2014   -7.6152   23.9687 H   0  0  0  0  0  0
  -21.1494   -6.0525   25.9052 H   0  0  0  0  0  0
  -22.0608   -2.7612   23.2789 H   0  0  0  0  0  0
  -22.4184  -11.9846   22.4753 H   0  0  0  0  0  0
  -21.1170  -13.1213   22.2692 H   0  0  0  0  0  0
  -24.6860  -15.8644   20.5487 H   0  0  0  0  0  0
  -26.3058  -15.6273   20.1326 H   0  0  0  0  0  0
  -26.7091  -32.5533   23.1161 H   0  0  0  0  0  0
  -25.0055  -33.9807   25.0471 H   0  0  0  0  0  0
  -22.6897  -31.3042   21.4171 H   0  0  0  0  0  0
  -23.3771  -35.9619   23.3265 H   0  0  0  0  0  0
  -24.3594  -36.8959   22.2058 H   0  0  0  0  0  0
  -23.7202  -37.6484   23.6673 H   0  0  0  0  0  0
  -26.0488  -31.5954   20.6008 H   0  0  0  0  0  0
  -26.8208  -30.8798   21.9878 H   0  0  0  0  0  0
  -28.1019  -29.0933   21.1561 H   0  0  0  0  0  0
  -26.0246  -25.9787   18.9893 H   0  0  0  0  0  0
  -23.9734  -27.2995   19.0373 H   0  0  0  0  0  0
  -23.7148  -30.5955   19.4088 H   0  0  0  0  0  0
  -22.7361  -29.2393   19.8762 H   0  0  0  0  0  0
  -25.1284  -36.1980   25.0825 H   0  0  0  0  0  0
  -20.9951  -28.3180   24.1476 H   0  0  0  0  0  0
  -20.5674  -26.2218   23.3620 H   0  0  0  0  0  0
  -21.6617  -26.7405   22.1223 H   0  0  0  0  0  0
  -19.6876  -25.6294   21.1232 H   0  0  0  0  0  0
  -19.6675  -27.3217   20.6798 H   0  0  0  0  0  0
  -17.4185  -26.6706   21.4010 H   0  0  0  0  0  0
  -18.0256  -26.0040   22.9009 H   0  0  0  0  0  0
  -19.7911  -30.7267   24.2268 H   0  0  0  0  0  0
  -17.4979  -31.6249   24.5156 H   0  0  0  0  0  0
  -15.5330  -30.2953   23.7650 H   0  0  0  0  0  0
  -15.8667  -28.0813   22.7032 H   0  0  0  0  0  0
  -24.5873  -30.7118   25.7823 H   0  0  0  0  0  0
  -24.8974  -32.2895   26.4992 H   0  0  0  0  0  0
  -25.8101  -30.8847   27.0219 H   0  0  0  0  0  0
  -26.2810  -29.6838   24.1169 H   0  0  0  0  0  0
  -27.4068  -29.7302   25.4549 H   0  0  0  0  0  0
  -27.8647  -30.4390   23.9229 H   0  0  0  0  0  0
  -27.2654  -33.3620   26.2106 H   0  0  0  0  0  0
  -28.3794  -32.6981   25.0250 H   0  0  0  0  0  0
  -28.0786  -31.8454   26.5319 H   0  0  0  0  0  0
  -28.2580  -38.0120   24.7587 H   0  0  0  0  0  0
  -28.1125  -36.2665   24.6176 H   0  0  0  0  0  0
  -27.2327  -37.1315   25.8852 H   0  0  0  0  0  0
  -20.9296  -29.8734   21.7003 H   0  0  0  0  0  0
  -26.0178  -38.2871   24.1497 H   0  0  0  0  0  0
  -30.7557  -20.0341   22.0597 H   0  0  0  0  0  0
  -29.9344  -18.6018   18.0742 H   0  0  0  0  0  0
  -30.6154  -17.7664   22.9133 H   0  0  0  0  0  0
  -29.8250  -16.3140   18.9035 H   0  0  0  0  0  0
  -31.8835  -15.0938   24.5160 H   0  0  0  0  0  0
  -32.2624  -16.2802   23.2817 H   0  0  0  0  0  0
  -32.5242  -14.5732   22.9643 H   0  0  0  0  0  0
  -28.0247  -20.8612   20.3023 H   0  0  0  0  0  0
  -28.0505  -21.5446   18.6733 H   0  0  0  0  0  0
  -27.6845  -22.5582   20.0672 H   0  0  0  0  0  0
  -30.5660  -20.8604   18.3220 H   0  0  0  0  0  0
  -31.6605  -21.1693   19.6355 H   0  0  0  0  0  0
  -30.5659  -25.3635   19.7225 H   0  0  0  0  0  0
  -29.8376  -24.5069   21.0340 H   0  0  0  0  0  0
  -29.7326  -15.8053   23.4599 H   0  0  0  0  0  0
  -30.0681  -14.1426   23.1476 H   0  0  0  0  0  0
  -31.2074  -23.3412   19.0914 H   0  0  0  0  0  0
  -29.7458  -23.3640   18.1710 H   0  0  0  0  0  0
  -27.6138  -24.7965   20.0125 H   0  0  0  0  0  0
  -28.3156  -25.3841   18.5048 H   0  0  0  0  0  0
  -29.9335  -22.1528   20.8476 H   0  0  0  0  0  0
  1 25  1  0  0  0
  1 30  2  0  0  0
  1 84  1  0  0  0
  2  3  1  0  0  0
  2 25  1  0  0  0
  2 86  1  0  0  0
  2 87  1  0  0  0
  3  4  1  0  0  0
  3 88  1  0  0  0
  3 89  1  0  0  0
  4  5  1  0  0  0
  4 90  1  0  0  0
  4 91  1  0  0  0
  5  6  1  0  0  0
  5 26  1  0  0  0
  5 92  1  0  0  0
  6 25  1  0  0  0
  6 93  1  0  0  0
  6 94  1  0  0  0
  7  8  2  0  0  0
  7 26  1  0  0  0
  7 29  1  0  0  0
  8  9  1  0  0  0
  8 22  1  0  0  0
  9 10  1  0  0  0
  9 27  2  0  0  0
 10 11  2  0  0  0
 10 15  1  0  0  0
 11 12  1  0  0  0
 11 95  1  0  0  0
 12 13  2  0  0  0
 12 96  1  0  0  0
 13 14  1  0  0  0
 13 31  1  0  0  0
 14 15  2  0  0  0
 14 97  1  0  0  0
 15 98  1  0  0  0
 16 17  2  0  0  0
 16 21  1  0  0  0
 16 31  1  0  0  0
 17 18  1  0  0  0
 17 99  1  0  0  0
 18 19  2  0  0  0
 18100  1  0  0  0
 19 20  1  0  0  0
 19 24  1  0  0  0
 20 21  2  0  0  0
 20101  1  0  0  0
 21 23  1  0  0  0
 22 28  1  0  0  0
 22 32  2  0  0  0
 26 27  1  0  0  0
 28102  1  0  0  0
 28103  1  0  0  0
 29104  1  0  0  0
 29105  1  0  0  0
 33 34  1  0  0  0
 33 66  1  0  0  0
 33 70  2  0  0  0
 34 36  1  0  0  0
 34 59  1  0  0  0
 34106  1  0  0  0
 35 44  2  0  0  0
 35 45  1  0  0  0
 35 68  1  0  0  0
 36 56  1  0  0  0
 36107  1  0  0  0
 37 39  1  0  0  0
 37 47  1  0  0  0
 37 66  1  0  0  0
 37108  1  0  0  0
 38 43  2  0  0  0
 38 46  1  0  0  0
 38 47  1  0  0  0
 39 64  1  0  0  0
 39 67  2  0  0  0
 40 52  1  0  0  0
 40 53  2  0  0  0
 40 58  1  0  0  0
 41109  1  0  0  0
 41110  1  0  0  0
 41111  1  0  0  0
 41 48  1  0  0  0
 42 43  1  0  0  0
 42 66  1  0  0  0
 42112  1  0  0  0
 42113  1  0  0  0
 43 44  1  0  0  0
 44114  1  0  0  0
 45 46  2  0  0  0
 45115  1  0  0  0
 46116  1  0  0  0
 47117  1  0  0  0
 47118  1  0  0  0
 48 56  1  0  0  0
 48 65  1  0  0  0
 48119  1  0  0  0
 49 50  1  0  0  0
 49 53  1  0  0  0
 49 64  1  0  0  0
 49120  1  0  0  0
 50 51  1  0  0  0
 50121  1  0  0  0
 50122  1  0  0  0
 51 52  1  0  0  0
 51123  1  0  0  0
 51124  1  0  0  0
 52125  1  0  0  0
 52126  1  0  0  0
 53 54  1  0  0  0
 54 55  2  0  0  0
 54127  1  0  0  0
 55 57  1  0  0  0
 55128  1  0  0  0
 56 69  2  0  0  0
 57 58  2  0  0  0
 57129  1  0  0  0
 58130  1  0  0  0
 59 60  1  0  0  0
 59 61  1  0  0  0
 59 62  1  0  0  0
 60131  1  0  0  0
 60132  1  0  0  0
 60133  1  0  0  0
 61134  1  0  0  0
 61135  1  0  0  0
 61136  1  0  0  0
 62137  1  0  0  0
 62138  1  0  0  0
 62139  1  0  0  0
 63 65  1  0  0  0
 63140  1  0  0  0
 63141  1  0  0  0
 63142  1  0  0  0
 64143  1  0  0  0
 65144  1  0  0  0
 68 83  1  0  0  0
 71 73  2  0  0  0
 71 75  1  0  0  0
 71145  1  0  0  0
 72 74  1  0  0  0
 72 75  2  0  0  0
 72146  1  0  0  0
 73 76  1  0  0  0
 73147  1  0  0  0
 74 76  2  0  0  0
 74148  1  0  0  0
 75 79  1  0  0  0
 76 84  1  0  0  0
 77 81  1  0  0  0
 77149  1  0  0  0
 77150  1  0  0  0
 77151  1  0  0  0
 78152  1  0  0  0
 78153  1  0  0  0
 78154  1  0  0  0
 78 85  1  0  0  0
 79 85  1  0  0  0
 79155  1  0  0  0
 79156  1  0  0  0
 80 82  1  0  0  0
 80 83  1  0  0  0
 80157  1  0  0  0
 80158  1  0  0  0
 81 84  1  0  0  0
 81159  1  0  0  0
 81160  1  0  0  0
 82 85  1  0  0  0
 82161  1  0  0  0
 82162  1  0  0  0
 83163  1  0  0  0
 83164  1  0  0  0
 85165  1  0  0  0
M  CHG  1  85   1
M  ISO  4   1 100  68 101  83 101  84 100
M  END
> <chiral flag>
0

> <version>
0

> <s_m_source_file>
/data/baiqing/PycharmProjects/Reinvent-master-3.2/result/LINK_invent/BTK/process_docking_weight1_custom_product_contain_oxygen_bond_distance_aromatic_linkinvent_7_9_3/rearranged_h_0017.sdf

> <i_m_source_file_index>
9

> <r_mmod_Potential_Energy-OPLS-2005>
28.4313697814941

> <r_mmod_Stretch_Energy-OPLS-2005>
49.6979675292969

> <r_mmod_Bend_Energy-OPLS-2005>
117.276779174805

> <r_mmod_Torsional_Energy-OPLS-2005>
277.422515869141

> <r_mmod_Improper_Torsional_Energy-OPLS-2005>
3.53505086898804

> <r_mmod_Van_der_Waal_Energy-OPLS-2005>
162.926788330078

> <r_mmod_Electrostatic_Energy-OPLS-2005>
-159.181060791016

> <r_mmod_Solvation_Energy-OPLS-2005>
-435.914123535156

> <b_mmod_Minimization_Converged-OPLS-2005>
0

> <r_mmod_RMS_Derivative-OPLS-2005>
2.69447088241577

$$$$
10
                    3D
 Structure written by MMmdl.
169178  0  0  1  0            999 V2000
  -30.7017  -14.6241   20.6069 C   0  0  0  0  0  0
  -30.4215  -12.4161   19.4606 C   0  0  0  0  0  0
  -29.5042  -12.5258   18.2257 C   0  0  0  0  0  0
  -28.0310  -12.3460   18.6331 C   0  0  0  0  0  0
  -27.6454  -13.2277   19.8488 C   0  0  2  0  0  0
  -28.6783  -13.1204   20.9859 C   0  0  0  0  0  0
  -25.2536  -13.8196   20.5680 C   0  0  0  0  0  0
  -24.1828  -13.0445   20.9176 C   0  0  0  0  0  0
  -24.6404  -11.6910   20.8717 C   0  0  0  0  0  0
  -23.9083  -10.4287   21.0393 C   0  0  0  0  0  0
  -24.3633   -9.4208   21.9173 C   0  0  0  0  0  0
  -23.6302   -8.2244   22.0755 C   0  0  0  0  0  0
  -22.4282   -8.0285   21.3545 C   0  0  0  0  0  0
  -21.9918   -9.0258   20.4646 C   0  0  0  0  0  0
  -22.7252  -10.2132   20.3048 C   0  0  0  0  0  0
  -21.6859   -6.0740   22.5279 C   0  0  0  0  0  0
  -21.4019   -6.5640   23.8214 C   0  0  0  0  0  0
  -21.3661   -5.6792   24.9176 C   0  0  0  0  0  0
  -21.6048   -4.3054   24.7223 C   0  0  0  0  0  0
  -21.8819   -3.8149   23.4342 C   0  0  0  0  0  0
  -21.9193   -4.6966   22.3403 C   0  0  0  0  0  0
  -22.7844  -13.5223   21.1841 C   0  0  0  0  0  0
  -22.1660   -4.2156   21.0979 F   0  0  0  0  0  0
  -21.5628   -3.4538   25.7734 F   0  0  0  0  0  0
  -30.0061  -13.4465   20.4413 N   0  0  0  0  0  0
  -26.2952  -12.9389   20.3225 N   0  0  0  0  0  0
  -25.9330  -11.6531   20.5701 N   0  0  0  0  0  0
  -22.0504  -12.8221   22.0410 N   0  0  0  0  0  0
  -25.4263  -15.1925   20.4135 N   0  0  0  0  0  0
  -31.7841  -14.7895   20.0353 O   0  0  0  0  0  0
  -21.6645   -6.8883   21.4242 O   0  0  0  0  0  0
  -22.3526  -14.5527   20.6691 O   0  0  0  0  0  0
  -24.6246  -31.8584   23.2010 C   0  0  0  0  0  0
  -25.9080  -32.4776   23.8365 C   0  0  1  0  0  0
  -27.2333  -27.3079   20.1023 C   0  0  0  0  0  0
  -25.5898  -33.8588   24.2284 N   0  0  0  0  0  0
  -23.4217  -30.4786   21.5434 C   0  0  2  0  0  0
  -24.8685  -28.9284   20.1129 C   0  0  0  0  0  0
  -22.7481  -29.4598   22.4942 C   0  0  0  0  0  0
  -18.0278  -28.1371   22.8478 C   0  0  0  0  0  0
  -24.1481  -36.7288   23.2645 C   0  0  0  0  0  0
  -25.9641  -30.7809   21.3767 C   0  0  0  0  0  0
  -26.0364  -29.4075   20.7165 C   0  0  0  0  0  0
  -27.2168  -28.6062   20.7042 C   0  0  0  0  0  0
  -26.0338  -26.8763   19.4900 C   0  0  0  0  0  0
  -24.8692  -27.6685   19.4958 C   0  0  0  0  0  0
  -23.6369  -29.8083   20.1610 C   0  0  0  0  0  0
  -25.4114  -36.3087   24.0328 C   0  0  1  0  0  0
  -20.5887  -28.3666   23.1276 C   0  0  2  0  0  0
  -20.6756  -26.9388   22.5395 C   0  0  0  0  0  0
  -19.5736  -26.6358   21.5196 C   0  0  0  0  0  0
  -18.1920  -26.7915   22.1613 C   0  0  0  0  0  0
  -19.1534  -28.8835   23.2868 C   0  0  0  0  0  0
  -18.9461  -30.1437   23.8892 C   0  0  0  0  0  0
  -17.6466  -30.6575   24.0562 C   0  0  0  0  0  0
  -25.9052  -34.9455   23.5120 C   0  0  0  0  0  0
  -16.5357  -29.9079   23.6334 C   0  0  0  0  0  0
  -16.7269  -28.6485   23.0374 C   0  0  0  0  0  0
  -26.4467  -31.6600   25.0748 C   0  0  0  0  0  0
  -25.3676  -31.3723   26.1456 C   0  0  0  0  0  0
  -27.0330  -30.3034   24.6215 C   0  0  0  0  0  0
  -27.6044  -32.4331   25.7500 C   0  0  0  0  0  0
  -27.5578  -37.1791   24.8470 C   0  0  0  0  0  0
  -21.4193  -29.3027   22.3683 N   0  0  0  0  0  0
  -26.4302  -37.3770   23.9399 N   0  0  0  0  0  0
  -24.6890  -31.0567   22.0982 N   0  0  0  0  0  0
  -23.4204  -28.8115   23.2998 O   0  0  0  0  0  0
  -28.3872  -26.5049   20.1462 O   0  0  0  0  0  0
  -26.5654  -34.8914   22.4708 O   0  0  0  0  0  0
  -23.5394  -32.1417   23.7295 O   0  0  0  0  0  0
  -30.1913  -19.0968   19.7300 C   0  0  0  0  0  0
  -30.3407  -17.6788   19.9167 C   0  0  0  0  0  0
  -29.1514  -17.8475   21.9816 C   0  0  0  0  0  0
  -29.5609  -19.9389   20.6943 C   0  0  0  0  0  0
  -29.8835  -17.0031   21.0911 C   0  0  0  0  0  0
  -29.0127  -19.2539   21.8080 C   0  0  0  0  0  0
  -26.6527  -22.4907   21.4183 C   0  0  0  0  0  0
  -27.2626  -23.8881   21.5270 C   0  0  0  0  0  0
  -27.2437  -21.9258   20.1299 C   0  0  0  0  0  0
  -28.5290  -23.8859   20.6419 C   0  0  2  0  0  0
  -30.7617  -13.9644   23.4507 C   0  0  0  0  0  0
  -31.7909  -16.2569   23.3078 C   0  0  0  0  0  0
  -29.6605  -21.5273   20.6892 C   0  0  0  0  0  0
  -28.4664  -25.1157   19.6147 C   0  0  0  0  0  0
  -30.5585  -15.4092   22.9213 C   0  0  0  0  0  0
  -30.2113  -15.5917   21.4701 N   0  0  0  0  0  0
  -28.6192  -22.4591   20.0627 N   0  3  1  0  0  0
  -28.3959  -19.9634   22.7816 F   0  0  0  0  0  0
  -31.4681  -12.5127   19.1649 H   0  0  0  0  0  0
  -30.3367  -11.4246   19.9099 H   0  0  0  0  0  0
  -29.7792  -11.7771   17.4815 H   0  0  0  0  0  0
  -29.6413  -13.4992   17.7500 H   0  0  0  0  0  0
  -27.8791  -11.2936   18.8744 H   0  0  0  0  0  0
  -27.3757  -12.5590   17.7882 H   0  0  0  0  0  0
  -27.6560  -14.2598   19.4985 H   0  0  0  0  0  0
  -28.6849  -12.1176   21.4140 H   0  0  0  0  0  0
  -28.3817  -13.7945   21.7903 H   0  0  0  0  0  0
  -25.2782   -9.5679   22.4739 H   0  0  0  0  0  0
  -24.0014   -7.4637   22.7470 H   0  0  0  0  0  0
  -21.0850   -8.8773   19.8949 H   0  0  0  0  0  0
  -22.3713  -10.9668   19.6151 H   0  0  0  0  0  0
  -21.2016   -7.6149   23.9722 H   0  0  0  0  0  0
  -21.1485   -6.0521   25.9082 H   0  0  0  0  0  0
  -22.0599   -2.7611   23.2842 H   0  0  0  0  0  0
  -22.4129  -11.9879   22.4781 H   0  0  0  0  0  0
  -21.1125  -13.1235   22.2613 H   0  0  0  0  0  0
  -24.6646  -15.8511   20.5359 H   0  0  0  0  0  0
  -26.2881  -15.6324   20.1158 H   0  0  0  0  0  0
  -26.7142  -32.5427   23.1107 H   0  0  0  0  0  0
  -25.0027  -33.9763   25.0416 H   0  0  0  0  0  0
  -22.7138  -31.2968   21.3948 H   0  0  0  0  0  0
  -23.3760  -35.9606   23.3320 H   0  0  0  0  0  0
  -24.3553  -36.8902   22.2053 H   0  0  0  0  0  0
  -23.7220  -37.6480   23.6676 H   0  0  0  0  0  0
  -26.1033  -31.5429   20.6084 H   0  0  0  0  0  0
  -26.8418  -30.8274   22.0097 H   0  0  0  0  0  0
  -28.1160  -28.9731   21.1786 H   0  0  0  0  0  0
  -25.9447  -25.9144   19.0125 H   0  0  0  0  0  0
  -23.9701  -27.2930   19.0288 H   0  0  0  0  0  0
  -23.7572  -30.5820   19.4020 H   0  0  0  0  0  0
  -22.7577  -29.2335   19.8602 H   0  0  0  0  0  0
  -25.1278  -36.1961   25.0820 H   0  0  0  0  0  0
  -20.9972  -28.3236   24.1401 H   0  0  0  0  0  0
  -20.5605  -26.2286   23.3595 H   0  0  0  0  0  0
  -21.6630  -26.7391   22.1210 H   0  0  0  0  0  0
  -19.6903  -25.6262   21.1228 H   0  0  0  0  0  0
  -19.6678  -27.3161   20.6722 H   0  0  0  0  0  0
  -17.4176  -26.6659   21.4023 H   0  0  0  0  0  0
  -18.0344  -26.0060   22.9012 H   0  0  0  0  0  0
  -19.7941  -30.7240   24.2274 H   0  0  0  0  0  0
  -17.5029  -31.6258   24.5153 H   0  0  0  0  0  0
  -15.5362  -30.2990   23.7628 H   0  0  0  0  0  0
  -15.8669  -28.0779   22.7142 H   0  0  0  0  0  0
  -24.5863  -30.7076   25.7741 H   0  0  0  0  0  0
  -24.8860  -32.2882   26.4899 H   0  0  0  0  0  0
  -25.7960  -30.8870   27.0235 H   0  0  0  0  0  0
  -26.2913  -29.6736   24.1295 H   0  0  0  0  0  0
  -27.4104  -29.7328   25.4702 H   0  0  0  0  0  0
  -27.8742  -30.4320   23.9407 H   0  0  0  0  0  0
  -27.2706  -33.3640   26.2083 H   0  0  0  0  0  0
  -28.3850  -32.6876   25.0323 H   0  0  0  0  0  0
  -28.0741  -31.8470   26.5404 H   0  0  0  0  0  0
  -28.2598  -38.0084   24.7533 H   0  0  0  0  0  0
  -28.1062  -36.2616   24.6288 H   0  0  0  0  0  0
  -27.2293  -37.1444   25.8872 H   0  0  0  0  0  0
  -20.9382  -29.8792   21.6923 H   0  0  0  0  0  0
  -26.0186  -38.2838   24.1426 H   0  0  0  0  0  0
  -30.6427  -19.5487   18.8566 H   0  0  0  0  0  0
  -30.8906  -17.1308   19.1638 H   0  0  0  0  0  0
  -28.7169  -17.4464   22.8812 H   0  0  0  0  0  0
  -25.5635  -22.5076   21.4016 H   0  0  0  0  0  0
  -26.9574  -21.8828   22.2688 H   0  0  0  0  0  0
  -27.4890  -24.1499   22.5614 H   0  0  0  0  0  0
  -26.5377  -24.6197   21.1674 H   0  0  0  0  0  0
  -26.6892  -22.3186   19.2765 H   0  0  0  0  0  0
  -27.1769  -20.8405   20.0625 H   0  0  0  0  0  0
  -29.4045  -24.0534   21.2709 H   0  0  0  0  0  0
  -31.0057  -13.9849   24.5140 H   0  0  0  0  0  0
  -31.5753  -13.4311   22.9563 H   0  0  0  0  0  0
  -29.8595  -13.3613   23.3749 H   0  0  0  0  0  0
  -32.0000  -16.1832   24.3752 H   0  0  0  0  0  0
  -31.6535  -17.3171   23.0964 H   0  0  0  0  0  0
  -32.6853  -15.9264   22.7789 H   0  0  0  0  0  0
  -30.6217  -21.7905   20.2484 H   0  0  0  0  0  0
  -29.7543  -21.8117   21.7384 H   0  0  0  0  0  0
  -27.7182  -24.9182   18.8518 H   0  0  0  0  0  0
  -29.4003  -25.1002   19.0542 H   0  0  0  0  0  0
  -29.7166  -15.7611   23.5120 H   0  0  0  0  0  0
  -28.8690  -22.5107   19.0851 H   0  0  0  0  0  0
  1 25  1  0  0  0
  1 30  2  0  0  0
  1 86  1  0  0  0
  2  3  1  0  0  0
  2 25  1  0  0  0
  2 89  1  0  0  0
  2 90  1  0  0  0
  3  4  1  0  0  0
  3 91  1  0  0  0
  3 92  1  0  0  0
  4  5  1  0  0  0
  4 93  1  0  0  0
  4 94  1  0  0  0
  5  6  1  0  0  0
  5 26  1  0  0  0
  5 95  1  0  0  0
  6 25  1  0  0  0
  6 96  1  0  0  0
  6 97  1  0  0  0
  7  8  2  0  0  0
  7 26  1  0  0  0
  7 29  1  0  0  0
  8  9  1  0  0  0
  8 22  1  0  0  0
  9 10  1  0  0  0
  9 27  2  0  0  0
 10 11  2  0  0  0
 10 15  1  0  0  0
 11 12  1  0  0  0
 11 98  1  0  0  0
 12 13  2  0  0  0
 12 99  1  0  0  0
 13 14  1  0  0  0
 13 31  1  0  0  0
 14 15  2  0  0  0
 14100  1  0  0  0
 15101  1  0  0  0
 16 17  2  0  0  0
 16 21  1  0  0  0
 16 31  1  0  0  0
 17 18  1  0  0  0
 17102  1  0  0  0
 18 19  2  0  0  0
 18103  1  0  0  0
 19 20  1  0  0  0
 19 24  1  0  0  0
 20 21  2  0  0  0
 20104  1  0  0  0
 21 23  1  0  0  0
 22 28  1  0  0  0
 22 32  2  0  0  0
 26 27  1  0  0  0
 28105  1  0  0  0
 28106  1  0  0  0
 29107  1  0  0  0
 29108  1  0  0  0
 33 34  1  0  0  0
 33 66  1  0  0  0
 33 70  2  0  0  0
 34 36  1  0  0  0
 34 59  1  0  0  0
 34109  1  0  0  0
 35 44  2  0  0  0
 35 45  1  0  0  0
 35 68  1  0  0  0
 36 56  1  0  0  0
 36110  1  0  0  0
 37 39  1  0  0  0
 37 47  1  0  0  0
 37 66  1  0  0  0
 37111  1  0  0  0
 38 43  2  0  0  0
 38 46  1  0  0  0
 38 47  1  0  0  0
 39 64  1  0  0  0
 39 67  2  0  0  0
 40 52  1  0  0  0
 40 53  2  0  0  0
 40 58  1  0  0  0
 41112  1  0  0  0
 41113  1  0  0  0
 41114  1  0  0  0
 41 48  1  0  0  0
 42 43  1  0  0  0
 42 66  1  0  0  0
 42115  1  0  0  0
 42116  1  0  0  0
 43 44  1  0  0  0
 44117  1  0  0  0
 45 46  2  0  0  0
 45118  1  0  0  0
 46119  1  0  0  0
 47120  1  0  0  0
 47121  1  0  0  0
 48 56  1  0  0  0
 48 65  1  0  0  0
 48122  1  0  0  0
 49 50  1  0  0  0
 49 53  1  0  0  0
 49 64  1  0  0  0
 49123  1  0  0  0
 50 51  1  0  0  0
 50124  1  0  0  0
 50125  1  0  0  0
 51 52  1  0  0  0
 51126  1  0  0  0
 51127  1  0  0  0
 52128  1  0  0  0
 52129  1  0  0  0
 53 54  1  0  0  0
 54 55  2  0  0  0
 54130  1  0  0  0
 55 57  1  0  0  0
 55131  1  0  0  0
 56 69  2  0  0  0
 57 58  2  0  0  0
 57132  1  0  0  0
 58133  1  0  0  0
 59 60  1  0  0  0
 59 61  1  0  0  0
 59 62  1  0  0  0
 60134  1  0  0  0
 60135  1  0  0  0
 60136  1  0  0  0
 61137  1  0  0  0
 61138  1  0  0  0
 61139  1  0  0  0
 62140  1  0  0  0
 62141  1  0  0  0
 62142  1  0  0  0
 63 65  1  0  0  0
 63143  1  0  0  0
 63144  1  0  0  0
 63145  1  0  0  0
 64146  1  0  0  0
 65147  1  0  0  0
 68 84  1  0  0  0
 71 72  2  0  0  0
 71 74  1  0  0  0
 71148  1  0  0  0
 72 75  1  0  0  0
 72149  1  0  0  0
 73 75  2  0  0  0
 73 76  1  0  0  0
 73150  1  0  0  0
 74 76  2  0  0  0
 74 83  1  0  0  0
 75 86  1  0  0  0
 76 88  1  0  0  0
 77 78  1  0  0  0
 77 79  1  0  0  0
 77151  1  0  0  0
 77152  1  0  0  0
 78 80  1  0  0  0
 78153  1  0  0  0
 78154  1  0  0  0
 79 87  1  0  0  0
 79155  1  0  0  0
 79156  1  0  0  0
 80 84  1  0  0  0
 80 87  1  0  0  0
 80157  1  0  0  0
 81158  1  0  0  0
 81159  1  0  0  0
 81160  1  0  0  0
 81 85  1  0  0  0
 82 85  1  0  0  0
 82161  1  0  0  0
 82162  1  0  0  0
 82163  1  0  0  0
 83164  1  0  0  0
 83165  1  0  0  0
 83 87  1  0  0  0
 84166  1  0  0  0
 84167  1  0  0  0
 85 86  1  0  0  0
 85168  1  0  0  0
 87169  1  0  0  0
M  CHG  1  87   1
M  ISO  4   1 100  68 101  84 101  86 100
M  END
> <chiral flag>
0

> <version>
0

> <s_m_source_file>
/data/baiqing/PycharmProjects/Reinvent-master-3.2/result/LINK_invent/BTK/process_docking_weight1_custom_product_contain_oxygen_bond_distance_aromatic_linkinvent_7_9_3/rearranged_h_0017.sdf

> <i_m_source_file_index>
10

> <r_mmod_Potential_Energy-OPLS-2005>
337.048492431641

> <r_mmod_Stretch_Energy-OPLS-2005>
110.262161254883

> <r_mmod_Bend_Energy-OPLS-2005>
200.734024047852

> <r_mmod_Torsional_Energy-OPLS-2005>
348.988739013672

> <r_mmod_Improper_Torsional_Energy-OPLS-2005>
5.20291519165039

> <r_mmod_Van_der_Waal_Energy-OPLS-2005>
148.634750366211

> <r_mmod_Electrostatic_Energy-OPLS-2005>
-120.011367797852

> <r_mmod_Solvation_Energy-OPLS-2005>
-402.78271484375

> <b_mmod_Minimization_Converged-OPLS-2005>
0

> <r_mmod_RMS_Derivative-OPLS-2005>
2.346186876297

$$$$
11
                    3D
 Structure written by MMmdl.
155163  0  0  1  0            999 V2000
  -30.6007  -14.6594   20.5107 C   0  0  0  0  0  0
  -30.4512  -12.4055   19.4539 C   0  0  0  0  0  0
  -29.5146  -12.5064   18.2272 C   0  0  0  0  0  0
  -28.0344  -12.3508   18.6348 C   0  0  0  0  0  0
  -27.6579  -13.2149   19.8665 C   0  0  2  0  0  0
  -28.7039  -13.0480   20.9922 C   0  0  0  0  0  0
  -25.2575  -13.8169   20.5692 C   0  0  0  0  0  0
  -24.1836  -13.0439   20.9205 C   0  0  0  0  0  0
  -24.6398  -11.6904   20.8739 C   0  0  0  0  0  0
  -23.9065  -10.4289   21.0411 C   0  0  0  0  0  0
  -24.3612   -9.4206   21.9197 C   0  0  0  0  0  0
  -23.6286   -8.2243   22.0757 C   0  0  0  0  0  0
  -22.4274   -8.0280   21.3542 C   0  0  0  0  0  0
  -21.9918   -9.0251   20.4640 C   0  0  0  0  0  0
  -22.7241  -10.2133   20.3052 C   0  0  0  0  0  0
  -21.6854   -6.0740   22.5284 C   0  0  0  0  0  0
  -21.4003   -6.5640   23.8216 C   0  0  0  0  0  0
  -21.3658   -5.6793   24.9173 C   0  0  0  0  0  0
  -21.6051   -4.3059   24.7226 C   0  0  0  0  0  0
  -21.8818   -3.8153   23.4346 C   0  0  0  0  0  0
  -21.9186   -4.6968   22.3402 C   0  0  0  0  0  0
  -22.7852  -13.5233   21.1869 C   0  0  0  0  0  0
  -22.1659   -4.2155   21.0980 F   0  0  0  0  0  0
  -21.5635   -3.4541   25.7743 F   0  0  0  0  0  0
  -30.0206  -13.4161   20.4397 N   0  0  0  0  0  0
  -26.3006  -12.9340   20.3324 N   0  0  0  0  0  0
  -25.9322  -11.6500   20.5745 N   0  0  0  0  0  0
  -22.0478  -12.8207   22.0402 N   0  0  0  0  0  0
  -25.4317  -15.1891   20.4118 N   0  0  0  0  0  0
  -31.7390  -14.8677   20.0782 O   0  0  0  0  0  0
  -21.6630   -6.8882   21.4241 O   0  0  0  0  0  0
  -22.3546  -14.5554   20.6743 O   0  0  0  0  0  0
  -24.6260  -31.8594   23.1983 C   0  0  0  0  0  0
  -25.9106  -32.4773   23.8329 C   0  0  1  0  0  0
  -27.2375  -27.3212   20.1213 C   0  0  0  0  0  0
  -25.5933  -33.8571   24.2260 N   0  0  0  0  0  0
  -23.4200  -30.4771   21.5432 C   0  0  2  0  0  0
  -24.8691  -28.9228   20.1159 C   0  0  0  0  0  0
  -22.7491  -29.4591   22.4953 C   0  0  0  0  0  0
  -18.0281  -28.1376   22.8464 C   0  0  0  0  0  0
  -24.1495  -36.7286   23.2642 C   0  0  0  0  0  0
  -25.9575  -30.7916   21.3646 C   0  0  0  0  0  0
  -26.0370  -29.4137   20.7147 C   0  0  0  0  0  0
  -27.2251  -28.6255   20.7017 C   0  0  0  0  0  0
  -26.0457  -26.8669   19.5175 C   0  0  0  0  0  0
  -24.8743  -27.6535   19.5117 C   0  0  0  0  0  0
  -23.6348  -29.8037   20.1606 C   0  0  0  0  0  0
  -25.4120  -36.3071   24.0336 C   0  0  1  0  0  0
  -20.5883  -28.3674   23.1298 C   0  0  2  0  0  0
  -20.6772  -26.9403   22.5412 C   0  0  0  0  0  0
  -19.5756  -26.6389   21.5197 C   0  0  0  0  0  0
  -18.1923  -26.7920   22.1602 C   0  0  0  0  0  0
  -19.1540  -28.8845   23.2861 C   0  0  0  0  0  0
  -18.9463  -30.1445   23.8876 C   0  0  0  0  0  0
  -17.6464  -30.6576   24.0562 C   0  0  0  0  0  0
  -25.9070  -34.9444   23.5107 C   0  0  0  0  0  0
  -16.5352  -29.9078   23.6333 C   0  0  0  0  0  0
  -16.7269  -28.6504   23.0334 C   0  0  0  0  0  0
  -26.4486  -31.6576   25.0701 C   0  0  0  0  0  0
  -25.3709  -31.3697   26.1423 C   0  0  0  0  0  0
  -27.0320  -30.3020   24.6087 C   0  0  0  0  0  0
  -27.6068  -32.4294   25.7456 C   0  0  0  0  0  0
  -27.5575  -37.1785   24.8464 C   0  0  0  0  0  0
  -21.4199  -29.3018   22.3696 N   0  0  0  0  0  0
  -26.4284  -37.3776   23.9415 N   0  0  0  0  0  0
  -24.6860  -31.0600   22.0935 N   0  0  0  0  0  0
  -23.4201  -28.8138   23.3038 O   0  0  0  0  0  0
  -28.3806  -26.5124   20.0894 O   0  0  0  0  0  0
  -26.5632  -34.8916   22.4665 O   0  0  0  0  0  0
  -23.5432  -32.1414   23.7317 O   0  0  0  0  0  0
  -28.5154  -17.6675   21.4869 C   0  0  0  0  0  0
  -30.4958  -18.0347   20.1930 C   0  0  0  0  0  0
  -28.2108  -19.0502   21.4250 C   0  0  0  0  0  0
  -30.1882  -19.4452   20.1456 C   0  0  0  0  0  0
  -29.6544  -17.1020   20.8710 C   0  0  0  0  0  0
  -29.0253  -20.0137   20.7608 C   0  0  0  0  0  0
  -27.6177  -21.7905   21.7330 C   0  0  0  0  0  0
  -28.6791  -23.8911   19.6836 C   0  0  0  0  0  0
  -29.4382  -22.5726   20.2241 C   0  0  0  0  0  0
  -28.3274  -25.1320   20.6261 C   0  0  0  0  0  0
  -29.7814  -15.6443   20.9974 N   0  0  0  0  0  0
  -28.6348  -21.4194   20.7467 N   0  0  0  0  0  0
  -31.4897  -12.5457   19.1515 H   0  0  0  0  0  0
  -30.4031  -11.4081   19.8931 H   0  0  0  0  0  0
  -29.7759  -11.7426   17.4926 H   0  0  0  0  0  0
  -29.6619  -13.4677   17.7325 H   0  0  0  0  0  0
  -27.8648  -11.2978   18.8600 H   0  0  0  0  0  0
  -27.3846  -12.5867   17.7919 H   0  0  0  0  0  0
  -27.6802  -14.2543   19.5371 H   0  0  0  0  0  0
  -28.7193  -12.0135   21.3379 H   0  0  0  0  0  0
  -28.4392  -13.6410   21.8683 H   0  0  0  0  0  0
  -25.2749   -9.5688   22.4779 H   0  0  0  0  0  0
  -23.9996   -7.4630   22.7477 H   0  0  0  0  0  0
  -21.0860   -8.8765   19.8933 H   0  0  0  0  0  0
  -22.3710  -10.9668   19.6160 H   0  0  0  0  0  0
  -21.1988   -7.6149   23.9721 H   0  0  0  0  0  0
  -21.1485   -6.0524   25.9083 H   0  0  0  0  0  0
  -22.0598   -2.7612   23.2845 H   0  0  0  0  0  0
  -22.4057  -11.9841   22.4768 H   0  0  0  0  0  0
  -21.1089  -13.1227   22.2587 H   0  0  0  0  0  0
  -24.6701  -15.8491   20.5206 H   0  0  0  0  0  0
  -26.2824  -15.6195   20.0716 H   0  0  0  0  0  0
  -26.7189  -32.5465   23.1096 H   0  0  0  0  0  0
  -25.0030  -33.9692   25.0368 H   0  0  0  0  0  0
  -22.7135  -31.2963   21.3973 H   0  0  0  0  0  0
  -23.3754  -35.9622   23.3292 H   0  0  0  0  0  0
  -24.3575  -36.8924   22.2057 H   0  0  0  0  0  0
  -23.7249  -37.6484   23.6675 H   0  0  0  0  0  0
  -26.0721  -31.5492   20.5889 H   0  0  0  0  0  0
  -26.8443  -30.8558   21.9826 H   0  0  0  0  0  0
  -28.1276  -29.0009   21.1656 H   0  0  0  0  0  0
  -26.0212  -25.8947   19.0455 H   0  0  0  0  0  0
  -23.9775  -27.2697   19.0449 H   0  0  0  0  0  0
  -23.7497  -30.5775   19.4005 H   0  0  0  0  0  0
  -22.7558  -29.2282   19.8629 H   0  0  0  0  0  0
  -25.1278  -36.1927   25.0831 H   0  0  0  0  0  0
  -20.9942  -28.3244   24.1435 H   0  0  0  0  0  0
  -20.5703  -26.2270   23.3590 H   0  0  0  0  0  0
  -21.6643  -26.7460   22.1189 H   0  0  0  0  0  0
  -19.6947  -25.6312   21.1198 H   0  0  0  0  0  0
  -19.6718  -27.3235   20.6746 H   0  0  0  0  0  0
  -17.4208  -26.6678   21.3983 H   0  0  0  0  0  0
  -18.0313  -26.0058   22.9004 H   0  0  0  0  0  0
  -19.7957  -30.7237   24.2257 H   0  0  0  0  0  0
  -17.5037  -31.6266   24.5156 H   0  0  0  0  0  0
  -15.5357  -30.2963   23.7690 H   0  0  0  0  0  0
  -15.8662  -28.0823   22.7040 H   0  0  0  0  0  0
  -24.5937  -30.6985   25.7729 H   0  0  0  0  0  0
  -24.8831  -32.2861   26.4777 H   0  0  0  0  0  0
  -25.8047  -30.8930   27.0231 H   0  0  0  0  0  0
  -26.2861  -29.6777   24.1157 H   0  0  0  0  0  0
  -27.4111  -29.7260   25.4531 H   0  0  0  0  0  0
  -27.8693  -30.4322   23.9221 H   0  0  0  0  0  0
  -27.2712  -33.3647   26.1945 H   0  0  0  0  0  0
  -28.3917  -32.6759   25.0287 H   0  0  0  0  0  0
  -28.0679  -31.8456   26.5433 H   0  0  0  0  0  0
  -28.2568  -38.0096   24.7499 H   0  0  0  0  0  0
  -28.1085  -36.2621   24.6293 H   0  0  0  0  0  0
  -27.2279  -37.1427   25.8859 H   0  0  0  0  0  0
  -20.9396  -29.8721   21.6873 H   0  0  0  0  0  0
  -26.0169  -38.2850   24.1444 H   0  0  0  0  0  0
  -27.8315  -17.0273   22.0263 H   0  0  0  0  0  0
  -31.3877  -17.6819   19.6942 H   0  0  0  0  0  0
  -27.2975  -19.3390   21.9206 H   0  0  0  0  0  0
  -30.8709  -20.0909   19.6137 H   0  0  0  0  0  0
  -27.8441  -21.3717   22.7149 H   0  0  0  0  0  0
  -26.6336  -21.4367   21.4220 H   0  0  0  0  0  0
  -27.5414  -22.8668   21.8730 H   0  0  0  0  0  0
  -27.7878  -23.6032   19.1247 H   0  0  0  0  0  0
  -29.3478  -24.3025   18.9275 H   0  0  0  0  0  0
  -30.1784  -22.8608   20.9723 H   0  0  0  0  0  0
  -30.0211  -22.1897   19.3862 H   0  0  0  0  0  0
  -29.0468  -25.1259   21.4447 H   0  0  0  0  0  0
  -27.3622  -24.9570   21.1003 H   0  0  0  0  0  0
  -28.9737  -15.2234   21.4302 H   0  0  0  0  0  0
  1 25  1  0  0  0
  1 30  2  0  0  0
  1 81  1  0  0  0
  2  3  1  0  0  0
  2 25  1  0  0  0
  2 83  1  0  0  0
  2 84  1  0  0  0
  3  4  1  0  0  0
  3 85  1  0  0  0
  3 86  1  0  0  0
  4  5  1  0  0  0
  4 87  1  0  0  0
  4 88  1  0  0  0
  5  6  1  0  0  0
  5 26  1  0  0  0
  5 89  1  0  0  0
  6 25  1  0  0  0
  6 90  1  0  0  0
  6 91  1  0  0  0
  7  8  2  0  0  0
  7 26  1  0  0  0
  7 29  1  0  0  0
  8  9  1  0  0  0
  8 22  1  0  0  0
  9 10  1  0  0  0
  9 27  2  0  0  0
 10 11  2  0  0  0
 10 15  1  0  0  0
 11 12  1  0  0  0
 11 92  1  0  0  0
 12 13  2  0  0  0
 12 93  1  0  0  0
 13 14  1  0  0  0
 13 31  1  0  0  0
 14 15  2  0  0  0
 14 94  1  0  0  0
 15 95  1  0  0  0
 16 17  2  0  0  0
 16 21  1  0  0  0
 16 31  1  0  0  0
 17 18  1  0  0  0
 17 96  1  0  0  0
 18 19  2  0  0  0
 18 97  1  0  0  0
 19 20  1  0  0  0
 19 24  1  0  0  0
 20 21  2  0  0  0
 20 98  1  0  0  0
 21 23  1  0  0  0
 22 28  1  0  0  0
 22 32  2  0  0  0
 26 27  1  0  0  0
 28 99  1  0  0  0
 28100  1  0  0  0
 29101  1  0  0  0
 29102  1  0  0  0
 33 34  1  0  0  0
 33 66  1  0  0  0
 33 70  2  0  0  0
 34 36  1  0  0  0
 34 59  1  0  0  0
 34103  1  0  0  0
 35 44  2  0  0  0
 35 45  1  0  0  0
 35 68  1  0  0  0
 36 56  1  0  0  0
 36104  1  0  0  0
 37 39  1  0  0  0
 37 47  1  0  0  0
 37 66  1  0  0  0
 37105  1  0  0  0
 38 43  2  0  0  0
 38 46  1  0  0  0
 38 47  1  0  0  0
 39 64  1  0  0  0
 39 67  2  0  0  0
 40 52  1  0  0  0
 40 53  2  0  0  0
 40 58  1  0  0  0
 41106  1  0  0  0
 41107  1  0  0  0
 41108  1  0  0  0
 41 48  1  0  0  0
 42 43  1  0  0  0
 42 66  1  0  0  0
 42109  1  0  0  0
 42110  1  0  0  0
 43 44  1  0  0  0
 44111  1  0  0  0
 45 46  2  0  0  0
 45112  1  0  0  0
 46113  1  0  0  0
 47114  1  0  0  0
 47115  1  0  0  0
 48 56  1  0  0  0
 48 65  1  0  0  0
 48116  1  0  0  0
 49 50  1  0  0  0
 49 53  1  0  0  0
 49 64  1  0  0  0
 49117  1  0  0  0
 50 51  1  0  0  0
 50118  1  0  0  0
 50119  1  0  0  0
 51 52  1  0  0  0
 51120  1  0  0  0
 51121  1  0  0  0
 52122  1  0  0  0
 52123  1  0  0  0
 53 54  1  0  0  0
 54 55  2  0  0  0
 54124  1  0  0  0
 55 57  1  0  0  0
 55125  1  0  0  0
 56 69  2  0  0  0
 57 58  2  0  0  0
 57126  1  0  0  0
 58127  1  0  0  0
 59 60  1  0  0  0
 59 61  1  0  0  0
 59 62  1  0  0  0
 60128  1  0  0  0
 60129  1  0  0  0
 60130  1  0  0  0
 61131  1  0  0  0
 61132  1  0  0  0
 61133  1  0  0  0
 62134  1  0  0  0
 62135  1  0  0  0
 62136  1  0  0  0
 63 65  1  0  0  0
 63137  1  0  0  0
 63138  1  0  0  0
 63139  1  0  0  0
 64140  1  0  0  0
 65141  1  0  0  0
 68 80  1  0  0  0
 71 73  2  0  0  0
 71 75  1  0  0  0
 71142  1  0  0  0
 72 74  1  0  0  0
 72 75  2  0  0  0
 72143  1  0  0  0
 73 76  1  0  0  0
 73144  1  0  0  0
 74 76  2  0  0  0
 74145  1  0  0  0
 75 81  1  0  0  0
 76 82  1  0  0  0
 77 82  1  0  0  0
 77146  1  0  0  0
 77147  1  0  0  0
 77148  1  0  0  0
 78 79  1  0  0  0
 78 80  1  0  0  0
 78149  1  0  0  0
 78150  1  0  0  0
 79 82  1  0  0  0
 79151  1  0  0  0
 79152  1  0  0  0
 80153  1  0  0  0
 80154  1  0  0  0
 81155  1  0  0  0
M  ISO  4   1 100  68 101  80 101  81 100
M  END
> <chiral flag>
0

> <version>
0

> <s_m_source_file>
/data/baiqing/PycharmProjects/Reinvent-master-3.2/result/LINK_invent/BTK/process_docking_weight1_custom_product_contain_oxygen_bond_distance_aromatic_linkinvent_7_9_3/rearranged_h_0017.sdf

> <i_m_source_file_index>
11

> <r_mmod_Potential_Energy-OPLS-2005>
96.0075302124023

> <r_mmod_Stretch_Energy-OPLS-2005>
90.3139038085938

> <r_mmod_Bend_Energy-OPLS-2005>
187.635864257812

> <r_mmod_Torsional_Energy-OPLS-2005>
230.668258666992

> <r_mmod_Improper_Torsional_Energy-OPLS-2005>
4.55378293991089

> <r_mmod_Van_der_Waal_Energy-OPLS-2005>
145.405334472656

> <r_mmod_Electrostatic_Energy-OPLS-2005>
-383.672637939453

> <r_mmod_Solvation_Energy-OPLS-2005>
-227.081100463867

> <b_mmod_Minimization_Converged-OPLS-2005>
0

> <r_mmod_RMS_Derivative-OPLS-2005>
2.64921760559082

$$$$
12
                    3D
 Structure written by MMmdl.
157165  0  0  1  0            999 V2000
  -30.4851  -14.9778   20.3143 C   0  0  0  0  0  0
  -30.4382  -12.5664   19.5081 C   0  0  0  0  0  0
  -29.5257  -12.3541   18.2722 C   0  0  0  0  0  0
  -28.0399  -12.2454   18.6858 C   0  0  0  0  0  0
  -27.6098  -13.2319   19.8042 C   0  0  2  0  0  0
  -28.6494  -13.3018   20.9351 C   0  0  0  0  0  0
  -25.2381  -13.8190   20.5692 C   0  0  0  0  0  0
  -24.1680  -13.0451   20.9259 C   0  0  0  0  0  0
  -24.6245  -11.6922   20.8735 C   0  0  0  0  0  0
  -23.8942  -10.4289   21.0357 C   0  0  0  0  0  0
  -24.3540   -9.4202   21.9129 C   0  0  0  0  0  0
  -23.6263   -8.2206   22.0683 C   0  0  0  0  0  0
  -22.4246   -8.0212   21.3487 C   0  0  0  0  0  0
  -21.9843   -9.0153   20.4580 C   0  0  0  0  0  0
  -22.7105  -10.2075   20.3004 C   0  0  0  0  0  0
  -21.6846   -6.0664   22.5259 C   0  0  0  0  0  0
  -21.4001   -6.5575   23.8203 C   0  0  0  0  0  0
  -21.3682   -5.6727   24.9174 C   0  0  0  0  0  0
  -21.6080   -4.3003   24.7227 C   0  0  0  0  0  0
  -21.8816   -3.8070   23.4355 C   0  0  0  0  0  0
  -21.9193   -4.6880   22.3392 C   0  0  0  0  0  0
  -22.7704  -13.5219   21.1976 C   0  0  0  0  0  0
  -22.1642   -4.2061   21.0976 F   0  0  0  0  0  0
  -21.5676   -3.4491   25.7742 F   0  0  0  0  0  0
  -29.9093  -13.7088   20.3044 N   0  0  0  0  0  0
  -26.2728  -12.9390   20.3092 N   0  0  0  0  0  0
  -25.9175  -11.6550   20.5698 N   0  0  0  0  0  0
  -22.0348  -12.8199   22.0527 N   0  0  0  0  0  0
  -25.4209  -15.1904   20.4119 N   0  0  0  0  0  0
  -31.7209  -15.0172   20.2423 O   0  0  0  0  0  0
  -21.6615   -6.8799   21.4224 O   0  0  0  0  0  0
  -22.3354  -14.5508   20.6814 O   0  0  0  0  0  0
  -24.6482  -31.8426   23.1813 C   0  0  0  0  0  0
  -25.9273  -32.4637   23.8216 C   0  0  1  0  0  0
  -27.2058  -27.1413   20.1565 C   0  0  0  0  0  0
  -25.6008  -33.8435   24.2122 N   0  0  0  0  0  0
  -23.4481  -30.4650   21.5234 C   0  0  2  0  0  0
  -24.8958  -28.8846   20.1077 C   0  0  0  0  0  0
  -22.7552  -29.4584   22.4776 C   0  0  0  0  0  0
  -18.0330  -28.1397   22.8467 C   0  0  0  0  0  0
  -24.1523  -36.7228   23.2630 C   0  0  0  0  0  0
  -26.0050  -30.7217   21.3781 C   0  0  0  0  0  0
  -26.0733  -29.3345   20.7199 C   0  0  0  0  0  0
  -27.2361  -28.4783   20.7238 C   0  0  0  0  0  0
  -26.0077  -26.7857   19.5126 C   0  0  0  0  0  0
  -24.8747  -27.6266   19.4834 C   0  0  0  0  0  0
  -23.6745  -29.7891   20.1438 C   0  0  0  0  0  0
  -25.4141  -36.2957   24.0280 C   0  0  1  0  0  0
  -20.5947  -28.3735   23.1177 C   0  0  2  0  0  0
  -20.6814  -26.9424   22.5374 C   0  0  0  0  0  0
  -19.5787  -26.6374   21.5181 C   0  0  0  0  0  0
  -18.1969  -26.7936   22.1607 C   0  0  0  0  0  0
  -19.1602  -28.8884   23.2826 C   0  0  0  0  0  0
  -18.9518  -30.1473   23.8841 C   0  0  0  0  0  0
  -17.6519  -30.6579   24.0557 C   0  0  0  0  0  0
  -25.9105  -34.9355   23.4993 C   0  0  0  0  0  0
  -16.5396  -29.9080   23.6338 C   0  0  0  0  0  0
  -16.7323  -28.6519   23.0331 C   0  0  0  0  0  0
  -26.4598  -31.6511   25.0664 C   0  0  0  0  0  0
  -25.3812  -31.3712   26.1360 C   0  0  0  0  0  0
  -27.0456  -30.2878   24.6301 C   0  0  0  0  0  0
  -27.6087  -32.4305   25.7483 C   0  0  0  0  0  0
  -27.5569  -37.1757   24.8457 C   0  0  0  0  0  0
  -21.4255  -29.3068   22.3513 N   0  0  0  0  0  0
  -26.4277  -37.3687   23.9420 N   0  0  0  0  0  0
  -24.7190  -31.0348   22.0793 N   0  0  0  0  0  0
  -23.4214  -28.8104   23.2905 O   0  0  0  0  0  0
  -28.2457  -26.1519   20.1592 O   0  0  0  0  0  0
  -26.5672  -34.8877   22.4554 O   0  0  0  0  0  0
  -23.5608  -32.1268   23.7063 O   0  0  0  0  0  0
  -30.5299  -18.5440   20.4137 C   0  0  0  0  0  0
  -30.2888  -19.9808   20.5155 C   0  0  0  0  0  0
  -28.2147  -18.2052   20.1788 C   0  0  0  0  0  0
  -29.5043  -17.5577   20.2322 C   0  0  0  0  0  0
  -29.0022  -20.6266   20.4097 C   0  0  0  0  0  0
  -27.9713  -19.6433   20.2389 C   0  0  0  0  0  0
  -28.4353  -23.2905   20.0471 C   0  0  0  0  0  0
  -28.8868  -16.9927   17.5065 C   0  0  0  0  0  0
  -28.9658  -22.3333   22.2144 C   0  0  0  0  0  0
  -27.9950  -24.7398   20.7530 C   0  0  0  0  0  0
  -29.7351  -15.9944   18.3190 C   0  0  0  0  0  0
  -28.7535  -22.1036   20.7858 N   0  0  0  0  0  0
  -29.7210  -16.0911   19.8052 N   0  0  0  0  0  0
  -28.4413  -23.2647   18.8105 O   0  0  0  0  0  0
  -26.6863  -20.0692   20.1704 F   0  0  0  0  0  0
  -31.4705  -12.7300   19.2008 H   0  0  0  0  0  0
  -30.4481  -11.6625   20.1204 H   0  0  0  0  0  0
  -29.8198  -11.4188   17.7964 H   0  0  0  0  0  0
  -29.6859  -13.0960   17.4928 H   0  0  0  0  0  0
  -27.9097  -11.2286   19.0593 H   0  0  0  0  0  0
  -27.3838  -12.3287   17.8163 H   0  0  0  0  0  0
  -27.5586  -14.2103   19.3297 H   0  0  0  0  0  0
  -28.7397  -12.3346   21.4295 H   0  0  0  0  0  0
  -28.3506  -14.0191   21.7013 H   0  0  0  0  0  0
  -25.2670   -9.5726   22.4727 H   0  0  0  0  0  0
  -23.9980   -7.4587   22.7411 H   0  0  0  0  0  0
  -21.0765   -8.8634   19.8891 H   0  0  0  0  0  0
  -22.3486  -10.9617   19.6136 H   0  0  0  0  0  0
  -21.1944   -7.6056   23.9701 H   0  0  0  0  0  0
  -21.1549   -6.0431   25.9089 H   0  0  0  0  0  0
  -22.0590   -2.7520   23.2858 H   0  0  0  0  0  0
  -22.3912  -11.9885   22.5000 H   0  0  0  0  0  0
  -21.0943  -13.1230   22.2732 H   0  0  0  0  0  0
  -24.6815  -15.8756   20.5308 H   0  0  0  0  0  0
  -26.2894  -15.5907   20.0896 H   0  0  0  0  0  0
  -26.7349  -32.5264   23.0948 H   0  0  0  0  0  0
  -25.0152  -33.9563   25.0263 H   0  0  0  0  0  0
  -22.7521  -31.2908   21.3612 H   0  0  0  0  0  0
  -23.3753  -35.9598   23.3258 H   0  0  0  0  0  0
  -24.3611  -36.8900   22.2057 H   0  0  0  0  0  0
  -23.7353  -37.6425   23.6716 H   0  0  0  0  0  0
  -26.1825  -31.4879   20.6202 H   0  0  0  0  0  0
  -26.8645  -30.7541   22.0359 H   0  0  0  0  0  0
  -28.1380  -28.8236   21.2129 H   0  0  0  0  0  0
  -25.9398  -25.8140   19.0454 H   0  0  0  0  0  0
  -23.9799  -27.2748   18.9880 H   0  0  0  0  0  0
  -23.8054  -30.5612   19.3834 H   0  0  0  0  0  0
  -22.7953  -29.2256   19.8296 H   0  0  0  0  0  0
  -25.1352  -36.1688   25.0768 H   0  0  0  0  0  0
  -21.0092  -28.3351   24.1278 H   0  0  0  0  0  0
  -20.5661  -26.2356   23.3604 H   0  0  0  0  0  0
  -21.6679  -26.7384   22.1184 H   0  0  0  0  0  0
  -19.6936  -25.6275   21.1228 H   0  0  0  0  0  0
  -19.6726  -27.3160   20.6686 H   0  0  0  0  0  0
  -17.4222  -26.6656   21.4023 H   0  0  0  0  0  0
  -18.0402  -26.0090   22.9024 H   0  0  0  0  0  0
  -19.7996  -30.7313   24.2144 H   0  0  0  0  0  0
  -17.5075  -31.6243   24.5186 H   0  0  0  0  0  0
  -15.5396  -30.2966   23.7692 H   0  0  0  0  0  0
  -15.8727  -28.0827   22.7034 H   0  0  0  0  0  0
  -24.5986  -30.7042   25.7710 H   0  0  0  0  0  0
  -24.9034  -32.2907   26.4741 H   0  0  0  0  0  0
  -25.8130  -30.8923   27.0154 H   0  0  0  0  0  0
  -26.3056  -29.6549   24.1360 H   0  0  0  0  0  0
  -27.4064  -29.7216   25.4908 H   0  0  0  0  0  0
  -27.8990  -30.4019   23.9606 H   0  0  0  0  0  0
  -27.2580  -33.3585   26.2007 H   0  0  0  0  0  0
  -28.3934  -32.6885   25.0362 H   0  0  0  0  0  0
  -28.0710  -31.8476   26.5460 H   0  0  0  0  0  0
  -28.2521  -38.0110   24.7486 H   0  0  0  0  0  0
  -28.1117  -36.2613   24.6263 H   0  0  0  0  0  0
  -27.2281  -37.1359   25.8859 H   0  0  0  0  0  0
  -20.9423  -29.8832   21.6750 H   0  0  0  0  0  0
  -26.0086  -38.2726   24.1425 H   0  0  0  0  0  0
  -31.5517  -18.1948   20.4544 H   0  0  0  0  0  0
  -31.1484  -20.6089   20.6976 H   0  0  0  0  0  0
  -27.3514  -17.5759   20.0282 H   0  0  0  0  0  0
  -28.9933  -16.7869   16.4390 H   0  0  0  0  0  0
  -29.1881  -18.0300   17.6571 H   0  0  0  0  0  0
  -27.8265  -16.8989   17.7426 H   0  0  0  0  0  0
  -29.7151  -23.1117   22.3713 H   0  0  0  0  0  0
  -29.3451  -21.4390   22.7074 H   0  0  0  0  0  0
  -28.0410  -22.6105   22.7250 H   0  0  0  0  0  0
  -28.4891  -24.7976   21.7179 H   0  0  0  0  0  0
  -26.9377  -24.6439   20.9989 H   0  0  0  0  0  0
  -29.3600  -15.0288   18.0112 H   0  0  0  0  0  0
  -30.7662  -16.0670   17.9643 H   0  0  0  0  0  0
  1 25  1  0  0  0
  1 30  2  0  0  0
  1 83  1  0  0  0
  2  3  1  0  0  0
  2 25  1  0  0  0
  2 86  1  0  0  0
  2 87  1  0  0  0
  3  4  1  0  0  0
  3 88  1  0  0  0
  3 89  1  0  0  0
  4  5  1  0  0  0
  4 90  1  0  0  0
  4 91  1  0  0  0
  5  6  1  0  0  0
  5 26  1  0  0  0
  5 92  1  0  0  0
  6 25  1  0  0  0
  6 93  1  0  0  0
  6 94  1  0  0  0
  7  8  2  0  0  0
  7 26  1  0  0  0
  7 29  1  0  0  0
  8  9  1  0  0  0
  8 22  1  0  0  0
  9 10  1  0  0  0
  9 27  2  0  0  0
 10 11  2  0  0  0
 10 15  1  0  0  0
 11 12  1  0  0  0
 11 95  1  0  0  0
 12 13  2  0  0  0
 12 96  1  0  0  0
 13 14  1  0  0  0
 13 31  1  0  0  0
 14 15  2  0  0  0
 14 97  1  0  0  0
 15 98  1  0  0  0
 16 17  2  0  0  0
 16 21  1  0  0  0
 16 31  1  0  0  0
 17 18  1  0  0  0
 17 99  1  0  0  0
 18 19  2  0  0  0
 18100  1  0  0  0
 19 20  1  0  0  0
 19 24  1  0  0  0
 20 21  2  0  0  0
 20101  1  0  0  0
 21 23  1  0  0  0
 22 28  1  0  0  0
 22 32  2  0  0  0
 26 27  1  0  0  0
 28102  1  0  0  0
 28103  1  0  0  0
 29104  1  0  0  0
 29105  1  0  0  0
 33 34  1  0  0  0
 33 66  1  0  0  0
 33 70  2  0  0  0
 34 36  1  0  0  0
 34 59  1  0  0  0
 34106  1  0  0  0
 35 44  2  0  0  0
 35 45  1  0  0  0
 35 68  1  0  0  0
 36 56  1  0  0  0
 36107  1  0  0  0
 37 39  1  0  0  0
 37 47  1  0  0  0
 37 66  1  0  0  0
 37108  1  0  0  0
 38 43  2  0  0  0
 38 46  1  0  0  0
 38 47  1  0  0  0
 39 64  1  0  0  0
 39 67  2  0  0  0
 40 52  1  0  0  0
 40 53  2  0  0  0
 40 58  1  0  0  0
 41109  1  0  0  0
 41110  1  0  0  0
 41111  1  0  0  0
 41 48  1  0  0  0
 42 43  1  0  0  0
 42 66  1  0  0  0
 42112  1  0  0  0
 42113  1  0  0  0
 43 44  1  0  0  0
 44114  1  0  0  0
 45 46  2  0  0  0
 45115  1  0  0  0
 46116  1  0  0  0
 47117  1  0  0  0
 47118  1  0  0  0
 48 56  1  0  0  0
 48 65  1  0  0  0
 48119  1  0  0  0
 49 50  1  0  0  0
 49 53  1  0  0  0
 49 64  1  0  0  0
 49120  1  0  0  0
 50 51  1  0  0  0
 50121  1  0  0  0
 50122  1  0  0  0
 51 52  1  0  0  0
 51123  1  0  0  0
 51124  1  0  0  0
 52125  1  0  0  0
 52126  1  0  0  0
 53 54  1  0  0  0
 54 55  2  0  0  0
 54127  1  0  0  0
 55 57  1  0  0  0
 55128  1  0  0  0
 56 69  2  0  0  0
 57 58  2  0  0  0
 57129  1  0  0  0
 58130  1  0  0  0
 59 60  1  0  0  0
 59 61  1  0  0  0
 59 62  1  0  0  0
 60131  1  0  0  0
 60132  1  0  0  0
 60133  1  0  0  0
 61134  1  0  0  0
 61135  1  0  0  0
 61136  1  0  0  0
 62137  1  0  0  0
 62138  1  0  0  0
 62139  1  0  0  0
 63 65  1  0  0  0
 63140  1  0  0  0
 63141  1  0  0  0
 63142  1  0  0  0
 64143  1  0  0  0
 65144  1  0  0  0
 68 80  1  0  0  0
 71 72  2  0  0  0
 71 74  1  0  0  0
 71145  1  0  0  0
 72 75  1  0  0  0
 72146  1  0  0  0
 73 74  2  0  0  0
 73 76  1  0  0  0
 73147  1  0  0  0
 74 83  1  0  0  0
 75 76  2  0  0  0
 75 82  1  0  0  0
 76 85  1  0  0  0
 77 80  1  0  0  0
 77 82  1  0  0  0
 77 84  2  0  0  0
 78 81  1  0  0  0
 78148  1  0  0  0
 78149  1  0  0  0
 78150  1  0  0  0
 79 82  1  0  0  0
 79151  1  0  0  0
 79152  1  0  0  0
 79153  1  0  0  0
 80154  1  0  0  0
 80155  1  0  0  0
 81 83  1  0  0  0
 81156  1  0  0  0
 81157  1  0  0  0
M  ISO  4   1 100  68 101  80 101  83 100
M  END
> <chiral flag>
0

> <version>
0

> <s_m_source_file>
/data/baiqing/PycharmProjects/Reinvent-master-3.2/result/LINK_invent/BTK/process_docking_weight1_custom_product_contain_oxygen_bond_distance_aromatic_linkinvent_7_9_3/rearranged_h_0017.sdf

> <i_m_source_file_index>
12

> <r_mmod_Potential_Energy-OPLS-2005>
874.590026855469

> <r_mmod_Stretch_Energy-OPLS-2005>
247.470993041992

> <r_mmod_Bend_Energy-OPLS-2005>
272.287384033203

> <r_mmod_Torsional_Energy-OPLS-2005>
417.472534179688

> <r_mmod_Improper_Torsional_Energy-OPLS-2005>
29.7523918151855

> <r_mmod_Van_der_Waal_Energy-OPLS-2005>
143.580993652344

> <r_mmod_Electrostatic_Energy-OPLS-2005>
-246.574829101562

> <r_mmod_Solvation_Energy-OPLS-2005>
-208.663925170898

> <b_mmod_Minimization_Converged-OPLS-2005>
0

> <r_mmod_RMS_Derivative-OPLS-2005>
6.65351915359497

$$$$
13
                    3D
 Structure written by MMmdl.
155163  0  0  1  0            999 V2000
  -30.6758  -14.6058   20.5811 C   0  0  0  0  0  0
  -30.4347  -12.3998   19.4416 C   0  0  0  0  0  0
  -29.5027  -12.5216   18.2160 C   0  0  0  0  0  0
  -28.0251  -12.3638   18.6242 C   0  0  0  0  0  0
  -27.6530  -13.2189   19.8633 C   0  0  2  0  0  0
  -28.6939  -13.0342   20.9826 C   0  0  0  0  0  0
  -25.2556  -13.8175   20.5708 C   0  0  0  0  0  0
  -24.1811  -13.0422   20.9152 C   0  0  0  0  0  0
  -24.6393  -11.6901   20.8707 C   0  0  0  0  0  0
  -23.9063  -10.4287   21.0385 C   0  0  0  0  0  0
  -24.3610   -9.4212   21.9168 C   0  0  0  0  0  0
  -23.6280   -8.2246   22.0742 C   0  0  0  0  0  0
  -22.4262   -8.0276   21.3537 C   0  0  0  0  0  0
  -21.9902   -9.0254   20.4639 C   0  0  0  0  0  0
  -22.7229  -10.2130   20.3045 C   0  0  0  0  0  0
  -21.6852   -6.0720   22.5271 C   0  0  0  0  0  0
  -21.4019   -6.5633   23.8205 C   0  0  0  0  0  0
  -21.3664   -5.6786   24.9165 C   0  0  0  0  0  0
  -21.6050   -4.3044   24.7215 C   0  0  0  0  0  0
  -21.8818   -3.8137   23.4337 C   0  0  0  0  0  0
  -21.9194   -4.6955   22.3389 C   0  0  0  0  0  0
  -22.7850  -13.5226   21.1815 C   0  0  0  0  0  0
  -22.1660   -4.2136   21.0971 F   0  0  0  0  0  0
  -21.5630   -3.4532   25.7738 F   0  0  0  0  0  0
  -30.0142  -13.4063   20.4420 N   0  0  0  0  0  0
  -26.2988  -12.9364   20.3327 N   0  0  0  0  0  0
  -25.9330  -11.6510   20.5739 N   0  0  0  0  0  0
  -22.0498  -12.8237   22.0394 N   0  0  0  0  0  0
  -25.4243  -15.1895   20.4251 N   0  0  0  0  0  0
  -31.7827  -14.7687   20.0587 O   0  0  0  0  0  0
  -21.6637   -6.8864   21.4234 O   0  0  0  0  0  0
  -22.3533  -14.5532   20.6668 O   0  0  0  0  0  0
  -24.6289  -31.8612   23.2037 C   0  0  0  0  0  0
  -25.9126  -32.4773   23.8389 C   0  0  1  0  0  0
  -27.2175  -27.3100   20.1071 C   0  0  0  0  0  0
  -25.5923  -33.8568   24.2300 N   0  0  0  0  0  0
  -23.4224  -30.4893   21.5479 C   0  0  2  0  0  0
  -24.8648  -28.9476   20.1134 C   0  0  0  0  0  0
  -22.7477  -29.4654   22.4911 C   0  0  0  0  0  0
  -18.0289  -28.1392   22.8484 C   0  0  0  0  0  0
  -24.1487  -36.7333   23.2635 C   0  0  0  0  0  0
  -25.9669  -30.7887   21.3767 C   0  0  0  0  0  0
  -26.0384  -29.4165   20.7170 C   0  0  0  0  0  0
  -27.2178  -28.6102   20.7051 C   0  0  0  0  0  0
  -26.0136  -26.8997   19.4846 C   0  0  0  0  0  0
  -24.8547  -27.6937   19.4901 C   0  0  0  0  0  0
  -23.6358  -29.8307   20.1629 C   0  0  0  0  0  0
  -25.4099  -36.3083   24.0329 C   0  0  1  0  0  0
  -20.5905  -28.3710   23.1259 C   0  0  2  0  0  0
  -20.6792  -26.9420   22.5409 C   0  0  0  0  0  0
  -19.5752  -26.6388   21.5227 C   0  0  0  0  0  0
  -18.1930  -26.7935   22.1630 C   0  0  0  0  0  0
  -19.1545  -28.8857   23.2877 C   0  0  0  0  0  0
  -18.9465  -30.1464   23.8890 C   0  0  0  0  0  0
  -17.6465  -30.6588   24.0559 C   0  0  0  0  0  0
  -25.9039  -34.9440   23.5117 C   0  0  0  0  0  0
  -16.5362  -29.9082   23.6325 C   0  0  0  0  0  0
  -16.7285  -28.6508   23.0336 C   0  0  0  0  0  0
  -26.4498  -31.6576   25.0750 C   0  0  0  0  0  0
  -25.3716  -31.3699   26.1454 C   0  0  0  0  0  0
  -27.0374  -30.3000   24.6229 C   0  0  0  0  0  0
  -27.6052  -32.4320   25.7512 C   0  0  0  0  0  0
  -27.5593  -37.1784   24.8435 C   0  0  0  0  0  0
  -21.4196  -29.3069   22.3644 N   0  0  0  0  0  0
  -26.4278  -37.3785   23.9416 N   0  0  0  0  0  0
  -24.6923  -31.0618   22.0992 N   0  0  0  0  0  0
  -23.4199  -28.8180   23.2974 O   0  0  0  0  0  0
  -28.3273  -26.4442   20.1415 O   0  0  0  0  0  0
  -26.5624  -34.8911   22.4696 O   0  0  0  0  0  0
  -23.5440  -32.1421   23.7347 O   0  0  0  0  0  0
  -28.7125  -19.1956   20.6651 C   0  0  0  0  0  0
  -31.1352  -17.7988   20.4338 C   0  0  0  0  0  0
  -29.8747  -19.9553   20.3657 C   0  0  0  0  0  0
  -29.9861  -17.0458   20.7944 C   0  0  0  0  0  0
  -31.0792  -19.2086   20.2300 C   0  0  0  0  0  0
  -28.7677  -17.7825   20.8767 C   0  0  0  0  0  0
  -29.8323  -15.4838   22.6823 C   0  0  0  0  0  0
  -29.2199  -23.9124   20.2209 C   0  0  0  0  0  0
  -28.8022  -22.3674   20.2085 C   0  0  0  0  0  0
  -28.0602  -24.9856   20.0428 C   0  0  0  0  0  0
  -29.9287  -21.3853   20.2164 N   0  0  0  0  0  0
  -30.0500  -15.6451   21.2369 N   0  0  0  0  0  0
  -32.2250  -19.8696   19.9248 F   0  0  0  0  0  0
  -27.6236  -17.1268   21.1909 F   0  0  0  0  0  0
  -31.4742  -12.5245   19.1337 H   0  0  0  0  0  0
  -30.3799  -11.3964   19.8687 H   0  0  0  0  0  0
  -29.7645  -11.7691   17.4711 H   0  0  0  0  0  0
  -29.6504  -13.4903   17.7348 H   0  0  0  0  0  0
  -27.8561  -11.3090   18.8419 H   0  0  0  0  0  0
  -27.3725  -12.6081   17.7859 H   0  0  0  0  0  0
  -27.6830  -14.2643   19.5540 H   0  0  0  0  0  0
  -28.7139  -11.9955   21.3181 H   0  0  0  0  0  0
  -28.3910  -13.6058   21.8544 H   0  0  0  0  0  0
  -25.2744   -9.5699   22.4757 H   0  0  0  0  0  0
  -23.9985   -7.4652   22.7479 H   0  0  0  0  0  0
  -21.0825   -8.8781   19.8964 H   0  0  0  0  0  0
  -22.3668  -10.9674   19.6167 H   0  0  0  0  0  0
  -21.2014   -7.6144   23.9699 H   0  0  0  0  0  0
  -21.1493   -6.0517   25.9069 H   0  0  0  0  0  0
  -22.0595   -2.7603   23.2838 H   0  0  0  0  0  0
  -22.4127  -11.9937   22.4843 H   0  0  0  0  0  0
  -21.1114  -13.1264   22.2562 H   0  0  0  0  0  0
  -24.6725  -15.8432   20.6104 H   0  0  0  0  0  0
  -26.3194  -15.6491   20.3027 H   0  0  0  0  0  0
  -26.7178  -32.5444   23.1131 H   0  0  0  0  0  0
  -24.9972  -33.9702   25.0379 H   0  0  0  0  0  0
  -22.7165  -31.3103   21.4088 H   0  0  0  0  0  0
  -23.3748  -35.9669   23.3244 H   0  0  0  0  0  0
  -24.3598  -36.9039   22.2067 H   0  0  0  0  0  0
  -23.7234  -37.6507   23.6708 H   0  0  0  0  0  0
  -26.0942  -31.5471   20.6032 H   0  0  0  0  0  0
  -26.8485  -30.8408   22.0048 H   0  0  0  0  0  0
  -28.1188  -28.9635   21.1880 H   0  0  0  0  0  0
  -25.9253  -25.9483   18.9853 H   0  0  0  0  0  0
  -23.9548  -27.3260   19.0180 H   0  0  0  0  0  0
  -23.7588  -30.6101   19.4107 H   0  0  0  0  0  0
  -22.7517  -29.2666   19.8590 H   0  0  0  0  0  0
  -25.1266  -36.1937   25.0824 H   0  0  0  0  0  0
  -21.0008  -28.3324   24.1381 H   0  0  0  0  0  0
  -20.5744  -26.2320   23.3624 H   0  0  0  0  0  0
  -21.6646  -26.7474   22.1170 H   0  0  0  0  0  0
  -19.6909  -25.6296   21.1257 H   0  0  0  0  0  0
  -19.6676  -27.3193   20.6751 H   0  0  0  0  0  0
  -17.4209  -26.6678   21.4032 H   0  0  0  0  0  0
  -18.0307  -26.0088   22.9026 H   0  0  0  0  0  0
  -19.7938  -30.7271   24.2263 H   0  0  0  0  0  0
  -17.5016  -31.6259   24.5167 H   0  0  0  0  0  0
  -15.5341  -30.2979   23.7649 H   0  0  0  0  0  0
  -15.8690  -28.0835   22.7030 H   0  0  0  0  0  0
  -24.5893  -30.7055   25.7756 H   0  0  0  0  0  0
  -24.8891  -32.2853   26.4876 H   0  0  0  0  0  0
  -25.8019  -30.8853   27.0231 H   0  0  0  0  0  0
  -26.2983  -29.6679   24.1270 H   0  0  0  0  0  0
  -27.4101  -29.7290   25.4753 H   0  0  0  0  0  0
  -27.8837  -30.4314   23.9479 H   0  0  0  0  0  0
  -27.2687  -33.3653   26.2052 H   0  0  0  0  0  0
  -28.3857  -32.6832   25.0314 H   0  0  0  0  0  0
  -28.0722  -31.8470   26.5442 H   0  0  0  0  0  0
  -28.2500  -38.0187   24.7599 H   0  0  0  0  0  0
  -28.1199  -36.2713   24.6113 H   0  0  0  0  0  0
  -27.2322  -37.1251   25.8835 H   0  0  0  0  0  0
  -20.9359  -29.8826   21.6896 H   0  0  0  0  0  0
  -26.0164  -38.2850   24.1483 H   0  0  0  0  0  0
  -27.7575  -19.6896   20.7667 H   0  0  0  0  0  0
  -32.0978  -17.3139   20.3655 H   0  0  0  0  0  0
  -30.4485  -16.1919   23.2369 H   0  0  0  0  0  0
  -30.0907  -14.4909   23.0541 H   0  0  0  0  0  0
  -28.7911  -15.6754   22.9417 H   0  0  0  0  0  0
  -29.9474  -24.0802   19.4265 H   0  0  0  0  0  0
  -29.7453  -24.1237   21.1528 H   0  0  0  0  0  0
  -28.1978  -22.1711   19.3214 H   0  0  0  0  0  0
  -28.1533  -22.1712   21.0636 H   0  0  0  0  0  0
  -27.2805  -24.7454   20.7689 H   0  0  0  0  0  0
  -27.6384  -24.7753   19.0596 H   0  0  0  0  0  0
  -30.8568  -21.7503   20.0108 H   0  0  0  0  0  0
  1 25  1  0  0  0
  1 30  2  0  0  0
  1 82  1  0  0  0
  2  3  1  0  0  0
  2 25  1  0  0  0
  2 85  1  0  0  0
  2 86  1  0  0  0
  3  4  1  0  0  0
  3 87  1  0  0  0
  3 88  1  0  0  0
  4  5  1  0  0  0
  4 89  1  0  0  0
  4 90  1  0  0  0
  5  6  1  0  0  0
  5 26  1  0  0  0
  5 91  1  0  0  0
  6 25  1  0  0  0
  6 92  1  0  0  0
  6 93  1  0  0  0
  7  8  2  0  0  0
  7 26  1  0  0  0
  7 29  1  0  0  0
  8  9  1  0  0  0
  8 22  1  0  0  0
  9 10  1  0  0  0
  9 27  2  0  0  0
 10 11  2  0  0  0
 10 15  1  0  0  0
 11 12  1  0  0  0
 11 94  1  0  0  0
 12 13  2  0  0  0
 12 95  1  0  0  0
 13 14  1  0  0  0
 13 31  1  0  0  0
 14 15  2  0  0  0
 14 96  1  0  0  0
 15 97  1  0  0  0
 16 17  2  0  0  0
 16 21  1  0  0  0
 16 31  1  0  0  0
 17 18  1  0  0  0
 17 98  1  0  0  0
 18 19  2  0  0  0
 18 99  1  0  0  0
 19 20  1  0  0  0
 19 24  1  0  0  0
 20 21  2  0  0  0
 20100  1  0  0  0
 21 23  1  0  0  0
 22 28  1  0  0  0
 22 32  2  0  0  0
 26 27  1  0  0  0
 28101  1  0  0  0
 28102  1  0  0  0
 29103  1  0  0  0
 29104  1  0  0  0
 33 34  1  0  0  0
 33 66  1  0  0  0
 33 70  2  0  0  0
 34 36  1  0  0  0
 34 59  1  0  0  0
 34105  1  0  0  0
 35 44  2  0  0  0
 35 45  1  0  0  0
 35 68  1  0  0  0
 36 56  1  0  0  0
 36106  1  0  0  0
 37 39  1  0  0  0
 37 47  1  0  0  0
 37 66  1  0  0  0
 37107  1  0  0  0
 38 43  2  0  0  0
 38 46  1  0  0  0
 38 47  1  0  0  0
 39 64  1  0  0  0
 39 67  2  0  0  0
 40 52  1  0  0  0
 40 53  2  0  0  0
 40 58  1  0  0  0
 41108  1  0  0  0
 41109  1  0  0  0
 41110  1  0  0  0
 41 48  1  0  0  0
 42 43  1  0  0  0
 42 66  1  0  0  0
 42111  1  0  0  0
 42112  1  0  0  0
 43 44  1  0  0  0
 44113  1  0  0  0
 45 46  2  0  0  0
 45114  1  0  0  0
 46115  1  0  0  0
 47116  1  0  0  0
 47117  1  0  0  0
 48 56  1  0  0  0
 48 65  1  0  0  0
 48118  1  0  0  0
 49 50  1  0  0  0
 49 53  1  0  0  0
 49 64  1  0  0  0
 49119  1  0  0  0
 50 51  1  0  0  0
 50120  1  0  0  0
 50121  1  0  0  0
 51 52  1  0  0  0
 51122  1  0  0  0
 51123  1  0  0  0
 52124  1  0  0  0
 52125  1  0  0  0
 53 54  1  0  0  0
 54 55  2  0  0  0
 54126  1  0  0  0
 55 57  1  0  0  0
 55127  1  0  0  0
 56 69  2  0  0  0
 57 58  2  0  0  0
 57128  1  0  0  0
 58129  1  0  0  0
 59 60  1  0  0  0
 59 61  1  0  0  0
 59 62  1  0  0  0
 60130  1  0  0  0
 60131  1  0  0  0
 60132  1  0  0  0
 61133  1  0  0  0
 61134  1  0  0  0
 61135  1  0  0  0
 62136  1  0  0  0
 62137  1  0  0  0
 62138  1  0  0  0
 63 65  1  0  0  0
 63139  1  0  0  0
 63140  1  0  0  0
 63141  1  0  0  0
 64142  1  0  0  0
 65143  1  0  0  0
 68 80  1  0  0  0
 71 73  2  0  0  0
 71 76  1  0  0  0
 71144  1  0  0  0
 72 74  1  0  0  0
 72 75  2  0  0  0
 72145  1  0  0  0
 73 75  1  0  0  0
 73 81  1  0  0  0
 74 76  2  0  0  0
 74 82  1  0  0  0
 75 83  1  0  0  0
 76 84  1  0  0  0
 77 82  1  0  0  0
 77146  1  0  0  0
 77147  1  0  0  0
 77148  1  0  0  0
 78 79  1  0  0  0
 78 80  1  0  0  0
 78149  1  0  0  0
 78150  1  0  0  0
 79 81  1  0  0  0
 79151  1  0  0  0
 79152  1  0  0  0
 80153  1  0  0  0
 80154  1  0  0  0
 81155  1  0  0  0
M  ISO  4   1 100  68 101  80 101  82 100
M  END
> <chiral flag>
0

> <version>
0

> <s_m_source_file>
/data/baiqing/PycharmProjects/Reinvent-master-3.2/result/LINK_invent/BTK/process_docking_weight1_custom_product_contain_oxygen_bond_distance_aromatic_linkinvent_7_9_3/rearranged_h_0017.sdf

> <i_m_source_file_index>
13

> <r_mmod_Potential_Energy-OPLS-2005>
236.736190795898

> <r_mmod_Stretch_Energy-OPLS-2005>
83.371452331543

> <r_mmod_Bend_Energy-OPLS-2005>
153.193801879883

> <r_mmod_Torsional_Energy-OPLS-2005>
290.566101074219

> <r_mmod_Improper_Torsional_Energy-OPLS-2005>
4.55374956130981

> <r_mmod_Van_der_Waal_Energy-OPLS-2005>
150.693771362305

> <r_mmod_Electrostatic_Energy-OPLS-2005>
-300.183990478516

> <r_mmod_Solvation_Energy-OPLS-2005>
-188.832077026367

> <b_mmod_Minimization_Converged-OPLS-2005>
0

> <r_mmod_RMS_Derivative-OPLS-2005>
2.60650706291199

$$$$
14
                    3D
 Structure written by MMmdl.
158166  0  0  1  0            999 V2000
  -30.6955  -14.6079   20.5537 C   0  0  0  0  0  0
  -30.4192  -12.3949   19.4456 C   0  0  0  0  0  0
  -29.4938  -12.5226   18.2168 C   0  0  0  0  0  0
  -28.0171  -12.3637   18.6276 C   0  0  0  0  0  0
  -27.6494  -13.2211   19.8672 C   0  0  2  0  0  0
  -28.6941  -13.0414   20.9867 C   0  0  0  0  0  0
  -25.2527  -13.8181   20.5686 C   0  0  0  0  0  0
  -24.1804  -13.0435   20.9187 C   0  0  0  0  0  0
  -24.6387  -11.6906   20.8744 C   0  0  0  0  0  0
  -23.9065  -10.4275   21.0406 C   0  0  0  0  0  0
  -24.3610   -9.4191   21.9189 C   0  0  0  0  0  0
  -23.6278   -8.2232   22.0760 C   0  0  0  0  0  0
  -22.4262   -8.0274   21.3550 C   0  0  0  0  0  0
  -21.9902   -9.0249   20.4649 C   0  0  0  0  0  0
  -22.7238  -10.2122   20.3057 C   0  0  0  0  0  0
  -21.6845   -6.0728   22.5281 C   0  0  0  0  0  0
  -21.4013   -6.5633   23.8214 C   0  0  0  0  0  0
  -21.3659   -5.6791   24.9177 C   0  0  0  0  0  0
  -21.6042   -4.3053   24.7233 C   0  0  0  0  0  0
  -21.8820   -3.8139   23.4355 C   0  0  0  0  0  0
  -21.9187   -4.6954   22.3404 C   0  0  0  0  0  0
  -22.7821  -13.5220   21.1844 C   0  0  0  0  0  0
  -22.1653   -4.2135   21.0985 F   0  0  0  0  0  0
  -21.5631   -3.4539   25.7749 F   0  0  0  0  0  0
  -30.0017  -13.4234   20.4297 N   0  0  0  0  0  0
  -26.2963  -12.9375   20.3344 N   0  0  0  0  0  0
  -25.9315  -11.6523   20.5771 N   0  0  0  0  0  0
  -22.0470  -12.8208   22.0405 N   0  0  0  0  0  0
  -25.4234  -15.1903   20.4122 N   0  0  0  0  0  0
  -31.8445  -14.6751   20.1032 O   0  0  0  0  0  0
  -21.6632   -6.8869   21.4242 O   0  0  0  0  0  0
  -22.3497  -14.5522   20.6686 O   0  0  0  0  0  0
  -24.6244  -31.8617   23.2023 C   0  0  0  0  0  0
  -25.9100  -32.4779   23.8343 C   0  0  1  0  0  0
  -27.2170  -27.3292   20.1106 C   0  0  0  0  0  0
  -25.5921  -33.8583   24.2270 N   0  0  0  0  0  0
  -23.4153  -30.4872   21.5492 C   0  0  2  0  0  0
  -24.8604  -28.9492   20.1111 C   0  0  0  0  0  0
  -22.7467  -29.4620   22.4963 C   0  0  0  0  0  0
  -18.0272  -28.1362   22.8474 C   0  0  0  0  0  0
  -24.1496  -36.7301   23.2633 C   0  0  0  0  0  0
  -25.9567  -30.7971   21.3699 C   0  0  0  0  0  0
  -26.0317  -29.4260   20.7132 C   0  0  0  0  0  0
  -27.2151  -28.6286   20.7025 C   0  0  0  0  0  0
  -26.0217  -26.9115   19.4771 C   0  0  0  0  0  0
  -24.8572  -27.6969   19.4825 C   0  0  0  0  0  0
  -23.6262  -29.8243   20.1633 C   0  0  0  0  0  0
  -25.4112  -36.3074   24.0321 C   0  0  1  0  0  0
  -20.5875  -28.3666   23.1289 C   0  0  2  0  0  0
  -20.6780  -26.9394   22.5405 C   0  0  0  0  0  0
  -19.5759  -26.6375   21.5196 C   0  0  0  0  0  0
  -18.1928  -26.7905   22.1604 C   0  0  0  0  0  0
  -19.1530  -28.8828   23.2875 C   0  0  0  0  0  0
  -18.9461  -30.1436   23.8886 C   0  0  0  0  0  0
  -17.6467  -30.6568   24.0557 C   0  0  0  0  0  0
  -25.9048  -34.9451   23.5089 C   0  0  0  0  0  0
  -16.5353  -29.9059   23.6339 C   0  0  0  0  0  0
  -16.7266  -28.6483   23.0340 C   0  0  0  0  0  0
  -26.4492  -31.6563   25.0701 C   0  0  0  0  0  0
  -25.3728  -31.3701   26.1427 C   0  0  0  0  0  0
  -27.0323  -30.2986   24.6118 C   0  0  0  0  0  0
  -27.6064  -32.4300   25.7477 C   0  0  0  0  0  0
  -27.5574  -37.1800   24.8463 C   0  0  0  0  0  0
  -21.4187  -29.3025   22.3707 N   0  0  0  0  0  0
  -26.4283  -37.3765   23.9402 N   0  0  0  0  0  0
  -24.6846  -31.0642   22.0981 N   0  0  0  0  0  0
  -23.4211  -28.8158   23.3022 O   0  0  0  0  0  0
  -28.3248  -26.4676   20.1707 O   0  0  0  0  0  0
  -26.5620  -34.8925   22.4653 O   0  0  0  0  0  0
  -23.5416  -32.1413   23.7356 O   0  0  0  0  0  0
  -28.6998  -18.8319   20.9385 C   0  0  0  0  0  0
  -28.2383  -20.1710   21.0974 C   0  0  0  0  0  0
  -30.3750  -21.0261   20.4274 C   0  0  0  0  0  0
  -30.0349  -18.5452   20.5625 C   0  0  0  0  0  0
  -29.0568  -21.3131   20.8543 C   0  0  0  0  0  0
  -30.8524  -19.6876   20.2942 C   0  0  0  0  0  0
  -27.7848  -22.7537   22.3327 C   0  0  0  0  0  0
  -29.3355  -15.9110   22.1701 C   0  0  0  0  0  0
  -30.6427  -17.0950   20.3937 C   0  0  0  0  0  0
  -29.1144  -23.9277   20.5541 C   0  0  0  0  0  0
  -28.0209  -25.0193   20.1743 C   0  0  0  0  0  0
  -28.5540  -22.6440   21.0896 N   0  0  0  0  0  0
  -30.0477  -15.7913   20.8921 N   0  0  0  0  0  0
  -32.4914  -19.4792   19.7841 Cl  0  0  0  0  0  0
  -31.4595  -12.4952   19.1329 H   0  0  0  0  0  0
  -30.3469  -11.3938   19.8747 H   0  0  0  0  0  0
  -29.7534  -11.7772   17.4633 H   0  0  0  0  0  0
  -29.6411  -13.4962   17.7471 H   0  0  0  0  0  0
  -27.8491  -11.3087   18.8485 H   0  0  0  0  0  0
  -27.3614  -12.6071   17.7910 H   0  0  0  0  0  0
  -27.6788  -14.2644   19.5530 H   0  0  0  0  0  0
  -28.7163  -11.9993   21.3110 H   0  0  0  0  0  0
  -28.4130  -13.5928   21.8766 H   0  0  0  0  0  0
  -25.2760   -9.5657   22.4761 H   0  0  0  0  0  0
  -23.9978   -7.4624   22.7485 H   0  0  0  0  0  0
  -21.0833   -8.8774   19.8956 H   0  0  0  0  0  0
  -22.3711  -10.9660   19.6155 H   0  0  0  0  0  0
  -21.2011   -7.6144   23.9714 H   0  0  0  0  0  0
  -21.1480   -6.0524   25.9080 H   0  0  0  0  0  0
  -22.0600   -2.7602   23.2868 H   0  0  0  0  0  0
  -22.4087  -11.9856   22.4772 H   0  0  0  0  0  0
  -21.1096  -13.1239   22.2636 H   0  0  0  0  0  0
  -24.6592  -15.8465   20.5266 H   0  0  0  0  0  0
  -26.2807  -15.6300   20.1026 H   0  0  0  0  0  0
  -26.7172  -32.5479   23.1094 H   0  0  0  0  0  0
  -25.0103  -33.9719   25.0437 H   0  0  0  0  0  0
  -22.7078  -31.3077   21.4104 H   0  0  0  0  0  0
  -23.3753  -35.9638   23.3291 H   0  0  0  0  0  0
  -24.3587  -36.8916   22.2048 H   0  0  0  0  0  0
  -23.7262  -37.6509   23.6664 H   0  0  0  0  0  0
  -26.0806  -31.5555   20.5959 H   0  0  0  0  0  0
  -26.8415  -30.8509   21.9925 H   0  0  0  0  0  0
  -28.1152  -28.9867   21.1820 H   0  0  0  0  0  0
  -25.9486  -25.9593   18.9759 H   0  0  0  0  0  0
  -23.9617  -27.3245   19.0041 H   0  0  0  0  0  0
  -23.7401  -30.6029   19.4092 H   0  0  0  0  0  0
  -22.7477  -29.2511   19.8624 H   0  0  0  0  0  0
  -25.1285  -36.1928   25.0813 H   0  0  0  0  0  0
  -20.9964  -28.3231   24.1409 H   0  0  0  0  0  0
  -20.5680  -26.2260   23.3590 H   0  0  0  0  0  0
  -21.6645  -26.7424   22.1191 H   0  0  0  0  0  0
  -19.6926  -25.6286   21.1210 H   0  0  0  0  0  0
  -19.6697  -27.3211   20.6747 H   0  0  0  0  0  0
  -17.4201  -26.6652   21.4004 H   0  0  0  0  0  0
  -18.0339  -26.0024   22.8991 H   0  0  0  0  0  0
  -19.7940  -30.7260   24.2241 H   0  0  0  0  0  0
  -17.5017  -31.6247   24.5160 H   0  0  0  0  0  0
  -15.5354  -30.2966   23.7657 H   0  0  0  0  0  0
  -15.8663  -28.0814   22.7042 H   0  0  0  0  0  0
  -24.5923  -30.7009   25.7777 H   0  0  0  0  0  0
  -24.8895  -32.2870   26.4831 H   0  0  0  0  0  0
  -25.8049  -30.8919   27.0224 H   0  0  0  0  0  0
  -26.2868  -29.6763   24.1152 H   0  0  0  0  0  0
  -27.4046  -29.7209   25.4591 H   0  0  0  0  0  0
  -27.8730  -30.4271   23.9295 H   0  0  0  0  0  0
  -27.2676  -33.3635   26.1988 H   0  0  0  0  0  0
  -28.3912  -32.6782   25.0323 H   0  0  0  0  0  0
  -28.0674  -31.8454   26.5449 H   0  0  0  0  0  0
  -28.2577  -38.0109   24.7515 H   0  0  0  0  0  0
  -28.1082  -36.2643   24.6284 H   0  0  0  0  0  0
  -27.2304  -37.1443   25.8867 H   0  0  0  0  0  0
  -20.9373  -29.8766   21.6931 H   0  0  0  0  0  0
  -26.0173  -38.2839   24.1418 H   0  0  0  0  0  0
  -28.0053  -18.0251   21.1192 H   0  0  0  0  0  0
  -27.2151  -20.3065   21.4171 H   0  0  0  0  0  0
  -31.0613  -21.8355   20.2275 H   0  0  0  0  0  0
  -26.7323  -22.5255   22.1595 H   0  0  0  0  0  0
  -27.8395  -23.7582   22.7555 H   0  0  0  0  0  0
  -28.1621  -22.0755   23.1008 H   0  0  0  0  0  0
  -28.2578  -15.8411   22.0170 H   0  0  0  0  0  0
  -29.5381  -16.8608   22.6645 H   0  0  0  0  0  0
  -29.6370  -15.1395   22.8814 H   0  0  0  0  0  0
  -31.6252  -17.1430   20.8655 H   0  0  0  0  0  0
  -30.8388  -16.9800   19.3257 H   0  0  0  0  0  0
  -29.7857  -24.3456   21.3055 H   0  0  0  0  0  0
  -29.7311  -23.7260   19.6768 H   0  0  0  0  0  0
  -27.1738  -24.8929   20.8501 H   0  0  0  0  0  0
  -27.6589  -24.7331   19.1865 H   0  0  0  0  0  0
  1 25  1  0  0  0
  1 30  2  0  0  0
  1 83  1  0  0  0
  2  3  1  0  0  0
  2 25  1  0  0  0
  2 85  1  0  0  0
  2 86  1  0  0  0
  3  4  1  0  0  0
  3 87  1  0  0  0
  3 88  1  0  0  0
  4  5  1  0  0  0
  4 89  1  0  0  0
  4 90  1  0  0  0
  5  6  1  0  0  0
  5 26  1  0  0  0
  5 91  1  0  0  0
  6 25  1  0  0  0
  6 92  1  0  0  0
  6 93  1  0  0  0
  7  8  2  0  0  0
  7 26  1  0  0  0
  7 29  1  0  0  0
  8  9  1  0  0  0
  8 22  1  0  0  0
  9 10  1  0  0  0
  9 27  2  0  0  0
 10 11  2  0  0  0
 10 15  1  0  0  0
 11 12  1  0  0  0
 11 94  1  0  0  0
 12 13  2  0  0  0
 12 95  1  0  0  0
 13 14  1  0  0  0
 13 31  1  0  0  0
 14 15  2  0  0  0
 14 96  1  0  0  0
 15 97  1  0  0  0
 16 17  2  0  0  0
 16 21  1  0  0  0
 16 31  1  0  0  0
 17 18  1  0  0  0
 17 98  1  0  0  0
 18 19  2  0  0  0
 18 99  1  0  0  0
 19 20  1  0  0  0
 19 24  1  0  0  0
 20 21  2  0  0  0
 20100  1  0  0  0
 21 23  1  0  0  0
 22 28  1  0  0  0
 22 32  2  0  0  0
 26 27  1  0  0  0
 28101  1  0  0  0
 28102  1  0  0  0
 29103  1  0  0  0
 29104  1  0  0  0
 33 34  1  0  0  0
 33 66  1  0  0  0
 33 70  2  0  0  0
 34 36  1  0  0  0
 34 59  1  0  0  0
 34105  1  0  0  0
 35 44  2  0  0  0
 35 45  1  0  0  0
 35 68  1  0  0  0
 36 56  1  0  0  0
 36106  1  0  0  0
 37 39  1  0  0  0
 37 47  1  0  0  0
 37 66  1  0  0  0
 37107  1  0  0  0
 38 43  2  0  0  0
 38 46  1  0  0  0
 38 47  1  0  0  0
 39 64  1  0  0  0
 39 67  2  0  0  0
 40 52  1  0  0  0
 40 53  2  0  0  0
 40 58  1  0  0  0
 41108  1  0  0  0
 41109  1  0  0  0
 41110  1  0  0  0
 41 48  1  0  0  0
 42 43  1  0  0  0
 42 66  1  0  0  0
 42111  1  0  0  0
 42112  1  0  0  0
 43 44  1  0  0  0
 44113  1  0  0  0
 45 46  2  0  0  0
 45114  1  0  0  0
 46115  1  0  0  0
 47116  1  0  0  0
 47117  1  0  0  0
 48 56  1  0  0  0
 48 65  1  0  0  0
 48118  1  0  0  0
 49 50  1  0  0  0
 49 53  1  0  0  0
 49 64  1  0  0  0
 49119  1  0  0  0
 50 51  1  0  0  0
 50120  1  0  0  0
 50121  1  0  0  0
 51 52  1  0  0  0
 51122  1  0  0  0
 51123  1  0  0  0
 52124  1  0  0  0
 52125  1  0  0  0
 53 54  1  0  0  0
 54 55  2  0  0  0
 54126  1  0  0  0
 55 57  1  0  0  0
 55127  1  0  0  0
 56 69  2  0  0  0
 57 58  2  0  0  0
 57128  1  0  0  0
 58129  1  0  0  0
 59 60  1  0  0  0
 59 61  1  0  0  0
 59 62  1  0  0  0
 60130  1  0  0  0
 60131  1  0  0  0
 60132  1  0  0  0
 61133  1  0  0  0
 61134  1  0  0  0
 61135  1  0  0  0
 62136  1  0  0  0
 62137  1  0  0  0
 62138  1  0  0  0
 63 65  1  0  0  0
 63139  1  0  0  0
 63140  1  0  0  0
 63141  1  0  0  0
 64142  1  0  0  0
 65143  1  0  0  0
 68 81  1  0  0  0
 71 72  2  0  0  0
 71 74  1  0  0  0
 71144  1  0  0  0
 72 75  1  0  0  0
 72145  1  0  0  0
 73 75  2  0  0  0
 73 76  1  0  0  0
 73146  1  0  0  0
 74 76  2  0  0  0
 74 79  1  0  0  0
 75 82  1  0  0  0
 76 84  1  0  0  0
 77 82  1  0  0  0
 77147  1  0  0  0
 77148  1  0  0  0
 77149  1  0  0  0
 78 83  1  0  0  0
 78150  1  0  0  0
 78151  1  0  0  0
 78152  1  0  0  0
 79 83  1  0  0  0
 79153  1  0  0  0
 79154  1  0  0  0
 80 81  1  0  0  0
 80 82  1  0  0  0
 80155  1  0  0  0
 80156  1  0  0  0
 81157  1  0  0  0
 81158  1  0  0  0
M  ISO  4   1 100  68 101  81 101  83 100
M  END
> <chiral flag>
0

> <version>
0

> <s_m_source_file>
/data/baiqing/PycharmProjects/Reinvent-master-3.2/result/LINK_invent/BTK/process_docking_weight1_custom_product_contain_oxygen_bond_distance_aromatic_linkinvent_7_9_3/rearranged_h_0017.sdf

> <i_m_source_file_index>
14

> <r_mmod_Potential_Energy-OPLS-2005>
222.89892578125

> <r_mmod_Stretch_Energy-OPLS-2005>
86.3700561523438

> <r_mmod_Bend_Energy-OPLS-2005>
172.489395141602

> <r_mmod_Torsional_Energy-OPLS-2005>
247.633605957031

> <r_mmod_Improper_Torsional_Energy-OPLS-2005>
10.9136724472046

> <r_mmod_Van_der_Waal_Energy-OPLS-2005>
168.325988769531

> <r_mmod_Electrostatic_Energy-OPLS-2005>
-291.398864746094

> <r_mmod_Solvation_Energy-OPLS-2005>
-212.81819152832

> <b_mmod_Minimization_Converged-OPLS-2005>
0

> <r_mmod_RMS_Derivative-OPLS-2005>
2.42993593215942

$$$$
15
                    3D
 Structure written by MMmdl.
165173  0  0  1  0            999 V2000
  -30.7136  -14.4268   20.6068 C   0  0  0  0  0  0
  -30.4226  -12.2875   19.4133 C   0  0  0  0  0  0
  -29.4939  -12.5153   18.2039 C   0  0  0  0  0  0
  -28.0135  -12.3789   18.6120 C   0  0  0  0  0  0
  -27.6661  -13.2021   19.8815 C   0  0  2  0  0  0
  -28.7050  -12.9466   20.9964 C   0  0  0  0  0  0
  -25.2611  -13.8160   20.5690 C   0  0  0  0  0  0
  -24.1851  -13.0441   20.9176 C   0  0  0  0  0  0
  -24.6394  -11.6905   20.8723 C   0  0  0  0  0  0
  -23.9049  -10.4298   21.0389 C   0  0  0  0  0  0
  -24.3604   -9.4221   21.9173 C   0  0  0  0  0  0
  -23.6292   -8.2253   22.0748 C   0  0  0  0  0  0
  -22.4277   -8.0280   21.3538 C   0  0  0  0  0  0
  -21.9898   -9.0248   20.4638 C   0  0  0  0  0  0
  -22.7213  -10.2136   20.3046 C   0  0  0  0  0  0
  -21.6863   -6.0736   22.5278 C   0  0  0  0  0  0
  -21.4011   -6.5637   23.8210 C   0  0  0  0  0  0
  -21.3666   -5.6790   24.9174 C   0  0  0  0  0  0
  -21.6049   -4.3053   24.7223 C   0  0  0  0  0  0
  -21.8822   -3.8149   23.4342 C   0  0  0  0  0  0
  -21.9195   -4.6966   22.3401 C   0  0  0  0  0  0
  -22.7874  -13.5246   21.1837 C   0  0  0  0  0  0
  -22.1660   -4.2158   21.0978 F   0  0  0  0  0  0
  -21.5633   -3.4529   25.7732 F   0  0  0  0  0  0
  -30.0447  -13.2509   20.4583 N   0  0  0  0  0  0
  -26.3046  -12.9313   20.3387 N   0  0  0  0  0  0
  -25.9324  -11.6474   20.5760 N   0  0  0  0  0  0
  -22.0503  -12.8252   22.0391 N   0  0  0  0  0  0
  -25.4366  -15.1877   20.4125 N   0  0  0  0  0  0
  -31.8050  -14.6427   20.0743 O   0  0  0  0  0  0
  -21.6640   -6.8877   21.4240 O   0  0  0  0  0  0
  -22.3559  -14.5553   20.6687 O   0  0  0  0  0  0
  -24.6104  -31.8692   23.2102 C   0  0  0  0  0  0
  -25.9013  -32.4825   23.8388 C   0  0  1  0  0  0
  -27.2458  -27.4639   20.1009 C   0  0  0  0  0  0
  -25.5884  -33.8624   24.2330 N   0  0  0  0  0  0
  -23.3976  -30.4901   21.5492 C   0  0  2  0  0  0
  -24.8493  -28.9507   20.1222 C   0  0  0  0  0  0
  -22.7376  -29.4668   22.5001 C   0  0  0  0  0  0
  -18.0266  -28.1373   22.8491 C   0  0  0  0  0  0
  -24.1491  -36.7319   23.2635 C   0  0  0  0  0  0
  -25.9216  -30.8436   21.3587 C   0  0  0  0  0  0
  -26.0044  -29.4748   20.7180 C   0  0  0  0  0  0
  -27.2064  -28.7361   20.7094 C   0  0  0  0  0  0
  -26.0796  -26.9408   19.5087 C   0  0  0  0  0  0
  -24.8796  -27.6796   19.5184 C   0  0  0  0  0  0
  -23.6070  -29.8125   20.1668 C   0  0  0  0  0  0
  -25.4110  -36.3114   24.0336 C   0  0  1  0  0  0
  -20.5848  -28.3662   23.1324 C   0  0  2  0  0  0
  -20.6761  -26.9403   22.5422 C   0  0  0  0  0  0
  -19.5746  -26.6386   21.5208 C   0  0  0  0  0  0
  -18.1918  -26.7927   22.1609 C   0  0  0  0  0  0
  -19.1511  -28.8832   23.2905 C   0  0  0  0  0  0
  -18.9443  -30.1439   23.8915 C   0  0  0  0  0  0
  -17.6447  -30.6584   24.0566 C   0  0  0  0  0  0
  -25.9033  -34.9478   23.5130 C   0  0  0  0  0  0
  -16.5338  -29.9089   23.6323 C   0  0  0  0  0  0
  -16.7257  -28.6501   23.0350 C   0  0  0  0  0  0
  -26.4476  -31.6589   25.0691 C   0  0  0  0  0  0
  -25.3764  -31.3672   26.1447 C   0  0  0  0  0  0
  -27.0302  -30.3040   24.6029 C   0  0  0  0  0  0
  -27.6057  -32.4302   25.7451 C   0  0  0  0  0  0
  -27.5588  -37.1805   24.8458 C   0  0  0  0  0  0
  -21.4110  -29.3033   22.3734 N   0  0  0  0  0  0
  -26.4299  -37.3795   23.9406 N   0  0  0  0  0  0
  -24.6610  -31.0819   22.0984 N   0  0  0  0  0  0
  -23.4160  -28.8213   23.3034 O   0  0  0  0  0  0
  -28.4237  -26.7667   20.0175 O   0  0  0  0  0  0
  -26.5594  -34.8925   22.4692 O   0  0  0  0  0  0
  -23.5306  -32.1426   23.7517 O   0  0  0  0  0  0
  -31.1606  -18.9152   20.6908 C   0  0  0  0  0  0
  -31.1099  -17.5106   20.5919 C   0  0  0  0  0  0
  -29.3134  -17.4743   22.2211 C   0  0  0  0  0  0
  -30.2966  -19.6209   21.5580 C   0  0  0  0  0  0
  -29.3526  -18.8841   22.3224 C   0  0  0  0  0  0
  -30.1909  -16.7690   21.3713 C   0  0  0  0  0  0
  -28.9682  -19.7002   24.6949 C   0  0  0  0  0  0
  -29.9938  -21.8577   19.3843 C   0  0  0  0  0  0
  -28.3821  -19.5542   23.2852 C   0  0  0  0  0  0
  -30.4686  -21.1403   21.6989 C   0  0  0  0  0  0
  -28.8232  -24.3962   20.3773 C   0  0  0  0  0  0
  -29.5154  -23.3731   21.3158 C   0  0  0  0  0  0
  -28.6423  -25.7835   21.0274 C   0  0  0  0  0  0
  -30.0650  -15.3466   21.3446 N   0  0  0  0  0  0
  -29.6021  -21.9660   20.8121 N   0  3  1  0  0  0
  -31.4671  -12.3821   19.1110 H   0  0  0  0  0  0
  -30.3163  -11.2677   19.7885 H   0  0  0  0  0  0
  -29.7285  -11.8054   17.4093 H   0  0  0  0  0  0
  -29.6710  -13.5080   17.7867 H   0  0  0  0  0  0
  -27.8144  -11.3208   18.7893 H   0  0  0  0  0  0
  -27.3673  -12.6721   17.7832 H   0  0  0  0  0  0
  -27.7206  -14.2556   19.6073 H   0  0  0  0  0  0
  -28.6718  -11.9003   21.3047 H   0  0  0  0  0  0
  -28.4579  -13.5138   21.8942 H   0  0  0  0  0  0
  -25.2745   -9.5707   22.4745 H   0  0  0  0  0  0
  -24.0011   -7.4646   22.7462 H   0  0  0  0  0  0
  -21.0830   -8.8747   19.8942 H   0  0  0  0  0  0
  -22.3654  -10.9669   19.6156 H   0  0  0  0  0  0
  -21.1992   -7.6140   23.9718 H   0  0  0  0  0  0
  -21.1488   -6.0513   25.9077 H   0  0  0  0  0  0
  -22.0597   -2.7614   23.2835 H   0  0  0  0  0  0
  -22.4090  -11.9910   22.4800 H   0  0  0  0  0  0
  -21.1115  -13.1295   22.2567 H   0  0  0  0  0  0
  -24.6776  -15.8498   20.5287 H   0  0  0  0  0  0
  -26.3017  -15.6245   20.1185 H   0  0  0  0  0  0
  -26.7083  -32.5570   23.1157 H   0  0  0  0  0  0
  -25.0049  -33.9794   25.0484 H   0  0  0  0  0  0
  -22.6845  -31.3045   21.4047 H   0  0  0  0  0  0
  -23.3753  -35.9651   23.3292 H   0  0  0  0  0  0
  -24.3590  -36.8942   22.2051 H   0  0  0  0  0  0
  -23.7247  -37.6522   23.6659 H   0  0  0  0  0  0
  -26.0234  -31.6053   20.5841 H   0  0  0  0  0  0
  -26.8128  -30.9070   21.9713 H   0  0  0  0  0  0
  -28.1030  -29.1433   21.1557 H   0  0  0  0  0  0
  -26.1070  -25.9727   19.0288 H   0  0  0  0  0  0
  -23.9925  -27.2707   19.0542 H   0  0  0  0  0  0
  -23.7061  -30.5805   19.3984 H   0  0  0  0  0  0
  -22.7347  -29.2221   19.8799 H   0  0  0  0  0  0
  -25.1295  -36.1975   25.0831 H   0  0  0  0  0  0
  -20.9944  -28.3234   24.1440 H   0  0  0  0  0  0
  -20.5660  -26.2270   23.3605 H   0  0  0  0  0  0
  -21.6635  -26.7454   22.1211 H   0  0  0  0  0  0
  -19.6915  -25.6299   21.1230 H   0  0  0  0  0  0
  -19.6698  -27.3201   20.6743 H   0  0  0  0  0  0
  -17.4200  -26.6684   21.4000 H   0  0  0  0  0  0
  -18.0312  -26.0057   22.8993 H   0  0  0  0  0  0
  -19.7926  -30.7250   24.2289 H   0  0  0  0  0  0
  -17.5009  -31.6268   24.5158 H   0  0  0  0  0  0
  -15.5341  -30.3000   23.7640 H   0  0  0  0  0  0
  -15.8651  -28.0829   22.7059 H   0  0  0  0  0  0
  -24.5920  -30.7042   25.7780 H   0  0  0  0  0  0
  -24.8973  -32.2820   26.4945 H   0  0  0  0  0  0
  -25.8128  -30.8796   27.0173 H   0  0  0  0  0  0
  -26.2817  -29.6773   24.1161 H   0  0  0  0  0  0
  -27.4181  -29.7297   25.4455 H   0  0  0  0  0  0
  -27.8608  -30.4369   23.9088 H   0  0  0  0  0  0
  -27.2677  -33.3580   26.2079 H   0  0  0  0  0  0
  -28.3844  -32.6895   25.0266 H   0  0  0  0  0  0
  -28.0754  -31.8392   26.5324 H   0  0  0  0  0  0
  -28.2599  -38.0109   24.7525 H   0  0  0  0  0  0
  -28.1095  -36.2644   24.6267 H   0  0  0  0  0  0
  -27.2304  -37.1432   25.8858 H   0  0  0  0  0  0
  -20.9260  -29.8747   21.6957 H   0  0  0  0  0  0
  -26.0190  -38.2873   24.1410 H   0  0  0  0  0  0
  -31.8882  -19.4504   20.0960 H   0  0  0  0  0  0
  -31.7972  -17.0321   19.9120 H   0  0  0  0  0  0
  -28.6009  -16.9261   22.8219 H   0  0  0  0  0  0
  -28.2430  -20.1567   25.3696 H   0  0  0  0  0  0
  -29.8621  -20.3226   24.7012 H   0  0  0  0  0  0
  -29.2384  -18.7296   25.1105 H   0  0  0  0  0  0
  -30.0344  -20.8190   19.0603 H   0  0  0  0  0  0
  -30.9724  -22.3057   19.2084 H   0  0  0  0  0  0
  -29.2708  -22.3463   18.7320 H   0  0  0  0  0  0
  -27.4706  -18.9562   23.3377 H   0  0  0  0  0  0
  -28.0645  -20.5235   22.9041 H   0  0  0  0  0  0
  -31.5130  -21.3993   21.5173 H   0  0  0  0  0  0
  -30.2915  -21.4141   22.7377 H   0  0  0  0  0  0
  -27.8533  -24.0249   20.0463 H   0  0  0  0  0  0
  -29.4318  -24.5270   19.4820 H   0  0  0  0  0  0
  -28.9940  -23.3581   22.2746 H   0  0  0  0  0  0
  -30.5235  -23.7329   21.5283 H   0  0  0  0  0  0
  -29.5519  -26.0708   21.5571 H   0  0  0  0  0  0
  -27.8452  -25.7604   21.7733 H   0  0  0  0  0  0
  -29.2647  -14.9774   21.8342 H   0  0  0  0  0  0
  -28.6754  -21.5736   20.8818 H   0  0  0  0  0  0
  1 25  1  0  0  0
  1 30  2  0  0  0
  1 84  1  0  0  0
  2  3  1  0  0  0
  2 25  1  0  0  0
  2 86  1  0  0  0
  2 87  1  0  0  0
  3  4  1  0  0  0
  3 88  1  0  0  0
  3 89  1  0  0  0
  4  5  1  0  0  0
  4 90  1  0  0  0
  4 91  1  0  0  0
  5  6  1  0  0  0
  5 26  1  0  0  0
  5 92  1  0  0  0
  6 25  1  0  0  0
  6 93  1  0  0  0
  6 94  1  0  0  0
  7  8  2  0  0  0
  7 26  1  0  0  0
  7 29  1  0  0  0
  8  9  1  0  0  0
  8 22  1  0  0  0
  9 10  1  0  0  0
  9 27  2  0  0  0
 10 11  2  0  0  0
 10 15  1  0  0  0
 11 12  1  0  0  0
 11 95  1  0  0  0
 12 13  2  0  0  0
 12 96  1  0  0  0
 13 14  1  0  0  0
 13 31  1  0  0  0
 14 15  2  0  0  0
 14 97  1  0  0  0
 15 98  1  0  0  0
 16 17  2  0  0  0
 16 21  1  0  0  0
 16 31  1  0  0  0
 17 18  1  0  0  0
 17 99  1  0  0  0
 18 19  2  0  0  0
 18100  1  0  0  0
 19 20  1  0  0  0
 19 24  1  0  0  0
 20 21  2  0  0  0
 20101  1  0  0  0
 21 23  1  0  0  0
 22 28  1  0  0  0
 22 32  2  0  0  0
 26 27  1  0  0  0
 28102  1  0  0  0
 28103  1  0  0  0
 29104  1  0  0  0
 29105  1  0  0  0
 33 34  1  0  0  0
 33 66  1  0  0  0
 33 70  2  0  0  0
 34 36  1  0  0  0
 34 59  1  0  0  0
 34106  1  0  0  0
 35 44  2  0  0  0
 35 45  1  0  0  0
 35 68  1  0  0  0
 36 56  1  0  0  0
 36107  1  0  0  0
 37 39  1  0  0  0
 37 47  1  0  0  0
 37 66  1  0  0  0
 37108  1  0  0  0
 38 43  2  0  0  0
 38 46  1  0  0  0
 38 47  1  0  0  0
 39 64  1  0  0  0
 39 67  2  0  0  0
 40 52  1  0  0  0
 40 53  2  0  0  0
 40 58  1  0  0  0
 41109  1  0  0  0
 41110  1  0  0  0
 41111  1  0  0  0
 41 48  1  0  0  0
 42 43  1  0  0  0
 42 66  1  0  0  0
 42112  1  0  0  0
 42113  1  0  0  0
 43 44  1  0  0  0
 44114  1  0  0  0
 45 46  2  0  0  0
 45115  1  0  0  0
 46116  1  0  0  0
 47117  1  0  0  0
 47118  1  0  0  0
 48 56  1  0  0  0
 48 65  1  0  0  0
 48119  1  0  0  0
 49 50  1  0  0  0
 49 53  1  0  0  0
 49 64  1  0  0  0
 49120  1  0  0  0
 50 51  1  0  0  0
 50121  1  0  0  0
 50122  1  0  0  0
 51 52  1  0  0  0
 51123  1  0  0  0
 51124  1  0  0  0
 52125  1  0  0  0
 52126  1  0  0  0
 53 54  1  0  0  0
 54 55  2  0  0  0
 54127  1  0  0  0
 55 57  1  0  0  0
 55128  1  0  0  0
 56 69  2  0  0  0
 57 58  2  0  0  0
 57129  1  0  0  0
 58130  1  0  0  0
 59 60  1  0  0  0
 59 61  1  0  0  0
 59 62  1  0  0  0
 60131  1  0  0  0
 60132  1  0  0  0
 60133  1  0  0  0
 61134  1  0  0  0
 61135  1  0  0  0
 61136  1  0  0  0
 62137  1  0  0  0
 62138  1  0  0  0
 62139  1  0  0  0
 63 65  1  0  0  0
 63140  1  0  0  0
 63141  1  0  0  0
 63142  1  0  0  0
 64143  1  0  0  0
 65144  1  0  0  0
 68 83  1  0  0  0
 71 72  2  0  0  0
 71 74  1  0  0  0
 71145  1  0  0  0
 72 76  1  0  0  0
 72146  1  0  0  0
 73 75  1  0  0  0
 73 76  2  0  0  0
 73147  1  0  0  0
 74 75  2  0  0  0
 74 80  1  0  0  0
 75 79  1  0  0  0
 76 84  1  0  0  0
 77 79  1  0  0  0
 77148  1  0  0  0
 77149  1  0  0  0
 77150  1  0  0  0
 78151  1  0  0  0
 78152  1  0  0  0
 78153  1  0  0  0
 78 85  1  0  0  0
 79154  1  0  0  0
 79155  1  0  0  0
 80 85  1  0  0  0
 80156  1  0  0  0
 80157  1  0  0  0
 81 82  1  0  0  0
 81 83  1  0  0  0
 81158  1  0  0  0
 81159  1  0  0  0
 82 85  1  0  0  0
 82160  1  0  0  0
 82161  1  0  0  0
 83162  1  0  0  0
 83163  1  0  0  0
 84164  1  0  0  0
 85165  1  0  0  0
M  CHG  1  85   1
M  ISO  4   1 100  68 101  83 101  84 100
M  END
> <chiral flag>
0

> <version>
0

> <s_m_source_file>
/data/baiqing/PycharmProjects/Reinvent-master-3.2/result/LINK_invent/BTK/process_docking_weight1_custom_product_contain_oxygen_bond_distance_aromatic_linkinvent_7_9_3/rearranged_h_0017.sdf

> <i_m_source_file_index>
15

> <r_mmod_Potential_Energy-OPLS-2005>
-184.440628051758

> <r_mmod_Stretch_Energy-OPLS-2005>
36.4224739074707

> <r_mmod_Bend_Energy-OPLS-2005>
102.684448242188

> <r_mmod_Torsional_Energy-OPLS-2005>
232.358276367188

> <r_mmod_Improper_Torsional_Energy-OPLS-2005>
2.70225596427917

> <r_mmod_Van_der_Waal_Energy-OPLS-2005>
154.963897705078

> <r_mmod_Electrostatic_Energy-OPLS-2005>
-281.078369140625

> <r_mmod_Solvation_Energy-OPLS-2005>
-440.016052246094

> <b_mmod_Minimization_Converged-OPLS-2005>
0

> <r_mmod_RMS_Derivative-OPLS-2005>
1.67973148822784

$$$$
16
                    3D
 Structure written by MMmdl.
168176  0  0  1  0            999 V2000
  -30.7566  -14.3648   20.7082 C   0  0  0  0  0  0
  -30.4193  -12.2943   19.3932 C   0  0  0  0  0  0
  -29.4842  -12.5229   18.1912 C   0  0  0  0  0  0
  -28.0092  -12.3757   18.6084 C   0  0  0  0  0  0
  -27.6659  -13.1992   19.8771 C   0  0  2  0  0  0
  -28.7022  -12.9425   20.9927 C   0  0  0  0  0  0
  -25.2617  -13.8152   20.5667 C   0  0  0  0  0  0
  -24.1861  -13.0442   20.9168 C   0  0  0  0  0  0
  -24.6397  -11.6900   20.8729 C   0  0  0  0  0  0
  -23.9062  -10.4293   21.0414 C   0  0  0  0  0  0
  -24.3611   -9.4209   21.9196 C   0  0  0  0  0  0
  -23.6287   -8.2244   22.0762 C   0  0  0  0  0  0
  -22.4271   -8.0283   21.3545 C   0  0  0  0  0  0
  -21.9908   -9.0261   20.4645 C   0  0  0  0  0  0
  -22.7238  -10.2142   20.3059 C   0  0  0  0  0  0
  -21.6850   -6.0738   22.5279 C   0  0  0  0  0  0
  -21.4011   -6.5641   23.8214 C   0  0  0  0  0  0
  -21.3657   -5.6793   24.9174 C   0  0  0  0  0  0
  -21.6044   -4.3059   24.7224 C   0  0  0  0  0  0
  -21.8823   -3.8150   23.4348 C   0  0  0  0  0  0
  -21.9192   -4.6963   22.3402 C   0  0  0  0  0  0
  -22.7881  -13.5246   21.1837 C   0  0  0  0  0  0
  -22.1659   -4.2148   21.0979 F   0  0  0  0  0  0
  -21.5631   -3.4544   25.7740 F   0  0  0  0  0  0
  -30.0421  -13.2369   20.4575 N   0  0  0  0  0  0
  -26.3041  -12.9305   20.3354 N   0  0  0  0  0  0
  -25.9317  -11.6468   20.5738 N   0  0  0  0  0  0
  -22.0512  -12.8245   22.0384 N   0  0  0  0  0  0
  -25.4372  -15.1872   20.4082 N   0  0  0  0  0  0
  -31.7877  -14.6361   20.0833 O   0  0  0  0  0  0
  -21.6631   -6.8884   21.4242 O   0  0  0  0  0  0
  -22.3572  -14.5557   20.6687 O   0  0  0  0  0  0
  -24.6092  -31.8680   23.2143 C   0  0  0  0  0  0
  -25.8997  -32.4824   23.8426 C   0  0  1  0  0  0
  -27.2460  -27.4790   20.0975 C   0  0  0  0  0  0
  -25.5868  -33.8624   24.2359 N   0  0  0  0  0  0
  -23.3967  -30.4896   21.5506 C   0  0  2  0  0  0
  -24.8478  -28.9604   20.1145 C   0  0  0  0  0  0
  -22.7386  -29.4644   22.4996 C   0  0  0  0  0  0
  -18.0258  -28.1375   22.8486 C   0  0  0  0  0  0
  -24.1478  -36.7317   23.2649 C   0  0  0  0  0  0
  -25.9183  -30.8508   21.3596 C   0  0  0  0  0  0
  -25.9997  -29.4868   20.7116 C   0  0  0  0  0  0
  -27.2019  -28.7532   20.7039 C   0  0  0  0  0  0
  -26.0864  -26.9612   19.4883 C   0  0  0  0  0  0
  -24.8826  -27.6938   19.5022 C   0  0  0  0  0  0
  -23.6036  -29.8165   20.1659 C   0  0  0  0  0  0
  -25.4106  -36.3114   24.0336 C   0  0  1  0  0  0
  -20.5844  -28.3659   23.1313 C   0  0  2  0  0  0
  -20.6740  -26.9397   22.5412 C   0  0  0  0  0  0
  -19.5733  -26.6384   21.5197 C   0  0  0  0  0  0
  -18.1903  -26.7932   22.1593 C   0  0  0  0  0  0
  -19.1506  -28.8839   23.2890 C   0  0  0  0  0  0
  -18.9439  -30.1437   23.8919 C   0  0  0  0  0  0
  -17.6447  -30.6589   24.0570 C   0  0  0  0  0  0
  -25.9012  -34.9470   23.5139 C   0  0  0  0  0  0
  -16.5336  -29.9098   23.6326 C   0  0  0  0  0  0
  -16.7251  -28.6496   23.0371 C   0  0  0  0  0  0
  -26.4470  -31.6605   25.0731 C   0  0  0  0  0  0
  -25.3771  -31.3655   26.1487 C   0  0  0  0  0  0
  -27.0335  -30.3072   24.6074 C   0  0  0  0  0  0
  -27.6030  -32.4358   25.7497 C   0  0  0  0  0  0
  -27.5575  -37.1813   24.8464 C   0  0  0  0  0  0
  -21.4121  -29.3019   22.3726 N   0  0  0  0  0  0
  -26.4300  -37.3792   23.9397 N   0  0  0  0  0  0
  -24.6589  -31.0833   22.1011 N   0  0  0  0  0  0
  -23.4166  -28.8173   23.3021 O   0  0  0  0  0  0
  -28.3973  -26.7341   20.0641 O   0  0  0  0  0  0
  -26.5571  -34.8912   22.4697 O   0  0  0  0  0  0
  -23.5296  -32.1406   23.7559 O   0  0  0  0  0  0
  -30.2654  -21.0604   22.1499 C   0  0  0  0  0  0
  -29.7799  -22.2924   22.6251 C   0  0  0  0  0  0
  -27.9583  -21.1477   23.7429 C   0  0  0  0  0  0
  -29.5905  -19.8625   22.4542 C   0  0  0  0  0  0
  -28.6031  -22.3688   23.4137 C   0  0  0  0  0  0
  -28.4397  -19.9116   23.2638 C   0  0  0  0  0  0
  -26.6699  -23.6688   24.2314 C   0  0  0  0  0  0
  -31.7473  -18.2961   23.7199 C   0  0  0  0  0  0
  -30.0875  -18.5401   21.8789 C   0  0  0  0  0  0
  -30.2641  -15.3476   21.7920 C   0  0  0  0  0  0
  -28.2198  -25.2102   21.9376 C   0  0  0  0  0  0
  -28.6783  -24.8652   23.3667 C   0  0  0  0  0  0
  -31.3132  -16.4175   22.1982 C   0  0  0  0  0  0
  -28.9517  -26.4246   21.3431 C   0  0  0  0  0  0
  -28.0831  -23.6160   23.8516 N   0  0  0  0  0  0
  -30.7381  -17.6245   22.8602 N   0  3  1  0  0  0
  -27.7963  -18.7634   23.5855 F   0  0  0  0  0  0
  -31.4613  -12.4033   19.0867 H   0  0  0  0  0  0
  -30.3261  -11.2706   19.7581 H   0  0  0  0  0  0
  -29.7182  -11.8163   17.3937 H   0  0  0  0  0  0
  -29.6528  -13.5182   17.7778 H   0  0  0  0  0  0
  -27.8183  -11.3179   18.7903 H   0  0  0  0  0  0
  -27.3548  -12.6643   17.7847 H   0  0  0  0  0  0
  -27.7258  -14.2523   19.6022 H   0  0  0  0  0  0
  -28.6645  -11.8988   21.3092 H   0  0  0  0  0  0
  -28.4407  -13.5210   21.8769 H   0  0  0  0  0  0
  -25.2757   -9.5686   22.4772 H   0  0  0  0  0  0
  -23.9993   -7.4641   22.7486 H   0  0  0  0  0  0
  -21.0844   -8.8791   19.8949 H   0  0  0  0  0  0
  -22.3709  -10.9686   19.6166 H   0  0  0  0  0  0
  -21.2002   -7.6148   23.9717 H   0  0  0  0  0  0
  -21.1471   -6.0521   25.9080 H   0  0  0  0  0  0
  -22.0605   -2.7611   23.2846 H   0  0  0  0  0  0
  -22.4107  -11.9890   22.4755 H   0  0  0  0  0  0
  -21.1134  -13.1291   22.2591 H   0  0  0  0  0  0
  -24.6774  -15.8493   20.5217 H   0  0  0  0  0  0
  -26.2958  -15.6203   20.0916 H   0  0  0  0  0  0
  -26.7065  -32.5571   23.1200 H   0  0  0  0  0  0
  -25.0081  -33.9803   25.0544 H   0  0  0  0  0  0
  -22.6831  -31.3031   21.4102 H   0  0  0  0  0  0
  -23.3734  -35.9653   23.3323 H   0  0  0  0  0  0
  -24.3563  -36.8927   22.2060 H   0  0  0  0  0  0
  -23.7252  -37.6534   23.6660 H   0  0  0  0  0  0
  -26.0192  -31.6176   20.5904 H   0  0  0  0  0  0
  -26.8097  -30.9095   21.9721 H   0  0  0  0  0  0
  -28.0918  -29.1716   21.1531 H   0  0  0  0  0  0
  -26.1144  -25.9891   19.0161 H   0  0  0  0  0  0
  -23.9965  -27.2832   19.0369 H   0  0  0  0  0  0
  -23.6951  -30.5855   19.3983 H   0  0  0  0  0  0
  -22.7349  -29.2190   19.8826 H   0  0  0  0  0  0
  -25.1291  -36.1985   25.0832 H   0  0  0  0  0  0
  -20.9931  -28.3225   24.1432 H   0  0  0  0  0  0
  -20.5609  -26.2281   23.3602 H   0  0  0  0  0  0
  -21.6623  -26.7406   22.1243 H   0  0  0  0  0  0
  -19.6894  -25.6290   21.1235 H   0  0  0  0  0  0
  -19.6688  -27.3170   20.6706 H   0  0  0  0  0  0
  -17.4184  -26.6699   21.3978 H   0  0  0  0  0  0
  -18.0271  -26.0054   22.8963 H   0  0  0  0  0  0
  -19.7915  -30.7231   24.2322 H   0  0  0  0  0  0
  -17.5008  -31.6272   24.5164 H   0  0  0  0  0  0
  -15.5336  -30.3019   23.7644 H   0  0  0  0  0  0
  -15.8640  -28.0815   22.7130 H   0  0  0  0  0  0
  -24.5988  -30.6949   25.7829 H   0  0  0  0  0  0
  -24.8902  -32.2779   26.4930 H   0  0  0  0  0  0
  -25.8174  -30.8863   27.0240 H   0  0  0  0  0  0
  -26.2867  -29.6787   24.1205 H   0  0  0  0  0  0
  -27.4225  -29.7352   25.4509 H   0  0  0  0  0  0
  -27.8642  -30.4431   23.9148 H   0  0  0  0  0  0
  -27.2612  -33.3626   26.2121 H   0  0  0  0  0  0
  -28.3806  -32.6983   25.0312 H   0  0  0  0  0  0
  -28.0743  -31.8474   26.5376 H   0  0  0  0  0  0
  -28.2612  -38.0096   24.7508 H   0  0  0  0  0  0
  -28.1062  -36.2628   24.6309 H   0  0  0  0  0  0
  -27.2281  -37.1489   25.8868 H   0  0  0  0  0  0
  -20.9283  -29.8766   21.6965 H   0  0  0  0  0  0
  -26.0185  -38.2866   24.1413 H   0  0  0  0  0  0
  -31.1538  -21.0470   21.5340 H   0  0  0  0  0  0
  -30.3367  -23.1716   22.3390 H   0  0  0  0  0  0
  -27.0767  -21.1282   24.3656 H   0  0  0  0  0  0
  -26.4859  -23.1481   25.1717 H   0  0  0  0  0  0
  -26.0410  -23.2229   23.4589 H   0  0  0  0  0  0
  -26.3345  -24.6985   24.3658 H   0  0  0  0  0  0
  -31.3179  -19.1156   24.2970 H   0  0  0  0  0  0
  -32.5732  -18.6939   23.1297 H   0  0  0  0  0  0
  -32.1642  -17.5981   24.4468 H   0  0  0  0  0  0
  -30.7884  -18.7605   21.0720 H   0  0  0  0  0  0
  -29.2390  -18.0437   21.4074 H   0  0  0  0  0  0
  -29.3576  -15.8085   21.4024 H   0  0  0  0  0  0
  -29.9806  -14.7993   22.6903 H   0  0  0  0  0  0
  -27.1459  -25.3988   21.9466 H   0  0  0  0  0  0
  -28.3737  -24.3587   21.2733 H   0  0  0  0  0  0
  -28.3834  -25.6755   24.0361 H   0  0  0  0  0  0
  -29.7653  -24.8379   23.4405 H   0  0  0  0  0  0
  -31.9070  -16.7514   21.3463 H   0  0  0  0  0  0
  -32.0218  -15.9317   22.8717 H   0  0  0  0  0  0
  -30.0069  -26.1868   21.2101 H   0  0  0  0  0  0
  -28.9157  -27.2673   22.0342 H   0  0  0  0  0  0
  -30.0169  -17.3119   23.4935 H   0  0  0  0  0  0
  1 25  1  0  0  0
  1 30  2  0  0  0
  1 80  1  0  0  0
  2  3  1  0  0  0
  2 25  1  0  0  0
  2 88  1  0  0  0
  2 89  1  0  0  0
  3  4  1  0  0  0
  3 90  1  0  0  0
  3 91  1  0  0  0
  4  5  1  0  0  0
  4 92  1  0  0  0
  4 93  1  0  0  0
  5  6  1  0  0  0
  5 26  1  0  0  0
  5 94  1  0  0  0
  6 25  1  0  0  0
  6 95  1  0  0  0
  6 96  1  0  0  0
  7  8  2  0  0  0
  7 26  1  0  0  0
  7 29  1  0  0  0
  8  9  1  0  0  0
  8 22  1  0  0  0
  9 10  1  0  0  0
  9 27  2  0  0  0
 10 11  2  0  0  0
 10 15  1  0  0  0
 11 12  1  0  0  0
 11 97  1  0  0  0
 12 13  2  0  0  0
 12 98  1  0  0  0
 13 14  1  0  0  0
 13 31  1  0  0  0
 14 15  2  0  0  0
 14 99  1  0  0  0
 15100  1  0  0  0
 16 17  2  0  0  0
 16 21  1  0  0  0
 16 31  1  0  0  0
 17 18  1  0  0  0
 17101  1  0  0  0
 18 19  2  0  0  0
 18102  1  0  0  0
 19 20  1  0  0  0
 19 24  1  0  0  0
 20 21  2  0  0  0
 20103  1  0  0  0
 21 23  1  0  0  0
 22 28  1  0  0  0
 22 32  2  0  0  0
 26 27  1  0  0  0
 28104  1  0  0  0
 28105  1  0  0  0
 29106  1  0  0  0
 29107  1  0  0  0
 33 34  1  0  0  0
 33 66  1  0  0  0
 33 70  2  0  0  0
 34 36  1  0  0  0
 34 59  1  0  0  0
 34108  1  0  0  0
 35 44  2  0  0  0
 35 45  1  0  0  0
 35 68  1  0  0  0
 36 56  1  0  0  0
 36109  1  0  0  0
 37 39  1  0  0  0
 37 47  1  0  0  0
 37 66  1  0  0  0
 37110  1  0  0  0
 38 43  2  0  0  0
 38 46  1  0  0  0
 38 47  1  0  0  0
 39 64  1  0  0  0
 39 67  2  0  0  0
 40 52  1  0  0  0
 40 53  2  0  0  0
 40 58  1  0  0  0
 41111  1  0  0  0
 41112  1  0  0  0
 41113  1  0  0  0
 41 48  1  0  0  0
 42 43  1  0  0  0
 42 66  1  0  0  0
 42114  1  0  0  0
 42115  1  0  0  0
 43 44  1  0  0  0
 44116  1  0  0  0
 45 46  2  0  0  0
 45117  1  0  0  0
 46118  1  0  0  0
 47119  1  0  0  0
 47120  1  0  0  0
 48 56  1  0  0  0
 48 65  1  0  0  0
 48121  1  0  0  0
 49 50  1  0  0  0
 49 53  1  0  0  0
 49 64  1  0  0  0
 49122  1  0  0  0
 50 51  1  0  0  0
 50123  1  0  0  0
 50124  1  0  0  0
 51 52  1  0  0  0
 51125  1  0  0  0
 51126  1  0  0  0
 52127  1  0  0  0
 52128  1  0  0  0
 53 54  1  0  0  0
 54 55  2  0  0  0
 54129  1  0  0  0
 55 57  1  0  0  0
 55130  1  0  0  0
 56 69  2  0  0  0
 57 58  2  0  0  0
 57131  1  0  0  0
 58132  1  0  0  0
 59 60  1  0  0  0
 59 61  1  0  0  0
 59 62  1  0  0  0
 60133  1  0  0  0
 60134  1  0  0  0
 60135  1  0  0  0
 61136  1  0  0  0
 61137  1  0  0  0
 61138  1  0  0  0
 62139  1  0  0  0
 62140  1  0  0  0
 62141  1  0  0  0
 63 65  1  0  0  0
 63142  1  0  0  0
 63143  1  0  0  0
 63144  1  0  0  0
 64145  1  0  0  0
 65146  1  0  0  0
 68 84  1  0  0  0
 71 72  2  0  0  0
 71 74  1  0  0  0
 71147  1  0  0  0
 72 75  1  0  0  0
 72148  1  0  0  0
 73 75  2  0  0  0
 73 76  1  0  0  0
 73149  1  0  0  0
 74 76  2  0  0  0
 74 79  1  0  0  0
 75 85  1  0  0  0
 76 87  1  0  0  0
 77 85  1  0  0  0
 77150  1  0  0  0
 77151  1  0  0  0
 77152  1  0  0  0
 78153  1  0  0  0
 78154  1  0  0  0
 78155  1  0  0  0
 78 86  1  0  0  0
 79 86  1  0  0  0
 79156  1  0  0  0
 79157  1  0  0  0
 80 83  1  0  0  0
 80158  1  0  0  0
 80159  1  0  0  0
 81 82  1  0  0  0
 81 84  1  0  0  0
 81160  1  0  0  0
 81161  1  0  0  0
 82 85  1  0  0  0
 82162  1  0  0  0
 82163  1  0  0  0
 83 86  1  0  0  0
 83164  1  0  0  0
 83165  1  0  0  0
 84166  1  0  0  0
 84167  1  0  0  0
 86168  1  0  0  0
M  CHG  1  86   1
M  ISO  4   1 100  68 101  80 100  84 101
M  END
> <chiral flag>
0

> <version>
0

> <s_m_source_file>
/data/baiqing/PycharmProjects/Reinvent-master-3.2/result/LINK_invent/BTK/process_docking_weight1_custom_product_contain_oxygen_bond_distance_aromatic_linkinvent_7_9_3/rearranged_h_0017.sdf

> <i_m_source_file_index>
16

> <r_mmod_Potential_Energy-OPLS-2005>
-226.630783081055

> <r_mmod_Stretch_Energy-OPLS-2005>
36.4727745056152

> <r_mmod_Bend_Energy-OPLS-2005>
100.164237976074

> <r_mmod_Torsional_Energy-OPLS-2005>
166.926879882812

> <r_mmod_Improper_Torsional_Energy-OPLS-2005>
3.47127437591553

> <r_mmod_Van_der_Waal_Energy-OPLS-2005>
167.75910949707

> <r_mmod_Electrostatic_Energy-OPLS-2005>
-265.275939941406

> <r_mmod_Solvation_Energy-OPLS-2005>
-442.416534423828

> <b_mmod_Minimization_Converged-OPLS-2005>
0

> <r_mmod_RMS_Derivative-OPLS-2005>
1.77309715747833

$$$$
17
                    3D
 Structure written by MMmdl.
158166  0  0  1  0            999 V2000
  -30.6485  -14.6593   20.5661 C   0  0  0  0  0  0
  -30.4319  -12.4241   19.4679 C   0  0  0  0  0  0
  -29.5061  -12.5250   18.2371 C   0  0  0  0  0  0
  -28.0305  -12.3570   18.6456 C   0  0  0  0  0  0
  -27.6503  -13.2283   19.8699 C   0  0  2  0  0  0
  -28.6907  -13.0951   21.0016 C   0  0  0  0  0  0
  -25.2523  -13.8235   20.5743 C   0  0  0  0  0  0
  -24.1804  -13.0469   20.9228 C   0  0  0  0  0  0
  -24.6385  -11.6953   20.8751 C   0  0  0  0  0  0
  -23.9065  -10.4328   21.0412 C   0  0  0  0  0  0
  -24.3637   -9.4216   21.9144 C   0  0  0  0  0  0
  -23.6307   -8.2248   22.0714 C   0  0  0  0  0  0
  -22.4264   -8.0294   21.3538 C   0  0  0  0  0  0
  -21.9887   -9.0296   20.4662 C   0  0  0  0  0  0
  -22.7225  -10.2173   20.3073 C   0  0  0  0  0  0
  -21.6871   -6.0723   22.5284 C   0  0  0  0  0  0
  -21.4037   -6.5621   23.8223 C   0  0  0  0  0  0
  -21.3688   -5.6783   24.9186 C   0  0  0  0  0  0
  -21.6059   -4.3047   24.7250 C   0  0  0  0  0  0
  -21.8814   -3.8129   23.4372 C   0  0  0  0  0  0
  -21.9211   -4.6942   22.3420 C   0  0  0  0  0  0
  -22.7809  -13.5227   21.1854 C   0  0  0  0  0  0
  -22.1685   -4.2133   21.0996 F   0  0  0  0  0  0
  -21.5623   -3.4525   25.7756 F   0  0  0  0  0  0
  -30.0053  -13.4492   20.4450 N   0  0  0  0  0  0
  -26.2968  -12.9436   20.3359 N   0  0  0  0  0  0
  -25.9310  -11.6579   20.5780 N   0  0  0  0  0  0
  -22.0446  -12.8263   22.0453 N   0  0  0  0  0  0
  -25.4230  -15.1968   20.4176 N   0  0  0  0  0  0
  -31.7555  -14.8344   20.0467 O   0  0  0  0  0  0
  -21.6639   -6.8871   21.4239 O   0  0  0  0  0  0
  -22.3448  -14.5459   20.6580 O   0  0  0  0  0  0
  -24.6301  -31.8584   23.1962 C   0  0  0  0  0  0
  -25.9149  -32.4745   23.8337 C   0  0  1  0  0  0
  -27.2061  -27.2993   20.1307 C   0  0  0  0  0  0
  -25.5968  -33.8545   24.2261 N   0  0  0  0  0  0
  -23.4221  -30.4819   21.5378 C   0  0  2  0  0  0
  -24.8646  -28.9280   20.1100 C   0  0  0  0  0  0
  -22.7494  -29.4637   22.4899 C   0  0  0  0  0  0
  -18.0288  -28.1394   22.8479 C   0  0  0  0  0  0
  -24.1487  -36.7264   23.2636 C   0  0  0  0  0  0
  -25.9639  -30.7849   21.3676 C   0  0  0  0  0  0
  -26.0349  -29.4090   20.7127 C   0  0  0  0  0  0
  -27.2144  -28.6088   20.7072 C   0  0  0  0  0  0
  -26.0190  -26.8648   19.5110 C   0  0  0  0  0  0
  -24.8599  -27.6637   19.4973 C   0  0  0  0  0  0
  -23.6357  -29.8129   20.1539 C   0  0  0  0  0  0
  -25.4106  -36.3073   24.0337 C   0  0  1  0  0  0
  -20.5899  -28.3688   23.1272 C   0  0  2  0  0  0
  -20.6779  -26.9406   22.5399 C   0  0  0  0  0  0
  -19.5745  -26.6385   21.5209 C   0  0  0  0  0  0
  -18.1927  -26.7932   22.1626 C   0  0  0  0  0  0
  -19.1548  -28.8861   23.2870 C   0  0  0  0  0  0
  -18.9464  -30.1469   23.8885 C   0  0  0  0  0  0
  -17.6458  -30.6586   24.0569 C   0  0  0  0  0  0
  -25.9047  -34.9442   23.5090 C   0  0  0  0  0  0
  -16.5355  -29.9086   23.6332 C   0  0  0  0  0  0
  -16.7277  -28.6514   23.0341 C   0  0  0  0  0  0
  -26.4519  -31.6558   25.0709 C   0  0  0  0  0  0
  -25.3757  -31.3679   26.1429 C   0  0  0  0  0  0
  -27.0347  -30.2983   24.6171 C   0  0  0  0  0  0
  -27.6081  -32.4286   25.7483 C   0  0  0  0  0  0
  -27.5564  -37.1801   24.8479 C   0  0  0  0  0  0
  -21.4200  -29.3058   22.3675 N   0  0  0  0  0  0
  -26.4277  -37.3784   23.9418 N   0  0  0  0  0  0
  -24.6915  -31.0605   22.0899 N   0  0  0  0  0  0
  -23.4216  -28.8187   23.2995 O   0  0  0  0  0  0
  -28.3075  -26.4381   20.1361 O   0  0  0  0  0  0
  -26.5598  -34.8945   22.4641 O   0  0  0  0  0  0
  -23.5471  -32.1362   23.7306 O   0  0  0  0  0  0
  -29.2986  -19.4722   21.3316 C   0  0  0  0  0  0
  -29.7239  -18.1613   21.7149 C   0  0  0  0  0  0
  -28.7693  -18.6236   19.1652 C   0  0  0  0  0  0
  -28.7857  -19.7606   20.0407 C   0  0  0  0  0  0
  -29.6851  -17.0238   20.8446 C   0  0  0  0  0  0
  -29.1957  -17.3085   19.5440 C   0  0  0  0  0  0
  -30.2475  -15.4933   22.7625 C   0  0  0  0  0  0
  -27.2654  -20.9955   18.5873 C   0  0  0  0  0  0
  -28.2311  -23.7564   19.7666 C   0  0  0  0  0  0
  -28.2472  -22.3120   20.4909 C   0  0  0  0  0  0
  -28.1284  -25.0648   20.6834 C   0  0  0  0  0  0
  -30.0553  -15.6616   21.3122 N   0  0  0  0  0  0
  -28.2956  -21.0714   19.6310 N   0  0  0  0  0  0
  -29.0874  -16.3056   18.6386 F   0  0  0  0  0  0
  -31.4725  -12.5475   19.1636 H   0  0  0  0  0  0
  -30.3749  -11.4322   19.9181 H   0  0  0  0  0  0
  -29.7766  -11.7723   17.4964 H   0  0  0  0  0  0
  -29.6418  -13.4939   17.7568 H   0  0  0  0  0  0
  -27.8678  -11.3045   18.8751 H   0  0  0  0  0  0
  -27.3775  -12.5859   17.8048 H   0  0  0  0  0  0
  -27.6710  -14.2656   19.5333 H   0  0  0  0  0  0
  -28.7153  -12.0783   21.3985 H   0  0  0  0  0  0
  -28.4093  -13.7405   21.8353 H   0  0  0  0  0  0
  -25.2805   -9.5672   22.4689 H   0  0  0  0  0  0
  -24.0059   -7.4614   22.7380 H   0  0  0  0  0  0
  -21.0814   -8.8830   19.8973 H   0  0  0  0  0  0
  -22.3672  -10.9719   19.6214 H   0  0  0  0  0  0
  -21.2019   -7.6134   23.9708 H   0  0  0  0  0  0
  -21.1521   -6.0515   25.9090 H   0  0  0  0  0  0
  -22.0553   -2.7582   23.2887 H   0  0  0  0  0  0
  -22.4031  -12.0011   22.5031 H   0  0  0  0  0  0
  -21.1033  -13.1262   22.2541 H   0  0  0  0  0  0
  -24.6570  -15.8513   20.5286 H   0  0  0  0  0  0
  -26.2783  -15.6327   20.0990 H   0  0  0  0  0  0
  -26.7206  -32.5400   23.1078 H   0  0  0  0  0  0
  -25.0258  -33.9693   25.0510 H   0  0  0  0  0  0
  -22.7156  -31.3020   21.3928 H   0  0  0  0  0  0
  -23.3773  -35.9576   23.3314 H   0  0  0  0  0  0
  -24.3571  -36.8847   22.2043 H   0  0  0  0  0  0
  -23.7229  -37.6473   23.6628 H   0  0  0  0  0  0
  -26.1033  -31.5436   20.5967 H   0  0  0  0  0  0
  -26.8436  -30.8282   22.0001 H   0  0  0  0  0  0
  -28.1157  -28.9770   21.1762 H   0  0  0  0  0  0
  -25.9849  -25.8903   19.0447 H   0  0  0  0  0  0
  -23.9630  -27.2895   19.0210 H   0  0  0  0  0  0
  -23.7627  -30.5877   19.3956 H   0  0  0  0  0  0
  -22.7539  -29.2446   19.8518 H   0  0  0  0  0  0
  -25.1297  -36.1899   25.0832 H   0  0  0  0  0  0
  -20.9998  -28.3269   24.1391 H   0  0  0  0  0  0
  -20.5671  -26.2313   23.3617 H   0  0  0  0  0  0
  -21.6644  -26.7426   22.1198 H   0  0  0  0  0  0
  -19.6883  -25.6300   21.1237 H   0  0  0  0  0  0
  -19.6674  -27.3212   20.6749 H   0  0  0  0  0  0
  -17.4199  -26.6703   21.4023 H   0  0  0  0  0  0
  -18.0304  -26.0065   22.9015 H   0  0  0  0  0  0
  -19.7944  -30.7299   24.2246 H   0  0  0  0  0  0
  -17.5012  -31.6257   24.5181 H   0  0  0  0  0  0
  -15.5359  -30.2984   23.7648 H   0  0  0  0  0  0
  -15.8689  -28.0839   22.7038 H   0  0  0  0  0  0
  -24.5952  -30.7000   25.7754 H   0  0  0  0  0  0
  -24.8927  -32.2836   26.4854 H   0  0  0  0  0  0
  -25.8098  -30.8859   27.0200 H   0  0  0  0  0  0
  -26.2883  -29.6702   24.1277 H   0  0  0  0  0  0
  -27.4118  -29.7272   25.4670 H   0  0  0  0  0  0
  -27.8741  -30.4255   23.9323 H   0  0  0  0  0  0
  -27.2692  -33.3591   26.2053 H   0  0  0  0  0  0
  -28.3906  -32.6813   25.0309 H   0  0  0  0  0  0
  -28.0743  -31.8397   26.5402 H   0  0  0  0  0  0
  -28.2632  -38.0058   24.7516 H   0  0  0  0  0  0
  -28.1027  -36.2605   24.6327 H   0  0  0  0  0  0
  -27.2289  -37.1459   25.8889 H   0  0  0  0  0  0
  -20.9365  -29.8784   21.6894 H   0  0  0  0  0  0
  -26.0161  -38.2866   24.1410 H   0  0  0  0  0  0
  -29.3578  -20.2572   22.0714 H   0  0  0  0  0  0
  -30.0856  -18.0584   22.7261 H   0  0  0  0  0  0
  -28.4027  -18.7291   18.1546 H   0  0  0  0  0  0
  -29.3727  -15.8509   23.3083 H   0  0  0  0  0  0
  -31.1202  -16.0545   23.1022 H   0  0  0  0  0  0
  -30.4036  -14.4534   23.0645 H   0  0  0  0  0  0
  -26.6197  -20.1275   18.7249 H   0  0  0  0  0  0
  -27.7160  -20.9369   17.5938 H   0  0  0  0  0  0
  -26.5970  -21.8561   18.5924 H   0  0  0  0  0  0
  -27.4040  -23.8071   19.0578 H   0  0  0  0  0  0
  -29.1327  -23.8398   19.1619 H   0  0  0  0  0  0
  -27.3423  -22.2384   21.0963 H   0  0  0  0  0  0
  -29.0781  -22.2902   21.1954 H   0  0  0  0  0  0
  -28.9126  -24.9642   21.4330 H   0  0  0  0  0  0
  -27.2024  -25.0125   21.2599 H   0  0  0  0  0  0
  1 25  1  0  0  0
  1 30  2  0  0  0
  1 82  1  0  0  0
  2  3  1  0  0  0
  2 25  1  0  0  0
  2 85  1  0  0  0
  2 86  1  0  0  0
  3  4  1  0  0  0
  3 87  1  0  0  0
  3 88  1  0  0  0
  4  5  1  0  0  0
  4 89  1  0  0  0
  4 90  1  0  0  0
  5  6  1  0  0  0
  5 26  1  0  0  0
  5 91  1  0  0  0
  6 25  1  0  0  0
  6 92  1  0  0  0
  6 93  1  0  0  0
  7  8  2  0  0  0
  7 26  1  0  0  0
  7 29  1  0  0  0
  8  9  1  0  0  0
  8 22  1  0  0  0
  9 10  1  0  0  0
  9 27  2  0  0  0
 10 11  2  0  0  0
 10 15  1  0  0  0
 11 12  1  0  0  0
 11 94  1  0  0  0
 12 13  2  0  0  0
 12 95  1  0  0  0
 13 14  1  0  0  0
 13 31  1  0  0  0
 14 15  2  0  0  0
 14 96  1  0  0  0
 15 97  1  0  0  0
 16 17  2  0  0  0
 16 21  1  0  0  0
 16 31  1  0  0  0
 17 18  1  0  0  0
 17 98  1  0  0  0
 18 19  2  0  0  0
 18 99  1  0  0  0
 19 20  1  0  0  0
 19 24  1  0  0  0
 20 21  2  0  0  0
 20100  1  0  0  0
 21 23  1  0  0  0
 22 28  1  0  0  0
 22 32  2  0  0  0
 26 27  1  0  0  0
 28101  1  0  0  0
 28102  1  0  0  0
 29103  1  0  0  0
 29104  1  0  0  0
 33 34  1  0  0  0
 33 66  1  0  0  0
 33 70  2  0  0  0
 34 36  1  0  0  0
 34 59  1  0  0  0
 34105  1  0  0  0
 35 44  2  0  0  0
 35 45  1  0  0  0
 35 68  1  0  0  0
 36 56  1  0  0  0
 36106  1  0  0  0
 37 39  1  0  0  0
 37 47  1  0  0  0
 37 66  1  0  0  0
 37107  1  0  0  0
 38 43  2  0  0  0
 38 46  1  0  0  0
 38 47  1  0  0  0
 39 64  1  0  0  0
 39 67  2  0  0  0
 40 52  1  0  0  0
 40 53  2  0  0  0
 40 58  1  0  0  0
 41108  1  0  0  0
 41109  1  0  0  0
 41110  1  0  0  0
 41 48  1  0  0  0
 42 43  1  0  0  0
 42 66  1  0  0  0
 42111  1  0  0  0
 42112  1  0  0  0
 43 44  1  0  0  0
 44113  1  0  0  0
 45 46  2  0  0  0
 45114  1  0  0  0
 46115  1  0  0  0
 47116  1  0  0  0
 47117  1  0  0  0
 48 56  1  0  0  0
 48 65  1  0  0  0
 48118  1  0  0  0
 49 50  1  0  0  0
 49 53  1  0  0  0
 49 64  1  0  0  0
 49119  1  0  0  0
 50 51  1  0  0  0
 50120  1  0  0  0
 50121  1  0  0  0
 51 52  1  0  0  0
 51122  1  0  0  0
 51123  1  0  0  0
 52124  1  0  0  0
 52125  1  0  0  0
 53 54  1  0  0  0
 54 55  2  0  0  0
 54126  1  0  0  0
 55 57  1  0  0  0
 55127  1  0  0  0
 56 69  2  0  0  0
 57 58  2  0  0  0
 57128  1  0  0  0
 58129  1  0  0  0
 59 60  1  0  0  0
 59 61  1  0  0  0
 59 62  1  0  0  0
 60130  1  0  0  0
 60131  1  0  0  0
 60132  1  0  0  0
 61133  1  0  0  0
 61134  1  0  0  0
 61135  1  0  0  0
 62136  1  0  0  0
 62137  1  0  0  0
 62138  1  0  0  0
 63 65  1  0  0  0
 63139  1  0  0  0
 63140  1  0  0  0
 63141  1  0  0  0
 64142  1  0  0  0
 65143  1  0  0  0
 68 81  1  0  0  0
 71 72  2  0  0  0
 71 74  1  0  0  0
 71144  1  0  0  0
 72 75  1  0  0  0
 72145  1  0  0  0
 73 74  2  0  0  0
 73 76  1  0  0  0
 73146  1  0  0  0
 74 83  1  0  0  0
 75 76  2  0  0  0
 75 82  1  0  0  0
 76 84  1  0  0  0
 77 82  1  0  0  0
 77147  1  0  0  0
 77148  1  0  0  0
 77149  1  0  0  0
 78 83  1  0  0  0
 78150  1  0  0  0
 78151  1  0  0  0
 78152  1  0  0  0
 79 80  1  0  0  0
 79 81  1  0  0  0
 79153  1  0  0  0
 79154  1  0  0  0
 80 83  1  0  0  0
 80155  1  0  0  0
 80156  1  0  0  0
 81157  1  0  0  0
 81158  1  0  0  0
M  ISO  4   1 100  68 101  81 101  82 100
M  END
> <chiral flag>
0

> <version>
0

> <s_m_source_file>
/data/baiqing/PycharmProjects/Reinvent-master-3.2/result/LINK_invent/BTK/process_docking_weight1_custom_product_contain_oxygen_bond_distance_aromatic_linkinvent_7_9_3/rearranged_h_0017.sdf

> <i_m_source_file_index>
17

> <r_mmod_Potential_Energy-OPLS-2005>
218.672515869141

> <r_mmod_Stretch_Energy-OPLS-2005>
101.724830627441

> <r_mmod_Bend_Energy-OPLS-2005>
158.67057800293

> <r_mmod_Torsional_Energy-OPLS-2005>
281.721099853516

> <r_mmod_Improper_Torsional_Energy-OPLS-2005>
4.98924779891968

> <r_mmod_Van_der_Waal_Energy-OPLS-2005>
150.160934448242

> <r_mmod_Electrostatic_Energy-OPLS-2005>
-324.336059570312

> <r_mmod_Solvation_Energy-OPLS-2005>
-209.920227050781

> <b_mmod_Minimization_Converged-OPLS-2005>
0

> <r_mmod_RMS_Derivative-OPLS-2005>
4.07039260864258

$$$$
18
                    3D
 Structure written by MMmdl.
158166  0  0  1  0            999 V2000
  -30.6485  -14.6593   20.5661 C   0  0  0  0  0  0
  -30.4319  -12.4241   19.4679 C   0  0  0  0  0  0
  -29.5061  -12.5250   18.2371 C   0  0  0  0  0  0
  -28.0305  -12.3570   18.6456 C   0  0  0  0  0  0
  -27.6503  -13.2283   19.8699 C   0  0  2  0  0  0
  -28.6907  -13.0951   21.0016 C   0  0  0  0  0  0
  -25.2523  -13.8235   20.5743 C   0  0  0  0  0  0
  -24.1804  -13.0469   20.9228 C   0  0  0  0  0  0
  -24.6385  -11.6953   20.8751 C   0  0  0  0  0  0
  -23.9065  -10.4328   21.0412 C   0  0  0  0  0  0
  -24.3637   -9.4216   21.9144 C   0  0  0  0  0  0
  -23.6307   -8.2248   22.0714 C   0  0  0  0  0  0
  -22.4264   -8.0294   21.3538 C   0  0  0  0  0  0
  -21.9887   -9.0296   20.4662 C   0  0  0  0  0  0
  -22.7225  -10.2173   20.3073 C   0  0  0  0  0  0
  -21.6871   -6.0723   22.5284 C   0  0  0  0  0  0
  -21.4037   -6.5621   23.8223 C   0  0  0  0  0  0
  -21.3688   -5.6783   24.9186 C   0  0  0  0  0  0
  -21.6059   -4.3047   24.7250 C   0  0  0  0  0  0
  -21.8814   -3.8129   23.4372 C   0  0  0  0  0  0
  -21.9211   -4.6942   22.3420 C   0  0  0  0  0  0
  -22.7809  -13.5227   21.1854 C   0  0  0  0  0  0
  -22.1685   -4.2133   21.0996 F   0  0  0  0  0  0
  -21.5623   -3.4525   25.7756 F   0  0  0  0  0  0
  -30.0053  -13.4492   20.4450 N   0  0  0  0  0  0
  -26.2968  -12.9436   20.3359 N   0  0  0  0  0  0
  -25.9310  -11.6579   20.5780 N   0  0  0  0  0  0
  -22.0446  -12.8263   22.0453 N   0  0  0  0  0  0
  -25.4230  -15.1968   20.4176 N   0  0  0  0  0  0
  -31.7555  -14.8344   20.0467 O   0  0  0  0  0  0
  -21.6639   -6.8871   21.4239 O   0  0  0  0  0  0
  -22.3448  -14.5459   20.6580 O   0  0  0  0  0  0
  -24.6301  -31.8584   23.1962 C   0  0  0  0  0  0
  -25.9149  -32.4745   23.8337 C   0  0  1  0  0  0
  -27.2061  -27.2993   20.1307 C   0  0  0  0  0  0
  -25.5968  -33.8545   24.2261 N   0  0  0  0  0  0
  -23.4221  -30.4819   21.5378 C   0  0  2  0  0  0
  -24.8646  -28.9280   20.1100 C   0  0  0  0  0  0
  -22.7494  -29.4637   22.4899 C   0  0  0  0  0  0
  -18.0288  -28.1394   22.8479 C   0  0  0  0  0  0
  -24.1487  -36.7264   23.2636 C   0  0  0  0  0  0
  -25.9639  -30.7849   21.3676 C   0  0  0  0  0  0
  -26.0349  -29.4090   20.7127 C   0  0  0  0  0  0
  -27.2144  -28.6088   20.7072 C   0  0  0  0  0  0
  -26.0190  -26.8648   19.5110 C   0  0  0  0  0  0
  -24.8599  -27.6637   19.4973 C   0  0  0  0  0  0
  -23.6357  -29.8129   20.1539 C   0  0  0  0  0  0
  -25.4106  -36.3073   24.0337 C   0  0  1  0  0  0
  -20.5899  -28.3688   23.1272 C   0  0  2  0  0  0
  -20.6779  -26.9406   22.5399 C   0  0  0  0  0  0
  -19.5745  -26.6385   21.5209 C   0  0  0  0  0  0
  -18.1927  -26.7932   22.1626 C   0  0  0  0  0  0
  -19.1548  -28.8861   23.2870 C   0  0  0  0  0  0
  -18.9464  -30.1469   23.8885 C   0  0  0  0  0  0
  -17.6458  -30.6586   24.0569 C   0  0  0  0  0  0
  -25.9047  -34.9442   23.5090 C   0  0  0  0  0  0
  -16.5355  -29.9086   23.6332 C   0  0  0  0  0  0
  -16.7277  -28.6514   23.0341 C   0  0  0  0  0  0
  -26.4519  -31.6558   25.0709 C   0  0  0  0  0  0
  -25.3757  -31.3679   26.1429 C   0  0  0  0  0  0
  -27.0347  -30.2983   24.6171 C   0  0  0  0  0  0
  -27.6081  -32.4286   25.7483 C   0  0  0  0  0  0
  -27.5564  -37.1801   24.8479 C   0  0  0  0  0  0
  -21.4200  -29.3058   22.3675 N   0  0  0  0  0  0
  -26.4277  -37.3784   23.9418 N   0  0  0  0  0  0
  -24.6915  -31.0605   22.0899 N   0  0  0  0  0  0
  -23.4216  -28.8187   23.2995 O   0  0  0  0  0  0
  -28.3075  -26.4381   20.1361 O   0  0  0  0  0  0
  -26.5598  -34.8945   22.4641 O   0  0  0  0  0  0
  -23.5471  -32.1362   23.7306 O   0  0  0  0  0  0
  -29.2986  -19.4722   21.3316 C   0  0  0  0  0  0
  -29.7239  -18.1613   21.7149 C   0  0  0  0  0  0
  -28.7693  -18.6236   19.1652 C   0  0  0  0  0  0
  -28.7857  -19.7606   20.0407 C   0  0  0  0  0  0
  -29.6851  -17.0238   20.8446 C   0  0  0  0  0  0
  -29.1957  -17.3085   19.5440 C   0  0  0  0  0  0
  -30.2475  -15.4933   22.7625 C   0  0  0  0  0  0
  -27.2654  -20.9955   18.5873 C   0  0  0  0  0  0
  -28.2311  -23.7564   19.7666 C   0  0  0  0  0  0
  -28.2472  -22.3120   20.4909 C   0  0  0  0  0  0
  -28.1284  -25.0648   20.6834 C   0  0  0  0  0  0
  -30.0553  -15.6616   21.3122 N   0  0  0  0  0  0
  -28.2956  -21.0714   19.6310 N   0  0  0  0  0  0
  -29.0874  -16.3056   18.6386 F   0  0  0  0  0  0
  -31.4725  -12.5475   19.1636 H   0  0  0  0  0  0
  -30.3749  -11.4322   19.9181 H   0  0  0  0  0  0
  -29.7766  -11.7723   17.4964 H   0  0  0  0  0  0
  -29.6418  -13.4939   17.7568 H   0  0  0  0  0  0
  -27.8678  -11.3045   18.8751 H   0  0  0  0  0  0
  -27.3775  -12.5859   17.8048 H   0  0  0  0  0  0
  -27.6710  -14.2656   19.5333 H   0  0  0  0  0  0
  -28.7153  -12.0783   21.3985 H   0  0  0  0  0  0
  -28.4093  -13.7405   21.8353 H   0  0  0  0  0  0
  -25.2805   -9.5672   22.4689 H   0  0  0  0  0  0
  -24.0059   -7.4614   22.7380 H   0  0  0  0  0  0
  -21.0814   -8.8830   19.8973 H   0  0  0  0  0  0
  -22.3672  -10.9719   19.6214 H   0  0  0  0  0  0
  -21.2019   -7.6134   23.9708 H   0  0  0  0  0  0
  -21.1521   -6.0515   25.9090 H   0  0  0  0  0  0
  -22.0553   -2.7582   23.2887 H   0  0  0  0  0  0
  -22.4031  -12.0011   22.5031 H   0  0  0  0  0  0
  -21.1033  -13.1262   22.2541 H   0  0  0  0  0  0
  -24.6570  -15.8513   20.5286 H   0  0  0  0  0  0
  -26.2783  -15.6327   20.0990 H   0  0  0  0  0  0
  -26.7206  -32.5400   23.1078 H   0  0  0  0  0  0
  -25.0258  -33.9693   25.0510 H   0  0  0  0  0  0
  -22.7156  -31.3020   21.3928 H   0  0  0  0  0  0
  -23.3773  -35.9576   23.3314 H   0  0  0  0  0  0
  -24.3571  -36.8847   22.2043 H   0  0  0  0  0  0
  -23.7229  -37.6473   23.6628 H   0  0  0  0  0  0
  -26.1033  -31.5436   20.5967 H   0  0  0  0  0  0
  -26.8436  -30.8282   22.0001 H   0  0  0  0  0  0
  -28.1157  -28.9770   21.1762 H   0  0  0  0  0  0
  -25.9849  -25.8903   19.0447 H   0  0  0  0  0  0
  -23.9630  -27.2895   19.0210 H   0  0  0  0  0  0
  -23.7627  -30.5877   19.3956 H   0  0  0  0  0  0
  -22.7539  -29.2446   19.8518 H   0  0  0  0  0  0
  -25.1297  -36.1899   25.0832 H   0  0  0  0  0  0
  -20.9998  -28.3269   24.1391 H   0  0  0  0  0  0
  -20.5671  -26.2313   23.3617 H   0  0  0  0  0  0
  -21.6644  -26.7426   22.1198 H   0  0  0  0  0  0
  -19.6883  -25.6300   21.1237 H   0  0  0  0  0  0
  -19.6674  -27.3212   20.6749 H   0  0  0  0  0  0
  -17.4199  -26.6703   21.4023 H   0  0  0  0  0  0
  -18.0304  -26.0065   22.9015 H   0  0  0  0  0  0
  -19.7944  -30.7299   24.2246 H   0  0  0  0  0  0
  -17.5012  -31.6257   24.5181 H   0  0  0  0  0  0
  -15.5359  -30.2984   23.7648 H   0  0  0  0  0  0
  -15.8689  -28.0839   22.7038 H   0  0  0  0  0  0
  -24.5952  -30.7000   25.7754 H   0  0  0  0  0  0
  -24.8927  -32.2836   26.4854 H   0  0  0  0  0  0
  -25.8098  -30.8859   27.0200 H   0  0  0  0  0  0
  -26.2883  -29.6702   24.1277 H   0  0  0  0  0  0
  -27.4118  -29.7272   25.4670 H   0  0  0  0  0  0
  -27.8741  -30.4255   23.9323 H   0  0  0  0  0  0
  -27.2692  -33.3591   26.2053 H   0  0  0  0  0  0
  -28.3906  -32.6813   25.0309 H   0  0  0  0  0  0
  -28.0743  -31.8397   26.5402 H   0  0  0  0  0  0
  -28.2632  -38.0058   24.7516 H   0  0  0  0  0  0
  -28.1027  -36.2605   24.6327 H   0  0  0  0  0  0
  -27.2289  -37.1459   25.8889 H   0  0  0  0  0  0
  -20.9365  -29.8784   21.6894 H   0  0  0  0  0  0
  -26.0161  -38.2866   24.1410 H   0  0  0  0  0  0
  -29.3578  -20.2572   22.0714 H   0  0  0  0  0  0
  -30.0856  -18.0584   22.7261 H   0  0  0  0  0  0
  -28.4027  -18.7291   18.1546 H   0  0  0  0  0  0
  -29.3727  -15.8509   23.3083 H   0  0  0  0  0  0
  -31.1202  -16.0545   23.1022 H   0  0  0  0  0  0
  -30.4036  -14.4534   23.0645 H   0  0  0  0  0  0
  -26.6197  -20.1275   18.7249 H   0  0  0  0  0  0
  -27.7160  -20.9369   17.5938 H   0  0  0  0  0  0
  -26.5970  -21.8561   18.5924 H   0  0  0  0  0  0
  -27.4040  -23.8071   19.0578 H   0  0  0  0  0  0
  -29.1327  -23.8398   19.1619 H   0  0  0  0  0  0
  -27.3423  -22.2384   21.0963 H   0  0  0  0  0  0
  -29.0781  -22.2902   21.1954 H   0  0  0  0  0  0
  -28.9126  -24.9642   21.4330 H   0  0  0  0  0  0
  -27.2024  -25.0125   21.2599 H   0  0  0  0  0  0
  1 25  1  0  0  0
  1 30  2  0  0  0
  1 82  1  0  0  0
  2  3  1  0  0  0
  2 25  1  0  0  0
  2 85  1  0  0  0
  2 86  1  0  0  0
  3  4  1  0  0  0
  3 87  1  0  0  0
  3 88  1  0  0  0
  4  5  1  0  0  0
  4 89  1  0  0  0
  4 90  1  0  0  0
  5  6  1  0  0  0
  5 26  1  0  0  0
  5 91  1  0  0  0
  6 25  1  0  0  0
  6 92  1  0  0  0
  6 93  1  0  0  0
  7  8  2  0  0  0
  7 26  1  0  0  0
  7 29  1  0  0  0
  8  9  1  0  0  0
  8 22  1  0  0  0
  9 10  1  0  0  0
  9 27  2  0  0  0
 10 11  2  0  0  0
 10 15  1  0  0  0
 11 12  1  0  0  0
 11 94  1  0  0  0
 12 13  2  0  0  0
 12 95  1  0  0  0
 13 14  1  0  0  0
 13 31  1  0  0  0
 14 15  2  0  0  0
 14 96  1  0  0  0
 15 97  1  0  0  0
 16 17  2  0  0  0
 16 21  1  0  0  0
 16 31  1  0  0  0
 17 18  1  0  0  0
 17 98  1  0  0  0
 18 19  2  0  0  0
 18 99  1  0  0  0
 19 20  1  0  0  0
 19 24  1  0  0  0
 20 21  2  0  0  0
 20100  1  0  0  0
 21 23  1  0  0  0
 22 28  1  0  0  0
 22 32  2  0  0  0
 26 27  1  0  0  0
 28101  1  0  0  0
 28102  1  0  0  0
 29103  1  0  0  0
 29104  1  0  0  0
 33 34  1  0  0  0
 33 66  1  0  0  0
 33 70  2  0  0  0
 34 36  1  0  0  0
 34 59  1  0  0  0
 34105  1  0  0  0
 35 44  2  0  0  0
 35 45  1  0  0  0
 35 68  1  0  0  0
 36 56  1  0  0  0
 36106  1  0  0  0
 37 39  1  0  0  0
 37 47  1  0  0  0
 37 66  1  0  0  0
 37107  1  0  0  0
 38 43  2  0  0  0
 38 46  1  0  0  0
 38 47  1  0  0  0
 39 64  1  0  0  0
 39 67  2  0  0  0
 40 52  1  0  0  0
 40 53  2  0  0  0
 40 58  1  0  0  0
 41108  1  0  0  0
 41109  1  0  0  0
 41110  1  0  0  0
 41 48  1  0  0  0
 42 43  1  0  0  0
 42 66  1  0  0  0
 42111  1  0  0  0
 42112  1  0  0  0
 43 44  1  0  0  0
 44113  1  0  0  0
 45 46  2  0  0  0
 45114  1  0  0  0
 46115  1  0  0  0
 47116  1  0  0  0
 47117  1  0  0  0
 48 56  1  0  0  0
 48 65  1  0  0  0
 48118  1  0  0  0
 49 50  1  0  0  0
 49 53  1  0  0  0
 49 64  1  0  0  0
 49119  1  0  0  0
 50 51  1  0  0  0
 50120  1  0  0  0
 50121  1  0  0  0
 51 52  1  0  0  0
 51122  1  0  0  0
 51123  1  0  0  0
 52124  1  0  0  0
 52125  1  0  0  0
 53 54  1  0  0  0
 54 55  2  0  0  0
 54126  1  0  0  0
 55 57  1  0  0  0
 55127  1  0  0  0
 56 69  2  0  0  0
 57 58  2  0  0  0
 57128  1  0  0  0
 58129  1  0  0  0
 59 60  1  0  0  0
 59 61  1  0  0  0
 59 62  1  0  0  0
 60130  1  0  0  0
 60131  1  0  0  0
 60132  1  0  0  0
 61133  1  0  0  0
 61134  1  0  0  0
 61135  1  0  0  0
 62136  1  0  0  0
 62137  1  0  0  0
 62138  1  0  0  0
 63 65  1  0  0  0
 63139  1  0  0  0
 63140  1  0  0  0
 63141  1  0  0  0
 64142  1  0  0  0
 65143  1  0  0  0
 68 81  1  0  0  0
 71 72  2  0  0  0
 71 74  1  0  0  0
 71144  1  0  0  0
 72 75  1  0  0  0
 72145  1  0  0  0
 73 74  2  0  0  0
 73 76  1  0  0  0
 73146  1  0  0  0
 74 83  1  0  0  0
 75 76  2  0  0  0
 75 82  1  0  0  0
 76 84  1  0  0  0
 77 82  1  0  0  0
 77147  1  0  0  0
 77148  1  0  0  0
 77149  1  0  0  0
 78 83  1  0  0  0
 78150  1  0  0  0
 78151  1  0  0  0
 78152  1  0  0  0
 79 80  1  0  0  0
 79 81  1  0  0  0
 79153  1  0  0  0
 79154  1  0  0  0
 80 83  1  0  0  0
 80155  1  0  0  0
 80156  1  0  0  0
 81157  1  0  0  0
 81158  1  0  0  0
M  ISO  4   1 100  68 101  81 101  82 100
M  END
> <chiral flag>
0

> <version>
0

> <s_m_source_file>
/data/baiqing/PycharmProjects/Reinvent-master-3.2/result/LINK_invent/BTK/process_docking_weight1_custom_product_contain_oxygen_bond_distance_aromatic_linkinvent_7_9_3/rearranged_h_0017.sdf

> <i_m_source_file_index>
18

> <r_mmod_Potential_Energy-OPLS-2005>
218.672515869141

> <r_mmod_Stretch_Energy-OPLS-2005>
101.724830627441

> <r_mmod_Bend_Energy-OPLS-2005>
158.67057800293

> <r_mmod_Torsional_Energy-OPLS-2005>
281.721099853516

> <r_mmod_Improper_Torsional_Energy-OPLS-2005>
4.98924779891968

> <r_mmod_Van_der_Waal_Energy-OPLS-2005>
150.160934448242

> <r_mmod_Electrostatic_Energy-OPLS-2005>
-324.336059570312

> <r_mmod_Solvation_Energy-OPLS-2005>
-209.920227050781

> <b_mmod_Minimization_Converged-OPLS-2005>
0

> <r_mmod_RMS_Derivative-OPLS-2005>
4.07039260864258

$$$$
19
                    3D
 Structure written by MMmdl.
173181  0  0  1  0            999 V2000
  -30.6790  -14.5395   20.5094 C   0  0  0  0  0  0
  -30.4214  -12.3203   19.4487 C   0  0  0  0  0  0
  -29.5001  -12.4639   18.2205 C   0  0  0  0  0  0
  -28.0174  -12.3338   18.6323 C   0  0  0  0  0  0
  -27.6475  -13.1927   19.8713 C   0  0  2  0  0  0
  -28.6979  -13.0546   20.9961 C   0  0  0  0  0  0
  -25.2559  -13.8094   20.5714 C   0  0  0  0  0  0
  -24.1821  -13.0401   20.9203 C   0  0  0  0  0  0
  -24.6347  -11.6855   20.8763 C   0  0  0  0  0  0
  -23.9006  -10.4270   21.0413 C   0  0  0  0  0  0
  -24.3563   -9.4195   21.9201 C   0  0  0  0  0  0
  -23.6271   -8.2216   22.0737 C   0  0  0  0  0  0
  -22.4253   -8.0262   21.3527 C   0  0  0  0  0  0
  -21.9876   -9.0232   20.4623 C   0  0  0  0  0  0
  -22.7175  -10.2133   20.3063 C   0  0  0  0  0  0
  -21.6854   -6.0739   22.5277 C   0  0  0  0  0  0
  -21.4016   -6.5639   23.8215 C   0  0  0  0  0  0
  -21.3651   -5.6785   24.9176 C   0  0  0  0  0  0
  -21.6043   -4.3052   24.7221 C   0  0  0  0  0  0
  -21.8823   -3.8155   23.4344 C   0  0  0  0  0  0
  -21.9192   -4.6965   22.3407 C   0  0  0  0  0  0
  -22.7862  -13.5229   21.1840 C   0  0  0  0  0  0
  -22.1658   -4.2157   21.0980 F   0  0  0  0  0  0
  -21.5614   -3.4537   25.7729 F   0  0  0  0  0  0
  -30.0163  -13.3498   20.4193 N   0  0  0  0  0  0
  -26.2962  -12.9214   20.3413 N   0  0  0  0  0  0
  -25.9277  -11.6394   20.5843 N   0  0  0  0  0  0
  -22.0484  -12.8255   22.0386 N   0  0  0  0  0  0
  -25.4296  -15.1822   20.4074 N   0  0  0  0  0  0
  -31.8688  -14.6577   20.1997 O   0  0  0  0  0  0
  -21.6634   -6.8860   21.4230 O   0  0  0  0  0  0
  -22.3559  -14.5527   20.6650 O   0  0  0  0  0  0
  -24.6149  -31.8689   23.2109 C   0  0  0  0  0  0
  -25.9051  -32.4808   23.8412 C   0  0  1  0  0  0
  -27.2294  -27.4315   20.1167 C   0  0  0  0  0  0
  -25.5939  -33.8601   24.2372 N   0  0  0  0  0  0
  -23.4026  -30.4912   21.5516 C   0  0  2  0  0  0
  -24.8505  -28.9541   20.1184 C   0  0  0  0  0  0
  -22.7416  -29.4673   22.5026 C   0  0  0  0  0  0
  -18.0278  -28.1372   22.8498 C   0  0  0  0  0  0
  -24.1480  -36.7295   23.2647 C   0  0  0  0  0  0
  -25.9285  -30.8346   21.3593 C   0  0  0  0  0  0
  -26.0068  -29.4622   20.7263 C   0  0  0  0  0  0
  -27.2002  -28.7051   20.7322 C   0  0  0  0  0  0
  -26.0678  -26.9432   19.4893 C   0  0  0  0  0  0
  -24.8740  -27.6924   19.4993 C   0  0  0  0  0  0
  -23.6112  -29.8202   20.1662 C   0  0  0  0  0  0
  -25.4091  -36.3097   24.0361 C   0  0  1  0  0  0
  -20.5867  -28.3659   23.1334 C   0  0  2  0  0  0
  -20.6771  -26.9397   22.5432 C   0  0  0  0  0  0
  -19.5756  -26.6380   21.5212 C   0  0  0  0  0  0
  -18.1933  -26.7917   22.1616 C   0  0  0  0  0  0
  -19.1533  -28.8826   23.2913 C   0  0  0  0  0  0
  -18.9454  -30.1425   23.8920 C   0  0  0  0  0  0
  -17.6460  -30.6575   24.0556 C   0  0  0  0  0  0
  -25.9037  -34.9459   23.5158 C   0  0  0  0  0  0
  -16.5353  -29.9068   23.6326 C   0  0  0  0  0  0
  -16.7261  -28.6490   23.0343 C   0  0  0  0  0  0
  -26.4513  -31.6527   25.0690 C   0  0  0  0  0  0
  -25.3815  -31.3492   26.1445 C   0  0  0  0  0  0
  -27.0348  -30.3010   24.5935 C   0  0  0  0  0  0
  -27.6120  -32.4204   25.7471 C   0  0  0  0  0  0
  -27.5567  -37.1803   24.8485 C   0  0  0  0  0  0
  -21.4154  -29.3024   22.3747 N   0  0  0  0  0  0
  -26.4265  -37.3786   23.9449 N   0  0  0  0  0  0
  -24.6680  -31.0793   22.1003 N   0  0  0  0  0  0
  -23.4189  -28.8232   23.3081 O   0  0  0  0  0  0
  -28.3669  -26.6588   20.0613 O   0  0  0  0  0  0
  -26.5566  -34.8908   22.4700 O   0  0  0  0  0  0
  -23.5348  -32.1450   23.7521 O   0  0  0  0  0  0
  -28.5400  -18.3832   22.4274 C   0  0  0  0  0  0
  -30.0859  -19.0760   20.7016 C   0  0  0  0  0  0
  -27.8828  -19.6343   22.3337 C   0  0  0  0  0  0
  -29.3945  -20.3039   20.5751 C   0  0  0  0  0  0
  -29.6371  -18.0751   21.5946 C   0  0  0  0  0  0
  -28.2547  -20.5957   21.3616 C   0  0  0  0  0  0
  -24.9810  -21.2797   23.0521 C   0  0  0  0  0  0
  -25.9530  -20.7654   19.3677 C   0  0  0  0  0  0
  -29.2904  -16.2016   19.4798 C   0  0  0  0  0  0
  -30.3322  -16.6939   21.6697 C   0  0  0  0  0  0
  -25.5002  -22.5810   22.4349 C   0  0  0  0  0  0
  -28.7246  -24.6438   21.4697 C   0  0  0  0  0  0
  -27.2845  -24.1933   21.7863 C   0  0  0  0  0  0
  -26.9723  -21.8625   19.7147 C   0  0  0  0  0  0
  -28.8826  -26.1821   21.3095 C   0  0  0  0  0  0
  -27.0244  -22.6889   22.1423 C   0  0  2  0  0  0
  -27.4830  -21.7592   21.0874 N   0  0  0  0  0  0
  -29.9078  -15.6485   20.6974 N   0  0  0  0  0  0
  -31.4672  -12.4142   19.1522 H   0  0  0  0  0  0
  -30.3207  -11.3269   19.8899 H   0  0  0  0  0  0
  -29.7467  -11.6977   17.4829 H   0  0  0  0  0  0
  -29.6783  -13.4219   17.7295 H   0  0  0  0  0  0
  -27.8294  -11.2822   18.8509 H   0  0  0  0  0  0
  -27.3684  -12.5878   17.7935 H   0  0  0  0  0  0
  -27.6379  -14.2212   19.5336 H   0  0  0  0  0  0
  -28.6904  -12.0475   21.4146 H   0  0  0  0  0  0
  -28.4653  -13.7282   21.8240 H   0  0  0  0  0  0
  -25.2678   -9.5721   22.4816 H   0  0  0  0  0  0
  -23.9993   -7.4596   22.7436 H   0  0  0  0  0  0
  -21.0814   -8.8723   19.8925 H   0  0  0  0  0  0
  -22.3575  -10.9687   19.6206 H   0  0  0  0  0  0
  -21.2011   -7.6147   23.9738 H   0  0  0  0  0  0
  -21.1469   -6.0508   25.9078 H   0  0  0  0  0  0
  -22.0618   -2.7625   23.2845 H   0  0  0  0  0  0
  -22.4067  -11.9919   22.4823 H   0  0  0  0  0  0
  -21.1121  -13.1338   22.2580 H   0  0  0  0  0  0
  -24.6646  -15.8396   20.5085 H   0  0  0  0  0  0
  -26.2913  -15.6220   20.1136 H   0  0  0  0  0  0
  -26.7134  -32.5539   23.1202 H   0  0  0  0  0  0
  -25.0142  -33.9773   25.0548 H   0  0  0  0  0  0
  -22.6909  -31.3072   21.4106 H   0  0  0  0  0  0
  -23.3751  -35.9618   23.3288 H   0  0  0  0  0  0
  -24.3588  -36.8920   22.2072 H   0  0  0  0  0  0
  -23.7203  -37.6484   23.6654 H   0  0  0  0  0  0
  -26.0174  -31.5807   20.5687 H   0  0  0  0  0  0
  -26.8289  -30.9138   21.9573 H   0  0  0  0  0  0
  -28.0961  -29.0949   21.1934 H   0  0  0  0  0  0
  -26.0823  -25.9779   19.0031 H   0  0  0  0  0  0
  -23.9889  -27.2990   19.0218 H   0  0  0  0  0  0
  -23.7210  -30.5955   19.4076 H   0  0  0  0  0  0
  -22.7341  -29.2436   19.8683 H   0  0  0  0  0  0
  -25.1248  -36.1966   25.0846 H   0  0  0  0  0  0
  -20.9947  -28.3197   24.1455 H   0  0  0  0  0  0
  -20.5659  -26.2253   23.3617 H   0  0  0  0  0  0
  -21.6638  -26.7421   22.1208 H   0  0  0  0  0  0
  -19.6925  -25.6288   21.1229 H   0  0  0  0  0  0
  -19.6692  -27.3204   20.6756 H   0  0  0  0  0  0
  -17.4196  -26.6662   21.4024 H   0  0  0  0  0  0
  -18.0322  -26.0040   22.8996 H   0  0  0  0  0  0
  -19.7931  -30.7242   24.2297 H   0  0  0  0  0  0
  -17.5013  -31.6265   24.5162 H   0  0  0  0  0  0
  -15.5357  -30.2978   23.7656 H   0  0  0  0  0  0
  -15.8662  -28.0824   22.7040 H   0  0  0  0  0  0
  -24.6093  -30.6734   25.7759 H   0  0  0  0  0  0
  -24.8884  -32.2557   26.4959 H   0  0  0  0  0  0
  -25.8254  -30.8649   27.0157 H   0  0  0  0  0  0
  -26.2825  -29.6732   24.1148 H   0  0  0  0  0  0
  -27.4393  -29.7255   25.4271 H   0  0  0  0  0  0
  -27.8532  -30.4422   23.8868 H   0  0  0  0  0  0
  -27.2802  -33.3548   26.2013 H   0  0  0  0  0  0
  -28.3972  -32.6659   25.0301 H   0  0  0  0  0  0
  -28.0722  -31.8295   26.5410 H   0  0  0  0  0  0
  -28.2557  -38.0127   24.7540 H   0  0  0  0  0  0
  -28.1086  -36.2651   24.6284 H   0  0  0  0  0  0
  -27.2290  -37.1406   25.8888 H   0  0  0  0  0  0
  -20.9332  -29.8765   21.6974 H   0  0  0  0  0  0
  -26.0154  -38.2863   24.1437 H   0  0  0  0  0  0
  -28.1819  -17.6517   23.1371 H   0  0  0  0  0  0
  -30.9472  -18.8941   20.0738 H   0  0  0  0  0  0
  -27.0510  -19.8021   22.9922 H   0  0  0  0  0  0
  -29.7428  -21.0236   19.8474 H   0  0  0  0  0  0
  -23.9243  -21.3757   23.3029 H   0  0  0  0  0  0
  -25.5062  -21.0327   23.9753 H   0  0  0  0  0  0
  -25.0688  -20.4486   22.3544 H   0  0  0  0  0  0
  -25.6602  -20.8325   18.3190 H   0  0  0  0  0  0
  -25.0432  -20.8558   19.9614 H   0  0  0  0  0  0
  -26.3600  -19.7667   19.5270 H   0  0  0  0  0  0
  -29.9078  -16.9878   19.0504 H   0  0  0  0  0  0
  -28.3047  -16.6142   19.6987 H   0  0  0  0  0  0
  -29.1748  -15.4682   18.6832 H   0  0  0  0  0  0
  -30.1959  -16.2926   22.6759 H   0  0  0  0  0  0
  -31.4066  -16.8629   21.5743 H   0  0  0  0  0  0
  -25.2281  -23.3732   23.1339 H   0  0  0  0  0  0
  -24.9276  -22.7954   21.5307 H   0  0  0  0  0  0
  -29.0866  -24.1346   20.5768 H   0  0  0  0  0  0
  -29.3710  -24.3170   22.2843 H   0  0  0  0  0  0
  -26.6408  -24.4978   20.9599 H   0  0  0  0  0  0
  -26.9481  -24.8000   22.6299 H   0  0  0  0  0  0
  -26.4935  -22.8293   19.5599 H   0  0  0  0  0  0
  -27.8002  -21.8344   19.0071 H   0  0  0  0  0  0
  -29.9440  -26.4296   21.3233 H   0  0  0  0  0  0
  -28.4488  -26.7028   22.1659 H   0  0  0  0  0  0
  -27.5744  -22.4599   23.0579 H   0  0  0  0  0  0
  1 25  1  0  0  0
  1 30  2  0  0  0
  1 88  1  0  0  0
  2  3  1  0  0  0
  2 25  1  0  0  0
  2 89  1  0  0  0
  2 90  1  0  0  0
  3  4  1  0  0  0
  3 91  1  0  0  0
  3 92  1  0  0  0
  4  5  1  0  0  0
  4 93  1  0  0  0
  4 94  1  0  0  0
  5  6  1  0  0  0
  5 26  1  0  0  0
  5 95  1  0  0  0
  6 25  1  0  0  0
  6 96  1  0  0  0
  6 97  1  0  0  0
  7  8  2  0  0  0
  7 26  1  0  0  0
  7 29  1  0  0  0
  8  9  1  0  0  0
  8 22  1  0  0  0
  9 10  1  0  0  0
  9 27  2  0  0  0
 10 11  2  0  0  0
 10 15  1  0  0  0
 11 12  1  0  0  0
 11 98  1  0  0  0
 12 13  2  0  0  0
 12 99  1  0  0  0
 13 14  1  0  0  0
 13 31  1  0  0  0
 14 15  2  0  0  0
 14100  1  0  0  0
 15101  1  0  0  0
 16 17  2  0  0  0
 16 21  1  0  0  0
 16 31  1  0  0  0
 17 18  1  0  0  0
 17102  1  0  0  0
 18 19  2  0  0  0
 18103  1  0  0  0
 19 20  1  0  0  0
 19 24  1  0  0  0
 20 21  2  0  0  0
 20104  1  0  0  0
 21 23  1  0  0  0
 22 28  1  0  0  0
 22 32  2  0  0  0
 26 27  1  0  0  0
 28105  1  0  0  0
 28106  1  0  0  0
 29107  1  0  0  0
 29108  1  0  0  0
 33 34  1  0  0  0
 33 66  1  0  0  0
 33 70  2  0  0  0
 34 36  1  0  0  0
 34 59  1  0  0  0
 34109  1  0  0  0
 35 44  2  0  0  0
 35 45  1  0  0  0
 35 68  1  0  0  0
 36 56  1  0  0  0
 36110  1  0  0  0
 37 39  1  0  0  0
 37 47  1  0  0  0
 37 66  1  0  0  0
 37111  1  0  0  0
 38 43  2  0  0  0
 38 46  1  0  0  0
 38 47  1  0  0  0
 39 64  1  0  0  0
 39 67  2  0  0  0
 40 52  1  0  0  0
 40 53  2  0  0  0
 40 58  1  0  0  0
 41112  1  0  0  0
 41113  1  0  0  0
 41114  1  0  0  0
 41 48  1  0  0  0
 42 43  1  0  0  0
 42 66  1  0  0  0
 42115  1  0  0  0
 42116  1  0  0  0
 43 44  1  0  0  0
 44117  1  0  0  0
 45 46  2  0  0  0
 45118  1  0  0  0
 46119  1  0  0  0
 47120  1  0  0  0
 47121  1  0  0  0
 48 56  1  0  0  0
 48 65  1  0  0  0
 48122  1  0  0  0
 49 50  1  0  0  0
 49 53  1  0  0  0
 49 64  1  0  0  0
 49123  1  0  0  0
 50 51  1  0  0  0
 50124  1  0  0  0
 50125  1  0  0  0
 51 52  1  0  0  0
 51126  1  0  0  0
 51127  1  0  0  0
 52128  1  0  0  0
 52129  1  0  0  0
 53 54  1  0  0  0
 54 55  2  0  0  0
 54130  1  0  0  0
 55 57  1  0  0  0
 55131  1  0  0  0
 56 69  2  0  0  0
 57 58  2  0  0  0
 57132  1  0  0  0
 58133  1  0  0  0
 59 60  1  0  0  0
 59 61  1  0  0  0
 59 62  1  0  0  0
 60134  1  0  0  0
 60135  1  0  0  0
 60136  1  0  0  0
 61137  1  0  0  0
 61138  1  0  0  0
 61139  1  0  0  0
 62140  1  0  0  0
 62141  1  0  0  0
 62142  1  0  0  0
 63 65  1  0  0  0
 63143  1  0  0  0
 63144  1  0  0  0
 63145  1  0  0  0
 64146  1  0  0  0
 65147  1  0  0  0
 68 85  1  0  0  0
 71 73  2  0  0  0
 71 75  1  0  0  0
 71148  1  0  0  0
 72 74  1  0  0  0
 72 75  2  0  0  0
 72149  1  0  0  0
 73 76  1  0  0  0
 73150  1  0  0  0
 74 76  2  0  0  0
 74151  1  0  0  0
 75 80  1  0  0  0
 76 87  1  0  0  0
 77 81  1  0  0  0
 77152  1  0  0  0
 77153  1  0  0  0
 77154  1  0  0  0
 78 84  1  0  0  0
 78155  1  0  0  0
 78156  1  0  0  0
 78157  1  0  0  0
 79 88  1  0  0  0
 79158  1  0  0  0
 79159  1  0  0  0
 79160  1  0  0  0
 80 88  1  0  0  0
 80161  1  0  0  0
 80162  1  0  0  0
 81163  1  0  0  0
 81164  1  0  0  0
 81 86  1  0  0  0
 82 83  1  0  0  0
 82 85  1  0  0  0
 82165  1  0  0  0
 82166  1  0  0  0
 83 86  1  0  0  0
 83167  1  0  0  0
 83168  1  0  0  0
 84 87  1  0  0  0
 84169  1  0  0  0
 84170  1  0  0  0
 85171  1  0  0  0
 85172  1  0  0  0
 86 87  1  0  0  0
 86173  1  0  0  0
M  ISO  4   1 100  68 101  85 101  88 100
M  END
> <chiral flag>
0

> <version>
0

> <s_m_source_file>
/data/baiqing/PycharmProjects/Reinvent-master-3.2/result/LINK_invent/BTK/process_docking_weight1_custom_product_contain_oxygen_bond_distance_aromatic_linkinvent_7_9_3/rearranged_h_0017.sdf

> <i_m_source_file_index>
19

> <r_mmod_Potential_Energy-OPLS-2005>
135.744430541992

> <r_mmod_Stretch_Energy-OPLS-2005>
47.1280364990234

> <r_mmod_Bend_Energy-OPLS-2005>
126.858207702637

> <r_mmod_Torsional_Energy-OPLS-2005>
347.875823974609

> <r_mmod_Improper_Torsional_Energy-OPLS-2005>
9.78450584411621

> <r_mmod_Van_der_Waal_Energy-OPLS-2005>
144.288208007812

> <r_mmod_Electrostatic_Energy-OPLS-2005>
-378.720336914062

> <r_mmod_Solvation_Energy-OPLS-2005>
-183.562622070312

> <b_mmod_Minimization_Converged-OPLS-2005>
0

> <r_mmod_RMS_Derivative-OPLS-2005>
3.26940608024597

$$$$
20
                    3D
 Structure written by MMmdl.
161169  0  0  1  0            999 V2000
  -30.7268  -14.5115   20.5799 C   0  0  0  0  0  0
  -30.4138  -12.3427   19.4294 C   0  0  0  0  0  0
  -29.4840  -12.4927   18.2094 C   0  0  0  0  0  0
  -28.0098  -12.3398   18.6253 C   0  0  0  0  0  0
  -27.6461  -13.1989   19.8623 C   0  0  2  0  0  0
  -28.6937  -13.0484   20.9901 C   0  0  0  0  0  0
  -25.2545  -13.8142   20.5676 C   0  0  0  0  0  0
  -24.1806  -13.0430   20.9211 C   0  0  0  0  0  0
  -24.6356  -11.6891   20.8779 C   0  0  0  0  0  0
  -23.9033  -10.4288   21.0440 C   0  0  0  0  0  0
  -24.3595   -9.4207   21.9214 C   0  0  0  0  0  0
  -23.6291   -8.2226   22.0761 C   0  0  0  0  0  0
  -22.4276   -8.0274   21.3539 C   0  0  0  0  0  0
  -21.9906   -9.0247   20.4640 C   0  0  0  0  0  0
  -22.7221  -10.2130   20.3073 C   0  0  0  0  0  0
  -21.6846   -6.0737   22.5275 C   0  0  0  0  0  0
  -21.4018   -6.5639   23.8213 C   0  0  0  0  0  0
  -21.3663   -5.6789   24.9170 C   0  0  0  0  0  0
  -21.6043   -4.3054   24.7218 C   0  0  0  0  0  0
  -21.8824   -3.8148   23.4341 C   0  0  0  0  0  0
  -21.9191   -4.6965   22.3397 C   0  0  0  0  0  0
  -22.7833  -13.5238   21.1876 C   0  0  0  0  0  0
  -22.1659   -4.2154   21.0974 F   0  0  0  0  0  0
  -21.5620   -3.4535   25.7736 F   0  0  0  0  0  0
  -30.0180  -13.3529   20.4266 N   0  0  0  0  0  0
  -26.2943  -12.9273   20.3339 N   0  0  0  0  0  0
  -25.9277  -11.6453   20.5816 N   0  0  0  0  0  0
  -22.0472  -12.8216   22.0412 N   0  0  0  0  0  0
  -25.4284  -15.1858   20.4016 N   0  0  0  0  0  0
  -31.8610  -14.6428   20.1072 O   0  0  0  0  0  0
  -21.6635   -6.8883   21.4238 O   0  0  0  0  0  0
  -22.3534  -14.5559   20.6745 O   0  0  0  0  0  0
  -24.6141  -31.8680   23.2078 C   0  0  0  0  0  0
  -25.9033  -32.4829   23.8384 C   0  0  1  0  0  0
  -27.2443  -27.4333   20.0929 C   0  0  0  0  0  0
  -25.5886  -33.8626   24.2307 N   0  0  0  0  0  0
  -23.4018  -30.4907   21.5486 C   0  0  2  0  0  0
  -24.8476  -28.9527   20.1165 C   0  0  0  0  0  0
  -22.7402  -29.4666   22.4984 C   0  0  0  0  0  0
  -18.0274  -28.1392   22.8479 C   0  0  0  0  0  0
  -24.1493  -36.7322   23.2648 C   0  0  0  0  0  0
  -25.9292  -30.8339   21.3587 C   0  0  0  0  0  0
  -26.0066  -29.4656   20.7104 C   0  0  0  0  0  0
  -27.2024  -28.7134   20.6958 C   0  0  0  0  0  0
  -26.0601  -26.9289   19.5057 C   0  0  0  0  0  0
  -24.8703  -27.6829   19.5137 C   0  0  0  0  0  0
  -23.6090  -29.8194   20.1639 C   0  0  0  0  0  0
  -25.4115  -36.3116   24.0340 C   0  0  1  0  0  0
  -20.5856  -28.3680   23.1307 C   0  0  2  0  0  0
  -20.6766  -26.9418   22.5400 C   0  0  0  0  0  0
  -19.5746  -26.6388   21.5204 C   0  0  0  0  0  0
  -18.1921  -26.7935   22.1608 C   0  0  0  0  0  0
  -19.1520  -28.8849   23.2892 C   0  0  0  0  0  0
  -18.9454  -30.1449   23.8908 C   0  0  0  0  0  0
  -17.6464  -30.6602   24.0564 C   0  0  0  0  0  0
  -25.9036  -34.9481   23.5122 C   0  0  0  0  0  0
  -16.5352  -29.9113   23.6324 C   0  0  0  0  0  0
  -16.7267  -28.6533   23.0336 C   0  0  0  0  0  0
  -26.4464  -31.6630   25.0724 C   0  0  0  0  0  0
  -25.3726  -31.3700   26.1462 C   0  0  0  0  0  0
  -27.0344  -30.3105   24.6088 C   0  0  0  0  0  0
  -27.6012  -32.4386   25.7495 C   0  0  0  0  0  0
  -27.5582  -37.1810   24.8471 C   0  0  0  0  0  0
  -21.4133  -29.3052   22.3717 N   0  0  0  0  0  0
  -26.4300  -37.3795   23.9408 N   0  0  0  0  0  0
  -24.6667  -31.0785   22.0970 N   0  0  0  0  0  0
  -23.4170  -28.8209   23.3032 O   0  0  0  0  0  0
  -28.4471  -26.7483   20.1057 O   0  0  0  0  0  0
  -26.5602  -34.8927   22.4691 O   0  0  0  0  0  0
  -23.5335  -32.1419   23.7472 O   0  0  0  0  0  0
  -30.0961  -19.8045   19.4939 C   0  0  0  0  0  0
  -28.5951  -20.1412   21.3617 C   0  0  0  0  0  0
  -29.2097  -17.8512   20.6957 C   0  0  0  0  0  0
  -29.3902  -20.7019   20.3357 C   0  0  0  0  0  0
  -30.0053  -18.4042   19.6684 C   0  0  0  0  0  0
  -28.5050  -18.7410   21.5416 C   0  0  0  0  0  0
  -30.7228  -22.6269   19.6062 C   0  0  0  0  0  0
  -31.0265  -16.2065   22.2946 C   0  0  0  0  0  0
  -29.0355  -16.3228   20.8233 C   0  0  0  0  0  0
  -28.1957  -24.2994   20.5309 C   0  0  0  0  0  0
  -28.2347  -22.8585   19.9437 C   0  0  0  0  0  0
  -28.5686  -25.4330   19.5395 C   0  0  0  0  0  0
  -29.4838  -22.1136   20.1880 N   0  0  0  0  0  0
  -30.1765  -15.5122   21.3220 N   0  0  0  0  0  0
  -30.6722  -17.5837   18.8215 F   0  0  0  0  0  0
  -27.7204  -18.2560   22.5344 F   0  0  0  0  0  0
  -31.4544  -12.4417   19.1152 H   0  0  0  0  0  0
  -30.3297  -11.3430   19.8591 H   0  0  0  0  0  0
  -29.7342  -11.7470   17.4532 H   0  0  0  0  0  0
  -29.6364  -13.4674   17.7426 H   0  0  0  0  0  0
  -27.8309  -11.2854   18.8426 H   0  0  0  0  0  0
  -27.3565  -12.5928   17.7896 H   0  0  0  0  0  0
  -27.6547  -14.2252   19.5114 H   0  0  0  0  0  0
  -28.6857  -12.0321   21.3869 H   0  0  0  0  0  0
  -28.4435  -13.6945   21.8326 H   0  0  0  0  0  0
  -25.2724   -9.5683   22.4798 H   0  0  0  0  0  0
  -24.0001   -7.4617   22.7477 H   0  0  0  0  0  0
  -21.0842   -8.8773   19.8938 H   0  0  0  0  0  0
  -22.3696  -10.9682   19.6191 H   0  0  0  0  0  0
  -21.2027   -7.6147   23.9728 H   0  0  0  0  0  0
  -21.1470   -6.0509   25.9077 H   0  0  0  0  0  0
  -22.0603   -2.7609   23.2837 H   0  0  0  0  0  0
  -22.4078  -11.9843   22.4755 H   0  0  0  0  0  0
  -21.1108  -13.1263   22.2666 H   0  0  0  0  0  0
  -24.6626  -15.8437   20.5005 H   0  0  0  0  0  0
  -26.2727  -15.6149   20.0495 H   0  0  0  0  0  0
  -26.7121  -32.5549   23.1154 H   0  0  0  0  0  0
  -25.0051  -33.9801   25.0470 H   0  0  0  0  0  0
  -22.6909  -31.3079   21.4055 H   0  0  0  0  0  0
  -23.3759  -35.9649   23.3310 H   0  0  0  0  0  0
  -24.3594  -36.8961   22.2063 H   0  0  0  0  0  0
  -23.7242  -37.6518   23.6692 H   0  0  0  0  0  0
  -26.0382  -31.5951   20.5841 H   0  0  0  0  0  0
  -26.8179  -30.8933   21.9750 H   0  0  0  0  0  0
  -28.0997  -29.1143   21.1473 H   0  0  0  0  0  0
  -26.0303  -25.9557   19.0399 H   0  0  0  0  0  0
  -23.9769  -27.2790   19.0563 H   0  0  0  0  0  0
  -23.7158  -30.5940   19.4022 H   0  0  0  0  0  0
  -22.7328  -29.2387   19.8689 H   0  0  0  0  0  0
  -25.1293  -36.1986   25.0831 H   0  0  0  0  0  0
  -20.9935  -28.3248   24.1430 H   0  0  0  0  0  0
  -20.5696  -26.2277   23.3579 H   0  0  0  0  0  0
  -21.6635  -26.7479   22.1177 H   0  0  0  0  0  0
  -19.6915  -25.6292   21.1256 H   0  0  0  0  0  0
  -19.6702  -27.3179   20.6717 H   0  0  0  0  0  0
  -17.4179  -26.6671   21.4023 H   0  0  0  0  0  0
  -18.0341  -26.0077   22.9006 H   0  0  0  0  0  0
  -19.7936  -30.7255   24.2285 H   0  0  0  0  0  0
  -17.5038  -31.6293   24.5153 H   0  0  0  0  0  0
  -15.5367  -30.3037   23.7650 H   0  0  0  0  0  0
  -15.8653  -28.0894   22.7013 H   0  0  0  0  0  0
  -24.5881  -30.7084   25.7778 H   0  0  0  0  0  0
  -24.8916  -32.2839   26.4969 H   0  0  0  0  0  0
  -25.8056  -30.8814   27.0197 H   0  0  0  0  0  0
  -26.2890  -29.6816   24.1200 H   0  0  0  0  0  0
  -27.4240  -29.7397   25.4528 H   0  0  0  0  0  0
  -27.8657  -30.4502   23.9166 H   0  0  0  0  0  0
  -27.2618  -33.3700   26.2051 H   0  0  0  0  0  0
  -28.3816  -32.6948   25.0317 H   0  0  0  0  0  0
  -28.0686  -31.8538   26.5427 H   0  0  0  0  0  0
  -28.2581  -38.0117   24.7551 H   0  0  0  0  0  0
  -28.1097  -36.2654   24.6286 H   0  0  0  0  0  0
  -27.2299  -37.1446   25.8870 H   0  0  0  0  0  0
  -20.9288  -29.8789   21.6948 H   0  0  0  0  0  0
  -26.0196  -38.2885   24.1389 H   0  0  0  0  0  0
  -30.7078  -20.1717   18.6840 H   0  0  0  0  0  0
  -28.0520  -20.7849   22.0375 H   0  0  0  0  0  0
  -31.5832  -22.0206   19.8946 H   0  0  0  0  0  0
  -30.9268  -23.6375   19.9593 H   0  0  0  0  0  0
  -30.6692  -22.6491   18.5160 H   0  0  0  0  0  0
  -30.4258  -16.7329   23.0363 H   0  0  0  0  0  0
  -31.6737  -16.9299   21.7966 H   0  0  0  0  0  0
  -31.6643  -15.5035   22.8330 H   0  0  0  0  0  0
  -28.7699  -15.9940   19.8200 H   0  0  0  0  0  0
  -28.1696  -16.1088   21.4504 H   0  0  0  0  0  0
  -28.8118  -24.3627   21.4284 H   0  0  0  0  0  0
  -27.1761  -24.4867   20.8672 H   0  0  0  0  0  0
  -28.0385  -22.8979   18.8698 H   0  0  0  0  0  0
  -27.3969  -22.3018   20.3648 H   0  0  0  0  0  0
  -28.0289  -25.3428   18.5976 H   0  0  0  0  0  0
  -29.6174  -25.3246   19.2661 H   0  0  0  0  0  0
  1 25  1  0  0  0
  1 30  2  0  0  0
  1 84  1  0  0  0
  2  3  1  0  0  0
  2 25  1  0  0  0
  2 87  1  0  0  0
  2 88  1  0  0  0
  3  4  1  0  0  0
  3 89  1  0  0  0
  3 90  1  0  0  0
  4  5  1  0  0  0
  4 91  1  0  0  0
  4 92  1  0  0  0
  5  6  1  0  0  0
  5 26  1  0  0  0
  5 93  1  0  0  0
  6 25  1  0  0  0
  6 94  1  0  0  0
  6 95  1  0  0  0
  7  8  2  0  0  0
  7 26  1  0  0  0
  7 29  1  0  0  0
  8  9  1  0  0  0
  8 22  1  0  0  0
  9 10  1  0  0  0
  9 27  2  0  0  0
 10 11  2  0  0  0
 10 15  1  0  0  0
 11 12  1  0  0  0
 11 96  1  0  0  0
 12 13  2  0  0  0
 12 97  1  0  0  0
 13 14  1  0  0  0
 13 31  1  0  0  0
 14 15  2  0  0  0
 14 98  1  0  0  0
 15 99  1  0  0  0
 16 17  2  0  0  0
 16 21  1  0  0  0
 16 31  1  0  0  0
 17 18  1  0  0  0
 17100  1  0  0  0
 18 19  2  0  0  0
 18101  1  0  0  0
 19 20  1  0  0  0
 19 24  1  0  0  0
 20 21  2  0  0  0
 20102  1  0  0  0
 21 23  1  0  0  0
 22 28  1  0  0  0
 22 32  2  0  0  0
 26 27  1  0  0  0
 28103  1  0  0  0
 28104  1  0  0  0
 29105  1  0  0  0
 29106  1  0  0  0
 33 34  1  0  0  0
 33 66  1  0  0  0
 33 70  2  0  0  0
 34 36  1  0  0  0
 34 59  1  0  0  0
 34107  1  0  0  0
 35 44  2  0  0  0
 35 45  1  0  0  0
 35 68  1  0  0  0
 36 56  1  0  0  0
 36108  1  0  0  0
 37 39  1  0  0  0
 37 47  1  0  0  0
 37 66  1  0  0  0
 37109  1  0  0  0
 38 43  2  0  0  0
 38 46  1  0  0  0
 38 47  1  0  0  0
 39 64  1  0  0  0
 39 67  2  0  0  0
 40 52  1  0  0  0
 40 53  2  0  0  0
 40 58  1  0  0  0
 41110  1  0  0  0
 41111  1  0  0  0
 41112  1  0  0  0
 41 48  1  0  0  0
 42 43  1  0  0  0
 42 66  1  0  0  0
 42113  1  0  0  0
 42114  1  0  0  0
 43 44  1  0  0  0
 44115  1  0  0  0
 45 46  2  0  0  0
 45116  1  0  0  0
 46117  1  0  0  0
 47118  1  0  0  0
 47119  1  0  0  0
 48 56  1  0  0  0
 48 65  1  0  0  0
 48120  1  0  0  0
 49 50  1  0  0  0
 49 53  1  0  0  0
 49 64  1  0  0  0
 49121  1  0  0  0
 50 51  1  0  0  0
 50122  1  0  0  0
 50123  1  0  0  0
 51 52  1  0  0  0
 51124  1  0  0  0
 51125  1  0  0  0
 52126  1  0  0  0
 52127  1  0  0  0
 53 54  1  0  0  0
 54 55  2  0  0  0
 54128  1  0  0  0
 55 57  1  0  0  0
 55129  1  0  0  0
 56 69  2  0  0  0
 57 58  2  0  0  0
 57130  1  0  0  0
 58131  1  0  0  0
 59 60  1  0  0  0
 59 61  1  0  0  0
 59 62  1  0  0  0
 60132  1  0  0  0
 60133  1  0  0  0
 60134  1  0  0  0
 61135  1  0  0  0
 61136  1  0  0  0
 61137  1  0  0  0
 62138  1  0  0  0
 62139  1  0  0  0
 62140  1  0  0  0
 63 65  1  0  0  0
 63141  1  0  0  0
 63142  1  0  0  0
 63143  1  0  0  0
 64144  1  0  0  0
 65145  1  0  0  0
 68 82  1  0  0  0
 71 74  2  0  0  0
 71 75  1  0  0  0
 71146  1  0  0  0
 72 74  1  0  0  0
 72 76  2  0  0  0
 72147  1  0  0  0
 73 75  2  0  0  0
 73 76  1  0  0  0
 73 79  1  0  0  0
 74 83  1  0  0  0
 75 85  1  0  0  0
 76 86  1  0  0  0
 77 83  1  0  0  0
 77148  1  0  0  0
 77149  1  0  0  0
 77150  1  0  0  0
 78 84  1  0  0  0
 78151  1  0  0  0
 78152  1  0  0  0
 78153  1  0  0  0
 79 84  1  0  0  0
 79154  1  0  0  0
 79155  1  0  0  0
 80 81  1  0  0  0
 80 82  1  0  0  0
 80156  1  0  0  0
 80157  1  0  0  0
 81 83  1  0  0  0
 81158  1  0  0  0
 81159  1  0  0  0
 82160  1  0  0  0
 82161  1  0  0  0
M  ISO  4   1 100  68 101  82 101  84 100
M  END
> <chiral flag>
0

> <version>
0

> <s_m_source_file>
/data/baiqing/PycharmProjects/Reinvent-master-3.2/result/LINK_invent/BTK/process_docking_weight1_custom_product_contain_oxygen_bond_distance_aromatic_linkinvent_7_9_3/rearranged_h_0017.sdf

> <i_m_source_file_index>
20

> <r_mmod_Potential_Energy-OPLS-2005>
123.05428314209

> <r_mmod_Stretch_Energy-OPLS-2005>
43.9480628967285

> <r_mmod_Bend_Energy-OPLS-2005>
117.723899841309

> <r_mmod_Torsional_Energy-OPLS-2005>
273.596252441406

> <r_mmod_Improper_Torsional_Energy-OPLS-2005>
6.14903593063354

> <r_mmod_Van_der_Waal_Energy-OPLS-2005>
154.97248840332

> <r_mmod_Electrostatic_Energy-OPLS-2005>
-283.447326660156

> <r_mmod_Solvation_Energy-OPLS-2005>
-207.029586791992

> <b_mmod_Minimization_Converged-OPLS-2005>
0

> <r_mmod_RMS_Derivative-OPLS-2005>
2.12738871574402

$$$$
21
                    3D
 Structure written by MMmdl.
150158  0  0  1  0            999 V2000
  -30.4497  -15.1860   20.4638 C   0  0  0  0  0  0
  -30.4454  -12.7612   19.5353 C   0  0  0  0  0  0
  -29.5388  -12.5990   18.2883 C   0  0  0  0  0  0
  -28.0802  -12.3183   18.6908 C   0  0  0  0  0  0
  -27.6201  -13.2590   19.8311 C   0  0  2  0  0  0
  -28.6482  -13.3271   20.9738 C   0  0  0  0  0  0
  -25.2414  -13.8214   20.5698 C   0  0  0  0  0  0
  -24.1739  -13.0435   20.9216 C   0  0  0  0  0  0
  -24.6376  -11.6922   20.8738 C   0  0  0  0  0  0
  -23.9067  -10.4292   21.0403 C   0  0  0  0  0  0
  -24.3620   -9.4205   21.9178 C   0  0  0  0  0  0
  -23.6301   -8.2238   22.0762 C   0  0  0  0  0  0
  -22.4280   -8.0272   21.3553 C   0  0  0  0  0  0
  -21.9909   -9.0241   20.4645 C   0  0  0  0  0  0
  -22.7240  -10.2123   20.3050 C   0  0  0  0  0  0
  -21.6853   -6.0734   22.5291 C   0  0  0  0  0  0
  -21.4010   -6.5640   23.8223 C   0  0  0  0  0  0
  -21.3657   -5.6788   24.9183 C   0  0  0  0  0  0
  -21.6046   -4.3052   24.7226 C   0  0  0  0  0  0
  -21.8827   -3.8148   23.4346 C   0  0  0  0  0  0
  -21.9201   -4.6966   22.3405 C   0  0  0  0  0  0
  -22.7762  -13.5208   21.1867 C   0  0  0  0  0  0
  -22.1655   -4.2151   21.0979 F   0  0  0  0  0  0
  -21.5636   -3.4532   25.7736 F   0  0  0  0  0  0
  -29.9028  -13.8688   20.4051 N   0  0  0  0  0  0
  -26.2819  -12.9452   20.3150 N   0  0  0  0  0  0
  -25.9305  -11.6576   20.5673 N   0  0  0  0  0  0
  -22.0400  -12.8222   22.0428 N   0  0  0  0  0  0
  -25.4093  -15.1942   20.4180 N   0  0  0  0  0  0
  -31.6165  -15.2482   20.0452 O   0  0  0  0  0  0
  -21.6645   -6.8871   21.4253 O   0  0  0  0  0  0
  -22.3443  -14.5501   20.6694 O   0  0  0  0  0  0
  -24.6583  -31.8307   23.1711 C   0  0  0  0  0  0
  -25.9291  -32.4638   23.8161 C   0  0  1  0  0  0
  -27.2241  -26.9804   20.1841 C   0  0  0  0  0  0
  -25.5986  -33.8451   24.2079 N   0  0  0  0  0  0
  -23.4682  -30.4428   21.5204 C   0  0  2  0  0  0
  -24.9197  -28.8306   20.1157 C   0  0  0  0  0  0
  -22.7628  -29.4517   22.4823 C   0  0  0  0  0  0
  -18.0330  -28.1379   22.8465 C   0  0  0  0  0  0
  -24.1488  -36.7247   23.2642 C   0  0  0  0  0  0
  -26.0321  -30.6551   21.3886 C   0  0  0  0  0  0
  -26.1021  -29.2467   20.7392 C   0  0  0  0  0  0
  -27.2504  -28.3432   20.7468 C   0  0  0  0  0  0
  -26.0117  -26.7012   19.5158 C   0  0  0  0  0  0
  -24.8959  -27.5745   19.4872 C   0  0  0  0  0  0
  -23.7023  -29.7520   20.1483 C   0  0  0  0  0  0
  -25.4132  -36.3003   24.0298 C   0  0  1  0  0  0
  -20.5944  -28.3747   23.1186 C   0  0  2  0  0  0
  -20.6813  -26.9438   22.5381 C   0  0  0  0  0  0
  -19.5792  -26.6363   21.5192 C   0  0  0  0  0  0
  -18.1973  -26.7919   22.1589 C   0  0  0  0  0  0
  -19.1584  -28.8883   23.2801 C   0  0  0  0  0  0
  -18.9497  -30.1473   23.8831 C   0  0  0  0  0  0
  -17.6492  -30.6571   24.0552 C   0  0  0  0  0  0
  -25.9091  -34.9396   23.4989 C   0  0  0  0  0  0
  -16.5385  -29.9058   23.6343 C   0  0  0  0  0  0
  -16.7309  -28.6469   23.0375 C   0  0  0  0  0  0
  -26.4543  -31.6576   25.0684 C   0  0  0  0  0  0
  -25.3653  -31.3856   26.1327 C   0  0  0  0  0  0
  -27.0442  -30.2953   24.6389 C   0  0  0  0  0  0
  -27.6031  -32.4385   25.7495 C   0  0  0  0  0  0
  -27.5568  -37.1784   24.8455 C   0  0  0  0  0  0
  -21.4317  -29.3059   22.3544 N   0  0  0  0  0  0
  -26.4267  -37.3750   23.9411 N   0  0  0  0  0  0
  -24.7411  -31.0028   22.0806 N   0  0  0  0  0  0
  -23.4197  -28.8116   23.3061 O   0  0  0  0  0  0
  -28.2507  -25.9149   20.2552 O   0  0  0  0  0  0
  -26.5680  -34.8925   22.4571 O   0  0  0  0  0  0
  -23.5663  -32.1244   23.6846 O   0  0  0  0  0  0
  -28.5960  -20.3272   21.4209 C   0  0  0  0  0  0
  -28.7998  -18.8678   21.5386 C   0  0  0  0  0  0
  -29.8016  -20.2868   19.4653 C   0  0  0  0  0  0
  -29.0887  -21.1958   20.3727 C   0  0  0  0  0  0
  -29.5540  -17.9582   20.6685 C   0  0  0  0  0  0
  -30.0196  -18.8131   19.5831 C   0  0  0  0  0  0
  -29.3643  -16.1129   22.3831 C   0  0  0  0  0  0
  -29.1372  -22.9369   20.3695 C   0  0  0  0  0  0
  -28.0165  -24.2991   20.1826 C   0  0  0  0  0  0
  -29.7421  -16.3776   20.9820 N   0  0  0  0  0  0
  -30.7377  -18.2193   18.6001 F   0  0  0  0  0  0
  -31.4677  -12.9638   19.2141 H   0  0  0  0  0  0
  -30.5084  -11.8245   20.0919 H   0  0  0  0  0  0
  -29.9164  -11.7983   17.6515 H   0  0  0  0  0  0
  -29.5782  -13.5147   17.6944 H   0  0  0  0  0  0
  -28.0195  -11.2818   19.0253 H   0  0  0  0  0  0
  -27.4217  -12.4034   17.8248 H   0  0  0  0  0  0
  -27.5702  -14.2545   19.3887 H   0  0  0  0  0  0
  -28.8028  -12.3443   21.4215 H   0  0  0  0  0  0
  -28.2380  -13.9425   21.7681 H   0  0  0  0  0  0
  -25.2763   -9.5691   22.4743 H   0  0  0  0  0  0
  -24.0024   -7.4636   22.7483 H   0  0  0  0  0  0
  -21.0844   -8.8753   19.8934 H   0  0  0  0  0  0
  -22.3701  -10.9657   19.6148 H   0  0  0  0  0  0
  -21.1979   -7.6146   23.9731 H   0  0  0  0  0  0
  -21.1468   -6.0507   25.9087 H   0  0  0  0  0  0
  -22.0602   -2.7613   23.2849 H   0  0  0  0  0  0
  -22.4025  -11.9904   22.4841 H   0  0  0  0  0  0
  -21.0987  -13.1212   22.2550 H   0  0  0  0  0  0
  -24.6449  -15.8477   20.5417 H   0  0  0  0  0  0
  -26.2682  -15.6408   20.1224 H   0  0  0  0  0  0
  -26.7378  -32.5194   23.0895 H   0  0  0  0  0  0
  -25.0197  -33.9543   25.0267 H   0  0  0  0  0  0
  -22.7787  -31.2725   21.3521 H   0  0  0  0  0  0
  -23.3760  -35.9559   23.3256 H   0  0  0  0  0  0
  -24.3571  -36.8927   22.2061 H   0  0  0  0  0  0
  -23.7221  -37.6418   23.6719 H   0  0  0  0  0  0
  -26.1996  -31.3968   20.6069 H   0  0  0  0  0  0
  -26.8963  -30.7164   22.0373 H   0  0  0  0  0  0
  -28.1471  -28.6668   21.2570 H   0  0  0  0  0  0
  -25.9000  -25.7417   19.0331 H   0  0  0  0  0  0
  -23.9937  -27.2433   18.9912 H   0  0  0  0  0  0
  -23.8514  -30.5164   19.3860 H   0  0  0  0  0  0
  -22.8109  -29.2040   19.8372 H   0  0  0  0  0  0
  -25.1333  -36.1793   25.0788 H   0  0  0  0  0  0
  -21.0031  -28.3336   24.1307 H   0  0  0  0  0  0
  -20.5687  -26.2385   23.3623 H   0  0  0  0  0  0
  -21.6689  -26.7424   22.1203 H   0  0  0  0  0  0
  -19.6962  -25.6259   21.1255 H   0  0  0  0  0  0
  -19.6709  -27.3139   20.6688 H   0  0  0  0  0  0
  -17.4255  -26.6675   21.3972 H   0  0  0  0  0  0
  -18.0351  -26.0051   22.8965 H   0  0  0  0  0  0
  -19.7981  -30.7305   24.2149 H   0  0  0  0  0  0
  -17.5053  -31.6247   24.5163 H   0  0  0  0  0  0
  -15.5381  -30.2934   23.7715 H   0  0  0  0  0  0
  -15.8713  -28.0757   22.7143 H   0  0  0  0  0  0
  -24.5834  -30.7207   25.7637 H   0  0  0  0  0  0
  -24.8844  -32.3085   26.4580 H   0  0  0  0  0  0
  -25.7852  -30.9124   27.0207 H   0  0  0  0  0  0
  -26.3106  -29.6645   24.1363 H   0  0  0  0  0  0
  -27.3969  -29.7316   25.5036 H   0  0  0  0  0  0
  -27.9040  -30.4173   23.9800 H   0  0  0  0  0  0
  -27.2582  -33.3721   26.1953 H   0  0  0  0  0  0
  -28.3908  -32.6889   25.0375 H   0  0  0  0  0  0
  -28.0633  -31.8594   26.5504 H   0  0  0  0  0  0
  -28.2572  -38.0102   24.7541 H   0  0  0  0  0  0
  -28.1074  -36.2633   24.6225 H   0  0  0  0  0  0
  -27.2300  -37.1373   25.8862 H   0  0  0  0  0  0
  -20.9559  -29.8716   21.6661 H   0  0  0  0  0  0
  -26.0109  -38.2799   24.1421 H   0  0  0  0  0  0
  -28.0546  -20.8028   22.2277 H   0  0  0  0  0  0
  -28.3277  -18.4418   22.4115 H   0  0  0  0  0  0
  -30.2731  -20.7529   18.6112 H   0  0  0  0  0  0
  -29.7888  -16.8687   23.0441 H   0  0  0  0  0  0
  -29.7275  -15.1684   22.7975 H   0  0  0  0  0  0
  -28.2793  -16.1322   22.4971 H   0  0  0  0  0  0
  -29.9204  -23.1546   19.6423 H   0  0  0  0  0  0
  -29.6207  -23.1467   21.3235 H   0  0  0  0  0  0
  -27.2211  -24.1186   20.9076 H   0  0  0  0  0  0
  -27.5498  -24.1340   19.2122 H   0  0  0  0  0  0
  1 25  1  0  0  0
  1 30  2  0  0  0
  1 80  1  0  0  0
  2  3  1  0  0  0
  2 25  1  0  0  0
  2 82  1  0  0  0
  2 83  1  0  0  0
  3  4  1  0  0  0
  3 84  1  0  0  0
  3 85  1  0  0  0
  4  5  1  0  0  0
  4 86  1  0  0  0
  4 87  1  0  0  0
  5  6  1  0  0  0
  5 26  1  0  0  0
  5 88  1  0  0  0
  6 25  1  0  0  0
  6 89  1  0  0  0
  6 90  1  0  0  0
  7  8  2  0  0  0
  7 26  1  0  0  0
  7 29  1  0  0  0
  8  9  1  0  0  0
  8 22  1  0  0  0
  9 10  1  0  0  0
  9 27  2  0  0  0
 10 11  2  0  0  0
 10 15  1  0  0  0
 11 12  1  0  0  0
 11 91  1  0  0  0
 12 13  2  0  0  0
 12 92  1  0  0  0
 13 14  1  0  0  0
 13 31  1  0  0  0
 14 15  2  0  0  0
 14 93  1  0  0  0
 15 94  1  0  0  0
 16 17  2  0  0  0
 16 21  1  0  0  0
 16 31  1  0  0  0
 17 18  1  0  0  0
 17 95  1  0  0  0
 18 19  2  0  0  0
 18 96  1  0  0  0
 19 20  1  0  0  0
 19 24  1  0  0  0
 20 21  2  0  0  0
 20 97  1  0  0  0
 21 23  1  0  0  0
 22 28  1  0  0  0
 22 32  2  0  0  0
 26 27  1  0  0  0
 28 98  1  0  0  0
 28 99  1  0  0  0
 29100  1  0  0  0
 29101  1  0  0  0
 33 34  1  0  0  0
 33 66  1  0  0  0
 33 70  2  0  0  0
 34 36  1  0  0  0
 34 59  1  0  0  0
 34102  1  0  0  0
 35 44  2  0  0  0
 35 45  1  0  0  0
 35 68  1  0  0  0
 36 56  1  0  0  0
 36103  1  0  0  0
 37 39  1  0  0  0
 37 47  1  0  0  0
 37 66  1  0  0  0
 37104  1  0  0  0
 38 43  2  0  0  0
 38 46  1  0  0  0
 38 47  1  0  0  0
 39 64  1  0  0  0
 39 67  2  0  0  0
 40 52  1  0  0  0
 40 53  2  0  0  0
 40 58  1  0  0  0
 41105  1  0  0  0
 41106  1  0  0  0
 41107  1  0  0  0
 41 48  1  0  0  0
 42 43  1  0  0  0
 42 66  1  0  0  0
 42108  1  0  0  0
 42109  1  0  0  0
 43 44  1  0  0  0
 44110  1  0  0  0
 45 46  2  0  0  0
 45111  1  0  0  0
 46112  1  0  0  0
 47113  1  0  0  0
 47114  1  0  0  0
 48 56  1  0  0  0
 48 65  1  0  0  0
 48115  1  0  0  0
 49 50  1  0  0  0
 49 53  1  0  0  0
 49 64  1  0  0  0
 49116  1  0  0  0
 50 51  1  0  0  0
 50117  1  0  0  0
 50118  1  0  0  0
 51 52  1  0  0  0
 51119  1  0  0  0
 51120  1  0  0  0
 52121  1  0  0  0
 52122  1  0  0  0
 53 54  1  0  0  0
 54 55  2  0  0  0
 54123  1  0  0  0
 55 57  1  0  0  0
 55124  1  0  0  0
 56 69  2  0  0  0
 57 58  2  0  0  0
 57125  1  0  0  0
 58126  1  0  0  0
 59 60  1  0  0  0
 59 61  1  0  0  0
 59 62  1  0  0  0
 60127  1  0  0  0
 60128  1  0  0  0
 60129  1  0  0  0
 61130  1  0  0  0
 61131  1  0  0  0
 61132  1  0  0  0
 62133  1  0  0  0
 62134  1  0  0  0
 62135  1  0  0  0
 63 65  1  0  0  0
 63136  1  0  0  0
 63137  1  0  0  0
 63138  1  0  0  0
 64139  1  0  0  0
 65140  1  0  0  0
 68 79  1  0  0  0
 71 72  2  0  0  0
 71 74  1  0  0  0
 71141  1  0  0  0
 72 75  1  0  0  0
 72142  1  0  0  0
 73 74  2  0  0  0
 73 76  1  0  0  0
 73143  1  0  0  0
 74 78  1  0  0  0
 75 76  2  0  0  0
 75 80  1  0  0  0
 76 81  1  0  0  0
 77 80  1  0  0  0
 77144  1  0  0  0
 77145  1  0  0  0
 77146  1  0  0  0
 78 79  1  0  0  0
 78147  1  0  0  0
 78148  1  0  0  0
 79149  1  0  0  0
 79150  1  0  0  0
M  ISO  4   1 100  68 101  79 101  80 100
M  END
> <chiral flag>
0

> <version>
0

> <s_m_source_file>
/data/baiqing/PycharmProjects/Reinvent-master-3.2/result/LINK_invent/BTK/process_docking_weight1_custom_product_contain_oxygen_bond_distance_aromatic_linkinvent_7_9_3/rearranged_h_0017.sdf

> <i_m_source_file_index>
21

> <r_mmod_Potential_Energy-OPLS-2005>
1221.4267578125

> <r_mmod_Stretch_Energy-OPLS-2005>
482.547698974609

> <r_mmod_Bend_Energy-OPLS-2005>
429.640777587891

> <r_mmod_Torsional_Energy-OPLS-2005>
274.424468994141

> <r_mmod_Improper_Torsional_Energy-OPLS-2005>
4.69859933853149

> <r_mmod_Van_der_Waal_Energy-OPLS-2005>
144.518188476562

> <r_mmod_Electrostatic_Energy-OPLS-2005>
-292.609405517578

> <r_mmod_Solvation_Energy-OPLS-2005>
-193.744171142578

> <b_mmod_Minimization_Converged-OPLS-2005>
0

> <r_mmod_RMS_Derivative-OPLS-2005>
2.59453248977661

$$$$
22
                    3D
 Structure written by MMmdl.
158166  0  0  1  0            999 V2000
  -30.6916  -14.5957   20.5734 C   0  0  0  0  0  0
  -30.4104  -12.3889   19.4568 C   0  0  0  0  0  0
  -29.4937  -12.5150   18.2233 C   0  0  0  0  0  0
  -28.0242  -12.3404   18.6447 C   0  0  0  0  0  0
  -27.6514  -13.2168   19.8706 C   0  0  2  0  0  0
  -28.6922  -13.0801   21.0060 C   0  0  0  0  0  0
  -25.2571  -13.8173   20.5669 C   0  0  0  0  0  0
  -24.1846  -13.0435   20.9166 C   0  0  0  0  0  0
  -24.6397  -11.6901   20.8709 C   0  0  0  0  0  0
  -23.9062  -10.4276   21.0360 C   0  0  0  0  0  0
  -24.3616   -9.4205   21.9147 C   0  0  0  0  0  0
  -23.6274   -8.2264   22.0764 C   0  0  0  0  0  0
  -22.4249   -8.0296   21.3569 C   0  0  0  0  0  0
  -21.9890   -9.0260   20.4654 C   0  0  0  0  0  0
  -22.7218  -10.2132   20.3033 C   0  0  0  0  0  0
  -21.6857   -6.0745   22.5277 C   0  0  0  0  0  0
  -21.4007   -6.5652   23.8210 C   0  0  0  0  0  0
  -21.3650   -5.6811   24.9182 C   0  0  0  0  0  0
  -21.6042   -4.3073   24.7236 C   0  0  0  0  0  0
  -21.8813   -3.8161   23.4357 C   0  0  0  0  0  0
  -21.9190   -4.6973   22.3406 C   0  0  0  0  0  0
  -22.7874  -13.5241   21.1824 C   0  0  0  0  0  0
  -22.1655   -4.2157   21.0977 F   0  0  0  0  0  0
  -21.5615   -3.4549   25.7738 F   0  0  0  0  0  0
  -30.0077  -13.4139   20.4450 N   0  0  0  0  0  0
  -26.2997  -12.9354   20.3371 N   0  0  0  0  0  0
  -25.9322  -11.6512   20.5757 N   0  0  0  0  0  0
  -22.0528  -12.8222   22.0368 N   0  0  0  0  0  0
  -25.4272  -15.1882   20.4046 N   0  0  0  0  0  0
  -31.8153  -14.7326   20.0832 O   0  0  0  0  0  0
  -21.6631   -6.8886   21.4244 O   0  0  0  0  0  0
  -22.3569  -14.5555   20.6665 O   0  0  0  0  0  0
  -24.6243  -31.8603   23.2091 C   0  0  0  0  0  0
  -25.9071  -32.4793   23.8402 C   0  0  1  0  0  0
  -27.2278  -27.3422   20.1098 C   0  0  0  0  0  0
  -25.5889  -33.8597   24.2316 N   0  0  0  0  0  0
  -23.4208  -30.4858   21.5469 C   0  0  2  0  0  0
  -24.8668  -28.9453   20.1135 C   0  0  0  0  0  0
  -22.7497  -29.4632   22.4940 C   0  0  0  0  0  0
  -18.0298  -28.1444   22.8421 C   0  0  0  0  0  0
  -24.1491  -36.7308   23.2642 C   0  0  0  0  0  0
  -25.9607  -30.8008   21.3738 C   0  0  0  0  0  0
  -26.0381  -29.4298   20.7124 C   0  0  0  0  0  0
  -27.2241  -28.6399   20.7040 C   0  0  0  0  0  0
  -26.0432  -26.9149   19.4705 C   0  0  0  0  0  0
  -24.8704  -27.6912   19.4816 C   0  0  0  0  0  0
  -23.6330  -29.8204   20.1619 C   0  0  0  0  0  0
  -25.4115  -36.3117   24.0343 C   0  0  1  0  0  0
  -20.5902  -28.3646   23.1216 C   0  0  2  0  0  0
  -20.6781  -26.9364   22.5312 C   0  0  0  0  0  0
  -19.5769  -26.6477   21.5088 C   0  0  0  0  0  0
  -18.1918  -26.8045   22.1431 C   0  0  0  0  0  0
  -19.1581  -28.8876   23.2816 C   0  0  0  0  0  0
  -18.9523  -30.1472   23.8842 C   0  0  0  0  0  0
  -17.6546  -30.6611   24.0619 C   0  0  0  0  0  0
  -25.9041  -34.9465   23.5124 C   0  0  0  0  0  0
  -16.5410  -29.9160   23.6382 C   0  0  0  0  0  0
  -16.7299  -28.6594   23.0308 C   0  0  0  0  0  0
  -26.4473  -31.6617   25.0764 C   0  0  0  0  0  0
  -25.3724  -31.3740   26.1505 C   0  0  0  0  0  0
  -27.0308  -30.3051   24.6205 C   0  0  0  0  0  0
  -27.6072  -32.4343   25.7485 C   0  0  0  0  0  0
  -27.5582  -37.1817   24.8457 C   0  0  0  0  0  0
  -21.4211  -29.3004   22.3611 N   0  0  0  0  0  0
  -26.4298  -37.3802   23.9384 N   0  0  0  0  0  0
  -24.6880  -31.0637   22.0998 N   0  0  0  0  0  0
  -23.4205  -28.8213   23.3046 O   0  0  0  0  0  0
  -28.3140  -26.4585   20.1596 O   0  0  0  0  0  0
  -26.5617  -34.8913   22.4698 O   0  0  0  0  0  0
  -23.5403  -32.1362   23.7424 O   0  0  0  0  0  0
  -28.4910  -20.2311   22.0223 C   0  0  0  0  0  0
  -29.5439  -20.7199   19.9341 C   0  0  0  0  0  0
  -29.4623  -18.3344   20.7343 C   0  0  0  0  0  0
  -28.7712  -21.2077   21.0213 C   0  0  0  0  0  0
  -28.7836  -18.8437   21.8746 C   0  0  0  0  0  0
  -29.8830  -19.3342   19.7923 C   0  0  0  0  0  0
  -26.7607  -22.4178   21.4186 C   0  0  0  0  0  0
  -30.6775  -16.0078   22.5075 C   0  0  0  0  0  0
  -29.4843  -16.7825   20.3898 C   0  0  0  0  0  0
  -28.5987  -23.7485   20.2960 C   0  0  0  0  0  0
  -28.0469  -25.1642   20.8292 C   0  0  0  0  0  0
  -28.1946  -22.5368   21.1067 N   0  0  0  0  0  0
  -30.0903  -15.6606   21.2080 N   0  0  0  0  0  0
  -28.3148  -17.9904   22.8158 F   0  0  0  0  0  0
  -30.7711  -18.8912   18.3734 Cl  0  0  0  0  0  0
  -31.4590  -12.4723   19.1695 H   0  0  0  0  0  0
  -30.3060  -11.3971   19.8961 H   0  0  0  0  0  0
  -29.7603  -11.7557   17.4877 H   0  0  0  0  0  0
  -29.6377  -13.4812   17.7368 H   0  0  0  0  0  0
  -27.8895  -11.2871   18.8909 H   0  0  0  0  0  0
  -27.3541  -12.5397   17.8075 H   0  0  0  0  0  0
  -27.6705  -14.2494   19.5269 H   0  0  0  0  0  0
  -28.7053  -12.0611   21.3987 H   0  0  0  0  0  0
  -28.4363  -13.7165   21.8521 H   0  0  0  0  0  0
  -25.2787   -9.5688   22.4687 H   0  0  0  0  0  0
  -23.9992   -7.4681   22.7496 H   0  0  0  0  0  0
  -21.0841   -8.8764   19.8969 H   0  0  0  0  0  0
  -22.3682  -10.9659   19.6122 H   0  0  0  0  0  0
  -21.1986   -7.6162   23.9708 H   0  0  0  0  0  0
  -21.1473   -6.0549   25.9083 H   0  0  0  0  0  0
  -22.0590   -2.7617   23.2847 H   0  0  0  0  0  0
  -22.4218  -11.9902   22.4759 H   0  0  0  0  0  0
  -21.1137  -13.1224   22.2594 H   0  0  0  0  0  0
  -24.6667  -15.8443   20.5340 H   0  0  0  0  0  0
  -26.2784  -15.6267   20.0739 H   0  0  0  0  0  0
  -26.7134  -32.5451   23.1152 H   0  0  0  0  0  0
  -24.9954  -33.9767   25.0404 H   0  0  0  0  0  0
  -22.7138  -31.3053   21.4035 H   0  0  0  0  0  0
  -23.3755  -35.9637   23.3313 H   0  0  0  0  0  0
  -24.3593  -36.8918   22.2059 H   0  0  0  0  0  0
  -23.7251  -37.6518   23.6636 H   0  0  0  0  0  0
  -26.0904  -31.5711   20.6121 H   0  0  0  0  0  0
  -26.8409  -30.8495   22.0010 H   0  0  0  0  0  0
  -28.1213  -29.0017   21.1882 H   0  0  0  0  0  0
  -26.0179  -25.9525   18.9805 H   0  0  0  0  0  0
  -23.9725  -27.3214   19.0041 H   0  0  0  0  0  0
  -23.7426  -30.5962   19.4021 H   0  0  0  0  0  0
  -22.7549  -29.2407   19.8661 H   0  0  0  0  0  0
  -25.1318  -36.1984   25.0846 H   0  0  0  0  0  0
  -21.0003  -28.3173   24.1322 H   0  0  0  0  0  0
  -20.5619  -26.2207   23.3457 H   0  0  0  0  0  0
  -21.6652  -26.7427   22.1092 H   0  0  0  0  0  0
  -19.6975  -25.6476   21.0914 H   0  0  0  0  0  0
  -19.6747  -27.3432   20.6744 H   0  0  0  0  0  0
  -17.4261  -26.7001   21.3769 H   0  0  0  0  0  0
  -18.0196  -26.0095   22.8699 H   0  0  0  0  0  0
  -19.8008  -30.7263   24.2254 H   0  0  0  0  0  0
  -17.5132  -31.6261   24.5321 H   0  0  0  0  0  0
  -15.5435  -30.3033   23.7873 H   0  0  0  0  0  0
  -15.8670  -28.0983   22.6983 H   0  0  0  0  0  0
  -24.5913  -30.7080   25.7820 H   0  0  0  0  0  0
  -24.8893  -32.2897   26.4922 H   0  0  0  0  0  0
  -25.8070  -30.8927   27.0278 H   0  0  0  0  0  0
  -26.2877  -29.6787   24.1277 H   0  0  0  0  0  0
  -27.4061  -29.7324   25.4689 H   0  0  0  0  0  0
  -27.8703  -30.4336   23.9381 H   0  0  0  0  0  0
  -27.2741  -33.3644   26.2076 H   0  0  0  0  0  0
  -28.3834  -32.6921   25.0272 H   0  0  0  0  0  0
  -28.0771  -31.8465   26.5371 H   0  0  0  0  0  0
  -28.2653  -38.0076   24.7503 H   0  0  0  0  0  0
  -28.1055  -36.2626   24.6305 H   0  0  0  0  0  0
  -27.2290  -37.1475   25.8863 H   0  0  0  0  0  0
  -20.9409  -29.8632   21.6740 H   0  0  0  0  0  0
  -26.0196  -38.2878   24.1386 H   0  0  0  0  0  0
  -27.9590  -20.5198   22.9170 H   0  0  0  0  0  0
  -29.8338  -21.4000   19.1442 H   0  0  0  0  0  0
  -26.5890  -22.0423   22.4274 H   0  0  0  0  0  0
  -26.2667  -21.7466   20.7150 H   0  0  0  0  0  0
  -26.2039  -23.3439   21.3786 H   0  0  0  0  0  0
  -31.5039  -16.7119   22.3963 H   0  0  0  0  0  0
  -31.0687  -15.1186   23.0122 H   0  0  0  0  0  0
  -29.9504  -16.4196   23.1969 H   0  0  0  0  0  0
  -29.8419  -16.6642   19.3685 H   0  0  0  0  0  0
  -28.4271  -16.5229   20.3231 H   0  0  0  0  0  0
  -29.6874  -23.7845   20.2487 H   0  0  0  0  0  0
  -28.2577  -23.6038   19.2683 H   0  0  0  0  0  0
  -28.3974  -25.2775   21.8539 H   0  0  0  0  0  0
  -26.9689  -25.0925   20.9316 H   0  0  0  0  0  0
  1 25  1  0  0  0
  1 30  2  0  0  0
  1 83  1  0  0  0
  2  3  1  0  0  0
  2 25  1  0  0  0
  2 86  1  0  0  0
  2 87  1  0  0  0
  3  4  1  0  0  0
  3 88  1  0  0  0
  3 89  1  0  0  0
  4  5  1  0  0  0
  4 90  1  0  0  0
  4 91  1  0  0  0
  5  6  1  0  0  0
  5 26  1  0  0  0
  5 92  1  0  0  0
  6 25  1  0  0  0
  6 93  1  0  0  0
  6 94  1  0  0  0
  7  8  2  0  0  0
  7 26  1  0  0  0
  7 29  1  0  0  0
  8  9  1  0  0  0
  8 22  1  0  0  0
  9 10  1  0  0  0
  9 27  2  0  0  0
 10 11  2  0  0  0
 10 15  1  0  0  0
 11 12  1  0  0  0
 11 95  1  0  0  0
 12 13  2  0  0  0
 12 96  1  0  0  0
 13 14  1  0  0  0
 13 31  1  0  0  0
 14 15  2  0  0  0
 14 97  1  0  0  0
 15 98  1  0  0  0
 16 17  2  0  0  0
 16 21  1  0  0  0
 16 31  1  0  0  0
 17 18  1  0  0  0
 17 99  1  0  0  0
 18 19  2  0  0  0
 18100  1  0  0  0
 19 20  1  0  0  0
 19 24  1  0  0  0
 20 21  2  0  0  0
 20101  1  0  0  0
 21 23  1  0  0  0
 22 28  1  0  0  0
 22 32  2  0  0  0
 26 27  1  0  0  0
 28102  1  0  0  0
 28103  1  0  0  0
 29104  1  0  0  0
 29105  1  0  0  0
 33 34  1  0  0  0
 33 66  1  0  0  0
 33 70  2  0  0  0
 34 36  1  0  0  0
 34 59  1  0  0  0
 34106  1  0  0  0
 35 44  2  0  0  0
 35 45  1  0  0  0
 35 68  1  0  0  0
 36 56  1  0  0  0
 36107  1  0  0  0
 37 39  1  0  0  0
 37 47  1  0  0  0
 37 66  1  0  0  0
 37108  1  0  0  0
 38 43  2  0  0  0
 38 46  1  0  0  0
 38 47  1  0  0  0
 39 64  1  0  0  0
 39 67  2  0  0  0
 40 52  1  0  0  0
 40 53  2  0  0  0
 40 58  1  0  0  0
 41109  1  0  0  0
 41110  1  0  0  0
 41111  1  0  0  0
 41 48  1  0  0  0
 42 43  1  0  0  0
 42 66  1  0  0  0
 42112  1  0  0  0
 42113  1  0  0  0
 43 44  1  0  0  0
 44114  1  0  0  0
 45 46  2  0  0  0
 45115  1  0  0  0
 46116  1  0  0  0
 47117  1  0  0  0
 47118  1  0  0  0
 48 56  1  0  0  0
 48 65  1  0  0  0
 48119  1  0  0  0
 49 50  1  0  0  0
 49 53  1  0  0  0
 49 64  1  0  0  0
 49120  1  0  0  0
 50 51  1  0  0  0
 50121  1  0  0  0
 50122  1  0  0  0
 51 52  1  0  0  0
 51123  1  0  0  0
 51124  1  0  0  0
 52125  1  0  0  0
 52126  1  0  0  0
 53 54  1  0  0  0
 54 55  2  0  0  0
 54127  1  0  0  0
 55 57  1  0  0  0
 55128  1  0  0  0
 56 69  2  0  0  0
 57 58  2  0  0  0
 57129  1  0  0  0
 58130  1  0  0  0
 59 60  1  0  0  0
 59 61  1  0  0  0
 59 62  1  0  0  0
 60131  1  0  0  0
 60132  1  0  0  0
 60133  1  0  0  0
 61134  1  0  0  0
 61135  1  0  0  0
 61136  1  0  0  0
 62137  1  0  0  0
 62138  1  0  0  0
 62139  1  0  0  0
 63 65  1  0  0  0
 63140  1  0  0  0
 63141  1  0  0  0
 63142  1  0  0  0
 64143  1  0  0  0
 65144  1  0  0  0
 68 81  1  0  0  0
 71 74  2  0  0  0
 71 75  1  0  0  0
 71145  1  0  0  0
 72 74  1  0  0  0
 72 76  2  0  0  0
 72146  1  0  0  0
 73 75  2  0  0  0
 73 76  1  0  0  0
 73 79  1  0  0  0
 74 82  1  0  0  0
 75 84  1  0  0  0
 76 85  1  0  0  0
 77 82  1  0  0  0
 77147  1  0  0  0
 77148  1  0  0  0
 77149  1  0  0  0
 78 83  1  0  0  0
 78150  1  0  0  0
 78151  1  0  0  0
 78152  1  0  0  0
 79 83  1  0  0  0
 79153  1  0  0  0
 79154  1  0  0  0
 80 81  1  0  0  0
 80 82  1  0  0  0
 80155  1  0  0  0
 80156  1  0  0  0
 81157  1  0  0  0
 81158  1  0  0  0
M  ISO  4   1 100  68 101  81 101  83 100
M  END
> <chiral flag>
0

> <version>
0

> <s_m_source_file>
/data/baiqing/PycharmProjects/Reinvent-master-3.2/result/LINK_invent/BTK/process_docking_weight1_custom_product_contain_oxygen_bond_distance_aromatic_linkinvent_7_9_3/rearranged_h_0017.sdf

> <i_m_source_file_index>
22

> <r_mmod_Potential_Energy-OPLS-2005>
296.846588134766

> <r_mmod_Stretch_Energy-OPLS-2005>
93.5258331298828

> <r_mmod_Bend_Energy-OPLS-2005>
171.394744873047

> <r_mmod_Torsional_Energy-OPLS-2005>
308.952239990234

> <r_mmod_Improper_Torsional_Energy-OPLS-2005>
9.17325019836426

> <r_mmod_Van_der_Waal_Energy-OPLS-2005>
157.942825317383

> <r_mmod_Electrostatic_Energy-OPLS-2005>
-276.467193603516

> <r_mmod_Solvation_Energy-OPLS-2005>
-208.216720581055

> <b_mmod_Minimization_Converged-OPLS-2005>
0

> <r_mmod_RMS_Derivative-OPLS-2005>
5.9950098991394

$$$$
23
                    3D
 Structure written by MMmdl.
161169  0  0  1  0            999 V2000
  -30.8063  -14.4409   20.6560 C   0  0  0  0  0  0
  -30.3939  -12.3157   19.4563 C   0  0  0  0  0  0
  -29.4933  -12.5400   18.2247 C   0  0  0  0  0  0
  -28.0154  -12.3705   18.6153 C   0  0  0  0  0  0
  -27.6528  -13.2080   19.8680 C   0  0  2  0  0  0
  -28.6824  -12.9983   20.9982 C   0  0  0  0  0  0
  -25.2537  -13.8155   20.5658 C   0  0  0  0  0  0
  -24.1800  -13.0431   20.9135 C   0  0  0  0  0  0
  -24.6351  -11.6898   20.8676 C   0  0  0  0  0  0
  -23.9036  -10.4290   21.0364 C   0  0  0  0  0  0
  -24.3592   -9.4234   21.9160 C   0  0  0  0  0  0
  -23.6271   -8.2277   22.0762 C   0  0  0  0  0  0
  -22.4257   -8.0298   21.3546 C   0  0  0  0  0  0
  -21.9875   -9.0265   20.4650 C   0  0  0  0  0  0
  -22.7198  -10.2139   20.3039 C   0  0  0  0  0  0
  -21.6846   -6.0739   22.5280 C   0  0  0  0  0  0
  -21.4028   -6.5644   23.8216 C   0  0  0  0  0  0
  -21.3672   -5.6792   24.9171 C   0  0  0  0  0  0
  -21.6052   -4.3057   24.7216 C   0  0  0  0  0  0
  -21.8813   -3.8150   23.4334 C   0  0  0  0  0  0
  -21.9194   -4.6970   22.3396 C   0  0  0  0  0  0
  -22.7838  -13.5260   21.1830 C   0  0  0  0  0  0
  -22.1656   -4.2157   21.0972 F   0  0  0  0  0  0
  -21.5629   -3.4545   25.7730 F   0  0  0  0  0  0
  -30.0290  -13.3198   20.4819 N   0  0  0  0  0  0
  -26.2947  -12.9320   20.3270 N   0  0  0  0  0  0
  -25.9268  -11.6474   20.5675 N   0  0  0  0  0  0
  -22.0473  -12.8271   22.0393 N   0  0  0  0  0  0
  -25.4241  -15.1880   20.4165 N   0  0  0  0  0  0
  -31.8838  -14.5311   20.0528 O   0  0  0  0  0  0
  -21.6637   -6.8881   21.4240 O   0  0  0  0  0  0
  -22.3546  -14.5583   20.6694 O   0  0  0  0  0  0
  -24.6126  -31.8701   23.2104 C   0  0  0  0  0  0
  -25.9051  -32.4813   23.8400 C   0  0  1  0  0  0
  -27.2510  -27.4492   20.0950 C   0  0  0  0  0  0
  -25.5966  -33.8616   24.2346 N   0  0  0  0  0  0
  -23.3981  -30.4900   21.5485 C   0  0  2  0  0  0
  -24.8493  -28.9559   20.1187 C   0  0  0  0  0  0
  -22.7391  -29.4638   22.4989 C   0  0  0  0  0  0
  -18.0254  -28.1399   22.8496 C   0  0  0  0  0  0
  -24.1485  -36.7215   23.2643 C   0  0  0  0  0  0
  -25.9275  -30.8410   21.3604 C   0  0  0  0  0  0
  -26.0074  -29.4754   20.7070 C   0  0  0  0  0  0
  -27.2061  -28.7321   20.6879 C   0  0  0  0  0  0
  -26.0669  -26.9324   19.5180 C   0  0  0  0  0  0
  -24.8731  -27.6830   19.5241 C   0  0  0  0  0  0
  -23.6091  -29.8191   20.1631 C   0  0  0  0  0  0
  -25.4132  -36.3090   24.0339 C   0  0  1  0  0  0
  -20.5842  -28.3640   23.1346 C   0  0  2  0  0  0
  -20.6739  -26.9386   22.5414 C   0  0  0  0  0  0
  -19.5737  -26.6398   21.5204 C   0  0  0  0  0  0
  -18.1915  -26.7954   22.1614 C   0  0  0  0  0  0
  -19.1503  -28.8839   23.2909 C   0  0  0  0  0  0
  -18.9453  -30.1460   23.8895 C   0  0  0  0  0  0
  -17.6464  -30.6609   24.0580 C   0  0  0  0  0  0
  -25.9088  -34.9466   23.5126 C   0  0  0  0  0  0
  -16.5342  -29.9141   23.6332 C   0  0  0  0  0  0
  -16.7239  -28.6550   23.0345 C   0  0  0  0  0  0
  -26.4499  -31.6559   25.0715 C   0  0  0  0  0  0
  -25.3781  -31.3609   26.1463 C   0  0  0  0  0  0
  -27.0306  -30.3018   24.6058 C   0  0  0  0  0  0
  -27.6088  -32.4228   25.7512 C   0  0  0  0  0  0
  -27.5579  -37.1772   24.8505 C   0  0  0  0  0  0
  -21.4117  -29.2995   22.3747 N   0  0  0  0  0  0
  -26.4307  -37.3791   23.9435 N   0  0  0  0  0  0
  -24.6629  -31.0854   22.0965 N   0  0  0  0  0  0
  -23.4166  -28.8173   23.3023 O   0  0  0  0  0  0
  -28.4706  -26.7992   20.0946 O   0  0  0  0  0  0
  -26.5622  -34.8928   22.4668 O   0  0  0  0  0  0
  -23.5319  -32.1398   23.7535 O   0  0  0  0  0  0
  -30.3551  -18.7805   22.6159 C   0  0  0  0  0  0
  -29.9595  -18.8911   20.2265 C   0  0  0  0  0  0
  -29.8311  -20.0814   22.7618 C   0  0  0  0  0  0
  -29.4581  -20.2037   20.3721 C   0  0  0  0  0  0
  -30.4165  -18.1624   21.3494 C   0  0  0  0  0  0
  -29.3796  -20.8229   21.6444 C   0  0  0  0  0  0
  -27.8668  -22.2685   22.8739 C   0  0  0  0  0  0
  -29.6876  -15.4497   22.6520 C   0  0  0  0  0  0
  -31.1228  -16.8134   21.1668 C   0  0  0  0  0  0
  -28.6103  -24.5288   21.0262 C   0  0  0  0  0  0
  -28.8306  -23.0368   20.6670 C   0  0  0  0  0  0
  -28.5950  -25.4140   19.7657 C   0  0  0  0  0  0
  -28.8804  -22.1354   21.8249 N   0  0  0  0  0  0
  -30.3634  -15.5365   21.3509 N   0  0  0  0  0  0
  -31.4424  -12.3557   19.1590 H   0  0  0  0  0  0
  -30.2572  -11.3061   19.8494 H   0  0  0  0  0  0
  -29.7605  -11.8459   17.4269 H   0  0  0  0  0  0
  -29.6513  -13.5433   17.8228 H   0  0  0  0  0  0
  -27.8399  -11.3109   18.8084 H   0  0  0  0  0  0
  -27.3697  -12.6390   17.7778 H   0  0  0  0  0  0
  -27.6930  -14.2565   19.5726 H   0  0  0  0  0  0
  -28.6581  -11.9598   21.3338 H   0  0  0  0  0  0
  -28.3640  -13.5543   21.8690 H   0  0  0  0  0  0
  -25.2735   -9.5730   22.4723 H   0  0  0  0  0  0
  -23.9989   -7.4674   22.7481 H   0  0  0  0  0  0
  -21.0814   -8.8765   19.8956 H   0  0  0  0  0  0
  -22.3637  -10.9672   19.6147 H   0  0  0  0  0  0
  -21.2030   -7.6150   23.9720 H   0  0  0  0  0  0
  -21.1500   -6.0519   25.9072 H   0  0  0  0  0  0
  -22.0579   -2.7617   23.2825 H   0  0  0  0  0  0
  -22.4045  -11.9916   22.4769 H   0  0  0  0  0  0
  -21.1107  -13.1343   22.2595 H   0  0  0  0  0  0
  -24.6580  -15.8404   20.5457 H   0  0  0  0  0  0
  -26.2936  -15.6425   20.1644 H   0  0  0  0  0  0
  -26.7126  -32.5500   23.1163 H   0  0  0  0  0  0
  -25.0205  -33.9799   25.0558 H   0  0  0  0  0  0
  -22.6835  -31.3017   21.4047 H   0  0  0  0  0  0
  -23.3809  -35.9486   23.3377 H   0  0  0  0  0  0
  -24.3574  -36.8749   22.2045 H   0  0  0  0  0  0
  -23.7186  -37.6419   23.6595 H   0  0  0  0  0  0
  -26.0608  -31.6109   20.5985 H   0  0  0  0  0  0
  -26.8091  -30.8833   21.9857 H   0  0  0  0  0  0
  -28.1011  -29.1419   21.1325 H   0  0  0  0  0  0
  -26.0271  -25.9608   19.0518 H   0  0  0  0  0  0
  -23.9777  -27.2737   19.0767 H   0  0  0  0  0  0
  -23.7156  -30.5876   19.3975 H   0  0  0  0  0  0
  -22.7354  -29.2365   19.8651 H   0  0  0  0  0  0
  -25.1324  -36.1941   25.0833 H   0  0  0  0  0  0
  -20.9929  -28.3199   24.1469 H   0  0  0  0  0  0
  -20.5683  -26.2223   23.3574 H   0  0  0  0  0  0
  -21.6618  -26.7467   22.1208 H   0  0  0  0  0  0
  -19.6907  -25.6327   21.1213 H   0  0  0  0  0  0
  -19.6721  -27.3236   20.6760 H   0  0  0  0  0  0
  -17.4182  -26.6664   21.4016 H   0  0  0  0  0  0
  -18.0325  -26.0094   22.9013 H   0  0  0  0  0  0
  -19.7923  -30.7272   24.2255 H   0  0  0  0  0  0
  -17.5030  -31.6302   24.5183 H   0  0  0  0  0  0
  -15.5356  -30.3077   23.7672 H   0  0  0  0  0  0
  -15.8599  -28.0912   22.7064 H   0  0  0  0  0  0
  -24.5991  -30.6939   25.7787 H   0  0  0  0  0  0
  -24.8931  -32.2713   26.4962 H   0  0  0  0  0  0
  -25.8175  -30.8730   27.0170 H   0  0  0  0  0  0
  -26.2792  -29.6810   24.1166 H   0  0  0  0  0  0
  -27.4159  -29.7247   25.4476 H   0  0  0  0  0  0
  -27.8631  -30.4378   23.9156 H   0  0  0  0  0  0
  -27.2763  -33.3526   26.2145 H   0  0  0  0  0  0
  -28.3935  -32.6789   25.0379 H   0  0  0  0  0  0
  -28.0734  -31.8285   26.5410 H   0  0  0  0  0  0
  -28.2662  -38.0017   24.7568 H   0  0  0  0  0  0
  -28.1012  -36.2560   24.6325 H   0  0  0  0  0  0
  -27.2279  -37.1422   25.8907 H   0  0  0  0  0  0
  -20.9265  -29.8620   21.6898 H   0  0  0  0  0  0
  -26.0186  -38.2857   24.1474 H   0  0  0  0  0  0
  -30.7436  -18.2769   23.4888 H   0  0  0  0  0  0
  -30.0321  -18.4728   19.2321 H   0  0  0  0  0  0
  -29.8052  -20.5196   23.7487 H   0  0  0  0  0  0
  -29.1396  -20.7236   19.4822 H   0  0  0  0  0  0
  -27.4389  -21.3103   23.1725 H   0  0  0  0  0  0
  -27.0316  -22.8851   22.5437 H   0  0  0  0  0  0
  -28.2963  -22.7425   23.7559 H   0  0  0  0  0  0
  -29.8628  -14.4913   23.1442 H   0  0  0  0  0  0
  -28.6157  -15.6159   22.5369 H   0  0  0  0  0  0
  -30.0415  -16.1980   23.3540 H   0  0  0  0  0  0
  -31.9780  -16.7963   21.8453 H   0  0  0  0  0  0
  -31.5529  -16.8680   20.1636 H   0  0  0  0  0  0
  -29.4025  -24.8670   21.6973 H   0  0  0  0  0  0
  -27.6734  -24.6751   21.5629 H   0  0  0  0  0  0
  -29.7715  -22.9527   20.1178 H   0  0  0  0  0  0
  -28.0473  -22.7043   19.9844 H   0  0  0  0  0  0
  -27.8687  -25.0565   19.0387 H   0  0  0  0  0  0
  -29.5583  -25.3080   19.2670 H   0  0  0  0  0  0
  1 25  1  0  0  0
  1 30  2  0  0  0
  1 84  1  0  0  0
  2  3  1  0  0  0
  2 25  1  0  0  0
  2 85  1  0  0  0
  2 86  1  0  0  0
  3  4  1  0  0  0
  3 87  1  0  0  0
  3 88  1  0  0  0
  4  5  1  0  0  0
  4 89  1  0  0  0
  4 90  1  0  0  0
  5  6  1  0  0  0
  5 26  1  0  0  0
  5 91  1  0  0  0
  6 25  1  0  0  0
  6 92  1  0  0  0
  6 93  1  0  0  0
  7  8  2  0  0  0
  7 26  1  0  0  0
  7 29  1  0  0  0
  8  9  1  0  0  0
  8 22  1  0  0  0
  9 10  1  0  0  0
  9 27  2  0  0  0
 10 11  2  0  0  0
 10 15  1  0  0  0
 11 12  1  0  0  0
 11 94  1  0  0  0
 12 13  2  0  0  0
 12 95  1  0  0  0
 13 14  1  0  0  0
 13 31  1  0  0  0
 14 15  2  0  0  0
 14 96  1  0  0  0
 15 97  1  0  0  0
 16 17  2  0  0  0
 16 21  1  0  0  0
 16 31  1  0  0  0
 17 18  1  0  0  0
 17 98  1  0  0  0
 18 19  2  0  0  0
 18 99  1  0  0  0
 19 20  1  0  0  0
 19 24  1  0  0  0
 20 21  2  0  0  0
 20100  1  0  0  0
 21 23  1  0  0  0
 22 28  1  0  0  0
 22 32  2  0  0  0
 26 27  1  0  0  0
 28101  1  0  0  0
 28102  1  0  0  0
 29103  1  0  0  0
 29104  1  0  0  0
 33 34  1  0  0  0
 33 66  1  0  0  0
 33 70  2  0  0  0
 34 36  1  0  0  0
 34 59  1  0  0  0
 34105  1  0  0  0
 35 44  2  0  0  0
 35 45  1  0  0  0
 35 68  1  0  0  0
 36 56  1  0  0  0
 36106  1  0  0  0
 37 39  1  0  0  0
 37 47  1  0  0  0
 37 66  1  0  0  0
 37107  1  0  0  0
 38 43  2  0  0  0
 38 46  1  0  0  0
 38 47  1  0  0  0
 39 64  1  0  0  0
 39 67  2  0  0  0
 40 52  1  0  0  0
 40 53  2  0  0  0
 40 58  1  0  0  0
 41108  1  0  0  0
 41109  1  0  0  0
 41110  1  0  0  0
 41 48  1  0  0  0
 42 43  1  0  0  0
 42 66  1  0  0  0
 42111  1  0  0  0
 42112  1  0  0  0
 43 44  1  0  0  0
 44113  1  0  0  0
 45 46  2  0  0  0
 45114  1  0  0  0
 46115  1  0  0  0
 47116  1  0  0  0
 47117  1  0  0  0
 48 56  1  0  0  0
 48 65  1  0  0  0
 48118  1  0  0  0
 49 50  1  0  0  0
 49 53  1  0  0  0
 49 64  1  0  0  0
 49119  1  0  0  0
 50 51  1  0  0  0
 50120  1  0  0  0
 50121  1  0  0  0
 51 52  1  0  0  0
 51122  1  0  0  0
 51123  1  0  0  0
 52124  1  0  0  0
 52125  1  0  0  0
 53 54  1  0  0  0
 54 55  2  0  0  0
 54126  1  0  0  0
 55 57  1  0  0  0
 55127  1  0  0  0
 56 69  2  0  0  0
 57 58  2  0  0  0
 57128  1  0  0  0
 58129  1  0  0  0
 59 60  1  0  0  0
 59 61  1  0  0  0
 59 62  1  0  0  0
 60130  1  0  0  0
 60131  1  0  0  0
 60132  1  0  0  0
 61133  1  0  0  0
 61134  1  0  0  0
 61135  1  0  0  0
 62136  1  0  0  0
 62137  1  0  0  0
 62138  1  0  0  0
 63 65  1  0  0  0
 63139  1  0  0  0
 63140  1  0  0  0
 63141  1  0  0  0
 64142  1  0  0  0
 65143  1  0  0  0
 68 82  1  0  0  0
 71 73  2  0  0  0
 71 75  1  0  0  0
 71144  1  0  0  0
 72 74  1  0  0  0
 72 75  2  0  0  0
 72145  1  0  0  0
 73 76  1  0  0  0
 73146  1  0  0  0
 74 76  2  0  0  0
 74147  1  0  0  0
 75 79  1  0  0  0
 76 83  1  0  0  0
 77 83  1  0  0  0
 77148  1  0  0  0
 77149  1  0  0  0
 77150  1  0  0  0
 78 84  1  0  0  0
 78151  1  0  0  0
 78152  1  0  0  0
 78153  1  0  0  0
 79 84  1  0  0  0
 79154  1  0  0  0
 79155  1  0  0  0
 80 81  1  0  0  0
 80 82  1  0  0  0
 80156  1  0  0  0
 80157  1  0  0  0
 81 83  1  0  0  0
 81158  1  0  0  0
 81159  1  0  0  0
 82160  1  0  0  0
 82161  1  0  0  0
M  ISO  4   1 100  68 101  82 101  84 100
M  END
> <chiral flag>
0

> <version>
0

> <s_m_source_file>
/data/baiqing/PycharmProjects/Reinvent-master-3.2/result/LINK_invent/BTK/process_docking_weight1_custom_product_contain_oxygen_bond_distance_aromatic_linkinvent_7_9_3/rearranged_h_0017.sdf

> <i_m_source_file_index>
23

> <r_mmod_Potential_Energy-OPLS-2005>
100.385414123535

> <r_mmod_Stretch_Energy-OPLS-2005>
46.212100982666

> <r_mmod_Bend_Energy-OPLS-2005>
142.126251220703

> <r_mmod_Torsional_Energy-OPLS-2005>
238.704498291016

> <r_mmod_Improper_Torsional_Energy-OPLS-2005>
7.92415904998779

> <r_mmod_Van_der_Waal_Energy-OPLS-2005>
180.791030883789

> <r_mmod_Electrostatic_Energy-OPLS-2005>
-317.921661376953

> <r_mmod_Solvation_Energy-OPLS-2005>
-212.284820556641

> <b_mmod_Minimization_Converged-OPLS-2005>
0

> <r_mmod_RMS_Derivative-OPLS-2005>
4.60344171524048

$$$$
24
                    3D
 Structure written by MMmdl.
164172  0  0  1  0            999 V2000
  -30.6896  -14.5087   20.4553 C   0  0  0  0  0  0
  -30.4105  -12.3045   19.4176 C   0  0  0  0  0  0
  -29.4809  -12.4729   18.1991 C   0  0  0  0  0  0
  -28.0053  -12.3411   18.6234 C   0  0  0  0  0  0
  -27.6493  -13.1998   19.8695 C   0  0  2  0  0  0
  -28.7027  -13.0434   20.9862 C   0  0  0  0  0  0
  -25.2548  -13.8148   20.5716 C   0  0  0  0  0  0
  -24.1795  -13.0448   20.9206 C   0  0  0  0  0  0
  -24.6347  -11.6906   20.8759 C   0  0  0  0  0  0
  -23.9028  -10.4288   21.0413 C   0  0  0  0  0  0
  -24.3600   -9.4202   21.9183 C   0  0  0  0  0  0
  -23.6286   -8.2232   22.0759 C   0  0  0  0  0  0
  -22.4266   -8.0268   21.3548 C   0  0  0  0  0  0
  -21.9894   -9.0234   20.4643 C   0  0  0  0  0  0
  -22.7212  -10.2117   20.3050 C   0  0  0  0  0  0
  -21.6851   -6.0729   22.5267 C   0  0  0  0  0  0
  -21.4008   -6.5637   23.8200 C   0  0  0  0  0  0
  -21.3651   -5.6789   24.9163 C   0  0  0  0  0  0
  -21.6057   -4.3055   24.7216 C   0  0  0  0  0  0
  -21.8816   -3.8144   23.4333 C   0  0  0  0  0  0
  -21.9191   -4.6958   22.3388 C   0  0  0  0  0  0
  -22.7816  -13.5244   21.1856 C   0  0  0  0  0  0
  -22.1657   -4.2144   21.0967 F   0  0  0  0  0  0
  -21.5637   -3.4544   25.7729 F   0  0  0  0  0  0
  -30.0165  -13.3279   20.3949 N   0  0  0  0  0  0
  -26.2959  -12.9290   20.3414 N   0  0  0  0  0  0
  -25.9271  -11.6466   20.5817 N   0  0  0  0  0  0
  -22.0458  -12.8227   22.0406 N   0  0  0  0  0  0
  -25.4323  -15.1862   20.4108 N   0  0  0  0  0  0
  -31.8954  -14.5913   20.2018 O   0  0  0  0  0  0
  -21.6643   -6.8864   21.4229 O   0  0  0  0  0  0
  -22.3496  -14.5546   20.6693 O   0  0  0  0  0  0
  -24.6150  -31.8691   23.2073 C   0  0  0  0  0  0
  -25.9046  -32.4822   23.8383 C   0  0  1  0  0  0
  -27.2324  -27.4262   20.0874 C   0  0  0  0  0  0
  -25.5902  -33.8619   24.2322 N   0  0  0  0  0  0
  -23.4032  -30.4924   21.5472 C   0  0  2  0  0  0
  -24.8466  -28.9539   20.1156 C   0  0  0  0  0  0
  -22.7403  -29.4667   22.4955 C   0  0  0  0  0  0
  -18.0267  -28.1375   22.8447 C   0  0  0  0  0  0
  -24.1488  -36.7314   23.2630 C   0  0  0  0  0  0
  -25.9327  -30.8307   21.3599 C   0  0  0  0  0  0
  -26.0066  -29.4631   20.7105 C   0  0  0  0  0  0
  -27.1992  -28.7056   20.6922 C   0  0  0  0  0  0
  -26.0452  -26.9294   19.4978 C   0  0  0  0  0  0
  -24.8597  -27.6869   19.5110 C   0  0  0  0  0  0
  -23.6128  -29.8254   20.1616 C   0  0  0  0  0  0
  -25.4110  -36.3106   24.0325 C   0  0  1  0  0  0
  -20.5855  -28.3667   23.1304 C   0  0  2  0  0  0
  -20.6749  -26.9398   22.5418 C   0  0  0  0  0  0
  -19.5770  -26.6412   21.5162 C   0  0  0  0  0  0
  -18.1930  -26.7943   22.1536 C   0  0  0  0  0  0
  -19.1508  -28.8826   23.2900 C   0  0  0  0  0  0
  -18.9429  -30.1407   23.8949 C   0  0  0  0  0  0
  -17.6428  -30.6543   24.0610 C   0  0  0  0  0  0
  -25.9036  -34.9476   23.5120 C   0  0  0  0  0  0
  -16.5321  -29.9077   23.6303 C   0  0  0  0  0  0
  -16.7252  -28.6501   23.0282 C   0  0  0  0  0  0
  -26.4485  -31.6598   25.0715 C   0  0  0  0  0  0
  -25.3757  -31.3685   26.1463 C   0  0  0  0  0  0
  -27.0300  -30.3039   24.6078 C   0  0  0  0  0  0
  -27.6068  -32.4310   25.7482 C   0  0  0  0  0  0
  -27.5577  -37.1821   24.8461 C   0  0  0  0  0  0
  -21.4130  -29.3041   22.3714 N   0  0  0  0  0  0
  -26.4293  -37.3791   23.9397 N   0  0  0  0  0  0
  -24.6689  -31.0787   22.0973 N   0  0  0  0  0  0
  -23.4190  -28.8224   23.3004 O   0  0  0  0  0  0
  -28.4265  -26.7281   20.0975 O   0  0  0  0  0  0
  -26.5604  -34.8928   22.4687 O   0  0  0  0  0  0
  -23.5346  -32.1442   23.7474 O   0  0  0  0  0  0
  -30.1121  -19.0527   21.1288 C   0  0  0  0  0  0
  -27.9255  -18.1350   21.6135 C   0  0  0  0  0  0
  -29.5613  -20.3534   21.0877 C   0  0  0  0  0  0
  -27.3764  -19.4351   21.5695 C   0  0  0  0  0  0
  -29.3024  -17.9276   21.4017 C   0  0  0  0  0  0
  -28.1817  -20.5801   21.3148 C   0  0  0  0  0  0
  -28.6396  -16.6482   18.4066 C   0  0  0  0  0  0
  -26.2902  -22.0421   21.8697 C   0  0  0  0  0  0
  -29.9166  -16.5221   21.5364 C   0  0  0  0  0  0
  -27.9804  -24.3543   20.7291 C   0  0  0  0  0  0
  -30.0043  -16.3361   19.0472 C   0  0  0  0  0  0
  -28.0729  -22.8632   20.2934 C   0  0  0  0  0  0
  -28.4849  -25.3584   19.6621 C   0  0  0  0  0  0
  -27.6442  -21.8995   21.3261 N   0  0  0  0  0  0
  -29.9209  -15.6296   20.3506 N   0  0  0  0  0  0
  -31.4540  -12.3942   19.1103 H   0  0  0  0  0  0
  -30.3080  -11.3073   19.8471 H   0  0  0  0  0  0
  -29.7187  -11.7268   17.4396 H   0  0  0  0  0  0
  -29.6461  -13.4460   17.7339 H   0  0  0  0  0  0
  -27.8205  -11.2875   18.8414 H   0  0  0  0  0  0
  -27.3491  -12.5936   17.7895 H   0  0  0  0  0  0
  -27.6674  -14.2370   19.5536 H   0  0  0  0  0  0
  -28.6878  -12.0306   21.3921 H   0  0  0  0  0  0
  -28.4854  -13.7128   21.8205 H   0  0  0  0  0  0
  -25.2759   -9.5694   22.4742 H   0  0  0  0  0  0
  -23.9996   -7.4638   22.7487 H   0  0  0  0  0  0
  -21.0828   -8.8748   19.8958 H   0  0  0  0  0  0
  -22.3675  -10.9647   19.6146 H   0  0  0  0  0  0
  -21.1992   -7.6145   23.9701 H   0  0  0  0  0  0
  -21.1483   -6.0522   25.9068 H   0  0  0  0  0  0
  -22.0607   -2.7608   23.2836 H   0  0  0  0  0  0
  -22.4101  -11.9901   22.4789 H   0  0  0  0  0  0
  -21.1064  -13.1214   22.2628 H   0  0  0  0  0  0
  -24.6694  -15.8458   20.5179 H   0  0  0  0  0  0
  -26.2934  -15.6184   20.1035 H   0  0  0  0  0  0
  -26.7123  -32.5535   23.1152 H   0  0  0  0  0  0
  -25.0064  -33.9789   25.0476 H   0  0  0  0  0  0
  -22.6909  -31.3078   21.4068 H   0  0  0  0  0  0
  -23.3736  -35.9660   23.3307 H   0  0  0  0  0  0
  -24.3570  -36.8923   22.2039 H   0  0  0  0  0  0
  -23.7260  -37.6532   23.6638 H   0  0  0  0  0  0
  -26.0422  -31.5910   20.5850 H   0  0  0  0  0  0
  -26.8230  -30.8893   21.9738 H   0  0  0  0  0  0
  -28.1005  -29.1001   21.1389 H   0  0  0  0  0  0
  -26.0081  -25.9616   19.0215 H   0  0  0  0  0  0
  -23.9655  -27.2897   19.0499 H   0  0  0  0  0  0
  -23.7362  -30.6012   19.4054 H   0  0  0  0  0  0
  -22.7365  -29.2507   19.8569 H   0  0  0  0  0  0
  -25.1281  -36.1969   25.0813 H   0  0  0  0  0  0
  -20.9946  -28.3240   24.1421 H   0  0  0  0  0  0
  -21.6638  -26.7444   22.1248 H   0  0  0  0  0  0
  -20.5558  -26.2275   23.3608 H   0  0  0  0  0  0
  -19.6928  -25.6360   21.1069 H   0  0  0  0  0  0
  -19.6734  -27.3298   20.6749 H   0  0  0  0  0  0
  -17.4239  -26.6763   21.3886 H   0  0  0  0  0  0
  -18.0310  -26.0033   22.8873 H   0  0  0  0  0  0
  -19.7888  -30.7196   24.2366 H   0  0  0  0  0  0
  -17.4985  -31.6194   24.5272 H   0  0  0  0  0  0
  -15.5324  -30.2987   23.7579 H   0  0  0  0  0  0
  -15.8653  -28.0830   22.6950 H   0  0  0  0  0  0
  -24.5928  -30.7049   25.7774 H   0  0  0  0  0  0
  -24.8959  -32.2835   26.4948 H   0  0  0  0  0  0
  -25.8110  -30.8816   27.0200 H   0  0  0  0  0  0
  -26.2820  -29.6808   24.1162 H   0  0  0  0  0  0
  -27.4102  -29.7265   25.4516 H   0  0  0  0  0  0
  -27.8651  -30.4351   23.9190 H   0  0  0  0  0  0
  -27.2694  -33.3592   26.2108 H   0  0  0  0  0  0
  -28.3860  -32.6903   25.0300 H   0  0  0  0  0  0
  -28.0769  -31.8411   26.5363 H   0  0  0  0  0  0
  -28.2598  -38.0114   24.7485 H   0  0  0  0  0  0
  -28.1073  -36.2642   24.6308 H   0  0  0  0  0  0
  -27.2296  -37.1498   25.8868 H   0  0  0  0  0  0
  -20.9301  -29.8763   21.6913 H   0  0  0  0  0  0
  -26.0180  -38.2867   24.1398 H   0  0  0  0  0  0
  -31.1751  -18.9305   20.9660 H   0  0  0  0  0  0
  -27.2800  -17.2929   21.8226 H   0  0  0  0  0  0
  -30.2351  -21.1785   20.9134 H   0  0  0  0  0  0
  -26.3131  -19.5147   21.7480 H   0  0  0  0  0  0
  -28.7748  -17.2809   17.5279 H   0  0  0  0  0  0
  -27.9686  -17.1768   19.0814 H   0  0  0  0  0  0
  -28.1368  -15.7460   18.0642 H   0  0  0  0  0  0
  -26.0315  -23.0763   22.0873 H   0  0  0  0  0  0
  -26.1846  -21.5048   22.8128 H   0  0  0  0  0  0
  -25.5539  -21.6543   21.1637 H   0  0  0  0  0  0
  -30.9421  -16.6536   21.8874 H   0  0  0  0  0  0
  -29.3970  -16.0075   22.3468 H   0  0  0  0  0  0
  -28.5528  -24.5018   21.6444 H   0  0  0  0  0  0
  -26.9508  -24.6124   20.9643 H   0  0  0  0  0  0
  -30.5872  -17.2505   19.1504 H   0  0  0  0  0  0
  -30.5621  -15.7472   18.3134 H   0  0  0  0  0  0
  -29.0939  -22.6668   19.9679 H   0  0  0  0  0  0
  -27.4576  -22.7060   19.4059 H   0  0  0  0  0  0
  -27.9858  -25.2168   18.7052 H   0  0  0  0  0  0
  -29.5340  -25.1447   19.4610 H   0  0  0  0  0  0
  1 25  1  0  0  0
  1 30  2  0  0  0
  1 85  1  0  0  0
  2  3  1  0  0  0
  2 25  1  0  0  0
  2 86  1  0  0  0
  2 87  1  0  0  0
  3  4  1  0  0  0
  3 88  1  0  0  0
  3 89  1  0  0  0
  4  5  1  0  0  0
  4 90  1  0  0  0
  4 91  1  0  0  0
  5  6  1  0  0  0
  5 26  1  0  0  0
  5 92  1  0  0  0
  6 25  1  0  0  0
  6 93  1  0  0  0
  6 94  1  0  0  0
  7  8  2  0  0  0
  7 26  1  0  0  0
  7 29  1  0  0  0
  8  9  1  0  0  0
  8 22  1  0  0  0
  9 10  1  0  0  0
  9 27  2  0  0  0
 10 11  2  0  0  0
 10 15  1  0  0  0
 11 12  1  0  0  0
 11 95  1  0  0  0
 12 13  2  0  0  0
 12 96  1  0  0  0
 13 14  1  0  0  0
 13 31  1  0  0  0
 14 15  2  0  0  0
 14 97  1  0  0  0
 15 98  1  0  0  0
 16 17  2  0  0  0
 16 21  1  0  0  0
 16 31  1  0  0  0
 17 18  1  0  0  0
 17 99  1  0  0  0
 18 19  2  0  0  0
 18100  1  0  0  0
 19 20  1  0  0  0
 19 24  1  0  0  0
 20 21  2  0  0  0
 20101  1  0  0  0
 21 23  1  0  0  0
 22 28  1  0  0  0
 22 32  2  0  0  0
 26 27  1  0  0  0
 28102  1  0  0  0
 28103  1  0  0  0
 29104  1  0  0  0
 29105  1  0  0  0
 33 34  1  0  0  0
 33 66  1  0  0  0
 33 70  2  0  0  0
 34 36  1  0  0  0
 34 59  1  0  0  0
 34106  1  0  0  0
 35 44  2  0  0  0
 35 45  1  0  0  0
 35 68  1  0  0  0
 36 56  1  0  0  0
 36107  1  0  0  0
 37 39  1  0  0  0
 37 47  1  0  0  0
 37 66  1  0  0  0
 37108  1  0  0  0
 38 43  2  0  0  0
 38 46  1  0  0  0
 38 47  1  0  0  0
 39 64  1  0  0  0
 39 67  2  0  0  0
 40 52  1  0  0  0
 40 53  2  0  0  0
 40 58  1  0  0  0
 41109  1  0  0  0
 41110  1  0  0  0
 41111  1  0  0  0
 41 48  1  0  0  0
 42 43  1  0  0  0
 42 66  1  0  0  0
 42112  1  0  0  0
 42113  1  0  0  0
 43 44  1  0  0  0
 44114  1  0  0  0
 45 46  2  0  0  0
 45115  1  0  0  0
 46116  1  0  0  0
 47117  1  0  0  0
 47118  1  0  0  0
 48 56  1  0  0  0
 48 65  1  0  0  0
 48119  1  0  0  0
 49 50  1  0  0  0
 49 53  1  0  0  0
 49 64  1  0  0  0
 49120  1  0  0  0
 50 51  1  0  0  0
 50121  1  0  0  0
 50122  1  0  0  0
 51 52  1  0  0  0
 51123  1  0  0  0
 51124  1  0  0  0
 52125  1  0  0  0
 52126  1  0  0  0
 53 54  1  0  0  0
 54 55  2  0  0  0
 54127  1  0  0  0
 55 57  1  0  0  0
 55128  1  0  0  0
 56 69  2  0  0  0
 57 58  2  0  0  0
 57129  1  0  0  0
 58130  1  0  0  0
 59 60  1  0  0  0
 59 61  1  0  0  0
 59 62  1  0  0  0
 60131  1  0  0  0
 60132  1  0  0  0
 60133  1  0  0  0
 61134  1  0  0  0
 61135  1  0  0  0
 61136  1  0  0  0
 62137  1  0  0  0
 62138  1  0  0  0
 62139  1  0  0  0
 63 65  1  0  0  0
 63140  1  0  0  0
 63141  1  0  0  0
 63142  1  0  0  0
 64143  1  0  0  0
 65144  1  0  0  0
 68 83  1  0  0  0
 71 73  2  0  0  0
 71 75  1  0  0  0
 71145  1  0  0  0
 72 74  1  0  0  0
 72 75  2  0  0  0
 72146  1  0  0  0
 73 76  1  0  0  0
 73147  1  0  0  0
 74 76  2  0  0  0
 74148  1  0  0  0
 75 79  1  0  0  0
 76 84  1  0  0  0
 77 81  1  0  0  0
 77149  1  0  0  0
 77150  1  0  0  0
 77151  1  0  0  0
 78 84  1  0  0  0
 78152  1  0  0  0
 78153  1  0  0  0
 78154  1  0  0  0
 79 85  1  0  0  0
 79155  1  0  0  0
 79156  1  0  0  0
 80 82  1  0  0  0
 80 83  1  0  0  0
 80157  1  0  0  0
 80158  1  0  0  0
 81 85  1  0  0  0
 81159  1  0  0  0
 81160  1  0  0  0
 82 84  1  0  0  0
 82161  1  0  0  0
 82162  1  0  0  0
 83163  1  0  0  0
 83164  1  0  0  0
M  ISO  4   1 100  68 101  83 101  85 100
M  END
> <chiral flag>
0

> <version>
0

> <s_m_source_file>
/data/baiqing/PycharmProjects/Reinvent-master-3.2/result/LINK_invent/BTK/process_docking_weight1_custom_product_contain_oxygen_bond_distance_aromatic_linkinvent_7_9_3/rearranged_h_0017.sdf

> <i_m_source_file_index>
24

> <r_mmod_Potential_Energy-OPLS-2005>
143.687255859375

> <r_mmod_Stretch_Energy-OPLS-2005>
45.2588195800781

> <r_mmod_Bend_Energy-OPLS-2005>
121.40062713623

> <r_mmod_Torsional_Energy-OPLS-2005>
278.954498291016

> <r_mmod_Improper_Torsional_Energy-OPLS-2005>
19.0779037475586

> <r_mmod_Van_der_Waal_Energy-OPLS-2005>
158.236679077148

> <r_mmod_Electrostatic_Energy-OPLS-2005>
-296.239227294922

> <r_mmod_Solvation_Energy-OPLS-2005>
-206.606246948242

> <b_mmod_Minimization_Converged-OPLS-2005>
0

> <r_mmod_RMS_Derivative-OPLS-2005>
2.85075187683105

$$$$
25
                    3D
 Structure written by MMmdl.
155163  0  0  1  0            999 V2000
  -30.6283  -14.6324   20.4788 C   0  0  0  0  0  0
  -30.4311  -12.3864   19.4384 C   0  0  0  0  0  0
  -29.5057  -12.5312   18.2119 C   0  0  0  0  0  0
  -28.0266  -12.3677   18.6169 C   0  0  0  0  0  0
  -27.6535  -13.2198   19.8587 C   0  0  2  0  0  0
  -28.6995  -13.0701   20.9860 C   0  0  0  0  0  0
  -25.2586  -13.8186   20.5640 C   0  0  0  0  0  0
  -24.1850  -13.0445   20.9154 C   0  0  0  0  0  0
  -24.6415  -11.6910   20.8695 C   0  0  0  0  0  0
  -23.9079  -10.4290   21.0370 C   0  0  0  0  0  0
  -24.3649   -9.4202   21.9150 C   0  0  0  0  0  0
  -23.6320   -8.2243   22.0743 C   0  0  0  0  0  0
  -22.4299   -8.0269   21.3538 C   0  0  0  0  0  0
  -21.9915   -9.0248   20.4635 C   0  0  0  0  0  0
  -22.7254  -10.2116   20.3025 C   0  0  0  0  0  0
  -21.6857   -6.0720   22.5274 C   0  0  0  0  0  0
  -21.4019   -6.5624   23.8210 C   0  0  0  0  0  0
  -21.3665   -5.6786   24.9171 C   0  0  0  0  0  0
  -21.6055   -4.3052   24.7231 C   0  0  0  0  0  0
  -21.8819   -3.8133   23.4352 C   0  0  0  0  0  0
  -21.9205   -4.6942   22.3400 C   0  0  0  0  0  0
  -22.7875  -13.5212   21.1808 C   0  0  0  0  0  0
  -22.1659   -4.2123   21.0978 F   0  0  0  0  0  0
  -21.5638   -3.4539   25.7741 F   0  0  0  0  0  0
  -30.0176  -13.4073   20.4241 N   0  0  0  0  0  0
  -26.3009  -12.9362   20.3286 N   0  0  0  0  0  0
  -25.9351  -11.6511   20.5726 N   0  0  0  0  0  0
  -22.0528  -12.8215   22.0384 N   0  0  0  0  0  0
  -25.4322  -15.1913   20.4048 N   0  0  0  0  0  0
  -31.7964  -14.7729   20.1125 O   0  0  0  0  0  0
  -21.6658   -6.8867   21.4242 O   0  0  0  0  0  0
  -22.3530  -14.5502   20.6637 O   0  0  0  0  0  0
  -24.6239  -31.8629   23.2037 C   0  0  0  0  0  0
  -25.9096  -32.4789   23.8370 C   0  0  1  0  0  0
  -27.2308  -27.3375   20.1139 C   0  0  0  0  0  0
  -25.5910  -33.8583   24.2291 N   0  0  0  0  0  0
  -23.4179  -30.4849   21.5488 C   0  0  2  0  0  0
  -24.8655  -28.9488   20.1082 C   0  0  0  0  0  0
  -22.7470  -29.4634   22.4983 C   0  0  0  0  0  0
  -18.0279  -28.1390   22.8476 C   0  0  0  0  0  0
  -24.1486  -36.7308   23.2639 C   0  0  0  0  0  0
  -25.9586  -30.7995   21.3748 C   0  0  0  0  0  0
  -26.0345  -29.4308   20.7117 C   0  0  0  0  0  0
  -27.2210  -28.6395   20.7010 C   0  0  0  0  0  0
  -26.0374  -26.9098   19.4847 C   0  0  0  0  0  0
  -24.8710  -27.6946   19.4804 C   0  0  0  0  0  0
  -23.6282  -29.8214   20.1635 C   0  0  0  0  0  0
  -25.4113  -36.3100   24.0335 C   0  0  1  0  0  0
  -20.5868  -28.3679   23.1299 C   0  0  2  0  0  0
  -20.6770  -26.9410   22.5416 C   0  0  0  0  0  0
  -19.5758  -26.6385   21.5209 C   0  0  0  0  0  0
  -18.1931  -26.7933   22.1613 C   0  0  0  0  0  0
  -19.1524  -28.8861   23.2873 C   0  0  0  0  0  0
  -18.9451  -30.1468   23.8887 C   0  0  0  0  0  0
  -17.6448  -30.6590   24.0563 C   0  0  0  0  0  0
  -25.9047  -34.9460   23.5113 C   0  0  0  0  0  0
  -16.5336  -29.9080   23.6330 C   0  0  0  0  0  0
  -16.7268  -28.6498   23.0342 C   0  0  0  0  0  0
  -26.4472  -31.6593   25.0746 C   0  0  0  0  0  0
  -25.3684  -31.3723   26.1455 C   0  0  0  0  0  0
  -27.0326  -30.3020   24.6220 C   0  0  0  0  0  0
  -27.6046  -32.4319   25.7502 C   0  0  0  0  0  0
  -27.5584  -37.1801   24.8454 C   0  0  0  0  0  0
  -21.4186  -29.3029   22.3702 N   0  0  0  0  0  0
  -26.4297  -37.3787   23.9399 N   0  0  0  0  0  0
  -24.6851  -31.0645   22.0991 N   0  0  0  0  0  0
  -23.4193  -28.8181   23.3074 O   0  0  0  0  0  0
  -28.3496  -26.4908   20.1695 O   0  0  0  0  0  0
  -26.5627  -34.8925   22.4688 O   0  0  0  0  0  0
  -23.5405  -32.1434   23.7364 O   0  0  0  0  0  0
  -28.9939  -19.4130   21.1185 C   0  0  0  0  0  0
  -29.0631  -18.0022   21.3497 C   0  0  0  0  0  0
  -30.6136  -19.1702   19.3730 C   0  0  0  0  0  0
  -29.7557  -20.0460   20.1015 C   0  0  0  0  0  0
  -29.9002  -17.1310   20.5953 C   0  0  0  0  0  0
  -30.6810  -17.7627   19.5890 C   0  0  0  0  0  0
  -29.8426  -21.7343   18.3447 C   0  0  0  0  0  0
  -29.2595  -23.9933   20.3837 C   0  0  0  0  0  0
  -28.8260  -22.4566   20.4922 C   0  0  0  0  0  0
  -28.1003  -25.0356   20.0974 C   0  0  0  0  0  0
  -29.8299  -15.6859   20.8410 N   0  0  0  0  0  0
  -29.6733  -21.4547   19.7748 N   0  0  0  0  0  0
  -31.4852  -17.0374   18.7770 F   0  0  0  0  0  0
  -31.4729  -12.5023   19.1357 H   0  0  0  0  0  0
  -30.3482  -11.3842   19.8603 H   0  0  0  0  0  0
  -29.7716  -11.8079   17.4416 H   0  0  0  0  0  0
  -29.6538  -13.5167   17.7654 H   0  0  0  0  0  0
  -27.8511  -11.3115   18.8201 H   0  0  0  0  0  0
  -27.3790  -12.6295   17.7789 H   0  0  0  0  0  0
  -27.6691  -14.2575   19.5296 H   0  0  0  0  0  0
  -28.7081  -12.0477   21.3662 H   0  0  0  0  0  0
  -28.4488  -13.7074   21.8354 H   0  0  0  0  0  0
  -25.2794   -9.5683   22.4727 H   0  0  0  0  0  0
  -24.0021   -7.4632   22.7460 H   0  0  0  0  0  0
  -21.0836   -8.8774   19.8950 H   0  0  0  0  0  0
  -22.3712  -10.9661   19.6128 H   0  0  0  0  0  0
  -21.2012   -7.6131   23.9706 H   0  0  0  0  0  0
  -21.1487   -6.0510   25.9076 H   0  0  0  0  0  0
  -22.0606   -2.7589   23.2870 H   0  0  0  0  0  0
  -22.4160  -11.9903   22.4817 H   0  0  0  0  0  0
  -21.1137  -13.1216   22.2540 H   0  0  0  0  0  0
  -24.6710  -15.8558   20.5049 H   0  0  0  0  0  0
  -26.2887  -15.6263   20.0868 H   0  0  0  0  0  0
  -26.7177  -32.5472   23.1129 H   0  0  0  0  0  0
  -25.0009  -33.9713   25.0399 H   0  0  0  0  0  0
  -22.7103  -31.3052   21.4100 H   0  0  0  0  0  0
  -23.3758  -35.9630   23.3292 H   0  0  0  0  0  0
  -24.3591  -36.8939   22.2061 H   0  0  0  0  0  0
  -23.7221  -37.6496   23.6669 H   0  0  0  0  0  0
  -26.0940  -31.5715   20.6156 H   0  0  0  0  0  0
  -26.8355  -30.8398   22.0088 H   0  0  0  0  0  0
  -28.1178  -29.0094   21.1768 H   0  0  0  0  0  0
  -25.9747  -25.9546   18.9872 H   0  0  0  0  0  0
  -23.9830  -27.3185   18.9914 H   0  0  0  0  0  0
  -23.7307  -30.6003   19.4077 H   0  0  0  0  0  0
  -22.7499  -29.2421   19.8692 H   0  0  0  0  0  0
  -25.1287  -36.1965   25.0830 H   0  0  0  0  0  0
  -20.9955  -28.3260   24.1420 H   0  0  0  0  0  0
  -20.5680  -26.2287   23.3612 H   0  0  0  0  0  0
  -21.6637  -26.7460   22.1197 H   0  0  0  0  0  0
  -19.6915  -25.6297   21.1242 H   0  0  0  0  0  0
  -19.6706  -27.3187   20.6742 H   0  0  0  0  0  0
  -17.4203  -26.6682   21.4014 H   0  0  0  0  0  0
  -18.0333  -26.0080   22.9016 H   0  0  0  0  0  0
  -19.7926  -30.7285   24.2245 H   0  0  0  0  0  0
  -17.4998  -31.6265   24.5166 H   0  0  0  0  0  0
  -15.5334  -30.2968   23.7674 H   0  0  0  0  0  0
  -15.8668  -28.0819   22.7056 H   0  0  0  0  0  0
  -24.5858  -30.7092   25.7746 H   0  0  0  0  0  0
  -24.8870  -32.2881   26.4902 H   0  0  0  0  0  0
  -25.7976  -30.8859   27.0225 H   0  0  0  0  0  0
  -26.2924  -29.6767   24.1225 H   0  0  0  0  0  0
  -27.3988  -29.7288   25.4746 H   0  0  0  0  0  0
  -27.8800  -30.4306   23.9485 H   0  0  0  0  0  0
  -27.2686  -33.3620   26.2104 H   0  0  0  0  0  0
  -28.3838  -32.6881   25.0302 H   0  0  0  0  0  0
  -28.0752  -31.8432   26.5389 H   0  0  0  0  0  0
  -28.2583  -38.0116   24.7530 H   0  0  0  0  0  0
  -28.1102  -36.2649   24.6244 H   0  0  0  0  0  0
  -27.2312  -37.1403   25.8858 H   0  0  0  0  0  0
  -20.9376  -29.8733   21.6883 H   0  0  0  0  0  0
  -26.0194  -38.2867   24.1397 H   0  0  0  0  0  0
  -28.3158  -19.9939   21.7297 H   0  0  0  0  0  0
  -28.4383  -17.5846   22.1269 H   0  0  0  0  0  0
  -31.2446  -19.5680   18.5932 H   0  0  0  0  0  0
  -30.8873  -21.9463   18.1094 H   0  0  0  0  0  0
  -29.2546  -22.6007   18.0340 H   0  0  0  0  0  0
  -29.5070  -20.9083   17.7132 H   0  0  0  0  0  0
  -30.0298  -24.1201   19.6229 H   0  0  0  0  0  0
  -29.7540  -24.2719   21.3160 H   0  0  0  0  0  0
  -27.8059  -22.3549   20.1191 H   0  0  0  0  0  0
  -28.7717  -22.1925   21.5480 H   0  0  0  0  0  0
  -27.2768  -24.7976   20.7746 H   0  0  0  0  0  0
  -27.7518  -24.8033   19.0903 H   0  0  0  0  0  0
  -28.9630  -15.3833   21.2575 H   0  0  0  0  0  0
  1 25  1  0  0  0
  1 30  2  0  0  0
  1 81  1  0  0  0
  2  3  1  0  0  0
  2 25  1  0  0  0
  2 84  1  0  0  0
  2 85  1  0  0  0
  3  4  1  0  0  0
  3 86  1  0  0  0
  3 87  1  0  0  0
  4  5  1  0  0  0
  4 88  1  0  0  0
  4 89  1  0  0  0
  5  6  1  0  0  0
  5 26  1  0  0  0
  5 90  1  0  0  0
  6 25  1  0  0  0
  6 91  1  0  0  0
  6 92  1  0  0  0
  7  8  2  0  0  0
  7 26  1  0  0  0
  7 29  1  0  0  0
  8  9  1  0  0  0
  8 22  1  0  0  0
  9 10  1  0  0  0
  9 27  2  0  0  0
 10 11  2  0  0  0
 10 15  1  0  0  0
 11 12  1  0  0  0
 11 93  1  0  0  0
 12 13  2  0  0  0
 12 94  1  0  0  0
 13 14  1  0  0  0
 13 31  1  0  0  0
 14 15  2  0  0  0
 14 95  1  0  0  0
 15 96  1  0  0  0
 16 17  2  0  0  0
 16 21  1  0  0  0
 16 31  1  0  0  0
 17 18  1  0  0  0
 17 97  1  0  0  0
 18 19  2  0  0  0
 18 98  1  0  0  0
 19 20  1  0  0  0
 19 24  1  0  0  0
 20 21  2  0  0  0
 20 99  1  0  0  0
 21 23  1  0  0  0
 22 28  1  0  0  0
 22 32  2  0  0  0
 26 27  1  0  0  0
 28100  1  0  0  0
 28101  1  0  0  0
 29102  1  0  0  0
 29103  1  0  0  0
 33 34  1  0  0  0
 33 66  1  0  0  0
 33 70  2  0  0  0
 34 36  1  0  0  0
 34 59  1  0  0  0
 34104  1  0  0  0
 35 44  2  0  0  0
 35 45  1  0  0  0
 35 68  1  0  0  0
 36 56  1  0  0  0
 36105  1  0  0  0
 37 39  1  0  0  0
 37 47  1  0  0  0
 37 66  1  0  0  0
 37106  1  0  0  0
 38 43  2  0  0  0
 38 46  1  0  0  0
 38 47  1  0  0  0
 39 64  1  0  0  0
 39 67  2  0  0  0
 40 52  1  0  0  0
 40 53  2  0  0  0
 40 58  1  0  0  0
 41107  1  0  0  0
 41108  1  0  0  0
 41109  1  0  0  0
 41 48  1  0  0  0
 42 43  1  0  0  0
 42 66  1  0  0  0
 42110  1  0  0  0
 42111  1  0  0  0
 43 44  1  0  0  0
 44112  1  0  0  0
 45 46  2  0  0  0
 45113  1  0  0  0
 46114  1  0  0  0
 47115  1  0  0  0
 47116  1  0  0  0
 48 56  1  0  0  0
 48 65  1  0  0  0
 48117  1  0  0  0
 49 50  1  0  0  0
 49 53  1  0  0  0
 49 64  1  0  0  0
 49118  1  0  0  0
 50 51  1  0  0  0
 50119  1  0  0  0
 50120  1  0  0  0
 51 52  1  0  0  0
 51121  1  0  0  0
 51122  1  0  0  0
 52123  1  0  0  0
 52124  1  0  0  0
 53 54  1  0  0  0
 54 55  2  0  0  0
 54125  1  0  0  0
 55 57  1  0  0  0
 55126  1  0  0  0
 56 69  2  0  0  0
 57 58  2  0  0  0
 57127  1  0  0  0
 58128  1  0  0  0
 59 60  1  0  0  0
 59 61  1  0  0  0
 59 62  1  0  0  0
 60129  1  0  0  0
 60130  1  0  0  0
 60131  1  0  0  0
 61132  1  0  0  0
 61133  1  0  0  0
 61134  1  0  0  0
 62135  1  0  0  0
 62136  1  0  0  0
 62137  1  0  0  0
 63 65  1  0  0  0
 63138  1  0  0  0
 63139  1  0  0  0
 63140  1  0  0  0
 64141  1  0  0  0
 65142  1  0  0  0
 68 80  1  0  0  0
 71 72  2  0  0  0
 71 74  1  0  0  0
 71143  1  0  0  0
 72 75  1  0  0  0
 72144  1  0  0  0
 73 74  2  0  0  0
 73 76  1  0  0  0
 73145  1  0  0  0
 74 82  1  0  0  0
 75 76  2  0  0  0
 75 81  1  0  0  0
 76 83  1  0  0  0
 77 82  1  0  0  0
 77146  1  0  0  0
 77147  1  0  0  0
 77148  1  0  0  0
 78 79  1  0  0  0
 78 80  1  0  0  0
 78149  1  0  0  0
 78150  1  0  0  0
 79 82  1  0  0  0
 79151  1  0  0  0
 79152  1  0  0  0
 80153  1  0  0  0
 80154  1  0  0  0
 81155  1  0  0  0
M  ISO  4   1 100  68 101  80 101  81 100
M  END
> <chiral flag>
0

> <version>
0

> <s_m_source_file>
/data/baiqing/PycharmProjects/Reinvent-master-3.2/result/LINK_invent/BTK/process_docking_weight1_custom_product_contain_oxygen_bond_distance_aromatic_linkinvent_7_9_3/rearranged_h_0017.sdf

> <i_m_source_file_index>
25

> <r_mmod_Potential_Energy-OPLS-2005>
32.3138389587402

> <r_mmod_Stretch_Energy-OPLS-2005>
79.0290222167969

> <r_mmod_Bend_Energy-OPLS-2005>
145.368286132812

> <r_mmod_Torsional_Energy-OPLS-2005>
223.43359375

> <r_mmod_Improper_Torsional_Energy-OPLS-2005>
5.92296504974365

> <r_mmod_Van_der_Waal_Energy-OPLS-2005>
158.602645874023

> <r_mmod_Electrostatic_Energy-OPLS-2005>
-388.854034423828

> <r_mmod_Solvation_Energy-OPLS-2005>
-235.412231445312

> <b_mmod_Minimization_Converged-OPLS-2005>
0

> <r_mmod_RMS_Derivative-OPLS-2005>
3.11085104942322

$$$$
26
                    3D
 Structure written by MMmdl.
159168  0  0  1  0            999 V2000
  -30.5899  -14.7503   20.3548 C   0  0  0  0  0  0
  -30.4388  -12.4238   19.4704 C   0  0  0  0  0  0
  -29.5037  -12.3826   18.2407 C   0  0  0  0  0  0
  -28.0237  -12.2775   18.6639 C   0  0  0  0  0  0
  -27.6305  -13.2030   19.8492 C   0  0  2  0  0  0
  -28.6926  -13.1821   20.9681 C   0  0  0  0  0  0
  -25.2486  -13.8065   20.5772 C   0  0  0  0  0  0
  -24.1743  -13.0349   20.9279 C   0  0  0  0  0  0
  -24.6313  -11.6836   20.8827 C   0  0  0  0  0  0
  -23.8990  -10.4230   21.0455 C   0  0  0  0  0  0
  -24.3554   -9.4158   21.9233 C   0  0  0  0  0  0
  -23.6229   -8.2197   22.0781 C   0  0  0  0  0  0
  -22.4235   -8.0231   21.3543 C   0  0  0  0  0  0
  -21.9860   -9.0214   20.4665 C   0  0  0  0  0  0
  -22.7179  -10.2089   20.3081 C   0  0  0  0  0  0
  -21.6822   -6.0696   22.5278 C   0  0  0  0  0  0
  -21.4008   -6.5624   23.8204 C   0  0  0  0  0  0
  -21.3635   -5.6794   24.9179 C   0  0  0  0  0  0
  -21.6026   -4.3058   24.7249 C   0  0  0  0  0  0
  -21.8807   -3.8126   23.4386 C   0  0  0  0  0  0
  -21.9185   -4.6929   22.3425 C   0  0  0  0  0  0
  -22.7790  -13.5193   21.1897 C   0  0  0  0  0  0
  -22.1660   -4.2106   21.1009 F   0  0  0  0  0  0
  -21.5622   -3.4550   25.7776 F   0  0  0  0  0  0
  -29.9793  -13.5174   20.3503 N   0  0  0  0  0  0
  -26.2890  -12.9215   20.3398 N   0  0  0  0  0  0
  -25.9247  -11.6396   20.5878 N   0  0  0  0  0  0
  -22.0413  -12.8176   22.0434 N   0  0  0  0  0  0
  -25.4183  -15.1754   20.4134 N   0  0  0  0  0  0
  -31.8171  -14.8218   20.2506 O   0  0  0  0  0  0
  -21.6602   -6.8835   21.4228 O   0  0  0  0  0  0
  -22.3521  -14.5531   20.6782 O   0  0  0  0  0  0
  -24.6245  -31.8587   23.1981 C   0  0  0  0  0  0
  -25.9085  -32.4783   23.8348 C   0  0  1  0  0  0
  -27.2430  -27.3385   20.1265 C   0  0  0  0  0  0
  -25.5888  -33.8576   24.2301 N   0  0  0  0  0  0
  -23.4171  -30.4699   21.5435 C   0  0  2  0  0  0
  -24.8673  -28.9179   20.1143 C   0  0  0  0  0  0
  -22.7462  -29.4564   22.5013 C   0  0  0  0  0  0
  -18.0279  -28.1349   22.8493 C   0  0  0  0  0  0
  -24.1459  -36.7288   23.2629 C   0  0  0  0  0  0
  -25.9513  -30.7968   21.3621 C   0  0  0  0  0  0
  -26.0294  -29.4223   20.7100 C   0  0  0  0  0  0
  -27.2160  -28.6399   20.7057 C   0  0  0  0  0  0
  -26.0604  -26.8679   19.5166 C   0  0  0  0  0  0
  -24.8810  -27.6471   19.5085 C   0  0  0  0  0  0
  -23.6275  -29.7840   20.1666 C   0  0  0  0  0  0
  -25.4080  -36.3083   24.0331 C   0  0  1  0  0  0
  -20.5865  -28.3614   23.1319 C   0  0  2  0  0  0
  -20.6749  -26.9352   22.5403 C   0  0  0  0  0  0
  -19.5737  -26.6341   21.5197 C   0  0  0  0  0  0
  -18.1904  -26.7902   22.1595 C   0  0  0  0  0  0
  -19.1532  -28.8814   23.2880 C   0  0  0  0  0  0
  -18.9456  -30.1423   23.8870 C   0  0  0  0  0  0
  -17.6458  -30.6558   24.0543 C   0  0  0  0  0  0
  -25.9001  -34.9459   23.5109 C   0  0  0  0  0  0
  -16.5345  -29.9039   23.6349 C   0  0  0  0  0  0
  -16.7267  -28.6453   23.0383 C   0  0  0  0  0  0
  -26.4476  -31.6624   25.0762 C   0  0  0  0  0  0
  -25.3712  -31.3752   26.1523 C   0  0  0  0  0  0
  -27.0343  -30.3061   24.6196 C   0  0  0  0  0  0
  -27.6014  -32.4407   25.7528 C   0  0  0  0  0  0
  -27.5580  -37.1765   24.8463 C   0  0  0  0  0  0
  -21.4176  -29.2976   22.3760 N   0  0  0  0  0  0
  -26.4286  -37.3771   23.9431 N   0  0  0  0  0  0
  -24.6816  -31.0602   22.0918 N   0  0  0  0  0  0
  -23.4207  -28.8096   23.3075 O   0  0  0  0  0  0
  -28.4122  -26.5774   20.2134 O   0  0  0  0  0  0
  -26.5557  -34.8926   22.4670 O   0  0  0  0  0  0
  -23.5415  -32.1401   23.7307 O   0  0  0  0  0  0
  -27.9578  -19.0249   20.6421 C   0  0  0  0  0  0
  -28.2777  -17.6428   20.5224 C   0  0  0  0  0  0
  -30.2791  -19.5791   20.4836 C   0  0  0  0  0  0
  -28.9377  -20.0559   20.5899 C   0  0  0  0  0  0
  -29.6051  -17.1665   20.3692 C   0  0  0  0  0  0
  -30.6086  -18.1820   20.3828 C   0  0  0  0  0  0
  -27.0428  -23.3555   20.6544 C   0  0  0  0  0  0
  -27.2275  -21.8879   21.0946 C   0  0  0  0  0  0
  -29.3041  -22.6611   20.2065 C   0  0  0  0  0  0
  -28.4557  -23.9449   20.5802 C   0  0  1  0  0  0
  -29.6548  -15.7825   18.3936 C   0  0  0  0  0  0
  -28.5842  -25.2320   19.6509 C   0  0  0  0  0  0
  -28.5511  -21.4548   20.6373 N   0  0  0  0  0  0
  -29.8111  -15.7965   19.8631 N   0  0  0  0  0  0
  -31.9077  -17.8341   20.2223 F   0  0  0  0  0  0
  -31.4725  -12.5647   19.1516 H   0  0  0  0  0  0
  -30.4075  -11.4726   20.0058 H   0  0  0  0  0  0
  -29.7568  -11.5150   17.6316 H   0  0  0  0  0  0
  -29.6574  -13.2407   17.5918 H   0  0  0  0  0  0
  -27.8645  -11.2377   18.9524 H   0  0  0  0  0  0
  -27.3697  -12.4491   17.8088 H   0  0  0  0  0  0
  -27.5854  -14.2128   19.4590 H   0  0  0  0  0  0
  -28.7425  -12.2028   21.4452 H   0  0  0  0  0  0
  -28.4448  -13.9052   21.7474 H   0  0  0  0  0  0
  -25.2692   -9.5630   22.4829 H   0  0  0  0  0  0
  -23.9909   -7.4582   22.7513 H   0  0  0  0  0  0
  -21.0792   -8.8740   19.8984 H   0  0  0  0  0  0
  -22.3640  -10.9642   19.6207 H   0  0  0  0  0  0
  -21.2011   -7.6138   23.9690 H   0  0  0  0  0  0
  -21.1463   -6.0552   25.9066 H   0  0  0  0  0  0
  -22.0603   -2.7588   23.2921 H   0  0  0  0  0  0
  -22.3982  -11.9787   22.4772 H   0  0  0  0  0  0
  -21.1060  -13.1255   22.2701 H   0  0  0  0  0  0
  -24.6583  -15.8360   20.5254 H   0  0  0  0  0  0
  -26.2626  -15.5924   20.0450 H   0  0  0  0  0  0
  -26.7148  -32.5510   23.1103 H   0  0  0  0  0  0
  -25.0185  -33.9694   25.0556 H   0  0  0  0  0  0
  -22.7076  -31.2856   21.3901 H   0  0  0  0  0  0
  -23.3747  -35.9605   23.3307 H   0  0  0  0  0  0
  -24.3530  -36.8903   22.2039 H   0  0  0  0  0  0
  -23.7206  -37.6474   23.6666 H   0  0  0  0  0  0
  -26.0778  -31.5525   20.5872 H   0  0  0  0  0  0
  -26.8335  -30.8531   21.9879 H   0  0  0  0  0  0
  -28.1114  -29.0221   21.1738 H   0  0  0  0  0  0
  -26.0179  -25.8837   19.0730 H   0  0  0  0  0  0
  -23.9866  -27.2462   19.0515 H   0  0  0  0  0  0
  -23.7215  -30.5442   19.3912 H   0  0  0  0  0  0
  -22.7586  -29.1824   19.8935 H   0  0  0  0  0  0
  -25.1250  -36.1909   25.0822 H   0  0  0  0  0  0
  -20.9948  -28.3151   24.1456 H   0  0  0  0  0  0
  -20.5607  -26.2211   23.3574 H   0  0  0  0  0  0
  -21.6622  -26.7366   22.1234 H   0  0  0  0  0  0
  -19.6882  -25.6242   21.1246 H   0  0  0  0  0  0
  -19.6711  -27.3146   20.6734 H   0  0  0  0  0  0
  -17.4190  -26.6695   21.3973 H   0  0  0  0  0  0
  -18.0266  -26.0029   22.8966 H   0  0  0  0  0  0
  -19.7940  -30.7231   24.2253 H   0  0  0  0  0  0
  -17.5016  -31.6265   24.5095 H   0  0  0  0  0  0
  -15.5342  -30.2911   23.7701 H   0  0  0  0  0  0
  -15.8664  -28.0728   22.7175 H   0  0  0  0  0  0
  -24.5877  -30.7079   25.7910 H   0  0  0  0  0  0
  -24.8903  -32.2903   26.4990 H   0  0  0  0  0  0
  -25.8045  -30.8951   27.0301 H   0  0  0  0  0  0
  -26.2949  -29.6785   24.1199 H   0  0  0  0  0  0
  -27.4037  -29.7337   25.4702 H   0  0  0  0  0  0
  -27.8792  -30.4400   23.9432 H   0  0  0  0  0  0
  -27.2633  -33.3746   26.2063 H   0  0  0  0  0  0
  -28.3849  -32.6932   25.0360 H   0  0  0  0  0  0
  -28.0667  -31.8576   26.5490 H   0  0  0  0  0  0
  -28.2573  -38.0079   24.7577 H   0  0  0  0  0  0
  -28.1082  -36.2619   24.6223 H   0  0  0  0  0  0
  -27.2288  -37.1353   25.8850 H   0  0  0  0  0  0
  -20.9347  -29.8740   21.6999 H   0  0  0  0  0  0
  -26.0156  -38.2832   24.1477 H   0  0  0  0  0  0
  -26.9107  -19.2770   20.7204 H   0  0  0  0  0  0
  -27.4627  -16.9425   20.4733 H   0  0  0  0  0  0
  -31.0914  -20.2895   20.4573 H   0  0  0  0  0  0
  -26.3822  -23.9211   21.3188 H   0  0  0  0  0  0
  -26.5764  -23.3727   19.6674 H   0  0  0  0  0  0
  -26.4118  -21.2983   20.6784 H   0  0  0  0  0  0
  -27.1857  -21.7995   22.1824 H   0  0  0  0  0  0
  -30.2795  -22.7051   20.6913 H   0  0  0  0  0  0
  -29.4801  -22.6291   19.1320 H   0  0  0  0  0  0
  -28.7501  -24.2252   21.5919 H   0  0  0  0  0  0
  -28.7415  -15.2803   18.0845 H   0  0  0  0  0  0
  -30.4881  -15.2953   17.8813 H   0  0  0  0  0  0
  -29.5929  -16.7893   17.9756 H   0  0  0  0  0  0
  -28.0191  -25.0989   18.7309 H   0  0  0  0  0  0
  -29.6217  -25.2553   19.3108 H   0  0  0  0  0  0
  1 25  1  0  0  0
  1 30  2  0  0  0
  1 84  1  0  0  0
  2  3  1  0  0  0
  2 25  1  0  0  0
  2 86  1  0  0  0
  2 87  1  0  0  0
  3  4  1  0  0  0
  3 88  1  0  0  0
  3 89  1  0  0  0
  4  5  1  0  0  0
  4 90  1  0  0  0
  4 91  1  0  0  0
  5  6  1  0  0  0
  5 26  1  0  0  0
  5 92  1  0  0  0
  6 25  1  0  0  0
  6 93  1  0  0  0
  6 94  1  0  0  0
  7  8  2  0  0  0
  7 26  1  0  0  0
  7 29  1  0  0  0
  8  9  1  0  0  0
  8 22  1  0  0  0
  9 10  1  0  0  0
  9 27  2  0  0  0
 10 11  2  0  0  0
 10 15  1  0  0  0
 11 12  1  0  0  0
 11 95  1  0  0  0
 12 13  2  0  0  0
 12 96  1  0  0  0
 13 14  1  0  0  0
 13 31  1  0  0  0
 14 15  2  0  0  0
 14 97  1  0  0  0
 15 98  1  0  0  0
 16 17  2  0  0  0
 16 21  1  0  0  0
 16 31  1  0  0  0
 17 18  1  0  0  0
 17 99  1  0  0  0
 18 19  2  0  0  0
 18100  1  0  0  0
 19 20  1  0  0  0
 19 24  1  0  0  0
 20 21  2  0  0  0
 20101  1  0  0  0
 21 23  1  0  0  0
 22 28  1  0  0  0
 22 32  2  0  0  0
 26 27  1  0  0  0
 28102  1  0  0  0
 28103  1  0  0  0
 29104  1  0  0  0
 29105  1  0  0  0
 33 34  1  0  0  0
 33 66  1  0  0  0
 33 70  2  0  0  0
 34 36  1  0  0  0
 34 59  1  0  0  0
 34106  1  0  0  0
 35 44  2  0  0  0
 35 45  1  0  0  0
 35 68  1  0  0  0
 36 56  1  0  0  0
 36107  1  0  0  0
 37 39  1  0  0  0
 37 47  1  0  0  0
 37 66  1  0  0  0
 37108  1  0  0  0
 38 43  2  0  0  0
 38 46  1  0  0  0
 38 47  1  0  0  0
 39 64  1  0  0  0
 39 67  2  0  0  0
 40 52  1  0  0  0
 40 53  2  0  0  0
 40 58  1  0  0  0
 41109  1  0  0  0
 41110  1  0  0  0
 41111  1  0  0  0
 41 48  1  0  0  0
 42 43  1  0  0  0
 42 66  1  0  0  0
 42112  1  0  0  0
 42113  1  0  0  0
 43 44  1  0  0  0
 44114  1  0  0  0
 45 46  2  0  0  0
 45115  1  0  0  0
 46116  1  0  0  0
 47117  1  0  0  0
 47118  1  0  0  0
 48 56  1  0  0  0
 48 65  1  0  0  0
 48119  1  0  0  0
 49 50  1  0  0  0
 49 53  1  0  0  0
 49 64  1  0  0  0
 49120  1  0  0  0
 50 51  1  0  0  0
 50121  1  0  0  0
 50122  1  0  0  0
 51 52  1  0  0  0
 51123  1  0  0  0
 51124  1  0  0  0
 52125  1  0  0  0
 52126  1  0  0  0
 53 54  1  0  0  0
 54 55  2  0  0  0
 54127  1  0  0  0
 55 57  1  0  0  0
 55128  1  0  0  0
 56 69  2  0  0  0
 57 58  2  0  0  0
 57129  1  0  0  0
 58130  1  0  0  0
 59 60  1  0  0  0
 59 61  1  0  0  0
 59 62  1  0  0  0
 60131  1  0  0  0
 60132  1  0  0  0
 60133  1  0  0  0
 61134  1  0  0  0
 61135  1  0  0  0
 61136  1  0  0  0
 62137  1  0  0  0
 62138  1  0  0  0
 62139  1  0  0  0
 63 65  1  0  0  0
 63140  1  0  0  0
 63141  1  0  0  0
 63142  1  0  0  0
 64143  1  0  0  0
 65144  1  0  0  0
 68 82  1  0  0  0
 71 72  2  0  0  0
 71 74  1  0  0  0
 71145  1  0  0  0
 72 75  1  0  0  0
 72146  1  0  0  0
 73 74  2  0  0  0
 73 76  1  0  0  0
 73147  1  0  0  0
 74 83  1  0  0  0
 75 76  2  0  0  0
 75 84  1  0  0  0
 76 85  1  0  0  0
 77 78  1  0  0  0
 77 80  1  0  0  0
 77148  1  0  0  0
 77149  1  0  0  0
 78 83  1  0  0  0
 78150  1  0  0  0
 78151  1  0  0  0
 79 80  1  0  0  0
 79 83  1  0  0  0
 79152  1  0  0  0
 79153  1  0  0  0
 80 82  1  0  0  0
 80154  1  0  0  0
 81 84  1  0  0  0
 81155  1  0  0  0
 81156  1  0  0  0
 81157  1  0  0  0
 82158  1  0  0  0
 82159  1  0  0  0
M  ISO  4   1 100  68 101  82 101  84 100
M  END
> <chiral flag>
0

> <version>
0

> <s_m_source_file>
/data/baiqing/PycharmProjects/Reinvent-master-3.2/result/LINK_invent/BTK/process_docking_weight1_custom_product_contain_oxygen_bond_distance_aromatic_linkinvent_7_9_3/rearranged_h_0017.sdf

> <i_m_source_file_index>
26

> <r_mmod_Potential_Energy-OPLS-2005>
397.358306884766

> <r_mmod_Stretch_Energy-OPLS-2005>
83.6145858764648

> <r_mmod_Bend_Energy-OPLS-2005>
210.406036376953

> <r_mmod_Torsional_Energy-OPLS-2005>
386.013031005859

> <r_mmod_Improper_Torsional_Energy-OPLS-2005>
27.2587985992432

> <r_mmod_Van_der_Waal_Energy-OPLS-2005>
136.790618896484

> <r_mmod_Electrostatic_Energy-OPLS-2005>
-309.662841796875

> <r_mmod_Solvation_Energy-OPLS-2005>
-216.934997558594

> <b_mmod_Minimization_Converged-OPLS-2005>
0

> <r_mmod_RMS_Derivative-OPLS-2005>
4.46805763244629

$$$$
27
                    3D
 Structure written by MMmdl.
171179  0  0  1  0            999 V2000
  -29.9335  -16.8472   20.3054 C   0  0  0  0  0  0
  -30.2580  -14.0158   19.5133 C   0  0  0  0  0  0
  -29.5593  -13.0640   18.4409 C   0  0  0  0  0  0
  -28.2770  -12.4262   18.9643 C   0  0  0  0  0  0
  -27.5745  -13.4764   19.8311 C   0  0  2  0  0  0
  -28.4895  -14.2987   20.8434 C   0  0  0  0  0  0
  -25.2131  -13.8572   20.6041 C   0  0  0  0  0  0
  -24.1671  -13.0494   20.9368 C   0  0  0  0  0  0
  -24.6604  -11.7081   20.8764 C   0  0  0  0  0  0
  -23.9316  -10.4334   21.0330 C   0  0  0  0  0  0
  -24.3773   -9.4233   21.9145 C   0  0  0  0  0  0
  -23.6387   -8.2294   22.0767 C   0  0  0  0  0  0
  -22.4363   -8.0338   21.3553 C   0  0  0  0  0  0
  -22.0051   -9.0317   20.4622 C   0  0  0  0  0  0
  -22.7456  -10.2163   20.2998 C   0  0  0  0  0  0
  -21.6872   -6.0790   22.5276 C   0  0  0  0  0  0
  -21.4022   -6.5669   23.8219 C   0  0  0  0  0  0
  -21.3670   -5.6813   24.9172 C   0  0  0  0  0  0
  -21.6033   -4.3079   24.7212 C   0  0  0  0  0  0
  -21.8815   -3.8178   23.4334 C   0  0  0  0  0  0
  -21.9200   -4.7007   22.3391 C   0  0  0  0  0  0
  -22.7622  -13.5080   21.1916 C   0  0  0  0  0  0
  -22.1652   -4.2193   21.0969 F   0  0  0  0  0  0
  -21.5636   -3.4555   25.7723 F   0  0  0  0  0  0
  -29.4425  -15.2977   20.1249 N   0  0  0  0  0  0
  -26.2860  -13.0279   20.3642 N   0  0  0  0  0  0
  -25.9644  -11.7144   20.5729 N   0  0  0  0  0  0
  -22.0312  -12.8036   22.0463 N   0  0  0  0  0  0
  -25.3402  -15.2339   20.4430 N   0  0  0  0  0  0
  -31.1485  -16.4236   20.2466 O   0  0  0  0  0  0
  -21.6683   -6.8963   21.4263 O   0  0  0  0  0  0
  -22.3234  -14.5337   20.6729 O   0  0  0  0  0  0
  -24.7623  -31.6941   23.0934 C   0  0  0  0  0  0
  -25.9797  -32.3947   23.7753 C   0  0  1  0  0  0
  -27.2334  -25.8165   20.2545 C   0  0  0  0  0  0
  -25.6038  -33.7833   24.1523 N   0  0  0  0  0  0
  -23.6266  -30.2627   21.4669 C   0  0  2  0  0  0
  -25.1020  -28.4407   20.1483 C   0  0  0  0  0  0
  -22.8107  -29.3743   22.4512 C   0  0  0  0  0  0
  -18.0368  -28.1453   22.8411 C   0  0  0  0  0  0
  -24.1498  -36.6924   23.2669 C   0  0  0  0  0  0
  -26.2252  -30.1103   21.5283 C   0  0  0  0  0  0
  -26.2703  -28.5778   20.9005 C   0  0  0  0  0  0
  -27.2570  -27.3163   20.9411 C   0  0  0  0  0  0
  -26.2002  -26.2788   19.3134 C   0  0  0  0  0  0
  -25.1669  -27.3163   19.3084 C   0  0  0  0  0  0
  -23.9324  -29.4900   20.1363 C   0  0  0  0  0  0
  -25.4166  -36.2587   24.0234 C   0  0  1  0  0  0
  -20.6042  -28.3817   23.0993 C   0  0  2  0  0  0
  -20.6793  -26.9418   22.5387 C   0  0  0  0  0  0
  -19.5770  -26.6337   21.5205 C   0  0  0  0  0  0
  -18.1965  -26.7952   22.1615 C   0  0  0  0  0  0
  -19.1661  -28.8982   23.2652 C   0  0  0  0  0  0
  -18.9562  -30.1550   23.8729 C   0  0  0  0  0  0
  -17.6542  -30.6622   24.0521 C   0  0  0  0  0  0
  -25.9195  -34.8995   23.4782 C   0  0  0  0  0  0
  -16.5425  -29.9089   23.6374 C   0  0  0  0  0  0
  -16.7343  -28.6517   23.0389 C   0  0  0  0  0  0
  -26.4722  -31.6372   25.0725 C   0  0  0  0  0  0
  -25.3594  -31.3909   26.1199 C   0  0  0  0  0  0
  -27.0802  -30.2629   24.7293 C   0  0  0  0  0  0
  -27.6016  -32.4446   25.7560 C   0  0  0  0  0  0
  -27.5545  -37.1579   24.8466 C   0  0  0  0  0  0
  -21.4687  -29.2903   22.3221 N   0  0  0  0  0  0
  -26.4217  -37.3447   23.9444 N   0  0  0  0  0  0
  -24.9057  -30.7456   22.0778 N   0  0  0  0  0  0
  -23.4138  -28.7447   23.3222 O   0  0  0  0  0  0
  -27.9112  -24.0774   20.2676 O   0  0  0  0  0  0
  -26.5952  -34.8739   22.4472 O   0  0  0  0  0  0
  -23.6472  -32.0489   23.5271 O   0  0  0  0  0  0
  -27.8926  -23.1098   18.3620 C   0  0  0  0  0  0
  -29.0117  -21.9416   19.1387 C   0  0  0  0  0  0
  -26.3516  -22.7054   20.8393 C   0  0  0  0  0  0
  -26.2537  -23.4551   19.1613 C   0  0  0  0  0  0
  -28.7898  -20.6486   20.2976 C   0  0  0  0  0  0
  -27.6752  -21.5877   21.2646 C   0  0  0  0  0  0
  -25.1510  -21.8962   16.6935 C   0  0  0  0  0  0
  -31.1910  -20.3894   21.6181 C   0  0  0  0  0  0
  -22.6843  -21.7934   16.7593 C   0  0  0  0  0  0
  -24.0170  -19.6862   16.5217 C   0  0  0  0  0  0
  -24.9383  -23.6713   18.3877 C   0  0  0  0  0  0
  -26.4934  -21.2690   16.4278 C   0  0  0  0  0  0
  -27.0167  -20.5835   17.7105 C   0  0  0  0  0  0
  -30.9630  -19.0361   20.9125 C   0  0  0  0  0  0
  -26.7590  -21.3195   19.1172 C   0  0  0  0  0  0
  -29.5835  -18.6920   20.4560 N   0  0  0  0  0  0
  -24.0092  -21.1543   16.6687 N   0  0  0  0  0  0
  -25.1498  -23.2150   17.0030 N   0  3  0  0  0  0
  -27.5344  -21.0945   22.5200 F   0  0  0  0  0  0
  -31.1254  -14.4099   18.9839 H   0  0  0  0  0  0
  -30.7156  -13.4201   20.3072 H   0  0  0  0  0  0
  -30.2522  -12.2925   18.0986 H   0  0  0  0  0  0
  -29.3143  -13.6660   17.5636 H   0  0  0  0  0  0
  -28.5267  -11.5616   19.5812 H   0  0  0  0  0  0
  -27.6462  -12.0732   18.1476 H   0  0  0  0  0  0
  -27.2870  -14.2174   19.0823 H   0  0  0  0  0  0
  -28.9919  -13.6419   21.5576 H   0  0  0  0  0  0
  -27.8475  -14.9187   21.4667 H   0  0  0  0  0  0
  -25.2911   -9.5686   22.4754 H   0  0  0  0  0  0
  -24.0048   -7.4699   22.7517 H   0  0  0  0  0  0
  -21.0991   -8.8840   19.8933 H   0  0  0  0  0  0
  -22.3911  -10.9680   19.6081 H   0  0  0  0  0  0
  -21.1998   -7.6177   23.9739 H   0  0  0  0  0  0
  -21.1496   -6.0535   25.9082 H   0  0  0  0  0  0
  -22.0583   -2.7646   23.2811 H   0  0  0  0  0  0
  -22.4017  -11.9755   22.4897 H   0  0  0  0  0  0
  -21.0877  -13.0932   22.2605 H   0  0  0  0  0  0
  -24.5586  -15.8709   20.5519 H   0  0  0  0  0  0
  -26.1882  -15.6931   20.1387 H   0  0  0  0  0  0
  -26.7984  -32.4260   23.0551 H   0  0  0  0  0  0
  -24.9945  -33.8705   24.9519 H   0  0  0  0  0  0
  -23.0049  -31.1209   21.2064 H   0  0  0  0  0  0
  -23.3813  -35.9191   23.3127 H   0  0  0  0  0  0
  -24.3572  -36.8836   22.2130 H   0  0  0  0  0  0
  -23.7183  -37.5981   23.6939 H   0  0  0  0  0  0
  -26.5226  -30.7571   20.7023 H   0  0  0  0  0  0
  -27.0508  -30.2066   22.2140 H   0  0  0  0  0  0
  -28.0711  -27.4441   21.6404 H   0  0  0  0  0  0
  -26.1853  -25.7316   18.3937 H   0  0  0  0  0  0
  -24.4279  -27.2581   18.5228 H   0  0  0  0  0  0
  -24.1649  -30.2167   19.3567 H   0  0  0  0  0  0
  -23.0276  -28.9864   19.7957 H   0  0  0  0  0  0
  -25.1399  -36.1229   25.0717 H   0  0  0  0  0  0
  -21.0098  -28.3466   24.1124 H   0  0  0  0  0  0
  -20.5585  -26.2458   23.3706 H   0  0  0  0  0  0
  -21.6642  -26.7226   22.1240 H   0  0  0  0  0  0
  -19.6909  -25.6220   21.1298 H   0  0  0  0  0  0
  -19.6724  -27.3092   20.6696 H   0  0  0  0  0  0
  -17.4225  -26.6662   21.4039 H   0  0  0  0  0  0
  -18.0358  -26.0160   22.9080 H   0  0  0  0  0  0
  -19.8045  -30.7401   24.2041 H   0  0  0  0  0  0
  -17.5097  -31.6292   24.5140 H   0  0  0  0  0  0
  -15.5423  -30.2945   23.7804 H   0  0  0  0  0  0
  -15.8740  -28.0784   22.7217 H   0  0  0  0  0  0
  -24.5786  -30.7294   25.7434 H   0  0  0  0  0  0
  -24.8804  -32.3204   26.4294 H   0  0  0  0  0  0
  -25.7576  -30.9221   27.0214 H   0  0  0  0  0  0
  -26.3639  -29.5920   24.2559 H   0  0  0  0  0  0
  -27.4118  -29.7498   25.6332 H   0  0  0  0  0  0
  -27.9680  -30.3568   24.1043 H   0  0  0  0  0  0
  -27.2447  -33.3895   26.1685 H   0  0  0  0  0  0
  -28.4035  -32.6789   25.0541 H   0  0  0  0  0  0
  -28.0490  -31.8925   26.5846 H   0  0  0  0  0  0
  -28.2420  -38.0000   24.7596 H   0  0  0  0  0  0
  -28.1174  -36.2514   24.6189 H   0  0  0  0  0  0
  -27.2271  -37.1074   25.8861 H   0  0  0  0  0  0
  -21.0215  -29.8459   21.6092 H   0  0  0  0  0  0
  -25.9966  -38.2443   24.1522 H   0  0  0  0  0  0
  -28.1400  -23.5396   17.4041 H   0  0  0  0  0  0
  -29.8684  -21.7665   18.5061 H   0  0  0  0  0  0
  -25.5355  -22.8434   21.5355 H   0  0  0  0  0  0
  -30.4855  -20.5466   22.4349 H   0  0  0  0  0  0
  -31.1605  -21.2467   20.9449 H   0  0  0  0  0  0
  -32.1897  -20.4039   22.0563 H   0  0  0  0  0  0
  -22.4429  -22.0539   17.7874 H   0  0  0  0  0  0
  -21.9017  -21.1326   16.3869 H   0  0  0  0  0  0
  -22.6566  -22.6948   16.1478 H   0  0  0  0  0  0
  -24.6963  -19.3483   15.7401 H   0  0  0  0  0  0
  -23.0316  -19.2955   16.2743 H   0  0  0  0  0  0
  -24.3151  -19.2260   17.4637 H   0  0  0  0  0  0
  -24.5149  -24.6707   18.4129 H   0  0  0  0  0  0
  -24.1729  -23.0466   18.8498 H   0  0  0  0  0  0
  -27.1907  -22.0303   16.0768 H   0  0  0  0  0  0
  -26.4488  -20.5615   15.6028 H   0  0  0  0  0  0
  -28.0518  -20.2793   17.5625 H   0  0  0  0  0  0
  -26.5036  -19.6244   17.7666 H   0  0  0  0  0  0
  -31.3172  -18.3249   21.6607 H   0  0  0  0  0  0
  -31.6447  -18.9778   20.0599 H   0  0  0  0  0  0
  -26.5556  -20.4309   19.7350 H   0  0  0  0  0  0
  -25.6625  -21.3040   18.9947 H   0  0  0  0  0  0
  -25.8207  -23.7955   16.5165 H   0  0  0  0  0  0
  1 25  1  0  0  0
  1 30  2  0  0  0
  1 86  1  0  0  0
  2  3  1  0  0  0
  2 25  1  0  0  0
  2 90  1  0  0  0
  2 91  1  0  0  0
  3  4  1  0  0  0
  3 92  1  0  0  0
  3 93  1  0  0  0
  4  5  1  0  0  0
  4 94  1  0  0  0
  4 95  1  0  0  0
  5  6  1  0  0  0
  5 26  1  0  0  0
  5 96  1  0  0  0
  6 25  1  0  0  0
  6 97  1  0  0  0
  6 98  1  0  0  0
  7  8  2  0  0  0
  7 26  1  0  0  0
  7 29  1  0  0  0
  8  9  1  0  0  0
  8 22  1  0  0  0
  9 10  1  0  0  0
  9 27  2  0  0  0
 10 11  2  0  0  0
 10 15  1  0  0  0
 11 12  1  0  0  0
 11 99  1  0  0  0
 12 13  2  0  0  0
 12100  1  0  0  0
 13 14  1  0  0  0
 13 31  1  0  0  0
 14 15  2  0  0  0
 14101  1  0  0  0
 15102  1  0  0  0
 16 17  2  0  0  0
 16 21  1  0  0  0
 16 31  1  0  0  0
 17 18  1  0  0  0
 17103  1  0  0  0
 18 19  2  0  0  0
 18104  1  0  0  0
 19 20  1  0  0  0
 19 24  1  0  0  0
 20 21  2  0  0  0
 20105  1  0  0  0
 21 23  1  0  0  0
 22 28  1  0  0  0
 22 32  2  0  0  0
 26 27  1  0  0  0
 28106  1  0  0  0
 28107  1  0  0  0
 29108  1  0  0  0
 29109  1  0  0  0
 33 34  1  0  0  0
 33 66  1  0  0  0
 33 70  2  0  0  0
 34 36  1  0  0  0
 34 59  1  0  0  0
 34110  1  0  0  0
 35 44  2  0  0  0
 35 45  1  0  0  0
 35 68  1  0  0  0
 36 56  1  0  0  0
 36111  1  0  0  0
 37 39  1  0  0  0
 37 47  1  0  0  0
 37 66  1  0  0  0
 37112  1  0  0  0
 38 43  2  0  0  0
 38 46  1  0  0  0
 38 47  1  0  0  0
 39 64  1  0  0  0
 39 67  2  0  0  0
 40 52  1  0  0  0
 40 53  2  0  0  0
 40 58  1  0  0  0
 41113  1  0  0  0
 41114  1  0  0  0
 41115  1  0  0  0
 41 48  1  0  0  0
 42 43  1  0  0  0
 42 66  1  0  0  0
 42116  1  0  0  0
 42117  1  0  0  0
 43 44  1  0  0  0
 44118  1  0  0  0
 45 46  2  0  0  0
 45119  1  0  0  0
 46120  1  0  0  0
 47121  1  0  0  0
 47122  1  0  0  0
 48 56  1  0  0  0
 48 65  1  0  0  0
 48123  1  0  0  0
 49 50  1  0  0  0
 49 53  1  0  0  0
 49 64  1  0  0  0
 49124  1  0  0  0
 50 51  1  0  0  0
 50125  1  0  0  0
 50126  1  0  0  0
 51 52  1  0  0  0
 51127  1  0  0  0
 51128  1  0  0  0
 52129  1  0  0  0
 52130  1  0  0  0
 53 54  1  0  0  0
 54 55  2  0  0  0
 54131  1  0  0  0
 55 57  1  0  0  0
 55132  1  0  0  0
 56 69  2  0  0  0
 57 58  2  0  0  0
 57133  1  0  0  0
 58134  1  0  0  0
 59 60  1  0  0  0
 59 61  1  0  0  0
 59 62  1  0  0  0
 60135  1  0  0  0
 60136  1  0  0  0
 60137  1  0  0  0
 61138  1  0  0  0
 61139  1  0  0  0
 61140  1  0  0  0
 62141  1  0  0  0
 62142  1  0  0  0
 62143  1  0  0  0
 63 65  1  0  0  0
 63144  1  0  0  0
 63145  1  0  0  0
 63146  1  0  0  0
 64147  1  0  0  0
 65148  1  0  0  0
 68 85  1  0  0  0
 71 72  2  0  0  0
 71 74  1  0  0  0
 71149  1  0  0  0
 72 75  1  0  0  0
 72150  1  0  0  0
 73 74  2  0  0  0
 73 76  1  0  0  0
 73151  1  0  0  0
 74 81  1  0  0  0
 75 76  2  0  0  0
 75 86  1  0  0  0
 76 89  1  0  0  0
 77 82  1  0  0  0
 77 87  1  0  0  0
 77 88  2  0  0  0
 78 84  1  0  0  0
 78152  1  0  0  0
 78153  1  0  0  0
 78154  1  0  0  0
 79 87  1  0  0  0
 79155  1  0  0  0
 79156  1  0  0  0
 79157  1  0  0  0
 80 87  1  0  0  0
 80158  1  0  0  0
 80159  1  0  0  0
 80160  1  0  0  0
 81 88  1  0  0  0
 81161  1  0  0  0
 81162  1  0  0  0
 82 83  1  0  0  0
 82163  1  0  0  0
 82164  1  0  0  0
 83 85  1  0  0  0
 83165  1  0  0  0
 83166  1  0  0  0
 84 86  1  0  0  0
 84167  1  0  0  0
 84168  1  0  0  0
 85169  1  0  0  0
 85170  1  0  0  0
 88171  1  0  0  0
M  CHG  1  88   1
M  ISO  4   1 100  68 101  85 101  86 100
M  END
> <chiral flag>
0

> <version>
0

> <s_m_source_file>
/data/baiqing/PycharmProjects/Reinvent-master-3.2/result/LINK_invent/BTK/process_docking_weight1_custom_product_contain_oxygen_bond_distance_aromatic_linkinvent_7_9_3/rearranged_h_0017.sdf

> <i_m_source_file_index>
27

> <r_mmod_Potential_Energy-OPLS-2005>
15762.189453125

> <r_mmod_Stretch_Energy-OPLS-2005>
8619.056640625

> <r_mmod_Bend_Energy-OPLS-2005>
1319.64733886719

> <r_mmod_Torsional_Energy-OPLS-2005>
548.11865234375

> <r_mmod_Improper_Torsional_Energy-OPLS-2005>
22.2137088775635

> <r_mmod_Van_der_Waal_Energy-OPLS-2005>
2116.18139648438

> <r_mmod_Electrostatic_Energy-OPLS-2005>
-128.287170410156

> <r_mmod_Solvation_Energy-OPLS-2005>
-444.396942138672

> <b_mmod_Minimization_Converged-OPLS-2005>
0

> <r_mmod_RMS_Derivative-OPLS-2005>
8.22766017913818

$$$$
28
                    3D
 Structure written by MMmdl.
162170  0  0  1  0            999 V2000
  -30.7609  -14.4777   20.6265 C   0  0  0  0  0  0
  -30.4167  -12.3324   19.4328 C   0  0  0  0  0  0
  -29.4916  -12.5059   18.2126 C   0  0  0  0  0  0
  -28.0202  -12.3428   18.6321 C   0  0  0  0  0  0
  -27.6585  -13.2121   19.8643 C   0  0  2  0  0  0
  -28.6962  -13.0377   20.9941 C   0  0  0  0  0  0
  -25.2583  -13.8173   20.5665 C   0  0  0  0  0  0
  -24.1837  -13.0447   20.9159 C   0  0  0  0  0  0
  -24.6398  -11.6911   20.8725 C   0  0  0  0  0  0
  -23.9069  -10.4296   21.0404 C   0  0  0  0  0  0
  -24.3614   -9.4214   21.9185 C   0  0  0  0  0  0
  -23.6287   -8.2249   22.0763 C   0  0  0  0  0  0
  -22.4274   -8.0287   21.3546 C   0  0  0  0  0  0
  -21.9909   -9.0259   20.4645 C   0  0  0  0  0  0
  -22.7243  -10.2132   20.3053 C   0  0  0  0  0  0
  -21.6851   -6.0745   22.5280 C   0  0  0  0  0  0
  -21.4008   -6.5649   23.8213 C   0  0  0  0  0  0
  -21.3654   -5.6796   24.9174 C   0  0  0  0  0  0
  -21.6039   -4.3062   24.7220 C   0  0  0  0  0  0
  -21.8814   -3.8154   23.4346 C   0  0  0  0  0  0
  -21.9191   -4.6970   22.3402 C   0  0  0  0  0  0
  -22.7860  -13.5238   21.1830 C   0  0  0  0  0  0
  -22.1663   -4.2161   21.0977 F   0  0  0  0  0  0
  -21.5622   -3.4541   25.7733 F   0  0  0  0  0  0
  -30.0360  -13.3306   20.4501 N   0  0  0  0  0  0
  -26.3017  -12.9348   20.3317 N   0  0  0  0  0  0
  -25.9325  -11.6508   20.5747 N   0  0  0  0  0  0
  -22.0501  -12.8226   22.0386 N   0  0  0  0  0  0
  -25.4318  -15.1891   20.4111 N   0  0  0  0  0  0
  -31.8219  -14.6755   20.0256 O   0  0  0  0  0  0
  -21.6641   -6.8882   21.4247 O   0  0  0  0  0  0
  -22.3546  -14.5558   20.6703 O   0  0  0  0  0  0
  -24.6174  -31.8659   23.2077 C   0  0  0  0  0  0
  -25.9061  -32.4814   23.8376 C   0  0  1  0  0  0
  -27.2341  -27.4140   20.1033 C   0  0  0  0  0  0
  -25.5922  -33.8612   24.2322 N   0  0  0  0  0  0
  -23.4062  -30.4866   21.5491 C   0  0  2  0  0  0
  -24.8556  -28.9509   20.1124 C   0  0  0  0  0  0
  -22.7420  -29.4639   22.4998 C   0  0  0  0  0  0
  -18.0266  -28.1364   22.8481 C   0  0  0  0  0  0
  -24.1484  -36.7289   23.2631 C   0  0  0  0  0  0
  -25.9354  -30.8262   21.3616 C   0  0  0  0  0  0
  -26.0173  -29.4580   20.7108 C   0  0  0  0  0  0
  -27.2138  -28.6975   20.7020 C   0  0  0  0  0  0
  -26.0594  -26.9297   19.4920 C   0  0  0  0  0  0
  -24.8735  -27.6873   19.4969 C   0  0  0  0  0  0
  -23.6145  -29.8145   20.1653 C   0  0  0  0  0  0
  -25.4097  -36.3097   24.0343 C   0  0  1  0  0  0
  -20.5857  -28.3647   23.1315 C   0  0  2  0  0  0
  -20.6755  -26.9382   22.5402 C   0  0  0  0  0  0
  -19.5737  -26.6365   21.5198 C   0  0  0  0  0  0
  -18.1914  -26.7907   22.1603 C   0  0  0  0  0  0
  -19.1516  -28.8822   23.2892 C   0  0  0  0  0  0
  -18.9451  -30.1431   23.8900 C   0  0  0  0  0  0
  -17.6458  -30.6580   24.0554 C   0  0  0  0  0  0
  -25.9029  -34.9473   23.5122 C   0  0  0  0  0  0
  -16.5345  -29.9070   23.6339 C   0  0  0  0  0  0
  -16.7254  -28.6486   23.0358 C   0  0  0  0  0  0
  -26.4479  -31.6599   25.0710 C   0  0  0  0  0  0
  -25.3746  -31.3683   26.1463 C   0  0  0  0  0  0
  -27.0329  -30.3055   24.6060 C   0  0  0  0  0  0
  -27.6055  -32.4316   25.7484 C   0  0  0  0  0  0
  -27.5582  -37.1780   24.8456 C   0  0  0  0  0  0
  -21.4141  -29.3041   22.3753 N   0  0  0  0  0  0
  -26.4271  -37.3800   23.9438 N   0  0  0  0  0  0
  -24.6714  -31.0731   22.0990 N   0  0  0  0  0  0
  -23.4184  -28.8167   23.3033 O   0  0  0  0  0  0
  -28.3582  -26.6111   20.1111 O   0  0  0  0  0  0
  -26.5576  -34.8943   22.4669 O   0  0  0  0  0  0
  -23.5354  -32.1415   23.7454 O   0  0  0  0  0  0
  -29.9922  -19.2248   21.7500 C   0  0  0  0  0  0
  -29.8684  -18.6166   19.4156 C   0  0  0  0  0  0
  -30.1154  -17.8549   22.0952 C   0  0  0  0  0  0
  -29.9785  -17.2450   19.7612 C   0  0  0  0  0  0
  -29.8759  -19.6308   20.4025 C   0  0  0  0  0  0
  -30.1262  -16.8255   21.1119 C   0  0  0  0  0  0
  -30.4269  -15.0900   22.9117 C   0  0  0  0  0  0
  -27.5007  -21.0264   19.1872 C   0  0  0  0  0  0
  -29.8298  -21.1335   20.0163 C   0  0  0  0  0  0
  -29.0743  -24.2130   20.7198 C   0  0  0  0  0  0
  -28.4456  -23.2415   19.6775 C   0  0  0  0  0  0
  -28.2671  -25.5112   21.0438 C   0  0  0  0  0  0
  -30.2806  -15.4218   21.4851 N   0  0  0  0  0  0
  -28.4748  -21.7732   20.0242 N   0  3  1  0  0  0
  -31.4627  -12.4154   19.1310 H   0  0  0  0  0  0
  -30.3138  -11.3289   19.8486 H   0  0  0  0  0  0
  -29.7438  -11.7726   17.4448 H   0  0  0  0  0  0
  -29.6440  -13.4886   17.7626 H   0  0  0  0  0  0
  -27.8615  -11.2888   18.8666 H   0  0  0  0  0  0
  -27.3574  -12.5709   17.7971 H   0  0  0  0  0  0
  -27.6938  -14.2516   19.5374 H   0  0  0  0  0  0
  -28.6728  -12.0176   21.3806 H   0  0  0  0  0  0
  -28.4261  -13.6772   21.8338 H   0  0  0  0  0  0
  -25.2757   -9.5687   22.4763 H   0  0  0  0  0  0
  -23.9991   -7.4644   22.7489 H   0  0  0  0  0  0
  -21.0840   -8.8776   19.8948 H   0  0  0  0  0  0
  -22.3713  -10.9668   19.6152 H   0  0  0  0  0  0
  -21.2005   -7.6155   23.9717 H   0  0  0  0  0  0
  -21.1471   -6.0530   25.9071 H   0  0  0  0  0  0
  -22.0597   -2.7620   23.2843 H   0  0  0  0  0  0
  -22.4119  -11.9870   22.4739 H   0  0  0  0  0  0
  -21.1114  -13.1235   22.2585 H   0  0  0  0  0  0
  -24.6710  -15.8482   20.5325 H   0  0  0  0  0  0
  -26.2960  -15.6305   20.1225 H   0  0  0  0  0  0
  -26.7131  -32.5524   23.1142 H   0  0  0  0  0  0
  -25.0199  -33.9770   25.0553 H   0  0  0  0  0  0
  -22.6958  -31.3033   21.4049 H   0  0  0  0  0  0
  -23.3783  -35.9585   23.3252 H   0  0  0  0  0  0
  -24.3598  -36.8933   22.2056 H   0  0  0  0  0  0
  -23.7185  -37.6461   23.6664 H   0  0  0  0  0  0
  -26.0405  -31.5888   20.5886 H   0  0  0  0  0  0
  -26.8262  -30.8865   21.9760 H   0  0  0  0  0  0
  -28.1095  -29.0788   21.1718 H   0  0  0  0  0  0
  -26.0598  -25.9556   19.0237 H   0  0  0  0  0  0
  -23.9826  -27.2928   19.0280 H   0  0  0  0  0  0
  -23.7119  -30.5873   19.4016 H   0  0  0  0  0  0
  -22.7408  -29.2275   19.8760 H   0  0  0  0  0  0
  -25.1263  -36.1949   25.0830 H   0  0  0  0  0  0
  -20.9921  -28.3186   24.1444 H   0  0  0  0  0  0
  -20.5643  -26.2249   23.3578 H   0  0  0  0  0  0
  -21.6620  -26.7415   22.1191 H   0  0  0  0  0  0
  -19.6906  -25.6275   21.1217 H   0  0  0  0  0  0
  -19.6690  -27.3189   20.6740 H   0  0  0  0  0  0
  -17.4175  -26.6675   21.4000 H   0  0  0  0  0  0
  -18.0317  -26.0032   22.8978 H   0  0  0  0  0  0
  -19.7943  -30.7242   24.2260 H   0  0  0  0  0  0
  -17.5025  -31.6273   24.5133 H   0  0  0  0  0  0
  -15.5349  -30.2979   23.7677 H   0  0  0  0  0  0
  -15.8645  -28.0808   22.7081 H   0  0  0  0  0  0
  -24.5945  -30.6990   25.7807 H   0  0  0  0  0  0
  -24.8908  -32.2829   26.4911 H   0  0  0  0  0  0
  -25.8112  -30.8865   27.0224 H   0  0  0  0  0  0
  -26.2872  -29.6798   24.1138 H   0  0  0  0  0  0
  -27.4177  -29.7291   25.4485 H   0  0  0  0  0  0
  -27.8665  -30.4411   23.9163 H   0  0  0  0  0  0
  -27.2688  -33.3640   26.2032 H   0  0  0  0  0  0
  -28.3899  -32.6824   25.0329 H   0  0  0  0  0  0
  -28.0688  -31.8448   26.5430 H   0  0  0  0  0  0
  -28.2531  -38.0151   24.7617 H   0  0  0  0  0  0
  -28.1153  -36.2687   24.6133 H   0  0  0  0  0  0
  -27.2322  -37.1235   25.8862 H   0  0  0  0  0  0
  -20.9306  -29.8792   21.6998 H   0  0  0  0  0  0
  -26.0154  -38.2859   24.1528 H   0  0  0  0  0  0
  -30.0122  -19.9679   22.5356 H   0  0  0  0  0  0
  -29.7925  -18.8864   18.3713 H   0  0  0  0  0  0
  -30.2213  -17.6251   23.1455 H   0  0  0  0  0  0
  -29.9718  -16.5210   18.9585 H   0  0  0  0  0  0
  -31.3483  -15.5210   23.3071 H   0  0  0  0  0  0
  -30.4791  -14.0152   23.0988 H   0  0  0  0  0  0
  -29.5857  -15.4645   23.4949 H   0  0  0  0  0  0
  -27.3729  -19.9992   19.5282 H   0  0  0  0  0  0
  -27.8252  -21.0006   18.1459 H   0  0  0  0  0  0
  -26.5112  -21.4846   19.2159 H   0  0  0  0  0  0
  -30.2695  -21.2492   19.0242 H   0  0  0  0  0  0
  -30.4892  -21.6797   20.6925 H   0  0  0  0  0  0
  -30.0931  -24.4676   20.4262 H   0  0  0  0  0  0
  -29.1769  -23.6732   21.6622 H   0  0  0  0  0  0
  -28.9028  -23.4008   18.6999 H   0  0  0  0  0  0
  -27.4009  -23.5321   19.5568 H   0  0  0  0  0  0
  -28.6376  -25.8982   21.9942 H   0  0  0  0  0  0
  -27.2292  -25.2347   21.2448 H   0  0  0  0  0  0
  -28.1297  -21.6933   20.9684 H   0  0  0  0  0  0
  1 25  1  0  0  0
  1 30  2  0  0  0
  1 83  1  0  0  0
  2  3  1  0  0  0
  2 25  1  0  0  0
  2 85  1  0  0  0
  2 86  1  0  0  0
  3  4  1  0  0  0
  3 87  1  0  0  0
  3 88  1  0  0  0
  4  5  1  0  0  0
  4 89  1  0  0  0
  4 90  1  0  0  0
  5  6  1  0  0  0
  5 26  1  0  0  0
  5 91  1  0  0  0
  6 25  1  0  0  0
  6 92  1  0  0  0
  6 93  1  0  0  0
  7  8  2  0  0  0
  7 26  1  0  0  0
  7 29  1  0  0  0
  8  9  1  0  0  0
  8 22  1  0  0  0
  9 10  1  0  0  0
  9 27  2  0  0  0
 10 11  2  0  0  0
 10 15  1  0  0  0
 11 12  1  0  0  0
 11 94  1  0  0  0
 12 13  2  0  0  0
 12 95  1  0  0  0
 13 14  1  0  0  0
 13 31  1  0  0  0
 14 15  2  0  0  0
 14 96  1  0  0  0
 15 97  1  0  0  0
 16 17  2  0  0  0
 16 21  1  0  0  0
 16 31  1  0  0  0
 17 18  1  0  0  0
 17 98  1  0  0  0
 18 19  2  0  0  0
 18 99  1  0  0  0
 19 20  1  0  0  0
 19 24  1  0  0  0
 20 21  2  0  0  0
 20100  1  0  0  0
 21 23  1  0  0  0
 22 28  1  0  0  0
 22 32  2  0  0  0
 26 27  1  0  0  0
 28101  1  0  0  0
 28102  1  0  0  0
 29103  1  0  0  0
 29104  1  0  0  0
 33 34  1  0  0  0
 33 66  1  0  0  0
 33 70  2  0  0  0
 34 36  1  0  0  0
 34 59  1  0  0  0
 34105  1  0  0  0
 35 44  2  0  0  0
 35 45  1  0  0  0
 35 68  1  0  0  0
 36 56  1  0  0  0
 36106  1  0  0  0
 37 39  1  0  0  0
 37 47  1  0  0  0
 37 66  1  0  0  0
 37107  1  0  0  0
 38 43  2  0  0  0
 38 46  1  0  0  0
 38 47  1  0  0  0
 39 64  1  0  0  0
 39 67  2  0  0  0
 40 52  1  0  0  0
 40 53  2  0  0  0
 40 58  1  0  0  0
 41108  1  0  0  0
 41109  1  0  0  0
 41110  1  0  0  0
 41 48  1  0  0  0
 42 43  1  0  0  0
 42 66  1  0  0  0
 42111  1  0  0  0
 42112  1  0  0  0
 43 44  1  0  0  0
 44113  1  0  0  0
 45 46  2  0  0  0
 45114  1  0  0  0
 46115  1  0  0  0
 47116  1  0  0  0
 47117  1  0  0  0
 48 56  1  0  0  0
 48 65  1  0  0  0
 48118  1  0  0  0
 49 50  1  0  0  0
 49 53  1  0  0  0
 49 64  1  0  0  0
 49119  1  0  0  0
 50 51  1  0  0  0
 50120  1  0  0  0
 50121  1  0  0  0
 51 52  1  0  0  0
 51122  1  0  0  0
 51123  1  0  0  0
 52124  1  0  0  0
 52125  1  0  0  0
 53 54  1  0  0  0
 54 55  2  0  0  0
 54126  1  0  0  0
 55 57  1  0  0  0
 55127  1  0  0  0
 56 69  2  0  0  0
 57 58  2  0  0  0
 57128  1  0  0  0
 58129  1  0  0  0
 59 60  1  0  0  0
 59 61  1  0  0  0
 59 62  1  0  0  0
 60130  1  0  0  0
 60131  1  0  0  0
 60132  1  0  0  0
 61133  1  0  0  0
 61134  1  0  0  0
 61135  1  0  0  0
 62136  1  0  0  0
 62137  1  0  0  0
 62138  1  0  0  0
 63 65  1  0  0  0
 63139  1  0  0  0
 63140  1  0  0  0
 63141  1  0  0  0
 64142  1  0  0  0
 65143  1  0  0  0
 68 82  1  0  0  0
 71 73  2  0  0  0
 71 75  1  0  0  0
 71144  1  0  0  0
 72 74  1  0  0  0
 72 75  2  0  0  0
 72145  1  0  0  0
 73 76  1  0  0  0
 73146  1  0  0  0
 74 76  2  0  0  0
 74147  1  0  0  0
 75 79  1  0  0  0
 76 83  1  0  0  0
 77 83  1  0  0  0
 77148  1  0  0  0
 77149  1  0  0  0
 77150  1  0  0  0
 78151  1  0  0  0
 78152  1  0  0  0
 78153  1  0  0  0
 78 84  1  0  0  0
 79 84  1  0  0  0
 79154  1  0  0  0
 79155  1  0  0  0
 80 81  1  0  0  0
 80 82  1  0  0  0
 80156  1  0  0  0
 80157  1  0  0  0
 81 84  1  0  0  0
 81158  1  0  0  0
 81159  1  0  0  0
 82160  1  0  0  0
 82161  1  0  0  0
 84162  1  0  0  0
M  CHG  1  84   1
M  ISO  4   1 100  68 101  82 101  83 100
M  END
> <chiral flag>
0

> <version>
0

> <s_m_source_file>
/data/baiqing/PycharmProjects/Reinvent-master-3.2/result/LINK_invent/BTK/process_docking_weight1_custom_product_contain_oxygen_bond_distance_aromatic_linkinvent_7_9_3/rearranged_h_0017.sdf

> <i_m_source_file_index>
28

> <r_mmod_Potential_Energy-OPLS-2005>
15.3480434417725

> <r_mmod_Stretch_Energy-OPLS-2005>
52.8608551025391

> <r_mmod_Bend_Energy-OPLS-2005>
111.99144744873

> <r_mmod_Torsional_Energy-OPLS-2005>
302.245422363281

> <r_mmod_Improper_Torsional_Energy-OPLS-2005>
2.93491387367249

> <r_mmod_Van_der_Waal_Energy-OPLS-2005>
154.772994995117

> <r_mmod_Electrostatic_Energy-OPLS-2005>
-191.54020690918

> <r_mmod_Solvation_Energy-OPLS-2005>
-433.879608154297

> <b_mmod_Minimization_Converged-OPLS-2005>
0

> <r_mmod_RMS_Derivative-OPLS-2005>
1.88787949085236

$$$$
29
                    3D
 Structure written by MMmdl.
171180  0  0  1  0            999 V2000
  -30.7158  -14.4611   20.5915 C   0  0  0  0  0  0
  -30.4127  -12.3090   19.4235 C   0  0  0  0  0  0
  -29.4898  -12.5159   18.2077 C   0  0  0  0  0  0
  -28.0108  -12.3753   18.6176 C   0  0  0  0  0  0
  -27.6572  -13.2105   19.8784 C   0  0  2  0  0  0
  -28.6982  -12.9964   20.9992 C   0  0  0  0  0  0
  -25.2540  -13.8168   20.5706 C   0  0  0  0  0  0
  -24.1804  -13.0436   20.9202 C   0  0  0  0  0  0
  -24.6366  -11.6906   20.8749 C   0  0  0  0  0  0
  -23.9044  -10.4288   21.0417 C   0  0  0  0  0  0
  -24.3607   -9.4221   21.9199 C   0  0  0  0  0  0
  -23.6281   -8.2250   22.0755 C   0  0  0  0  0  0
  -22.4268   -8.0277   21.3544 C   0  0  0  0  0  0
  -21.9909   -9.0244   20.4646 C   0  0  0  0  0  0
  -22.7220  -10.2128   20.3061 C   0  0  0  0  0  0
  -21.6851   -6.0732   22.5265 C   0  0  0  0  0  0
  -21.4017   -6.5634   23.8208 C   0  0  0  0  0  0
  -21.3670   -5.6788   24.9168 C   0  0  0  0  0  0
  -21.6051   -4.3050   24.7221 C   0  0  0  0  0  0
  -21.8820   -3.8140   23.4343 C   0  0  0  0  0  0
  -21.9189   -4.6958   22.3403 C   0  0  0  0  0  0
  -22.7826  -13.5232   21.1854 C   0  0  0  0  0  0
  -22.1649   -4.2135   21.0979 F   0  0  0  0  0  0
  -21.5644   -3.4543   25.7746 F   0  0  0  0  0  0
  -30.0278  -13.2967   20.4424 N   0  0  0  0  0  0
  -26.2984  -12.9346   20.3386 N   0  0  0  0  0  0
  -25.9300  -11.6502   20.5800 N   0  0  0  0  0  0
  -22.0458  -12.8213   22.0399 N   0  0  0  0  0  0
  -25.4235  -15.1892   20.4118 N   0  0  0  0  0  0
  -31.8309  -14.6418   20.0942 O   0  0  0  0  0  0
  -21.6648   -6.8872   21.4233 O   0  0  0  0  0  0
  -22.3508  -14.5543   20.6703 O   0  0  0  0  0  0
  -24.6137  -31.8666   23.2162 C   0  0  0  0  0  0
  -25.9027  -32.4825   23.8427 C   0  0  1  0  0  0
  -27.2232  -27.4312   20.1070 C   0  0  0  0  0  0
  -25.5877  -33.8621   24.2349 N   0  0  0  0  0  0
  -23.4012  -30.4901   21.5568 C   0  0  2  0  0  0
  -24.8475  -28.9521   20.1272 C   0  0  0  0  0  0
  -22.7402  -29.4654   22.5059 C   0  0  0  0  0  0
  -18.0241  -28.1375   22.8518 C   0  0  0  0  0  0
  -24.1476  -36.7303   23.2637 C   0  0  0  0  0  0
  -25.9309  -30.8262   21.3752 C   0  0  0  0  0  0
  -26.0070  -29.4581   20.7311 C   0  0  0  0  0  0
  -27.2017  -28.6994   20.7318 C   0  0  0  0  0  0
  -26.0560  -26.9463   19.4884 C   0  0  0  0  0  0
  -24.8644  -27.6915   19.5075 C   0  0  0  0  0  0
  -23.6072  -29.8155   20.1742 C   0  0  0  0  0  0
  -25.4092  -36.3112   24.0346 C   0  0  1  0  0  0
  -20.5840  -28.3648   23.1344 C   0  0  2  0  0  0
  -20.6721  -26.9385   22.5437 C   0  0  0  0  0  0
  -19.5694  -26.6384   21.5235 C   0  0  0  0  0  0
  -18.1875  -26.7936   22.1641 C   0  0  0  0  0  0
  -19.1495  -28.8832   23.2928 C   0  0  0  0  0  0
  -18.9426  -30.1462   23.8905 C   0  0  0  0  0  0
  -17.6426  -30.6586   24.0570 C   0  0  0  0  0  0
  -25.9029  -34.9474   23.5151 C   0  0  0  0  0  0
  -16.5314  -29.9078   23.6358 C   0  0  0  0  0  0
  -16.7233  -28.6508   23.0370 C   0  0  0  0  0  0
  -26.4450  -31.6590   25.0747 C   0  0  0  0  0  0
  -25.3723  -31.3656   26.1492 C   0  0  0  0  0  0
  -27.0272  -30.3024   24.6146 C   0  0  0  0  0  0
  -27.6061  -32.4275   25.7476 C   0  0  0  0  0  0
  -27.5597  -37.1774   24.8446 C   0  0  0  0  0  0
  -21.4133  -29.3015   22.3775 N   0  0  0  0  0  0
  -26.4272  -37.3807   23.9445 N   0  0  0  0  0  0
  -24.6667  -31.0770   22.1069 N   0  0  0  0  0  0
  -23.4180  -28.8176   23.3080 O   0  0  0  0  0  0
  -28.3502  -26.6518   20.0086 O   0  0  0  0  0  0
  -26.5626  -34.8928   22.4733 O   0  0  0  0  0  0
  -23.5338  -32.1405   23.7573 O   0  0  0  0  0  0
  -28.6743  -18.0453   20.6186 C   0  0  0  0  0  0
  -30.5922  -19.2510   21.4665 C   0  0  0  0  0  0
  -28.0541  -19.2791   20.3079 C   0  0  0  0  0  0
  -29.9726  -20.4803   21.1568 C   0  0  0  0  0  0
  -29.9526  -18.0198   21.2161 C   0  0  0  0  0  0
  -28.6802  -20.5281   20.5787 C   0  0  0  0  0  0
  -27.3358  -23.9494   21.3578 C   0  0  0  0  0  0
  -29.4700  -23.8354   20.0168 C   0  0  0  0  0  0
  -27.8323  -25.2413   22.0384 C   0  0  0  0  0  0
  -29.9968  -25.0976   20.7412 C   0  0  0  0  0  0
  -28.5008  -23.0320   20.9072 C   0  0  2  0  0  0
  -28.8625  -26.0415   21.1974 C   0  0  1  0  0  0
  -26.6739  -21.7798   16.6848 C   0  0  0  0  0  0
  -30.6799  -16.7346   21.6303 C   0  0  0  0  0  0
  -27.7042  -21.5518   17.7960 C   0  0  0  0  0  0
  -27.0789  -21.8045   19.1747 C   0  0  0  0  0  0
  -30.0798  -15.4465   21.2516 N   0  0  0  0  0  0
  -28.0434  -21.7683   20.2812 N   0  0  0  0  0  0
  -31.4595  -12.3950   19.1275 H   0  0  0  0  0  0
  -30.3021  -11.2984   19.8200 H   0  0  0  0  0  0
  -29.7342  -11.8007   17.4217 H   0  0  0  0  0  0
  -29.6547  -13.5067   17.7813 H   0  0  0  0  0  0
  -27.8164  -11.3185   18.8055 H   0  0  0  0  0  0
  -27.3611  -12.6566   17.7884 H   0  0  0  0  0  0
  -27.7002  -14.2604   19.5842 H   0  0  0  0  0  0
  -28.6746  -11.9639   21.3505 H   0  0  0  0  0  0
  -28.4591  -13.6050   21.8721 H   0  0  0  0  0  0
  -25.2750   -9.5710   22.4774 H   0  0  0  0  0  0
  -24.0000   -7.4653   22.7470 H   0  0  0  0  0  0
  -21.0846   -8.8739   19.8944 H   0  0  0  0  0  0
  -22.3667  -10.9662   19.6168 H   0  0  0  0  0  0
  -21.2007   -7.6137   23.9706 H   0  0  0  0  0  0
  -21.1497   -6.0520   25.9069 H   0  0  0  0  0  0
  -22.0597   -2.7601   23.2846 H   0  0  0  0  0  0
  -22.4044  -11.9857   22.4774 H   0  0  0  0  0  0
  -21.1082  -13.1244   22.2624 H   0  0  0  0  0  0
  -24.6546  -15.8426   20.5218 H   0  0  0  0  0  0
  -26.2690  -15.6290   20.0724 H   0  0  0  0  0  0
  -26.7098  -32.5526   23.1185 H   0  0  0  0  0  0
  -24.9975  -33.9778   25.0462 H   0  0  0  0  0  0
  -22.6905  -31.3068   21.4178 H   0  0  0  0  0  0
  -23.3773  -35.9597   23.3232 H   0  0  0  0  0  0
  -24.3604  -36.8978   22.2069 H   0  0  0  0  0  0
  -23.7165  -37.6457   23.6688 H   0  0  0  0  0  0
  -26.0442  -31.5861   20.6010 H   0  0  0  0  0  0
  -26.8195  -30.8796   21.9928 H   0  0  0  0  0  0
  -28.0981  -29.0882   21.1937 H   0  0  0  0  0  0
  -26.0719  -25.9843   18.9975 H   0  0  0  0  0  0
  -23.9737  -27.2959   19.0372 H   0  0  0  0  0  0
  -23.7034  -30.5789   19.4024 H   0  0  0  0  0  0
  -22.7345  -29.2221   19.8951 H   0  0  0  0  0  0
  -25.1269  -36.1954   25.0830 H   0  0  0  0  0  0
  -20.9921  -28.3179   24.1469 H   0  0  0  0  0  0
  -20.5606  -26.2262   23.3632 H   0  0  0  0  0  0
  -21.6592  -26.7412   22.1217 H   0  0  0  0  0  0
  -19.6839  -25.6298   21.1256 H   0  0  0  0  0  0
  -19.6635  -27.3218   20.6787 H   0  0  0  0  0  0
  -17.4159  -26.6737   21.4023 H   0  0  0  0  0  0
  -18.0225  -26.0050   22.8999 H   0  0  0  0  0  0
  -19.7890  -30.7301   24.2258 H   0  0  0  0  0  0
  -17.4955  -31.6283   24.5145 H   0  0  0  0  0  0
  -15.5305  -30.2965   23.7711 H   0  0  0  0  0  0
  -15.8626  -28.0838   22.7071 H   0  0  0  0  0  0
  -24.5931  -30.6969   25.7805 H   0  0  0  0  0  0
  -24.8874  -32.2784   26.4965 H   0  0  0  0  0  0
  -25.8082  -30.8801   27.0235 H   0  0  0  0  0  0
  -26.2811  -29.6788   24.1206 H   0  0  0  0  0  0
  -27.4004  -29.7260   25.4626 H   0  0  0  0  0  0
  -27.8672  -30.4316   23.9315 H   0  0  0  0  0  0
  -27.2733  -33.3586   26.2069 H   0  0  0  0  0  0
  -28.3849  -32.6794   25.0262 H   0  0  0  0  0  0
  -28.0741  -31.8365   26.5362 H   0  0  0  0  0  0
  -28.2538  -38.0155   24.7638 H   0  0  0  0  0  0
  -28.1178  -36.2707   24.6072 H   0  0  0  0  0  0
  -27.2360  -37.1143   25.8851 H   0  0  0  0  0  0
  -20.9313  -29.8737   21.6984 H   0  0  0  0  0  0
  -26.0164  -38.2866   24.1531 H   0  0  0  0  0  0
  -28.1522  -17.1245   20.4010 H   0  0  0  0  0  0
  -31.5781  -19.2614   21.9099 H   0  0  0  0  0  0
  -27.0729  -19.2341   19.8619 H   0  0  0  0  0  0
  -30.5294  -21.3807   21.3681 H   0  0  0  0  0  0
  -26.7119  -24.2538   20.5207 H   0  0  0  0  0  0
  -26.6833  -23.4079   22.0422 H   0  0  0  0  0  0
  -30.3135  -23.2108   19.7188 H   0  0  0  0  0  0
  -28.9684  -24.1339   19.0959 H   0  0  0  0  0  0
  -28.2978  -24.9679   22.9862 H   0  0  0  0  0  0
  -26.9810  -25.8685   22.3052 H   0  0  0  0  0  0
  -30.6823  -25.6375   20.0861 H   0  0  0  0  0  0
  -30.5847  -24.7956   21.6101 H   0  0  0  0  0  0
  -29.0254  -22.7807   21.8286 H   0  0  0  0  0  0
  -29.2863  -26.8349   21.8153 H   0  0  0  0  0  0
  -27.0991  -21.5796   15.7015 H   0  0  0  0  0  0
  -26.3160  -22.8099   16.6914 H   0  0  0  0  0  0
  -25.8082  -21.1288   16.8117 H   0  0  0  0  0  0
  -30.7678  -16.7411   22.7168 H   0  0  0  0  0  0
  -31.7017  -16.8109   21.2575 H   0  0  0  0  0  0
  -28.5536  -22.2174   17.6394 H   0  0  0  0  0  0
  -28.0920  -20.5348   17.7293 H   0  0  0  0  0  0
  -26.2624  -21.1061   19.3572 H   0  0  0  0  0  0
  -26.5946  -22.7761   19.1278 H   0  0  0  0  0  0
  -29.1577  -15.2444   21.6051 H   0  0  0  0  0  0
  1 25  1  0  0  0
  1 30  2  0  0  0
  1 87  1  0  0  0
  2  3  1  0  0  0
  2 25  1  0  0  0
  2 89  1  0  0  0
  2 90  1  0  0  0
  3  4  1  0  0  0
  3 91  1  0  0  0
  3 92  1  0  0  0
  4  5  1  0  0  0
  4 93  1  0  0  0
  4 94  1  0  0  0
  5  6  1  0  0  0
  5 26  1  0  0  0
  5 95  1  0  0  0
  6 25  1  0  0  0
  6 96  1  0  0  0
  6 97  1  0  0  0
  7  8  2  0  0  0
  7 26  1  0  0  0
  7 29  1  0  0  0
  8  9  1  0  0  0
  8 22  1  0  0  0
  9 10  1  0  0  0
  9 27  2  0  0  0
 10 11  2  0  0  0
 10 15  1  0  0  0
 11 12  1  0  0  0
 11 98  1  0  0  0
 12 13  2  0  0  0
 12 99  1  0  0  0
 13 14  1  0  0  0
 13 31  1  0  0  0
 14 15  2  0  0  0
 14100  1  0  0  0
 15101  1  0  0  0
 16 17  2  0  0  0
 16 21  1  0  0  0
 16 31  1  0  0  0
 17 18  1  0  0  0
 17102  1  0  0  0
 18 19  2  0  0  0
 18103  1  0  0  0
 19 20  1  0  0  0
 19 24  1  0  0  0
 20 21  2  0  0  0
 20104  1  0  0  0
 21 23  1  0  0  0
 22 28  1  0  0  0
 22 32  2  0  0  0
 26 27  1  0  0  0
 28105  1  0  0  0
 28106  1  0  0  0
 29107  1  0  0  0
 29108  1  0  0  0
 33 34  1  0  0  0
 33 66  1  0  0  0
 33 70  2  0  0  0
 34 36  1  0  0  0
 34 59  1  0  0  0
 34109  1  0  0  0
 35 44  2  0  0  0
 35 45  1  0  0  0
 35 68  1  0  0  0
 36 56  1  0  0  0
 36110  1  0  0  0
 37 39  1  0  0  0
 37 47  1  0  0  0
 37 66  1  0  0  0
 37111  1  0  0  0
 38 43  2  0  0  0
 38 46  1  0  0  0
 38 47  1  0  0  0
 39 64  1  0  0  0
 39 67  2  0  0  0
 40 52  1  0  0  0
 40 53  2  0  0  0
 40 58  1  0  0  0
 41112  1  0  0  0
 41113  1  0  0  0
 41114  1  0  0  0
 41 48  1  0  0  0
 42 43  1  0  0  0
 42 66  1  0  0  0
 42115  1  0  0  0
 42116  1  0  0  0
 43 44  1  0  0  0
 44117  1  0  0  0
 45 46  2  0  0  0
 45118  1  0  0  0
 46119  1  0  0  0
 47120  1  0  0  0
 47121  1  0  0  0
 48 56  1  0  0  0
 48 65  1  0  0  0
 48122  1  0  0  0
 49 50  1  0  0  0
 49 53  1  0  0  0
 49 64  1  0  0  0
 49123  1  0  0  0
 50 51  1  0  0  0
 50124  1  0  0  0
 50125  1  0  0  0
 51 52  1  0  0  0
 51126  1  0  0  0
 51127  1  0  0  0
 52128  1  0  0  0
 52129  1  0  0  0
 53 54  1  0  0  0
 54 55  2  0  0  0
 54130  1  0  0  0
 55 57  1  0  0  0
 55131  1  0  0  0
 56 69  2  0  0  0
 57 58  2  0  0  0
 57132  1  0  0  0
 58133  1  0  0  0
 59 60  1  0  0  0
 59 61  1  0  0  0
 59 62  1  0  0  0
 60134  1  0  0  0
 60135  1  0  0  0
 60136  1  0  0  0
 61137  1  0  0  0
 61138  1  0  0  0
 61139  1  0  0  0
 62140  1  0  0  0
 62141  1  0  0  0
 62142  1  0  0  0
 63 65  1  0  0  0
 63143  1  0  0  0
 63144  1  0  0  0
 63145  1  0  0  0
 64146  1  0  0  0
 65147  1  0  0  0
 68 82  1  0  0  0
 71 73  2  0  0  0
 71 75  1  0  0  0
 71148  1  0  0  0
 72 74  1  0  0  0
 72 75  2  0  0  0
 72149  1  0  0  0
 73 76  1  0  0  0
 73150  1  0  0  0
 74 76  2  0  0  0
 74151  1  0  0  0
 75 84  1  0  0  0
 76 88  1  0  0  0
 77 79  1  0  0  0
 77 81  1  0  0  0
 77152  1  0  0  0
 77153  1  0  0  0
 78 80  1  0  0  0
 78 81  1  0  0  0
 78154  1  0  0  0
 78155  1  0  0  0
 79 82  1  0  0  0
 79156  1  0  0  0
 79157  1  0  0  0
 80 82  1  0  0  0
 80158  1  0  0  0
 80159  1  0  0  0
 81 88  1  0  0  0
 81160  1  0  0  0
 82161  1  0  0  0
 83 85  1  0  0  0
 83162  1  0  0  0
 83163  1  0  0  0
 83164  1  0  0  0
 84 87  1  0  0  0
 84165  1  0  0  0
 84166  1  0  0  0
 85 86  1  0  0  0
 85167  1  0  0  0
 85168  1  0  0  0
 86 88  1  0  0  0
 86169  1  0  0  0
 86170  1  0  0  0
 87171  1  0  0  0
M  ISO  4   1 100  68 101  82 101  87 100
M  END
> <chiral flag>
0

> <version>
0

> <s_m_source_file>
/data/baiqing/PycharmProjects/Reinvent-master-3.2/result/LINK_invent/BTK/process_docking_weight1_custom_product_contain_oxygen_bond_distance_aromatic_linkinvent_7_9_3/rearranged_h_0017.sdf

> <i_m_source_file_index>
29

> <r_mmod_Potential_Energy-OPLS-2005>
-107.019256591797

> <r_mmod_Stretch_Energy-OPLS-2005>
40.5325469970703

> <r_mmod_Bend_Energy-OPLS-2005>
121.703956604004

> <r_mmod_Torsional_Energy-OPLS-2005>
236.273788452148

> <r_mmod_Improper_Torsional_Energy-OPLS-2005>
2.69669699668884

> <r_mmod_Van_der_Waal_Energy-OPLS-2005>
155.546859741211

> <r_mmod_Electrostatic_Energy-OPLS-2005>
-467.328063964844

> <r_mmod_Solvation_Energy-OPLS-2005>
-208.350204467773

> <b_mmod_Minimization_Converged-OPLS-2005>
0

> <r_mmod_RMS_Derivative-OPLS-2005>
2.66082119941711

$$$$
30
                    3D
 Structure written by MMmdl.
168176  0  0  1  0            999 V2000
  -30.7576  -14.4191   20.6591 C   0  0  0  0  0  0
  -30.4150  -12.3107   19.4106 C   0  0  0  0  0  0
  -29.4843  -12.5124   18.1997 C   0  0  0  0  0  0
  -28.0101  -12.3522   18.6161 C   0  0  0  0  0  0
  -27.6592  -13.1918   19.8702 C   0  0  2  0  0  0
  -28.7003  -12.9673   20.9932 C   0  0  0  0  0  0
  -25.2596  -13.8131   20.5665 C   0  0  0  0  0  0
  -24.1836  -13.0433   20.9187 C   0  0  0  0  0  0
  -24.6366  -11.6894   20.8748 C   0  0  0  0  0  0
  -23.9034  -10.4286   21.0420 C   0  0  0  0  0  0
  -24.3592   -9.4205   21.9196 C   0  0  0  0  0  0
  -23.6274   -8.2238   22.0758 C   0  0  0  0  0  0
  -22.4263   -8.0271   21.3541 C   0  0  0  0  0  0
  -21.9892   -9.0244   20.4646 C   0  0  0  0  0  0
  -22.7213  -10.2128   20.3062 C   0  0  0  0  0  0
  -21.6841   -6.0734   22.5275 C   0  0  0  0  0  0
  -21.4006   -6.5636   23.8211 C   0  0  0  0  0  0
  -21.3661   -5.6788   24.9174 C   0  0  0  0  0  0
  -21.6047   -4.3052   24.7222 C   0  0  0  0  0  0
  -21.8822   -3.8146   23.4343 C   0  0  0  0  0  0
  -21.9191   -4.6962   22.3399 C   0  0  0  0  0  0
  -22.7865  -13.5245   21.1854 C   0  0  0  0  0  0
  -22.1662   -4.2146   21.0976 F   0  0  0  0  0  0
  -21.5635   -3.4547   25.7743 F   0  0  0  0  0  0
  -30.0352  -13.2798   20.4546 N   0  0  0  0  0  0
  -26.3002  -12.9264   20.3334 N   0  0  0  0  0  0
  -25.9279  -11.6445   20.5758 N   0  0  0  0  0  0
  -22.0492  -12.8237   22.0402 N   0  0  0  0  0  0
  -25.4323  -15.1844   20.4051 N   0  0  0  0  0  0
  -31.8220  -14.6303   20.0660 O   0  0  0  0  0  0
  -21.6625   -6.8873   21.4234 O   0  0  0  0  0  0
  -22.3566  -14.5561   20.6716 O   0  0  0  0  0  0
  -24.6086  -31.8707   23.2127 C   0  0  0  0  0  0
  -25.8996  -32.4836   23.8425 C   0  0  1  0  0  0
  -27.2614  -27.4713   20.1056 C   0  0  0  0  0  0
  -25.5869  -33.8631   24.2365 N   0  0  0  0  0  0
  -23.3965  -30.4915   21.5502 C   0  0  2  0  0  0
  -24.8494  -28.9569   20.1225 C   0  0  0  0  0  0
  -22.7379  -29.4668   22.5004 C   0  0  0  0  0  0
  -18.0264  -28.1372   22.8501 C   0  0  0  0  0  0
  -24.1480  -36.7314   23.2646 C   0  0  0  0  0  0
  -25.9179  -30.8485   21.3595 C   0  0  0  0  0  0
  -26.0014  -29.4793   20.7221 C   0  0  0  0  0  0
  -27.2053  -28.7452   20.7225 C   0  0  0  0  0  0
  -26.0917  -26.9619   19.5038 C   0  0  0  0  0  0
  -24.8863  -27.6906   19.5127 C   0  0  0  0  0  0
  -23.6068  -29.8176   20.1664 C   0  0  0  0  0  0
  -25.4095  -36.3118   24.0362 C   0  0  1  0  0  0
  -20.5854  -28.3658   23.1327 C   0  0  2  0  0  0
  -20.6753  -26.9399   22.5418 C   0  0  0  0  0  0
  -19.5735  -26.6387   21.5209 C   0  0  0  0  0  0
  -18.1910  -26.7925   22.1619 C   0  0  0  0  0  0
  -19.1517  -28.8830   23.2918 C   0  0  0  0  0  0
  -18.9444  -30.1439   23.8928 C   0  0  0  0  0  0
  -17.6448  -30.6587   24.0571 C   0  0  0  0  0  0
  -25.9020  -34.9481   23.5158 C   0  0  0  0  0  0
  -16.5342  -29.9089   23.6329 C   0  0  0  0  0  0
  -16.7258  -28.6502   23.0359 C   0  0  0  0  0  0
  -26.4457  -31.6597   25.0724 C   0  0  0  0  0  0
  -25.3747  -31.3650   26.1483 C   0  0  0  0  0  0
  -27.0313  -30.3070   24.6041 C   0  0  0  0  0  0
  -27.6045  -32.4311   25.7474 C   0  0  0  0  0  0
  -27.5587  -37.1798   24.8467 C   0  0  0  0  0  0
  -21.4114  -29.3033   22.3737 N   0  0  0  0  0  0
  -26.4284  -37.3798   23.9435 N   0  0  0  0  0  0
  -24.6587  -31.0843   22.1005 N   0  0  0  0  0  0
  -23.4159  -28.8217   23.3045 O   0  0  0  0  0  0
  -28.3927  -26.6886   19.9922 O   0  0  0  0  0  0
  -26.5580  -34.8927   22.4717 O   0  0  0  0  0  0
  -23.5290  -32.1435   23.7547 O   0  0  0  0  0  0
  -30.0807  -18.8348   18.9768 C   0  0  0  0  0  0
  -29.9076  -17.5779   19.5864 C   0  0  0  0  0  0
  -29.7818  -20.0131   19.6860 C   0  0  0  0  0  0
  -29.1461  -18.6756   21.6251 C   0  0  0  0  0  0
  -29.4395  -17.4878   20.9155 C   0  0  0  0  0  0
  -29.3109  -19.9412   21.0142 C   0  0  0  0  0  0
  -31.3893  -15.7836   22.5640 C   0  0  0  0  0  0
  -30.9306  -21.2412   23.2394 C   0  0  0  0  0  0
  -29.1888  -16.1238   21.5589 C   0  0  0  0  0  0
  -28.9514  -21.2233   21.7620 C   0  0  0  0  0  0
  -29.6734  -24.3764   21.5189 C   0  0  0  0  0  0
  -29.4674  -25.8284   22.0032 C   0  0  0  0  0  0
  -29.8105  -23.3650   22.6802 C   0  0  0  0  0  0
  -29.5088  -26.8637   20.8643 C   0  0  0  0  0  0
  -30.3662  -15.2408   21.6646 N   0  0  0  0  0  0
  -30.1413  -21.9845   22.2262 N   0  3  1  0  0  0
  -31.4570  -12.4080   19.1017 H   0  0  0  0  0  0
  -30.3212  -11.2954   19.7985 H   0  0  0  0  0  0
  -29.7296  -11.7974   17.4129 H   0  0  0  0  0  0
  -29.6405  -13.5037   17.7716 H   0  0  0  0  0  0
  -27.8317  -11.2948   18.8165 H   0  0  0  0  0  0
  -27.3530  -12.6186   17.7873 H   0  0  0  0  0  0
  -27.6990  -14.2305   19.5493 H   0  0  0  0  0  0
  -28.6805  -11.9264   21.3191 H   0  0  0  0  0  0
  -28.4504  -13.5430   21.8840 H   0  0  0  0  0  0
  -25.2736   -9.5690   22.4770 H   0  0  0  0  0  0
  -23.9995   -7.4631   22.7477 H   0  0  0  0  0  0
  -21.0831   -8.8758   19.8945 H   0  0  0  0  0  0
  -22.3675  -10.9670   19.6171 H   0  0  0  0  0  0
  -21.1990   -7.6143   23.9713 H   0  0  0  0  0  0
  -21.1482   -6.0519   25.9076 H   0  0  0  0  0  0
  -22.0599   -2.7607   23.2845 H   0  0  0  0  0  0
  -22.4097  -11.9887   22.4777 H   0  0  0  0  0  0
  -21.1116  -13.1272   22.2610 H   0  0  0  0  0  0
  -24.6638  -15.8372   20.5143 H   0  0  0  0  0  0
  -26.2764  -15.6240   20.0611 H   0  0  0  0  0  0
  -26.7076  -32.5590   23.1212 H   0  0  0  0  0  0
  -25.0051  -33.9802   25.0531 H   0  0  0  0  0  0
  -22.6835  -31.3061   21.4076 H   0  0  0  0  0  0
  -23.3750  -35.9634   23.3285 H   0  0  0  0  0  0
  -24.3598  -36.8942   22.2068 H   0  0  0  0  0  0
  -23.7209  -37.6504   23.6668 H   0  0  0  0  0  0
  -26.0168  -31.6080   20.5830 H   0  0  0  0  0  0
  -26.8099  -30.9168   21.9697 H   0  0  0  0  0  0
  -28.0719  -29.1970   21.1776 H   0  0  0  0  0  0
  -26.1203  -25.9951   19.0210 H   0  0  0  0  0  0
  -24.0036  -27.2778   19.0433 H   0  0  0  0  0  0
  -23.7106  -30.5889   19.4022 H   0  0  0  0  0  0
  -22.7342  -29.2309   19.8730 H   0  0  0  0  0  0
  -25.1257  -36.1994   25.0852 H   0  0  0  0  0  0
  -20.9953  -28.3222   24.1447 H   0  0  0  0  0  0
  -20.5645  -26.2267   23.3601 H   0  0  0  0  0  0
  -21.6627  -26.7434   22.1225 H   0  0  0  0  0  0
  -19.6894  -25.6299   21.1230 H   0  0  0  0  0  0
  -19.6675  -27.3205   20.6742 H   0  0  0  0  0  0
  -17.4183  -26.6698   21.4013 H   0  0  0  0  0  0
  -18.0300  -26.0051   22.8999 H   0  0  0  0  0  0
  -19.7919  -30.7249   24.2313 H   0  0  0  0  0  0
  -17.5002  -31.6269   24.5170 H   0  0  0  0  0  0
  -15.5343  -30.3006   23.7625 H   0  0  0  0  0  0
  -15.8661  -28.0825   22.7071 H   0  0  0  0  0  0
  -24.5938  -30.6978   25.7820 H   0  0  0  0  0  0
  -24.8912  -32.2777   26.4973 H   0  0  0  0  0  0
  -25.8131  -30.8803   27.0215 H   0  0  0  0  0  0
  -26.2840  -29.6794   24.1172 H   0  0  0  0  0  0
  -27.4221  -29.7334   25.4456 H   0  0  0  0  0  0
  -27.8600  -30.4453   23.9093 H   0  0  0  0  0  0
  -27.2688  -33.3618   26.2059 H   0  0  0  0  0  0
  -28.3838  -32.6850   25.0277 H   0  0  0  0  0  0
  -28.0718  -31.8419   26.5374 H   0  0  0  0  0  0
  -28.2568  -38.0133   24.7583 H   0  0  0  0  0  0
  -28.1118  -36.2670   24.6199 H   0  0  0  0  0  0
  -27.2324  -37.1344   25.8873 H   0  0  0  0  0  0
  -20.9257  -29.8762   21.6979 H   0  0  0  0  0  0
  -26.0173  -38.2869   24.1464 H   0  0  0  0  0  0
  -30.4300  -18.8946   17.9553 H   0  0  0  0  0  0
  -30.1199  -16.6859   19.0143 H   0  0  0  0  0  0
  -29.9033  -20.9705   19.1972 H   0  0  0  0  0  0
  -28.7719  -18.6145   22.6380 H   0  0  0  0  0  0
  -30.9434  -16.2392   23.4485 H   0  0  0  0  0  0
  -31.9861  -16.5450   22.0589 H   0  0  0  0  0  0
  -32.0647  -14.9982   22.9080 H   0  0  0  0  0  0
  -31.2565  -20.2706   22.8646 H   0  0  0  0  0  0
  -30.3488  -21.0757   24.1466 H   0  0  0  0  0  0
  -31.8334  -21.7888   23.5124 H   0  0  0  0  0  0
  -28.3930  -15.6589   20.9871 H   0  0  0  0  0  0
  -28.7684  -16.2591   22.5565 H   0  0  0  0  0  0
  -28.3070  -20.9917   22.6116 H   0  0  0  0  0  0
  -28.3523  -21.8402   21.0922 H   0  0  0  0  0  0
  -30.5740  -24.3368   20.9045 H   0  0  0  0  0  0
  -28.8449  -24.1000   20.8664 H   0  0  0  0  0  0
  -30.2575  -26.0770   22.7133 H   0  0  0  0  0  0
  -28.5285  -25.9179   22.5509 H   0  0  0  0  0  0
  -28.9056  -23.3513   23.2901 H   0  0  0  0  0  0
  -30.6042  -23.7244   23.3370 H   0  0  0  0  0  0
  -30.4110  -26.7083   20.2721 H   0  0  0  0  0  0
  -29.6158  -27.8660   21.2698 H   0  0  0  0  0  0
  -30.7507  -22.0830   21.4292 H   0  0  0  0  0  0
  1 25  1  0  0  0
  1 30  2  0  0  0
  1 85  1  0  0  0
  2  3  1  0  0  0
  2 25  1  0  0  0
  2 87  1  0  0  0
  2 88  1  0  0  0
  3  4  1  0  0  0
  3 89  1  0  0  0
  3 90  1  0  0  0
  4  5  1  0  0  0
  4 91  1  0  0  0
  4 92  1  0  0  0
  5  6  1  0  0  0
  5 26  1  0  0  0
  5 93  1  0  0  0
  6 25  1  0  0  0
  6 94  1  0  0  0
  6 95  1  0  0  0
  7  8  2  0  0  0
  7 26  1  0  0  0
  7 29  1  0  0  0
  8  9  1  0  0  0
  8 22  1  0  0  0
  9 10  1  0  0  0
  9 27  2  0  0  0
 10 11  2  0  0  0
 10 15  1  0  0  0
 11 12  1  0  0  0
 11 96  1  0  0  0
 12 13  2  0  0  0
 12 97  1  0  0  0
 13 14  1  0  0  0
 13 31  1  0  0  0
 14 15  2  0  0  0
 14 98  1  0  0  0
 15 99  1  0  0  0
 16 17  2  0  0  0
 16 21  1  0  0  0
 16 31  1  0  0  0
 17 18  1  0  0  0
 17100  1  0  0  0
 18 19  2  0  0  0
 18101  1  0  0  0
 19 20  1  0  0  0
 19 24  1  0  0  0
 20 21  2  0  0  0
 20102  1  0  0  0
 21 23  1  0  0  0
 22 28  1  0  0  0
 22 32  2  0  0  0
 26 27  1  0  0  0
 28103  1  0  0  0
 28104  1  0  0  0
 29105  1  0  0  0
 29106  1  0  0  0
 33 34  1  0  0  0
 33 66  1  0  0  0
 33 70  2  0  0  0
 34 36  1  0  0  0
 34 59  1  0  0  0
 34107  1  0  0  0
 35 44  2  0  0  0
 35 45  1  0  0  0
 35 68  1  0  0  0
 36 56  1  0  0  0
 36108  1  0  0  0
 37 39  1  0  0  0
 37 47  1  0  0  0
 37 66  1  0  0  0
 37109  1  0  0  0
 38 43  2  0  0  0
 38 46  1  0  0  0
 38 47  1  0  0  0
 39 64  1  0  0  0
 39 67  2  0  0  0
 40 52  1  0  0  0
 40 53  2  0  0  0
 40 58  1  0  0  0
 41110  1  0  0  0
 41111  1  0  0  0
 41112  1  0  0  0
 41 48  1  0  0  0
 42 43  1  0  0  0
 42 66  1  0  0  0
 42113  1  0  0  0
 42114  1  0  0  0
 43 44  1  0  0  0
 44115  1  0  0  0
 45 46  2  0  0  0
 45116  1  0  0  0
 46117  1  0  0  0
 47118  1  0  0  0
 47119  1  0  0  0
 48 56  1  0  0  0
 48 65  1  0  0  0
 48120  1  0  0  0
 49 50  1  0  0  0
 49 53  1  0  0  0
 49 64  1  0  0  0
 49121  1  0  0  0
 50 51  1  0  0  0
 50122  1  0  0  0
 50123  1  0  0  0
 51 52  1  0  0  0
 51124  1  0  0  0
 51125  1  0  0  0
 52126  1  0  0  0
 52127  1  0  0  0
 53 54  1  0  0  0
 54 55  2  0  0  0
 54128  1  0  0  0
 55 57  1  0  0  0
 55129  1  0  0  0
 56 69  2  0  0  0
 57 58  2  0  0  0
 57130  1  0  0  0
 58131  1  0  0  0
 59 60  1  0  0  0
 59 61  1  0  0  0
 59 62  1  0  0  0
 60132  1  0  0  0
 60133  1  0  0  0
 60134  1  0  0  0
 61135  1  0  0  0
 61136  1  0  0  0
 61137  1  0  0  0
 62138  1  0  0  0
 62139  1  0  0  0
 62140  1  0  0  0
 63 65  1  0  0  0
 63141  1  0  0  0
 63142  1  0  0  0
 63143  1  0  0  0
 64144  1  0  0  0
 65145  1  0  0  0
 68 84  1  0  0  0
 71 72  2  0  0  0
 71 73  1  0  0  0
 71146  1  0  0  0
 72 75  1  0  0  0
 72147  1  0  0  0
 73 76  2  0  0  0
 73148  1  0  0  0
 74 75  2  0  0  0
 74 76  1  0  0  0
 74149  1  0  0  0
 75 79  1  0  0  0
 76 80  1  0  0  0
 77 85  1  0  0  0
 77150  1  0  0  0
 77151  1  0  0  0
 77152  1  0  0  0
 78153  1  0  0  0
 78154  1  0  0  0
 78155  1  0  0  0
 78 86  1  0  0  0
 79 85  1  0  0  0
 79156  1  0  0  0
 79157  1  0  0  0
 80 86  1  0  0  0
 80158  1  0  0  0
 80159  1  0  0  0
 81 82  1  0  0  0
 81 83  1  0  0  0
 81160  1  0  0  0
 81161  1  0  0  0
 82 84  1  0  0  0
 82162  1  0  0  0
 82163  1  0  0  0
 83 86  1  0  0  0
 83164  1  0  0  0
 83165  1  0  0  0
 84166  1  0  0  0
 84167  1  0  0  0
 86168  1  0  0  0
M  CHG  1  86   1
M  ISO  4   1 100  68 101  84 101  85 100
M  END
> <chiral flag>
0

> <version>
0

> <s_m_source_file>
/data/baiqing/PycharmProjects/Reinvent-master-3.2/result/LINK_invent/BTK/process_docking_weight1_custom_product_contain_oxygen_bond_distance_aromatic_linkinvent_7_9_3/rearranged_h_0017.sdf

> <i_m_source_file_index>
30

> <r_mmod_Potential_Energy-OPLS-2005>
-80.8431015014648

> <r_mmod_Stretch_Energy-OPLS-2005>
36.8777923583984

> <r_mmod_Bend_Energy-OPLS-2005>
108.806015014648

> <r_mmod_Torsional_Energy-OPLS-2005>
251.335052490234

> <r_mmod_Improper_Torsional_Energy-OPLS-2005>
5.86882257461548

> <r_mmod_Van_der_Waal_Energy-OPLS-2005>
151.947418212891

> <r_mmod_Electrostatic_Energy-OPLS-2005>
-220.161911010742

> <r_mmod_Solvation_Energy-OPLS-2005>
-422.970153808594

> <b_mmod_Minimization_Converged-OPLS-2005>
0

> <r_mmod_RMS_Derivative-OPLS-2005>
1.09275794029236

$$$$
31
                    3D
 Structure written by MMmdl.
159167  0  0  1  0            999 V2000
  -30.6579  -14.5540   20.5115 C   0  0  0  0  0  0
  -30.4228  -12.3382   19.4344 C   0  0  0  0  0  0
  -29.4947  -12.4959   18.2096 C   0  0  0  0  0  0
  -28.0143  -12.3594   18.6188 C   0  0  0  0  0  0
  -27.6524  -13.2114   19.8653 C   0  0  2  0  0  0
  -28.6982  -13.0330   20.9899 C   0  0  0  0  0  0
  -25.2546  -13.8168   20.5700 C   0  0  0  0  0  0
  -24.1808  -13.0441   20.9191 C   0  0  0  0  0  0
  -24.6357  -11.6910   20.8736 C   0  0  0  0  0  0
  -23.9018  -10.4288   21.0393 C   0  0  0  0  0  0
  -24.3565   -9.4221   21.9184 C   0  0  0  0  0  0
  -23.6247   -8.2255   22.0765 C   0  0  0  0  0  0
  -22.4235   -8.0278   21.3546 C   0  0  0  0  0  0
  -21.9861   -9.0257   20.4655 C   0  0  0  0  0  0
  -22.7187  -10.2142   20.3053 C   0  0  0  0  0  0
  -21.6849   -6.0713   22.5270 C   0  0  0  0  0  0
  -21.4020   -6.5621   23.8205 C   0  0  0  0  0  0
  -21.3664   -5.6782   24.9172 C   0  0  0  0  0  0
  -21.6055   -4.3043   24.7223 C   0  0  0  0  0  0
  -21.8820   -3.8130   23.4341 C   0  0  0  0  0  0
  -21.9191   -4.6941   22.3395 C   0  0  0  0  0  0
  -22.7834  -13.5257   21.1808 C   0  0  0  0  0  0
  -22.1662   -4.2127   21.0969 F   0  0  0  0  0  0
  -21.5630   -3.4528   25.7737 F   0  0  0  0  0  0
  -30.0184  -13.3517   20.4229 N   0  0  0  0  0  0
  -26.2972  -12.9344   20.3340 N   0  0  0  0  0  0
  -25.9286  -11.6505   20.5754 N   0  0  0  0  0  0
  -22.0427  -12.8322   22.0379 N   0  0  0  0  0  0
  -25.4242  -15.1897   20.4098 N   0  0  0  0  0  0
  -31.8278  -14.6991   20.1431 O   0  0  0  0  0  0
  -21.6633   -6.8851   21.4224 O   0  0  0  0  0  0
  -22.3563  -14.5551   20.6616 O   0  0  0  0  0  0
  -24.6187  -31.8650   23.2061 C   0  0  0  0  0  0
  -25.9064  -32.4807   23.8358 C   0  0  1  0  0  0
  -27.2283  -27.3731   20.1010 C   0  0  0  0  0  0
  -25.5910  -33.8609   24.2300 N   0  0  0  0  0  0
  -23.4077  -30.4873   21.5469 C   0  0  2  0  0  0
  -24.8523  -28.9407   20.1148 C   0  0  0  0  0  0
  -22.7426  -29.4654   22.4984 C   0  0  0  0  0  0
  -18.0273  -28.1384   22.8498 C   0  0  0  0  0  0
  -24.1484  -36.7302   23.2633 C   0  0  0  0  0  0
  -25.9416  -30.8092   21.3696 C   0  0  0  0  0  0
  -26.0150  -29.4383   20.7143 C   0  0  0  0  0  0
  -27.2025  -28.6617   20.7025 C   0  0  0  0  0  0
  -26.0410  -26.9004   19.4999 C   0  0  0  0  0  0
  -24.8623  -27.6741   19.5055 C   0  0  0  0  0  0
  -23.6205  -29.8193   20.1620 C   0  0  0  0  0  0
  -25.4110  -36.3106   24.0331 C   0  0  1  0  0  0
  -20.5866  -28.3679   23.1339 C   0  0  2  0  0  0
  -20.6772  -26.9407   22.5469 C   0  0  0  0  0  0
  -19.5774  -26.6381   21.5260 C   0  0  0  0  0  0
  -18.1933  -26.7924   22.1634 C   0  0  0  0  0  0
  -19.1521  -28.8843   23.2906 C   0  0  0  0  0  0
  -18.9441  -30.1442   23.8932 C   0  0  0  0  0  0
  -17.6444  -30.6577   24.0578 C   0  0  0  0  0  0
  -25.9039  -34.9480   23.5120 C   0  0  0  0  0  0
  -16.5339  -29.9089   23.6327 C   0  0  0  0  0  0
  -16.7260  -28.6508   23.0342 C   0  0  0  0  0  0
  -26.4481  -31.6596   25.0703 C   0  0  0  0  0  0
  -25.3743  -31.3721   26.1453 C   0  0  0  0  0  0
  -27.0307  -30.3029   24.6091 C   0  0  0  0  0  0
  -27.6052  -32.4315   25.7475 C   0  0  0  0  0  0
  -27.5576  -37.1811   24.8463 C   0  0  0  0  0  0
  -21.4146  -29.3041   22.3746 N   0  0  0  0  0  0
  -26.4293  -37.3790   23.9410 N   0  0  0  0  0  0
  -24.6734  -31.0706   22.0986 N   0  0  0  0  0  0
  -23.4189  -28.8188   23.3031 O   0  0  0  0  0  0
  -28.4045  -26.6316   20.1300 O   0  0  0  0  0  0
  -26.5605  -34.8944   22.4682 O   0  0  0  0  0  0
  -23.5375  -32.1436   23.7435 O   0  0  0  0  0  0
  -31.6705  -18.9213   21.1664 C   0  0  0  0  0  0
  -30.6684  -19.8443   20.7978 C   0  0  0  0  0  0
  -31.4172  -17.5333   21.1667 C   0  0  0  0  0  0
  -29.1401  -17.9797   20.4511 C   0  0  0  0  0  0
  -29.3809  -19.3901   20.4375 C   0  0  0  0  0  0
  -30.1497  -17.0314   20.7955 C   0  0  0  0  0  0
  -28.2707  -22.2575   22.2130 C   0  0  0  0  0  0
  -28.2459  -20.3582   20.0037 C   0  0  0  0  0  0
  -28.4848  -21.9047   19.7383 C   0  0  0  0  0  0
  -27.8880  -24.2021   20.7427 C   0  0  0  0  0  0
  -28.4656  -25.2332   19.7142 C   0  0  0  0  0  0
  -29.8579  -15.6143   20.8101 N   0  0  0  0  0  0
  -28.5997  -22.8679   20.8980 N   0  3  1  0  0  0
  -31.4692  -12.4365   19.1369 H   0  0  0  0  0  0
  -30.3294  -11.3396   19.8616 H   0  0  0  0  0  0
  -29.7374  -11.7507   17.4512 H   0  0  0  0  0  0
  -29.6585  -13.4681   17.7428 H   0  0  0  0  0  0
  -27.8227  -11.3052   18.8241 H   0  0  0  0  0  0
  -27.3674  -12.6275   17.7817 H   0  0  0  0  0  0
  -27.6788  -14.2527   19.5453 H   0  0  0  0  0  0
  -28.6876  -12.0072   21.3624 H   0  0  0  0  0  0
  -28.4624  -13.6619   21.8500 H   0  0  0  0  0  0
  -25.2682   -9.5734   22.4790 H   0  0  0  0  0  0
  -23.9956   -7.4660   22.7507 H   0  0  0  0  0  0
  -21.0780   -8.8776   19.8968 H   0  0  0  0  0  0
  -22.3606  -10.9690   19.6193 H   0  0  0  0  0  0
  -21.2030   -7.6132   23.9702 H   0  0  0  0  0  0
  -21.1470   -6.0507   25.9076 H   0  0  0  0  0  0
  -22.0581   -2.7582   23.2851 H   0  0  0  0  0  0
  -22.3966  -11.9997   22.4842 H   0  0  0  0  0  0
  -21.1068  -13.1468   22.2514 H   0  0  0  0  0  0
  -24.6481  -15.8350   20.5074 H   0  0  0  0  0  0
  -26.2546  -15.6245   20.0292 H   0  0  0  0  0  0
  -26.7117  -32.5489   23.1098 H   0  0  0  0  0  0
  -25.0084  -33.9765   25.0461 H   0  0  0  0  0  0
  -22.6970  -31.3039   21.4052 H   0  0  0  0  0  0
  -23.3758  -35.9620   23.3302 H   0  0  0  0  0  0
  -24.3569  -36.8918   22.2043 H   0  0  0  0  0  0
  -23.7229  -37.6502   23.6655 H   0  0  0  0  0  0
  -26.0639  -31.5766   20.6032 H   0  0  0  0  0  0
  -26.8257  -30.8581   21.9943 H   0  0  0  0  0  0
  -28.0979  -29.0412   21.1748 H   0  0  0  0  0  0
  -25.9956  -25.9311   19.0269 H   0  0  0  0  0  0
  -23.9668  -27.2830   19.0418 H   0  0  0  0  0  0
  -23.7418  -30.5950   19.4046 H   0  0  0  0  0  0
  -22.7414  -29.2467   19.8598 H   0  0  0  0  0  0
  -25.1289  -36.1954   25.0819 H   0  0  0  0  0  0
  -20.9931  -28.3270   24.1469 H   0  0  0  0  0  0
  -20.5693  -26.2285   23.3664 H   0  0  0  0  0  0
  -21.6656  -26.7457   22.1289 H   0  0  0  0  0  0
  -19.6936  -25.6292   21.1294 H   0  0  0  0  0  0
  -19.6742  -27.3179   20.6791 H   0  0  0  0  0  0
  -17.4211  -26.6684   21.4022 H   0  0  0  0  0  0
  -18.0310  -26.0065   22.9027 H   0  0  0  0  0  0
  -19.7914  -30.7239   24.2340 H   0  0  0  0  0  0
  -17.5001  -31.6249   24.5180 H   0  0  0  0  0  0
  -15.5334  -30.2987   23.7649 H   0  0  0  0  0  0
  -15.8667  -28.0830   22.7044 H   0  0  0  0  0  0
  -24.5904  -30.7078   25.7786 H   0  0  0  0  0  0
  -24.8954  -32.2886   26.4900 H   0  0  0  0  0  0
  -25.8094  -30.8882   27.0204 H   0  0  0  0  0  0
  -26.2848  -29.6796   24.1143 H   0  0  0  0  0  0
  -27.4058  -29.7257   25.4549 H   0  0  0  0  0  0
  -27.8694  -30.4327   23.9258 H   0  0  0  0  0  0
  -27.2660  -33.3602   26.2077 H   0  0  0  0  0  0
  -28.3855  -32.6896   25.0302 H   0  0  0  0  0  0
  -28.0723  -31.8420   26.5375 H   0  0  0  0  0  0
  -28.2605  -38.0098   24.7518 H   0  0  0  0  0  0
  -28.1072  -36.2642   24.6288 H   0  0  0  0  0  0
  -27.2309  -37.1447   25.8870 H   0  0  0  0  0  0
  -20.9300  -29.8769   21.6984 H   0  0  0  0  0  0
  -26.0187  -38.2865   24.1422 H   0  0  0  0  0  0
  -32.6505  -19.2796   21.4504 H   0  0  0  0  0  0
  -30.9106  -20.8976   20.7945 H   0  0  0  0  0  0
  -32.2091  -16.8600   21.4647 H   0  0  0  0  0  0
  -28.1597  -17.6216   20.1698 H   0  0  0  0  0  0
  -28.8930  -21.3899   22.4273 H   0  0  0  0  0  0
  -27.2252  -21.9489   22.2588 H   0  0  0  0  0  0
  -28.4417  -22.9581   23.0305 H   0  0  0  0  0  0
  -27.3925  -20.2201   20.6679 H   0  0  0  0  0  0
  -27.9019  -19.9517   19.0522 H   0  0  0  0  0  0
  -27.6268  -22.2357   19.1512 H   0  0  0  0  0  0
  -29.3425  -22.0389   19.0787 H   0  0  0  0  0  0
  -26.8256  -24.0433   20.5568 H   0  0  0  0  0  0
  -27.9289  -24.7065   21.7082 H   0  0  0  0  0  0
  -28.0318  -25.0926   18.7234 H   0  0  0  0  0  0
  -29.5270  -25.0264   19.5787 H   0  0  0  0  0  0
  -28.8909  -15.3673   20.9498 H   0  0  0  0  0  0
  -29.5851  -23.0836   20.9684 H   0  0  0  0  0  0
  1 25  1  0  0  0
  1 30  2  0  0  0
  1 82  1  0  0  0
  2  3  1  0  0  0
  2 25  1  0  0  0
  2 84  1  0  0  0
  2 85  1  0  0  0
  3  4  1  0  0  0
  3 86  1  0  0  0
  3 87  1  0  0  0
  4  5  1  0  0  0
  4 88  1  0  0  0
  4 89  1  0  0  0
  5  6  1  0  0  0
  5 26  1  0  0  0
  5 90  1  0  0  0
  6 25  1  0  0  0
  6 91  1  0  0  0
  6 92  1  0  0  0
  7  8  2  0  0  0
  7 26  1  0  0  0
  7 29  1  0  0  0
  8  9  1  0  0  0
  8 22  1  0  0  0
  9 10  1  0  0  0
  9 27  2  0  0  0
 10 11  2  0  0  0
 10 15  1  0  0  0
 11 12  1  0  0  0
 11 93  1  0  0  0
 12 13  2  0  0  0
 12 94  1  0  0  0
 13 14  1  0  0  0
 13 31  1  0  0  0
 14 15  2  0  0  0
 14 95  1  0  0  0
 15 96  1  0  0  0
 16 17  2  0  0  0
 16 21  1  0  0  0
 16 31  1  0  0  0
 17 18  1  0  0  0
 17 97  1  0  0  0
 18 19  2  0  0  0
 18 98  1  0  0  0
 19 20  1  0  0  0
 19 24  1  0  0  0
 20 21  2  0  0  0
 20 99  1  0  0  0
 21 23  1  0  0  0
 22 28  1  0  0  0
 22 32  2  0  0  0
 26 27  1  0  0  0
 28100  1  0  0  0
 28101  1  0  0  0
 29102  1  0  0  0
 29103  1  0  0  0
 33 34  1  0  0  0
 33 66  1  0  0  0
 33 70  2  0  0  0
 34 36  1  0  0  0
 34 59  1  0  0  0
 34104  1  0  0  0
 35 44  2  0  0  0
 35 45  1  0  0  0
 35 68  1  0  0  0
 36 56  1  0  0  0
 36105  1  0  0  0
 37 39  1  0  0  0
 37 47  1  0  0  0
 37 66  1  0  0  0
 37106  1  0  0  0
 38 43  2  0  0  0
 38 46  1  0  0  0
 38 47  1  0  0  0
 39 64  1  0  0  0
 39 67  2  0  0  0
 40 52  1  0  0  0
 40 53  2  0  0  0
 40 58  1  0  0  0
 41107  1  0  0  0
 41108  1  0  0  0
 41109  1  0  0  0
 41 48  1  0  0  0
 42 43  1  0  0  0
 42 66  1  0  0  0
 42110  1  0  0  0
 42111  1  0  0  0
 43 44  1  0  0  0
 44112  1  0  0  0
 45 46  2  0  0  0
 45113  1  0  0  0
 46114  1  0  0  0
 47115  1  0  0  0
 47116  1  0  0  0
 48 56  1  0  0  0
 48 65  1  0  0  0
 48117  1  0  0  0
 49 50  1  0  0  0
 49 53  1  0  0  0
 49 64  1  0  0  0
 49118  1  0  0  0
 50 51  1  0  0  0
 50119  1  0  0  0
 50120  1  0  0  0
 51 52  1  0  0  0
 51121  1  0  0  0
 51122  1  0  0  0
 52123  1  0  0  0
 52124  1  0  0  0
 53 54  1  0  0  0
 54 55  2  0  0  0
 54125  1  0  0  0
 55 57  1  0  0  0
 55126  1  0  0  0
 56 69  2  0  0  0
 57 58  2  0  0  0
 57127  1  0  0  0
 58128  1  0  0  0
 59 60  1  0  0  0
 59 61  1  0  0  0
 59 62  1  0  0  0
 60129  1  0  0  0
 60130  1  0  0  0
 60131  1  0  0  0
 61132  1  0  0  0
 61133  1  0  0  0
 61134  1  0  0  0
 62135  1  0  0  0
 62136  1  0  0  0
 62137  1  0  0  0
 63 65  1  0  0  0
 63138  1  0  0  0
 63139  1  0  0  0
 63140  1  0  0  0
 64141  1  0  0  0
 65142  1  0  0  0
 68 81  1  0  0  0
 71 72  2  0  0  0
 71 73  1  0  0  0
 71143  1  0  0  0
 72 75  1  0  0  0
 72144  1  0  0  0
 73 76  2  0  0  0
 73145  1  0  0  0
 74 75  2  0  0  0
 74 76  1  0  0  0
 74146  1  0  0  0
 75 78  1  0  0  0
 76 82  1  0  0  0
 77147  1  0  0  0
 77148  1  0  0  0
 77149  1  0  0  0
 77 83  1  0  0  0
 78 79  1  0  0  0
 78150  1  0  0  0
 78151  1  0  0  0
 79 83  1  0  0  0
 79152  1  0  0  0
 79153  1  0  0  0
 80 81  1  0  0  0
 80 83  1  0  0  0
 80154  1  0  0  0
 80155  1  0  0  0
 81156  1  0  0  0
 81157  1  0  0  0
 82158  1  0  0  0
 83159  1  0  0  0
M  CHG  1  83   1
M  ISO  4   1 100  68 101  81 101  82 100
M  END
> <chiral flag>
0

> <version>
0

> <s_m_source_file>
/data/baiqing/PycharmProjects/Reinvent-master-3.2/result/LINK_invent/BTK/process_docking_weight1_custom_product_contain_oxygen_bond_distance_aromatic_linkinvent_7_9_3/rearranged_h_0017.sdf

> <i_m_source_file_index>
31

> <r_mmod_Potential_Energy-OPLS-2005>
-47.5835342407227

> <r_mmod_Stretch_Energy-OPLS-2005>
59.1313514709473

> <r_mmod_Bend_Energy-OPLS-2005>
141.718688964844

> <r_mmod_Torsional_Energy-OPLS-2005>
238.156784057617

> <r_mmod_Improper_Torsional_Energy-OPLS-2005>
5.58367538452148

> <r_mmod_Van_der_Waal_Energy-OPLS-2005>
146.875625610352

> <r_mmod_Electrostatic_Energy-OPLS-2005>
-224.030029296875

> <r_mmod_Solvation_Energy-OPLS-2005>
-440.845825195312

> <b_mmod_Minimization_Converged-OPLS-2005>
0

> <r_mmod_RMS_Derivative-OPLS-2005>
2.69710969924927

$$$$
32
                    3D
 Structure written by MMmdl.
159167  0  0  1  0            999 V2000
  -30.6854  -14.4954   20.5388 C   0  0  0  0  0  0
  -30.4219  -12.3120   19.4158 C   0  0  0  0  0  0
  -29.4890  -12.5334   18.2074 C   0  0  0  0  0  0
  -28.0190  -12.3533   18.6286 C   0  0  0  0  0  0
  -27.6633  -13.1788   19.8921 C   0  0  2  0  0  0
  -28.7186  -12.9774   21.0047 C   0  0  0  0  0  0
  -25.2638  -13.8060   20.5672 C   0  0  0  0  0  0
  -24.1864  -13.0395   20.9142 C   0  0  0  0  0  0
  -24.6379  -11.6840   20.8755 C   0  0  0  0  0  0
  -23.9025  -10.4264   21.0444 C   0  0  0  0  0  0
  -24.3595   -9.4179   21.9207 C   0  0  0  0  0  0
  -23.6270   -8.2220   22.0763 C   0  0  0  0  0  0
  -22.4247   -8.0282   21.3546 C   0  0  0  0  0  0
  -21.9892   -9.0255   20.4647 C   0  0  0  0  0  0
  -22.7214  -10.2134   20.3079 C   0  0  0  0  0  0
  -21.6855   -6.0730   22.5276 C   0  0  0  0  0  0
  -21.4004   -6.5638   23.8206 C   0  0  0  0  0  0
  -21.3644   -5.6798   24.9173 C   0  0  0  0  0  0
  -21.6050   -4.3063   24.7230 C   0  0  0  0  0  0
  -21.8808   -3.8140   23.4356 C   0  0  0  0  0  0
  -21.9185   -4.6956   22.3407 C   0  0  0  0  0  0
  -22.7908  -13.5239   21.1821 C   0  0  0  0  0  0
  -22.1654   -4.2156   21.0983 F   0  0  0  0  0  0
  -21.5644   -3.4538   25.7731 F   0  0  0  0  0  0
  -30.0464  -13.2973   20.4400 N   0  0  0  0  0  0
  -26.3064  -12.9170   20.3502 N   0  0  0  0  0  0
  -25.9315  -11.6356   20.5848 N   0  0  0  0  0  0
  -22.0553  -12.8234   22.0382 N   0  0  0  0  0  0
  -25.4372  -15.1774   20.3989 N   0  0  0  0  0  0
  -31.8056  -14.7122   20.0654 O   0  0  0  0  0  0
  -21.6620   -6.8879   21.4238 O   0  0  0  0  0  0
  -22.3595  -14.5568   20.6707 O   0  0  0  0  0  0
  -24.6160  -31.8718   23.2044 C   0  0  0  0  0  0
  -25.9020  -32.4870   23.8390 C   0  0  1  0  0  0
  -27.2518  -27.4277   20.1131 C   0  0  0  0  0  0
  -25.5863  -33.8647   24.2358 N   0  0  0  0  0  0
  -23.4103  -30.4921   21.5419 C   0  0  2  0  0  0
  -24.8603  -28.9490   20.1183 C   0  0  0  0  0  0
  -22.7482  -29.4704   22.4949 C   0  0  0  0  0  0
  -18.0337  -28.1446   22.8371 C   0  0  0  0  0  0
  -24.1491  -36.7327   23.2630 C   0  0  0  0  0  0
  -25.9380  -30.8352   21.3560 C   0  0  0  0  0  0
  -26.0190  -29.4623   20.7178 C   0  0  0  0  0  0
  -27.2147  -28.7076   20.7139 C   0  0  0  0  0  0
  -26.0829  -26.9374   19.4911 C   0  0  0  0  0  0
  -24.8892  -27.6863   19.5018 C   0  0  0  0  0  0
  -23.6201  -29.8124   20.1622 C   0  0  0  0  0  0
  -25.4118  -36.3159   24.0353 C   0  0  1  0  0  0
  -20.5932  -28.3762   23.1313 C   0  0  2  0  0  0
  -20.6828  -26.9476   22.5521 C   0  0  0  0  0  0
  -19.5937  -26.6462   21.5185 C   0  0  0  0  0  0
  -18.2048  -26.8000   22.1473 C   0  0  0  0  0  0
  -19.1569  -28.8883   23.2867 C   0  0  0  0  0  0
  -18.9456  -30.1417   23.8989 C   0  0  0  0  0  0
  -17.6460  -30.6499   24.0727 C   0  0  0  0  0  0
  -25.9027  -34.9515   23.5154 C   0  0  0  0  0  0
  -16.5369  -29.9047   23.6367 C   0  0  0  0  0  0
  -16.7315  -28.6551   23.0196 C   0  0  0  0  0  0
  -26.4416  -31.6636   25.0724 C   0  0  0  0  0  0
  -25.3665  -31.3709   26.1465 C   0  0  0  0  0  0
  -27.0195  -30.3091   24.6085 C   0  0  0  0  0  0
  -27.6072  -32.4283   25.7433 C   0  0  0  0  0  0
  -27.5600  -37.1830   24.8467 C   0  0  0  0  0  0
  -21.4203  -29.3106   22.3699 N   0  0  0  0  0  0
  -26.4313  -37.3843   23.9413 N   0  0  0  0  0  0
  -24.6726  -31.0847   22.0924 N   0  0  0  0  0  0
  -23.4253  -28.8222   23.2971 O   0  0  0  0  0  0
  -28.4297  -26.7029   20.1011 O   0  0  0  0  0  0
  -26.5618  -34.8963   22.4737 O   0  0  0  0  0  0
  -23.5331  -32.1392   23.7466 O   0  0  0  0  0  0
  -30.1813  -19.1265   21.8218 C   0  0  0  0  0  0
  -30.5404  -17.7541   21.7946 C   0  0  0  0  0  0
  -28.6561  -18.7588   19.9737 C   0  0  0  0  0  0
  -29.1823  -19.6262   20.9526 C   0  0  0  0  0  0
  -29.9298  -16.8686   20.8753 C   0  0  0  0  0  0
  -29.0501  -17.4093   19.9046 C   0  0  0  0  0  0
  -29.1941  -21.7205   18.8518 C   0  0  0  0  0  0
  -28.5302  -21.0036   21.1733 C   0  0  0  0  0  0
  -29.6675  -24.5780   20.2389 C   0  0  0  0  0  0
  -29.8100  -23.1345   20.8111 C   0  0  0  0  0  0
  -28.3732  -25.3526   20.5949 C   0  0  0  0  0  0
  -29.9491  -15.4587   21.1183 N   0  0  0  0  0  0
  -28.8668  -22.1273   20.2408 N   0  3  1  0  0  0
  -28.3687  -16.4490   18.6447 Cl  0  0  0  0  0  0
  -31.4708  -12.3900   19.1239 H   0  0  0  0  0  0
  -30.2960  -11.2994   19.8069 H   0  0  0  0  0  0
  -29.7439  -11.8486   17.3981 H   0  0  0  0  0  0
  -29.6245  -13.5407   17.8103 H   0  0  0  0  0  0
  -27.8505  -11.2931   18.8184 H   0  0  0  0  0  0
  -27.3568  -12.6264   17.8057 H   0  0  0  0  0  0
  -27.6918  -14.2188   19.6058 H   0  0  0  0  0  0
  -28.7025  -11.9440   21.3527 H   0  0  0  0  0  0
  -28.4794  -13.5755   21.8842 H   0  0  0  0  0  0
  -25.2770   -9.5658   22.4743 H   0  0  0  0  0  0
  -23.9992   -7.4622   22.7501 H   0  0  0  0  0  0
  -21.0819   -8.8790   19.8951 H   0  0  0  0  0  0
  -22.3705  -10.9677   19.6185 H   0  0  0  0  0  0
  -21.1978   -7.6146   23.9718 H   0  0  0  0  0  0
  -21.1486   -6.0527   25.9082 H   0  0  0  0  0  0
  -22.0591   -2.7599   23.2857 H   0  0  0  0  0  0
  -22.4162  -11.9871   22.4736 H   0  0  0  0  0  0
  -21.1207  -13.1314   22.2654 H   0  0  0  0  0  0
  -24.6561  -15.8191   20.4369 H   0  0  0  0  0  0
  -26.2909  -15.6057   20.0607 H   0  0  0  0  0  0
  -26.7141  -32.5655   23.1202 H   0  0  0  0  0  0
  -24.9949  -33.9814   25.0472 H   0  0  0  0  0  0
  -22.6981  -31.3066   21.3960 H   0  0  0  0  0  0
  -23.3773  -35.9639   23.3313 H   0  0  0  0  0  0
  -24.3561  -36.8905   22.2034 H   0  0  0  0  0  0
  -23.7230  -37.6539   23.6600 H   0  0  0  0  0  0
  -26.0410  -31.5969   20.5806 H   0  0  0  0  0  0
  -26.8292  -30.9123   21.9666 H   0  0  0  0  0  0
  -28.1099  -29.0972   21.1779 H   0  0  0  0  0  0
  -26.0963  -25.9872   18.9778 H   0  0  0  0  0  0
  -24.0054  -27.2960   19.0158 H   0  0  0  0  0  0
  -23.7102  -30.5737   19.3880 H   0  0  0  0  0  0
  -22.7505  -29.2158   19.8846 H   0  0  0  0  0  0
  -25.1293  -36.2027   25.0846 H   0  0  0  0  0  0
  -21.0080  -28.3367   24.1425 H   0  0  0  0  0  0
  -20.5467  -26.2503   23.3777 H   0  0  0  0  0  0
  -21.6746  -26.7363   22.1542 H   0  0  0  0  0  0
  -19.7122  -25.6371   21.1227 H   0  0  0  0  0  0
  -19.7051  -27.3286   20.6742 H   0  0  0  0  0  0
  -17.4361  -26.6711   21.3826 H   0  0  0  0  0  0
  -18.0522  -26.0143   22.8875 H   0  0  0  0  0  0
  -19.7941  -30.7181   24.2429 H   0  0  0  0  0  0
  -17.4999  -31.6063   24.5561 H   0  0  0  0  0  0
  -15.5355  -30.2859   23.7797 H   0  0  0  0  0  0
  -15.8706  -28.0946   22.6791 H   0  0  0  0  0  0
  -24.5919  -30.6956   25.7789 H   0  0  0  0  0  0
  -24.8695  -32.2803   26.4852 H   0  0  0  0  0  0
  -25.8001  -30.8940   27.0263 H   0  0  0  0  0  0
  -26.2703  -29.6939   24.1068 H   0  0  0  0  0  0
  -27.3870  -29.7278   25.4539 H   0  0  0  0  0  0
  -27.8595  -30.4412   23.9270 H   0  0  0  0  0  0
  -27.2828  -33.3626   26.2027 H   0  0  0  0  0  0
  -28.3847  -32.6755   25.0186 H   0  0  0  0  0  0
  -28.0775  -31.8348   26.5287 H   0  0  0  0  0  0
  -28.2657  -38.0086   24.7531 H   0  0  0  0  0  0
  -28.1055  -36.2637   24.6275 H   0  0  0  0  0  0
  -27.2310  -37.1494   25.8861 H   0  0  0  0  0  0
  -20.9384  -29.8792   21.6878 H   0  0  0  0  0  0
  -26.0224  -38.2941   24.1339 H   0  0  0  0  0  0
  -30.6017  -19.7647   22.5867 H   0  0  0  0  0  0
  -31.2167  -17.3725   22.5472 H   0  0  0  0  0  0
  -27.8850  -19.1022   19.3011 H   0  0  0  0  0  0
  -28.4399  -21.0465   18.4467 H   0  0  0  0  0  0
  -30.1648  -21.2269   18.7936 H   0  0  0  0  0  0
  -29.2185  -22.5778   18.1840 H   0  0  0  0  0  0
  -28.6602  -21.3017   22.2140 H   0  0  0  0  0  0
  -27.4529  -20.8433   21.0825 H   0  0  0  0  0  0
  -30.5004  -25.1582   20.6355 H   0  0  0  0  0  0
  -29.8134  -24.5719   19.1588 H   0  0  0  0  0  0
  -29.6970  -23.1906   21.8942 H   0  0  0  0  0  0
  -30.8277  -22.7786   20.6368 H   0  0  0  0  0  0
  -28.2626  -25.3957   21.6808 H   0  0  0  0  0  0
  -27.5114  -24.8078   20.2080 H   0  0  0  0  0  0
  -29.0716  -15.0917   21.4500 H   0  0  0  0  0  0
  -27.9854  -22.6105   20.1687 H   0  0  0  0  0  0
  1 25  1  0  0  0
  1 30  2  0  0  0
  1 82  1  0  0  0
  2  3  1  0  0  0
  2 25  1  0  0  0
  2 85  1  0  0  0
  2 86  1  0  0  0
  3  4  1  0  0  0
  3 87  1  0  0  0
  3 88  1  0  0  0
  4  5  1  0  0  0
  4 89  1  0  0  0
  4 90  1  0  0  0
  5  6  1  0  0  0
  5 26  1  0  0  0
  5 91  1  0  0  0
  6 25  1  0  0  0
  6 92  1  0  0  0
  6 93  1  0  0  0
  7  8  2  0  0  0
  7 26  1  0  0  0
  7 29  1  0  0  0
  8  9  1  0  0  0
  8 22  1  0  0  0
  9 10  1  0  0  0
  9 27  2  0  0  0
 10 11  2  0  0  0
 10 15  1  0  0  0
 11 12  1  0  0  0
 11 94  1  0  0  0
 12 13  2  0  0  0
 12 95  1  0  0  0
 13 14  1  0  0  0
 13 31  1  0  0  0
 14 15  2  0  0  0
 14 96  1  0  0  0
 15 97  1  0  0  0
 16 17  2  0  0  0
 16 21  1  0  0  0
 16 31  1  0  0  0
 17 18  1  0  0  0
 17 98  1  0  0  0
 18 19  2  0  0  0
 18 99  1  0  0  0
 19 20  1  0  0  0
 19 24  1  0  0  0
 20 21  2  0  0  0
 20100  1  0  0  0
 21 23  1  0  0  0
 22 28  1  0  0  0
 22 32  2  0  0  0
 26 27  1  0  0  0
 28101  1  0  0  0
 28102  1  0  0  0
 29103  1  0  0  0
 29104  1  0  0  0
 33 34  1  0  0  0
 33 66  1  0  0  0
 33 70  2  0  0  0
 34 36  1  0  0  0
 34 59  1  0  0  0
 34105  1  0  0  0
 35 44  2  0  0  0
 35 45  1  0  0  0
 35 68  1  0  0  0
 36 56  1  0  0  0
 36106  1  0  0  0
 37 39  1  0  0  0
 37 47  1  0  0  0
 37 66  1  0  0  0
 37107  1  0  0  0
 38 43  2  0  0  0
 38 46  1  0  0  0
 38 47  1  0  0  0
 39 64  1  0  0  0
 39 67  2  0  0  0
 40 52  1  0  0  0
 40 53  2  0  0  0
 40 58  1  0  0  0
 41108  1  0  0  0
 41109  1  0  0  0
 41110  1  0  0  0
 41 48  1  0  0  0
 42 43  1  0  0  0
 42 66  1  0  0  0
 42111  1  0  0  0
 42112  1  0  0  0
 43 44  1  0  0  0
 44113  1  0  0  0
 45 46  2  0  0  0
 45114  1  0  0  0
 46115  1  0  0  0
 47116  1  0  0  0
 47117  1  0  0  0
 48 56  1  0  0  0
 48 65  1  0  0  0
 48118  1  0  0  0
 49 50  1  0  0  0
 49 53  1  0  0  0
 49 64  1  0  0  0
 49119  1  0  0  0
 50 51  1  0  0  0
 50120  1  0  0  0
 50121  1  0  0  0
 51 52  1  0  0  0
 51122  1  0  0  0
 51123  1  0  0  0
 52124  1  0  0  0
 52125  1  0  0  0
 53 54  1  0  0  0
 54 55  2  0  0  0
 54126  1  0  0  0
 55 57  1  0  0  0
 55127  1  0  0  0
 56 69  2  0  0  0
 57 58  2  0  0  0
 57128  1  0  0  0
 58129  1  0  0  0
 59 60  1  0  0  0
 59 61  1  0  0  0
 59 62  1  0  0  0
 60130  1  0  0  0
 60131  1  0  0  0
 60132  1  0  0  0
 61133  1  0  0  0
 61134  1  0  0  0
 61135  1  0  0  0
 62136  1  0  0  0
 62137  1  0  0  0
 62138  1  0  0  0
 63 65  1  0  0  0
 63139  1  0  0  0
 63140  1  0  0  0
 63141  1  0  0  0
 64142  1  0  0  0
 65143  1  0  0  0
 68 81  1  0  0  0
 71 72  2  0  0  0
 71 74  1  0  0  0
 71144  1  0  0  0
 72 75  1  0  0  0
 72145  1  0  0  0
 73 74  2  0  0  0
 73 76  1  0  0  0
 73146  1  0  0  0
 74 78  1  0  0  0
 75 76  2  0  0  0
 75 82  1  0  0  0
 76 84  1  0  0  0
 77147  1  0  0  0
 77148  1  0  0  0
 77149  1  0  0  0
 77 83  1  0  0  0
 78 83  1  0  0  0
 78150  1  0  0  0
 78151  1  0  0  0
 79 80  1  0  0  0
 79 81  1  0  0  0
 79152  1  0  0  0
 79153  1  0  0  0
 80 83  1  0  0  0
 80154  1  0  0  0
 80155  1  0  0  0
 81156  1  0  0  0
 81157  1  0  0  0
 82158  1  0  0  0
 83159  1  0  0  0
M  CHG  1  83   1
M  ISO  4   1 100  68 101  81 101  82 100
M  END
> <chiral flag>
0

> <version>
0

> <s_m_source_file>
/data/baiqing/PycharmProjects/Reinvent-master-3.2/result/LINK_invent/BTK/process_docking_weight1_custom_product_contain_oxygen_bond_distance_aromatic_linkinvent_7_9_3/rearranged_h_0017.sdf

> <i_m_source_file_index>
32

> <r_mmod_Potential_Energy-OPLS-2005>
-150.127426147461

> <r_mmod_Stretch_Energy-OPLS-2005>
39.9976081848145

> <r_mmod_Bend_Energy-OPLS-2005>
112.709312438965

> <r_mmod_Torsional_Energy-OPLS-2005>
279.899810791016

> <r_mmod_Improper_Torsional_Energy-OPLS-2005>
8.03980445861816

> <r_mmod_Van_der_Waal_Energy-OPLS-2005>
147.264358520508

> <r_mmod_Electrostatic_Energy-OPLS-2005>
-288.441284179688

> <r_mmod_Solvation_Energy-OPLS-2005>
-464.538757324219

> <b_mmod_Minimization_Converged-OPLS-2005>
0

> <r_mmod_RMS_Derivative-OPLS-2005>
5.479332447052

$$$$
33
                    3D
 Structure written by MMmdl.
160168  0  0  1  0            999 V2000
  -30.7454  -14.4313   20.4782 C   0  0  0  0  0  0
  -30.4110  -12.2459   19.4360 C   0  0  0  0  0  0
  -29.4891  -12.4130   18.2095 C   0  0  0  0  0  0
  -28.0066  -12.3320   18.6195 C   0  0  0  0  0  0
  -27.6552  -13.2073   19.8524 C   0  0  2  0  0  0
  -28.7009  -13.0473   20.9772 C   0  0  0  0  0  0
  -25.2592  -13.8173   20.5683 C   0  0  0  0  0  0
  -24.1840  -13.0446   20.9184 C   0  0  0  0  0  0
  -24.6390  -11.6916   20.8756 C   0  0  0  0  0  0
  -23.9058  -10.4298   21.0411 C   0  0  0  0  0  0
  -24.3604   -9.4209   21.9184 C   0  0  0  0  0  0
  -23.6280   -8.2246   22.0757 C   0  0  0  0  0  0
  -22.4270   -8.0278   21.3540 C   0  0  0  0  0  0
  -21.9898   -9.0256   20.4652 C   0  0  0  0  0  0
  -22.7230  -10.2136   20.3064 C   0  0  0  0  0  0
  -21.6857   -6.0730   22.5277 C   0  0  0  0  0  0
  -21.4019   -6.5635   23.8209 C   0  0  0  0  0  0
  -21.3660   -5.6788   24.9173 C   0  0  0  0  0  0
  -21.6041   -4.3049   24.7229 C   0  0  0  0  0  0
  -21.8821   -3.8140   23.4352 C   0  0  0  0  0  0
  -21.9193   -4.6956   22.3405 C   0  0  0  0  0  0
  -22.7866  -13.5246   21.1835 C   0  0  0  0  0  0
  -22.1663   -4.2141   21.0984 F   0  0  0  0  0  0
  -21.5624   -3.4533   25.7745 F   0  0  0  0  0  0
  -30.0415  -13.2710   20.4196 N   0  0  0  0  0  0
  -26.3010  -12.9340   20.3310 N   0  0  0  0  0  0
  -25.9313  -11.6502   20.5780 N   0  0  0  0  0  0
  -22.0497  -12.8250   22.0394 N   0  0  0  0  0  0
  -25.4322  -15.1894   20.4117 N   0  0  0  0  0  0
  -31.9512  -14.4746   20.2334 O   0  0  0  0  0  0
  -21.6641   -6.8872   21.4240 O   0  0  0  0  0  0
  -22.3554  -14.5544   20.6675 O   0  0  0  0  0  0
  -24.6097  -31.8735   23.2157 C   0  0  0  0  0  0
  -25.9017  -32.4848   23.8425 C   0  0  1  0  0  0
  -27.2316  -27.4811   20.0934 C   0  0  0  0  0  0
  -25.5900  -33.8643   24.2367 N   0  0  0  0  0  0
  -23.3936  -30.5002   21.5558 C   0  0  2  0  0  0
  -24.8375  -28.9730   20.1175 C   0  0  0  0  0  0
  -22.7385  -29.4701   22.5027 C   0  0  0  0  0  0
  -18.0274  -28.1378   22.8501 C   0  0  0  0  0  0
  -24.1485  -36.7317   23.2645 C   0  0  0  0  0  0
  -25.9184  -30.8552   21.3591 C   0  0  0  0  0  0
  -25.9962  -29.4942   20.7052 C   0  0  0  0  0  0
  -27.1975  -28.7583   20.6849 C   0  0  0  0  0  0
  -26.0515  -26.9594   19.5116 C   0  0  0  0  0  0
  -24.8577  -27.7022   19.5183 C   0  0  0  0  0  0
  -23.5977  -29.8342   20.1690 C   0  0  0  0  0  0
  -25.4099  -36.3123   24.0358 C   0  0  1  0  0  0
  -20.5861  -28.3661   23.1344 C   0  0  2  0  0  0
  -20.6770  -26.9408   22.5418 C   0  0  0  0  0  0
  -19.5743  -26.6394   21.5218 C   0  0  0  0  0  0
  -18.1923  -26.7928   22.1633 C   0  0  0  0  0  0
  -19.1522  -28.8835   23.2921 C   0  0  0  0  0  0
  -18.9449  -30.1448   23.8919 C   0  0  0  0  0  0
  -17.6452  -30.6588   24.0567 C   0  0  0  0  0  0
  -25.9025  -34.9493   23.5150 C   0  0  0  0  0  0
  -16.5343  -29.9089   23.6327 C   0  0  0  0  0  0
  -16.7266  -28.6508   23.0345 C   0  0  0  0  0  0
  -26.4451  -31.6604   25.0724 C   0  0  0  0  0  0
  -25.3735  -31.3693   26.1484 C   0  0  0  0  0  0
  -27.0279  -30.3063   24.6053 C   0  0  0  0  0  0
  -27.6038  -32.4307   25.7470 C   0  0  0  0  0  0
  -27.5575  -37.1814   24.8470 C   0  0  0  0  0  0
  -21.4121  -29.3040   22.3758 N   0  0  0  0  0  0
  -26.4289  -37.3800   23.9417 N   0  0  0  0  0  0
  -24.6588  -31.0892   22.1027 N   0  0  0  0  0  0
  -23.4180  -28.8251   23.3051 O   0  0  0  0  0  0
  -28.4176  -26.7853   20.1082 O   0  0  0  0  0  0
  -26.5571  -34.8941   22.4701 O   0  0  0  0  0  0
  -23.5311  -32.1460   23.7606 O   0  0  0  0  0  0
  -29.6080  -18.5425   20.0900 C   0  0  0  0  0  0
  -29.2116  -17.9437   17.7601 C   0  0  0  0  0  0
  -29.4499  -19.9032   19.7592 C   0  0  0  0  0  0
  -29.0444  -19.2968   17.4294 C   0  0  0  0  0  0
  -29.5336  -17.5572   19.0805 C   0  0  0  0  0  0
  -29.1990  -20.2820   18.4218 C   0  0  0  0  0  0
  -29.9313  -16.1593   19.3225 C   0  0  0  0  0  0
  -27.0350  -22.6952   17.0776 C   0  0  0  0  0  0
  -29.1150  -21.7402   18.0333 C   0  0  0  0  0  0
  -28.3423  -24.5376   19.1848 C   0  0  0  0  0  0
  -27.6715  -23.1738   19.4420 C   0  0  0  0  0  0
  -28.3145  -25.4081   20.4449 C   0  0  0  0  0  0
  -29.9920  -15.5915   20.4757 N   0  0  0  0  0  0
  -27.7486  -22.2405   18.2935 N   0  3  1  0  0  0
  -30.3439  -15.5262   18.2023 F   0  0  0  0  0  0
  -31.4559  -12.3102   19.1280 H   0  0  0  0  0  0
  -30.2902  -11.2541   19.8738 H   0  0  0  0  0  0
  -29.7070  -11.6351   17.4769 H   0  0  0  0  0  0
  -29.6846  -13.3519   17.6989 H   0  0  0  0  0  0
  -27.7951  -11.2851   18.8392 H   0  0  0  0  0  0
  -27.3682  -12.5975   17.7763 H   0  0  0  0  0  0
  -27.6818  -14.2431   19.5165 H   0  0  0  0  0  0
  -28.6520  -12.0471   21.4102 H   0  0  0  0  0  0
  -28.4946  -13.7428   21.7924 H   0  0  0  0  0  0
  -25.2744   -9.5681   22.4766 H   0  0  0  0  0  0
  -23.9980   -7.4639   22.7482 H   0  0  0  0  0  0
  -21.0828   -8.8780   19.8961 H   0  0  0  0  0  0
  -22.3681  -10.9676   19.6180 H   0  0  0  0  0  0
  -21.2019   -7.6143   23.9711 H   0  0  0  0  0  0
  -21.1479   -6.0521   25.9074 H   0  0  0  0  0  0
  -22.0601   -2.7602   23.2861 H   0  0  0  0  0  0
  -22.4099  -11.9912   22.4792 H   0  0  0  0  0  0
  -21.1124  -13.1303   22.2600 H   0  0  0  0  0  0
  -24.6718  -15.8489   20.5386 H   0  0  0  0  0  0
  -26.3011  -15.6305   20.1386 H   0  0  0  0  0  0
  -26.7093  -32.5573   23.1202 H   0  0  0  0  0  0
  -25.0076  -33.9805   25.0530 H   0  0  0  0  0  0
  -22.6788  -31.3154   21.4221 H   0  0  0  0  0  0
  -23.3748  -35.9648   23.3318 H   0  0  0  0  0  0
  -24.3590  -36.8898   22.2055 H   0  0  0  0  0  0
  -23.7233  -37.6536   23.6630 H   0  0  0  0  0  0
  -26.0239  -31.6236   20.5920 H   0  0  0  0  0  0
  -26.8101  -30.9076   21.9722 H   0  0  0  0  0  0
  -28.0940  -29.1605   21.1350 H   0  0  0  0  0  0
  -26.0301  -25.9855   19.0483 H   0  0  0  0  0  0
  -23.9634  -27.2920   19.0698 H   0  0  0  0  0  0
  -23.7017  -30.6096   19.4091 H   0  0  0  0  0  0
  -22.7223  -29.2515   19.8751 H   0  0  0  0  0  0
  -25.1269  -36.1998   25.0851 H   0  0  0  0  0  0
  -20.9951  -28.3217   24.1467 H   0  0  0  0  0  0
  -20.5697  -26.2268   23.3599 H   0  0  0  0  0  0
  -21.6641  -26.7477   22.1192 H   0  0  0  0  0  0
  -19.6906  -25.6309   21.1240 H   0  0  0  0  0  0
  -19.6676  -27.3218   20.6758 H   0  0  0  0  0  0
  -17.4194  -26.6689   21.4032 H   0  0  0  0  0  0
  -18.0320  -26.0059   22.9018 H   0  0  0  0  0  0
  -19.7923  -30.7264   24.2293 H   0  0  0  0  0  0
  -17.5007  -31.6273   24.5162 H   0  0  0  0  0  0
  -15.5346  -30.2996   23.7648 H   0  0  0  0  0  0
  -15.8665  -28.0842   22.7037 H   0  0  0  0  0  0
  -24.5909  -30.7032   25.7827 H   0  0  0  0  0  0
  -24.8928  -32.2845   26.4952 H   0  0  0  0  0  0
  -25.8102  -30.8848   27.0226 H   0  0  0  0  0  0
  -26.2806  -29.6829   24.1128 H   0  0  0  0  0  0
  -27.4108  -29.7282   25.4474 H   0  0  0  0  0  0
  -27.8608  -30.4406   23.9147 H   0  0  0  0  0  0
  -27.2665  -33.3596   26.2080 H   0  0  0  0  0  0
  -28.3818  -32.6883   25.0271 H   0  0  0  0  0  0
  -28.0734  -31.8406   26.5350 H   0  0  0  0  0  0
  -28.2614  -38.0093   24.7514 H   0  0  0  0  0  0
  -28.1043  -36.2628   24.6294 H   0  0  0  0  0  0
  -27.2299  -37.1460   25.8876 H   0  0  0  0  0  0
  -20.9278  -29.8742   21.6965 H   0  0  0  0  0  0
  -26.0187  -38.2888   24.1395 H   0  0  0  0  0  0
  -29.8571  -18.2638   21.1053 H   0  0  0  0  0  0
  -29.1515  -17.2047   16.9724 H   0  0  0  0  0  0
  -29.5622  -20.6525   20.5312 H   0  0  0  0  0  0
  -28.8464  -19.5734   16.4020 H   0  0  0  0  0  0
  -26.9922  -21.8931   16.3396 H   0  0  0  0  0  0
  -27.5274  -23.5489   16.6119 H   0  0  0  0  0  0
  -26.0073  -22.9762   17.3093 H   0  0  0  0  0  0
  -29.3834  -21.8540   16.9818 H   0  0  0  0  0  0
  -29.8755  -22.2889   18.5890 H   0  0  0  0  0  0
  -27.8383  -25.0448   18.3647 H   0  0  0  0  0  0
  -29.3780  -24.4314   18.8645 H   0  0  0  0  0  0
  -26.6212  -23.3252   19.6981 H   0  0  0  0  0  0
  -28.1228  -22.6980   20.3147 H   0  0  0  0  0  0
  -29.1536  -25.1429   21.0892 H   0  0  0  0  0  0
  -27.4206  -25.2172   21.0431 H   0  0  0  0  0  0
  -27.2447  -21.4182   18.5913 H   0  0  0  0  0  0
  1 25  1  0  0  0
  1 30  2  0  0  0
  1 83  1  0  0  0
  2  3  1  0  0  0
  2 25  1  0  0  0
  2 86  1  0  0  0
  2 87  1  0  0  0
  3  4  1  0  0  0
  3 88  1  0  0  0
  3 89  1  0  0  0
  4  5  1  0  0  0
  4 90  1  0  0  0
  4 91  1  0  0  0
  5  6  1  0  0  0
  5 26  1  0  0  0
  5 92  1  0  0  0
  6 25  1  0  0  0
  6 93  1  0  0  0
  6 94  1  0  0  0
  7  8  2  0  0  0
  7 26  1  0  0  0
  7 29  1  0  0  0
  8  9  1  0  0  0
  8 22  1  0  0  0
  9 10  1  0  0  0
  9 27  2  0  0  0
 10 11  2  0  0  0
 10 15  1  0  0  0
 11 12  1  0  0  0
 11 95  1  0  0  0
 12 13  2  0  0  0
 12 96  1  0  0  0
 13 14  1  0  0  0
 13 31  1  0  0  0
 14 15  2  0  0  0
 14 97  1  0  0  0
 15 98  1  0  0  0
 16 17  2  0  0  0
 16 21  1  0  0  0
 16 31  1  0  0  0
 17 18  1  0  0  0
 17 99  1  0  0  0
 18 19  2  0  0  0
 18100  1  0  0  0
 19 20  1  0  0  0
 19 24  1  0  0  0
 20 21  2  0  0  0
 20101  1  0  0  0
 21 23  1  0  0  0
 22 28  1  0  0  0
 22 32  2  0  0  0
 26 27  1  0  0  0
 28102  1  0  0  0
 28103  1  0  0  0
 29104  1  0  0  0
 29105  1  0  0  0
 33 34  1  0  0  0
 33 66  1  0  0  0
 33 70  2  0  0  0
 34 36  1  0  0  0
 34 59  1  0  0  0
 34106  1  0  0  0
 35 44  2  0  0  0
 35 45  1  0  0  0
 35 68  1  0  0  0
 36 56  1  0  0  0
 36107  1  0  0  0
 37 39  1  0  0  0
 37 47  1  0  0  0
 37 66  1  0  0  0
 37108  1  0  0  0
 38 43  2  0  0  0
 38 46  1  0  0  0
 38 47  1  0  0  0
 39 64  1  0  0  0
 39 67  2  0  0  0
 40 52  1  0  0  0
 40 53  2  0  0  0
 40 58  1  0  0  0
 41109  1  0  0  0
 41110  1  0  0  0
 41111  1  0  0  0
 41 48  1  0  0  0
 42 43  1  0  0  0
 42 66  1  0  0  0
 42112  1  0  0  0
 42113  1  0  0  0
 43 44  1  0  0  0
 44114  1  0  0  0
 45 46  2  0  0  0
 45115  1  0  0  0
 46116  1  0  0  0
 47117  1  0  0  0
 47118  1  0  0  0
 48 56  1  0  0  0
 48 65  1  0  0  0
 48119  1  0  0  0
 49 50  1  0  0  0
 49 53  1  0  0  0
 49 64  1  0  0  0
 49120  1  0  0  0
 50 51  1  0  0  0
 50121  1  0  0  0
 50122  1  0  0  0
 51 52  1  0  0  0
 51123  1  0  0  0
 51124  1  0  0  0
 52125  1  0  0  0
 52126  1  0  0  0
 53 54  1  0  0  0
 54 55  2  0  0  0
 54127  1  0  0  0
 55 57  1  0  0  0
 55128  1  0  0  0
 56 69  2  0  0  0
 57 58  2  0  0  0
 57129  1  0  0  0
 58130  1  0  0  0
 59 60  1  0  0  0
 59 61  1  0  0  0
 59 62  1  0  0  0
 60131  1  0  0  0
 60132  1  0  0  0
 60133  1  0  0  0
 61134  1  0  0  0
 61135  1  0  0  0
 61136  1  0  0  0
 62137  1  0  0  0
 62138  1  0  0  0
 62139  1  0  0  0
 63 65  1  0  0  0
 63140  1  0  0  0
 63141  1  0  0  0
 63142  1  0  0  0
 64143  1  0  0  0
 65144  1  0  0  0
 68 82  1  0  0  0
 71 73  2  0  0  0
 71 75  1  0  0  0
 71145  1  0  0  0
 72 74  1  0  0  0
 72 75  2  0  0  0
 72146  1  0  0  0
 73 76  1  0  0  0
 73147  1  0  0  0
 74 76  2  0  0  0
 74148  1  0  0  0
 75 77  1  0  0  0
 76 79  1  0  0  0
 77 83  2  0  0  0
 77 85  1  0  0  0
 78149  1  0  0  0
 78150  1  0  0  0
 78151  1  0  0  0
 78 84  1  0  0  0
 79 84  1  0  0  0
 79152  1  0  0  0
 79153  1  0  0  0
 80 81  1  0  0  0
 80 82  1  0  0  0
 80154  1  0  0  0
 80155  1  0  0  0
 81 84  1  0  0  0
 81156  1  0  0  0
 81157  1  0  0  0
 82158  1  0  0  0
 82159  1  0  0  0
 84160  1  0  0  0
M  CHG  1  84   1
M  ISO  4   1 100  68 101  82 101  83 100
M  END
> <chiral flag>
0

> <version>
0

> <s_m_source_file>
/data/baiqing/PycharmProjects/Reinvent-master-3.2/result/LINK_invent/BTK/process_docking_weight1_custom_product_contain_oxygen_bond_distance_aromatic_linkinvent_7_9_3/rearranged_h_0017.sdf

> <i_m_source_file_index>
33

> <r_mmod_Potential_Energy-OPLS-2005>
-100.390213012695

> <r_mmod_Stretch_Energy-OPLS-2005>
31.6551132202148

> <r_mmod_Bend_Energy-OPLS-2005>
93.9284973144531

> <r_mmod_Torsional_Energy-OPLS-2005>
216.347015380859

> <r_mmod_Improper_Torsional_Energy-OPLS-2005>
10.0151472091675

> <r_mmod_Van_der_Waal_Energy-OPLS-2005>
177.586364746094

> <r_mmod_Electrostatic_Energy-OPLS-2005>
-217.656143188477

> <r_mmod_Solvation_Energy-OPLS-2005>
-437.061462402344

> <b_mmod_Minimization_Converged-OPLS-2005>
0

> <r_mmod_RMS_Derivative-OPLS-2005>
1.27747571468353

$$$$
34
                    3D
 Structure written by MMmdl.
160168  0  0  1  0            999 V2000
  -30.7494  -14.4568   20.5192 C   0  0  0  0  0  0
  -30.4053  -12.2805   19.4413 C   0  0  0  0  0  0
  -29.4960  -12.4840   18.2145 C   0  0  0  0  0  0
  -28.0171  -12.3516   18.6258 C   0  0  0  0  0  0
  -27.6579  -13.2148   19.8662 C   0  0  2  0  0  0
  -28.7009  -13.0451   20.9962 C   0  0  0  0  0  0
  -25.2579  -13.8181   20.5707 C   0  0  0  0  0  0
  -24.1842  -13.0447   20.9200 C   0  0  0  0  0  0
  -24.6401  -11.6925   20.8738 C   0  0  0  0  0  0
  -23.9068  -10.4310   21.0418 C   0  0  0  0  0  0
  -24.3624   -9.4212   21.9197 C   0  0  0  0  0  0
  -23.6303   -8.2236   22.0753 C   0  0  0  0  0  0
  -22.4285   -8.0282   21.3544 C   0  0  0  0  0  0
  -21.9925   -9.0250   20.4644 C   0  0  0  0  0  0
  -22.7240  -10.2135   20.3062 C   0  0  0  0  0  0
  -21.6844   -6.0744   22.5294 C   0  0  0  0  0  0
  -21.4007   -6.5647   23.8226 C   0  0  0  0  0  0
  -21.3654   -5.6786   24.9191 C   0  0  0  0  0  0
  -21.6041   -4.3047   24.7222 C   0  0  0  0  0  0
  -21.8817   -3.8155   23.4339 C   0  0  0  0  0  0
  -21.9193   -4.6982   22.3406 C   0  0  0  0  0  0
  -22.7864  -13.5243   21.1842 C   0  0  0  0  0  0
  -22.1664   -4.2180   21.0970 F   0  0  0  0  0  0
  -21.5626   -3.4520   25.7726 F   0  0  0  0  0  0
  -30.0357  -13.3019   20.4352 N   0  0  0  0  0  0
  -26.3010  -12.9366   20.3350 N   0  0  0  0  0  0
  -25.9340  -11.6524   20.5786 N   0  0  0  0  0  0
  -22.0480  -12.8253   22.0389 N   0  0  0  0  0  0
  -25.4283  -15.1905   20.4149 N   0  0  0  0  0  0
  -31.9072  -14.5231   20.1090 O   0  0  0  0  0  0
  -21.6629   -6.8896   21.4254 O   0  0  0  0  0  0
  -22.3580  -14.5555   20.6687 O   0  0  0  0  0  0
  -24.6121  -31.8695   23.2127 C   0  0  0  0  0  0
  -25.9022  -32.4834   23.8398 C   0  0  1  0  0  0
  -27.2208  -27.4542   20.0905 C   0  0  0  0  0  0
  -25.5885  -33.8623   24.2323 N   0  0  0  0  0  0
  -23.3970  -30.4976   21.5548 C   0  0  2  0  0  0
  -24.8387  -28.9689   20.1121 C   0  0  0  0  0  0
  -22.7382  -29.4690   22.5014 C   0  0  0  0  0  0
  -18.0259  -28.1392   22.8513 C   0  0  0  0  0  0
  -24.1491  -36.7300   23.2633 C   0  0  0  0  0  0
  -25.9264  -30.8381   21.3656 C   0  0  0  0  0  0
  -25.9984  -29.4762   20.7114 C   0  0  0  0  0  0
  -27.1932  -28.7255   20.7012 C   0  0  0  0  0  0
  -26.0496  -26.9703   19.4630 C   0  0  0  0  0  0
  -24.8577  -27.7140   19.4841 C   0  0  0  0  0  0
  -23.5994  -29.8326   20.1676 C   0  0  0  0  0  0
  -25.4111  -36.3108   24.0338 C   0  0  1  0  0  0
  -20.5855  -28.3654   23.1351 C   0  0  2  0  0  0
  -20.6771  -26.9387   22.5442 C   0  0  0  0  0  0
  -19.5739  -26.6393   21.5246 C   0  0  0  0  0  0
  -18.1911  -26.7956   22.1644 C   0  0  0  0  0  0
  -19.1514  -28.8845   23.2932 C   0  0  0  0  0  0
  -18.9445  -30.1470   23.8913 C   0  0  0  0  0  0
  -17.6448  -30.6601   24.0589 C   0  0  0  0  0  0
  -25.9036  -34.9476   23.5142 C   0  0  0  0  0  0
  -16.5337  -29.9118   23.6336 C   0  0  0  0  0  0
  -16.7248  -28.6547   23.0330 C   0  0  0  0  0  0
  -26.4446  -31.6612   25.0720 C   0  0  0  0  0  0
  -25.3716  -31.3780   26.1496 C   0  0  0  0  0  0
  -27.0278  -30.3056   24.6101 C   0  0  0  0  0  0
  -27.6060  -32.4310   25.7443 C   0  0  0  0  0  0
  -27.5604  -37.1785   24.8439 C   0  0  0  0  0  0
  -21.4118  -29.3043   22.3780 N   0  0  0  0  0  0
  -26.4291  -37.3799   23.9431 N   0  0  0  0  0  0
  -24.6639  -31.0830   22.1014 N   0  0  0  0  0  0
  -23.4185  -28.8218   23.3026 O   0  0  0  0  0  0
  -28.3789  -26.7098   20.1327 O   0  0  0  0  0  0
  -26.5593  -34.8934   22.4693 O   0  0  0  0  0  0
  -23.5337  -32.1420   23.7577 O   0  0  0  0  0  0
  -31.7690  -18.7156   19.6386 C   0  0  0  0  0  0
  -29.5266  -19.2470   20.4029 C   0  0  0  0  0  0
  -31.5921  -17.3792   20.0369 C   0  0  0  0  0  0
  -29.3498  -17.8963   20.7980 C   0  0  0  0  0  0
  -30.7347  -19.6627   19.7933 C   0  0  0  0  0  0
  -30.3628  -16.9283   20.5897 C   0  0  0  0  0  0
  -30.9645  -21.0284   19.2779 C   0  0  0  0  0  0
  -31.1420  -23.4103   19.7759 C   0  0  0  0  0  0
  -32.3970  -23.6991   18.9834 C   0  0  0  0  0  0
  -29.2819  -24.6279   21.0445 C   0  0  0  0  0  0
  -28.1998  -25.2890   20.1819 C   0  0  0  0  0  0
  -31.4792  -21.1268   18.0440 N   0  3  0  0  0  0
  -30.0745  -15.5560   20.9160 N   0  0  0  0  0  0
  -30.6745  -22.1402   19.9954 N   0  0  0  0  0  0
  -30.5460  -24.5082   20.3024 N   0  3  0  0  0  0
  -31.4559  -12.3233   19.1483 H   0  0  0  0  0  0
  -30.2596  -11.2841   19.8620 H   0  0  0  0  0  0
  -29.7391  -11.7512   17.4433 H   0  0  0  0  0  0
  -29.6750  -13.4663   17.7752 H   0  0  0  0  0  0
  -27.8316  -11.2985   18.8428 H   0  0  0  0  0  0
  -27.3660  -12.6026   17.7890 H   0  0  0  0  0  0
  -27.6889  -14.2549   19.5401 H   0  0  0  0  0  0
  -28.6683  -12.0313   21.3973 H   0  0  0  0  0  0
  -28.4780  -13.7036   21.8365 H   0  0  0  0  0  0
  -25.2779   -9.5673   22.4763 H   0  0  0  0  0  0
  -24.0014   -7.4625   22.7463 H   0  0  0  0  0  0
  -21.0858   -8.8764   19.8954 H   0  0  0  0  0  0
  -22.3713  -10.9667   19.6157 H   0  0  0  0  0  0
  -21.1989   -7.6158   23.9749 H   0  0  0  0  0  0
  -21.1475   -6.0506   25.9092 H   0  0  0  0  0  0
  -22.0598   -2.7627   23.2815 H   0  0  0  0  0  0
  -22.4055  -11.9900   22.4780 H   0  0  0  0  0  0
  -21.1100  -13.1307   22.2562 H   0  0  0  0  0  0
  -24.6559  -15.8386   20.5250 H   0  0  0  0  0  0
  -26.2741  -15.6348   20.0816 H   0  0  0  0  0  0
  -26.7084  -32.5542   23.1154 H   0  0  0  0  0  0
  -25.0079  -33.9778   25.0511 H   0  0  0  0  0  0
  -22.6870  -31.3170   21.4236 H   0  0  0  0  0  0
  -23.3805  -35.9570   23.3209 H   0  0  0  0  0  0
  -24.3635  -36.9004   22.2068 H   0  0  0  0  0  0
  -23.7183  -37.6454   23.6702 H   0  0  0  0  0  0
  -26.0464  -31.6041   20.5982 H   0  0  0  0  0  0
  -26.8125  -30.8830   21.9868 H   0  0  0  0  0  0
  -28.0831  -29.1118   21.1773 H   0  0  0  0  0  0
  -26.0408  -26.0208   18.9473 H   0  0  0  0  0  0
  -23.9688  -27.3248   19.0069 H   0  0  0  0  0  0
  -23.7024  -30.6053   19.4056 H   0  0  0  0  0  0
  -22.7226  -29.2501   19.8779 H   0  0  0  0  0  0
  -25.1293  -36.1936   25.0826 H   0  0  0  0  0  0
  -20.9970  -28.3204   24.1460 H   0  0  0  0  0  0
  -20.5712  -26.2238   23.3621 H   0  0  0  0  0  0
  -21.6638  -26.7463   22.1197 H   0  0  0  0  0  0
  -19.6880  -25.6309   21.1257 H   0  0  0  0  0  0
  -19.6689  -27.3244   20.6802 H   0  0  0  0  0  0
  -17.4194  -26.6722   21.4012 H   0  0  0  0  0  0
  -18.0270  -26.0094   22.9024 H   0  0  0  0  0  0
  -19.7919  -30.7310   24.2248 H   0  0  0  0  0  0
  -17.5002  -31.6261   24.5232 H   0  0  0  0  0  0
  -15.5342  -30.3030   23.7684 H   0  0  0  0  0  0
  -15.8644  -28.0915   22.6967 H   0  0  0  0  0  0
  -24.5766  -30.7262   25.7845 H   0  0  0  0  0  0
  -24.9063  -32.2994   26.4999 H   0  0  0  0  0  0
  -25.8037  -30.8853   27.0213 H   0  0  0  0  0  0
  -26.2820  -29.6794   24.1187 H   0  0  0  0  0  0
  -27.4116  -29.7293   25.4534 H   0  0  0  0  0  0
  -27.8617  -30.4400   23.9209 H   0  0  0  0  0  0
  -27.2721  -33.3647   26.1970 H   0  0  0  0  0  0
  -28.3868  -32.6787   25.0237 H   0  0  0  0  0  0
  -28.0699  -31.8436   26.5381 H   0  0  0  0  0  0
  -28.2553  -38.0146   24.7631 H   0  0  0  0  0  0
  -28.1177  -36.2718   24.6083 H   0  0  0  0  0  0
  -27.2353  -37.1189   25.8832 H   0  0  0  0  0  0
  -20.9259  -29.8806   21.7050 H   0  0  0  0  0  0
  -26.0172  -38.2854   24.1497 H   0  0  0  0  0  0
  -32.7133  -19.0047   19.1953 H   0  0  0  0  0  0
  -28.7087  -19.9406   20.5429 H   0  0  0  0  0  0
  -32.4387  -16.7314   19.8771 H   0  0  0  0  0  0
  -28.4097  -17.6018   21.2415 H   0  0  0  0  0  0
  -33.1871  -22.9940   19.2429 H   0  0  0  0  0  0
  -32.7800  -24.6988   19.1979 H   0  0  0  0  0  0
  -32.2093  -23.6555   17.9117 H   0  0  0  0  0  0
  -28.9328  -23.6434   21.3535 H   0  0  0  0  0  0
  -29.4365  -25.1974   21.9613 H   0  0  0  0  0  0
  -27.2402  -25.0139   20.6247 H   0  0  0  0  0  0
  -28.2105  -24.8835   19.1699 H   0  0  0  0  0  0
  -31.6096  -20.2853   17.5077 H   0  0  0  0  0  0
  -31.5246  -22.0111   17.5675 H   0  0  0  0  0  0
  -29.1512  -15.3753   21.2754 H   0  0  0  0  0  0
  -30.1154  -21.9558   20.8122 H   0  0  0  0  0  0
  -30.9867  -25.4048   20.1293 H   0  0  0  0  0  0
  1 25  1  0  0  0
  1 30  2  0  0  0
  1 83  1  0  0  0
  2  3  1  0  0  0
  2 25  1  0  0  0
  2 86  1  0  0  0
  2 87  1  0  0  0
  3  4  1  0  0  0
  3 88  1  0  0  0
  3 89  1  0  0  0
  4  5  1  0  0  0
  4 90  1  0  0  0
  4 91  1  0  0  0
  5  6  1  0  0  0
  5 26  1  0  0  0
  5 92  1  0  0  0
  6 25  1  0  0  0
  6 93  1  0  0  0
  6 94  1  0  0  0
  7  8  2  0  0  0
  7 26  1  0  0  0
  7 29  1  0  0  0
  8  9  1  0  0  0
  8 22  1  0  0  0
  9 10  1  0  0  0
  9 27  2  0  0  0
 10 11  2  0  0  0
 10 15  1  0  0  0
 11 12  1  0  0  0
 11 95  1  0  0  0
 12 13  2  0  0  0
 12 96  1  0  0  0
 13 14  1  0  0  0
 13 31  1  0  0  0
 14 15  2  0  0  0
 14 97  1  0  0  0
 15 98  1  0  0  0
 16 17  2  0  0  0
 16 21  1  0  0  0
 16 31  1  0  0  0
 17 18  1  0  0  0
 17 99  1  0  0  0
 18 19  2  0  0  0
 18100  1  0  0  0
 19 20  1  0  0  0
 19 24  1  0  0  0
 20 21  2  0  0  0
 20101  1  0  0  0
 21 23  1  0  0  0
 22 28  1  0  0  0
 22 32  2  0  0  0
 26 27  1  0  0  0
 28102  1  0  0  0
 28103  1  0  0  0
 29104  1  0  0  0
 29105  1  0  0  0
 33 34  1  0  0  0
 33 66  1  0  0  0
 33 70  2  0  0  0
 34 36  1  0  0  0
 34 59  1  0  0  0
 34106  1  0  0  0
 35 44  2  0  0  0
 35 45  1  0  0  0
 35 68  1  0  0  0
 36 56  1  0  0  0
 36107  1  0  0  0
 37 39  1  0  0  0
 37 47  1  0  0  0
 37 66  1  0  0  0
 37108  1  0  0  0
 38 43  2  0  0  0
 38 46  1  0  0  0
 38 47  1  0  0  0
 39 64  1  0  0  0
 39 67  2  0  0  0
 40 52  1  0  0  0
 40 53  2  0  0  0
 40 58  1  0  0  0
 41109  1  0  0  0
 41110  1  0  0  0
 41111  1  0  0  0
 41 48  1  0  0  0
 42 43  1  0  0  0
 42 66  1  0  0  0
 42112  1  0  0  0
 42113  1  0  0  0
 43 44  1  0  0  0
 44114  1  0  0  0
 45 46  2  0  0  0
 45115  1  0  0  0
 46116  1  0  0  0
 47117  1  0  0  0
 47118  1  0  0  0
 48 56  1  0  0  0
 48 65  1  0  0  0
 48119  1  0  0  0
 49 50  1  0  0  0
 49 53  1  0  0  0
 49 64  1  0  0  0
 49120  1  0  0  0
 50 51  1  0  0  0
 50121  1  0  0  0
 50122  1  0  0  0
 51 52  1  0  0  0
 51123  1  0  0  0
 51124  1  0  0  0
 52125  1  0  0  0
 52126  1  0  0  0
 53 54  1  0  0  0
 54 55  2  0  0  0
 54127  1  0  0  0
 55 57  1  0  0  0
 55128  1  0  0  0
 56 69  2  0  0  0
 57 58  2  0  0  0
 57129  1  0  0  0
 58130  1  0  0  0
 59 60  1  0  0  0
 59 61  1  0  0  0
 59 62  1  0  0  0
 60131  1  0  0  0
 60132  1  0  0  0
 60133  1  0  0  0
 61134  1  0  0  0
 61135  1  0  0  0
 61136  1  0  0  0
 62137  1  0  0  0
 62138  1  0  0  0
 62139  1  0  0  0
 63 65  1  0  0  0
 63140  1  0  0  0
 63141  1  0  0  0
 63142  1  0  0  0
 64143  1  0  0  0
 65144  1  0  0  0
 68 81  1  0  0  0
 71 73  2  0  0  0
 71 75  1  0  0  0
 71145  1  0  0  0
 72 74  1  0  0  0
 72 75  2  0  0  0
 72146  1  0  0  0
 73 76  1  0  0  0
 73147  1  0  0  0
 74 76  2  0  0  0
 74148  1  0  0  0
 75 77  1  0  0  0
 76 83  1  0  0  0
 77 82  2  0  0  0
 77 84  1  0  0  0
 78 79  1  0  0  0
 78 84  1  0  0  0
 78 85  2  0  0  0
 79149  1  0  0  0
 79150  1  0  0  0
 79151  1  0  0  0
 80 81  1  0  0  0
 80 85  1  0  0  0
 80152  1  0  0  0
 80153  1  0  0  0
 81154  1  0  0  0
 81155  1  0  0  0
 82156  1  0  0  0
 82157  1  0  0  0
 83158  1  0  0  0
 84159  1  0  0  0
 85160  1  0  0  0
M  CHG  2  82   1  85   1
M  ISO  4   1 100  68 101  81 101  83 100
M  END
> <chiral flag>
0

> <version>
0

> <s_m_source_file>
/data/baiqing/PycharmProjects/Reinvent-master-3.2/result/LINK_invent/BTK/process_docking_weight1_custom_product_contain_oxygen_bond_distance_aromatic_linkinvent_7_9_3/rearranged_h_0017.sdf

> <i_m_source_file_index>
34

> <r_mmod_Potential_Energy-OPLS-2005>
-267.386932373047

> <r_mmod_Stretch_Energy-OPLS-2005>
39.2974967956543

> <r_mmod_Bend_Energy-OPLS-2005>
110.806159973145

> <r_mmod_Torsional_Energy-OPLS-2005>
245.275253295898

> <r_mmod_Improper_Torsional_Energy-OPLS-2005>
5.26785278320312

> <r_mmod_Van_der_Waal_Energy-OPLS-2005>
178.419784545898

> <r_mmod_Electrostatic_Energy-OPLS-2005>
132.328033447266

> <r_mmod_Solvation_Energy-OPLS-2005>
-997.348754882812

> <b_mmod_Minimization_Converged-OPLS-2005>
0

> <r_mmod_RMS_Derivative-OPLS-2005>
3.04502987861633

$$$$
35
                    3D
 Structure written by MMmdl.
166175  0  0  1  0            999 V2000
  -30.6535  -14.7072   20.3726 C   0  0  0  0  0  0
  -30.4427  -12.4025   19.4551 C   0  0  0  0  0  0
  -29.5015  -12.3789   18.2282 C   0  0  0  0  0  0
  -28.0211  -12.2980   18.6474 C   0  0  0  0  0  0
  -27.6450  -13.2199   19.8414 C   0  0  2  0  0  0
  -28.7088  -13.1832   20.9592 C   0  0  0  0  0  0
  -25.2587  -13.8191   20.5734 C   0  0  0  0  0  0
  -24.1847  -13.0444   20.9217 C   0  0  0  0  0  0
  -24.6415  -11.6921   20.8771 C   0  0  0  0  0  0
  -23.9083  -10.4297   21.0422 C   0  0  0  0  0  0
  -24.3632   -9.4209   21.9199 C   0  0  0  0  0  0
  -23.6306   -8.2249   22.0763 C   0  0  0  0  0  0
  -22.4294   -8.0293   21.3549 C   0  0  0  0  0  0
  -21.9928   -9.0270   20.4658 C   0  0  0  0  0  0
  -22.7257  -10.2149   20.3068 C   0  0  0  0  0  0
  -21.6852   -6.0751   22.5287 C   0  0  0  0  0  0
  -21.4001   -6.5652   23.8214 C   0  0  0  0  0  0
  -21.3655   -5.6813   24.9181 C   0  0  0  0  0  0
  -21.6054   -4.3073   24.7229 C   0  0  0  0  0  0
  -21.8819   -3.8160   23.4348 C   0  0  0  0  0  0
  -21.9188   -4.6978   22.3406 C   0  0  0  0  0  0
  -22.7872  -13.5249   21.1848 C   0  0  0  0  0  0
  -22.1660   -4.2163   21.0979 F   0  0  0  0  0  0
  -21.5628   -3.4548   25.7732 F   0  0  0  0  0  0
  -30.0012  -13.4967   20.3407 N   0  0  0  0  0  0
  -26.3004  -12.9371   20.3355 N   0  0  0  0  0  0
  -25.9351  -11.6520   20.5830 N   0  0  0  0  0  0
  -22.0511  -12.8241   22.0398 N   0  0  0  0  0  0
  -25.4286  -15.1915   20.4145 N   0  0  0  0  0  0
  -31.8833  -14.7468   20.2942 O   0  0  0  0  0  0
  -21.6653   -6.8899   21.4250 O   0  0  0  0  0  0
  -22.3565  -14.5546   20.6684 O   0  0  0  0  0  0
  -24.6291  -31.8546   23.2000 C   0  0  0  0  0  0
  -25.9134  -32.4756   23.8326 C   0  0  1  0  0  0
  -27.2470  -27.3089   20.1233 C   0  0  0  0  0  0
  -25.5942  -33.8551   24.2271 N   0  0  0  0  0  0
  -23.4230  -30.4780   21.5389 C   0  0  2  0  0  0
  -24.8768  -28.9272   20.1112 C   0  0  0  0  0  0
  -22.7476  -29.4622   22.4909 C   0  0  0  0  0  0
  -18.0293  -28.1372   22.8501 C   0  0  0  0  0  0
  -24.1485  -36.7279   23.2636 C   0  0  0  0  0  0
  -25.9636  -30.7864   21.3689 C   0  0  0  0  0  0
  -26.0424  -29.4102   20.7163 C   0  0  0  0  0  0
  -27.2260  -28.6120   20.7133 C   0  0  0  0  0  0
  -26.0537  -26.8797   19.4956 C   0  0  0  0  0  0
  -24.8857  -27.6682   19.4899 C   0  0  0  0  0  0
  -23.6420  -29.8048   20.1572 C   0  0  0  0  0  0
  -25.4108  -36.3065   24.0330 C   0  0  1  0  0  0
  -20.5895  -28.3691   23.1283 C   0  0  2  0  0  0
  -20.6782  -26.9407   22.5422 C   0  0  0  0  0  0
  -19.5758  -26.6369   21.5232 C   0  0  0  0  0  0
  -18.1933  -26.7922   22.1627 C   0  0  0  0  0  0
  -19.1541  -28.8853   23.2894 C   0  0  0  0  0  0
  -18.9461  -30.1454   23.8912 C   0  0  0  0  0  0
  -17.6461  -30.6592   24.0555 C   0  0  0  0  0  0
  -25.9043  -34.9439   23.5096 C   0  0  0  0  0  0
  -16.5355  -29.9085   23.6332 C   0  0  0  0  0  0
  -16.7280  -28.6493   23.0372 C   0  0  0  0  0  0
  -26.4530  -31.6551   25.0686 C   0  0  0  0  0  0
  -25.3776  -31.3665   26.1410 C   0  0  0  0  0  0
  -27.0381  -30.2974   24.6137 C   0  0  0  0  0  0
  -27.6092  -32.4265   25.7459 C   0  0  0  0  0  0
  -27.5576  -37.1788   24.8467 C   0  0  0  0  0  0
  -21.4194  -29.3028   22.3664 N   0  0  0  0  0  0
  -26.4275  -37.3765   23.9425 N   0  0  0  0  0  0
  -24.6901  -31.0566   22.0928 N   0  0  0  0  0  0
  -23.4212  -28.8165   23.2997 O   0  0  0  0  0  0
  -28.3954  -26.4899   20.1956 O   0  0  0  0  0  0
  -26.5610  -34.8918   22.4656 O   0  0  0  0  0  0
  -23.5453  -32.1327   23.7328 O   0  0  0  0  0  0
  -30.5657  -19.1805   21.6087 C   0  0  0  0  0  0
  -30.6396  -17.7765   21.3280 C   0  0  0  0  0  0
  -28.9036  -18.0567   19.6954 C   0  0  0  0  0  0
  -29.6864  -20.0710   20.9161 C   0  0  0  0  0  0
  -28.8408  -19.4601   19.9514 C   0  0  0  0  0  0
  -29.8277  -17.1690   20.3325 C   0  0  0  0  0  0
  -29.6231  -21.5714   21.2190 C   0  0  0  0  0  0
  -27.8350  -20.3088   19.1825 C   0  0  0  0  0  0
  -28.4657  -21.4005   18.2971 C   0  0  0  0  0  0
  -29.7057  -22.1078   18.8839 C   0  0  0  0  0  0
  -28.5639  -25.0966   18.2575 C   0  0  0  0  0  0
  -29.9041  -15.7275   18.3600 C   0  0  0  0  0  0
  -29.4660  -24.1066   20.5173 C   0  0  0  0  0  0
  -28.3804  -25.0576   19.7895 C   0  0  1  0  0  0
  -29.4903  -22.5776   20.2725 N   0  0  0  0  0  0
  -29.9532  -15.7794   19.8382 N   0  0  0  0  0  0
  -29.7025  -21.9281   22.4971 N   0  3  0  0  0  0
  -31.4778  -12.5281   19.1295 H   0  0  0  0  0  0
  -30.4056  -11.4498   19.9877 H   0  0  0  0  0  0
  -29.7472  -11.5172   17.6056 H   0  0  0  0  0  0
  -29.6573  -13.2339   17.5799 H   0  0  0  0  0  0
  -27.8293  -11.2578   18.9106 H   0  0  0  0  0  0
  -27.3800  -12.5101   17.7908 H   0  0  0  0  0  0
  -27.6243  -14.2338   19.4473 H   0  0  0  0  0  0
  -28.7437  -12.2052   21.4403 H   0  0  0  0  0  0
  -28.4771  -13.9111   21.7391 H   0  0  0  0  0  0
  -25.2768   -9.5694   22.4786 H   0  0  0  0  0  0
  -24.0009   -7.4651   22.7489 H   0  0  0  0  0  0
  -21.0851   -8.8802   19.8980 H   0  0  0  0  0  0
  -22.3704  -10.9702   19.6190 H   0  0  0  0  0  0
  -21.1981   -7.6158   23.9711 H   0  0  0  0  0  0
  -21.1478   -6.0544   25.9086 H   0  0  0  0  0  0
  -22.0587   -2.7620   23.2845 H   0  0  0  0  0  0
  -22.4096  -11.9867   22.4758 H   0  0  0  0  0  0
  -21.1131  -13.1278   22.2584 H   0  0  0  0  0  0
  -24.6616  -15.8448   20.5298 H   0  0  0  0  0  0
  -26.2898  -15.6357   20.1234 H   0  0  0  0  0  0
  -26.7198  -32.5440   23.1075 H   0  0  0  0  0  0
  -25.0171  -33.9661   25.0476 H   0  0  0  0  0  0
  -22.7186  -31.2995   21.3896 H   0  0  0  0  0  0
  -23.3745  -35.9612   23.3292 H   0  0  0  0  0  0
  -24.3595  -36.8895   22.2052 H   0  0  0  0  0  0
  -23.7234  -37.6478   23.6662 H   0  0  0  0  0  0
  -26.0898  -31.5466   20.5967 H   0  0  0  0  0  0
  -26.8446  -30.8412   21.9965 H   0  0  0  0  0  0
  -28.1219  -28.9797   21.1932 H   0  0  0  0  0  0
  -25.9924  -25.9190   19.0070 H   0  0  0  0  0  0
  -23.9958  -27.2922   19.0044 H   0  0  0  0  0  0
  -23.7617  -30.5754   19.3953 H   0  0  0  0  0  0
  -22.7660  -29.2279   19.8591 H   0  0  0  0  0  0
  -25.1289  -36.1902   25.0825 H   0  0  0  0  0  0
  -21.0002  -28.3267   24.1398 H   0  0  0  0  0  0
  -20.5699  -26.2299   23.3625 H   0  0  0  0  0  0
  -21.6649  -26.7446   22.1204 H   0  0  0  0  0  0
  -19.6919  -25.6284   21.1256 H   0  0  0  0  0  0
  -19.6686  -27.3188   20.6776 H   0  0  0  0  0  0
  -17.4210  -26.6698   21.4020 H   0  0  0  0  0  0
  -18.0313  -26.0046   22.9007 H   0  0  0  0  0  0
  -19.7934  -30.7260   24.2292 H   0  0  0  0  0  0
  -17.5013  -31.6275   24.5132 H   0  0  0  0  0  0
  -15.5354  -30.2984   23.7633 H   0  0  0  0  0  0
  -15.8679  -28.0794   22.7104 H   0  0  0  0  0  0
  -24.6015  -30.6941   25.7746 H   0  0  0  0  0  0
  -24.8904  -32.2814   26.4790 H   0  0  0  0  0  0
  -25.8114  -30.8898   27.0214 H   0  0  0  0  0  0
  -26.2959  -29.6688   24.1205 H   0  0  0  0  0  0
  -27.4142  -29.7265   25.4645 H   0  0  0  0  0  0
  -27.8798  -30.4256   23.9323 H   0  0  0  0  0  0
  -27.2741  -33.3598   26.2002 H   0  0  0  0  0  0
  -28.3937  -32.6745   25.0300 H   0  0  0  0  0  0
  -28.0735  -31.8393   26.5399 H   0  0  0  0  0  0
  -28.2568  -38.0107   24.7548 H   0  0  0  0  0  0
  -28.1086  -36.2643   24.6238 H   0  0  0  0  0  0
  -27.2312  -37.1376   25.8869 H   0  0  0  0  0  0
  -20.9373  -29.8711   21.6830 H   0  0  0  0  0  0
  -26.0146  -38.2831   24.1434 H   0  0  0  0  0  0
  -31.2328  -19.5764   22.3628 H   0  0  0  0  0  0
  -31.3709  -17.1829   21.8579 H   0  0  0  0  0  0
  -28.2341  -17.6597   18.9451 H   0  0  0  0  0  0
  -27.1776  -20.7851   19.9128 H   0  0  0  0  0  0
  -27.1826  -19.6853   18.5717 H   0  0  0  0  0  0
  -27.6898  -22.1128   18.0266 H   0  0  0  0  0  0
  -28.7863  -20.9456   17.3603 H   0  0  0  0  0  0
  -30.0260  -22.9257   18.2412 H   0  0  0  0  0  0
  -30.5634  -21.4288   18.8596 H   0  0  0  0  0  0
  -28.3097  -24.1530   17.7887 H   0  0  0  0  0  0
  -29.5921  -25.3380   17.9885 H   0  0  0  0  0  0
  -27.9295  -25.8377   17.7742 H   0  0  0  0  0  0
  -30.1087  -16.6929   17.8967 H   0  0  0  0  0  0
  -28.9289  -15.3965   18.0048 H   0  0  0  0  0  0
  -30.6697  -15.0804   17.9296 H   0  0  0  0  0  0
  -29.3711  -24.2860   21.5877 H   0  0  0  0  0  0
  -30.4623  -24.4770   20.2754 H   0  0  0  0  0  0
  -27.4091  -24.6251   20.0253 H   0  0  0  0  0  0
  -29.7298  -21.2032   23.1974 H   0  0  0  0  0  0
  -29.7970  -22.8867   22.7865 H   0  0  0  0  0  0
  1 25  1  0  0  0
  1 30  2  0  0  0
  1 86  1  0  0  0
  2  3  1  0  0  0
  2 25  1  0  0  0
  2 88  1  0  0  0
  2 89  1  0  0  0
  3  4  1  0  0  0
  3 90  1  0  0  0
  3 91  1  0  0  0
  4  5  1  0  0  0
  4 92  1  0  0  0
  4 93  1  0  0  0
  5  6  1  0  0  0
  5 26  1  0  0  0
  5 94  1  0  0  0
  6 25  1  0  0  0
  6 95  1  0  0  0
  6 96  1  0  0  0
  7  8  2  0  0  0
  7 26  1  0  0  0
  7 29  1  0  0  0
  8  9  1  0  0  0
  8 22  1  0  0  0
  9 10  1  0  0  0
  9 27  2  0  0  0
 10 11  2  0  0  0
 10 15  1  0  0  0
 11 12  1  0  0  0
 11 97  1  0  0  0
 12 13  2  0  0  0
 12 98  1  0  0  0
 13 14  1  0  0  0
 13 31  1  0  0  0
 14 15  2  0  0  0
 14 99  1  0  0  0
 15100  1  0  0  0
 16 17  2  0  0  0
 16 21  1  0  0  0
 16 31  1  0  0  0
 17 18  1  0  0  0
 17101  1  0  0  0
 18 19  2  0  0  0
 18102  1  0  0  0
 19 20  1  0  0  0
 19 24  1  0  0  0
 20 21  2  0  0  0
 20103  1  0  0  0
 21 23  1  0  0  0
 22 28  1  0  0  0
 22 32  2  0  0  0
 26 27  1  0  0  0
 28104  1  0  0  0
 28105  1  0  0  0
 29106  1  0  0  0
 29107  1  0  0  0
 33 34  1  0  0  0
 33 66  1  0  0  0
 33 70  2  0  0  0
 34 36  1  0  0  0
 34 59  1  0  0  0
 34108  1  0  0  0
 35 44  2  0  0  0
 35 45  1  0  0  0
 35 68  1  0  0  0
 36 56  1  0  0  0
 36109  1  0  0  0
 37 39  1  0  0  0
 37 47  1  0  0  0
 37 66  1  0  0  0
 37110  1  0  0  0
 38 43  2  0  0  0
 38 46  1  0  0  0
 38 47  1  0  0  0
 39 64  1  0  0  0
 39 67  2  0  0  0
 40 52  1  0  0  0
 40 53  2  0  0  0
 40 58  1  0  0  0
 41111  1  0  0  0
 41112  1  0  0  0
 41113  1  0  0  0
 41 48  1  0  0  0
 42 43  1  0  0  0
 42 66  1  0  0  0
 42114  1  0  0  0
 42115  1  0  0  0
 43 44  1  0  0  0
 44116  1  0  0  0
 45 46  2  0  0  0
 45117  1  0  0  0
 46118  1  0  0  0
 47119  1  0  0  0
 47120  1  0  0  0
 48 56  1  0  0  0
 48 65  1  0  0  0
 48121  1  0  0  0
 49 50  1  0  0  0
 49 53  1  0  0  0
 49 64  1  0  0  0
 49122  1  0  0  0
 50 51  1  0  0  0
 50123  1  0  0  0
 50124  1  0  0  0
 51 52  1  0  0  0
 51125  1  0  0  0
 51126  1  0  0  0
 52127  1  0  0  0
 52128  1  0  0  0
 53 54  1  0  0  0
 54 55  2  0  0  0
 54129  1  0  0  0
 55 57  1  0  0  0
 55130  1  0  0  0
 56 69  2  0  0  0
 57 58  2  0  0  0
 57131  1  0  0  0
 58132  1  0  0  0
 59 60  1  0  0  0
 59 61  1  0  0  0
 59 62  1  0  0  0
 60133  1  0  0  0
 60134  1  0  0  0
 60135  1  0  0  0
 61136  1  0  0  0
 61137  1  0  0  0
 61138  1  0  0  0
 62139  1  0  0  0
 62140  1  0  0  0
 62141  1  0  0  0
 63 65  1  0  0  0
 63142  1  0  0  0
 63143  1  0  0  0
 63144  1  0  0  0
 64145  1  0  0  0
 65146  1  0  0  0
 68 84  1  0  0  0
 71 72  2  0  0  0
 71 74  1  0  0  0
 71147  1  0  0  0
 72 76  1  0  0  0
 72148  1  0  0  0
 73 75  1  0  0  0
 73 76  2  0  0  0
 73149  1  0  0  0
 74 75  2  0  0  0
 74 77  1  0  0  0
 75 78  1  0  0  0
 76 86  1  0  0  0
 77 85  1  0  0  0
 77 87  2  0  0  0
 78 79  1  0  0  0
 78150  1  0  0  0
 78151  1  0  0  0
 79 80  1  0  0  0
 79152  1  0  0  0
 79153  1  0  0  0
 80 85  1  0  0  0
 80154  1  0  0  0
 80155  1  0  0  0
 81156  1  0  0  0
 81157  1  0  0  0
 81158  1  0  0  0
 81 84  1  0  0  0
 82 86  1  0  0  0
 82159  1  0  0  0
 82160  1  0  0  0
 82161  1  0  0  0
 83 84  1  0  0  0
 83 85  1  0  0  0
 83162  1  0  0  0
 83163  1  0  0  0
 84164  1  0  0  0
 87165  1  0  0  0
 87166  1  0  0  0
M  CHG  1  87   1
M  ISO  4   1 100  68 101  84 101  86 100
M  END
> <chiral flag>
0

> <version>
0

> <s_m_source_file>
/data/baiqing/PycharmProjects/Reinvent-master-3.2/result/LINK_invent/BTK/process_docking_weight1_custom_product_contain_oxygen_bond_distance_aromatic_linkinvent_7_9_3/rearranged_h_0017.sdf

> <i_m_source_file_index>
35

> <r_mmod_Potential_Energy-OPLS-2005>
193.270278930664

> <r_mmod_Stretch_Energy-OPLS-2005>
107.556358337402

> <r_mmod_Bend_Energy-OPLS-2005>
169.040222167969

> <r_mmod_Torsional_Energy-OPLS-2005>
334.157745361328

> <r_mmod_Improper_Torsional_Energy-OPLS-2005>
26.909969329834

> <r_mmod_Van_der_Waal_Energy-OPLS-2005>
172.730072021484

> <r_mmod_Electrostatic_Energy-OPLS-2005>
-310.697998046875

> <r_mmod_Solvation_Energy-OPLS-2005>
-383.388031005859

> <b_mmod_Minimization_Converged-OPLS-2005>
0

> <r_mmod_RMS_Derivative-OPLS-2005>
3.31102442741394

$$$$
36
                    3D
 Structure written by MMmdl.
162170  0  0  1  0            999 V2000
  -30.4958  -14.5469   20.5861 C   0  0  0  0  0  0
  -30.4295  -12.3372   19.4225 C   0  0  0  0  0  0
  -29.4782  -12.4993   18.2100 C   0  0  0  0  0  0
  -27.9975  -12.3619   18.6250 C   0  0  0  0  0  0
  -27.6552  -13.1493   19.9154 C   0  0  2  0  0  0
  -28.6992  -12.8548   21.0115 C   0  0  0  0  0  0
  -25.2643  -13.8030   20.5861 C   0  0  0  0  0  0
  -24.1755  -13.0327   20.9174 C   0  0  0  0  0  0
  -24.6250  -11.6827   20.8820 C   0  0  0  0  0  0
  -23.8923  -10.4197   21.0431 C   0  0  0  0  0  0
  -24.3510   -9.4148   21.9217 C   0  0  0  0  0  0
  -23.6215   -8.2176   22.0752 C   0  0  0  0  0  0
  -22.4246   -8.0213   21.3508 C   0  0  0  0  0  0
  -21.9818   -9.0181   20.4647 C   0  0  0  0  0  0
  -22.7104  -10.2082   20.3065 C   0  0  0  0  0  0
  -21.6821   -6.0714   22.5273 C   0  0  0  0  0  0
  -21.3987   -6.5621   23.8203 C   0  0  0  0  0  0
  -21.3652   -5.6784   24.9177 C   0  0  0  0  0  0
  -21.6050   -4.3046   24.7237 C   0  0  0  0  0  0
  -21.8830   -3.8132   23.4360 C   0  0  0  0  0  0
  -21.9187   -4.6943   22.3407 C   0  0  0  0  0  0
  -22.7853  -13.5264   21.1814 C   0  0  0  0  0  0
  -22.1669   -4.2126   21.0980 F   0  0  0  0  0  0
  -21.5637   -3.4539   25.7742 F   0  0  0  0  0  0
  -30.0019  -13.2755   20.4767 N   0  0  0  0  0  0
  -26.2949  -12.9026   20.3626 N   0  0  0  0  0  0
  -25.9125  -11.6297   20.5881 N   0  0  0  0  0  0
  -22.0435  -12.8250   22.0400 N   0  0  0  0  0  0
  -25.4495  -15.1716   20.4511 N   0  0  0  0  0  0
  -31.5900  -14.8779   20.1188 O   0  0  0  0  0  0
  -21.6615   -6.8843   21.4231 O   0  0  0  0  0  0
  -22.3610  -14.5565   20.6659 O   0  0  0  0  0  0
  -24.6334  -31.8666   23.1998 C   0  0  0  0  0  0
  -25.9152  -32.4790   23.8264 C   0  0  1  0  0  0
  -27.1354  -27.3176   20.2216 C   0  0  0  0  0  0
  -25.5990  -33.8602   24.2239 N   0  0  0  0  0  0
  -23.4125  -30.5031   21.5489 C   0  0  2  0  0  0
  -24.8251  -28.9517   20.1032 C   0  0  0  0  0  0
  -22.7557  -29.4812   22.5021 C   0  0  0  0  0  0
  -18.0625  -28.0825   22.8480 C   0  0  0  0  0  0
  -24.1485  -36.7282   23.2628 C   0  0  0  0  0  0
  -25.9433  -30.8149   21.3495 C   0  0  0  0  0  0
  -25.9976  -29.4496   20.6926 C   0  0  0  0  0  0
  -27.1713  -28.6553   20.7075 C   0  0  0  0  0  0
  -25.9701  -26.8690   19.5716 C   0  0  0  0  0  0
  -24.8138  -27.6708   19.5246 C   0  0  0  0  0  0
  -23.6010  -29.8445   20.1560 C   0  0  0  0  0  0
  -25.4112  -36.3060   24.0322 C   0  0  1  0  0  0
  -20.6281  -28.3540   23.1235 C   0  0  2  0  0  0
  -20.7515  -26.9569   22.4491 C   0  0  0  0  0  0
  -19.6110  -26.6024   21.4804 C   0  0  0  0  0  0
  -18.2378  -26.7441   22.1634 C   0  0  0  0  0  0
  -19.1812  -28.8421   23.2849 C   0  0  0  0  0  0
  -18.9648  -30.0952   23.8955 C   0  0  0  0  0  0
  -17.6604  -30.6085   24.0459 C   0  0  0  0  0  0
  -25.9094  -34.9468   23.5079 C   0  0  0  0  0  0
  -16.5539  -29.8562   23.5940 C   0  0  0  0  0  0
  -16.7566  -28.6049   23.0026 C   0  0  0  0  0  0
  -26.4497  -31.6616   25.0654 C   0  0  0  0  0  0
  -25.3734  -31.3828   26.1384 C   0  0  0  0  0  0
  -27.0343  -30.3053   24.6164 C   0  0  0  0  0  0
  -27.6059  -32.4322   25.7469 C   0  0  0  0  0  0
  -27.5565  -37.1811   24.8467 C   0  0  0  0  0  0
  -21.4288  -29.3356   22.4017 N   0  0  0  0  0  0
  -26.4266  -37.3771   23.9417 N   0  0  0  0  0  0
  -24.6813  -31.0786   22.0866 N   0  0  0  0  0  0
  -23.4502  -28.8031   23.2678 O   0  0  0  0  0  0
  -28.1877  -26.4458   20.4550 O   0  0  0  0  0  0
  -26.5642  -34.8941   22.4640 O   0  0  0  0  0  0
  -23.5527  -32.1438   23.7495 O   0  0  0  0  0  0
  -28.2487  -18.8464   22.0386 C   0  0  0  0  0  0
  -28.9969  -17.6217   22.0913 C   0  0  0  0  0  0
  -27.6009  -18.2934   19.8013 C   0  0  0  0  0  0
  -27.5179  -19.2205   20.8732 C   0  0  0  0  0  0
  -28.3846  -17.1067   19.8195 C   0  0  0  0  0  0
  -29.0925  -16.7176   20.9930 C   0  0  0  0  0  0
  -28.3749  -16.2962   18.5424 C   0  0  0  0  0  0
  -25.5103  -21.1492   22.7163 C   0  0  0  0  0  0
  -26.7488  -20.5729   20.6247 C   0  0  0  0  0  0
  -27.0548  -24.2470   21.6586 C   0  0  0  0  0  0
  -26.1930  -23.0006   21.1757 C   0  0  0  0  0  0
  -27.9520  -24.9748   20.5504 C   0  0  0  0  0  0
  -29.6384  -15.3853   21.2471 N   0  0  0  0  0  0
  -26.5221  -21.5958   21.7154 N   0  3  1  0  0  0
  -31.4638  -12.5002   19.1137 H   0  0  0  0  0  0
  -30.3883  -11.3065   19.7836 H   0  0  0  0  0  0
  -29.7035  -11.7592   17.4389 H   0  0  0  0  0  0
  -29.6444  -13.4713   17.7480 H   0  0  0  0  0  0
  -27.7898  -11.3012   18.7927 H   0  0  0  0  0  0
  -27.3391  -12.6761   17.8182 H   0  0  0  0  0  0
  -27.7043  -14.1992   19.6918 H   0  0  0  0  0  0
  -28.7047  -11.7848   21.2286 H   0  0  0  0  0  0
  -28.4468  -13.3333   21.9574 H   0  0  0  0  0  0
  -25.2653   -9.5689   22.4804 H   0  0  0  0  0  0
  -23.9958   -7.4591   22.7444 H   0  0  0  0  0  0
  -21.0764   -8.8702   19.8935 H   0  0  0  0  0  0
  -22.3553  -10.9662   19.6201 H   0  0  0  0  0  0
  -21.1960   -7.6131   23.9701 H   0  0  0  0  0  0
  -21.1466   -6.0521   25.9085 H   0  0  0  0  0  0
  -22.0614   -2.7592   23.2864 H   0  0  0  0  0  0
  -22.4008  -11.9875   22.4758 H   0  0  0  0  0  0
  -21.1060  -13.1307   22.2595 H   0  0  0  0  0  0
  -24.7024  -15.8339   20.6284 H   0  0  0  0  0  0
  -26.3478  -15.6177   20.3014 H   0  0  0  0  0  0
  -26.7255  -32.5363   23.1008 H   0  0  0  0  0  0
  -25.0075  -33.9679   25.0355 H   0  0  0  0  0  0
  -22.6992  -31.3231   21.4337 H   0  0  0  0  0  0
  -23.3735  -35.9617   23.3312 H   0  0  0  0  0  0
  -24.3563  -36.8915   22.2028 H   0  0  0  0  0  0
  -23.7250  -37.6513   23.6659 H   0  0  0  0  0  0
  -26.1054  -31.5844   20.5992 H   0  0  0  0  0  0
  -26.8191  -30.8324   21.9849 H   0  0  0  0  0  0
  -28.0753  -29.0297   21.1705 H   0  0  0  0  0  0
  -25.9194  -25.8659   19.1683 H   0  0  0  0  0  0
  -23.9117  -27.3025   19.0481 H   0  0  0  0  0  0
  -23.7164  -30.6416   19.4235 H   0  0  0  0  0  0
  -22.7070  -29.3109   19.8395 H   0  0  0  0  0  0
  -25.1295  -36.1881   25.0820 H   0  0  0  0  0  0
  -21.0177  -28.2767   24.1452 H   0  0  0  0  0  0
  -20.7552  -26.2200   23.2635 H   0  0  0  0  0  0
  -21.7129  -26.8305   21.9463 H   0  0  0  0  0  0
  -19.7276  -25.5798   21.1134 H   0  0  0  0  0  0
  -19.6449  -27.2305   20.5918 H   0  0  0  0  0  0
  -17.4503  -26.6175   21.4218 H   0  0  0  0  0  0
  -18.1074  -25.9558   22.9218 H   0  0  0  0  0  0
  -19.8197  -30.6368   24.2851 H   0  0  0  0  0  0
  -17.5156  -31.5766   24.5053 H   0  0  0  0  0  0
  -15.5436  -30.2450   23.6983 H   0  0  0  0  0  0
  -15.9096  -28.0162   22.6507 H   0  0  0  0  0  0
  -24.5883  -30.7181   25.7738 H   0  0  0  0  0  0
  -24.8893  -32.3038   26.4712 H   0  0  0  0  0  0
  -25.8000  -30.9068   27.0238 H   0  0  0  0  0  0
  -26.2952  -29.6789   24.1163 H   0  0  0  0  0  0
  -27.4040  -29.7312   25.4674 H   0  0  0  0  0  0
  -27.8800  -30.4313   23.9389 H   0  0  0  0  0  0
  -27.2700  -33.3668   26.2030 H   0  0  0  0  0  0
  -28.3931  -32.6891   25.0330 H   0  0  0  0  0  0
  -28.0709  -31.8452   26.5441 H   0  0  0  0  0  0
  -28.2599  -38.0097   24.7486 H   0  0  0  0  0  0
  -28.1057  -36.2630   24.6321 H   0  0  0  0  0  0
  -27.2290  -37.1493   25.8878 H   0  0  0  0  0  0
  -20.9139  -29.9374   21.7821 H   0  0  0  0  0  0
  -26.0150  -38.2854   24.1437 H   0  0  0  0  0  0
  -28.2637  -19.4940   22.8978 H   0  0  0  0  0  0
  -29.4756  -17.3652   23.0207 H   0  0  0  0  0  0
  -27.0609  -18.5248   18.8937 H   0  0  0  0  0  0
  -27.4008  -15.8264   18.3812 H   0  0  0  0  0  0
  -29.1465  -15.5364   18.5361 H   0  0  0  0  0  0
  -28.5593  -16.9271   17.6745 H   0  0  0  0  0  0
  -25.6911  -20.1444   23.0897 H   0  0  0  0  0  0
  -24.5208  -21.1506   22.2721 H   0  0  0  0  0  0
  -25.4853  -21.8168   23.5873 H   0  0  0  0  0  0
  -25.7712  -20.2782   20.2269 H   0  0  0  0  0  0
  -27.3183  -21.0395   19.8101 H   0  0  0  0  0  0
  -27.6936  -23.8994   22.4633 H   0  0  0  0  0  0
  -26.3739  -24.9750   22.0984 H   0  0  0  0  0  0
  -26.2158  -23.0029   20.0995 H   0  0  0  0  0  0
  -25.1570  -23.2484   21.4243 H   0  0  0  0  0  0
  -27.6971  -24.5806   19.5696 H   0  0  0  0  0  0
  -28.9305  -24.5573   20.7508 H   0  0  0  0  0  0
  -29.0167  -14.8104   21.8046 H   0  0  0  0  0  0
  -27.3847  -21.6561   22.2143 H   0  0  0  0  0  0
  1 25  1  0  0  0
  1 30  2  0  0  0
  1 83  1  0  0  0
  2  3  1  0  0  0
  2 25  1  0  0  0
  2 85  1  0  0  0
  2 86  1  0  0  0
  3  4  1  0  0  0
  3 87  1  0  0  0
  3 88  1  0  0  0
  4  5  1  0  0  0
  4 89  1  0  0  0
  4 90  1  0  0  0
  5  6  1  0  0  0
  5 26  1  0  0  0
  5 91  1  0  0  0
  6 25  1  0  0  0
  6 92  1  0  0  0
  6 93  1  0  0  0
  7  8  2  0  0  0
  7 26  1  0  0  0
  7 29  1  0  0  0
  8  9  1  0  0  0
  8 22  1  0  0  0
  9 10  1  0  0  0
  9 27  2  0  0  0
 10 11  2  0  0  0
 10 15  1  0  0  0
 11 12  1  0  0  0
 11 94  1  0  0  0
 12 13  2  0  0  0
 12 95  1  0  0  0
 13 14  1  0  0  0
 13 31  1  0  0  0
 14 15  2  0  0  0
 14 96  1  0  0  0
 15 97  1  0  0  0
 16 17  2  0  0  0
 16 21  1  0  0  0
 16 31  1  0  0  0
 17 18  1  0  0  0
 17 98  1  0  0  0
 18 19  2  0  0  0
 18 99  1  0  0  0
 19 20  1  0  0  0
 19 24  1  0  0  0
 20 21  2  0  0  0
 20100  1  0  0  0
 21 23  1  0  0  0
 22 28  1  0  0  0
 22 32  2  0  0  0
 26 27  1  0  0  0
 28101  1  0  0  0
 28102  1  0  0  0
 29103  1  0  0  0
 29104  1  0  0  0
 33 34  1  0  0  0
 33 66  1  0  0  0
 33 70  2  0  0  0
 34 36  1  0  0  0
 34 59  1  0  0  0
 34105  1  0  0  0
 35 44  2  0  0  0
 35 45  1  0  0  0
 35 68  1  0  0  0
 36 56  1  0  0  0
 36106  1  0  0  0
 37 39  1  0  0  0
 37 47  1  0  0  0
 37 66  1  0  0  0
 37107  1  0  0  0
 38 43  2  0  0  0
 38 46  1  0  0  0
 38 47  1  0  0  0
 39 64  1  0  0  0
 39 67  2  0  0  0
 40 52  1  0  0  0
 40 53  2  0  0  0
 40 58  1  0  0  0
 41108  1  0  0  0
 41109  1  0  0  0
 41110  1  0  0  0
 41 48  1  0  0  0
 42 43  1  0  0  0
 42 66  1  0  0  0
 42111  1  0  0  0
 42112  1  0  0  0
 43 44  1  0  0  0
 44113  1  0  0  0
 45 46  2  0  0  0
 45114  1  0  0  0
 46115  1  0  0  0
 47116  1  0  0  0
 47117  1  0  0  0
 48 56  1  0  0  0
 48 65  1  0  0  0
 48118  1  0  0  0
 49 50  1  0  0  0
 49 53  1  0  0  0
 49 64  1  0  0  0
 49119  1  0  0  0
 50 51  1  0  0  0
 50120  1  0  0  0
 50121  1  0  0  0
 51 52  1  0  0  0
 51122  1  0  0  0
 51123  1  0  0  0
 52124  1  0  0  0
 52125  1  0  0  0
 53 54  1  0  0  0
 54 55  2  0  0  0
 54126  1  0  0  0
 55 57  1  0  0  0
 55127  1  0  0  0
 56 69  2  0  0  0
 57 58  2  0  0  0
 57128  1  0  0  0
 58129  1  0  0  0
 59 60  1  0  0  0
 59 61  1  0  0  0
 59 62  1  0  0  0
 60130  1  0  0  0
 60131  1  0  0  0
 60132  1  0  0  0
 61133  1  0  0  0
 61134  1  0  0  0
 61135  1  0  0  0
 62136  1  0  0  0
 62137  1  0  0  0
 62138  1  0  0  0
 63 65  1  0  0  0
 63139  1  0  0  0
 63140  1  0  0  0
 63141  1  0  0  0
 64142  1  0  0  0
 65143  1  0  0  0
 68 82  1  0  0  0
 71 72  2  0  0  0
 71 74  1  0  0  0
 71144  1  0  0  0
 72 76  1  0  0  0
 72145  1  0  0  0
 73 74  2  0  0  0
 73 75  1  0  0  0
 73146  1  0  0  0
 74 79  1  0  0  0
 75 76  2  0  0  0
 75 77  1  0  0  0
 76 83  1  0  0  0
 77147  1  0  0  0
 77148  1  0  0  0
 77149  1  0  0  0
 78150  1  0  0  0
 78151  1  0  0  0
 78152  1  0  0  0
 78 84  1  0  0  0
 79 84  1  0  0  0
 79153  1  0  0  0
 79154  1  0  0  0
 80 81  1  0  0  0
 80 82  1  0  0  0
 80155  1  0  0  0
 80156  1  0  0  0
 81 84  1  0  0  0
 81157  1  0  0  0
 81158  1  0  0  0
 82159  1  0  0  0
 82160  1  0  0  0
 83161  1  0  0  0
 84162  1  0  0  0
M  CHG  1  84   1
M  ISO  4   1 100  68 101  82 101  83 100
M  END
> <chiral flag>
0

> <version>
0

> <s_m_source_file>
/data/baiqing/PycharmProjects/Reinvent-master-3.2/result/LINK_invent/BTK/process_docking_weight1_custom_product_contain_oxygen_bond_distance_aromatic_linkinvent_7_9_3/rearranged_h_0017.sdf

> <i_m_source_file_index>
36

> <r_mmod_Potential_Energy-OPLS-2005>
52.7650413513184

> <r_mmod_Stretch_Energy-OPLS-2005>
84.4632949829102

> <r_mmod_Bend_Energy-OPLS-2005>
184.765823364258

> <r_mmod_Torsional_Energy-OPLS-2005>
288.531951904297

> <r_mmod_Improper_Torsional_Energy-OPLS-2005>
7.32989263534546

> <r_mmod_Van_der_Waal_Energy-OPLS-2005>
148.09733581543

> <r_mmod_Electrostatic_Energy-OPLS-2005>
-283.143676757812

> <r_mmod_Solvation_Energy-OPLS-2005>
-456.841461181641

> <b_mmod_Minimization_Converged-OPLS-2005>
0

> <r_mmod_RMS_Derivative-OPLS-2005>
23.7338619232178

$$$$
37
                    3D
 Structure written by MMmdl.
171179  0  0  1  0            999 V2000
  -30.6870  -14.4906   20.5585 C   0  0  0  0  0  0
  -30.4249  -12.3064   19.4518 C   0  0  0  0  0  0
  -29.5094  -12.5081   18.2255 C   0  0  0  0  0  0
  -28.0247  -12.3779   18.6249 C   0  0  0  0  0  0
  -27.6640  -13.2149   19.8825 C   0  0  2  0  0  0
  -28.6992  -13.0051   21.0107 C   0  0  0  0  0  0
  -25.2582  -13.8192   20.5698 C   0  0  0  0  0  0
  -24.1834  -13.0463   20.9186 C   0  0  0  0  0  0
  -24.6403  -11.6931   20.8749 C   0  0  0  0  0  0
  -23.9072  -10.4311   21.0428 C   0  0  0  0  0  0
  -24.3627   -9.4225   21.9206 C   0  0  0  0  0  0
  -23.6300   -8.2265   22.0769 C   0  0  0  0  0  0
  -22.4287   -8.0312   21.3557 C   0  0  0  0  0  0
  -21.9912   -9.0282   20.4666 C   0  0  0  0  0  0
  -22.7247  -10.2155   20.3073 C   0  0  0  0  0  0
  -21.6851   -6.0756   22.5276 C   0  0  0  0  0  0
  -21.4023   -6.5649   23.8215 C   0  0  0  0  0  0
  -21.3652   -5.6796   24.9176 C   0  0  0  0  0  0
  -21.6033   -4.3057   24.7219 C   0  0  0  0  0  0
  -21.8810   -3.8161   23.4335 C   0  0  0  0  0  0
  -21.9185   -4.6987   22.3400 C   0  0  0  0  0  0
  -22.7850  -13.5267   21.1821 C   0  0  0  0  0  0
  -22.1656   -4.2183   21.0974 F   0  0  0  0  0  0
  -21.5619   -3.4531   25.7723 F   0  0  0  0  0  0
  -30.0374  -13.2973   20.4694 N   0  0  0  0  0  0
  -26.3032  -12.9371   20.3393 N   0  0  0  0  0  0
  -25.9330  -11.6518   20.5769 N   0  0  0  0  0  0
  -22.0459  -12.8307   22.0390 N   0  0  0  0  0  0
  -25.4299  -15.1914   20.4138 N   0  0  0  0  0  0
  -31.8043  -14.6822   20.0688 O   0  0  0  0  0  0
  -21.6645   -6.8917   21.4245 O   0  0  0  0  0  0
  -22.3553  -14.5583   20.6674 O   0  0  0  0  0  0
  -24.6140  -31.8698   23.2111 C   0  0  0  0  0  0
  -25.9032  -32.4840   23.8400 C   0  0  1  0  0  0
  -27.2219  -27.4334   20.0920 C   0  0  0  0  0  0
  -25.5914  -33.8638   24.2350 N   0  0  0  0  0  0
  -23.4010  -30.4978   21.5514 C   0  0  2  0  0  0
  -24.8432  -28.9649   20.1164 C   0  0  0  0  0  0
  -22.7384  -29.4697   22.4978 C   0  0  0  0  0  0
  -18.0269  -28.1400   22.8496 C   0  0  0  0  0  0
  -24.1487  -36.7309   23.2635 C   0  0  0  0  0  0
  -25.9286  -30.8398   21.3583 C   0  0  0  0  0  0
  -26.0065  -29.4728   20.7068 C   0  0  0  0  0  0
  -27.2012  -28.7148   20.6910 C   0  0  0  0  0  0
  -26.0394  -26.9494   19.4847 C   0  0  0  0  0  0
  -24.8540  -27.7019   19.5053 C   0  0  0  0  0  0
  -23.6068  -29.8319   20.1667 C   0  0  0  0  0  0
  -25.4109  -36.3118   24.0334 C   0  0  1  0  0  0
  -20.5857  -28.3696   23.1319 C   0  0  2  0  0  0
  -20.6756  -26.9442   22.5411 C   0  0  0  0  0  0
  -19.5734  -26.6420   21.5208 C   0  0  0  0  0  0
  -18.1913  -26.7950   22.1628 C   0  0  0  0  0  0
  -19.1511  -28.8857   23.2912 C   0  0  0  0  0  0
  -18.9450  -30.1455   23.8940 C   0  0  0  0  0  0
  -17.6447  -30.6608   24.0580 C   0  0  0  0  0  0
  -25.9033  -34.9484   23.5139 C   0  0  0  0  0  0
  -16.5341  -29.9109   23.6328 C   0  0  0  0  0  0
  -16.7249  -28.6520   23.0358 C   0  0  0  0  0  0
  -26.4479  -31.6604   25.0709 C   0  0  0  0  0  0
  -25.3764  -31.3697   26.1474 C   0  0  0  0  0  0
  -27.0286  -30.3050   24.6040 C   0  0  0  0  0  0
  -27.6071  -32.4314   25.7468 C   0  0  0  0  0  0
  -27.5571  -37.1806   24.8463 C   0  0  0  0  0  0
  -21.4107  -29.3066   22.3708 N   0  0  0  0  0  0
  -26.4288  -37.3798   23.9410 N   0  0  0  0  0  0
  -24.6674  -31.0815   22.0996 N   0  0  0  0  0  0
  -23.4155  -28.8237   23.3024 O   0  0  0  0  0  0
  -28.3756  -26.6738   20.1274 O   0  0  0  0  0  0
  -26.5569  -34.8919   22.4683 O   0  0  0  0  0  0
  -23.5346  -32.1437   23.7520 O   0  0  0  0  0  0
  -29.0400  -19.1242   21.1352 C   0  0  0  0  0  0
  -29.2781  -17.7971   21.5655 C   0  0  0  0  0  0
  -30.2319  -17.2701   19.4015 C   0  0  0  0  0  0
  -29.3777  -19.5408   19.8274 C   0  0  0  0  0  0
  -29.9892  -18.5924   18.9587 C   0  0  0  0  0  0
  -29.8725  -16.8492   20.7032 C   0  0  0  0  0  0
  -30.3554  -18.9328   17.5233 C   0  0  0  0  0  0
  -33.7098  -22.4339   19.5585 C   0  0  0  0  0  0
  -32.0701  -22.5985   17.6614 C   0  0  0  0  0  0
  -28.9982  -20.9646   19.3546 C   0  0  0  0  0  0
  -29.4451  -24.5040   20.6731 C   0  0  0  0  0  0
  -29.2392  -22.9696   20.8711 C   0  0  0  0  0  0
  -31.3006  -21.8231   19.9972 C   0  0  0  0  0  0
  -28.1681  -25.2555   20.2543 C   0  0  0  0  0  0
  -32.2508  -22.7345   19.1839 C   0  0  0  0  0  0
  -29.9927  -15.4887   21.1436 N   0  0  0  0  0  0
  -29.8489  -22.1221   19.7933 N   0  3  1  0  0  0
  -31.4745  -12.3931   19.1639 H   0  0  0  0  0  0
  -30.3111  -11.3006   19.8587 H   0  0  0  0  0  0
  -29.7559  -11.7818   17.4517 H   0  0  0  0  0  0
  -29.6874  -13.4909   17.7859 H   0  0  0  0  0  0
  -27.8190  -11.3237   18.8115 H   0  0  0  0  0  0
  -27.3873  -12.6661   17.7891 H   0  0  0  0  0  0
  -27.7078  -14.2652   19.5896 H   0  0  0  0  0  0
  -28.6687  -11.9769   21.3738 H   0  0  0  0  0  0
  -28.4506  -13.6199   21.8771 H   0  0  0  0  0  0
  -25.2762   -9.5689   22.4806 H   0  0  0  0  0  0
  -23.9997   -7.4633   22.7476 H   0  0  0  0  0  0
  -21.0845   -8.8816   19.8968 H   0  0  0  0  0  0
  -22.3717  -10.9714   19.6201 H   0  0  0  0  0  0
  -21.2040   -7.6164   23.9736 H   0  0  0  0  0  0
  -21.1478   -6.0529   25.9081 H   0  0  0  0  0  0
  -22.0600   -2.7627   23.2816 H   0  0  0  0  0  0
  -22.4024  -11.9991   22.4841 H   0  0  0  0  0  0
  -21.1085  -13.1405   22.2562 H   0  0  0  0  0  0
  -24.6657  -15.8502   20.5265 H   0  0  0  0  0  0
  -26.2921  -15.6299   20.1146 H   0  0  0  0  0  0
  -26.7099  -32.5567   23.1169 H   0  0  0  0  0  0
  -25.0101  -33.9820   25.0523 H   0  0  0  0  0  0
  -22.6884  -31.3145   21.4144 H   0  0  0  0  0  0
  -23.3741  -35.9650   23.3314 H   0  0  0  0  0  0
  -24.3576  -36.8893   22.2041 H   0  0  0  0  0  0
  -23.7234  -37.6520   23.6632 H   0  0  0  0  0  0
  -26.0292  -31.6054   20.5889 H   0  0  0  0  0  0
  -26.8197  -30.9035   21.9694 H   0  0  0  0  0  0
  -28.0985  -29.0987   21.1556 H   0  0  0  0  0  0
  -26.0095  -25.9909   18.9870 H   0  0  0  0  0  0
  -23.9576  -27.3072   19.0486 H   0  0  0  0  0  0
  -23.7156  -30.6063   19.4058 H   0  0  0  0  0  0
  -22.7299  -29.2521   19.8733 H   0  0  0  0  0  0
  -25.1291  -36.1983   25.0820 H   0  0  0  0  0  0
  -20.9974  -28.3280   24.1430 H   0  0  0  0  0  0
  -20.5681  -26.2311   23.3592 H   0  0  0  0  0  0
  -21.6620  -26.7498   22.1197 H   0  0  0  0  0  0
  -19.6898  -25.6339   21.1215 H   0  0  0  0  0  0
  -19.6667  -27.3239   20.6746 H   0  0  0  0  0  0
  -17.4178  -26.6701   21.4027 H   0  0  0  0  0  0
  -18.0326  -26.0091   22.9033 H   0  0  0  0  0  0
  -19.7922  -30.7255   24.2342 H   0  0  0  0  0  0
  -17.5009  -31.6295   24.5174 H   0  0  0  0  0  0
  -15.5339  -30.3034   23.7635 H   0  0  0  0  0  0
  -15.8651  -28.0848   22.7081 H   0  0  0  0  0  0
  -24.5951  -30.7030   25.7806 H   0  0  0  0  0  0
  -24.8955  -32.2843   26.4940 H   0  0  0  0  0  0
  -25.8152  -30.8855   27.0205 H   0  0  0  0  0  0
  -26.2791  -29.6828   24.1130 H   0  0  0  0  0  0
  -27.4092  -29.7281   25.4472 H   0  0  0  0  0  0
  -27.8617  -30.4364   23.9137 H   0  0  0  0  0  0
  -27.2708  -33.3608   26.2076 H   0  0  0  0  0  0
  -28.3871  -32.6871   25.0287 H   0  0  0  0  0  0
  -28.0746  -31.8409   26.5355 H   0  0  0  0  0  0
  -28.2615  -38.0082   24.7508 H   0  0  0  0  0  0
  -28.1053  -36.2611   24.6322 H   0  0  0  0  0  0
  -27.2289  -37.1490   25.8870 H   0  0  0  0  0  0
  -20.9258  -29.8774   21.6920 H   0  0  0  0  0  0
  -26.0179  -38.2878   24.1419 H   0  0  0  0  0  0
  -28.5581  -19.8151   21.8127 H   0  0  0  0  0  0
  -28.9805  -17.5117   22.5641 H   0  0  0  0  0  0
  -30.6591  -16.5631   18.7041 H   0  0  0  0  0  0
  -29.4712  -18.9152   16.8843 H   0  0  0  0  0  0
  -31.0721  -18.2158   17.1217 H   0  0  0  0  0  0
  -30.8176  -19.9133   17.4457 H   0  0  0  0  0  0
  -34.3966  -23.0946   19.0294 H   0  0  0  0  0  0
  -33.9814  -21.4072   19.3078 H   0  0  0  0  0  0
  -33.8824  -22.5693   20.6266 H   0  0  0  0  0  0
  -32.7377  -23.2809   17.1329 H   0  0  0  0  0  0
  -31.0551  -22.8276   17.3344 H   0  0  0  0  0  0
  -32.3160  -21.5929   17.3216 H   0  0  0  0  0  0
  -27.9531  -21.1326   19.6086 H   0  0  0  0  0  0
  -28.9885  -20.9914   18.2658 H   0  0  0  0  0  0
  -30.2225  -24.7209   19.9476 H   0  0  0  0  0  0
  -29.7911  -24.9366   21.6112 H   0  0  0  0  0  0
  -28.1679  -22.7841   20.9487 H   0  0  0  0  0  0
  -29.6241  -22.6623   21.8463 H   0  0  0  0  0  0
  -31.5447  -21.9117   21.0565 H   0  0  0  0  0  0
  -31.5447  -20.7933   19.7420 H   0  0  0  0  0  0
  -27.8201  -24.8399   19.3082 H   0  0  0  0  0  0
  -27.3954  -25.0705   21.0039 H   0  0  0  0  0  0
  -32.0757  -23.7742   19.4545 H   0  0  0  0  0  0
  -29.2756  -15.1794   21.7785 H   0  0  0  0  0  0
  -29.8224  -22.7147   18.9788 H   0  0  0  0  0  0
  1 25  1  0  0  0
  1 30  2  0  0  0
  1 86  1  0  0  0
  2  3  1  0  0  0
  2 25  1  0  0  0
  2 88  1  0  0  0
  2 89  1  0  0  0
  3  4  1  0  0  0
  3 90  1  0  0  0
  3 91  1  0  0  0
  4  5  1  0  0  0
  4 92  1  0  0  0
  4 93  1  0  0  0
  5  6  1  0  0  0
  5 26  1  0  0  0
  5 94  1  0  0  0
  6 25  1  0  0  0
  6 95  1  0  0  0
  6 96  1  0  0  0
  7  8  2  0  0  0
  7 26  1  0  0  0
  7 29  1  0  0  0
  8  9  1  0  0  0
  8 22  1  0  0  0
  9 10  1  0  0  0
  9 27  2  0  0  0
 10 11  2  0  0  0
 10 15  1  0  0  0
 11 12  1  0  0  0
 11 97  1  0  0  0
 12 13  2  0  0  0
 12 98  1  0  0  0
 13 14  1  0  0  0
 13 31  1  0  0  0
 14 15  2  0  0  0
 14 99  1  0  0  0
 15100  1  0  0  0
 16 17  2  0  0  0
 16 21  1  0  0  0
 16 31  1  0  0  0
 17 18  1  0  0  0
 17101  1  0  0  0
 18 19  2  0  0  0
 18102  1  0  0  0
 19 20  1  0  0  0
 19 24  1  0  0  0
 20 21  2  0  0  0
 20103  1  0  0  0
 21 23  1  0  0  0
 22 28  1  0  0  0
 22 32  2  0  0  0
 26 27  1  0  0  0
 28104  1  0  0  0
 28105  1  0  0  0
 29106  1  0  0  0
 29107  1  0  0  0
 33 34  1  0  0  0
 33 66  1  0  0  0
 33 70  2  0  0  0
 34 36  1  0  0  0
 34 59  1  0  0  0
 34108  1  0  0  0
 35 44  2  0  0  0
 35 45  1  0  0  0
 35 68  1  0  0  0
 36 56  1  0  0  0
 36109  1  0  0  0
 37 39  1  0  0  0
 37 47  1  0  0  0
 37 66  1  0  0  0
 37110  1  0  0  0
 38 43  2  0  0  0
 38 46  1  0  0  0
 38 47  1  0  0  0
 39 64  1  0  0  0
 39 67  2  0  0  0
 40 52  1  0  0  0
 40 53  2  0  0  0
 40 58  1  0  0  0
 41111  1  0  0  0
 41112  1  0  0  0
 41113  1  0  0  0
 41 48  1  0  0  0
 42 43  1  0  0  0
 42 66  1  0  0  0
 42114  1  0  0  0
 42115  1  0  0  0
 43 44  1  0  0  0
 44116  1  0  0  0
 45 46  2  0  0  0
 45117  1  0  0  0
 46118  1  0  0  0
 47119  1  0  0  0
 47120  1  0  0  0
 48 56  1  0  0  0
 48 65  1  0  0  0
 48121  1  0  0  0
 49 50  1  0  0  0
 49 53  1  0  0  0
 49 64  1  0  0  0
 49122  1  0  0  0
 50 51  1  0  0  0
 50123  1  0  0  0
 50124  1  0  0  0
 51 52  1  0  0  0
 51125  1  0  0  0
 51126  1  0  0  0
 52127  1  0  0  0
 52128  1  0  0  0
 53 54  1  0  0  0
 54 55  2  0  0  0
 54129  1  0  0  0
 55 57  1  0  0  0
 55130  1  0  0  0
 56 69  2  0  0  0
 57 58  2  0  0  0
 57131  1  0  0  0
 58132  1  0  0  0
 59 60  1  0  0  0
 59 61  1  0  0  0
 59 62  1  0  0  0
 60133  1  0  0  0
 60134  1  0  0  0
 60135  1  0  0  0
 61136  1  0  0  0
 61137  1  0  0  0
 61138  1  0  0  0
 62139  1  0  0  0
 62140  1  0  0  0
 62141  1  0  0  0
 63 65  1  0  0  0
 63142  1  0  0  0
 63143  1  0  0  0
 63144  1  0  0  0
 64145  1  0  0  0
 65146  1  0  0  0
 68 84  1  0  0  0
 71 72  2  0  0  0
 71 74  1  0  0  0
 71147  1  0  0  0
 72 76  1  0  0  0
 72148  1  0  0  0
 73 75  1  0  0  0
 73 76  2  0  0  0
 73149  1  0  0  0
 74 75  2  0  0  0
 74 80  1  0  0  0
 75 77  1  0  0  0
 76 86  1  0  0  0
 77150  1  0  0  0
 77151  1  0  0  0
 77152  1  0  0  0
 78153  1  0  0  0
 78154  1  0  0  0
 78155  1  0  0  0
 78 85  1  0  0  0
 79 85  1  0  0  0
 79156  1  0  0  0
 79157  1  0  0  0
 79158  1  0  0  0
 80159  1  0  0  0
 80160  1  0  0  0
 80 87  1  0  0  0
 81 82  1  0  0  0
 81 84  1  0  0  0
 81161  1  0  0  0
 81162  1  0  0  0
 82 87  1  0  0  0
 82163  1  0  0  0
 82164  1  0  0  0
 83 85  1  0  0  0
 83 87  1  0  0  0
 83165  1  0  0  0
 83166  1  0  0  0
 84167  1  0  0  0
 84168  1  0  0  0
 85169  1  0  0  0
 86170  1  0  0  0
 87171  1  0  0  0
M  CHG  1  87   1
M  ISO  4   1 100  68 101  84 101  86 100
M  END
> <chiral flag>
0

> <version>
0

> <s_m_source_file>
/data/baiqing/PycharmProjects/Reinvent-master-3.2/result/LINK_invent/BTK/process_docking_weight1_custom_product_contain_oxygen_bond_distance_aromatic_linkinvent_7_9_3/rearranged_h_0017.sdf

> <i_m_source_file_index>
37

> <r_mmod_Potential_Energy-OPLS-2005>
-89.8848190307617

> <r_mmod_Stretch_Energy-OPLS-2005>
43.8517570495605

> <r_mmod_Bend_Energy-OPLS-2005>
110.647659301758

> <r_mmod_Torsional_Energy-OPLS-2005>
264.713348388672

> <r_mmod_Improper_Torsional_Energy-OPLS-2005>
4.08885383605957

> <r_mmod_Van_der_Waal_Energy-OPLS-2005>
159.968856811523

> <r_mmod_Electrostatic_Energy-OPLS-2005>
-256.390930175781

> <r_mmod_Solvation_Energy-OPLS-2005>
-431.534576416016

> <b_mmod_Minimization_Converged-OPLS-2005>
0

> <r_mmod_RMS_Derivative-OPLS-2005>
3.33153772354126

$$$$
38
                    3D
 Structure written by MMmdl.
154162  0  0  1  0            999 V2000
  -30.6476  -14.8363   20.4122 C   0  0  0  0  0  0
  -30.4112  -12.5119   19.5028 C   0  0  0  0  0  0
  -29.5085  -12.5003   18.2517 C   0  0  0  0  0  0
  -28.0402  -12.3087   18.6673 C   0  0  0  0  0  0
  -27.6242  -13.2503   19.8290 C   0  0  2  0  0  0
  -28.6643  -13.2829   20.9659 C   0  0  0  0  0  0
  -25.2446  -13.8236   20.5695 C   0  0  0  0  0  0
  -24.1764  -13.0464   20.9237 C   0  0  0  0  0  0
  -24.6392  -11.6950   20.8771 C   0  0  0  0  0  0
  -23.9087  -10.4312   21.0431 C   0  0  0  0  0  0
  -24.3638   -9.4218   21.9205 C   0  0  0  0  0  0
  -23.6307   -8.2251   22.0764 C   0  0  0  0  0  0
  -22.4286   -8.0298   21.3549 C   0  0  0  0  0  0
  -21.9924   -9.0280   20.4650 C   0  0  0  0  0  0
  -22.7261  -10.2158   20.3068 C   0  0  0  0  0  0
  -21.6848   -6.0747   22.5278 C   0  0  0  0  0  0
  -21.4017   -6.5651   23.8216 C   0  0  0  0  0  0
  -21.3656   -5.6796   24.9178 C   0  0  0  0  0  0
  -21.6041   -4.3059   24.7221 C   0  0  0  0  0  0
  -21.8818   -3.8155   23.4341 C   0  0  0  0  0  0
  -21.9194   -4.6975   22.3401 C   0  0  0  0  0  0
  -22.7785  -13.5241   21.1895 C   0  0  0  0  0  0
  -22.1663   -4.2163   21.0974 F   0  0  0  0  0  0
  -21.5625   -3.4544   25.7734 F   0  0  0  0  0  0
  -29.9552  -13.6346   20.3696 N   0  0  0  0  0  0
  -26.2863  -12.9475   20.3210 N   0  0  0  0  0  0
  -25.9320  -11.6612   20.5735 N   0  0  0  0  0  0
  -22.0432  -12.8233   22.0437 N   0  0  0  0  0  0
  -25.4146  -15.1964   20.4120 N   0  0  0  0  0  0
  -31.8605  -14.7640   20.2006 O   0  0  0  0  0  0
  -21.6644   -6.8896   21.4243 O   0  0  0  0  0  0
  -22.3487  -14.5556   20.6747 O   0  0  0  0  0  0
  -24.6369  -31.8501   23.1913 C   0  0  0  0  0  0
  -25.9167  -32.4719   23.8291 C   0  0  1  0  0  0
  -27.2120  -27.2028   20.1479 C   0  0  0  0  0  0
  -25.5968  -33.8518   24.2225 N   0  0  0  0  0  0
  -23.4358  -30.4667   21.5383 C   0  0  2  0  0  0
  -24.8820  -28.9026   20.1119 C   0  0  0  0  0  0
  -22.7527  -29.4562   22.4919 C   0  0  0  0  0  0
  -18.0294  -28.1371   22.8457 C   0  0  0  0  0  0
  -24.1483  -36.7268   23.2635 C   0  0  0  0  0  0
  -25.9848  -30.7467   21.3771 C   0  0  0  0  0  0
  -26.0563  -29.3622   20.7217 C   0  0  0  0  0  0
  -27.2270  -28.5283   20.7183 C   0  0  0  0  0  0
  -26.0166  -26.8186   19.5112 C   0  0  0  0  0  0
  -24.8704  -27.6424   19.4917 C   0  0  0  0  0  0
  -23.6545  -29.7940   20.1570 C   0  0  0  0  0  0
  -25.4109  -36.3039   24.0315 C   0  0  1  0  0  0
  -20.5900  -28.3708   23.1271 C   0  0  2  0  0  0
  -20.6803  -26.9429   22.5405 C   0  0  0  0  0  0
  -19.5770  -26.6353   21.5230 C   0  0  0  0  0  0
  -18.1941  -26.7907   22.1624 C   0  0  0  0  0  0
  -19.1543  -28.8852   23.2857 C   0  0  0  0  0  0
  -18.9451  -30.1444   23.8885 C   0  0  0  0  0  0
  -17.6443  -30.6550   24.0565 C   0  0  0  0  0  0
  -25.9063  -34.9415   23.5067 C   0  0  0  0  0  0
  -16.5340  -29.9042   23.6317 C   0  0  0  0  0  0
  -16.7280  -28.6482   23.0308 C   0  0  0  0  0  0
  -26.4500  -31.6541   25.0692 C   0  0  0  0  0  0
  -25.3694  -31.3731   26.1398 C   0  0  0  0  0  0
  -27.0332  -30.2926   24.6206 C   0  0  0  0  0  0
  -27.6070  -32.4253   25.7448 C   0  0  0  0  0  0
  -27.5560  -37.1779   24.8461 C   0  0  0  0  0  0
  -21.4232  -29.3058   22.3677 N   0  0  0  0  0  0
  -26.4278  -37.3748   23.9403 N   0  0  0  0  0  0
  -24.7056  -31.0415   22.0906 N   0  0  0  0  0  0
  -23.4199  -28.8075   23.3015 O   0  0  0  0  0  0
  -28.2934  -26.2767   20.1516 O   0  0  0  0  0  0
  -26.5619  -34.8910   22.4623 O   0  0  0  0  0  0
  -23.5504  -32.1378   23.7163 O   0  0  0  0  0  0
  -30.9145  -17.3847   19.8813 C   0  0  0  0  0  0
  -30.5368  -18.7687   19.7803 C   0  0  0  0  0  0
  -28.8118  -16.8392   20.8220 C   0  0  0  0  0  0
  -30.0790  -16.3287   20.3803 C   0  0  0  0  0  0
  -29.2613  -19.2724   20.1667 C   0  0  0  0  0  0
  -28.4171  -18.2366   20.7034 C   0  0  0  0  0  0
  -27.8485  -21.9059   21.7643 C   0  0  0  0  0  0
  -28.7730  -20.7690   19.7357 C   0  0  0  0  0  0
  -28.5619  -23.4541   19.8706 C   0  0  0  0  0  0
  -28.1122  -24.8422   20.6570 C   0  0  0  0  0  0
  -28.7527  -22.0686   20.6023 N   0  3  1  0  0  0
  -27.1632  -18.5758   21.0846 F   0  0  0  0  0  0
  -31.4546  -12.6031   19.1980 H   0  0  0  0  0  0
  -30.3452  -11.5644   20.0415 H   0  0  0  0  0  0
  -29.8119  -11.7037   17.5724 H   0  0  0  0  0  0
  -29.6239  -13.4376   17.7038 H   0  0  0  0  0  0
  -27.9269  -11.2700   18.9816 H   0  0  0  0  0  0
  -27.3801  -12.4395   17.8097 H   0  0  0  0  0  0
  -27.5921  -14.2511   19.3989 H   0  0  0  0  0  0
  -28.7233  -12.3193   21.4749 H   0  0  0  0  0  0
  -28.3846  -14.0077   21.7302 H   0  0  0  0  0  0
  -25.2779   -9.5694   22.4796 H   0  0  0  0  0  0
  -24.0005   -7.4635   22.7486 H   0  0  0  0  0  0
  -21.0848   -8.8816   19.8959 H   0  0  0  0  0  0
  -22.3722  -10.9714   19.6189 H   0  0  0  0  0  0
  -21.2008   -7.6158   23.9730 H   0  0  0  0  0  0
  -21.1475   -6.0523   25.9084 H   0  0  0  0  0  0
  -22.0595   -2.7617   23.2837 H   0  0  0  0  0  0
  -22.4043  -11.9896   22.4820 H   0  0  0  0  0  0
  -21.1077  -13.1295   22.2678 H   0  0  0  0  0  0
  -24.6505  -15.8523   20.5270 H   0  0  0  0  0  0
  -26.2569  -15.6327   20.0609 H   0  0  0  0  0  0
  -26.7216  -32.5363   23.1014 H   0  0  0  0  0  0
  -25.0143  -33.9632   25.0391 H   0  0  0  0  0  0
  -22.7332  -31.2885   21.3863 H   0  0  0  0  0  0
  -23.3748  -35.9594   23.3289 H   0  0  0  0  0  0
  -24.3573  -36.8905   22.2057 H   0  0  0  0  0  0
  -23.7265  -37.6473   23.6675 H   0  0  0  0  0  0
  -26.1318  -31.5046   20.6062 H   0  0  0  0  0  0
  -26.8574  -30.7959   22.0154 H   0  0  0  0  0  0
  -28.1295  -28.8821   21.1976 H   0  0  0  0  0  0
  -25.9564  -25.8508   19.0312 H   0  0  0  0  0  0
  -23.9721  -27.2880   19.0062 H   0  0  0  0  0  0
  -23.7788  -30.5648   19.3957 H   0  0  0  0  0  0
  -22.7734  -29.2235   19.8559 H   0  0  0  0  0  0
  -25.1291  -36.1868   25.0809 H   0  0  0  0  0  0
  -20.9953  -28.3287   24.1402 H   0  0  0  0  0  0
  -20.5749  -26.2321   23.3625 H   0  0  0  0  0  0
  -21.6660  -26.7490   22.1163 H   0  0  0  0  0  0
  -19.6955  -25.6260   21.1274 H   0  0  0  0  0  0
  -19.6683  -27.3131   20.6730 H   0  0  0  0  0  0
  -17.4207  -26.6621   21.4035 H   0  0  0  0  0  0
  -18.0358  -26.0062   22.9041 H   0  0  0  0  0  0
  -19.7922  -30.7257   24.2247 H   0  0  0  0  0  0
  -17.4976  -31.6201   24.5209 H   0  0  0  0  0  0
  -15.5328  -30.2908   23.7665 H   0  0  0  0  0  0
  -15.8685  -28.0795   22.7003 H   0  0  0  0  0  0
  -24.5795  -30.7183   25.7703 H   0  0  0  0  0  0
  -24.8961  -32.2930   26.4839 H   0  0  0  0  0  0
  -25.7945  -30.8853   27.0173 H   0  0  0  0  0  0
  -26.2928  -29.6677   24.1192 H   0  0  0  0  0  0
  -27.3959  -29.7214   25.4756 H   0  0  0  0  0  0
  -27.8838  -30.4177   23.9498 H   0  0  0  0  0  0
  -27.2740  -33.3636   26.1898 H   0  0  0  0  0  0
  -28.3946  -32.6645   25.0285 H   0  0  0  0  0  0
  -28.0636  -31.8427   26.5459 H   0  0  0  0  0  0
  -28.2565  -38.0081   24.7489 H   0  0  0  0  0  0
  -28.1070  -36.2612   24.6300 H   0  0  0  0  0  0
  -27.2275  -37.1433   25.8863 H   0  0  0  0  0  0
  -20.9421  -29.8775   21.6876 H   0  0  0  0  0  0
  -26.0147  -38.2817   24.1412 H   0  0  0  0  0  0
  -31.9032  -17.1286   19.5224 H   0  0  0  0  0  0
  -31.2426  -19.4503   19.3262 H   0  0  0  0  0  0
  -28.0937  -16.1538   21.2426 H   0  0  0  0  0  0
  -28.0856  -20.9951   22.3150 H   0  0  0  0  0  0
  -26.8050  -21.8462   21.4507 H   0  0  0  0  0  0
  -27.9505  -22.7313   22.4683 H   0  0  0  0  0  0
  -27.7667  -20.6456   19.3354 H   0  0  0  0  0  0
  -29.3752  -21.0161   18.8603 H   0  0  0  0  0  0
  -29.5044  -23.6625   19.3642 H   0  0  0  0  0  0
  -27.8381  -23.2974   19.0699 H   0  0  0  0  0  0
  -28.6613  -24.8426   21.5971 H   0  0  0  0  0  0
  -27.0704  -24.7173   20.9538 H   0  0  0  0  0  0
  -29.6788  -22.1140   21.0042 H   0  0  0  0  0  0
  1 25  1  0  0  0
  1 30  2  0  0  0
  1 74  1  0  0  0
  2  3  1  0  0  0
  2 25  1  0  0  0
  2 83  1  0  0  0
  2 84  1  0  0  0
  3  4  1  0  0  0
  3 85  1  0  0  0
  3 86  1  0  0  0
  4  5  1  0  0  0
  4 87  1  0  0  0
  4 88  1  0  0  0
  5  6  1  0  0  0
  5 26  1  0  0  0
  5 89  1  0  0  0
  6 25  1  0  0  0
  6 90  1  0  0  0
  6 91  1  0  0  0
  7  8  2  0  0  0
  7 26  1  0  0  0
  7 29  1  0  0  0
  8  9  1  0  0  0
  8 22  1  0  0  0
  9 10  1  0  0  0
  9 27  2  0  0  0
 10 11  2  0  0  0
 10 15  1  0  0  0
 11 12  1  0  0  0
 11 92  1  0  0  0
 12 13  2  0  0  0
 12 93  1  0  0  0
 13 14  1  0  0  0
 13 31  1  0  0  0
 14 15  2  0  0  0
 14 94  1  0  0  0
 15 95  1  0  0  0
 16 17  2  0  0  0
 16 21  1  0  0  0
 16 31  1  0  0  0
 17 18  1  0  0  0
 17 96  1  0  0  0
 18 19  2  0  0  0
 18 97  1  0  0  0
 19 20  1  0  0  0
 19 24  1  0  0  0
 20 21  2  0  0  0
 20 98  1  0  0  0
 21 23  1  0  0  0
 22 28  1  0  0  0
 22 32  2  0  0  0
 26 27  1  0  0  0
 28 99  1  0  0  0
 28100  1  0  0  0
 29101  1  0  0  0
 29102  1  0  0  0
 33 34  1  0  0  0
 33 66  1  0  0  0
 33 70  2  0  0  0
 34 36  1  0  0  0
 34 59  1  0  0  0
 34103  1  0  0  0
 35 44  2  0  0  0
 35 45  1  0  0  0
 35 68  1  0  0  0
 36 56  1  0  0  0
 36104  1  0  0  0
 37 39  1  0  0  0
 37 47  1  0  0  0
 37 66  1  0  0  0
 37105  1  0  0  0
 38 43  2  0  0  0
 38 46  1  0  0  0
 38 47  1  0  0  0
 39 64  1  0  0  0
 39 67  2  0  0  0
 40 52  1  0  0  0
 40 53  2  0  0  0
 40 58  1  0  0  0
 41106  1  0  0  0
 41107  1  0  0  0
 41108  1  0  0  0
 41 48  1  0  0  0
 42 43  1  0  0  0
 42 66  1  0  0  0
 42109  1  0  0  0
 42110  1  0  0  0
 43 44  1  0  0  0
 44111  1  0  0  0
 45 46  2  0  0  0
 45112  1  0  0  0
 46113  1  0  0  0
 47114  1  0  0  0
 47115  1  0  0  0
 48 56  1  0  0  0
 48 65  1  0  0  0
 48116  1  0  0  0
 49 50  1  0  0  0
 49 53  1  0  0  0
 49 64  1  0  0  0
 49117  1  0  0  0
 50 51  1  0  0  0
 50118  1  0  0  0
 50119  1  0  0  0
 51 52  1  0  0  0
 51120  1  0  0  0
 51121  1  0  0  0
 52122  1  0  0  0
 52123  1  0  0  0
 53 54  1  0  0  0
 54 55  2  0  0  0
 54124  1  0  0  0
 55 57  1  0  0  0
 55125  1  0  0  0
 56 69  2  0  0  0
 57 58  2  0  0  0
 57126  1  0  0  0
 58127  1  0  0  0
 59 60  1  0  0  0
 59 61  1  0  0  0
 59 62  1  0  0  0
 60128  1  0  0  0
 60129  1  0  0  0
 60130  1  0  0  0
 61131  1  0  0  0
 61132  1  0  0  0
 61133  1  0  0  0
 62134  1  0  0  0
 62135  1  0  0  0
 62136  1  0  0  0
 63 65  1  0  0  0
 63137  1  0  0  0
 63138  1  0  0  0
 63139  1  0  0  0
 64140  1  0  0  0
 65141  1  0  0  0
 68 80  1  0  0  0
 71 72  2  0  0  0
 71 74  1  0  0  0
 71142  1  0  0  0
 72 75  1  0  0  0
 72143  1  0  0  0
 73 74  2  0  0  0
 73 76  1  0  0  0
 73144  1  0  0  0
 75 76  2  0  0  0
 75 78  1  0  0  0
 76 82  1  0  0  0
 77145  1  0  0  0
 77146  1  0  0  0
 77147  1  0  0  0
 77 81  1  0  0  0
 78 81  1  0  0  0
 78148  1  0  0  0
 78149  1  0  0  0
 79 80  1  0  0  0
 79 81  1  0  0  0
 79150  1  0  0  0
 79151  1  0  0  0
 80152  1  0  0  0
 80153  1  0  0  0
 81154  1  0  0  0
M  CHG  1  81   1
M  ISO  4   1 100  68 101  74 100  80 101
M  END
> <chiral flag>
0

> <version>
0

> <s_m_source_file>
/data/baiqing/PycharmProjects/Reinvent-master-3.2/result/LINK_invent/BTK/process_docking_weight1_custom_product_contain_oxygen_bond_distance_aromatic_linkinvent_7_9_3/rearranged_h_0017.sdf

> <i_m_source_file_index>
38

> <r_mmod_Potential_Energy-OPLS-2005>
274.741577148438

> <r_mmod_Stretch_Energy-OPLS-2005>
176.503890991211

> <r_mmod_Bend_Energy-OPLS-2005>
242.446166992188

> <r_mmod_Torsional_Energy-OPLS-2005>
215.069122314453

> <r_mmod_Improper_Torsional_Energy-OPLS-2005>
8.99055480957031

> <r_mmod_Van_der_Waal_Energy-OPLS-2005>
131.573532104492

> <r_mmod_Electrostatic_Energy-OPLS-2005>
-219.436737060547

> <r_mmod_Solvation_Energy-OPLS-2005>
-411.549438476562

> <b_mmod_Minimization_Converged-OPLS-2005>
0

> <r_mmod_RMS_Derivative-OPLS-2005>
2.53836917877197

$$$$
39
                    3D
 Structure written by MMmdl.
161169  0  0  1  0            999 V2000
  -30.8063  -14.4409   20.6560 C   0  0  0  0  0  0
  -30.3939  -12.3157   19.4563 C   0  0  0  0  0  0
  -29.4933  -12.5400   18.2247 C   0  0  0  0  0  0
  -28.0154  -12.3705   18.6153 C   0  0  0  0  0  0
  -27.6528  -13.2080   19.8680 C   0  0  2  0  0  0
  -28.6824  -12.9983   20.9982 C   0  0  0  0  0  0
  -25.2537  -13.8155   20.5658 C   0  0  0  0  0  0
  -24.1800  -13.0431   20.9135 C   0  0  0  0  0  0
  -24.6351  -11.6898   20.8676 C   0  0  0  0  0  0
  -23.9036  -10.4290   21.0364 C   0  0  0  0  0  0
  -24.3592   -9.4234   21.9160 C   0  0  0  0  0  0
  -23.6271   -8.2277   22.0762 C   0  0  0  0  0  0
  -22.4257   -8.0298   21.3546 C   0  0  0  0  0  0
  -21.9875   -9.0265   20.4650 C   0  0  0  0  0  0
  -22.7198  -10.2139   20.3039 C   0  0  0  0  0  0
  -21.6846   -6.0739   22.5280 C   0  0  0  0  0  0
  -21.4028   -6.5644   23.8216 C   0  0  0  0  0  0
  -21.3672   -5.6792   24.9171 C   0  0  0  0  0  0
  -21.6052   -4.3057   24.7216 C   0  0  0  0  0  0
  -21.8813   -3.8150   23.4334 C   0  0  0  0  0  0
  -21.9194   -4.6970   22.3396 C   0  0  0  0  0  0
  -22.7838  -13.5260   21.1830 C   0  0  0  0  0  0
  -22.1656   -4.2157   21.0972 F   0  0  0  0  0  0
  -21.5629   -3.4545   25.7730 F   0  0  0  0  0  0
  -30.0290  -13.3198   20.4819 N   0  0  0  0  0  0
  -26.2947  -12.9320   20.3270 N   0  0  0  0  0  0
  -25.9268  -11.6474   20.5675 N   0  0  0  0  0  0
  -22.0473  -12.8271   22.0393 N   0  0  0  0  0  0
  -25.4241  -15.1880   20.4165 N   0  0  0  0  0  0
  -31.8838  -14.5311   20.0528 O   0  0  0  0  0  0
  -21.6637   -6.8881   21.4240 O   0  0  0  0  0  0
  -22.3546  -14.5583   20.6694 O   0  0  0  0  0  0
  -24.6126  -31.8701   23.2104 C   0  0  0  0  0  0
  -25.9051  -32.4813   23.8400 C   0  0  1  0  0  0
  -27.2510  -27.4492   20.0950 C   0  0  0  0  0  0
  -25.5966  -33.8616   24.2346 N   0  0  0  0  0  0
  -23.3981  -30.4900   21.5485 C   0  0  2  0  0  0
  -24.8493  -28.9559   20.1187 C   0  0  0  0  0  0
  -22.7391  -29.4638   22.4989 C   0  0  0  0  0  0
  -18.0254  -28.1399   22.8496 C   0  0  0  0  0  0
  -24.1485  -36.7215   23.2643 C   0  0  0  0  0  0
  -25.9275  -30.8410   21.3604 C   0  0  0  0  0  0
  -26.0074  -29.4754   20.7070 C   0  0  0  0  0  0
  -27.2061  -28.7321   20.6879 C   0  0  0  0  0  0
  -26.0669  -26.9324   19.5180 C   0  0  0  0  0  0
  -24.8731  -27.6830   19.5241 C   0  0  0  0  0  0
  -23.6091  -29.8191   20.1631 C   0  0  0  0  0  0
  -25.4132  -36.3090   24.0339 C   0  0  1  0  0  0
  -20.5842  -28.3640   23.1346 C   0  0  2  0  0  0
  -20.6739  -26.9386   22.5414 C   0  0  0  0  0  0
  -19.5737  -26.6398   21.5204 C   0  0  0  0  0  0
  -18.1915  -26.7954   22.1614 C   0  0  0  0  0  0
  -19.1503  -28.8839   23.2909 C   0  0  0  0  0  0
  -18.9453  -30.1460   23.8895 C   0  0  0  0  0  0
  -17.6464  -30.6609   24.0580 C   0  0  0  0  0  0
  -25.9088  -34.9466   23.5126 C   0  0  0  0  0  0
  -16.5342  -29.9141   23.6332 C   0  0  0  0  0  0
  -16.7239  -28.6550   23.0345 C   0  0  0  0  0  0
  -26.4499  -31.6559   25.0715 C   0  0  0  0  0  0
  -25.3781  -31.3609   26.1463 C   0  0  0  0  0  0
  -27.0306  -30.3018   24.6058 C   0  0  0  0  0  0
  -27.6088  -32.4228   25.7512 C   0  0  0  0  0  0
  -27.5579  -37.1772   24.8505 C   0  0  0  0  0  0
  -21.4117  -29.2995   22.3747 N   0  0  0  0  0  0
  -26.4307  -37.3791   23.9435 N   0  0  0  0  0  0
  -24.6629  -31.0854   22.0965 N   0  0  0  0  0  0
  -23.4166  -28.8173   23.3023 O   0  0  0  0  0  0
  -28.4706  -26.7992   20.0946 O   0  0  0  0  0  0
  -26.5622  -34.8928   22.4668 O   0  0  0  0  0  0
  -23.5319  -32.1398   23.7535 O   0  0  0  0  0  0
  -30.3551  -18.7805   22.6159 C   0  0  0  0  0  0
  -29.9595  -18.8911   20.2265 C   0  0  0  0  0  0
  -29.8311  -20.0814   22.7618 C   0  0  0  0  0  0
  -29.4581  -20.2037   20.3721 C   0  0  0  0  0  0
  -30.4165  -18.1624   21.3494 C   0  0  0  0  0  0
  -29.3796  -20.8229   21.6444 C   0  0  0  0  0  0
  -27.8668  -22.2685   22.8739 C   0  0  0  0  0  0
  -29.6876  -15.4497   22.6520 C   0  0  0  0  0  0
  -31.1228  -16.8134   21.1668 C   0  0  0  0  0  0
  -28.6103  -24.5288   21.0262 C   0  0  0  0  0  0
  -28.8306  -23.0368   20.6670 C   0  0  0  0  0  0
  -28.5950  -25.4140   19.7657 C   0  0  0  0  0  0
  -28.8804  -22.1354   21.8249 N   0  0  0  0  0  0
  -30.3634  -15.5365   21.3509 N   0  0  0  0  0  0
  -31.4424  -12.3557   19.1590 H   0  0  0  0  0  0
  -30.2572  -11.3061   19.8494 H   0  0  0  0  0  0
  -29.7605  -11.8459   17.4269 H   0  0  0  0  0  0
  -29.6513  -13.5433   17.8228 H   0  0  0  0  0  0
  -27.8399  -11.3109   18.8084 H   0  0  0  0  0  0
  -27.3697  -12.6390   17.7778 H   0  0  0  0  0  0
  -27.6930  -14.2565   19.5726 H   0  0  0  0  0  0
  -28.6581  -11.9598   21.3338 H   0  0  0  0  0  0
  -28.3640  -13.5543   21.8690 H   0  0  0  0  0  0
  -25.2735   -9.5730   22.4723 H   0  0  0  0  0  0
  -23.9989   -7.4674   22.7481 H   0  0  0  0  0  0
  -21.0814   -8.8765   19.8956 H   0  0  0  0  0  0
  -22.3637  -10.9672   19.6147 H   0  0  0  0  0  0
  -21.2030   -7.6150   23.9720 H   0  0  0  0  0  0
  -21.1500   -6.0519   25.9072 H   0  0  0  0  0  0
  -22.0579   -2.7617   23.2825 H   0  0  0  0  0  0
  -22.4045  -11.9916   22.4769 H   0  0  0  0  0  0
  -21.1107  -13.1343   22.2595 H   0  0  0  0  0  0
  -24.6580  -15.8404   20.5457 H   0  0  0  0  0  0
  -26.2936  -15.6425   20.1644 H   0  0  0  0  0  0
  -26.7126  -32.5500   23.1163 H   0  0  0  0  0  0
  -25.0205  -33.9799   25.0558 H   0  0  0  0  0  0
  -22.6835  -31.3017   21.4047 H   0  0  0  0  0  0
  -23.3809  -35.9486   23.3377 H   0  0  0  0  0  0
  -24.3574  -36.8749   22.2045 H   0  0  0  0  0  0
  -23.7186  -37.6419   23.6595 H   0  0  0  0  0  0
  -26.0608  -31.6109   20.5985 H   0  0  0  0  0  0
  -26.8091  -30.8833   21.9857 H   0  0  0  0  0  0
  -28.1011  -29.1419   21.1325 H   0  0  0  0  0  0
  -26.0271  -25.9608   19.0518 H   0  0  0  0  0  0
  -23.9777  -27.2737   19.0767 H   0  0  0  0  0  0
  -23.7156  -30.5876   19.3975 H   0  0  0  0  0  0
  -22.7354  -29.2365   19.8651 H   0  0  0  0  0  0
  -25.1324  -36.1941   25.0833 H   0  0  0  0  0  0
  -20.9929  -28.3199   24.1469 H   0  0  0  0  0  0
  -20.5683  -26.2223   23.3574 H   0  0  0  0  0  0
  -21.6618  -26.7467   22.1208 H   0  0  0  0  0  0
  -19.6907  -25.6327   21.1213 H   0  0  0  0  0  0
  -19.6721  -27.3236   20.6760 H   0  0  0  0  0  0
  -17.4182  -26.6664   21.4016 H   0  0  0  0  0  0
  -18.0325  -26.0094   22.9013 H   0  0  0  0  0  0
  -19.7923  -30.7272   24.2255 H   0  0  0  0  0  0
  -17.5030  -31.6302   24.5183 H   0  0  0  0  0  0
  -15.5356  -30.3077   23.7672 H   0  0  0  0  0  0
  -15.8599  -28.0912   22.7064 H   0  0  0  0  0  0
  -24.5991  -30.6939   25.7787 H   0  0  0  0  0  0
  -24.8931  -32.2713   26.4962 H   0  0  0  0  0  0
  -25.8175  -30.8730   27.0170 H   0  0  0  0  0  0
  -26.2792  -29.6810   24.1166 H   0  0  0  0  0  0
  -27.4159  -29.7247   25.4476 H   0  0  0  0  0  0
  -27.8631  -30.4378   23.9156 H   0  0  0  0  0  0
  -27.2763  -33.3526   26.2145 H   0  0  0  0  0  0
  -28.3935  -32.6789   25.0379 H   0  0  0  0  0  0
  -28.0734  -31.8285   26.5410 H   0  0  0  0  0  0
  -28.2662  -38.0017   24.7568 H   0  0  0  0  0  0
  -28.1012  -36.2560   24.6325 H   0  0  0  0  0  0
  -27.2279  -37.1422   25.8907 H   0  0  0  0  0  0
  -20.9265  -29.8620   21.6898 H   0  0  0  0  0  0
  -26.0186  -38.2857   24.1474 H   0  0  0  0  0  0
  -30.7436  -18.2769   23.4888 H   0  0  0  0  0  0
  -30.0321  -18.4728   19.2321 H   0  0  0  0  0  0
  -29.8052  -20.5196   23.7487 H   0  0  0  0  0  0
  -29.1396  -20.7236   19.4822 H   0  0  0  0  0  0
  -27.4389  -21.3103   23.1725 H   0  0  0  0  0  0
  -27.0316  -22.8851   22.5437 H   0  0  0  0  0  0
  -28.2963  -22.7425   23.7559 H   0  0  0  0  0  0
  -29.8628  -14.4913   23.1442 H   0  0  0  0  0  0
  -28.6157  -15.6159   22.5369 H   0  0  0  0  0  0
  -30.0415  -16.1980   23.3540 H   0  0  0  0  0  0
  -31.9780  -16.7963   21.8453 H   0  0  0  0  0  0
  -31.5529  -16.8680   20.1636 H   0  0  0  0  0  0
  -29.4025  -24.8670   21.6973 H   0  0  0  0  0  0
  -27.6734  -24.6751   21.5629 H   0  0  0  0  0  0
  -29.7715  -22.9527   20.1178 H   0  0  0  0  0  0
  -28.0473  -22.7043   19.9844 H   0  0  0  0  0  0
  -27.8687  -25.0565   19.0387 H   0  0  0  0  0  0
  -29.5583  -25.3080   19.2670 H   0  0  0  0  0  0
  1 25  1  0  0  0
  1 30  2  0  0  0
  1 84  1  0  0  0
  2  3  1  0  0  0
  2 25  1  0  0  0
  2 85  1  0  0  0
  2 86  1  0  0  0
  3  4  1  0  0  0
  3 87  1  0  0  0
  3 88  1  0  0  0
  4  5  1  0  0  0
  4 89  1  0  0  0
  4 90  1  0  0  0
  5  6  1  0  0  0
  5 26  1  0  0  0
  5 91  1  0  0  0
  6 25  1  0  0  0
  6 92  1  0  0  0
  6 93  1  0  0  0
  7  8  2  0  0  0
  7 26  1  0  0  0
  7 29  1  0  0  0
  8  9  1  0  0  0
  8 22  1  0  0  0
  9 10  1  0  0  0
  9 27  2  0  0  0
 10 11  2  0  0  0
 10 15  1  0  0  0
 11 12  1  0  0  0
 11 94  1  0  0  0
 12 13  2  0  0  0
 12 95  1  0  0  0
 13 14  1  0  0  0
 13 31  1  0  0  0
 14 15  2  0  0  0
 14 96  1  0  0  0
 15 97  1  0  0  0
 16 17  2  0  0  0
 16 21  1  0  0  0
 16 31  1  0  0  0
 17 18  1  0  0  0
 17 98  1  0  0  0
 18 19  2  0  0  0
 18 99  1  0  0  0
 19 20  1  0  0  0
 19 24  1  0  0  0
 20 21  2  0  0  0
 20100  1  0  0  0
 21 23  1  0  0  0
 22 28  1  0  0  0
 22 32  2  0  0  0
 26 27  1  0  0  0
 28101  1  0  0  0
 28102  1  0  0  0
 29103  1  0  0  0
 29104  1  0  0  0
 33 34  1  0  0  0
 33 66  1  0  0  0
 33 70  2  0  0  0
 34 36  1  0  0  0
 34 59  1  0  0  0
 34105  1  0  0  0
 35 44  2  0  0  0
 35 45  1  0  0  0
 35 68  1  0  0  0
 36 56  1  0  0  0
 36106  1  0  0  0
 37 39  1  0  0  0
 37 47  1  0  0  0
 37 66  1  0  0  0
 37107  1  0  0  0
 38 43  2  0  0  0
 38 46  1  0  0  0
 38 47  1  0  0  0
 39 64  1  0  0  0
 39 67  2  0  0  0
 40 52  1  0  0  0
 40 53  2  0  0  0
 40 58  1  0  0  0
 41108  1  0  0  0
 41109  1  0  0  0
 41110  1  0  0  0
 41 48  1  0  0  0
 42 43  1  0  0  0
 42 66  1  0  0  0
 42111  1  0  0  0
 42112  1  0  0  0
 43 44  1  0  0  0
 44113  1  0  0  0
 45 46  2  0  0  0
 45114  1  0  0  0
 46115  1  0  0  0
 47116  1  0  0  0
 47117  1  0  0  0
 48 56  1  0  0  0
 48 65  1  0  0  0
 48118  1  0  0  0
 49 50  1  0  0  0
 49 53  1  0  0  0
 49 64  1  0  0  0
 49119  1  0  0  0
 50 51  1  0  0  0
 50120  1  0  0  0
 50121  1  0  0  0
 51 52  1  0  0  0
 51122  1  0  0  0
 51123  1  0  0  0
 52124  1  0  0  0
 52125  1  0  0  0
 53 54  1  0  0  0
 54 55  2  0  0  0
 54126  1  0  0  0
 55 57  1  0  0  0
 55127  1  0  0  0
 56 69  2  0  0  0
 57 58  2  0  0  0
 57128  1  0  0  0
 58129  1  0  0  0
 59 60  1  0  0  0
 59 61  1  0  0  0
 59 62  1  0  0  0
 60130  1  0  0  0
 60131  1  0  0  0
 60132  1  0  0  0
 61133  1  0  0  0
 61134  1  0  0  0
 61135  1  0  0  0
 62136  1  0  0  0
 62137  1  0  0  0
 62138  1  0  0  0
 63 65  1  0  0  0
 63139  1  0  0  0
 63140  1  0  0  0
 63141  1  0  0  0
 64142  1  0  0  0
 65143  1  0  0  0
 68 82  1  0  0  0
 71 73  2  0  0  0
 71 75  1  0  0  0
 71144  1  0  0  0
 72 74  1  0  0  0
 72 75  2  0  0  0
 72145  1  0  0  0
 73 76  1  0  0  0
 73146  1  0  0  0
 74 76  2  0  0  0
 74147  1  0  0  0
 75 79  1  0  0  0
 76 83  1  0  0  0
 77 83  1  0  0  0
 77148  1  0  0  0
 77149  1  0  0  0
 77150  1  0  0  0
 78 84  1  0  0  0
 78151  1  0  0  0
 78152  1  0  0  0
 78153  1  0  0  0
 79 84  1  0  0  0
 79154  1  0  0  0
 79155  1  0  0  0
 80 81  1  0  0  0
 80 82  1  0  0  0
 80156  1  0  0  0
 80157  1  0  0  0
 81 83  1  0  0  0
 81158  1  0  0  0
 81159  1  0  0  0
 82160  1  0  0  0
 82161  1  0  0  0
M  ISO  4   1 100  68 101  82 101  84 100
M  END
> <chiral flag>
0

> <version>
0

> <s_m_source_file>
/data/baiqing/PycharmProjects/Reinvent-master-3.2/result/LINK_invent/BTK/process_docking_weight1_custom_product_contain_oxygen_bond_distance_aromatic_linkinvent_7_9_3/rearranged_h_0017.sdf

> <i_m_source_file_index>
39

> <r_mmod_Potential_Energy-OPLS-2005>
100.385414123535

> <r_mmod_Stretch_Energy-OPLS-2005>
46.212100982666

> <r_mmod_Bend_Energy-OPLS-2005>
142.126251220703

> <r_mmod_Torsional_Energy-OPLS-2005>
238.704498291016

> <r_mmod_Improper_Torsional_Energy-OPLS-2005>
7.92415904998779

> <r_mmod_Van_der_Waal_Energy-OPLS-2005>
180.791030883789

> <r_mmod_Electrostatic_Energy-OPLS-2005>
-317.921661376953

> <r_mmod_Solvation_Energy-OPLS-2005>
-212.284820556641

> <b_mmod_Minimization_Converged-OPLS-2005>
0

> <r_mmod_RMS_Derivative-OPLS-2005>
4.60344171524048

$$$$
40
                    3D
 Structure written by MMmdl.
159167  0  0  1  0            999 V2000
  -30.6630  -14.4738   20.5996 C   0  0  0  0  0  0
  -30.4355  -12.3140   19.4136 C   0  0  0  0  0  0
  -29.4986  -12.5085   18.2018 C   0  0  0  0  0  0
  -28.0175  -12.3685   18.6113 C   0  0  0  0  0  0
  -27.6649  -13.1945   19.8765 C   0  0  2  0  0  0
  -28.7032  -12.9387   20.9915 C   0  0  0  0  0  0
  -25.2618  -13.8126   20.5646 C   0  0  0  0  0  0
  -24.1855  -13.0433   20.9168 C   0  0  0  0  0  0
  -24.6384  -11.6890   20.8729 C   0  0  0  0  0  0
  -23.9041  -10.4287   21.0401 C   0  0  0  0  0  0
  -24.3601   -9.4212   21.9185 C   0  0  0  0  0  0
  -23.6284   -8.2243   22.0757 C   0  0  0  0  0  0
  -22.4268   -8.0276   21.3539 C   0  0  0  0  0  0
  -21.9897   -9.0247   20.4645 C   0  0  0  0  0  0
  -22.7214  -10.2130   20.3053 C   0  0  0  0  0  0
  -21.6854   -6.0733   22.5279 C   0  0  0  0  0  0
  -21.4013   -6.5640   23.8212 C   0  0  0  0  0  0
  -21.3659   -5.6793   24.9174 C   0  0  0  0  0  0
  -21.6039   -4.3054   24.7228 C   0  0  0  0  0  0
  -21.8822   -3.8146   23.4350 C   0  0  0  0  0  0
  -21.9193   -4.6960   22.3401 C   0  0  0  0  0  0
  -22.7881  -13.5245   21.1833 C   0  0  0  0  0  0
  -22.1663   -4.2143   21.0978 F   0  0  0  0  0  0
  -21.5629   -3.4536   25.7744 F   0  0  0  0  0  0
  -30.0345  -13.2749   20.4521 N   0  0  0  0  0  0
  -26.3035  -12.9269   20.3338 N   0  0  0  0  0  0
  -25.9303  -11.6444   20.5737 N   0  0  0  0  0  0
  -22.0512  -12.8244   22.0389 N   0  0  0  0  0  0
  -25.4383  -15.1844   20.4027 N   0  0  0  0  0  0
  -31.7797  -14.7061   20.1238 O   0  0  0  0  0  0
  -21.6637   -6.8872   21.4237 O   0  0  0  0  0  0
  -22.3577  -14.5557   20.6685 O   0  0  0  0  0  0
  -24.6132  -31.8671   23.2078 C   0  0  0  0  0  0
  -25.9020  -32.4823   23.8375 C   0  0  1  0  0  0
  -27.2381  -27.4349   20.0977 C   0  0  0  0  0  0
  -25.5865  -33.8618   24.2302 N   0  0  0  0  0  0
  -23.4013  -30.4891   21.5498 C   0  0  2  0  0  0
  -24.8486  -28.9521   20.1190 C   0  0  0  0  0  0
  -22.7403  -29.4641   22.4993 C   0  0  0  0  0  0
  -18.0266  -28.1369   22.8495 C   0  0  0  0  0  0
  -24.1484  -36.7323   23.2636 C   0  0  0  0  0  0
  -25.9290  -30.8363   21.3582 C   0  0  0  0  0  0
  -26.0092  -29.4698   20.7069 C   0  0  0  0  0  0
  -27.2079  -28.7202   20.6877 C   0  0  0  0  0  0
  -26.0573  -26.9271   19.5111 C   0  0  0  0  0  0
  -24.8667  -27.6794   19.5202 C   0  0  0  0  0  0
  -23.6106  -29.8187   20.1662 C   0  0  0  0  0  0
  -25.4105  -36.3115   24.0332 C   0  0  1  0  0  0
  -20.5856  -28.3648   23.1325 C   0  0  2  0  0  0
  -20.6763  -26.9385   22.5426 C   0  0  0  0  0  0
  -19.5741  -26.6377   21.5217 C   0  0  0  0  0  0
  -18.1917  -26.7916   22.1625 C   0  0  0  0  0  0
  -19.1518  -28.8827   23.2907 C   0  0  0  0  0  0
  -18.9451  -30.1435   23.8915 C   0  0  0  0  0  0
  -17.6459  -30.6587   24.0556 C   0  0  0  0  0  0
  -25.9030  -34.9477   23.5122 C   0  0  0  0  0  0
  -16.5347  -29.9091   23.6316 C   0  0  0  0  0  0
  -16.7259  -28.6502   23.0345 C   0  0  0  0  0  0
  -26.4455  -31.6601   25.0697 C   0  0  0  0  0  0
  -25.3717  -31.3712   26.1444 C   0  0  0  0  0  0
  -27.0255  -30.3039   24.6041 C   0  0  0  0  0  0
  -27.6023  -32.4317   25.7475 C   0  0  0  0  0  0
  -27.5584  -37.1816   24.8457 C   0  0  0  0  0  0
  -21.4131  -29.3018   22.3739 N   0  0  0  0  0  0
  -26.4296  -37.3797   23.9406 N   0  0  0  0  0  0
  -24.6664  -31.0772   22.0982 N   0  0  0  0  0  0
  -23.4180  -28.8184   23.3033 O   0  0  0  0  0  0
  -28.4201  -26.7232   20.0836 O   0  0  0  0  0  0
  -26.5614  -34.8941   22.4700 O   0  0  0  0  0  0
  -23.5331  -32.1418   23.7487 O   0  0  0  0  0  0
  -28.8695  -18.9699   21.6864 C   0  0  0  0  0  0
  -31.2790  -18.9331   21.3798 C   0  0  0  0  0  0
  -28.8336  -17.5690   21.5127 C   0  0  0  0  0  0
  -31.2438  -17.5312   21.2002 C   0  0  0  0  0  0
  -30.0966  -19.6655   21.6428 C   0  0  0  0  0  0
  -30.0172  -16.8298   21.2797 C   0  0  0  0  0  0
  -30.6160  -21.9426   19.7027 C   0  0  0  0  0  0
  -30.1658  -21.1563   22.0104 C   0  0  0  0  0  0
  -29.7812  -24.7728   20.5643 C   0  0  0  0  0  0
  -29.9523  -23.5426   21.5097 C   0  0  0  0  0  0
  -28.3491  -25.3122   20.3457 C   0  0  0  0  0  0
  -29.8989  -15.4079   21.2059 N   0  0  0  0  0  0
  -29.8359  -22.1554   20.9470 N   0  3  1  0  0  0
  -31.4766  -12.4421   19.1116 H   0  0  0  0  0  0
  -30.3597  -11.2955   19.7965 H   0  0  0  0  0  0
  -29.7377  -11.7843   17.4223 H   0  0  0  0  0  0
  -29.6657  -13.4937   17.7635 H   0  0  0  0  0  0
  -27.8228  -11.3109   18.7943 H   0  0  0  0  0  0
  -27.3701  -12.6558   17.7818 H   0  0  0  0  0  0
  -27.7182  -14.2456   19.5951 H   0  0  0  0  0  0
  -28.6873  -11.8882   21.2871 H   0  0  0  0  0  0
  -28.4519  -13.4895   21.8986 H   0  0  0  0  0  0
  -25.2748   -9.5692   22.4756 H   0  0  0  0  0  0
  -23.9997   -7.4636   22.7480 H   0  0  0  0  0  0
  -21.0831   -8.8756   19.8952 H   0  0  0  0  0  0
  -22.3671  -10.9666   19.6162 H   0  0  0  0  0  0
  -21.2008   -7.6151   23.9710 H   0  0  0  0  0  0
  -21.1476   -6.0526   25.9075 H   0  0  0  0  0  0
  -22.0602   -2.7607   23.2852 H   0  0  0  0  0  0
  -22.4119  -11.9901   22.4771 H   0  0  0  0  0  0
  -21.1131  -13.1279   22.2578 H   0  0  0  0  0  0
  -24.6705  -15.8409   20.4939 H   0  0  0  0  0  0
  -26.2806  -15.6100   20.0376 H   0  0  0  0  0  0
  -26.7091  -32.5549   23.1139 H   0  0  0  0  0  0
  -24.9971  -33.9772   25.0418 H   0  0  0  0  0  0
  -22.6892  -31.3051   21.4092 H   0  0  0  0  0  0
  -23.3746  -35.9655   23.3299 H   0  0  0  0  0  0
  -24.3582  -36.8938   22.2050 H   0  0  0  0  0  0
  -23.7239  -37.6527   23.6659 H   0  0  0  0  0  0
  -26.0314  -31.6029   20.5891 H   0  0  0  0  0  0
  -26.8194  -30.8950   21.9722 H   0  0  0  0  0  0
  -28.1076  -29.1192   21.1375 H   0  0  0  0  0  0
  -26.0476  -25.9590   19.0316 H   0  0  0  0  0  0
  -23.9725  -27.2730   19.0671 H   0  0  0  0  0  0
  -23.7184  -30.5912   19.4035 H   0  0  0  0  0  0
  -22.7348  -29.2371   19.8740 H   0  0  0  0  0  0
  -25.1285  -36.1980   25.0824 H   0  0  0  0  0  0
  -20.9948  -28.3235   24.1439 H   0  0  0  0  0  0
  -20.5671  -26.2259   23.3617 H   0  0  0  0  0  0
  -21.6639  -26.7437   22.1211 H   0  0  0  0  0  0
  -19.6902  -25.6290   21.1235 H   0  0  0  0  0  0
  -19.6687  -27.3203   20.6759 H   0  0  0  0  0  0
  -17.4186  -26.6659   21.4025 H   0  0  0  0  0  0
  -18.0305  -26.0060   22.9024 H   0  0  0  0  0  0
  -19.7939  -30.7223   24.2315 H   0  0  0  0  0  0
  -17.5025  -31.6276   24.5143 H   0  0  0  0  0  0
  -15.5350  -30.3004   23.7633 H   0  0  0  0  0  0
  -15.8654  -28.0834   22.7050 H   0  0  0  0  0  0
  -24.5897  -30.7044   25.7784 H   0  0  0  0  0  0
  -24.8906  -32.2875   26.4878 H   0  0  0  0  0  0
  -25.8070  -30.8899   27.0208 H   0  0  0  0  0  0
  -26.2768  -29.6845   24.1084 H   0  0  0  0  0  0
  -27.4000  -29.7229   25.4476 H   0  0  0  0  0  0
  -27.8622  -30.4335   23.9173 H   0  0  0  0  0  0
  -27.2612  -33.3600   26.2072 H   0  0  0  0  0  0
  -28.3835  -32.6904   25.0313 H   0  0  0  0  0  0
  -28.0679  -31.8421   26.5383 H   0  0  0  0  0  0
  -28.2598  -38.0124   24.7528 H   0  0  0  0  0  0
  -28.1094  -36.2659   24.6259 H   0  0  0  0  0  0
  -27.2306  -37.1421   25.8862 H   0  0  0  0  0  0
  -20.9288  -29.8751   21.6970 H   0  0  0  0  0  0
  -26.0192  -38.2871   24.1437 H   0  0  0  0  0  0
  -27.9512  -19.4993   21.9020 H   0  0  0  0  0  0
  -32.2353  -19.4382   21.3593 H   0  0  0  0  0  0
  -27.8798  -17.0642   21.5855 H   0  0  0  0  0  0
  -32.1759  -17.0057   21.0456 H   0  0  0  0  0  0
  -30.5278  -20.9177   19.3427 H   0  0  0  0  0  0
  -31.6749  -22.1535   19.8552 H   0  0  0  0  0  0
  -30.2494  -22.5730   18.8943 H   0  0  0  0  0  0
  -31.1698  -21.3595   22.3869 H   0  0  0  0  0  0
  -29.5000  -21.3154   22.8607 H   0  0  0  0  0  0
  -30.3000  -24.6564   19.6150 H   0  0  0  0  0  0
  -30.3245  -25.5806   21.0566 H   0  0  0  0  0  0
  -29.2749  -23.6457   22.3586 H   0  0  0  0  0  0
  -30.9524  -23.6238   21.9385 H   0  0  0  0  0  0
  -27.7410  -25.1472   21.2376 H   0  0  0  0  0  0
  -27.8804  -24.7767   19.5196 H   0  0  0  0  0  0
  -29.0125  -15.0397   21.5148 H   0  0  0  0  0  0
  -28.8678  -22.0032   20.7073 H   0  0  0  0  0  0
  1 25  1  0  0  0
  1 30  2  0  0  0
  1 82  1  0  0  0
  2  3  1  0  0  0
  2 25  1  0  0  0
  2 84  1  0  0  0
  2 85  1  0  0  0
  3  4  1  0  0  0
  3 86  1  0  0  0
  3 87  1  0  0  0
  4  5  1  0  0  0
  4 88  1  0  0  0
  4 89  1  0  0  0
  5  6  1  0  0  0
  5 26  1  0  0  0
  5 90  1  0  0  0
  6 25  1  0  0  0
  6 91  1  0  0  0
  6 92  1  0  0  0
  7  8  2  0  0  0
  7 26  1  0  0  0
  7 29  1  0  0  0
  8  9  1  0  0  0
  8 22  1  0  0  0
  9 10  1  0  0  0
  9 27  2  0  0  0
 10 11  2  0  0  0
 10 15  1  0  0  0
 11 12  1  0  0  0
 11 93  1  0  0  0
 12 13  2  0  0  0
 12 94  1  0  0  0
 13 14  1  0  0  0
 13 31  1  0  0  0
 14 15  2  0  0  0
 14 95  1  0  0  0
 15 96  1  0  0  0
 16 17  2  0  0  0
 16 21  1  0  0  0
 16 31  1  0  0  0
 17 18  1  0  0  0
 17 97  1  0  0  0
 18 19  2  0  0  0
 18 98  1  0  0  0
 19 20  1  0  0  0
 19 24  1  0  0  0
 20 21  2  0  0  0
 20 99  1  0  0  0
 21 23  1  0  0  0
 22 28  1  0  0  0
 22 32  2  0  0  0
 26 27  1  0  0  0
 28100  1  0  0  0
 28101  1  0  0  0
 29102  1  0  0  0
 29103  1  0  0  0
 33 34  1  0  0  0
 33 66  1  0  0  0
 33 70  2  0  0  0
 34 36  1  0  0  0
 34 59  1  0  0  0
 34104  1  0  0  0
 35 44  2  0  0  0
 35 45  1  0  0  0
 35 68  1  0  0  0
 36 56  1  0  0  0
 36105  1  0  0  0
 37 39  1  0  0  0
 37 47  1  0  0  0
 37 66  1  0  0  0
 37106  1  0  0  0
 38 43  2  0  0  0
 38 46  1  0  0  0
 38 47  1  0  0  0
 39 64  1  0  0  0
 39 67  2  0  0  0
 40 52  1  0  0  0
 40 53  2  0  0  0
 40 58  1  0  0  0
 41107  1  0  0  0
 41108  1  0  0  0
 41109  1  0  0  0
 41 48  1  0  0  0
 42 43  1  0  0  0
 42 66  1  0  0  0
 42110  1  0  0  0
 42111  1  0  0  0
 43 44  1  0  0  0
 44112  1  0  0  0
 45 46  2  0  0  0
 45113  1  0  0  0
 46114  1  0  0  0
 47115  1  0  0  0
 47116  1  0  0  0
 48 56  1  0  0  0
 48 65  1  0  0  0
 48117  1  0  0  0
 49 50  1  0  0  0
 49 53  1  0  0  0
 49 64  1  0  0  0
 49118  1  0  0  0
 50 51  1  0  0  0
 50119  1  0  0  0
 50120  1  0  0  0
 51 52  1  0  0  0
 51121  1  0  0  0
 51122  1  0  0  0
 52123  1  0  0  0
 52124  1  0  0  0
 53 54  1  0  0  0
 54 55  2  0  0  0
 54125  1  0  0  0
 55 57  1  0  0  0
 55126  1  0  0  0
 56 69  2  0  0  0
 57 58  2  0  0  0
 57127  1  0  0  0
 58128  1  0  0  0
 59 60  1  0  0  0
 59 61  1  0  0  0
 59 62  1  0  0  0
 60129  1  0  0  0
 60130  1  0  0  0
 60131  1  0  0  0
 61132  1  0  0  0
 61133  1  0  0  0
 61134  1  0  0  0
 62135  1  0  0  0
 62136  1  0  0  0
 62137  1  0  0  0
 63 65  1  0  0  0
 63138  1  0  0  0
 63139  1  0  0  0
 63140  1  0  0  0
 64141  1  0  0  0
 65142  1  0  0  0
 68 81  1  0  0  0
 71 73  2  0  0  0
 71 75  1  0  0  0
 71143  1  0  0  0
 72 74  1  0  0  0
 72 75  2  0  0  0
 72144  1  0  0  0
 73 76  1  0  0  0
 73145  1  0  0  0
 74 76  2  0  0  0
 74146  1  0  0  0
 75 78  1  0  0  0
 76 82  1  0  0  0
 77147  1  0  0  0
 77148  1  0  0  0
 77149  1  0  0  0
 77 83  1  0  0  0
 78 83  1  0  0  0
 78150  1  0  0  0
 78151  1  0  0  0
 79 80  1  0  0  0
 79 81  1  0  0  0
 79152  1  0  0  0
 79153  1  0  0  0
 80 83  1  0  0  0
 80154  1  0  0  0
 80155  1  0  0  0
 81156  1  0  0  0
 81157  1  0  0  0
 82158  1  0  0  0
 83159  1  0  0  0
M  CHG  1  83   1
M  ISO  4   1 100  68 101  81 101  82 100
M  END
> <chiral flag>
0

> <version>
0

> <s_m_source_file>
/data/baiqing/PycharmProjects/Reinvent-master-3.2/result/LINK_invent/BTK/process_docking_weight1_custom_product_contain_oxygen_bond_distance_aromatic_linkinvent_7_9_3/rearranged_h_0017.sdf

> <i_m_source_file_index>
40

> <r_mmod_Potential_Energy-OPLS-2005>
-169.5888671875

> <r_mmod_Stretch_Energy-OPLS-2005>
39.6837730407715

> <r_mmod_Bend_Energy-OPLS-2005>
116.625686645508

> <r_mmod_Torsional_Energy-OPLS-2005>
224.905197143555

> <r_mmod_Improper_Torsional_Energy-OPLS-2005>
4.02819395065308

> <r_mmod_Van_der_Waal_Energy-OPLS-2005>
155.463958740234

> <r_mmod_Electrostatic_Energy-OPLS-2005>
-270.951782226562

> <r_mmod_Solvation_Energy-OPLS-2005>
-451.460754394531

> <b_mmod_Minimization_Converged-OPLS-2005>
0

> <r_mmod_RMS_Derivative-OPLS-2005>
1.51259875297546

$$$$
41
                    3D
 Structure written by MMmdl.
160169  0  0  1  0            999 V2000
  -30.6164  -14.7939   20.4794 C   0  0  0  0  0  0
  -30.4169  -12.4970   19.4878 C   0  0  0  0  0  0
  -29.5132  -12.5405   18.2337 C   0  0  0  0  0  0
  -28.0339  -12.3431   18.6248 C   0  0  0  0  0  0
  -27.6279  -13.2306   19.8318 C   0  0  2  0  0  0
  -28.6579  -13.1320   20.9629 C   0  0  0  0  0  0
  -25.2474  -13.8179   20.5644 C   0  0  0  0  0  0
  -24.1781  -13.0460   20.9198 C   0  0  0  0  0  0
  -24.6352  -11.6908   20.8722 C   0  0  0  0  0  0
  -23.9036  -10.4308   21.0409 C   0  0  0  0  0  0
  -24.3590   -9.4224   21.9198 C   0  0  0  0  0  0
  -23.6279   -8.2242   22.0747 C   0  0  0  0  0  0
  -22.4262   -8.0280   21.3536 C   0  0  0  0  0  0
  -21.9889   -9.0257   20.4644 C   0  0  0  0  0  0
  -22.7204  -10.2148   20.3065 C   0  0  0  0  0  0
  -21.6845   -6.0730   22.5281 C   0  0  0  0  0  0
  -21.4017   -6.5638   23.8219 C   0  0  0  0  0  0
  -21.3661   -5.6789   24.9186 C   0  0  0  0  0  0
  -21.6037   -4.3052   24.7231 C   0  0  0  0  0  0
  -21.8813   -3.8140   23.4355 C   0  0  0  0  0  0
  -21.9196   -4.6956   22.3413 C   0  0  0  0  0  0
  -22.7801  -13.5226   21.1907 C   0  0  0  0  0  0
  -22.1653   -4.2132   21.0988 F   0  0  0  0  0  0
  -21.5636   -3.4545   25.7750 F   0  0  0  0  0  0
  -29.9466  -13.5757   20.4045 N   0  0  0  0  0  0
  -26.2838  -12.9366   20.3103 N   0  0  0  0  0  0
  -25.9252  -11.6509   20.5616 N   0  0  0  0  0  0
  -22.0449  -12.8224   22.0459 N   0  0  0  0  0  0
  -25.4256  -15.1899   20.4082 N   0  0  0  0  0  0
  -31.8225  -14.7952   20.2212 O   0  0  0  0  0  0
  -21.6632   -6.8869   21.4234 O   0  0  0  0  0  0
  -22.3486  -14.5560   20.6785 O   0  0  0  0  0  0
  -24.6497  -31.8592   23.2023 C   0  0  0  0  0  0
  -25.9270  -32.4792   23.8407 C   0  0  1  0  0  0
  -27.2511  -27.2504   20.1287 C   0  0  0  0  0  0
  -25.6035  -33.8581   24.2320 N   0  0  0  0  0  0
  -23.4696  -30.4797   21.5527 C   0  0  2  0  0  0
  -24.9044  -28.9202   20.1184 C   0  0  0  0  0  0
  -22.7870  -29.4768   22.5089 C   0  0  0  0  0  0
  -17.9991  -28.1198   22.8734 C   0  0  0  0  0  0
  -24.1503  -36.7256   23.2627 C   0  0  0  0  0  0
  -26.0038  -30.7660   21.3903 C   0  0  0  0  0  0
  -26.0744  -29.3863   20.7284 C   0  0  0  0  0  0
  -27.2468  -28.5625   20.7227 C   0  0  0  0  0  0
  -26.0576  -26.8639   19.4788 C   0  0  0  0  0  0
  -24.9001  -27.6694   19.4828 C   0  0  0  0  0  0
  -23.6805  -29.8119   20.1670 C   0  0  0  0  0  0
  -25.4120  -36.3054   24.0321 C   0  0  1  0  0  0
  -20.4874  -28.4593   22.7774 C   0  0  2  0  0  0
  -20.6972  -26.9617   22.5297 C   0  0  0  0  0  0
  -19.5580  -26.4551   21.6197 C   0  0  0  0  0  0
  -18.1586  -26.7488   22.2103 C   0  0  0  0  0  0
  -19.1225  -28.8962   23.2520 C   0  0  0  0  0  0
  -18.9420  -30.1472   23.8785 C   0  0  0  0  0  0
  -17.6444  -30.6516   24.0829 C   0  0  0  0  0  0
  -25.9080  -34.9441   23.5098 C   0  0  0  0  0  0
  -16.5268  -29.8976   23.6755 C   0  0  0  0  0  0
  -16.7038  -28.6311   23.0896 C   0  0  0  0  0  0
  -26.4586  -31.6576   25.0783 C   0  0  0  0  0  0
  -25.3768  -31.3734   26.1458 C   0  0  0  0  0  0
  -27.0434  -30.2972   24.6301 C   0  0  0  0  0  0
  -27.6131  -32.4291   25.7599 C   0  0  0  0  0  0
  -27.5583  -37.1787   24.8458 C   0  0  0  0  0  0
  -21.4638  -29.4473   22.3884 N   0  0  0  0  0  0
  -26.4275  -37.3760   23.9430 N   0  0  0  0  0  0
  -24.7278  -31.0537   22.1050 N   0  0  0  0  0  0
  -23.4249  -28.7541   23.2756 O   0  0  0  0  0  0
  -28.3502  -26.3503   20.2065 O   0  0  0  0  0  0
  -26.5592  -34.8902   22.4638 O   0  0  0  0  0  0
  -23.5598  -32.1411   23.7266 O   0  0  0  0  0  0
  -28.7007  -16.1353   22.4659 C   0  0  0  0  0  0
  -28.7243  -18.3124   21.2768 C   0  0  0  0  0  0
  -27.6720  -18.7083   22.1698 C   0  0  0  0  0  0
  -29.1585  -16.8782   21.3548 C   0  0  0  0  0  0
  -27.6592  -16.5595   23.2940 C   0  0  0  0  0  0
  -27.1065  -17.8237   23.1103 C   0  0  0  0  0  0
  -27.0848  -20.1154   22.1603 C   0  0  0  0  0  0
  -29.2940  -19.5269   20.3804 C   0  0  0  0  0  0
  -28.0989  -21.1968   21.8413 C   0  0  0  0  0  0
  -29.1873  -23.7465   20.5038 C   0  0  0  0  0  0
  -29.3973  -22.2045   19.9502 C   0  0  0  0  0  0
  -28.2173  -24.8799   19.8589 C   0  0  0  0  0  0
  -29.9921  -16.0573   20.4324 N   0  0  0  0  0  0
  -28.6642  -20.9579   20.5066 N   0  3  1  0  0  0
  -27.1716  -15.7339   24.2508 F   0  0  0  0  0  0
  -26.0607  -18.2039   23.8863 F   0  0  0  0  0  0
  -31.4623  -12.6039   19.1995 H   0  0  0  0  0  0
  -30.3571  -11.5149   19.9607 H   0  0  0  0  0  0
  -29.8193  -11.7839   17.5130 H   0  0  0  0  0  0
  -29.6364  -13.5035   17.7373 H   0  0  0  0  0  0
  -27.8947  -11.2931   18.8778 H   0  0  0  0  0  0
  -27.3838  -12.5351   17.7721 H   0  0  0  0  0  0
  -27.6355  -14.2597   19.4741 H   0  0  0  0  0  0
  -28.7263  -12.0992   21.3057 H   0  0  0  0  0  0
  -28.2960  -13.6628   21.8299 H   0  0  0  0  0  0
  -25.2729   -9.5699   22.4794 H   0  0  0  0  0  0
  -23.9992   -7.4620   22.7464 H   0  0  0  0  0  0
  -21.0817   -8.8765   19.8947 H   0  0  0  0  0  0
  -22.3657  -10.9686   19.6180 H   0  0  0  0  0  0
  -21.2006   -7.6149   23.9717 H   0  0  0  0  0  0
  -21.1483   -6.0531   25.9088 H   0  0  0  0  0  0
  -22.0592   -2.7598   23.2870 H   0  0  0  0  0  0
  -22.4016  -11.9835   22.4801 H   0  0  0  0  0  0
  -21.1081  -13.1255   22.2709 H   0  0  0  0  0  0
  -24.6757  -15.8596   20.5387 H   0  0  0  0  0  0
  -26.2901  -15.6084   20.0903 H   0  0  0  0  0  0
  -26.7356  -32.5479   23.1180 H   0  0  0  0  0  0
  -25.0247  -33.9728   25.0506 H   0  0  0  0  0  0
  -22.7705  -31.3039   21.3944 H   0  0  0  0  0  0
  -23.3786  -35.9568   23.3246 H   0  0  0  0  0  0
  -24.3603  -36.8921   22.2050 H   0  0  0  0  0  0
  -23.7233  -37.6430   23.6679 H   0  0  0  0  0  0
  -26.1517  -31.5399   20.6351 H   0  0  0  0  0  0
  -26.8764  -30.8147   22.0316 H   0  0  0  0  0  0
  -28.1421  -28.9121   21.2200 H   0  0  0  0  0  0
  -25.9996  -25.9124   18.9711 H   0  0  0  0  0  0
  -24.0013  -27.3196   18.9946 H   0  0  0  0  0  0
  -23.8212  -30.5867   19.4126 H   0  0  0  0  0  0
  -22.7993  -29.2492   19.8572 H   0  0  0  0  0  0
  -25.1303  -36.1883   25.0805 H   0  0  0  0  0  0
  -20.1694  -28.6794   21.7574 H   0  0  0  0  0  0
  -21.6675  -26.7588   22.0753 H   0  0  0  0  0  0
  -20.6849  -26.4258   23.4797 H   0  0  0  0  0  0
  -19.6658  -25.3861   21.4429 H   0  0  0  0  0  0
  -19.6414  -26.9161   20.6367 H   0  0  0  0  0  0
  -17.3987  -26.6197   21.4381 H   0  0  0  0  0  0
  -17.9348  -25.9984   22.9699 H   0  0  0  0  0  0
  -19.7995  -30.7523   24.1472 H   0  0  0  0  0  0
  -17.5107  -31.6246   24.5335 H   0  0  0  0  0  0
  -15.5289  -30.2907   23.8253 H   0  0  0  0  0  0
  -15.8374  -28.0556   22.7919 H   0  0  0  0  0  0
  -24.5984  -30.7050   25.7762 H   0  0  0  0  0  0
  -24.8932  -32.2910   26.4805 H   0  0  0  0  0  0
  -25.8055  -30.8957   27.0281 H   0  0  0  0  0  0
  -26.3060  -29.6712   24.1258 H   0  0  0  0  0  0
  -27.4016  -29.7232   25.4863 H   0  0  0  0  0  0
  -27.8982  -30.4213   23.9649 H   0  0  0  0  0  0
  -27.2747  -33.3609   26.2142 H   0  0  0  0  0  0
  -28.3997  -32.6802   25.0472 H   0  0  0  0  0  0
  -28.0735  -31.8419   26.5559 H   0  0  0  0  0  0
  -28.2535  -38.0140   24.7554 H   0  0  0  0  0  0
  -28.1147  -36.2673   24.6226 H   0  0  0  0  0  0
  -27.2308  -37.1343   25.8854 H   0  0  0  0  0  0
  -21.0879  -30.1626   21.7821 H   0  0  0  0  0  0
  -26.0140  -38.2818   24.1473 H   0  0  0  0  0  0
  -29.1452  -15.1898   22.7085 H   0  0  0  0  0  0
  -26.6540  -20.3503   23.1329 H   0  0  0  0  0  0
  -26.2616  -20.1581   21.4461 H   0  0  0  0  0  0
  -29.2471  -19.2252   19.3343 H   0  0  0  0  0  0
  -30.3550  -19.6051   20.6179 H   0  0  0  0  0  0
  -28.8873  -21.2529   22.5932 H   0  0  0  0  0  0
  -27.5638  -22.1466   21.8670 H   0  0  0  0  0  0
  -30.1779  -24.1912   20.3915 H   0  0  0  0  0  0
  -29.0570  -23.7378   21.5855 H   0  0  0  0  0  0
  -30.4442  -21.9895   20.1731 H   0  0  0  0  0  0
  -29.3423  -22.1993   18.8603 H   0  0  0  0  0  0
  -27.2097  -24.5353   20.0808 H   0  0  0  0  0  0
  -28.3268  -24.8296   18.7752 H   0  0  0  0  0  0
  -30.5476  -16.6465   19.8297 H   0  0  0  0  0  0
  -27.8453  -20.8976   19.9198 H   0  0  0  0  0  0
  1 25  1  0  0  0
  1 30  2  0  0  0
  1 83  1  0  0  0
  2  3  1  0  0  0
  2 25  1  0  0  0
  2 87  1  0  0  0
  2 88  1  0  0  0
  3  4  1  0  0  0
  3 89  1  0  0  0
  3 90  1  0  0  0
  4  5  1  0  0  0
  4 91  1  0  0  0
  4 92  1  0  0  0
  5  6  1  0  0  0
  5 26  1  0  0  0
  5 93  1  0  0  0
  6 25  1  0  0  0
  6 94  1  0  0  0
  6 95  1  0  0  0
  7  8  2  0  0  0
  7 26  1  0  0  0
  7 29  1  0  0  0
  8  9  1  0  0  0
  8 22  1  0  0  0
  9 10  1  0  0  0
  9 27  2  0  0  0
 10 11  2  0  0  0
 10 15  1  0  0  0
 11 12  1  0  0  0
 11 96  1  0  0  0
 12 13  2  0  0  0
 12 97  1  0  0  0
 13 14  1  0  0  0
 13 31  1  0  0  0
 14 15  2  0  0  0
 14 98  1  0  0  0
 15 99  1  0  0  0
 16 17  2  0  0  0
 16 21  1  0  0  0
 16 31  1  0  0  0
 17 18  1  0  0  0
 17100  1  0  0  0
 18 19  2  0  0  0
 18101  1  0  0  0
 19 20  1  0  0  0
 19 24  1  0  0  0
 20 21  2  0  0  0
 20102  1  0  0  0
 21 23  1  0  0  0
 22 28  1  0  0  0
 22 32  2  0  0  0
 26 27  1  0  0  0
 28103  1  0  0  0
 28104  1  0  0  0
 29105  1  0  0  0
 29106  1  0  0  0
 33 34  1  0  0  0
 33 66  1  0  0  0
 33 70  2  0  0  0
 34 36  1  0  0  0
 34 59  1  0  0  0
 34107  1  0  0  0
 35 44  2  0  0  0
 35 45  1  0  0  0
 35 68  1  0  0  0
 36 56  1  0  0  0
 36108  1  0  0  0
 37 39  1  0  0  0
 37 47  1  0  0  0
 37 66  1  0  0  0
 37109  1  0  0  0
 38 43  2  0  0  0
 38 46  1  0  0  0
 38 47  1  0  0  0
 39 64  1  0  0  0
 39 67  2  0  0  0
 40 52  1  0  0  0
 40 53  2  0  0  0
 40 58  1  0  0  0
 41110  1  0  0  0
 41111  1  0  0  0
 41112  1  0  0  0
 41 48  1  0  0  0
 42 43  1  0  0  0
 42 66  1  0  0  0
 42113  1  0  0  0
 42114  1  0  0  0
 43 44  1  0  0  0
 44115  1  0  0  0
 45 46  2  0  0  0
 45116  1  0  0  0
 46117  1  0  0  0
 47118  1  0  0  0
 47119  1  0  0  0
 48 56  1  0  0  0
 48 65  1  0  0  0
 48120  1  0  0  0
 49 50  1  0  0  0
 49 53  1  0  0  0
 49 64  1  0  0  0
 49121  1  0  0  0
 50 51  1  0  0  0
 50122  1  0  0  0
 50123  1  0  0  0
 51 52  1  0  0  0
 51124  1  0  0  0
 51125  1  0  0  0
 52126  1  0  0  0
 52127  1  0  0  0
 53 54  1  0  0  0
 54 55  2  0  0  0
 54128  1  0  0  0
 55 57  1  0  0  0
 55129  1  0  0  0
 56 69  2  0  0  0
 57 58  2  0  0  0
 57130  1  0  0  0
 58131  1  0  0  0
 59 60  1  0  0  0
 59 61  1  0  0  0
 59 62  1  0  0  0
 60132  1  0  0  0
 60133  1  0  0  0
 60134  1  0  0  0
 61135  1  0  0  0
 61136  1  0  0  0
 61137  1  0  0  0
 62138  1  0  0  0
 62139  1  0  0  0
 62140  1  0  0  0
 63 65  1  0  0  0
 63141  1  0  0  0
 63142  1  0  0  0
 63143  1  0  0  0
 64144  1  0  0  0
 65145  1  0  0  0
 68 82  1  0  0  0
 71 74  2  0  0  0
 71 75  1  0  0  0
 71146  1  0  0  0
 72 73  2  0  0  0
 72 74  1  0  0  0
 72 78  1  0  0  0
 73 76  1  0  0  0
 73 77  1  0  0  0
 74 83  1  0  0  0
 75 76  2  0  0  0
 75 85  1  0  0  0
 76 86  1  0  0  0
 77 79  1  0  0  0
 77147  1  0  0  0
 77148  1  0  0  0
 78 84  1  0  0  0
 78149  1  0  0  0
 78150  1  0  0  0
 79 84  1  0  0  0
 79151  1  0  0  0
 79152  1  0  0  0
 80 81  1  0  0  0
 80 82  1  0  0  0
 80153  1  0  0  0
 80154  1  0  0  0
 81155  1  0  0  0
 81156  1  0  0  0
 81 84  1  0  0  0
 82157  1  0  0  0
 82158  1  0  0  0
 83159  1  0  0  0
 84160  1  0  0  0
M  CHG  1  84   1
M  ISO  4   1 100  68 101  82 101  83 100
M  END
> <chiral flag>
0

> <version>
0

> <s_m_source_file>
/data/baiqing/PycharmProjects/Reinvent-master-3.2/result/LINK_invent/BTK/process_docking_weight1_custom_product_contain_oxygen_bond_distance_aromatic_linkinvent_7_9_3/rearranged_h_0017.sdf

> <i_m_source_file_index>
41

> <r_mmod_Potential_Energy-OPLS-2005>
434.595397949219

> <r_mmod_Stretch_Energy-OPLS-2005>
173.778991699219

> <r_mmod_Bend_Energy-OPLS-2005>
380.115020751953

> <r_mmod_Torsional_Energy-OPLS-2005>
300.939147949219

> <r_mmod_Improper_Torsional_Energy-OPLS-2005>
14.8846054077148

> <r_mmod_Van_der_Waal_Energy-OPLS-2005>
157.135559082031

> <r_mmod_Electrostatic_Energy-OPLS-2005>
-234.9375

> <r_mmod_Solvation_Energy-OPLS-2005>
-477.505157470703

> <b_mmod_Minimization_Converged-OPLS-2005>
0

> <r_mmod_RMS_Derivative-OPLS-2005>
5.58492088317871

$$$$
42
                    3D
 Structure written by MMmdl.
159167  0  0  1  0            999 V2000
  -30.6613  -14.6766   20.4119 C   0  0  0  0  0  0
  -30.4440  -12.4151   19.4266 C   0  0  0  0  0  0
  -29.5063  -12.4682   18.2028 C   0  0  0  0  0  0
  -28.0250  -12.3382   18.6205 C   0  0  0  0  0  0
  -27.6502  -13.2190   19.8452 C   0  0  2  0  0  0
  -28.7085  -13.1164   20.9585 C   0  0  0  0  0  0
  -25.2560  -13.8162   20.5600 C   0  0  0  0  0  0
  -24.1820  -13.0467   20.9218 C   0  0  0  0  0  0
  -24.6388  -11.6932   20.8882 C   0  0  0  0  0  0
  -23.9038  -10.4317   21.0510 C   0  0  0  0  0  0
  -24.3551   -9.4221   21.9262 C   0  0  0  0  0  0
  -23.6220   -8.2241   22.0771 C   0  0  0  0  0  0
  -22.4253   -8.0286   21.3534 C   0  0  0  0  0  0
  -21.9897   -9.0303   20.4682 C   0  0  0  0  0  0
  -22.7205  -10.2179   20.3141 C   0  0  0  0  0  0
  -21.6889   -6.0703   22.5249 C   0  0  0  0  0  0
  -21.4056   -6.5615   23.8178 C   0  0  0  0  0  0
  -21.3675   -5.6791   24.9148 C   0  0  0  0  0  0
  -21.6041   -4.3041   24.7199 C   0  0  0  0  0  0
  -21.8799   -3.8108   23.4320 C   0  0  0  0  0  0
  -21.9181   -4.6932   22.3385 C   0  0  0  0  0  0
  -22.7833  -13.5275   21.1727 C   0  0  0  0  0  0
  -22.1629   -4.2114   21.0957 F   0  0  0  0  0  0
  -21.5637   -3.4520   25.7701 F   0  0  0  0  0  0
  -29.9922  -13.4805   20.3409 N   0  0  0  0  0  0
  -26.3001  -12.9364   20.3288 N   0  0  0  0  0  0
  -25.9327  -11.6513   20.5821 N   0  0  0  0  0  0
  -22.0407  -12.8472   22.0389 N   0  0  0  0  0  0
  -25.4380  -15.1819   20.3663 N   0  0  0  0  0  0
  -31.8937  -14.6650   20.4540 O   0  0  0  0  0  0
  -21.6634   -6.8863   21.4210 O   0  0  0  0  0  0
  -22.3533  -14.5472   20.6367 O   0  0  0  0  0  0
  -24.6370  -31.8550   23.2042 C   0  0  0  0  0  0
  -25.9179  -32.4780   23.8389 C   0  0  1  0  0  0
  -27.2044  -27.2555   20.0898 C   0  0  0  0  0  0
  -25.5979  -33.8586   24.2283 N   0  0  0  0  0  0
  -23.4341  -30.4866   21.5474 C   0  0  2  0  0  0
  -24.8737  -28.9424   20.1158 C   0  0  0  0  0  0
  -22.7518  -29.4629   22.4907 C   0  0  0  0  0  0
  -18.0285  -28.1431   22.8479 C   0  0  0  0  0  0
  -24.1455  -36.7292   23.2636 C   0  0  0  0  0  0
  -25.9861  -30.7662   21.3845 C   0  0  0  0  0  0
  -26.0544  -29.3898   20.7199 C   0  0  0  0  0  0
  -27.2262  -28.5586   20.6980 C   0  0  0  0  0  0
  -25.9936  -26.8958   19.4470 C   0  0  0  0  0  0
  -24.8483  -27.7011   19.4734 C   0  0  0  0  0  0
  -23.6545  -29.8369   20.1603 C   0  0  0  0  0  0
  -25.4088  -36.3082   24.0321 C   0  0  1  0  0  0
  -20.5887  -28.3747   23.1258 C   0  0  2  0  0  0
  -20.6789  -26.9466   22.5418 C   0  0  0  0  0  0
  -19.5758  -26.6413   21.5230 C   0  0  0  0  0  0
  -18.1928  -26.7966   22.1627 C   0  0  0  0  0  0
  -19.1541  -28.8905   23.2869 C   0  0  0  0  0  0
  -18.9460  -30.1498   23.8907 C   0  0  0  0  0  0
  -17.6468  -30.6635   24.0584 C   0  0  0  0  0  0
  -25.9046  -34.9466   23.5118 C   0  0  0  0  0  0
  -16.5358  -29.9150   23.6342 C   0  0  0  0  0  0
  -16.7273  -28.6568   23.0356 C   0  0  0  0  0  0
  -26.4527  -31.6626   25.0796 C   0  0  0  0  0  0
  -25.3734  -31.3833   26.1525 C   0  0  0  0  0  0
  -27.0354  -30.3024   24.6299 C   0  0  0  0  0  0
  -27.6072  -32.4370   25.7585 C   0  0  0  0  0  0
  -27.5566  -37.1807   24.8465 C   0  0  0  0  0  0
  -21.4217  -29.3115   22.3655 N   0  0  0  0  0  0
  -26.4267  -37.3790   23.9419 N   0  0  0  0  0  0
  -24.7063  -31.0524   22.1021 N   0  0  0  0  0  0
  -23.4215  -28.8124   23.2965 O   0  0  0  0  0  0
  -28.2829  -26.3328   20.1012 O   0  0  0  0  0  0
  -26.5591  -34.8929   22.4638 O   0  0  0  0  0  0
  -23.5507  -32.1396   23.7304 O   0  0  0  0  0  0
  -28.1380  -18.0951   22.0643 C   0  0  0  0  0  0
  -28.3710  -19.3802   21.5221 C   0  0  0  0  0  0
  -28.7126  -16.9324   21.4998 C   0  0  0  0  0  0
  -29.6765  -18.3358   19.7681 C   0  0  0  0  0  0
  -29.1353  -19.5533   20.3461 C   0  0  0  0  0  0
  -29.5211  -17.0011   20.3433 C   0  0  0  0  0  0
  -30.7807  -15.9934   18.4545 C   0  0  0  0  0  0
  -27.1986  -21.9777   19.2979 C   0  0  0  0  0  0
  -29.4274  -21.0184   19.7770 C   0  0  0  0  0  0
  -28.9947  -23.6348   19.9191 C   0  0  0  0  0  0
  -27.9537  -24.8573   20.1364 C   0  0  0  0  0  0
  -30.0976  -15.7671   19.7470 N   0  0  0  0  0  0
  -28.4600  -22.1842   20.0482 N   0  3  1  0  0  0
  -31.4770  -12.5600   19.1022 H   0  0  0  0  0  0
  -30.4069  -11.4395   19.9206 H   0  0  0  0  0  0
  -29.7712  -11.6885   17.4862 H   0  0  0  0  0  0
  -29.6420  -13.4153   17.6748 H   0  0  0  0  0  0
  -27.8459  -11.2863   18.8384 H   0  0  0  0  0  0
  -27.3744  -12.5818   17.7794 H   0  0  0  0  0  0
  -27.6612  -14.2542   19.4953 H   0  0  0  0  0  0
  -28.7508  -12.0922   21.3430 H   0  0  0  0  0  0
  -28.4719  -13.7466   21.8163 H   0  0  0  0  0  0
  -25.2678   -9.5676   22.4859 H   0  0  0  0  0  0
  -23.9934   -7.4644   22.7503 H   0  0  0  0  0  0
  -21.0809   -8.8775   19.9032 H   0  0  0  0  0  0
  -22.3625  -10.9688   19.6242 H   0  0  0  0  0  0
  -21.2108   -7.6135   23.9654 H   0  0  0  0  0  0
  -21.1533   -6.0534   25.9036 H   0  0  0  0  0  0
  -22.0580   -2.7573   23.2803 H   0  0  0  0  0  0
  -22.3886  -12.0208   22.5040 H   0  0  0  0  0  0
  -21.0988  -13.1609   22.2325 H   0  0  0  0  0  0
  -24.6617  -15.8346   20.3478 H   0  0  0  0  0  0
  -26.2390  -15.5220   19.8534 H   0  0  0  0  0  0
  -26.7260  -32.5392   23.1150 H   0  0  0  0  0  0
  -25.0196  -33.9732   25.0486 H   0  0  0  0  0  0
  -22.7362  -31.3130   21.4045 H   0  0  0  0  0  0
  -23.3734  -35.9618   23.3298 H   0  0  0  0  0  0
  -24.3566  -36.8909   22.2062 H   0  0  0  0  0  0
  -23.7205  -37.6489   23.6651 H   0  0  0  0  0  0
  -26.1180  -31.5271   20.6123 H   0  0  0  0  0  0
  -26.8695  -30.8179   22.0126 H   0  0  0  0  0  0
  -28.1394  -28.8981   21.1724 H   0  0  0  0  0  0
  -25.8615  -25.9863   18.8846 H   0  0  0  0  0  0
  -23.9530  -27.3574   18.9791 H   0  0  0  0  0  0
  -23.8028  -30.6224   19.4170 H   0  0  0  0  0  0
  -22.7650  -29.2950   19.8368 H   0  0  0  0  0  0
  -25.1260  -36.1948   25.0823 H   0  0  0  0  0  0
  -20.9972  -28.3340   24.1370 H   0  0  0  0  0  0
  -20.5701  -26.2358   23.3625 H   0  0  0  0  0  0
  -21.6644  -26.7519   22.1177 H   0  0  0  0  0  0
  -19.6921  -25.6311   21.1283 H   0  0  0  0  0  0
  -19.6699  -27.3194   20.6721 H   0  0  0  0  0  0
  -17.4191  -26.6705   21.4038 H   0  0  0  0  0  0
  -18.0346  -26.0147   22.9054 H   0  0  0  0  0  0
  -19.7948  -30.7303   24.2293 H   0  0  0  0  0  0
  -17.5042  -31.6300   24.5203 H   0  0  0  0  0  0
  -15.5368  -30.3073   23.7679 H   0  0  0  0  0  0
  -15.8653  -28.0915   22.7066 H   0  0  0  0  0  0
  -24.5887  -30.7186   25.7911 H   0  0  0  0  0  0
  -24.8960  -32.3028   26.4921 H   0  0  0  0  0  0
  -25.8059  -30.9075   27.0329 H   0  0  0  0  0  0
  -26.2955  -29.6820   24.1221 H   0  0  0  0  0  0
  -27.3902  -29.7272   25.4864 H   0  0  0  0  0  0
  -27.8896  -30.4303   23.9637 H   0  0  0  0  0  0
  -27.2662  -33.3665   26.2159 H   0  0  0  0  0  0
  -28.3905  -32.6939   25.0444 H   0  0  0  0  0  0
  -28.0700  -31.8500   26.5526 H   0  0  0  0  0  0
  -28.2571  -38.0113   24.7499 H   0  0  0  0  0  0
  -28.1053  -36.2642   24.6263 H   0  0  0  0  0  0
  -27.2291  -37.1438   25.8870 H   0  0  0  0  0  0
  -20.9398  -29.8921   21.6935 H   0  0  0  0  0  0
  -26.0133  -38.2845   24.1483 H   0  0  0  0  0  0
  -27.4952  -17.9923   22.9275 H   0  0  0  0  0  0
  -27.9595  -20.2405   22.0397 H   0  0  0  0  0  0
  -28.5016  -15.9833   21.9675 H   0  0  0  0  0  0
  -30.2534  -18.4465   18.8613 H   0  0  0  0  0  0
  -31.6026  -16.7065   18.5899 H   0  0  0  0  0  0
  -30.0974  -16.3727   17.6939 H   0  0  0  0  0  0
  -31.2370  -15.0952   18.0291 H   0  0  0  0  0  0
  -26.8798  -20.9376   19.3294 H   0  0  0  0  0  0
  -27.3178  -22.2615   18.2484 H   0  0  0  0  0  0
  -26.3823  -22.5640   19.7239 H   0  0  0  0  0  0
  -29.5368  -20.9291   18.6926 H   0  0  0  0  0  0
  -30.4103  -21.3200   20.1412 H   0  0  0  0  0  0
  -29.8202  -23.7385   20.6241 H   0  0  0  0  0  0
  -29.4358  -23.7541   18.9283 H   0  0  0  0  0  0
  -27.4456  -24.6773   21.0844 H   0  0  0  0  0  0
  -27.2229  -24.6655   19.3621 H   0  0  0  0  0  0
  -28.2108  -22.0797   21.0209 H   0  0  0  0  0  0
  1 25  1  0  0  0
  1 30  2  0  0  0
  1 82  1  0  0  0
  2  3  1  0  0  0
  2 25  1  0  0  0
  2 84  1  0  0  0
  2 85  1  0  0  0
  3  4  1  0  0  0
  3 86  1  0  0  0
  3 87  1  0  0  0
  4  5  1  0  0  0
  4 88  1  0  0  0
  4 89  1  0  0  0
  5  6  1  0  0  0
  5 26  1  0  0  0
  5 90  1  0  0  0
  6 25  1  0  0  0
  6 91  1  0  0  0
  6 92  1  0  0  0
  7  8  2  0  0  0
  7 26  1  0  0  0
  7 29  1  0  0  0
  8  9  1  0  0  0
  8 22  1  0  0  0
  9 10  1  0  0  0
  9 27  2  0  0  0
 10 11  2  0  0  0
 10 15  1  0  0  0
 11 12  1  0  0  0
 11 93  1  0  0  0
 12 13  2  0  0  0
 12 94  1  0  0  0
 13 14  1  0  0  0
 13 31  1  0  0  0
 14 15  2  0  0  0
 14 95  1  0  0  0
 15 96  1  0  0  0
 16 17  2  0  0  0
 16 21  1  0  0  0
 16 31  1  0  0  0
 17 18  1  0  0  0
 17 97  1  0  0  0
 18 19  2  0  0  0
 18 98  1  0  0  0
 19 20  1  0  0  0
 19 24  1  0  0  0
 20 21  2  0  0  0
 20 99  1  0  0  0
 21 23  1  0  0  0
 22 28  1  0  0  0
 22 32  2  0  0  0
 26 27  1  0  0  0
 28100  1  0  0  0
 28101  1  0  0  0
 29102  1  0  0  0
 29103  1  0  0  0
 33 34  1  0  0  0
 33 66  1  0  0  0
 33 70  2  0  0  0
 34 36  1  0  0  0
 34 59  1  0  0  0
 34104  1  0  0  0
 35 44  2  0  0  0
 35 45  1  0  0  0
 35 68  1  0  0  0
 36 56  1  0  0  0
 36105  1  0  0  0
 37 39  1  0  0  0
 37 47  1  0  0  0
 37 66  1  0  0  0
 37106  1  0  0  0
 38 43  2  0  0  0
 38 46  1  0  0  0
 38 47  1  0  0  0
 39 64  1  0  0  0
 39 67  2  0  0  0
 40 52  1  0  0  0
 40 53  2  0  0  0
 40 58  1  0  0  0
 41107  1  0  0  0
 41108  1  0  0  0
 41109  1  0  0  0
 41 48  1  0  0  0
 42 43  1  0  0  0
 42 66  1  0  0  0
 42110  1  0  0  0
 42111  1  0  0  0
 43 44  1  0  0  0
 44112  1  0  0  0
 45 46  2  0  0  0
 45113  1  0  0  0
 46114  1  0  0  0
 47115  1  0  0  0
 47116  1  0  0  0
 48 56  1  0  0  0
 48 65  1  0  0  0
 48117  1  0  0  0
 49 50  1  0  0  0
 49 53  1  0  0  0
 49 64  1  0  0  0
 49118  1  0  0  0
 50 51  1  0  0  0
 50119  1  0  0  0
 50120  1  0  0  0
 51 52  1  0  0  0
 51121  1  0  0  0
 51122  1  0  0  0
 52123  1  0  0  0
 52124  1  0  0  0
 53 54  1  0  0  0
 54 55  2  0  0  0
 54125  1  0  0  0
 55 57  1  0  0  0
 55126  1  0  0  0
 56 69  2  0  0  0
 57 58  2  0  0  0
 57127  1  0  0  0
 58128  1  0  0  0
 59 60  1  0  0  0
 59 61  1  0  0  0
 59 62  1  0  0  0
 60129  1  0  0  0
 60130  1  0  0  0
 60131  1  0  0  0
 61132  1  0  0  0
 61133  1  0  0  0
 61134  1  0  0  0
 62135  1  0  0  0
 62136  1  0  0  0
 62137  1  0  0  0
 63 65  1  0  0  0
 63138  1  0  0  0
 63139  1  0  0  0
 63140  1  0  0  0
 64141  1  0  0  0
 65142  1  0  0  0
 68 81  1  0  0  0
 71 72  2  0  0  0
 71 73  1  0  0  0
 71143  1  0  0  0
 72 75  1  0  0  0
 72144  1  0  0  0
 73 76  2  0  0  0
 73145  1  0  0  0
 74 75  2  0  0  0
 74 76  1  0  0  0
 74146  1  0  0  0
 75 79  1  0  0  0
 76 82  1  0  0  0
 77 82  1  0  0  0
 77147  1  0  0  0
 77148  1  0  0  0
 77149  1  0  0  0
 78150  1  0  0  0
 78151  1  0  0  0
 78152  1  0  0  0
 78 83  1  0  0  0
 79 83  1  0  0  0
 79153  1  0  0  0
 79154  1  0  0  0
 80 81  1  0  0  0
 80 83  1  0  0  0
 80155  1  0  0  0
 80156  1  0  0  0
 81157  1  0  0  0
 81158  1  0  0  0
 83159  1  0  0  0
M  CHG  1  83   1
M  ISO  4   1 100  68 101  81 101  82 100
M  END
> <chiral flag>
0

> <version>
0

> <s_m_source_file>
/data/baiqing/PycharmProjects/Reinvent-master-3.2/result/LINK_invent/BTK/process_docking_weight1_custom_product_contain_oxygen_bond_distance_aromatic_linkinvent_7_9_3/rearranged_h_0017.sdf

> <i_m_source_file_index>
42

> <r_mmod_Potential_Energy-OPLS-2005>
283.591003417969

> <r_mmod_Stretch_Energy-OPLS-2005>
128.742965698242

> <r_mmod_Bend_Energy-OPLS-2005>
177.366027832031

> <r_mmod_Torsional_Energy-OPLS-2005>
298.157409667969

> <r_mmod_Improper_Torsional_Energy-OPLS-2005>
31.4659404754639

> <r_mmod_Van_der_Waal_Energy-OPLS-2005>
152.816757202148

> <r_mmod_Electrostatic_Energy-OPLS-2005>
-169.087249755859

> <r_mmod_Solvation_Energy-OPLS-2005>
-430.082794189453

> <b_mmod_Minimization_Converged-OPLS-2005>
0

> <r_mmod_RMS_Derivative-OPLS-2005>
8.1597900390625

$$$$
43
                    3D
 Structure written by MMmdl.
144152  0  0  1  0            999 V2000
  -30.1329  -16.3124   20.2945 C   0  0  0  0  0  0
  -30.3311  -13.6178   19.5002 C   0  0  0  0  0  0
  -29.5476  -12.8517   18.3749 C   0  0  0  0  0  0
  -28.1970  -12.3430   18.8751 C   0  0  0  0  0  0
  -27.5739  -13.3921   19.8106 C   0  0  2  0  0  0
  -28.5447  -14.0338   20.8606 C   0  0  0  0  0  0
  -25.2206  -13.8432   20.5947 C   0  0  0  0  0  0
  -24.1674  -13.0460   20.9350 C   0  0  0  0  0  0
  -24.6494  -11.7009   20.8771 C   0  0  0  0  0  0
  -23.9211  -10.4313   21.0366 C   0  0  0  0  0  0
  -24.3709   -9.4219   21.9163 C   0  0  0  0  0  0
  -23.6344   -8.2271   22.0750 C   0  0  0  0  0  0
  -22.4323   -8.0312   21.3545 C   0  0  0  0  0  0
  -21.9991   -9.0294   20.4640 C   0  0  0  0  0  0
  -22.7360  -10.2152   20.3033 C   0  0  0  0  0  0
  -21.6871   -6.0758   22.5279 C   0  0  0  0  0  0
  -21.4031   -6.5655   23.8215 C   0  0  0  0  0  0
  -21.3664   -5.6803   24.9173 C   0  0  0  0  0  0
  -21.6042   -4.3064   24.7221 C   0  0  0  0  0  0
  -21.8815   -3.8161   23.4340 C   0  0  0  0  0  0
  -21.9196   -4.6982   22.3398 C   0  0  0  0  0  0
  -22.7659  -13.5114   21.1944 C   0  0  0  0  0  0
  -22.1660   -4.2166   21.0976 F   0  0  0  0  0  0
  -21.5623   -3.4544   25.7731 F   0  0  0  0  0  0
  -29.5777  -14.8727   20.1290 N   0  0  0  0  0  0
  -26.2779  -12.9941   20.3452 N   0  0  0  0  0  0
  -25.9483  -11.6908   20.5717 N   0  0  0  0  0  0
  -22.0344  -12.8068   22.0488 N   0  0  0  0  0  0
  -25.3657  -15.2189   20.4382 N   0  0  0  0  0  0
  -31.3531  -15.9615   20.2983 O   0  0  0  0  0  0
  -21.6665   -6.8916   21.4247 O   0  0  0  0  0  0
  -22.3309  -14.5400   20.6772 O   0  0  0  0  0  0
  -24.7270  -31.7451   23.1134 C   0  0  0  0  0  0
  -25.9629  -32.4199   23.7851 C   0  0  1  0  0  0
  -27.2429  -26.2409   20.2550 C   0  0  0  0  0  0
  -25.6017  -33.8051   24.1686 N   0  0  0  0  0  0
  -23.5736  -30.3260   21.4788 C   0  0  2  0  0  0
  -25.0336  -28.5679   20.1330 C   0  0  0  0  0  0
  -22.7956  -29.4022   22.4592 C   0  0  0  0  0  0
  -18.0365  -28.1441   22.8432 C   0  0  0  0  0  0
  -24.1498  -36.7040   23.2662 C   0  0  0  0  0  0
  -26.1702  -30.3251   21.4467 C   0  0  0  0  0  0
  -26.2300  -28.8378   20.8057 C   0  0  0  0  0  0
  -27.2960  -27.7195   20.8189 C   0  0  0  0  0  0
  -26.0092  -26.2979   19.5175 C   0  0  0  0  0  0
  -24.9898  -27.3278   19.4628 C   0  0  0  0  0  0
  -23.8523  -29.5795   20.1346 C   0  0  0  0  0  0
  -25.4163  -36.2739   24.0248 C   0  0  1  0  0  0
  -20.6020  -28.3819   23.1060 C   0  0  2  0  0  0
  -20.6807  -26.9436   22.5409 C   0  0  0  0  0  0
  -19.5791  -26.6352   21.5219 C   0  0  0  0  0  0
  -18.1975  -26.7958   22.1615 C   0  0  0  0  0  0
  -19.1642  -28.8965   23.2713 C   0  0  0  0  0  0
  -18.9540  -30.1538   23.8777 C   0  0  0  0  0  0
  -17.6526  -30.6613   24.0539 C   0  0  0  0  0  0
  -25.9174  -34.9142   23.4840 C   0  0  0  0  0  0
  -16.5412  -29.9085   23.6362 C   0  0  0  0  0  0
  -16.7342  -28.6511   23.0374 C   0  0  0  0  0  0
  -26.4666  -31.6434   25.0662 C   0  0  0  0  0  0
  -25.3617  -31.3874   26.1195 C   0  0  0  0  0  0
  -27.0678  -30.2730   24.6888 C   0  0  0  0  0  0
  -27.6020  -32.4410   25.7510 C   0  0  0  0  0  0
  -27.5556  -37.1664   24.8459 C   0  0  0  0  0  0
  -21.4564  -29.2975   22.3330 N   0  0  0  0  0  0
  -26.4248  -37.3554   23.9417 N   0  0  0  0  0  0
  -24.8531  -30.8432   22.0646 N   0  0  0  0  0  0
  -23.4181  -28.7699   23.3150 O   0  0  0  0  0  0
  -28.1639  -24.8249   20.3073 O   0  0  0  0  0  0
  -26.5882  -34.8811   22.4506 O   0  0  0  0  0  0
  -23.6194  -32.0740   23.5796 O   0  0  0  0  0  0
  -28.7249  -21.3360   21.1872 C   0  0  0  0  0  0
  -28.8824  -21.3677   19.3602 C   0  0  0  0  0  0
  -28.7564  -19.7603   20.2432 C   0  0  1  0  0  0
  -28.1621  -22.8191   20.2431 C   0  0  2  0  0  0
  -31.0946  -18.6227   20.3801 C   0  0  0  0  0  0
  -29.7557  -18.0192   20.2868 N   0  0  0  0  0  0
  -31.2552  -13.9542   19.0289 H   0  0  0  0  0  0
  -30.6735  -12.9251   20.2718 H   0  0  0  0  0  0
  -30.1426  -12.0248   17.9849 H   0  0  0  0  0  0
  -29.3851  -13.5330   17.5384 H   0  0  0  0  0  0
  -28.3596  -11.4176   19.4289 H   0  0  0  0  0  0
  -27.5336  -12.1023   18.0432 H   0  0  0  0  0  0
  -27.3380  -14.2070   19.1239 H   0  0  0  0  0  0
  -28.9705  -13.2905   21.5371 H   0  0  0  0  0  0
  -27.9851  -14.7147   21.5027 H   0  0  0  0  0  0
  -25.2841   -9.5685   22.4762 H   0  0  0  0  0  0
  -24.0033   -7.4669   22.7487 H   0  0  0  0  0  0
  -21.0916   -8.8838   19.8950 H   0  0  0  0  0  0
  -22.3820  -10.9695   19.6147 H   0  0  0  0  0  0
  -21.2036   -7.6165   23.9724 H   0  0  0  0  0  0
  -21.1484   -6.0531   25.9076 H   0  0  0  0  0  0
  -22.0587   -2.7622   23.2836 H   0  0  0  0  0  0
  -22.4015  -11.9766   22.4903 H   0  0  0  0  0  0
  -21.0935  -13.1025   22.2671 H   0  0  0  0  0  0
  -24.5886  -15.8606   20.5534 H   0  0  0  0  0  0
  -26.2156  -15.6749   20.1316 H   0  0  0  0  0  0
  -26.7762  -32.4571   23.0596 H   0  0  0  0  0  0
  -24.9994  -33.9009   24.9730 H   0  0  0  0  0  0
  -22.9260  -31.1746   21.2489 H   0  0  0  0  0  0
  -23.3796  -35.9329   23.3209 H   0  0  0  0  0  0
  -24.3558  -36.8846   22.2101 H   0  0  0  0  0  0
  -23.7225  -37.6154   23.6853 H   0  0  0  0  0  0
  -26.4180  -31.0172   20.6410 H   0  0  0  0  0  0
  -27.0056  -30.4090   22.1282 H   0  0  0  0  0  0
  -28.1891  -27.9550   21.3806 H   0  0  0  0  0  0
  -25.7670  -25.3955   18.9740 H   0  0  0  0  0  0
  -24.1016  -27.1021   18.8886 H   0  0  0  0  0  0
  -24.0664  -30.3194   19.3626 H   0  0  0  0  0  0
  -22.9477  -29.0694   19.7992 H   0  0  0  0  0  0
  -25.1391  -36.1430   25.0734 H   0  0  0  0  0  0
  -21.0086  -28.3476   24.1194 H   0  0  0  0  0  0
  -20.5627  -26.2455   23.3709 H   0  0  0  0  0  0
  -21.6665  -26.7307   22.1256 H   0  0  0  0  0  0
  -19.6939  -25.6231   21.1324 H   0  0  0  0  0  0
  -19.6747  -27.3100   20.6700 H   0  0  0  0  0  0
  -17.4244  -26.6694   21.4020 H   0  0  0  0  0  0
  -18.0356  -26.0130   22.9039 H   0  0  0  0  0  0
  -19.8017  -30.7381   24.2096 H   0  0  0  0  0  0
  -17.5074  -31.6280   24.5165 H   0  0  0  0  0  0
  -15.5407  -30.2950   23.7753 H   0  0  0  0  0  0
  -15.8742  -28.0790   22.7156 H   0  0  0  0  0  0
  -24.5847  -30.7185   25.7474 H   0  0  0  0  0  0
  -24.8768  -32.3135   26.4291 H   0  0  0  0  0  0
  -25.7691  -30.9241   27.0191 H   0  0  0  0  0  0
  -26.3480  -29.6195   24.1954 H   0  0  0  0  0  0
  -27.4001  -29.7367   25.5787 H   0  0  0  0  0  0
  -27.9491  -30.3763   24.0557 H   0  0  0  0  0  0
  -27.2487  -33.3823   26.1734 H   0  0  0  0  0  0
  -28.4005  -32.6797   25.0473 H   0  0  0  0  0  0
  -28.0500  -31.8794   26.5718 H   0  0  0  0  0  0
  -28.2478  -38.0046   24.7553 H   0  0  0  0  0  0
  -28.1144  -36.2563   24.6223 H   0  0  0  0  0  0
  -27.2277  -37.1210   25.8859 H   0  0  0  0  0  0
  -20.9975  -29.8560   21.6268 H   0  0  0  0  0  0
  -26.0029  -38.2572   24.1468 H   0  0  0  0  0  0
  -29.7221  -21.5309   21.5950 H   0  0  0  0  0  0
  -28.0935  -21.2124   22.0679 H   0  0  0  0  0  0
  -28.4092  -21.2758   18.3820 H   0  0  0  0  0  0
  -29.9331  -21.5741   19.1328 H   0  0  0  0  0  0
  -27.7078  -19.4750   20.1520 H   0  0  0  0  0  0
  -27.0858  -22.6749   20.1435 H   0  0  0  0  0  0
  -31.0918  -19.7109   20.4119 H   0  0  0  0  0  0
  -31.7087  -18.3517   19.5191 H   0  0  0  0  0  0
  -31.6084  -18.3020   21.2883 H   0  0  0  0  0  0
  1 25  1  0  0  0
  1 30  2  0  0  0
  1 76  1  0  0  0
  2  3  1  0  0  0
  2 25  1  0  0  0
  2 77  1  0  0  0
  2 78  1  0  0  0
  3  4  1  0  0  0
  3 79  1  0  0  0
  3 80  1  0  0  0
  4  5  1  0  0  0
  4 81  1  0  0  0
  4 82  1  0  0  0
  5  6  1  0  0  0
  5 26  1  0  0  0
  5 83  1  0  0  0
  6 25  1  0  0  0
  6 84  1  0  0  0
  6 85  1  0  0  0
  7  8  2  0  0  0
  7 26  1  0  0  0
  7 29  1  0  0  0
  8  9  1  0  0  0
  8 22  1  0  0  0
  9 10  1  0  0  0
  9 27  2  0  0  0
 10 11  2  0  0  0
 10 15  1  0  0  0
 11 12  1  0  0  0
 11 86  1  0  0  0
 12 13  2  0  0  0
 12 87  1  0  0  0
 13 14  1  0  0  0
 13 31  1  0  0  0
 14 15  2  0  0  0
 14 88  1  0  0  0
 15 89  1  0  0  0
 16 17  2  0  0  0
 16 21  1  0  0  0
 16 31  1  0  0  0
 17 18  1  0  0  0
 17 90  1  0  0  0
 18 19  2  0  0  0
 18 91  1  0  0  0
 19 20  1  0  0  0
 19 24  1  0  0  0
 20 21  2  0  0  0
 20 92  1  0  0  0
 21 23  1  0  0  0
 22 28  1  0  0  0
 22 32  2  0  0  0
 26 27  1  0  0  0
 28 93  1  0  0  0
 28 94  1  0  0  0
 29 95  1  0  0  0
 29 96  1  0  0  0
 33 34  1  0  0  0
 33 66  1  0  0  0
 33 70  2  0  0  0
 34 36  1  0  0  0
 34 59  1  0  0  0
 34 97  1  0  0  0
 35 44  2  0  0  0
 35 45  1  0  0  0
 35 68  1  0  0  0
 36 56  1  0  0  0
 36 98  1  0  0  0
 37 39  1  0  0  0
 37 47  1  0  0  0
 37 66  1  0  0  0
 37 99  1  0  0  0
 38 43  2  0  0  0
 38 46  1  0  0  0
 38 47  1  0  0  0
 39 64  1  0  0  0
 39 67  2  0  0  0
 40 52  1  0  0  0
 40 53  2  0  0  0
 40 58  1  0  0  0
 41100  1  0  0  0
 41101  1  0  0  0
 41102  1  0  0  0
 41 48  1  0  0  0
 42 43  1  0  0  0
 42 66  1  0  0  0
 42103  1  0  0  0
 42104  1  0  0  0
 43 44  1  0  0  0
 44105  1  0  0  0
 45 46  2  0  0  0
 45106  1  0  0  0
 46107  1  0  0  0
 47108  1  0  0  0
 47109  1  0  0  0
 48 56  1  0  0  0
 48 65  1  0  0  0
 48110  1  0  0  0
 49 50  1  0  0  0
 49 53  1  0  0  0
 49 64  1  0  0  0
 49111  1  0  0  0
 50 51  1  0  0  0
 50112  1  0  0  0
 50113  1  0  0  0
 51 52  1  0  0  0
 51114  1  0  0  0
 51115  1  0  0  0
 52116  1  0  0  0
 52117  1  0  0  0
 53 54  1  0  0  0
 54 55  2  0  0  0
 54118  1  0  0  0
 55 57  1  0  0  0
 55119  1  0  0  0
 56 69  2  0  0  0
 57 58  2  0  0  0
 57120  1  0  0  0
 58121  1  0  0  0
 59 60  1  0  0  0
 59 61  1  0  0  0
 59 62  1  0  0  0
 60122  1  0  0  0
 60123  1  0  0  0
 60124  1  0  0  0
 61125  1  0  0  0
 61126  1  0  0  0
 61127  1  0  0  0
 62128  1  0  0  0
 62129  1  0  0  0
 62130  1  0  0  0
 63 65  1  0  0  0
 63131  1  0  0  0
 63132  1  0  0  0
 63133  1  0  0  0
 64134  1  0  0  0
 65135  1  0  0  0
 68 74  1  0  0  0
 71 73  1  0  0  0
 71 74  1  0  0  0
 71136  1  0  0  0
 71137  1  0  0  0
 72 73  1  0  0  0
 72 74  1  0  0  0
 72138  1  0  0  0
 72139  1  0  0  0
 73 76  1  0  0  0
 73140  1  0  0  0
 74141  1  0  0  0
 75 76  1  0  0  0
 75142  1  0  0  0
 75143  1  0  0  0
 75144  1  0  0  0
M  ISO  4   1 100  68 101  74 101  76 100
M  END
> <chiral flag>
0

> <version>
0

> <s_m_source_file>
/data/baiqing/PycharmProjects/Reinvent-master-3.2/result/LINK_invent/BTK/process_docking_weight1_custom_product_contain_oxygen_bond_distance_aromatic_linkinvent_7_9_3/rearranged_h_0017.sdf

> <i_m_source_file_index>
43

> <r_mmod_Potential_Energy-OPLS-2005>
5636.31640625

> <r_mmod_Stretch_Energy-OPLS-2005>
2225.41088867188

> <r_mmod_Bend_Energy-OPLS-2005>
1325.86865234375

> <r_mmod_Torsional_Energy-OPLS-2005>
304.636444091797

> <r_mmod_Improper_Torsional_Energy-OPLS-2005>
6.65907669067383

> <r_mmod_Van_der_Waal_Energy-OPLS-2005>
140.017501831055

> <r_mmod_Electrostatic_Energy-OPLS-2005>
-296.287536621094

> <r_mmod_Solvation_Energy-OPLS-2005>
-218.227188110352

> <b_mmod_Minimization_Converged-OPLS-2005>
0

> <r_mmod_RMS_Derivative-OPLS-2005>
0.415965050458908

$$$$
44
                    3D
 Structure written by MMmdl.
170178  0  0  1  0            999 V2000
  -30.6148  -14.7159   20.3352 C   0  0  0  0  0  0
  -30.4344  -12.3909   19.4631 C   0  0  0  0  0  0
  -29.5021  -12.3246   18.2328 C   0  0  0  0  0  0
  -28.0100  -12.2839   18.6388 C   0  0  0  0  0  0
  -27.6290  -13.2070   19.8342 C   0  0  2  0  0  0
  -28.6910  -13.1781   20.9499 C   0  0  0  0  0  0
  -25.2525  -13.8138   20.5792 C   0  0  0  0  0  0
  -24.1783  -13.0427   20.9245 C   0  0  0  0  0  0
  -24.6298  -11.6875   20.8779 C   0  0  0  0  0  0
  -23.8940  -10.4290   21.0401 C   0  0  0  0  0  0
  -24.3509   -9.4234   21.9195 C   0  0  0  0  0  0
  -23.6228   -8.2244   22.0742 C   0  0  0  0  0  0
  -22.4233   -8.0245   21.3517 C   0  0  0  0  0  0
  -21.9820   -9.0211   20.4640 C   0  0  0  0  0  0
  -22.7096  -10.2121   20.3059 C   0  0  0  0  0  0
  -21.6857   -6.0710   22.5281 C   0  0  0  0  0  0
  -21.4044   -6.5626   23.8220 C   0  0  0  0  0  0
  -21.3637   -5.6787   24.9184 C   0  0  0  0  0  0
  -21.6010   -4.3041   24.7247 C   0  0  0  0  0  0
  -21.8828   -3.8130   23.4380 C   0  0  0  0  0  0
  -21.9203   -4.6937   22.3429 C   0  0  0  0  0  0
  -22.7804  -13.5243   21.1848 C   0  0  0  0  0  0
  -22.1656   -4.2108   21.1007 F   0  0  0  0  0  0
  -21.5597   -3.4526   25.7760 F   0  0  0  0  0  0
  -29.9794  -13.4979   20.3253 N   0  0  0  0  0  0
  -26.2897  -12.9265   20.3339 N   0  0  0  0  0  0
  -25.9232  -11.6445   20.5845 N   0  0  0  0  0  0
  -22.0381  -12.8325   22.0397 N   0  0  0  0  0  0
  -25.4295  -15.1874   20.4262 N   0  0  0  0  0  0
  -31.8461  -14.7692   20.2777 O   0  0  0  0  0  0
  -21.6629   -6.8821   21.4220 O   0  0  0  0  0  0
  -22.3531  -14.5533   20.6612 O   0  0  0  0  0  0
  -24.6263  -31.8619   23.2016 C   0  0  0  0  0  0
  -25.9091  -32.4817   23.8368 C   0  0  1  0  0  0
  -27.2292  -27.3137   20.1145 C   0  0  0  0  0  0
  -25.5922  -33.8621   24.2319 N   0  0  0  0  0  0
  -23.4236  -30.4866   21.5404 C   0  0  2  0  0  0
  -24.8687  -28.9381   20.1068 C   0  0  0  0  0  0
  -22.7506  -29.4648   22.4868 C   0  0  0  0  0  0
  -18.0287  -28.1415   22.8485 C   0  0  0  0  0  0
  -24.1486  -36.7291   23.2648 C   0  0  0  0  0  0
  -25.9638  -30.7859   21.3770 C   0  0  0  0  0  0
  -26.0340  -29.4123   20.7209 C   0  0  0  0  0  0
  -27.2114  -28.6082   20.7192 C   0  0  0  0  0  0
  -26.0436  -26.9012   19.4629 C   0  0  0  0  0  0
  -24.8757  -27.6873   19.4717 C   0  0  0  0  0  0
  -23.6431  -29.8271   20.1529 C   0  0  0  0  0  0
  -25.4111  -36.3121   24.0356 C   0  0  1  0  0  0
  -20.5902  -28.3736   23.1265 C   0  0  2  0  0  0
  -20.6788  -26.9453   22.5405 C   0  0  0  0  0  0
  -19.5759  -26.6387   21.5233 C   0  0  0  0  0  0
  -18.1925  -26.7954   22.1623 C   0  0  0  0  0  0
  -19.1551  -28.8878   23.2883 C   0  0  0  0  0  0
  -18.9484  -30.1462   23.8929 C   0  0  0  0  0  0
  -17.6493  -30.6618   24.0571 C   0  0  0  0  0  0
  -25.9048  -34.9486   23.5138 C   0  0  0  0  0  0
  -16.5373  -29.9139   23.6312 C   0  0  0  0  0  0
  -16.7282  -28.6537   23.0360 C   0  0  0  0  0  0
  -26.4481  -31.6617   25.0728 C   0  0  0  0  0  0
  -25.3753  -31.3726   26.1492 C   0  0  0  0  0  0
  -27.0304  -30.3057   24.6122 C   0  0  0  0  0  0
  -27.6068  -32.4338   25.7482 C   0  0  0  0  0  0
  -27.5584  -37.1818   24.8487 C   0  0  0  0  0  0
  -21.4200  -29.3104   22.3650 N   0  0  0  0  0  0
  -26.4287  -37.3818   23.9447 N   0  0  0  0  0  0
  -24.6893  -31.0643   22.0952 N   0  0  0  0  0  0
  -23.4231  -28.8135   23.2921 O   0  0  0  0  0  0
  -28.3732  -26.4983   20.1848 O   0  0  0  0  0  0
  -26.5620  -34.8944   22.4701 O   0  0  0  0  0  0
  -23.5420  -32.1385   23.7339 O   0  0  0  0  0  0
  -30.0268  -19.6005   19.6472 C   0  0  0  0  0  0
  -30.3696  -18.2352   19.4406 C   0  0  0  0  0  0
  -28.7853  -18.9621   21.5897 C   0  0  0  0  0  0
  -29.1902  -20.0165   20.7147 C   0  0  0  0  0  0
  -29.8507  -17.1712   20.2390 C   0  0  0  0  0  0
  -29.0863  -17.5812   21.3589 C   0  0  0  0  0  0
  -26.4756  -22.5646   22.8022 C   0  0  0  0  0  0
  -31.1643  -22.2925   22.4292 C   0  0  0  0  0  0
  -29.7408  -15.6583   18.3129 C   0  0  0  0  0  0
  -26.3504  -21.3872   21.8212 C   0  0  0  0  0  0
  -31.0128  -22.4179   20.9053 C   0  0  0  0  0  0
  -29.0435  -24.0506   20.8548 C   0  0  0  0  0  0
  -27.2811  -21.4666   20.5882 C   0  0  0  0  0  0
  -28.3734  -25.0564   19.8211 C   0  0  0  0  0  0
  -29.5412  -22.5703   20.4262 C   0  0  2  0  0  0
  -29.9044  -15.7725   19.7781 N   0  0  0  0  0  0
  -28.7227  -21.3816   20.8758 N   0  0  0  0  0  0
  -28.5727  -16.6383   22.1851 F   0  0  0  0  0  0
  -31.4715  -12.5106   19.1478 H   0  0  0  0  0  0
  -30.3978  -11.4525   20.0172 H   0  0  0  0  0  0
  -29.7296  -11.4170   17.6701 H   0  0  0  0  0  0
  -29.7083  -13.1245   17.5290 H   0  0  0  0  0  0
  -27.8029  -11.2474   18.9062 H   0  0  0  0  0  0
  -27.3727  -12.4904   17.7776 H   0  0  0  0  0  0
  -27.5906  -14.2224   19.4532 H   0  0  0  0  0  0
  -28.7300  -12.2018   21.4330 H   0  0  0  0  0  0
  -28.4502  -13.9026   21.7276 H   0  0  0  0  0  0
  -25.2616   -9.5760   22.4825 H   0  0  0  0  0  0
  -23.9929   -7.4640   22.7468 H   0  0  0  0  0  0
  -21.0737   -8.8681   19.8976 H   0  0  0  0  0  0
  -22.3455  -10.9655   19.6212 H   0  0  0  0  0  0
  -21.2083   -7.6140   23.9708 H   0  0  0  0  0  0
  -21.1413   -6.0530   25.9076 H   0  0  0  0  0  0
  -22.0630   -2.7587   23.2911 H   0  0  0  0  0  0
  -22.3876  -11.9981   22.4873 H   0  0  0  0  0  0
  -21.0999  -13.1427   22.2478 H   0  0  0  0  0  0
  -24.6773  -15.8547   20.5590 H   0  0  0  0  0  0
  -26.3126  -15.6264   20.1988 H   0  0  0  0  0  0
  -26.7135  -32.5471   23.1093 H   0  0  0  0  0  0
  -25.0154  -33.9778   25.0522 H   0  0  0  0  0  0
  -22.7202  -31.3089   21.3951 H   0  0  0  0  0  0
  -23.3780  -35.9592   23.3322 H   0  0  0  0  0  0
  -24.3571  -36.8903   22.2063 H   0  0  0  0  0  0
  -23.7188  -37.6482   23.6622 H   0  0  0  0  0  0
  -26.1081  -31.5485   20.6109 H   0  0  0  0  0  0
  -26.8422  -30.8354   22.0061 H   0  0  0  0  0  0
  -28.1010  -28.9659   21.2158 H   0  0  0  0  0  0
  -25.9799  -25.9658   18.9310 H   0  0  0  0  0  0
  -23.9866  -27.3196   18.9798 H   0  0  0  0  0  0
  -23.7813  -30.6099   19.4078 H   0  0  0  0  0  0
  -22.7593  -29.2755   19.8284 H   0  0  0  0  0  0
  -25.1273  -36.1984   25.0845 H   0  0  0  0  0  0
  -21.0016  -28.3307   24.1389 H   0  0  0  0  0  0
  -20.5732  -26.2348   23.3619 H   0  0  0  0  0  0
  -21.6643  -26.7501   22.1177 H   0  0  0  0  0  0
  -19.6925  -25.6291   21.1283 H   0  0  0  0  0  0
  -19.6678  -27.3173   20.6750 H   0  0  0  0  0  0
  -17.4204  -26.6733   21.4003 H   0  0  0  0  0  0
  -18.0286  -26.0102   22.9022 H   0  0  0  0  0  0
  -19.7965  -30.7251   24.2336 H   0  0  0  0  0  0
  -17.5063  -31.6295   24.5187 H   0  0  0  0  0  0
  -15.5387  -30.3083   23.7608 H   0  0  0  0  0  0
  -15.8662  -28.0865   22.7108 H   0  0  0  0  0  0
  -24.5933  -30.7054   25.7845 H   0  0  0  0  0  0
  -24.8930  -32.2878   26.4944 H   0  0  0  0  0  0
  -25.8137  -30.8905   27.0251 H   0  0  0  0  0  0
  -26.2828  -29.6832   24.1200 H   0  0  0  0  0  0
  -27.4133  -29.7266   25.4540 H   0  0  0  0  0  0
  -27.8640  -30.4406   23.9236 H   0  0  0  0  0  0
  -27.2718  -33.3683   26.1991 H   0  0  0  0  0  0
  -28.3886  -32.6861   25.0302 H   0  0  0  0  0  0
  -28.0699  -31.8501   26.5456 H   0  0  0  0  0  0
  -28.2626  -38.0102   24.7556 H   0  0  0  0  0  0
  -28.1061  -36.2643   24.6265 H   0  0  0  0  0  0
  -27.2314  -37.1437   25.8898 H   0  0  0  0  0  0
  -20.9332  -29.8946   21.6973 H   0  0  0  0  0  0
  -26.0184  -38.2895   24.1458 H   0  0  0  0  0  0
  -30.3897  -20.3222   18.9301 H   0  0  0  0  0  0
  -30.9872  -18.0127   18.5830 H   0  0  0  0  0  0
  -28.1881  -19.1979   22.4557 H   0  0  0  0  0  0
  -26.2330  -23.5083   22.3102 H   0  0  0  0  0  0
  -27.4820  -22.6283   23.2172 H   0  0  0  0  0  0
  -25.7943  -22.4640   23.6475 H   0  0  0  0  0  0
  -32.2149  -22.2986   22.7186 H   0  0  0  0  0  0
  -30.7264  -21.3620   22.7948 H   0  0  0  0  0  0
  -30.6727  -23.1121   22.9518 H   0  0  0  0  0  0
  -30.6500  -15.3019   17.8240 H   0  0  0  0  0  0
  -29.4558  -16.5855   17.8206 H   0  0  0  0  0  0
  -28.9287  -14.9943   18.0487 H   0  0  0  0  0  0
  -25.3248  -21.3690   21.4493 H   0  0  0  0  0  0
  -26.4715  -20.4495   22.3591 H   0  0  0  0  0  0
  -31.5046  -21.5672   20.4423 H   0  0  0  0  0  0
  -31.5904  -23.2757   20.5566 H   0  0  0  0  0  0
  -28.4349  -23.9972   21.7495 H   0  0  0  0  0  0
  -29.9172  -24.6021   21.2034 H   0  0  0  0  0  0
  -27.0628  -22.3876   20.0488 H   0  0  0  0  0  0
  -27.0044  -20.6682   19.8956 H   0  0  0  0  0  0
  -27.3845  -24.6647   19.6091 H   0  0  0  0  0  0
  -28.9160  -24.9915   18.8779 H   0  0  0  0  0  0
  -29.5722  -22.5454   19.3350 H   0  0  0  0  0  0
  1 25  1  0  0  0
  1 30  2  0  0  0
  1 86  1  0  0  0
  2  3  1  0  0  0
  2 25  1  0  0  0
  2 89  1  0  0  0
  2 90  1  0  0  0
  3  4  1  0  0  0
  3 91  1  0  0  0
  3 92  1  0  0  0
  4  5  1  0  0  0
  4 93  1  0  0  0
  4 94  1  0  0  0
  5  6  1  0  0  0
  5 26  1  0  0  0
  5 95  1  0  0  0
  6 25  1  0  0  0
  6 96  1  0  0  0
  6 97  1  0  0  0
  7  8  2  0  0  0
  7 26  1  0  0  0
  7 29  1  0  0  0
  8  9  1  0  0  0
  8 22  1  0  0  0
  9 10  1  0  0  0
  9 27  2  0  0  0
 10 11  2  0  0  0
 10 15  1  0  0  0
 11 12  1  0  0  0
 11 98  1  0  0  0
 12 13  2  0  0  0
 12 99  1  0  0  0
 13 14  1  0  0  0
 13 31  1  0  0  0
 14 15  2  0  0  0
 14100  1  0  0  0
 15101  1  0  0  0
 16 17  2  0  0  0
 16 21  1  0  0  0
 16 31  1  0  0  0
 17 18  1  0  0  0
 17102  1  0  0  0
 18 19  2  0  0  0
 18103  1  0  0  0
 19 20  1  0  0  0
 19 24  1  0  0  0
 20 21  2  0  0  0
 20104  1  0  0  0
 21 23  1  0  0  0
 22 28  1  0  0  0
 22 32  2  0  0  0
 26 27  1  0  0  0
 28105  1  0  0  0
 28106  1  0  0  0
 29107  1  0  0  0
 29108  1  0  0  0
 33 34  1  0  0  0
 33 66  1  0  0  0
 33 70  2  0  0  0
 34 36  1  0  0  0
 34 59  1  0  0  0
 34109  1  0  0  0
 35 44  2  0  0  0
 35 45  1  0  0  0
 35 68  1  0  0  0
 36 56  1  0  0  0
 36110  1  0  0  0
 37 39  1  0  0  0
 37 47  1  0  0  0
 37 66  1  0  0  0
 37111  1  0  0  0
 38 43  2  0  0  0
 38 46  1  0  0  0
 38 47  1  0  0  0
 39 64  1  0  0  0
 39 67  2  0  0  0
 40 52  1  0  0  0
 40 53  2  0  0  0
 40 58  1  0  0  0
 41112  1  0  0  0
 41113  1  0  0  0
 41114  1  0  0  0
 41 48  1  0  0  0
 42 43  1  0  0  0
 42 66  1  0  0  0
 42115  1  0  0  0
 42116  1  0  0  0
 43 44  1  0  0  0
 44117  1  0  0  0
 45 46  2  0  0  0
 45118  1  0  0  0
 46119  1  0  0  0
 47120  1  0  0  0
 47121  1  0  0  0
 48 56  1  0  0  0
 48 65  1  0  0  0
 48122  1  0  0  0
 49 50  1  0  0  0
 49 53  1  0  0  0
 49 64  1  0  0  0
 49123  1  0  0  0
 50 51  1  0  0  0
 50124  1  0  0  0
 50125  1  0  0  0
 51 52  1  0  0  0
 51126  1  0  0  0
 51127  1  0  0  0
 52128  1  0  0  0
 52129  1  0  0  0
 53 54  1  0  0  0
 54 55  2  0  0  0
 54130  1  0  0  0
 55 57  1  0  0  0
 55131  1  0  0  0
 56 69  2  0  0  0
 57 58  2  0  0  0
 57132  1  0  0  0
 58133  1  0  0  0
 59 60  1  0  0  0
 59 61  1  0  0  0
 59 62  1  0  0  0
 60134  1  0  0  0
 60135  1  0  0  0
 60136  1  0  0  0
 61137  1  0  0  0
 61138  1  0  0  0
 61139  1  0  0  0
 62140  1  0  0  0
 62141  1  0  0  0
 62142  1  0  0  0
 63 65  1  0  0  0
 63143  1  0  0  0
 63144  1  0  0  0
 63145  1  0  0  0
 64146  1  0  0  0
 65147  1  0  0  0
 68 84  1  0  0  0
 71 72  2  0  0  0
 71 74  1  0  0  0
 71148  1  0  0  0
 72 75  1  0  0  0
 72149  1  0  0  0
 73 74  2  0  0  0
 73 76  1  0  0  0
 73150  1  0  0  0
 74 87  1  0  0  0
 75 76  2  0  0  0
 75 86  1  0  0  0
 76 88  1  0  0  0
 77 80  1  0  0  0
 77151  1  0  0  0
 77152  1  0  0  0
 77153  1  0  0  0
 78 81  1  0  0  0
 78154  1  0  0  0
 78155  1  0  0  0
 78156  1  0  0  0
 79 86  1  0  0  0
 79157  1  0  0  0
 79158  1  0  0  0
 79159  1  0  0  0
 80 83  1  0  0  0
 80160  1  0  0  0
 80161  1  0  0  0
 81162  1  0  0  0
 81163  1  0  0  0
 81 85  1  0  0  0
 82 84  1  0  0  0
 82 85  1  0  0  0
 82164  1  0  0  0
 82165  1  0  0  0
 83 87  1  0  0  0
 83166  1  0  0  0
 83167  1  0  0  0
 84168  1  0  0  0
 84169  1  0  0  0
 85 87  1  0  0  0
 85170  1  0  0  0
M  ISO  4   1 100  68 101  84 101  86 100
M  END
> <chiral flag>
0

> <version>
0

> <s_m_source_file>
/data/baiqing/PycharmProjects/Reinvent-master-3.2/result/LINK_invent/BTK/process_docking_weight1_custom_product_contain_oxygen_bond_distance_aromatic_linkinvent_7_9_3/rearranged_h_0017.sdf

> <i_m_source_file_index>
44

> <r_mmod_Potential_Energy-OPLS-2005>
367.888244628906

> <r_mmod_Stretch_Energy-OPLS-2005>
97.5531539916992

> <r_mmod_Bend_Energy-OPLS-2005>
171.507751464844

> <r_mmod_Torsional_Energy-OPLS-2005>
377.000885009766

> <r_mmod_Improper_Torsional_Energy-OPLS-2005>
29.5187892913818

> <r_mmod_Van_der_Waal_Energy-OPLS-2005>
159.415420532227

> <r_mmod_Electrostatic_Energy-OPLS-2005>
-365.786010742188

> <r_mmod_Solvation_Energy-OPLS-2005>
-183.52311706543

> <b_mmod_Minimization_Converged-OPLS-2005>
0

> <r_mmod_RMS_Derivative-OPLS-2005>
4.42398405075073

$$$$
45
                    3D
 Structure written by MMmdl.
161169  0  0  1  0            999 V2000
  -30.6541  -14.6170   20.5968 C   0  0  0  0  0  0
  -30.4296  -12.4083   19.4465 C   0  0  0  0  0  0
  -29.5031  -12.5376   18.2181 C   0  0  0  0  0  0
  -28.0256  -12.3642   18.6230 C   0  0  0  0  0  0
  -27.6514  -13.2170   19.8639 C   0  0  2  0  0  0
  -28.6881  -13.0352   20.9870 C   0  0  0  0  0  0
  -25.2544  -13.8174   20.5662 C   0  0  0  0  0  0
  -24.1823  -13.0436   20.9179 C   0  0  0  0  0  0
  -24.6389  -11.6909   20.8734 C   0  0  0  0  0  0
  -23.9064  -10.4293   21.0410 C   0  0  0  0  0  0
  -24.3629   -9.4214   21.9187 C   0  0  0  0  0  0
  -23.6309   -8.2248   22.0753 C   0  0  0  0  0  0
  -22.4290   -8.0281   21.3547 C   0  0  0  0  0  0
  -21.9922   -9.0250   20.4643 C   0  0  0  0  0  0
  -22.7238  -10.2135   20.3061 C   0  0  0  0  0  0
  -21.6862   -6.0747   22.5289 C   0  0  0  0  0  0
  -21.4011   -6.5643   23.8222 C   0  0  0  0  0  0
  -21.3662   -5.6790   24.9181 C   0  0  0  0  0  0
  -21.6065   -4.3059   24.7224 C   0  0  0  0  0  0
  -21.8826   -3.8152   23.4338 C   0  0  0  0  0  0
  -21.9188   -4.6975   22.3401 C   0  0  0  0  0  0
  -22.7842  -13.5239   21.1857 C   0  0  0  0  0  0
  -22.1652   -4.2161   21.0980 F   0  0  0  0  0  0
  -21.5631   -3.4535   25.7732 F   0  0  0  0  0  0
  -30.0056  -13.4107   20.4497 N   0  0  0  0  0  0
  -26.2971  -12.9356   20.3293 N   0  0  0  0  0  0
  -25.9314  -11.6511   20.5723 N   0  0  0  0  0  0
  -22.0494  -12.8217   22.0415 N   0  0  0  0  0  0
  -25.4266  -15.1893   20.4071 N   0  0  0  0  0  0
  -31.7627  -14.7894   20.0774 O   0  0  0  0  0  0
  -21.6655   -6.8883   21.4250 O   0  0  0  0  0  0
  -22.3521  -14.5535   20.6707 O   0  0  0  0  0  0
  -24.6289  -31.8590   23.2025 C   0  0  0  0  0  0
  -25.9130  -32.4770   23.8357 C   0  0  1  0  0  0
  -27.2198  -27.3079   20.1041 C   0  0  0  0  0  0
  -25.5943  -33.8571   24.2290 N   0  0  0  0  0  0
  -23.4227  -30.4853   21.5458 C   0  0  2  0  0  0
  -24.8652  -28.9416   20.1096 C   0  0  0  0  0  0
  -22.7485  -29.4629   22.4924 C   0  0  0  0  0  0
  -18.0293  -28.1381   22.8486 C   0  0  0  0  0  0
  -24.1491  -36.7295   23.2635 C   0  0  0  0  0  0
  -25.9661  -30.7837   21.3772 C   0  0  0  0  0  0
  -26.0375  -29.4119   20.7156 C   0  0  0  0  0  0
  -27.2162  -28.6058   20.7068 C   0  0  0  0  0  0
  -26.0220  -26.8981   19.4716 C   0  0  0  0  0  0
  -24.8609  -27.6896   19.4799 C   0  0  0  0  0  0
  -23.6366  -29.8255   20.1598 C   0  0  0  0  0  0
  -25.4116  -36.3077   24.0329 C   0  0  1  0  0  0
  -20.5892  -28.3692   23.1269 C   0  0  2  0  0  0
  -20.6778  -26.9409   22.5401 C   0  0  0  0  0  0
  -19.5748  -26.6380   21.5212 C   0  0  0  0  0  0
  -18.1935  -26.7926   22.1627 C   0  0  0  0  0  0
  -19.1543  -28.8856   23.2873 C   0  0  0  0  0  0
  -18.9466  -30.1460   23.8888 C   0  0  0  0  0  0
  -17.6464  -30.6576   24.0571 C   0  0  0  0  0  0
  -25.9057  -34.9444   23.5107 C   0  0  0  0  0  0
  -16.5360  -29.9077   23.6322 C   0  0  0  0  0  0
  -16.7285  -28.6496   23.0347 C   0  0  0  0  0  0
  -26.4504  -31.6579   25.0733 C   0  0  0  0  0  0
  -25.3743  -31.3719   26.1466 C   0  0  0  0  0  0
  -27.0349  -30.3000   24.6198 C   0  0  0  0  0  0
  -27.6062  -32.4314   25.7507 C   0  0  0  0  0  0
  -27.5583  -37.1801   24.8460 C   0  0  0  0  0  0
  -21.4196  -29.3051   22.3666 N   0  0  0  0  0  0
  -26.4292  -37.3775   23.9407 N   0  0  0  0  0  0
  -24.6917  -31.0594   22.0981 N   0  0  0  0  0  0
  -23.4205  -28.8161   23.3004 O   0  0  0  0  0  0
  -28.3292  -26.4424   20.1480 O   0  0  0  0  0  0
  -26.5617  -34.8915   22.4670 O   0  0  0  0  0  0
  -23.5452  -32.1397   23.7344 O   0  0  0  0  0  0
  -28.7717  -17.7781   20.6940 C   0  0  0  0  0  0
  -31.1696  -17.8182   20.7589 C   0  0  0  0  0  0
  -28.7441  -19.1921   20.4558 C   0  0  0  0  0  0
  -31.1379  -19.2198   20.5223 C   0  0  0  0  0  0
  -29.9872  -17.0465   20.8528 C   0  0  0  0  0  0
  -29.9341  -19.9657   20.3511 C   0  0  0  0  0  0
  -28.6656  -15.9406   23.3994 C   0  0  0  0  0  0
  -31.0928  -21.7194   19.1529 C   0  0  0  0  0  0
  -29.2038  -23.9094   20.2626 C   0  0  0  0  0  0
  -29.9866  -15.4772   22.7525 C   0  0  0  0  0  0
  -28.8452  -22.3533   20.0451 C   0  0  0  0  0  0
  -28.0922  -24.9926   19.9128 C   0  0  0  0  0  0
  -30.0206  -15.6400   21.2844 N   0  0  0  0  0  0
  -29.9927  -21.3838   20.0624 N   0  0  0  0  0  0
  -31.4699  -12.5374   19.1450 H   0  0  0  0  0  0
  -30.3659  -11.4034   19.8635 H   0  0  0  0  0  0
  -29.7739  -11.8004   17.4611 H   0  0  0  0  0  0
  -29.6417  -13.5155   17.7550 H   0  0  0  0  0  0
  -27.8573  -11.3067   18.8309 H   0  0  0  0  0  0
  -27.3757  -12.6153   17.7846 H   0  0  0  0  0  0
  -27.6840  -14.2623   19.5559 H   0  0  0  0  0  0
  -28.7038  -11.9964   21.3236 H   0  0  0  0  0  0
  -28.3950  -13.6134   21.8575 H   0  0  0  0  0  0
  -25.2786   -9.5689   22.4739 H   0  0  0  0  0  0
  -24.0039   -7.4639   22.7465 H   0  0  0  0  0  0
  -21.0856   -8.8769   19.8937 H   0  0  0  0  0  0
  -22.3711  -10.9678   19.6161 H   0  0  0  0  0  0
  -21.2004   -7.6151   23.9725 H   0  0  0  0  0  0
  -21.1480   -6.0520   25.9084 H   0  0  0  0  0  0
  -22.0601   -2.7610   23.2845 H   0  0  0  0  0  0
  -22.4104  -11.9893   22.4831 H   0  0  0  0  0  0
  -21.1106  -13.1229   22.2604 H   0  0  0  0  0  0
  -24.6622  -15.8458   20.5141 H   0  0  0  0  0  0
  -26.2811  -15.6214   20.0813 H   0  0  0  0  0  0
  -26.7206  -32.5425   23.1111 H   0  0  0  0  0  0
  -25.0111  -33.9712   25.0452 H   0  0  0  0  0  0
  -22.7181  -31.3070   21.4045 H   0  0  0  0  0  0
  -23.3745  -35.9633   23.3299 H   0  0  0  0  0  0
  -24.3589  -36.8914   22.2048 H   0  0  0  0  0  0
  -23.7250  -37.6504   23.6657 H   0  0  0  0  0  0
  -26.1037  -31.5467   20.6102 H   0  0  0  0  0  0
  -26.8448  -30.8286   22.0090 H   0  0  0  0  0  0
  -28.1132  -28.9604   21.1954 H   0  0  0  0  0  0
  -25.9472  -25.9466   18.9680 H   0  0  0  0  0  0
  -23.9652  -27.3236   18.9971 H   0  0  0  0  0  0
  -23.7614  -30.6059   19.4074 H   0  0  0  0  0  0
  -22.7548  -29.2605   19.8517 H   0  0  0  0  0  0
  -25.1294  -36.1933   25.0822 H   0  0  0  0  0  0
  -20.9996  -28.3270   24.1383 H   0  0  0  0  0  0
  -20.5683  -26.2309   23.3609 H   0  0  0  0  0  0
  -21.6649  -26.7430   22.1192 H   0  0  0  0  0  0
  -19.6908  -25.6289   21.1240 H   0  0  0  0  0  0
  -19.6679  -27.3193   20.6743 H   0  0  0  0  0  0
  -17.4198  -26.6682   21.4029 H   0  0  0  0  0  0
  -18.0329  -26.0066   22.9022 H   0  0  0  0  0  0
  -19.7941  -30.7289   24.2247 H   0  0  0  0  0  0
  -17.5014  -31.6250   24.5176 H   0  0  0  0  0  0
  -15.5363  -30.2982   23.7641 H   0  0  0  0  0  0
  -15.8689  -28.0824   22.7055 H   0  0  0  0  0  0
  -24.5917  -30.7065   25.7804 H   0  0  0  0  0  0
  -24.8943  -32.2886   26.4901 H   0  0  0  0  0  0
  -25.8080  -30.8896   27.0234 H   0  0  0  0  0  0
  -26.2926  -29.6745   24.1227 H   0  0  0  0  0  0
  -27.4044  -29.7260   25.4704 H   0  0  0  0  0  0
  -27.8797  -30.4278   23.9429 H   0  0  0  0  0  0
  -27.2669  -33.3610   26.2089 H   0  0  0  0  0  0
  -28.3876  -32.6877   25.0342 H   0  0  0  0  0  0
  -28.0727  -31.8438   26.5424 H   0  0  0  0  0  0
  -28.2582  -38.0114   24.7520 H   0  0  0  0  0  0
  -28.1097  -36.2646   24.6267 H   0  0  0  0  0  0
  -27.2303  -37.1421   25.8862 H   0  0  0  0  0  0
  -20.9374  -29.8821   21.6916 H   0  0  0  0  0  0
  -26.0170  -38.2847   24.1419 H   0  0  0  0  0  0
  -27.8287  -17.2585   20.7960 H   0  0  0  0  0  0
  -32.1284  -17.3419   20.9058 H   0  0  0  0  0  0
  -27.7841  -19.6754   20.3513 H   0  0  0  0  0  0
  -32.0917  -19.7248   20.4851 H   0  0  0  0  0  0
  -28.6602  -15.7071   24.4649 H   0  0  0  0  0  0
  -27.7953  -15.4543   22.9588 H   0  0  0  0  0  0
  -28.5234  -17.0184   23.3153 H   0  0  0  0  0  0
  -31.3901  -20.8731   18.5308 H   0  0  0  0  0  0
  -31.9662  -22.0514   19.7157 H   0  0  0  0  0  0
  -30.8177  -22.5128   18.4572 H   0  0  0  0  0  0
  -30.0817  -24.1731   19.6745 H   0  0  0  0  0  0
  -29.5039  -24.0474   21.3014 H   0  0  0  0  0  0
  -30.1796  -14.4446   23.0529 H   0  0  0  0  0  0
  -30.8120  -16.0501   23.1790 H   0  0  0  0  0  0
  -28.3477  -22.2431   19.0787 H   0  0  0  0  0  0
  -28.1059  -22.0530   20.7902 H   0  0  0  0  0  0
  -27.1924  -24.6979   20.4553 H   0  0  0  0  0  0
  -27.8684  -24.8688   18.8517 H   0  0  0  0  0  0
  1 25  1  0  0  0
  1 30  2  0  0  0
  1 83  1  0  0  0
  2  3  1  0  0  0
  2 25  1  0  0  0
  2 85  1  0  0  0
  2 86  1  0  0  0
  3  4  1  0  0  0
  3 87  1  0  0  0
  3 88  1  0  0  0
  4  5  1  0  0  0
  4 89  1  0  0  0
  4 90  1  0  0  0
  5  6  1  0  0  0
  5 26  1  0  0  0
  5 91  1  0  0  0
  6 25  1  0  0  0
  6 92  1  0  0  0
  6 93  1  0  0  0
  7  8  2  0  0  0
  7 26  1  0  0  0
  7 29  1  0  0  0
  8  9  1  0  0  0
  8 22  1  0  0  0
  9 10  1  0  0  0
  9 27  2  0  0  0
 10 11  2  0  0  0
 10 15  1  0  0  0
 11 12  1  0  0  0
 11 94  1  0  0  0
 12 13  2  0  0  0
 12 95  1  0  0  0
 13 14  1  0  0  0
 13 31  1  0  0  0
 14 15  2  0  0  0
 14 96  1  0  0  0
 15 97  1  0  0  0
 16 17  2  0  0  0
 16 21  1  0  0  0
 16 31  1  0  0  0
 17 18  1  0  0  0
 17 98  1  0  0  0
 18 19  2  0  0  0
 18 99  1  0  0  0
 19 20  1  0  0  0
 19 24  1  0  0  0
 20 21  2  0  0  0
 20100  1  0  0  0
 21 23  1  0  0  0
 22 28  1  0  0  0
 22 32  2  0  0  0
 26 27  1  0  0  0
 28101  1  0  0  0
 28102  1  0  0  0
 29103  1  0  0  0
 29104  1  0  0  0
 33 34  1  0  0  0
 33 66  1  0  0  0
 33 70  2  0  0  0
 34 36  1  0  0  0
 34 59  1  0  0  0
 34105  1  0  0  0
 35 44  2  0  0  0
 35 45  1  0  0  0
 35 68  1  0  0  0
 36 56  1  0  0  0
 36106  1  0  0  0
 37 39  1  0  0  0
 37 47  1  0  0  0
 37 66  1  0  0  0
 37107  1  0  0  0
 38 43  2  0  0  0
 38 46  1  0  0  0
 38 47  1  0  0  0
 39 64  1  0  0  0
 39 67  2  0  0  0
 40 52  1  0  0  0
 40 53  2  0  0  0
 40 58  1  0  0  0
 41108  1  0  0  0
 41109  1  0  0  0
 41110  1  0  0  0
 41 48  1  0  0  0
 42 43  1  0  0  0
 42 66  1  0  0  0
 42111  1  0  0  0
 42112  1  0  0  0
 43 44  1  0  0  0
 44113  1  0  0  0
 45 46  2  0  0  0
 45114  1  0  0  0
 46115  1  0  0  0
 47116  1  0  0  0
 47117  1  0  0  0
 48 56  1  0  0  0
 48 65  1  0  0  0
 48118  1  0  0  0
 49 50  1  0  0  0
 49 53  1  0  0  0
 49 64  1  0  0  0
 49119  1  0  0  0
 50 51  1  0  0  0
 50120  1  0  0  0
 50121  1  0  0  0
 51 52  1  0  0  0
 51122  1  0  0  0
 51123  1  0  0  0
 52124  1  0  0  0
 52125  1  0  0  0
 53 54  1  0  0  0
 54 55  2  0  0  0
 54126  1  0  0  0
 55 57  1  0  0  0
 55127  1  0  0  0
 56 69  2  0  0  0
 57 58  2  0  0  0
 57128  1  0  0  0
 58129  1  0  0  0
 59 60  1  0  0  0
 59 61  1  0  0  0
 59 62  1  0  0  0
 60130  1  0  0  0
 60131  1  0  0  0
 60132  1  0  0  0
 61133  1  0  0  0
 61134  1  0  0  0
 61135  1  0  0  0
 62136  1  0  0  0
 62137  1  0  0  0
 62138  1  0  0  0
 63 65  1  0  0  0
 63139  1  0  0  0
 63140  1  0  0  0
 63141  1  0  0  0
 64142  1  0  0  0
 65143  1  0  0  0
 68 82  1  0  0  0
 71 73  2  0  0  0
 71 75  1  0  0  0
 71144  1  0  0  0
 72 74  1  0  0  0
 72 75  2  0  0  0
 72145  1  0  0  0
 73 76  1  0  0  0
 73146  1  0  0  0
 74 76  2  0  0  0
 74147  1  0  0  0
 75 83  1  0  0  0
 76 84  1  0  0  0
 77 80  1  0  0  0
 77148  1  0  0  0
 77149  1  0  0  0
 77150  1  0  0  0
 78 84  1  0  0  0
 78151  1  0  0  0
 78152  1  0  0  0
 78153  1  0  0  0
 79 81  1  0  0  0
 79 82  1  0  0  0
 79154  1  0  0  0
 79155  1  0  0  0
 80 83  1  0  0  0
 80156  1  0  0  0
 80157  1  0  0  0
 81 84  1  0  0  0
 81158  1  0  0  0
 81159  1  0  0  0
 82160  1  0  0  0
 82161  1  0  0  0
M  ISO  4   1 100  68 101  82 101  83 100
M  END
> <chiral flag>
0

> <version>
0

> <s_m_source_file>
/data/baiqing/PycharmProjects/Reinvent-master-3.2/result/LINK_invent/BTK/process_docking_weight1_custom_product_contain_oxygen_bond_distance_aromatic_linkinvent_7_9_3/rearranged_h_0017.sdf

> <i_m_source_file_index>
45

> <r_mmod_Potential_Energy-OPLS-2005>
263.116394042969

> <r_mmod_Stretch_Energy-OPLS-2005>
92.0604858398438

> <r_mmod_Bend_Energy-OPLS-2005>
153.380905151367

> <r_mmod_Torsional_Energy-OPLS-2005>
300.394195556641

> <r_mmod_Improper_Torsional_Energy-OPLS-2005>
7.09427928924561

> <r_mmod_Van_der_Waal_Energy-OPLS-2005>
156.688323974609

> <r_mmod_Electrostatic_Energy-OPLS-2005>
-285.17529296875

> <r_mmod_Solvation_Energy-OPLS-2005>
-207.144958496094

> <b_mmod_Minimization_Converged-OPLS-2005>
0

> <r_mmod_RMS_Derivative-OPLS-2005>
2.01597380638123

$$$$
46
                    3D
 Structure written by MMmdl.
159168  0  0  1  0            999 V2000
  -30.6356  -14.7017   20.3447 C   0  0  0  0  0  0
  -30.4411  -12.3836   19.4675 C   0  0  0  0  0  0
  -29.5019  -12.3244   18.2395 C   0  0  0  0  0  0
  -28.0167  -12.2784   18.6541 C   0  0  0  0  0  0
  -27.6396  -13.2132   19.8385 C   0  0  2  0  0  0
  -28.7002  -13.1824   20.9584 C   0  0  0  0  0  0
  -25.2545  -13.8174   20.5732 C   0  0  0  0  0  0
  -24.1804  -13.0445   20.9225 C   0  0  0  0  0  0
  -24.6368  -11.6915   20.8796 C   0  0  0  0  0  0
  -23.9045  -10.4296   21.0435 C   0  0  0  0  0  0
  -24.3605   -9.4205   21.9199 C   0  0  0  0  0  0
  -23.6289   -8.2235   22.0756 C   0  0  0  0  0  0
  -22.4273   -8.0276   21.3543 C   0  0  0  0  0  0
  -21.9907   -9.0251   20.4649 C   0  0  0  0  0  0
  -22.7227  -10.2136   20.3072 C   0  0  0  0  0  0
  -21.6852   -6.0732   22.5277 C   0  0  0  0  0  0
  -21.4013   -6.5639   23.8210 C   0  0  0  0  0  0
  -21.3657   -5.6793   24.9173 C   0  0  0  0  0  0
  -21.6043   -4.3056   24.7226 C   0  0  0  0  0  0
  -21.8819   -3.8146   23.4349 C   0  0  0  0  0  0
  -21.9193   -4.6961   22.3403 C   0  0  0  0  0  0
  -22.7825  -13.5239   21.1865 C   0  0  0  0  0  0
  -22.1662   -4.2145   21.0982 F   0  0  0  0  0  0
  -21.5630   -3.4541   25.7739 F   0  0  0  0  0  0
  -29.9948  -13.4870   20.3384 N   0  0  0  0  0  0
  -26.2952  -12.9339   20.3342 N   0  0  0  0  0  0
  -25.9299  -11.6511   20.5867 N   0  0  0  0  0  0
  -22.0461  -12.8231   22.0416 N   0  0  0  0  0  0
  -25.4282  -15.1892   20.4146 N   0  0  0  0  0  0
  -31.8669  -14.7570   20.2927 O   0  0  0  0  0  0
  -21.6639   -6.8872   21.4237 O   0  0  0  0  0  0
  -22.3515  -14.5543   20.6707 O   0  0  0  0  0  0
  -24.6248  -31.8613   23.2040 C   0  0  0  0  0  0
  -25.9101  -32.4787   23.8363 C   0  0  1  0  0  0
  -27.2223  -27.3293   20.1241 C   0  0  0  0  0  0
  -25.5922  -33.8587   24.2290 N   0  0  0  0  0  0
  -23.4177  -30.4858   21.5460 C   0  0  2  0  0  0
  -24.8643  -28.9447   20.1095 C   0  0  0  0  0  0
  -22.7468  -29.4633   22.4938 C   0  0  0  0  0  0
  -18.0286  -28.1383   22.8488 C   0  0  0  0  0  0
  -24.1489  -36.7298   23.2639 C   0  0  0  0  0  0
  -25.9577  -30.7965   21.3734 C   0  0  0  0  0  0
  -26.0320  -29.4255   20.7152 C   0  0  0  0  0  0
  -27.2140  -28.6295   20.7127 C   0  0  0  0  0  0
  -26.0342  -26.9037   19.4842 C   0  0  0  0  0  0
  -24.8670  -27.6891   19.4842 C   0  0  0  0  0  0
  -23.6317  -29.8230   20.1600 C   0  0  0  0  0  0
  -25.4113  -36.3090   24.0332 C   0  0  1  0  0  0
  -20.5885  -28.3688   23.1284 C   0  0  2  0  0  0
  -20.6776  -26.9412   22.5410 C   0  0  0  0  0  0
  -19.5751  -26.6385   21.5212 C   0  0  0  0  0  0
  -18.1931  -26.7927   22.1623 C   0  0  0  0  0  0
  -19.1538  -28.8852   23.2882 C   0  0  0  0  0  0
  -18.9462  -30.1454   23.8898 C   0  0  0  0  0  0
  -17.6463  -30.6586   24.0564 C   0  0  0  0  0  0
  -25.9049  -34.9457   23.5111 C   0  0  0  0  0  0
  -16.5354  -29.9086   23.6329 C   0  0  0  0  0  0
  -16.7274  -28.6503   23.0350 C   0  0  0  0  0  0
  -26.4492  -31.6590   25.0727 C   0  0  0  0  0  0
  -25.3730  -31.3717   26.1456 C   0  0  0  0  0  0
  -27.0336  -30.3019   24.6167 C   0  0  0  0  0  0
  -27.6053  -32.4322   25.7496 C   0  0  0  0  0  0
  -27.5581  -37.1805   24.8465 C   0  0  0  0  0  0
  -21.4183  -29.3043   22.3679 N   0  0  0  0  0  0
  -26.4293  -37.3782   23.9408 N   0  0  0  0  0  0
  -24.6854  -31.0640   22.0983 N   0  0  0  0  0  0
  -23.4198  -28.8171   23.3011 O   0  0  0  0  0  0
  -28.3369  -26.4807   20.1998 O   0  0  0  0  0  0
  -26.5617  -34.8922   22.4677 O   0  0  0  0  0  0
  -23.5416  -32.1402   23.7380 O   0  0  0  0  0  0
  -29.7859  -17.9403   21.1994 C   0  0  0  0  0  0
  -29.6565  -19.3784   21.1325 C   0  0  0  0  0  0
  -29.7500  -19.2975   18.7355 C   0  0  0  0  0  0
  -29.8596  -17.8940   18.8153 C   0  0  0  0  0  0
  -29.8921  -17.1696   20.0086 C   0  0  0  0  0  0
  -29.6399  -20.1123   19.8982 C   0  0  0  0  0  0
  -29.9411  -16.9996   17.6290 C   0  0  0  0  0  0
  -29.8769  -15.6042   18.2554 C   0  0  0  0  0  0
  -29.6686  -22.0790   18.4038 C   0  0  0  0  0  0
  -29.1781  -24.0212   20.6912 C   0  0  0  0  0  0
  -28.8347  -22.4544   20.7243 C   0  0  0  0  0  0
  -28.1015  -25.0235   20.0989 C   0  0  0  0  0  0
  -29.9324  -15.7284   19.7339 N   0  0  0  0  0  0
  -29.5548  -21.5573   19.7712 N   0  0  0  0  0  0
  -31.4759  -12.5093   19.1431 H   0  0  0  0  0  0
  -30.4097  -11.4423   20.0186 H   0  0  0  0  0  0
  -29.7327  -11.4268   17.6641 H   0  0  0  0  0  0
  -29.6816  -13.1314   17.5394 H   0  0  0  0  0  0
  -27.8153  -11.2446   18.9359 H   0  0  0  0  0  0
  -27.3766  -12.4791   17.7943 H   0  0  0  0  0  0
  -27.6137  -14.2243   19.4405 H   0  0  0  0  0  0
  -28.7270  -12.2088   21.4498 H   0  0  0  0  0  0
  -28.4642  -13.9190   21.7285 H   0  0  0  0  0  0
  -25.2744   -9.5682   22.4780 H   0  0  0  0  0  0
  -24.0002   -7.4623   22.7469 H   0  0  0  0  0  0
  -21.0841   -8.8766   19.8952 H   0  0  0  0  0  0
  -22.3682  -10.9679   19.6188 H   0  0  0  0  0  0
  -21.2005   -7.6147   23.9712 H   0  0  0  0  0  0
  -21.1480   -6.0524   25.9074 H   0  0  0  0  0  0
  -22.0602   -2.7610   23.2851 H   0  0  0  0  0  0
  -22.4083  -11.9900   22.4814 H   0  0  0  0  0  0
  -21.1075  -13.1250   22.2613 H   0  0  0  0  0  0
  -24.6688  -15.8505   20.5351 H   0  0  0  0  0  0
  -26.2939  -15.6284   20.1264 H   0  0  0  0  0  0
  -26.7169  -32.5463   23.1113 H   0  0  0  0  0  0
  -25.0067  -33.9734   25.0434 H   0  0  0  0  0  0
  -22.7108  -31.3061   21.4048 H   0  0  0  0  0  0
  -23.3753  -35.9629   23.3303 H   0  0  0  0  0  0
  -24.3582  -36.8917   22.2053 H   0  0  0  0  0  0
  -23.7241  -37.6501   23.6658 H   0  0  0  0  0  0
  -26.0878  -31.5611   20.6063 H   0  0  0  0  0  0
  -26.8388  -30.8445   22.0016 H   0  0  0  0  0  0
  -28.1079  -28.9914   21.2012 H   0  0  0  0  0  0
  -25.9784  -25.9455   18.9894 H   0  0  0  0  0  0
  -23.9730  -27.3160   19.0034 H   0  0  0  0  0  0
  -23.7501  -30.6009   19.4048 H   0  0  0  0  0  0
  -22.7519  -29.2523   19.8573 H   0  0  0  0  0  0
  -25.1294  -36.1945   25.0825 H   0  0  0  0  0  0
  -20.9979  -28.3263   24.1404 H   0  0  0  0  0  0
  -20.5678  -26.2298   23.3609 H   0  0  0  0  0  0
  -21.6645  -26.7443   22.1203 H   0  0  0  0  0  0
  -19.6913  -25.6296   21.1241 H   0  0  0  0  0  0
  -19.6688  -27.3196   20.6742 H   0  0  0  0  0  0
  -17.4201  -26.6676   21.4025 H   0  0  0  0  0  0
  -18.0331  -26.0067   22.9018 H   0  0  0  0  0  0
  -19.7938  -30.7269   24.2267 H   0  0  0  0  0  0
  -17.5018  -31.6266   24.5165 H   0  0  0  0  0  0
  -15.5355  -30.2990   23.7652 H   0  0  0  0  0  0
  -15.8674  -28.0825   22.7063 H   0  0  0  0  0  0
  -24.5907  -30.7065   25.7784 H   0  0  0  0  0  0
  -24.8918  -32.2878   26.4890 H   0  0  0  0  0  0
  -25.8061  -30.8889   27.0224 H   0  0  0  0  0  0
  -26.2905  -29.6770   24.1198 H   0  0  0  0  0  0
  -27.4050  -29.7273   25.4662 H   0  0  0  0  0  0
  -27.8766  -30.4316   23.9377 H   0  0  0  0  0  0
  -27.2665  -33.3620   26.2078 H   0  0  0  0  0  0
  -28.3861  -32.6886   25.0323 H   0  0  0  0  0  0
  -28.0723  -31.8444   26.5408 H   0  0  0  0  0  0
  -28.2599  -38.0102   24.7515 H   0  0  0  0  0  0
  -28.1076  -36.2634   24.6288 H   0  0  0  0  0  0
  -27.2298  -37.1451   25.8867 H   0  0  0  0  0  0
  -20.9357  -29.8770   21.6896 H   0  0  0  0  0  0
  -26.0177  -38.2859   24.1407 H   0  0  0  0  0  0
  -29.7795  -17.4497   22.1622 H   0  0  0  0  0  0
  -29.5805  -19.9185   22.0645 H   0  0  0  0  0  0
  -29.7428  -19.7109   17.7391 H   0  0  0  0  0  0
  -30.8824  -17.1631   17.1026 H   0  0  0  0  0  0
  -29.1171  -17.1796   16.9370 H   0  0  0  0  0  0
  -30.6948  -15.0078   17.8454 H   0  0  0  0  0  0
  -28.9353  -15.1444   17.9629 H   0  0  0  0  0  0
  -30.6016  -21.7563   17.9386 H   0  0  0  0  0  0
  -29.6679  -23.1661   18.3540 H   0  0  0  0  0  0
  -28.8348  -21.7406   17.7864 H   0  0  0  0  0  0
  -30.1505  -24.1970   20.2315 H   0  0  0  0  0  0
  -29.3205  -24.3237   21.7292 H   0  0  0  0  0  0
  -27.7602  -22.3173   20.5926 H   0  0  0  0  0  0
  -29.0462  -22.0959   21.7323 H   0  0  0  0  0  0
  -27.1648  -24.7879   20.6071 H   0  0  0  0  0  0
  -27.9499  -24.7787   19.0472 H   0  0  0  0  0  0
  1 25  1  0  0  0
  1 30  2  0  0  0
  1 83  1  0  0  0
  2  3  1  0  0  0
  2 25  1  0  0  0
  2 85  1  0  0  0
  2 86  1  0  0  0
  3  4  1  0  0  0
  3 87  1  0  0  0
  3 88  1  0  0  0
  4  5  1  0  0  0
  4 89  1  0  0  0
  4 90  1  0  0  0
  5  6  1  0  0  0
  5 26  1  0  0  0
  5 91  1  0  0  0
  6 25  1  0  0  0
  6 92  1  0  0  0
  6 93  1  0  0  0
  7  8  2  0  0  0
  7 26  1  0  0  0
  7 29  1  0  0  0
  8  9  1  0  0  0
  8 22  1  0  0  0
  9 10  1  0  0  0
  9 27  2  0  0  0
 10 11  2  0  0  0
 10 15  1  0  0  0
 11 12  1  0  0  0
 11 94  1  0  0  0
 12 13  2  0  0  0
 12 95  1  0  0  0
 13 14  1  0  0  0
 13 31  1  0  0  0
 14 15  2  0  0  0
 14 96  1  0  0  0
 15 97  1  0  0  0
 16 17  2  0  0  0
 16 21  1  0  0  0
 16 31  1  0  0  0
 17 18  1  0  0  0
 17 98  1  0  0  0
 18 19  2  0  0  0
 18 99  1  0  0  0
 19 20  1  0  0  0
 19 24  1  0  0  0
 20 21  2  0  0  0
 20100  1  0  0  0
 21 23  1  0  0  0
 22 28  1  0  0  0
 22 32  2  0  0  0
 26 27  1  0  0  0
 28101  1  0  0  0
 28102  1  0  0  0
 29103  1  0  0  0
 29104  1  0  0  0
 33 34  1  0  0  0
 33 66  1  0  0  0
 33 70  2  0  0  0
 34 36  1  0  0  0
 34 59  1  0  0  0
 34105  1  0  0  0
 35 44  2  0  0  0
 35 45  1  0  0  0
 35 68  1  0  0  0
 36 56  1  0  0  0
 36106  1  0  0  0
 37 39  1  0  0  0
 37 47  1  0  0  0
 37 66  1  0  0  0
 37107  1  0  0  0
 38 43  2  0  0  0
 38 46  1  0  0  0
 38 47  1  0  0  0
 39 64  1  0  0  0
 39 67  2  0  0  0
 40 52  1  0  0  0
 40 53  2  0  0  0
 40 58  1  0  0  0
 41108  1  0  0  0
 41109  1  0  0  0
 41110  1  0  0  0
 41 48  1  0  0  0
 42 43  1  0  0  0
 42 66  1  0  0  0
 42111  1  0  0  0
 42112  1  0  0  0
 43 44  1  0  0  0
 44113  1  0  0  0
 45 46  2  0  0  0
 45114  1  0  0  0
 46115  1  0  0  0
 47116  1  0  0  0
 47117  1  0  0  0
 48 56  1  0  0  0
 48 65  1  0  0  0
 48118  1  0  0  0
 49 50  1  0  0  0
 49 53  1  0  0  0
 49 64  1  0  0  0
 49119  1  0  0  0
 50 51  1  0  0  0
 50120  1  0  0  0
 50121  1  0  0  0
 51 52  1  0  0  0
 51122  1  0  0  0
 51123  1  0  0  0
 52124  1  0  0  0
 52125  1  0  0  0
 53 54  1  0  0  0
 54 55  2  0  0  0
 54126  1  0  0  0
 55 57  1  0  0  0
 55127  1  0  0  0
 56 69  2  0  0  0
 57 58  2  0  0  0
 57128  1  0  0  0
 58129  1  0  0  0
 59 60  1  0  0  0
 59 61  1  0  0  0
 59 62  1  0  0  0
 60130  1  0  0  0
 60131  1  0  0  0
 60132  1  0  0  0
 61133  1  0  0  0
 61134  1  0  0  0
 61135  1  0  0  0
 62136  1  0  0  0
 62137  1  0  0  0
 62138  1  0  0  0
 63 65  1  0  0  0
 63139  1  0  0  0
 63140  1  0  0  0
 63141  1  0  0  0
 64142  1  0  0  0
 65143  1  0  0  0
 68 82  1  0  0  0
 71 72  2  0  0  0
 71 75  1  0  0  0
 71144  1  0  0  0
 72 76  1  0  0  0
 72145  1  0  0  0
 73 74  1  0  0  0
 73 76  2  0  0  0
 73146  1  0  0  0
 74 75  2  0  0  0
 74 77  1  0  0  0
 75 83  1  0  0  0
 76 84  1  0  0  0
 77 78  1  0  0  0
 77147  1  0  0  0
 77148  1  0  0  0
 78 83  1  0  0  0
 78149  1  0  0  0
 78150  1  0  0  0
 79 84  1  0  0  0
 79151  1  0  0  0
 79152  1  0  0  0
 79153  1  0  0  0
 80 81  1  0  0  0
 80 82  1  0  0  0
 80154  1  0  0  0
 80155  1  0  0  0
 81 84  1  0  0  0
 81156  1  0  0  0
 81157  1  0  0  0
 82158  1  0  0  0
 82159  1  0  0  0
M  ISO  4   1 100  68 101  82 101  83 100
M  END
> <chiral flag>
0

> <version>
0

> <s_m_source_file>
/data/baiqing/PycharmProjects/Reinvent-master-3.2/result/LINK_invent/BTK/process_docking_weight1_custom_product_contain_oxygen_bond_distance_aromatic_linkinvent_7_9_3/rearranged_h_0017.sdf

> <i_m_source_file_index>
46

> <r_mmod_Potential_Energy-OPLS-2005>
362.051605224609

> <r_mmod_Stretch_Energy-OPLS-2005>
87.4003143310547

> <r_mmod_Bend_Energy-OPLS-2005>
210.587448120117

> <r_mmod_Torsional_Energy-OPLS-2005>
318.532379150391

> <r_mmod_Improper_Torsional_Energy-OPLS-2005>
30.2655029296875

> <r_mmod_Van_der_Waal_Energy-OPLS-2005>
158.055725097656

> <r_mmod_Electrostatic_Energy-OPLS-2005>
-303.917755126953

> <r_mmod_Solvation_Energy-OPLS-2005>
-217.898361206055

> <b_mmod_Minimization_Converged-OPLS-2005>
0

> <r_mmod_RMS_Derivative-OPLS-2005>
0.337834566831589

$$$$
47
                    3D
 Structure written by MMmdl.
167175  0  0  1  0            999 V2000
  -30.7364  -14.4195   20.6296 C   0  0  0  0  0  0
  -30.4195  -12.3101   19.3844 C   0  0  0  0  0  0
  -29.4748  -12.5053   18.1816 C   0  0  0  0  0  0
  -27.9992  -12.3595   18.6039 C   0  0  0  0  0  0
  -27.6538  -13.1959   19.8600 C   0  0  2  0  0  0
  -28.6970  -12.9496   20.9628 C   0  0  0  0  0  0
  -25.2580  -13.8173   20.5768 C   0  0  0  0  0  0
  -24.1808  -13.0463   20.9263 C   0  0  0  0  0  0
  -24.6344  -11.6921   20.8760 C   0  0  0  0  0  0
  -23.9011  -10.4313   21.0402 C   0  0  0  0  0  0
  -24.3577   -9.4224   21.9174 C   0  0  0  0  0  0
  -23.6257   -8.2253   22.0745 C   0  0  0  0  0  0
  -22.4230   -8.0300   21.3553 C   0  0  0  0  0  0
  -21.9856   -9.0270   20.4638 C   0  0  0  0  0  0
  -22.7185  -10.2149   20.3042 C   0  0  0  0  0  0
  -21.6828   -6.0732   22.5276 C   0  0  0  0  0  0
  -21.4018   -6.5632   23.8228 C   0  0  0  0  0  0
  -21.3655   -5.6770   24.9179 C   0  0  0  0  0  0
  -21.6036   -4.3046   24.7218 C   0  0  0  0  0  0
  -21.8819   -3.8149   23.4340 C   0  0  0  0  0  0
  -21.9184   -4.6957   22.3399 C   0  0  0  0  0  0
  -22.7819  -13.5261   21.1933 C   0  0  0  0  0  0
  -22.1658   -4.2143   21.0971 F   0  0  0  0  0  0
  -21.5607   -3.4539   25.7742 F   0  0  0  0  0  0
  -30.0302  -13.2723   20.4261 N   0  0  0  0  0  0
  -26.2965  -12.9303   20.3334 N   0  0  0  0  0  0
  -25.9256  -11.6483   20.5741 N   0  0  0  0  0  0
  -22.0412  -12.8261   22.0465 N   0  0  0  0  0  0
  -25.4433  -15.1896   20.4361 N   0  0  0  0  0  0
  -31.8346  -14.6313   20.1014 O   0  0  0  0  0  0
  -21.6621   -6.8878   21.4240 O   0  0  0  0  0  0
  -22.3510  -14.5562   20.6777 O   0  0  0  0  0  0
  -24.6136  -31.8721   23.2113 C   0  0  0  0  0  0
  -25.9043  -32.4853   23.8406 C   0  0  1  0  0  0
  -27.2317  -27.4469   20.0691 C   0  0  0  0  0  0
  -25.5919  -33.8640   24.2362 N   0  0  0  0  0  0
  -23.3996  -30.4978   21.5528 C   0  0  2  0  0  0
  -24.8401  -28.9654   20.1148 C   0  0  0  0  0  0
  -22.7428  -29.4676   22.4985 C   0  0  0  0  0  0
  -18.0300  -28.1390   22.8505 C   0  0  0  0  0  0
  -24.1490  -36.7308   23.2638 C   0  0  0  0  0  0
  -25.9273  -30.8409   21.3611 C   0  0  0  0  0  0
  -26.0021  -29.4751   20.7063 C   0  0  0  0  0  0
  -27.1968  -28.7199   20.6823 C   0  0  0  0  0  0
  -26.0420  -26.9410   19.4926 C   0  0  0  0  0  0
  -24.8559  -27.6985   19.5061 C   0  0  0  0  0  0
  -23.6061  -29.8376   20.1643 C   0  0  0  0  0  0
  -25.4112  -36.3134   24.0358 C   0  0  1  0  0  0
  -20.5892  -28.3682   23.1334 C   0  0  2  0  0  0
  -20.6798  -26.9410   22.5437 C   0  0  0  0  0  0
  -19.5773  -26.6395   21.5243 C   0  0  0  0  0  0
  -18.1948  -26.7941   22.1639 C   0  0  0  0  0  0
  -19.1539  -28.8849   23.2928 C   0  0  0  0  0  0
  -18.9458  -30.1454   23.8935 C   0  0  0  0  0  0
  -17.6454  -30.6589   24.0573 C   0  0  0  0  0  0
  -25.9028  -34.9503   23.5156 C   0  0  0  0  0  0
  -16.5359  -29.9086   23.6315 C   0  0  0  0  0  0
  -16.7281  -28.6511   23.0328 C   0  0  0  0  0  0
  -26.4470  -31.6601   25.0707 C   0  0  0  0  0  0
  -25.3749  -31.3678   26.1461 C   0  0  0  0  0  0
  -27.0282  -30.3063   24.6035 C   0  0  0  0  0  0
  -27.6080  -32.4286   25.7457 C   0  0  0  0  0  0
  -27.5591  -37.1817   24.8475 C   0  0  0  0  0  0
  -21.4148  -29.3054   22.3724 N   0  0  0  0  0  0
  -26.4303  -37.3815   23.9420 N   0  0  0  0  0  0
  -24.6649  -31.0845   22.1009 N   0  0  0  0  0  0
  -23.4191  -28.8213   23.3010 O   0  0  0  0  0  0
  -28.4323  -26.7610   20.0632 O   0  0  0  0  0  0
  -26.5586  -34.8931   22.4704 O   0  0  0  0  0  0
  -23.5345  -32.1449   23.7552 O   0  0  0  0  0  0
  -29.2729  -19.0588   21.1333 C   0  0  0  0  0  0
  -29.6586  -17.8050   21.6446 C   0  0  0  0  0  0
  -29.0874  -18.0932   18.9332 C   0  0  0  0  0  0
  -28.9659  -19.2330   19.7639 C   0  0  0  0  0  0
  -29.7623  -16.6533   20.8223 C   0  0  0  0  0  0
  -29.4573  -16.8285   19.4431 C   0  0  0  0  0  0
  -29.0438  -16.0824   24.9355 C   0  0  0  0  0  0
  -27.4953  -20.3573   18.1994 C   0  0  0  0  0  0
  -29.0032  -15.2829   23.6289 C   0  0  0  0  0  0
  -28.6462  -23.0097   19.2417 C   0  0  0  0  0  0
  -28.3047  -24.2850   20.0453 C   0  0  0  0  0  0
  -30.3428  -15.2523   22.8543 C   0  0  0  0  0  0
  -28.5201  -21.6943   20.0562 C   0  0  0  0  0  0
  -28.5950  -25.5839   19.2609 C   0  0  0  0  0  0
  -30.1482  -15.3733   21.3926 N   0  0  0  0  0  0
  -28.5345  -20.4776   19.2255 N   0  0  0  0  0  0
  -29.4892  -15.7924   18.5725 F   0  0  0  0  0  0
  -31.4566  -12.4358   19.0671 H   0  0  0  0  0  0
  -30.3486  -11.2934   19.7705 H   0  0  0  0  0  0
  -29.7146  -11.7925   17.3939 H   0  0  0  0  0  0
  -29.6331  -13.4916   17.7428 H   0  0  0  0  0  0
  -27.8137  -11.3043   18.8023 H   0  0  0  0  0  0
  -27.3401  -12.6315   17.7795 H   0  0  0  0  0  0
  -27.7035  -14.2459   19.5741 H   0  0  0  0  0  0
  -28.6753  -11.9050   21.2777 H   0  0  0  0  0  0
  -28.4300  -13.5170   21.8425 H   0  0  0  0  0  0
  -25.2725   -9.5687   22.4757 H   0  0  0  0  0  0
  -23.9936   -7.4633   22.7478 H   0  0  0  0  0  0
  -21.0773   -8.8824   19.8951 H   0  0  0  0  0  0
  -22.3670  -10.9693   19.6160 H   0  0  0  0  0  0
  -21.2042   -7.6145   23.9762 H   0  0  0  0  0  0
  -21.1461   -6.0484   25.9087 H   0  0  0  0  0  0
  -22.0597   -2.7605   23.2849 H   0  0  0  0  0  0
  -22.3928  -11.9910   22.4929 H   0  0  0  0  0  0
  -21.1072  -13.1391   22.2653 H   0  0  0  0  0  0
  -24.7297  -15.8661   20.6841 H   0  0  0  0  0  0
  -26.3315  -15.6154   20.2048 H   0  0  0  0  0  0
  -26.7118  -32.5566   23.1172 H   0  0  0  0  0  0
  -25.0104  -33.9807   25.0535 H   0  0  0  0  0  0
  -22.6890  -31.3161   21.4213 H   0  0  0  0  0  0
  -23.3766  -35.9622   23.3316 H   0  0  0  0  0  0
  -24.3576  -36.8880   22.2042 H   0  0  0  0  0  0
  -23.7212  -37.6513   23.6613 H   0  0  0  0  0  0
  -26.0431  -31.6115   20.5976 H   0  0  0  0  0  0
  -26.8150  -30.8904   21.9798 H   0  0  0  0  0  0
  -28.0976  -29.1216   21.1258 H   0  0  0  0  0  0
  -26.0058  -25.9665   19.0275 H   0  0  0  0  0  0
  -23.9587  -27.3036   19.0471 H   0  0  0  0  0  0
  -23.7271  -30.6193   19.4123 H   0  0  0  0  0  0
  -22.7249  -29.2701   19.8583 H   0  0  0  0  0  0
  -25.1290  -36.2019   25.0856 H   0  0  0  0  0  0
  -21.0009  -28.3268   24.1452 H   0  0  0  0  0  0
  -20.5754  -26.2280   23.3625 H   0  0  0  0  0  0
  -21.6658  -26.7504   22.1202 H   0  0  0  0  0  0
  -19.6927  -25.6319   21.1242 H   0  0  0  0  0  0
  -19.6696  -27.3225   20.6792 H   0  0  0  0  0  0
  -17.4231  -26.6731   21.4018 H   0  0  0  0  0  0
  -18.0314  -26.0072   22.9024 H   0  0  0  0  0  0
  -19.7918  -30.7274   24.2323 H   0  0  0  0  0  0
  -17.4995  -31.6256   24.5177 H   0  0  0  0  0  0
  -15.5348  -30.2989   23.7607 H   0  0  0  0  0  0
  -15.8701  -28.0836   22.7011 H   0  0  0  0  0  0
  -24.5986  -30.6956   25.7792 H   0  0  0  0  0  0
  -24.8857  -32.2801   26.4883 H   0  0  0  0  0  0
  -25.8122  -30.8886   27.0232 H   0  0  0  0  0  0
  -26.2792  -29.6833   24.1143 H   0  0  0  0  0  0
  -27.4133  -29.7293   25.4450 H   0  0  0  0  0  0
  -27.8590  -30.4396   23.9105 H   0  0  0  0  0  0
  -27.2773  -33.3620   26.2029 H   0  0  0  0  0  0
  -28.3893  -32.6785   25.0262 H   0  0  0  0  0  0
  -28.0743  -31.8393   26.5365 H   0  0  0  0  0  0
  -28.2651  -38.0086   24.7538 H   0  0  0  0  0  0
  -28.1067  -36.2631   24.6311 H   0  0  0  0  0  0
  -27.2316  -37.1474   25.8882 H   0  0  0  0  0  0
  -20.9313  -29.8740   21.6931 H   0  0  0  0  0  0
  -26.0216  -38.2904   24.1402 H   0  0  0  0  0  0
  -29.2129  -19.8751   21.8361 H   0  0  0  0  0  0
  -29.8735  -17.7668   22.6977 H   0  0  0  0  0  0
  -28.8817  -18.1576   17.8739 H   0  0  0  0  0  0
  -28.1268  -15.9239   25.5037 H   0  0  0  0  0  0
  -29.1211  -17.1532   24.7429 H   0  0  0  0  0  0
  -29.8794  -15.7897   25.5706 H   0  0  0  0  0  0
  -26.8668  -19.4776   18.3508 H   0  0  0  0  0  0
  -27.9466  -20.2815   17.2095 H   0  0  0  0  0  0
  -26.8219  -21.2149   18.1938 H   0  0  0  0  0  0
  -28.2029  -15.6776   22.9978 H   0  0  0  0  0  0
  -28.7119  -14.2603   23.8741 H   0  0  0  0  0  0
  -29.6627  -23.0784   18.8510 H   0  0  0  0  0  0
  -27.9915  -23.0051   18.3697 H   0  0  0  0  0  0
  -28.8774  -24.2962   20.9735 H   0  0  0  0  0  0
  -27.2533  -24.2600   20.3340 H   0  0  0  0  0  0
  -30.8606  -14.3238   23.1080 H   0  0  0  0  0  0
  -31.0286  -16.0278   23.1961 H   0  0  0  0  0  0
  -27.5983  -21.6940   20.6405 H   0  0  0  0  0  0
  -29.3408  -21.6833   20.7755 H   0  0  0  0  0  0
  -28.0388  -25.6262   18.3235 H   0  0  0  0  0  0
  -29.6423  -25.5703   18.9616 H   0  0  0  0  0  0
  1 25  1  0  0  0
  1 30  2  0  0  0
  1 85  1  0  0  0
  2  3  1  0  0  0
  2 25  1  0  0  0
  2 88  1  0  0  0
  2 89  1  0  0  0
  3  4  1  0  0  0
  3 90  1  0  0  0
  3 91  1  0  0  0
  4  5  1  0  0  0
  4 92  1  0  0  0
  4 93  1  0  0  0
  5  6  1  0  0  0
  5 26  1  0  0  0
  5 94  1  0  0  0
  6 25  1  0  0  0
  6 95  1  0  0  0
  6 96  1  0  0  0
  7  8  2  0  0  0
  7 26  1  0  0  0
  7 29  1  0  0  0
  8  9  1  0  0  0
  8 22  1  0  0  0
  9 10  1  0  0  0
  9 27  2  0  0  0
 10 11  2  0  0  0
 10 15  1  0  0  0
 11 12  1  0  0  0
 11 97  1  0  0  0
 12 13  2  0  0  0
 12 98  1  0  0  0
 13 14  1  0  0  0
 13 31  1  0  0  0
 14 15  2  0  0  0
 14 99  1  0  0  0
 15100  1  0  0  0
 16 17  2  0  0  0
 16 21  1  0  0  0
 16 31  1  0  0  0
 17 18  1  0  0  0
 17101  1  0  0  0
 18 19  2  0  0  0
 18102  1  0  0  0
 19 20  1  0  0  0
 19 24  1  0  0  0
 20 21  2  0  0  0
 20103  1  0  0  0
 21 23  1  0  0  0
 22 28  1  0  0  0
 22 32  2  0  0  0
 26 27  1  0  0  0
 28104  1  0  0  0
 28105  1  0  0  0
 29106  1  0  0  0
 29107  1  0  0  0
 33 34  1  0  0  0
 33 66  1  0  0  0
 33 70  2  0  0  0
 34 36  1  0  0  0
 34 59  1  0  0  0
 34108  1  0  0  0
 35 44  2  0  0  0
 35 45  1  0  0  0
 35 68  1  0  0  0
 36 56  1  0  0  0
 36109  1  0  0  0
 37 39  1  0  0  0
 37 47  1  0  0  0
 37 66  1  0  0  0
 37110  1  0  0  0
 38 43  2  0  0  0
 38 46  1  0  0  0
 38 47  1  0  0  0
 39 64  1  0  0  0
 39 67  2  0  0  0
 40 52  1  0  0  0
 40 53  2  0  0  0
 40 58  1  0  0  0
 41111  1  0  0  0
 41112  1  0  0  0
 41113  1  0  0  0
 41 48  1  0  0  0
 42 43  1  0  0  0
 42 66  1  0  0  0
 42114  1  0  0  0
 42115  1  0  0  0
 43 44  1  0  0  0
 44116  1  0  0  0
 45 46  2  0  0  0
 45117  1  0  0  0
 46118  1  0  0  0
 47119  1  0  0  0
 47120  1  0  0  0
 48 56  1  0  0  0
 48 65  1  0  0  0
 48121  1  0  0  0
 49 50  1  0  0  0
 49 53  1  0  0  0
 49 64  1  0  0  0
 49122  1  0  0  0
 50 51  1  0  0  0
 50123  1  0  0  0
 50124  1  0  0  0
 51 52  1  0  0  0
 51125  1  0  0  0
 51126  1  0  0  0
 52127  1  0  0  0
 52128  1  0  0  0
 53 54  1  0  0  0
 54 55  2  0  0  0
 54129  1  0  0  0
 55 57  1  0  0  0
 55130  1  0  0  0
 56 69  2  0  0  0
 57 58  2  0  0  0
 57131  1  0  0  0
 58132  1  0  0  0
 59 60  1  0  0  0
 59 61  1  0  0  0
 59 62  1  0  0  0
 60133  1  0  0  0
 60134  1  0  0  0
 60135  1  0  0  0
 61136  1  0  0  0
 61137  1  0  0  0
 61138  1  0  0  0
 62139  1  0  0  0
 62140  1  0  0  0
 62141  1  0  0  0
 63 65  1  0  0  0
 63142  1  0  0  0
 63143  1  0  0  0
 63144  1  0  0  0
 64145  1  0  0  0
 65146  1  0  0  0
 68 84  1  0  0  0
 71 72  2  0  0  0
 71 74  1  0  0  0
 71147  1  0  0  0
 72 75  1  0  0  0
 72148  1  0  0  0
 73 74  2  0  0  0
 73 76  1  0  0  0
 73149  1  0  0  0
 74 86  1  0  0  0
 75 76  2  0  0  0
 75 85  1  0  0  0
 76 87  1  0  0  0
 77 79  1  0  0  0
 77150  1  0  0  0
 77151  1  0  0  0
 77152  1  0  0  0
 78 86  1  0  0  0
 78153  1  0  0  0
 78154  1  0  0  0
 78155  1  0  0  0
 79 82  1  0  0  0
 79156  1  0  0  0
 79157  1  0  0  0
 80 81  1  0  0  0
 80 83  1  0  0  0
 80158  1  0  0  0
 80159  1  0  0  0
 81 84  1  0  0  0
 81160  1  0  0  0
 81161  1  0  0  0
 82 85  1  0  0  0
 82162  1  0  0  0
 82163  1  0  0  0
 83 86  1  0  0  0
 83164  1  0  0  0
 83165  1  0  0  0
 84166  1  0  0  0
 84167  1  0  0  0
M  ISO  4   1 100  68 101  84 101  85 100
M  END
> <chiral flag>
0

> <version>
0

> <s_m_source_file>
/data/baiqing/PycharmProjects/Reinvent-master-3.2/result/LINK_invent/BTK/process_docking_weight1_custom_product_contain_oxygen_bond_distance_aromatic_linkinvent_7_9_3/rearranged_h_0017.sdf

> <i_m_source_file_index>
47

> <r_mmod_Potential_Energy-OPLS-2005>
94.3005752563477

> <r_mmod_Stretch_Energy-OPLS-2005>
44.4385757446289

> <r_mmod_Bend_Energy-OPLS-2005>
117.519645690918

> <r_mmod_Torsional_Energy-OPLS-2005>
275.000946044922

> <r_mmod_Improper_Torsional_Energy-OPLS-2005>
5.39170169830322

> <r_mmod_Van_der_Waal_Energy-OPLS-2005>
175.334762573242

> <r_mmod_Electrostatic_Energy-OPLS-2005>
-331.670043945312

> <r_mmod_Solvation_Energy-OPLS-2005>
-202.370849609375

> <b_mmod_Minimization_Converged-OPLS-2005>
0

> <r_mmod_RMS_Derivative-OPLS-2005>
4.45846462249756

$$$$
48
                    3D
 Structure written by MMmdl.
161169  0  0  1  0            999 V2000
  -30.7391  -14.4692   20.6267 C   0  0  0  0  0  0
  -30.4128  -12.3312   19.4178 C   0  0  0  0  0  0
  -29.4836  -12.5143   18.2031 C   0  0  0  0  0  0
  -28.0114  -12.3521   18.6210 C   0  0  0  0  0  0
  -27.6550  -13.1999   19.8683 C   0  0  2  0  0  0
  -28.6972  -13.0059   20.9933 C   0  0  0  0  0  0
  -25.2582  -13.8140   20.5673 C   0  0  0  0  0  0
  -24.1829  -13.0426   20.9177 C   0  0  0  0  0  0
  -24.6372  -11.6888   20.8736 C   0  0  0  0  0  0
  -23.9037  -10.4282   21.0407 C   0  0  0  0  0  0
  -24.3597   -9.4202   21.9186 C   0  0  0  0  0  0
  -23.6280   -8.2235   22.0757 C   0  0  0  0  0  0
  -22.4266   -8.0272   21.3542 C   0  0  0  0  0  0
  -21.9891   -9.0242   20.4643 C   0  0  0  0  0  0
  -22.7208  -10.2127   20.3052 C   0  0  0  0  0  0
  -21.6850   -6.0724   22.5275 C   0  0  0  0  0  0
  -21.4011   -6.5632   23.8206 C   0  0  0  0  0  0
  -21.3663   -5.6789   24.9172 C   0  0  0  0  0  0
  -21.6047   -4.3051   24.7224 C   0  0  0  0  0  0
  -21.8821   -3.8138   23.4346 C   0  0  0  0  0  0
  -21.9191   -4.6952   22.3400 C   0  0  0  0  0  0
  -22.7861  -13.5243   21.1836 C   0  0  0  0  0  0
  -22.1661   -4.2135   21.0979 F   0  0  0  0  0  0
  -21.5630   -3.4539   25.7741 F   0  0  0  0  0  0
  -30.0277  -13.3169   20.4457 N   0  0  0  0  0  0
  -26.2990  -12.9285   20.3337 N   0  0  0  0  0  0
  -25.9293  -11.6454   20.5760 N   0  0  0  0  0  0
  -22.0501  -12.8245   22.0398 N   0  0  0  0  0  0
  -25.4306  -15.1855   20.4073 N   0  0  0  0  0  0
  -31.8204  -14.6592   20.0586 O   0  0  0  0  0  0
  -21.6633   -6.8865   21.4236 O   0  0  0  0  0  0
  -22.3559  -14.5550   20.6683 O   0  0  0  0  0  0
  -24.6173  -31.8666   23.2106 C   0  0  0  0  0  0
  -25.9058  -32.4813   23.8404 C   0  0  1  0  0  0
  -27.2272  -27.4049   20.0979 C   0  0  0  0  0  0
  -25.5908  -33.8613   24.2328 N   0  0  0  0  0  0
  -23.4057  -30.4924   21.5514 C   0  0  2  0  0  0
  -24.8496  -28.9603   20.1114 C   0  0  0  0  0  0
  -22.7426  -29.4648   22.4980 C   0  0  0  0  0  0
  -18.0274  -28.1368   22.8485 C   0  0  0  0  0  0
  -24.1484  -36.7316   23.2636 C   0  0  0  0  0  0
  -25.9379  -30.8220   21.3701 C   0  0  0  0  0  0
  -26.0111  -29.4560   20.7151 C   0  0  0  0  0  0
  -27.1995  -28.6848   20.7078 C   0  0  0  0  0  0
  -26.0473  -26.9471   19.4625 C   0  0  0  0  0  0
  -24.8642  -27.7061   19.4827 C   0  0  0  0  0  0
  -23.6147  -29.8307   20.1636 C   0  0  0  0  0  0
  -25.4104  -36.3107   24.0334 C   0  0  1  0  0  0
  -20.5868  -28.3655   23.1305 C   0  0  2  0  0  0
  -20.6760  -26.9386   22.5413 C   0  0  0  0  0  0
  -19.5743  -26.6375   21.5203 C   0  0  0  0  0  0
  -18.1920  -26.7911   22.1612 C   0  0  0  0  0  0
  -19.1527  -28.8827   23.2890 C   0  0  0  0  0  0
  -18.9453  -30.1430   23.8900 C   0  0  0  0  0  0
  -17.6458  -30.6576   24.0556 C   0  0  0  0  0  0
  -25.9035  -34.9471   23.5132 C   0  0  0  0  0  0
  -16.5347  -29.9080   23.6322 C   0  0  0  0  0  0
  -16.7262  -28.6496   23.0343 C   0  0  0  0  0  0
  -26.4481  -31.6597   25.0740 C   0  0  0  0  0  0
  -25.3746  -31.3695   26.1489 C   0  0  0  0  0  0
  -27.0321  -30.3038   24.6130 C   0  0  0  0  0  0
  -27.6059  -32.4320   25.7495 C   0  0  0  0  0  0
  -27.5579  -37.1808   24.8462 C   0  0  0  0  0  0
  -21.4153  -29.3028   22.3722 N   0  0  0  0  0  0
  -26.4290  -37.3794   23.9407 N   0  0  0  0  0  0
  -24.6718  -31.0754   22.1019 N   0  0  0  0  0  0
  -23.4188  -28.8181   23.3022 O   0  0  0  0  0  0
  -28.3935  -26.6532   20.1474 O   0  0  0  0  0  0
  -26.5599  -34.8926   22.4694 O   0  0  0  0  0  0
  -23.5360  -32.1438   23.7485 O   0  0  0  0  0  0
  -29.5847  -18.4841   20.2048 C   0  0  0  0  0  0
  -29.7129  -19.8946   20.2228 C   0  0  0  0  0  0
  -29.4384  -19.8816   22.6304 C   0  0  0  0  0  0
  -29.3628  -17.7567   21.3977 C   0  0  0  0  0  0
  -29.6469  -20.6145   21.4394 C   0  0  0  0  0  0
  -29.2815  -18.4778   22.6122 C   0  0  0  0  0  0
  -31.0735  -22.4037   22.1701 C   0  0  0  0  0  0
  -31.2898  -15.8367   22.5435 C   0  0  0  0  0  0
  -29.1364  -16.2304   21.3600 C   0  0  0  0  0  0
  -29.2145  -24.3891   20.8219 C   0  0  0  0  0  0
  -29.2893  -22.8781   20.4404 C   0  0  0  0  0  0
  -28.3415  -25.2347   19.8610 C   0  0  0  0  0  0
  -29.8273  -22.0184   21.5094 N   0  0  0  0  0  0
  -30.3074  -15.3427   21.5740 N   0  0  0  0  0  0
  -29.0417  -17.8245   23.7749 F   0  0  0  0  0  0
  -31.4554  -12.4258   19.1095 H   0  0  0  0  0  0
  -30.3166  -11.3206   19.8187 H   0  0  0  0  0  0
  -29.7310  -11.7896   17.4265 H   0  0  0  0  0  0
  -29.6356  -13.5015   17.7630 H   0  0  0  0  0  0
  -27.8382  -11.2957   18.8302 H   0  0  0  0  0  0
  -27.3538  -12.6070   17.7894 H   0  0  0  0  0  0
  -27.6848  -14.2369   19.5428 H   0  0  0  0  0  0
  -28.6841  -11.9746   21.3477 H   0  0  0  0  0  0
  -28.4443  -13.6087   21.8651 H   0  0  0  0  0  0
  -25.2741   -9.5686   22.4761 H   0  0  0  0  0  0
  -23.9986   -7.4631   22.7487 H   0  0  0  0  0  0
  -21.0813   -8.8750   19.8957 H   0  0  0  0  0  0
  -22.3654  -10.9665   19.6163 H   0  0  0  0  0  0
  -21.2002   -7.6139   23.9703 H   0  0  0  0  0  0
  -21.1487   -6.0523   25.9074 H   0  0  0  0  0  0
  -22.0599   -2.7597   23.2852 H   0  0  0  0  0  0
  -22.4112  -11.9900   22.4772 H   0  0  0  0  0  0
  -21.1128  -13.1290   22.2619 H   0  0  0  0  0  0
  -24.6605  -15.8379   20.5078 H   0  0  0  0  0  0
  -26.2759  -15.6227   20.0647 H   0  0  0  0  0  0
  -26.7125  -32.5507   23.1165 H   0  0  0  0  0  0
  -25.0051  -33.9764   25.0466 H   0  0  0  0  0  0
  -22.6953  -31.3102   21.4142 H   0  0  0  0  0  0
  -23.3740  -35.9655   23.3313 H   0  0  0  0  0  0
  -24.3576  -36.8930   22.2050 H   0  0  0  0  0  0
  -23.7254  -37.6529   23.6650 H   0  0  0  0  0  0
  -26.0583  -31.5880   20.6031 H   0  0  0  0  0  0
  -26.8224  -30.8706   21.9931 H   0  0  0  0  0  0
  -28.0931  -29.0606   21.1867 H   0  0  0  0  0  0
  -26.0074  -26.0077   18.9322 H   0  0  0  0  0  0
  -23.9749  -27.3243   19.0009 H   0  0  0  0  0  0
  -23.7278  -30.6088   19.4078 H   0  0  0  0  0  0
  -22.7367  -29.2555   19.8631 H   0  0  0  0  0  0
  -25.1285  -36.1976   25.0829 H   0  0  0  0  0  0
  -20.9945  -28.3216   24.1432 H   0  0  0  0  0  0
  -20.5647  -26.2261   23.3605 H   0  0  0  0  0  0
  -21.6633  -26.7418   22.1216 H   0  0  0  0  0  0
  -19.6898  -25.6290   21.1226 H   0  0  0  0  0  0
  -19.6684  -27.3186   20.6735 H   0  0  0  0  0  0
  -17.4189  -26.6659   21.4014 H   0  0  0  0  0  0
  -18.0317  -26.0044   22.9000 H   0  0  0  0  0  0
  -19.7934  -30.7235   24.2277 H   0  0  0  0  0  0
  -17.5020  -31.6256   24.5153 H   0  0  0  0  0  0
  -15.5349  -30.2981   23.7646 H   0  0  0  0  0  0
  -15.8663  -28.0819   22.7050 H   0  0  0  0  0  0
  -24.5927  -30.7031   25.7835 H   0  0  0  0  0  0
  -24.8914  -32.2834   26.4946 H   0  0  0  0  0  0
  -25.8103  -30.8871   27.0245 H   0  0  0  0  0  0
  -26.2868  -29.6784   24.1194 H   0  0  0  0  0  0
  -27.4103  -29.7296   25.4598 H   0  0  0  0  0  0
  -27.8704  -30.4365   23.9288 H   0  0  0  0  0  0
  -27.2691  -33.3617   26.2092 H   0  0  0  0  0  0
  -28.3851  -32.6881   25.0306 H   0  0  0  0  0  0
  -28.0743  -31.8429   26.5390 H   0  0  0  0  0  0
  -28.2603  -38.0100   24.7510 H   0  0  0  0  0  0
  -28.1075  -36.2632   24.6295 H   0  0  0  0  0  0
  -27.2296  -37.1477   25.8867 H   0  0  0  0  0  0
  -20.9318  -29.8795   21.6984 H   0  0  0  0  0  0
  -26.0182  -38.2875   24.1410 H   0  0  0  0  0  0
  -29.6425  -17.9635   19.2593 H   0  0  0  0  0  0
  -29.8869  -20.4115   19.2901 H   0  0  0  0  0  0
  -29.3818  -20.3984   23.5773 H   0  0  0  0  0  0
  -30.8636  -22.9489   23.0917 H   0  0  0  0  0  0
  -31.6755  -23.0476   21.5277 H   0  0  0  0  0  0
  -31.6925  -21.5425   22.4297 H   0  0  0  0  0  0
  -30.8061  -16.1246   23.4759 H   0  0  0  0  0  0
  -31.8289  -16.6990   22.1484 H   0  0  0  0  0  0
  -32.0275  -15.0715   22.7931 H   0  0  0  0  0  0
  -28.3865  -15.9794   22.1118 H   0  0  0  0  0  0
  -28.6668  -16.0078   20.4023 H   0  0  0  0  0  0
  -30.2193  -24.8112   20.8571 H   0  0  0  0  0  0
  -28.8047  -24.4900   21.8277 H   0  0  0  0  0  0
  -29.8865  -22.7628   19.5340 H   0  0  0  0  0  0
  -28.2862  -22.5239   20.1957 H   0  0  0  0  0  0
  -27.3417  -24.8146   19.9546 H   0  0  0  0  0  0
  -28.6590  -25.0809   18.8288 H   0  0  0  0  0  0
  1 25  1  0  0  0
  1 30  2  0  0  0
  1 84  1  0  0  0
  2  3  1  0  0  0
  2 25  1  0  0  0
  2 86  1  0  0  0
  2 87  1  0  0  0
  3  4  1  0  0  0
  3 88  1  0  0  0
  3 89  1  0  0  0
  4  5  1  0  0  0
  4 90  1  0  0  0
  4 91  1  0  0  0
  5  6  1  0  0  0
  5 26  1  0  0  0
  5 92  1  0  0  0
  6 25  1  0  0  0
  6 93  1  0  0  0
  6 94  1  0  0  0
  7  8  2  0  0  0
  7 26  1  0  0  0
  7 29  1  0  0  0
  8  9  1  0  0  0
  8 22  1  0  0  0
  9 10  1  0  0  0
  9 27  2  0  0  0
 10 11  2  0  0  0
 10 15  1  0  0  0
 11 12  1  0  0  0
 11 95  1  0  0  0
 12 13  2  0  0  0
 12 96  1  0  0  0
 13 14  1  0  0  0
 13 31  1  0  0  0
 14 15  2  0  0  0
 14 97  1  0  0  0
 15 98  1  0  0  0
 16 17  2  0  0  0
 16 21  1  0  0  0
 16 31  1  0  0  0
 17 18  1  0  0  0
 17 99  1  0  0  0
 18 19  2  0  0  0
 18100  1  0  0  0
 19 20  1  0  0  0
 19 24  1  0  0  0
 20 21  2  0  0  0
 20101  1  0  0  0
 21 23  1  0  0  0
 22 28  1  0  0  0
 22 32  2  0  0  0
 26 27  1  0  0  0
 28102  1  0  0  0
 28103  1  0  0  0
 29104  1  0  0  0
 29105  1  0  0  0
 33 34  1  0  0  0
 33 66  1  0  0  0
 33 70  2  0  0  0
 34 36  1  0  0  0
 34 59  1  0  0  0
 34106  1  0  0  0
 35 44  2  0  0  0
 35 45  1  0  0  0
 35 68  1  0  0  0
 36 56  1  0  0  0
 36107  1  0  0  0
 37 39  1  0  0  0
 37 47  1  0  0  0
 37 66  1  0  0  0
 37108  1  0  0  0
 38 43  2  0  0  0
 38 46  1  0  0  0
 38 47  1  0  0  0
 39 64  1  0  0  0
 39 67  2  0  0  0
 40 52  1  0  0  0
 40 53  2  0  0  0
 40 58  1  0  0  0
 41109  1  0  0  0
 41110  1  0  0  0
 41111  1  0  0  0
 41 48  1  0  0  0
 42 43  1  0  0  0
 42 66  1  0  0  0
 42112  1  0  0  0
 42113  1  0  0  0
 43 44  1  0  0  0
 44114  1  0  0  0
 45 46  2  0  0  0
 45115  1  0  0  0
 46116  1  0  0  0
 47117  1  0  0  0
 47118  1  0  0  0
 48 56  1  0  0  0
 48 65  1  0  0  0
 48119  1  0  0  0
 49 50  1  0  0  0
 49 53  1  0  0  0
 49 64  1  0  0  0
 49120  1  0  0  0
 50 51  1  0  0  0
 50121  1  0  0  0
 50122  1  0  0  0
 51 52  1  0  0  0
 51123  1  0  0  0
 51124  1  0  0  0
 52125  1  0  0  0
 52126  1  0  0  0
 53 54  1  0  0  0
 54 55  2  0  0  0
 54127  1  0  0  0
 55 57  1  0  0  0
 55128  1  0  0  0
 56 69  2  0  0  0
 57 58  2  0  0  0
 57129  1  0  0  0
 58130  1  0  0  0
 59 60  1  0  0  0
 59 61  1  0  0  0
 59 62  1  0  0  0
 60131  1  0  0  0
 60132  1  0  0  0
 60133  1  0  0  0
 61134  1  0  0  0
 61135  1  0  0  0
 61136  1  0  0  0
 62137  1  0  0  0
 62138  1  0  0  0
 62139  1  0  0  0
 63 65  1  0  0  0
 63140  1  0  0  0
 63141  1  0  0  0
 63142  1  0  0  0
 64143  1  0  0  0
 65144  1  0  0  0
 68 82  1  0  0  0
 71 72  2  0  0  0
 71 74  1  0  0  0
 71145  1  0  0  0
 72 75  1  0  0  0
 72146  1  0  0  0
 73 75  2  0  0  0
 73 76  1  0  0  0
 73147  1  0  0  0
 74 76  2  0  0  0
 74 79  1  0  0  0
 75 83  1  0  0  0
 76 85  1  0  0  0
 77 83  1  0  0  0
 77148  1  0  0  0
 77149  1  0  0  0
 77150  1  0  0  0
 78 84  1  0  0  0
 78151  1  0  0  0
 78152  1  0  0  0
 78153  1  0  0  0
 79 84  1  0  0  0
 79154  1  0  0  0
 79155  1  0  0  0
 80 81  1  0  0  0
 80 82  1  0  0  0
 80156  1  0  0  0
 80157  1  0  0  0
 81 83  1  0  0  0
 81158  1  0  0  0
 81159  1  0  0  0
 82160  1  0  0  0
 82161  1  0  0  0
M  ISO  4   1 100  68 101  82 101  84 100
M  END
> <chiral flag>
0

> <version>
0

> <s_m_source_file>
/data/baiqing/PycharmProjects/Reinvent-master-3.2/result/LINK_invent/BTK/process_docking_weight1_custom_product_contain_oxygen_bond_distance_aromatic_linkinvent_7_9_3/rearranged_h_0017.sdf

> <i_m_source_file_index>
48

> <r_mmod_Potential_Energy-OPLS-2005>
108.428802490234

> <r_mmod_Stretch_Energy-OPLS-2005>
44.937442779541

> <r_mmod_Bend_Energy-OPLS-2005>
110.963203430176

> <r_mmod_Torsional_Energy-OPLS-2005>
274.612030029297

> <r_mmod_Improper_Torsional_Energy-OPLS-2005>
7.38503885269165

> <r_mmod_Van_der_Waal_Energy-OPLS-2005>
158.607894897461

> <r_mmod_Electrostatic_Energy-OPLS-2005>
-295.229187011719

> <r_mmod_Solvation_Energy-OPLS-2005>
-208.233032226562

> <b_mmod_Minimization_Converged-OPLS-2005>
0

> <r_mmod_RMS_Derivative-OPLS-2005>
1.12671661376953

$$$$
49
                    3D
 Structure written by MMmdl.
172181  0  0  1  0            999 V2000
  -30.8670  -14.3952   20.5707 C   0  0  0  0  0  0
  -30.3918  -12.2848   19.4001 C   0  0  0  0  0  0
  -29.4632  -12.5099   18.1980 C   0  0  0  0  0  0
  -28.0008  -12.3429   18.6361 C   0  0  0  0  0  0
  -27.6691  -13.2019   19.8820 C   0  0  2  0  0  0
  -28.7372  -13.0319   20.9997 C   0  0  0  0  0  0
  -25.2575  -13.8113   20.5711 C   0  0  0  0  0  0
  -24.1834  -13.0387   20.9268 C   0  0  0  0  0  0
  -24.6413  -11.6868   20.8883 C   0  0  0  0  0  0
  -23.9030  -10.4238   21.0438 C   0  0  0  0  0  0
  -24.3573   -9.4152   21.9208 C   0  0  0  0  0  0
  -23.6259   -8.2194   22.0744 C   0  0  0  0  0  0
  -22.4232   -8.0245   21.3556 C   0  0  0  0  0  0
  -21.9892   -9.0195   20.4636 C   0  0  0  0  0  0
  -22.7200  -10.2097   20.3049 C   0  0  0  0  0  0
  -21.6818   -6.0702   22.5269 C   0  0  0  0  0  0
  -21.4017   -6.5620   23.8204 C   0  0  0  0  0  0
  -21.3675   -5.6786   24.9172 C   0  0  0  0  0  0
  -21.6051   -4.3048   24.7233 C   0  0  0  0  0  0
  -21.8800   -3.8123   23.4352 C   0  0  0  0  0  0
  -21.9184   -4.6933   22.3405 C   0  0  0  0  0  0
  -22.7835  -13.5199   21.1876 C   0  0  0  0  0  0
  -22.1645   -4.2104   21.0991 F   0  0  0  0  0  0
  -21.5640   -3.4540   25.7763 F   0  0  0  0  0  0
  -30.0745  -13.2950   20.4233 N   0  0  0  0  0  0
  -26.3056  -12.9318   20.3526 N   0  0  0  0  0  0
  -25.9344  -11.6489   20.5943 N   0  0  0  0  0  0
  -22.0458  -12.8189   22.0405 N   0  0  0  0  0  0
  -25.4202  -15.1810   20.3739 N   0  0  0  0  0  0
  -31.9237  -14.5363   19.9483 O   0  0  0  0  0  0
  -21.6605   -6.8840   21.4220 O   0  0  0  0  0  0
  -22.3553  -14.5511   20.6730 O   0  0  0  0  0  0
  -24.6127  -31.8741   23.2113 C   0  0  0  0  0  0
  -25.9002  -32.4847   23.8467 C   0  0  1  0  0  0
  -27.2220  -27.4489   20.1313 C   0  0  0  0  0  0
  -25.5893  -33.8658   24.2388 N   0  0  0  0  0  0
  -23.3987  -30.5089   21.5393 C   0  0  2  0  0  0
  -24.8556  -28.9781   20.1241 C   0  0  0  0  0  0
  -22.7350  -29.4858   22.4914 C   0  0  0  0  0  0
  -18.0297  -28.1160   22.8428 C   0  0  0  0  0  0
  -24.1477  -36.7315   23.2630 C   0  0  0  0  0  0
  -25.9305  -30.8706   21.3522 C   0  0  0  0  0  0
  -26.0163  -29.4994   20.7071 C   0  0  0  0  0  0
  -27.2084  -28.7406   20.7108 C   0  0  0  0  0  0
  -26.0506  -26.9595   19.5187 C   0  0  0  0  0  0
  -24.8618  -27.7007   19.5391 C   0  0  0  0  0  0
  -23.6134  -29.8304   20.1627 C   0  0  0  0  0  0
  -25.4074  -36.3124   24.0343 C   0  0  1  0  0  0
  -20.5900  -28.3716   23.1144 C   0  0  2  0  0  0
  -20.6942  -26.9454   22.5245 C   0  0  0  0  0  0
  -19.5812  -26.6067   21.5281 C   0  0  0  0  0  0
  -18.2038  -26.7596   22.1757 C   0  0  0  0  0  0
  -19.1499  -28.8745   23.2782 C   0  0  0  0  0  0
  -18.9373  -30.1461   23.8683 C   0  0  0  0  0  0
  -17.6280  -30.6381   24.0310 C   0  0  0  0  0  0
  -25.8987  -34.9482   23.5118 C   0  0  0  0  0  0
  -16.5211  -29.8758   23.6136 C   0  0  0  0  0  0
  -16.7231  -28.6175   23.0246 C   0  0  0  0  0  0
  -26.4482  -31.6577   25.0750 C   0  0  0  0  0  0
  -25.3776  -31.3679   26.1522 C   0  0  0  0  0  0
  -27.0316  -30.3037   24.6035 C   0  0  0  0  0  0
  -27.6057  -32.4321   25.7482 C   0  0  0  0  0  0
  -27.5576  -37.1826   24.8465 C   0  0  0  0  0  0
  -21.4124  -29.3042   22.3448 N   0  0  0  0  0  0
  -26.4274  -37.3800   23.9416 N   0  0  0  0  0  0
  -24.6649  -31.0982   22.0935 N   0  0  0  0  0  0
  -23.4057  -28.8488   23.3068 O   0  0  0  0  0  0
  -28.3415  -26.6550   20.1965 O   0  0  0  0  0  0
  -26.5593  -34.8906   22.4691 O   0  0  0  0  0  0
  -23.5327  -32.1460   23.7508 O   0  0  0  0  0  0
  -29.8198  -19.9528   22.0817 C   0  0  0  0  0  0
  -30.1737  -18.6685   21.6352 C   0  0  0  0  0  0
  -28.4616  -20.3082   22.1968 C   0  0  0  0  0  0
  -27.8409  -18.0863   21.4406 C   0  0  0  0  0  0
  -29.1916  -17.6802   21.4149 C   0  0  0  0  0  0
  -27.4652  -19.3991   21.7692 C   0  0  0  0  0  0
  -32.6578  -16.4223   22.4645 C   0  0  0  0  0  0
  -31.6467  -16.6264   23.5763 C   0  0  0  0  0  0
  -31.4603  -15.4859   22.5920 C   0  0  0  0  0  0
  -24.1139  -21.3205   21.5538 C   0  0  0  0  0  0
  -29.4726  -16.2502   20.9478 C   0  0  0  0  0  0
  -25.9818  -19.7675   21.5903 C   0  0  0  0  0  0
  -26.7022  -23.4871   21.3907 C   0  0  0  0  0  0
  -27.7210  -24.2620   20.5151 C   0  0  0  0  0  0
  -26.3178  -22.1230   20.7639 C   0  0  0  0  0  0
  -28.2110  -25.5845   21.1499 C   0  0  0  0  0  0
  -30.5381  -15.3409   21.4662 N   0  0  0  0  0  0
  -25.5866  -21.2036   21.7000 N   0  3  1  0  0  0
  -31.4332  -12.3018   19.0873 H   0  0  0  0  0  0
  -30.2255  -11.2852   19.8127 H   0  0  0  0  0  0
  -29.6941  -11.8068   17.3961 H   0  0  0  0  0  0
  -29.6144  -13.5103   17.7816 H   0  0  0  0  0  0
  -27.8428  -11.2868   18.8683 H   0  0  0  0  0  0
  -27.3233  -12.5664   17.8135 H   0  0  0  0  0  0
  -27.6967  -14.2422   19.5569 H   0  0  0  0  0  0
  -28.7084  -12.0170   21.3973 H   0  0  0  0  0  0
  -28.5179  -13.6754   21.8507 H   0  0  0  0  0  0
  -25.2717   -9.5598   22.4781 H   0  0  0  0  0  0
  -23.9935   -7.4566   22.7472 H   0  0  0  0  0  0
  -21.0805   -8.8691   19.8946 H   0  0  0  0  0  0
  -22.3653  -10.9616   19.6136 H   0  0  0  0  0  0
  -21.2013   -7.6123   23.9695 H   0  0  0  0  0  0
  -21.1533   -6.0531   25.9088 H   0  0  0  0  0  0
  -22.0579   -2.7566   23.2872 H   0  0  0  0  0  0
  -22.4021  -11.9816   22.4853 H   0  0  0  0  0  0
  -21.1049  -13.1214   22.2566 H   0  0  0  0  0  0
  -24.5999  -15.7718   20.3460 H   0  0  0  0  0  0
  -26.1780  -15.5421   19.8192 H   0  0  0  0  0  0
  -26.7080  -32.5657   23.1271 H   0  0  0  0  0  0
  -25.0034  -33.9826   25.0539 H   0  0  0  0  0  0
  -22.6964  -31.3284   21.3753 H   0  0  0  0  0  0
  -23.3727  -35.9678   23.3305 H   0  0  0  0  0  0
  -24.3536  -36.8940   22.2056 H   0  0  0  0  0  0
  -23.7282  -37.6519   23.6639 H   0  0  0  0  0  0
  -26.0214  -31.6431   20.5809 H   0  0  0  0  0  0
  -26.8272  -30.9424   21.9576 H   0  0  0  0  0  0
  -28.0930  -29.1361   21.1883 H   0  0  0  0  0  0
  -26.0264  -25.9925   19.0466 H   0  0  0  0  0  0
  -23.9577  -27.2799   19.1227 H   0  0  0  0  0  0
  -23.7272  -30.5828   19.3826 H   0  0  0  0  0  0
  -22.7506  -29.2329   19.8628 H   0  0  0  0  0  0
  -25.1262  -36.1957   25.0856 H   0  0  0  0  0  0
  -20.9984  -28.3415   24.1217 H   0  0  0  0  0  0
  -20.6359  -26.2248   23.3367 H   0  0  0  0  0  0
  -21.6595  -26.7680   22.0709 H   0  0  0  0  0  0
  -19.7044  -25.6018   21.1222 H   0  0  0  0  0  0
  -19.6754  -27.2831   20.6840 H   0  0  0  0  0  0
  -17.4238  -26.6048   21.4265 H   0  0  0  0  0  0
  -18.0471  -25.9832   22.9225 H   0  0  0  0  0  0
  -19.7929  -30.7391   24.1854 H   0  0  0  0  0  0
  -17.4747  -31.6145   24.4676 H   0  0  0  0  0  0
  -15.5153  -30.2632   23.7073 H   0  0  0  0  0  0
  -15.8728  -28.0451   22.6753 H   0  0  0  0  0  0
  -24.5897  -30.7058   25.7909 H   0  0  0  0  0  0
  -24.9013  -32.2856   26.4994 H   0  0  0  0  0  0
  -25.8164  -30.8860   27.0255 H   0  0  0  0  0  0
  -26.2851  -29.6800   24.1092 H   0  0  0  0  0  0
  -27.4173  -29.7235   25.4426 H   0  0  0  0  0  0
  -27.8633  -30.4417   23.9103 H   0  0  0  0  0  0
  -27.2612  -33.3569   26.2082 H   0  0  0  0  0  0
  -28.3790  -32.6965   25.0268 H   0  0  0  0  0  0
  -28.0746  -31.8441   26.5366 H   0  0  0  0  0  0
  -28.2593  -38.0138   24.7486 H   0  0  0  0  0  0
  -28.1073  -36.2653   24.6273 H   0  0  0  0  0  0
  -27.2279  -37.1455   25.8874 H   0  0  0  0  0  0
  -20.9432  -29.8327   21.6166 H   0  0  0  0  0  0
  -26.0136  -38.2854   24.1467 H   0  0  0  0  0  0
  -30.5860  -20.6777   22.3306 H   0  0  0  0  0  0
  -31.2187  -18.4624   21.4857 H   0  0  0  0  0  0
  -28.2161  -21.3159   22.5085 H   0  0  0  0  0  0
  -27.0698  -17.3756   21.1573 H   0  0  0  0  0  0
  -32.7106  -17.1072   21.6256 H   0  0  0  0  0  0
  -33.6294  -16.0464   22.7704 H   0  0  0  0  0  0
  -32.0254  -16.3748   24.5657 H   0  0  0  0  0  0
  -30.9836  -17.4807   23.5802 H   0  0  0  0  0  0
  -31.7391  -14.5257   23.0284 H   0  0  0  0  0  0
  -23.7479  -22.3064   21.8236 H   0  0  0  0  0  0
  -23.5989  -20.5992   22.1899 H   0  0  0  0  0  0
  -23.8180  -21.1236   20.5262 H   0  0  0  0  0  0
  -28.5342  -15.7209   21.0674 H   0  0  0  0  0  0
  -29.5883  -16.3744   19.8655 H   0  0  0  0  0  0
  -25.4187  -19.1684   22.3030 H   0  0  0  0  0  0
  -25.6837  -19.4208   20.5994 H   0  0  0  0  0  0
  -25.7921  -24.0792   21.5256 H   0  0  0  0  0  0
  -27.1143  -23.3542   22.3936 H   0  0  0  0  0  0
  -27.2643  -24.4159   19.5449 H   0  0  0  0  0  0
  -28.5917  -23.6385   20.3030 H   0  0  0  0  0  0
  -27.2141  -21.6348   20.3996 H   0  0  0  0  0  0
  -25.7448  -22.2960   19.8542 H   0  0  0  0  0  0
  -29.1722  -25.4095   21.6480 H   0  0  0  0  0  0
  -27.5398  -25.8668   21.9643 H   0  0  0  0  0  0
  -25.8010  -21.4612   22.6526 H   0  0  0  0  0  0
  1 25  1  0  0  0
  1 30  2  0  0  0
  1 87  1  0  0  0
  2  3  1  0  0  0
  2 25  1  0  0  0
  2 89  1  0  0  0
  2 90  1  0  0  0
  3  4  1  0  0  0
  3 91  1  0  0  0
  3 92  1  0  0  0
  4  5  1  0  0  0
  4 93  1  0  0  0
  4 94  1  0  0  0
  5  6  1  0  0  0
  5 26  1  0  0  0
  5 95  1  0  0  0
  6 25  1  0  0  0
  6 96  1  0  0  0
  6 97  1  0  0  0
  7  8  2  0  0  0
  7 26  1  0  0  0
  7 29  1  0  0  0
  8  9  1  0  0  0
  8 22  1  0  0  0
  9 10  1  0  0  0
  9 27  2  0  0  0
 10 11  2  0  0  0
 10 15  1  0  0  0
 11 12  1  0  0  0
 11 98  1  0  0  0
 12 13  2  0  0  0
 12 99  1  0  0  0
 13 14  1  0  0  0
 13 31  1  0  0  0
 14 15  2  0  0  0
 14100  1  0  0  0
 15101  1  0  0  0
 16 17  2  0  0  0
 16 21  1  0  0  0
 16 31  1  0  0  0
 17 18  1  0  0  0
 17102  1  0  0  0
 18 19  2  0  0  0
 18103  1  0  0  0
 19 20  1  0  0  0
 19 24  1  0  0  0
 20 21  2  0  0  0
 20104  1  0  0  0
 21 23  1  0  0  0
 22 28  1  0  0  0
 22 32  2  0  0  0
 26 27  1  0  0  0
 28105  1  0  0  0
 28106  1  0  0  0
 29107  1  0  0  0
 29108  1  0  0  0
 33 34  1  0  0  0
 33 66  1  0  0  0
 33 70  2  0  0  0
 34 36  1  0  0  0
 34 59  1  0  0  0
 34109  1  0  0  0
 35 44  2  0  0  0
 35 45  1  0  0  0
 35 68  1  0  0  0
 36 56  1  0  0  0
 36110  1  0  0  0
 37 39  1  0  0  0
 37 47  1  0  0  0
 37 66  1  0  0  0
 37111  1  0  0  0
 38 43  2  0  0  0
 38 46  1  0  0  0
 38 47  1  0  0  0
 39 64  1  0  0  0
 39 67  2  0  0  0
 40 52  1  0  0  0
 40 53  2  0  0  0
 40 58  1  0  0  0
 41112  1  0  0  0
 41113  1  0  0  0
 41114  1  0  0  0
 41 48  1  0  0  0
 42 43  1  0  0  0
 42 66  1  0  0  0
 42115  1  0  0  0
 42116  1  0  0  0
 43 44  1  0  0  0
 44117  1  0  0  0
 45 46  2  0  0  0
 45118  1  0  0  0
 46119  1  0  0  0
 47120  1  0  0  0
 47121  1  0  0  0
 48 56  1  0  0  0
 48 65  1  0  0  0
 48122  1  0  0  0
 49 50  1  0  0  0
 49 53  1  0  0  0
 49 64  1  0  0  0
 49123  1  0  0  0
 50 51  1  0  0  0
 50124  1  0  0  0
 50125  1  0  0  0
 51 52  1  0  0  0
 51126  1  0  0  0
 51127  1  0  0  0
 52128  1  0  0  0
 52129  1  0  0  0
 53 54  1  0  0  0
 54 55  2  0  0  0
 54130  1  0  0  0
 55 57  1  0  0  0
 55131  1  0  0  0
 56 69  2  0  0  0
 57 58  2  0  0  0
 57132  1  0  0  0
 58133  1  0  0  0
 59 60  1  0  0  0
 59 61  1  0  0  0
 59 62  1  0  0  0
 60134  1  0  0  0
 60135  1  0  0  0
 60136  1  0  0  0
 61137  1  0  0  0
 61138  1  0  0  0
 61139  1  0  0  0
 62140  1  0  0  0
 62141  1  0  0  0
 62142  1  0  0  0
 63 65  1  0  0  0
 63143  1  0  0  0
 63144  1  0  0  0
 63145  1  0  0  0
 64146  1  0  0  0
 65147  1  0  0  0
 68 86  1  0  0  0
 71 72  2  0  0  0
 71 73  1  0  0  0
 71148  1  0  0  0
 72 75  1  0  0  0
 72149  1  0  0  0
 73 76  2  0  0  0
 73150  1  0  0  0
 74 75  2  0  0  0
 74 76  1  0  0  0
 74151  1  0  0  0
 75 81  1  0  0  0
 76 82  1  0  0  0
 77 78  1  0  0  0
 77 79  1  0  0  0
 77152  1  0  0  0
 77153  1  0  0  0
 78 79  1  0  0  0
 78154  1  0  0  0
 78155  1  0  0  0
 79 87  1  0  0  0
 79156  1  0  0  0
 80157  1  0  0  0
 80158  1  0  0  0
 80159  1  0  0  0
 80 88  1  0  0  0
 81 87  1  0  0  0
 81160  1  0  0  0
 81161  1  0  0  0
 82 88  1  0  0  0
 82162  1  0  0  0
 82163  1  0  0  0
 83 84  1  0  0  0
 83 85  1  0  0  0
 83164  1  0  0  0
 83165  1  0  0  0
 84 86  1  0  0  0
 84166  1  0  0  0
 84167  1  0  0  0
 85 88  1  0  0  0
 85168  1  0  0  0
 85169  1  0  0  0
 86170  1  0  0  0
 86171  1  0  0  0
 88172  1  0  0  0
M  CHG  1  88   1
M  ISO  4   1 100  68 101  86 101  87 100
M  END
> <chiral flag>
0

> <version>
0

> <s_m_source_file>
/data/baiqing/PycharmProjects/Reinvent-master-3.2/result/LINK_invent/BTK/process_docking_weight1_custom_product_contain_oxygen_bond_distance_aromatic_linkinvent_7_9_3/rearranged_h_0017.sdf

> <i_m_source_file_index>
49

> <r_mmod_Potential_Energy-OPLS-2005>
202.450668334961

> <r_mmod_Stretch_Energy-OPLS-2005>
46.7525367736816

> <r_mmod_Bend_Energy-OPLS-2005>
176.907928466797

> <r_mmod_Torsional_Energy-OPLS-2005>
420.040771484375

> <r_mmod_Improper_Torsional_Energy-OPLS-2005>
6.02532577514648

> <r_mmod_Van_der_Waal_Energy-OPLS-2005>
166.747467041016

> <r_mmod_Electrostatic_Energy-OPLS-2005>
-206.033050537109

> <r_mmod_Solvation_Energy-OPLS-2005>
-429.340881347656

> <b_mmod_Minimization_Converged-OPLS-2005>
0

> <r_mmod_RMS_Derivative-OPLS-2005>
15.4378643035889

$$$$
50
                    3D
 Structure written by MMmdl.
158166  0  0  1  0            999 V2000
  -30.5898  -14.6692   20.5111 C   0  0  0  0  0  0
  -30.4515  -12.4136   19.4515 C   0  0  0  0  0  0
  -29.5123  -12.5150   18.2266 C   0  0  0  0  0  0
  -28.0355  -12.3454   18.6404 C   0  0  0  0  0  0
  -27.6565  -13.2129   19.8702 C   0  0  2  0  0  0
  -28.7031  -13.0529   20.9968 C   0  0  0  0  0  0
  -25.2540  -13.8125   20.5640 C   0  0  0  0  0  0
  -24.1807  -13.0400   20.9129 C   0  0  0  0  0  0
  -24.6392  -11.6880   20.8712 C   0  0  0  0  0  0
  -23.9060  -10.4273   21.0394 C   0  0  0  0  0  0
  -24.3611   -9.4198   21.9179 C   0  0  0  0  0  0
  -23.6284   -8.2238   22.0753 C   0  0  0  0  0  0
  -22.4263   -8.0276   21.3547 C   0  0  0  0  0  0
  -21.9899   -9.0251   20.4650 C   0  0  0  0  0  0
  -22.7230  -10.2125   20.3051 C   0  0  0  0  0  0
  -21.6856   -6.0730   22.5278 C   0  0  0  0  0  0
  -21.4017   -6.5633   23.8212 C   0  0  0  0  0  0
  -21.3657   -5.6785   24.9174 C   0  0  0  0  0  0
  -21.6042   -4.3048   24.7225 C   0  0  0  0  0  0
  -21.8822   -3.8141   23.4347 C   0  0  0  0  0  0
  -21.9197   -4.6957   22.3403 C   0  0  0  0  0  0
  -22.7839  -13.5211   21.1818 C   0  0  0  0  0  0
  -22.1665   -4.2142   21.0981 F   0  0  0  0  0  0
  -21.5627   -3.4534   25.7740 F   0  0  0  0  0  0
  -30.0179  -13.4221   20.4395 N   0  0  0  0  0  0
  -26.3009  -12.9324   20.3365 N   0  0  0  0  0  0
  -25.9333  -11.6476   20.5775 N   0  0  0  0  0  0
  -22.0499  -12.8216   22.0399 N   0  0  0  0  0  0
  -25.4190  -15.1836   20.4067 N   0  0  0  0  0  0
  -31.7331  -14.8810   20.0927 O   0  0  0  0  0  0
  -21.6635   -6.8871   21.4240 O   0  0  0  0  0  0
  -22.3516  -14.5528   20.6691 O   0  0  0  0  0  0
  -24.6249  -31.8581   23.2001 C   0  0  0  0  0  0
  -25.9096  -32.4773   23.8332 C   0  0  1  0  0  0
  -27.2345  -27.3204   20.1306 C   0  0  0  0  0  0
  -25.5913  -33.8573   24.2267 N   0  0  0  0  0  0
  -23.4197  -30.4785   21.5415 C   0  0  2  0  0  0
  -24.8692  -28.9237   20.1164 C   0  0  0  0  0  0
  -22.7467  -29.4614   22.4933 C   0  0  0  0  0  0
  -18.0286  -28.1389   22.8486 C   0  0  0  0  0  0
  -24.1488  -36.7289   23.2641 C   0  0  0  0  0  0
  -25.9582  -30.7915   21.3677 C   0  0  0  0  0  0
  -26.0357  -29.4158   20.7155 C   0  0  0  0  0  0
  -27.2238  -28.6278   20.7051 C   0  0  0  0  0  0
  -26.0457  -26.8671   19.5227 C   0  0  0  0  0  0
  -24.8754  -27.6549   19.5102 C   0  0  0  0  0  0
  -23.6365  -29.8050   20.1595 C   0  0  0  0  0  0
  -25.4112  -36.3081   24.0331 C   0  0  1  0  0  0
  -20.5884  -28.3685   23.1293 C   0  0  2  0  0  0
  -20.6772  -26.9410   22.5417 C   0  0  0  0  0  0
  -19.5755  -26.6395   21.5209 C   0  0  0  0  0  0
  -18.1931  -26.7936   22.1616 C   0  0  0  0  0  0
  -19.1537  -28.8851   23.2886 C   0  0  0  0  0  0
  -18.9459  -30.1452   23.8903 C   0  0  0  0  0  0
  -17.6466  -30.6590   24.0566 C   0  0  0  0  0  0
  -25.9045  -34.9451   23.5100 C   0  0  0  0  0  0
  -16.5355  -29.9091   23.6335 C   0  0  0  0  0  0
  -16.7274  -28.6507   23.0354 C   0  0  0  0  0  0
  -26.4488  -31.6591   25.0703 C   0  0  0  0  0  0
  -25.3737  -31.3738   26.1445 C   0  0  0  0  0  0
  -27.0324  -30.3016   24.6152 C   0  0  0  0  0  0
  -27.6048  -32.4327   25.7469 C   0  0  0  0  0  0
  -27.5578  -37.1796   24.8462 C   0  0  0  0  0  0
  -21.4179  -29.3035   22.3680 N   0  0  0  0  0  0
  -26.4290  -37.3778   23.9409 N   0  0  0  0  0  0
  -24.6864  -31.0599   22.0941 N   0  0  0  0  0  0
  -23.4187  -28.8160   23.3021 O   0  0  0  0  0  0
  -28.3728  -26.5057   20.1141 O   0  0  0  0  0  0
  -26.5618  -34.8921   22.4670 O   0  0  0  0  0  0
  -23.5415  -32.1374   23.7335 O   0  0  0  0  0  0
  -30.1916  -19.4844   20.2986 C   0  0  0  0  0  0
  -30.5271  -18.0804   20.3368 C   0  0  0  0  0  0
  -28.0362  -18.9909   21.2001 C   0  0  0  0  0  0
  -28.9306  -20.0015   20.7404 C   0  0  0  0  0  0
  -29.6098  -17.1051   20.8263 C   0  0  0  0  0  0
  -28.3642  -17.6123   21.2509 C   0  0  0  0  0  0
  -28.3065  -21.9067   23.1897 C   0  0  0  0  0  0
  -28.6487  -23.8872   19.7097 C   0  0  0  0  0  0
  -27.6110  -21.8036   21.8250 C   0  0  0  0  0  0
  -29.3710  -22.5473   20.2483 C   0  0  0  0  0  0
  -28.3019  -25.1270   20.6559 C   0  0  0  0  0  0
  -29.7565  -15.6523   20.9721 N   0  0  0  0  0  0
  -28.5389  -21.4084   20.7565 N   0  0  0  0  0  0
  -27.4456  -16.7363   21.7250 F   0  0  0  0  0  0
  -31.4890  -12.5610   19.1460 H   0  0  0  0  0  0
  -30.4075  -11.4147   19.8876 H   0  0  0  0  0  0
  -29.7801  -11.7615   17.4848 H   0  0  0  0  0  0
  -29.6461  -13.4817   17.7387 H   0  0  0  0  0  0
  -27.8778  -11.2915   18.8725 H   0  0  0  0  0  0
  -27.3784  -12.5723   17.8001 H   0  0  0  0  0  0
  -27.6760  -14.2504   19.5358 H   0  0  0  0  0  0
  -28.7234  -12.0222   21.3546 H   0  0  0  0  0  0
  -28.4370  -13.6561   21.8664 H   0  0  0  0  0  0
  -25.2762   -9.5680   22.4746 H   0  0  0  0  0  0
  -23.9999   -7.4631   22.7470 H   0  0  0  0  0  0
  -21.0831   -8.8772   19.8960 H   0  0  0  0  0  0
  -22.3693  -10.9662   19.6154 H   0  0  0  0  0  0
  -21.2012   -7.6141   23.9711 H   0  0  0  0  0  0
  -21.1473   -6.0517   25.9075 H   0  0  0  0  0  0
  -22.0604   -2.7603   23.2850 H   0  0  0  0  0  0
  -22.4118  -11.9881   22.4789 H   0  0  0  0  0  0
  -21.1130  -13.1259   22.2633 H   0  0  0  0  0  0
  -24.6644  -15.8349   20.5878 H   0  0  0  0  0  0
  -26.3145  -15.6432   20.2994 H   0  0  0  0  0  0
  -26.7157  -32.5446   23.1073 H   0  0  0  0  0  0
  -25.0060  -33.9715   25.0412 H   0  0  0  0  0  0
  -22.7139  -31.2984   21.3945 H   0  0  0  0  0  0
  -23.3751  -35.9621   23.3307 H   0  0  0  0  0  0
  -24.3585  -36.8910   22.2057 H   0  0  0  0  0  0
  -23.7240  -37.6490   23.6660 H   0  0  0  0  0  0
  -26.0865  -31.5538   20.5978 H   0  0  0  0  0  0
  -26.8393  -30.8435   21.9958 H   0  0  0  0  0  0
  -28.1246  -29.0087   21.1656 H   0  0  0  0  0  0
  -26.0236  -25.8926   19.0559 H   0  0  0  0  0  0
  -23.9802  -27.2717   19.0398 H   0  0  0  0  0  0
  -23.7574  -30.5772   19.3989 H   0  0  0  0  0  0
  -22.7573  -29.2326   19.8575 H   0  0  0  0  0  0
  -25.1300  -36.1929   25.0825 H   0  0  0  0  0  0
  -20.9979  -28.3257   24.1412 H   0  0  0  0  0  0
  -20.5672  -26.2289   23.3610 H   0  0  0  0  0  0
  -21.6645  -26.7444   22.1214 H   0  0  0  0  0  0
  -19.6916  -25.6309   21.1231 H   0  0  0  0  0  0
  -19.6699  -27.3211   20.6743 H   0  0  0  0  0  0
  -17.4208  -26.6687   21.4012 H   0  0  0  0  0  0
  -18.0326  -26.0077   22.9010 H   0  0  0  0  0  0
  -19.7939  -30.7263   24.2280 H   0  0  0  0  0  0
  -17.5023  -31.6274   24.5166 H   0  0  0  0  0  0
  -15.5357  -30.2997   23.7658 H   0  0  0  0  0  0
  -15.8674  -28.0833   22.7070 H   0  0  0  0  0  0
  -24.5907  -30.7086   25.7790 H   0  0  0  0  0  0
  -24.8935  -32.2910   26.4864 H   0  0  0  0  0  0
  -25.8086  -30.8931   27.0218 H   0  0  0  0  0  0
  -26.2885  -29.6766   24.1197 H   0  0  0  0  0  0
  -27.4042  -29.7280   25.4652 H   0  0  0  0  0  0
  -27.8750  -30.4300   23.9353 H   0  0  0  0  0  0
  -27.2653  -33.3623   26.2050 H   0  0  0  0  0  0
  -28.3853  -32.6899   25.0294 H   0  0  0  0  0  0
  -28.0720  -31.8453   26.5383 H   0  0  0  0  0  0
  -28.2601  -38.0086   24.7513 H   0  0  0  0  0  0
  -28.1072  -36.2623   24.6288 H   0  0  0  0  0  0
  -27.2305  -37.1453   25.8868 H   0  0  0  0  0  0
  -20.9353  -29.8748   21.6888 H   0  0  0  0  0  0
  -26.0171  -38.2854   24.1417 H   0  0  0  0  0  0
  -30.9404  -20.1698   19.9294 H   0  0  0  0  0  0
  -31.5028  -17.7662   19.9946 H   0  0  0  0  0  0
  -27.0415  -19.2286   21.5347 H   0  0  0  0  0  0
  -27.5945  -22.1996   23.9618 H   0  0  0  0  0  0
  -29.1015  -22.6531   23.1825 H   0  0  0  0  0  0
  -28.7433  -20.9547   23.4925 H   0  0  0  0  0  0
  -27.7692  -23.6210   19.1234 H   0  0  0  0  0  0
  -29.3442  -24.2959   18.9763 H   0  0  0  0  0  0
  -27.1773  -22.7722   21.5861 H   0  0  0  0  0  0
  -26.7382  -21.1585   21.8897 H   0  0  0  0  0  0
  -30.1104  -22.8164   21.0040 H   0  0  0  0  0  0
  -29.9515  -22.1532   19.4132 H   0  0  0  0  0  0
  -29.0136  -25.1100   21.4814 H   0  0  0  0  0  0
  -27.3320  -24.9628   21.1267 H   0  0  0  0  0  0
  -28.9189  -15.2469   21.3631 H   0  0  0  0  0  0
  1 25  1  0  0  0
  1 30  2  0  0  0
  1 82  1  0  0  0
  2  3  1  0  0  0
  2 25  1  0  0  0
  2 85  1  0  0  0
  2 86  1  0  0  0
  3  4  1  0  0  0
  3 87  1  0  0  0
  3 88  1  0  0  0
  4  5  1  0  0  0
  4 89  1  0  0  0
  4 90  1  0  0  0
  5  6  1  0  0  0
  5 26  1  0  0  0
  5 91  1  0  0  0
  6 25  1  0  0  0
  6 92  1  0  0  0
  6 93  1  0  0  0
  7  8  2  0  0  0
  7 26  1  0  0  0
  7 29  1  0  0  0
  8  9  1  0  0  0
  8 22  1  0  0  0
  9 10  1  0  0  0
  9 27  2  0  0  0
 10 11  2  0  0  0
 10 15  1  0  0  0
 11 12  1  0  0  0
 11 94  1  0  0  0
 12 13  2  0  0  0
 12 95  1  0  0  0
 13 14  1  0  0  0
 13 31  1  0  0  0
 14 15  2  0  0  0
 14 96  1  0  0  0
 15 97  1  0  0  0
 16 17  2  0  0  0
 16 21  1  0  0  0
 16 31  1  0  0  0
 17 18  1  0  0  0
 17 98  1  0  0  0
 18 19  2  0  0  0
 18 99  1  0  0  0
 19 20  1  0  0  0
 19 24  1  0  0  0
 20 21  2  0  0  0
 20100  1  0  0  0
 21 23  1  0  0  0
 22 28  1  0  0  0
 22 32  2  0  0  0
 26 27  1  0  0  0
 28101  1  0  0  0
 28102  1  0  0  0
 29103  1  0  0  0
 29104  1  0  0  0
 33 34  1  0  0  0
 33 66  1  0  0  0
 33 70  2  0  0  0
 34 36  1  0  0  0
 34 59  1  0  0  0
 34105  1  0  0  0
 35 44  2  0  0  0
 35 45  1  0  0  0
 35 68  1  0  0  0
 36 56  1  0  0  0
 36106  1  0  0  0
 37 39  1  0  0  0
 37 47  1  0  0  0
 37 66  1  0  0  0
 37107  1  0  0  0
 38 43  2  0  0  0
 38 46  1  0  0  0
 38 47  1  0  0  0
 39 64  1  0  0  0
 39 67  2  0  0  0
 40 52  1  0  0  0
 40 53  2  0  0  0
 40 58  1  0  0  0
 41108  1  0  0  0
 41109  1  0  0  0
 41110  1  0  0  0
 41 48  1  0  0  0
 42 43  1  0  0  0
 42 66  1  0  0  0
 42111  1  0  0  0
 42112  1  0  0  0
 43 44  1  0  0  0
 44113  1  0  0  0
 45 46  2  0  0  0
 45114  1  0  0  0
 46115  1  0  0  0
 47116  1  0  0  0
 47117  1  0  0  0
 48 56  1  0  0  0
 48 65  1  0  0  0
 48118  1  0  0  0
 49 50  1  0  0  0
 49 53  1  0  0  0
 49 64  1  0  0  0
 49119  1  0  0  0
 50 51  1  0  0  0
 50120  1  0  0  0
 50121  1  0  0  0
 51 52  1  0  0  0
 51122  1  0  0  0
 51123  1  0  0  0
 52124  1  0  0  0
 52125  1  0  0  0
 53 54  1  0  0  0
 54 55  2  0  0  0
 54126  1  0  0  0
 55 57  1  0  0  0
 55127  1  0  0  0
 56 69  2  0  0  0
 57 58  2  0  0  0
 57128  1  0  0  0
 58129  1  0  0  0
 59 60  1  0  0  0
 59 61  1  0  0  0
 59 62  1  0  0  0
 60130  1  0  0  0
 60131  1  0  0  0
 60132  1  0  0  0
 61133  1  0  0  0
 61134  1  0  0  0
 61135  1  0  0  0
 62136  1  0  0  0
 62137  1  0  0  0
 62138  1  0  0  0
 63 65  1  0  0  0
 63139  1  0  0  0
 63140  1  0  0  0
 63141  1  0  0  0
 64142  1  0  0  0
 65143  1  0  0  0
 68 81  1  0  0  0
 71 72  2  0  0  0
 71 74  1  0  0  0
 71144  1  0  0  0
 72 75  1  0  0  0
 72145  1  0  0  0
 73 74  2  0  0  0
 73 76  1  0  0  0
 73146  1  0  0  0
 74 83  1  0  0  0
 75 76  2  0  0  0
 75 82  1  0  0  0
 76 84  1  0  0  0
 77 79  1  0  0  0
 77147  1  0  0  0
 77148  1  0  0  0
 77149  1  0  0  0
 78 80  1  0  0  0
 78 81  1  0  0  0
 78150  1  0  0  0
 78151  1  0  0  0
 79 83  1  0  0  0
 79152  1  0  0  0
 79153  1  0  0  0
 80 83  1  0  0  0
 80154  1  0  0  0
 80155  1  0  0  0
 81156  1  0  0  0
 81157  1  0  0  0
 82158  1  0  0  0
M  ISO  4   1 100  68 101  81 101  82 100
M  END
> <chiral flag>
0

> <version>
0

> <s_m_source_file>
/data/baiqing/PycharmProjects/Reinvent-master-3.2/result/LINK_invent/BTK/process_docking_weight1_custom_product_contain_oxygen_bond_distance_aromatic_linkinvent_7_9_3/rearranged_h_0017.sdf

> <i_m_source_file_index>
50

> <r_mmod_Potential_Energy-OPLS-2005>
80.5017395019531

> <r_mmod_Stretch_Energy-OPLS-2005>
90.056770324707

> <r_mmod_Bend_Energy-OPLS-2005>
187.848831176758

> <r_mmod_Torsional_Energy-OPLS-2005>
238.075881958008

> <r_mmod_Improper_Torsional_Energy-OPLS-2005>
5.68983364105225

> <r_mmod_Van_der_Waal_Energy-OPLS-2005>
143.257598876953

> <r_mmod_Electrostatic_Energy-OPLS-2005>
-426.571899414062

> <r_mmod_Solvation_Energy-OPLS-2005>
-208.997222900391

> <b_mmod_Minimization_Converged-OPLS-2005>
0

> <r_mmod_RMS_Derivative-OPLS-2005>
0.95570832490921

$$$$
51
                    3D
 Structure written by MMmdl.
161169  0  0  1  0            999 V2000
  -30.8063  -14.4409   20.6560 C   0  0  0  0  0  0
  -30.3939  -12.3157   19.4563 C   0  0  0  0  0  0
  -29.4933  -12.5400   18.2247 C   0  0  0  0  0  0
  -28.0154  -12.3705   18.6153 C   0  0  0  0  0  0
  -27.6528  -13.2080   19.8680 C   0  0  2  0  0  0
  -28.6824  -12.9983   20.9982 C   0  0  0  0  0  0
  -25.2537  -13.8155   20.5658 C   0  0  0  0  0  0
  -24.1800  -13.0431   20.9135 C   0  0  0  0  0  0
  -24.6351  -11.6898   20.8676 C   0  0  0  0  0  0
  -23.9036  -10.4290   21.0364 C   0  0  0  0  0  0
  -24.3592   -9.4234   21.9160 C   0  0  0  0  0  0
  -23.6271   -8.2277   22.0762 C   0  0  0  0  0  0
  -22.4257   -8.0298   21.3546 C   0  0  0  0  0  0
  -21.9875   -9.0265   20.4650 C   0  0  0  0  0  0
  -22.7198  -10.2139   20.3039 C   0  0  0  0  0  0
  -21.6846   -6.0739   22.5280 C   0  0  0  0  0  0
  -21.4028   -6.5644   23.8216 C   0  0  0  0  0  0
  -21.3672   -5.6792   24.9171 C   0  0  0  0  0  0
  -21.6052   -4.3057   24.7216 C   0  0  0  0  0  0
  -21.8813   -3.8150   23.4334 C   0  0  0  0  0  0
  -21.9194   -4.6970   22.3396 C   0  0  0  0  0  0
  -22.7838  -13.5260   21.1830 C   0  0  0  0  0  0
  -22.1656   -4.2157   21.0972 F   0  0  0  0  0  0
  -21.5629   -3.4545   25.7730 F   0  0  0  0  0  0
  -30.0290  -13.3198   20.4819 N   0  0  0  0  0  0
  -26.2947  -12.9320   20.3270 N   0  0  0  0  0  0
  -25.9268  -11.6474   20.5675 N   0  0  0  0  0  0
  -22.0473  -12.8271   22.0393 N   0  0  0  0  0  0
  -25.4241  -15.1880   20.4165 N   0  0  0  0  0  0
  -31.8838  -14.5311   20.0528 O   0  0  0  0  0  0
  -21.6637   -6.8881   21.4240 O   0  0  0  0  0  0
  -22.3546  -14.5583   20.6694 O   0  0  0  0  0  0
  -24.6126  -31.8701   23.2104 C   0  0  0  0  0  0
  -25.9051  -32.4813   23.8400 C   0  0  1  0  0  0
  -27.2510  -27.4492   20.0950 C   0  0  0  0  0  0
  -25.5966  -33.8616   24.2346 N   0  0  0  0  0  0
  -23.3981  -30.4900   21.5485 C   0  0  2  0  0  0
  -24.8493  -28.9559   20.1187 C   0  0  0  0  0  0
  -22.7391  -29.4638   22.4989 C   0  0  0  0  0  0
  -18.0254  -28.1399   22.8496 C   0  0  0  0  0  0
  -24.1485  -36.7215   23.2643 C   0  0  0  0  0  0
  -25.9275  -30.8410   21.3604 C   0  0  0  0  0  0
  -26.0074  -29.4754   20.7070 C   0  0  0  0  0  0
  -27.2061  -28.7321   20.6879 C   0  0  0  0  0  0
  -26.0669  -26.9324   19.5180 C   0  0  0  0  0  0
  -24.8731  -27.6830   19.5241 C   0  0  0  0  0  0
  -23.6091  -29.8191   20.1631 C   0  0  0  0  0  0
  -25.4132  -36.3090   24.0339 C   0  0  1  0  0  0
  -20.5842  -28.3640   23.1346 C   0  0  2  0  0  0
  -20.6739  -26.9386   22.5414 C   0  0  0  0  0  0
  -19.5737  -26.6398   21.5204 C   0  0  0  0  0  0
  -18.1915  -26.7954   22.1614 C   0  0  0  0  0  0
  -19.1503  -28.8839   23.2909 C   0  0  0  0  0  0
  -18.9453  -30.1460   23.8895 C   0  0  0  0  0  0
  -17.6464  -30.6609   24.0580 C   0  0  0  0  0  0
  -25.9088  -34.9466   23.5126 C   0  0  0  0  0  0
  -16.5342  -29.9141   23.6332 C   0  0  0  0  0  0
  -16.7239  -28.6550   23.0345 C   0  0  0  0  0  0
  -26.4499  -31.6559   25.0715 C   0  0  0  0  0  0
  -25.3781  -31.3609   26.1463 C   0  0  0  0  0  0
  -27.0306  -30.3018   24.6058 C   0  0  0  0  0  0
  -27.6088  -32.4228   25.7512 C   0  0  0  0  0  0
  -27.5579  -37.1772   24.8505 C   0  0  0  0  0  0
  -21.4117  -29.2995   22.3747 N   0  0  0  0  0  0
  -26.4307  -37.3791   23.9435 N   0  0  0  0  0  0
  -24.6629  -31.0854   22.0965 N   0  0  0  0  0  0
  -23.4166  -28.8173   23.3023 O   0  0  0  0  0  0
  -28.4706  -26.7992   20.0946 O   0  0  0  0  0  0
  -26.5622  -34.8928   22.4668 O   0  0  0  0  0  0
  -23.5319  -32.1398   23.7535 O   0  0  0  0  0  0
  -30.3551  -18.7805   22.6159 C   0  0  0  0  0  0
  -29.9595  -18.8911   20.2265 C   0  0  0  0  0  0
  -29.8311  -20.0814   22.7618 C   0  0  0  0  0  0
  -29.4581  -20.2037   20.3721 C   0  0  0  0  0  0
  -30.4165  -18.1624   21.3494 C   0  0  0  0  0  0
  -29.3796  -20.8229   21.6444 C   0  0  0  0  0  0
  -27.8668  -22.2685   22.8739 C   0  0  0  0  0  0
  -29.6876  -15.4497   22.6520 C   0  0  0  0  0  0
  -31.1228  -16.8134   21.1668 C   0  0  0  0  0  0
  -28.6103  -24.5288   21.0262 C   0  0  0  0  0  0
  -28.8306  -23.0368   20.6670 C   0  0  0  0  0  0
  -28.5950  -25.4140   19.7657 C   0  0  0  0  0  0
  -28.8804  -22.1354   21.8249 N   0  0  0  0  0  0
  -30.3634  -15.5365   21.3509 N   0  0  0  0  0  0
  -31.4424  -12.3557   19.1590 H   0  0  0  0  0  0
  -30.2572  -11.3061   19.8494 H   0  0  0  0  0  0
  -29.7605  -11.8459   17.4269 H   0  0  0  0  0  0
  -29.6513  -13.5433   17.8228 H   0  0  0  0  0  0
  -27.8399  -11.3109   18.8084 H   0  0  0  0  0  0
  -27.3697  -12.6390   17.7778 H   0  0  0  0  0  0
  -27.6930  -14.2565   19.5726 H   0  0  0  0  0  0
  -28.6581  -11.9598   21.3338 H   0  0  0  0  0  0
  -28.3640  -13.5543   21.8690 H   0  0  0  0  0  0
  -25.2735   -9.5730   22.4723 H   0  0  0  0  0  0
  -23.9989   -7.4674   22.7481 H   0  0  0  0  0  0
  -21.0814   -8.8765   19.8956 H   0  0  0  0  0  0
  -22.3637  -10.9672   19.6147 H   0  0  0  0  0  0
  -21.2030   -7.6150   23.9720 H   0  0  0  0  0  0
  -21.1500   -6.0519   25.9072 H   0  0  0  0  0  0
  -22.0579   -2.7617   23.2825 H   0  0  0  0  0  0
  -22.4045  -11.9916   22.4769 H   0  0  0  0  0  0
  -21.1107  -13.1343   22.2595 H   0  0  0  0  0  0
  -24.6580  -15.8404   20.5457 H   0  0  0  0  0  0
  -26.2936  -15.6425   20.1644 H   0  0  0  0  0  0
  -26.7126  -32.5500   23.1163 H   0  0  0  0  0  0
  -25.0205  -33.9799   25.0558 H   0  0  0  0  0  0
  -22.6835  -31.3017   21.4047 H   0  0  0  0  0  0
  -23.3809  -35.9486   23.3377 H   0  0  0  0  0  0
  -24.3574  -36.8749   22.2045 H   0  0  0  0  0  0
  -23.7186  -37.6419   23.6595 H   0  0  0  0  0  0
  -26.0608  -31.6109   20.5985 H   0  0  0  0  0  0
  -26.8091  -30.8833   21.9857 H   0  0  0  0  0  0
  -28.1011  -29.1419   21.1325 H   0  0  0  0  0  0
  -26.0271  -25.9608   19.0518 H   0  0  0  0  0  0
  -23.9777  -27.2737   19.0767 H   0  0  0  0  0  0
  -23.7156  -30.5876   19.3975 H   0  0  0  0  0  0
  -22.7354  -29.2365   19.8651 H   0  0  0  0  0  0
  -25.1324  -36.1941   25.0833 H   0  0  0  0  0  0
  -20.9929  -28.3199   24.1469 H   0  0  0  0  0  0
  -20.5683  -26.2223   23.3574 H   0  0  0  0  0  0
  -21.6618  -26.7467   22.1208 H   0  0  0  0  0  0
  -19.6907  -25.6327   21.1213 H   0  0  0  0  0  0
  -19.6721  -27.3236   20.6760 H   0  0  0  0  0  0
  -17.4182  -26.6664   21.4016 H   0  0  0  0  0  0
  -18.0325  -26.0094   22.9013 H   0  0  0  0  0  0
  -19.7923  -30.7272   24.2255 H   0  0  0  0  0  0
  -17.5030  -31.6302   24.5183 H   0  0  0  0  0  0
  -15.5356  -30.3077   23.7672 H   0  0  0  0  0  0
  -15.8599  -28.0912   22.7064 H   0  0  0  0  0  0
  -24.5991  -30.6939   25.7787 H   0  0  0  0  0  0
  -24.8931  -32.2713   26.4962 H   0  0  0  0  0  0
  -25.8175  -30.8730   27.0170 H   0  0  0  0  0  0
  -26.2792  -29.6810   24.1166 H   0  0  0  0  0  0
  -27.4159  -29.7247   25.4476 H   0  0  0  0  0  0
  -27.8631  -30.4378   23.9156 H   0  0  0  0  0  0
  -27.2763  -33.3526   26.2145 H   0  0  0  0  0  0
  -28.3935  -32.6789   25.0379 H   0  0  0  0  0  0
  -28.0734  -31.8285   26.5410 H   0  0  0  0  0  0
  -28.2662  -38.0017   24.7568 H   0  0  0  0  0  0
  -28.1012  -36.2560   24.6325 H   0  0  0  0  0  0
  -27.2279  -37.1422   25.8907 H   0  0  0  0  0  0
  -20.9265  -29.8620   21.6898 H   0  0  0  0  0  0
  -26.0186  -38.2857   24.1474 H   0  0  0  0  0  0
  -30.7436  -18.2769   23.4888 H   0  0  0  0  0  0
  -30.0321  -18.4728   19.2321 H   0  0  0  0  0  0
  -29.8052  -20.5196   23.7487 H   0  0  0  0  0  0
  -29.1396  -20.7236   19.4822 H   0  0  0  0  0  0
  -27.4389  -21.3103   23.1725 H   0  0  0  0  0  0
  -27.0316  -22.8851   22.5437 H   0  0  0  0  0  0
  -28.2963  -22.7425   23.7559 H   0  0  0  0  0  0
  -29.8628  -14.4913   23.1442 H   0  0  0  0  0  0
  -28.6157  -15.6159   22.5369 H   0  0  0  0  0  0
  -30.0415  -16.1980   23.3540 H   0  0  0  0  0  0
  -31.9780  -16.7963   21.8453 H   0  0  0  0  0  0
  -31.5529  -16.8680   20.1636 H   0  0  0  0  0  0
  -29.4025  -24.8670   21.6973 H   0  0  0  0  0  0
  -27.6734  -24.6751   21.5629 H   0  0  0  0  0  0
  -29.7715  -22.9527   20.1178 H   0  0  0  0  0  0
  -28.0473  -22.7043   19.9844 H   0  0  0  0  0  0
  -27.8687  -25.0565   19.0387 H   0  0  0  0  0  0
  -29.5583  -25.3080   19.2670 H   0  0  0  0  0  0
  1 25  1  0  0  0
  1 30  2  0  0  0
  1 84  1  0  0  0
  2  3  1  0  0  0
  2 25  1  0  0  0
  2 85  1  0  0  0
  2 86  1  0  0  0
  3  4  1  0  0  0
  3 87  1  0  0  0
  3 88  1  0  0  0
  4  5  1  0  0  0
  4 89  1  0  0  0
  4 90  1  0  0  0
  5  6  1  0  0  0
  5 26  1  0  0  0
  5 91  1  0  0  0
  6 25  1  0  0  0
  6 92  1  0  0  0
  6 93  1  0  0  0
  7  8  2  0  0  0
  7 26  1  0  0  0
  7 29  1  0  0  0
  8  9  1  0  0  0
  8 22  1  0  0  0
  9 10  1  0  0  0
  9 27  2  0  0  0
 10 11  2  0  0  0
 10 15  1  0  0  0
 11 12  1  0  0  0
 11 94  1  0  0  0
 12 13  2  0  0  0
 12 95  1  0  0  0
 13 14  1  0  0  0
 13 31  1  0  0  0
 14 15  2  0  0  0
 14 96  1  0  0  0
 15 97  1  0  0  0
 16 17  2  0  0  0
 16 21  1  0  0  0
 16 31  1  0  0  0
 17 18  1  0  0  0
 17 98  1  0  0  0
 18 19  2  0  0  0
 18 99  1  0  0  0
 19 20  1  0  0  0
 19 24  1  0  0  0
 20 21  2  0  0  0
 20100  1  0  0  0
 21 23  1  0  0  0
 22 28  1  0  0  0
 22 32  2  0  0  0
 26 27  1  0  0  0
 28101  1  0  0  0
 28102  1  0  0  0
 29103  1  0  0  0
 29104  1  0  0  0
 33 34  1  0  0  0
 33 66  1  0  0  0
 33 70  2  0  0  0
 34 36  1  0  0  0
 34 59  1  0  0  0
 34105  1  0  0  0
 35 44  2  0  0  0
 35 45  1  0  0  0
 35 68  1  0  0  0
 36 56  1  0  0  0
 36106  1  0  0  0
 37 39  1  0  0  0
 37 47  1  0  0  0
 37 66  1  0  0  0
 37107  1  0  0  0
 38 43  2  0  0  0
 38 46  1  0  0  0
 38 47  1  0  0  0
 39 64  1  0  0  0
 39 67  2  0  0  0
 40 52  1  0  0  0
 40 53  2  0  0  0
 40 58  1  0  0  0
 41108  1  0  0  0
 41109  1  0  0  0
 41110  1  0  0  0
 41 48  1  0  0  0
 42 43  1  0  0  0
 42 66  1  0  0  0
 42111  1  0  0  0
 42112  1  0  0  0
 43 44  1  0  0  0
 44113  1  0  0  0
 45 46  2  0  0  0
 45114  1  0  0  0
 46115  1  0  0  0
 47116  1  0  0  0
 47117  1  0  0  0
 48 56  1  0  0  0
 48 65  1  0  0  0
 48118  1  0  0  0
 49 50  1  0  0  0
 49 53  1  0  0  0
 49 64  1  0  0  0
 49119  1  0  0  0
 50 51  1  0  0  0
 50120  1  0  0  0
 50121  1  0  0  0
 51 52  1  0  0  0
 51122  1  0  0  0
 51123  1  0  0  0
 52124  1  0  0  0
 52125  1  0  0  0
 53 54  1  0  0  0
 54 55  2  0  0  0
 54126  1  0  0  0
 55 57  1  0  0  0
 55127  1  0  0  0
 56 69  2  0  0  0
 57 58  2  0  0  0
 57128  1  0  0  0
 58129  1  0  0  0
 59 60  1  0  0  0
 59 61  1  0  0  0
 59 62  1  0  0  0
 60130  1  0  0  0
 60131  1  0  0  0
 60132  1  0  0  0
 61133  1  0  0  0
 61134  1  0  0  0
 61135  1  0  0  0
 62136  1  0  0  0
 62137  1  0  0  0
 62138  1  0  0  0
 63 65  1  0  0  0
 63139  1  0  0  0
 63140  1  0  0  0
 63141  1  0  0  0
 64142  1  0  0  0
 65143  1  0  0  0
 68 82  1  0  0  0
 71 73  2  0  0  0
 71 75  1  0  0  0
 71144  1  0  0  0
 72 74  1  0  0  0
 72 75  2  0  0  0
 72145  1  0  0  0
 73 76  1  0  0  0
 73146  1  0  0  0
 74 76  2  0  0  0
 74147  1  0  0  0
 75 79  1  0  0  0
 76 83  1  0  0  0
 77 83  1  0  0  0
 77148  1  0  0  0
 77149  1  0  0  0
 77150  1  0  0  0
 78 84  1  0  0  0
 78151  1  0  0  0
 78152  1  0  0  0
 78153  1  0  0  0
 79 84  1  0  0  0
 79154  1  0  0  0
 79155  1  0  0  0
 80 81  1  0  0  0
 80 82  1  0  0  0
 80156  1  0  0  0
 80157  1  0  0  0
 81 83  1  0  0  0
 81158  1  0  0  0
 81159  1  0  0  0
 82160  1  0  0  0
 82161  1  0  0  0
M  ISO  4   1 100  68 101  82 101  84 100
M  END
> <chiral flag>
0

> <version>
0

> <s_m_source_file>
/data/baiqing/PycharmProjects/Reinvent-master-3.2/result/LINK_invent/BTK/process_docking_weight1_custom_product_contain_oxygen_bond_distance_aromatic_linkinvent_7_9_3/rearranged_h_0017.sdf

> <i_m_source_file_index>
51

> <r_mmod_Potential_Energy-OPLS-2005>
100.385414123535

> <r_mmod_Stretch_Energy-OPLS-2005>
46.212100982666

> <r_mmod_Bend_Energy-OPLS-2005>
142.126251220703

> <r_mmod_Torsional_Energy-OPLS-2005>
238.704498291016

> <r_mmod_Improper_Torsional_Energy-OPLS-2005>
7.92415904998779

> <r_mmod_Van_der_Waal_Energy-OPLS-2005>
180.791030883789

> <r_mmod_Electrostatic_Energy-OPLS-2005>
-317.921661376953

> <r_mmod_Solvation_Energy-OPLS-2005>
-212.284820556641

> <b_mmod_Minimization_Converged-OPLS-2005>
0

> <r_mmod_RMS_Derivative-OPLS-2005>
4.60344171524048

$$$$
52
                    3D
 Structure written by MMmdl.
167176  0  0  1  0            999 V2000
  -30.7816  -14.4305   20.6571 C   0  0  0  0  0  0
  -30.4236  -12.3248   19.4106 C   0  0  0  0  0  0
  -29.4797  -12.4732   18.2032 C   0  0  0  0  0  0
  -28.0227  -12.2419   18.6379 C   0  0  0  0  0  0
  -27.6471  -13.1395   19.8332 C   0  0  2  0  0  0
  -28.6892  -13.0474   20.9766 C   0  0  0  0  0  0
  -25.2665  -13.7978   20.5617 C   0  0  0  0  0  0
  -24.1824  -13.0385   20.9100 C   0  0  0  0  0  0
  -24.6254  -11.6817   20.8704 C   0  0  0  0  0  0
  -23.8905  -10.4256   21.0415 C   0  0  0  0  0  0
  -24.3505   -9.4197   21.9192 C   0  0  0  0  0  0
  -23.6209   -8.2226   22.0780 C   0  0  0  0  0  0
  -22.4198   -8.0244   21.3548 C   0  0  0  0  0  0
  -21.9786   -9.0211   20.4668 C   0  0  0  0  0  0
  -22.7088  -10.2102   20.3071 C   0  0  0  0  0  0
  -21.6844   -6.0695   22.5272 C   0  0  0  0  0  0
  -21.4012   -6.5608   23.8206 C   0  0  0  0  0  0
  -21.3654   -5.6770   24.9167 C   0  0  0  0  0  0
  -21.6035   -4.3032   24.7225 C   0  0  0  0  0  0
  -21.8826   -3.8105   23.4358 C   0  0  0  0  0  0
  -21.9197   -4.6923   22.3400 C   0  0  0  0  0  0
  -22.7888  -13.5314   21.1781 C   0  0  0  0  0  0
  -22.1675   -4.2113   21.0989 F   0  0  0  0  0  0
  -21.5623   -3.4525   25.7745 F   0  0  0  0  0  0
  -30.0384  -13.3083   20.4416 N   0  0  0  0  0  0
  -26.2938  -12.8969   20.3158 N   0  0  0  0  0  0
  -25.9145  -11.6228   20.5671 N   0  0  0  0  0  0
  -22.0496  -12.8386   22.0357 N   0  0  0  0  0  0
  -25.4589  -15.1669   20.4122 N   0  0  0  0  0  0
  -31.7995  -14.6833   20.0061 O   0  0  0  0  0  0
  -21.6603   -6.8829   21.4231 O   0  0  0  0  0  0
  -22.3629  -14.5621   20.6615 O   0  0  0  0  0  0
  -24.6091  -31.8710   23.2135 C   0  0  0  0  0  0
  -25.9010  -32.4833   23.8412 C   0  0  1  0  0  0
  -27.2341  -27.4699   20.1027 C   0  0  0  0  0  0
  -25.5893  -33.8629   24.2362 N   0  0  0  0  0  0
  -23.3938  -30.4965   21.5537 C   0  0  2  0  0  0
  -24.8402  -28.9697   20.1138 C   0  0  0  0  0  0
  -22.7375  -29.4679   22.5013 C   0  0  0  0  0  0
  -18.0258  -28.1360   22.8490 C   0  0  0  0  0  0
  -24.1491  -36.7328   23.2640 C   0  0  0  0  0  0
  -25.9149  -30.8559   21.3525 C   0  0  0  0  0  0
  -25.9967  -29.4900   20.7074 C   0  0  0  0  0  0
  -27.1981  -28.7523   20.7016 C   0  0  0  0  0  0
  -26.0625  -26.9594   19.5095 C   0  0  0  0  0  0
  -24.8658  -27.7002   19.5094 C   0  0  0  0  0  0
  -23.5985  -29.8306   20.1663 C   0  0  0  0  0  0
  -25.4101  -36.3119   24.0341 C   0  0  1  0  0  0
  -20.5846  -28.3644   23.1330 C   0  0  2  0  0  0
  -20.6753  -26.9384   22.5431 C   0  0  0  0  0  0
  -19.5740  -26.6382   21.5208 C   0  0  0  0  0  0
  -18.1907  -26.7916   22.1609 C   0  0  0  0  0  0
  -19.1507  -28.8818   23.2907 C   0  0  0  0  0  0
  -18.9443  -30.1424   23.8916 C   0  0  0  0  0  0
  -17.6447  -30.6575   24.0562 C   0  0  0  0  0  0
  -25.9023  -34.9484   23.5152 C   0  0  0  0  0  0
  -16.5338  -29.9084   23.6317 C   0  0  0  0  0  0
  -16.7245  -28.6498   23.0342 C   0  0  0  0  0  0
  -26.4485  -31.6571   25.0692 C   0  0  0  0  0  0
  -25.3791  -31.3645   26.1470 C   0  0  0  0  0  0
  -27.0295  -30.3032   24.5972 C   0  0  0  0  0  0
  -27.6095  -32.4267   25.7419 C   0  0  0  0  0  0
  -27.5583  -37.1799   24.8467 C   0  0  0  0  0  0
  -21.4116  -29.3025   22.3751 N   0  0  0  0  0  0
  -26.4293  -37.3794   23.9419 N   0  0  0  0  0  0
  -24.6581  -31.0868   22.0999 N   0  0  0  0  0  0
  -23.4174  -28.8215   23.3039 O   0  0  0  0  0  0
  -28.3364  -26.6504   20.0622 O   0  0  0  0  0  0
  -26.5571  -34.8934   22.4711 O   0  0  0  0  0  0
  -23.5292  -32.1440   23.7556 O   0  0  0  0  0  0
  -30.5270  -19.0029   21.8499 C   0  0  0  0  0  0
  -30.8496  -17.6486   22.1071 C   0  0  0  0  0  0
  -28.7067  -18.2952   20.4121 C   0  0  0  0  0  0
  -29.4656  -19.3389   20.9775 C   0  0  0  0  0  0
  -30.1162  -16.5934   21.5036 C   0  0  0  0  0  0
  -29.0251  -16.9530   20.6778 C   0  0  0  0  0  0
  -30.3621  -23.5598   19.7311 C   0  0  0  0  0  0
  -30.3179  -24.8915   19.5251 C   0  0  0  0  0  0
  -30.0081  -22.3768   18.8824 C   0  0  0  0  0  0
  -30.7417  -22.6818   20.8864 C   0  0  0  0  0  0
  -32.0384  -26.4857   20.4640 C   0  0  0  0  0  0
  -31.1344  -14.8439   22.9677 C   0  0  0  0  0  0
  -29.1012  -20.7897   20.6482 C   0  0  0  0  0  0
  -29.5966  -27.1365   20.4931 C   0  0  0  0  0  0
  -30.6015  -25.9635   20.5709 C   0  0  1  0  0  0
  -30.4538  -15.2084   21.7197 N   0  0  0  0  0  0
  -30.2519  -21.5421   20.0799 N   0  3  1  0  0  0
  -28.2448  -16.0086   20.1345 F   0  0  0  0  0  0
  -31.4600  -12.4310   19.0858 H   0  0  0  0  0  0
  -30.3522  -11.3190   19.8301 H   0  0  0  0  0  0
  -29.7483  -11.7607   17.4235 H   0  0  0  0  0  0
  -29.5856  -13.4669   17.7649 H   0  0  0  0  0  0
  -27.9120  -11.1909   18.9103 H   0  0  0  0  0  0
  -27.3412  -12.4097   17.8039 H   0  0  0  0  0  0
  -27.6381  -14.1176   19.3809 H   0  0  0  0  0  0
  -28.6717  -12.0585   21.4345 H   0  0  0  0  0  0
  -28.4104  -13.7433   21.7667 H   0  0  0  0  0  0
  -25.2686   -9.5705   22.4726 H   0  0  0  0  0  0
  -23.9948   -7.4639   22.7495 H   0  0  0  0  0  0
  -21.0724   -8.8682   19.9007 H   0  0  0  0  0  0
  -22.3512  -10.9626   19.6168 H   0  0  0  0  0  0
  -21.1999   -7.6116   23.9689 H   0  0  0  0  0  0
  -21.1477   -6.0502   25.9067 H   0  0  0  0  0  0
  -22.0602   -2.7566   23.2849 H   0  0  0  0  0  0
  -22.4085  -12.0064   22.4811 H   0  0  0  0  0  0
  -21.1153  -13.1520   22.2593 H   0  0  0  0  0  0
  -24.7194  -15.8455   20.5570 H   0  0  0  0  0  0
  -26.3493  -15.5857   20.1674 H   0  0  0  0  0  0
  -26.7080  -32.5584   23.1183 H   0  0  0  0  0  0
  -25.0049  -33.9811   25.0504 H   0  0  0  0  0  0
  -22.6781  -31.3099   21.4193 H   0  0  0  0  0  0
  -23.3736  -35.9679   23.3312 H   0  0  0  0  0  0
  -24.3594  -36.8929   22.2055 H   0  0  0  0  0  0
  -23.7259  -37.6546   23.6640 H   0  0  0  0  0  0
  -26.0065  -31.6180   20.5768 H   0  0  0  0  0  0
  -26.8108  -30.9241   21.9579 H   0  0  0  0  0  0
  -28.0747  -29.1808   21.1623 H   0  0  0  0  0  0
  -26.0778  -25.9817   19.0473 H   0  0  0  0  0  0
  -23.9754  -27.2904   19.0520 H   0  0  0  0  0  0
  -23.7016  -30.6073   19.4084 H   0  0  0  0  0  0
  -22.7233  -29.2506   19.8704 H   0  0  0  0  0  0
  -25.1261  -36.2001   25.0823 H   0  0  0  0  0  0
  -20.9916  -28.3228   24.1457 H   0  0  0  0  0  0
  -20.5645  -26.2255   23.3615 H   0  0  0  0  0  0
  -21.6631  -26.7444   22.1234 H   0  0  0  0  0  0
  -19.6916  -25.6304   21.1211 H   0  0  0  0  0  0
  -19.6683  -27.3215   20.6750 H   0  0  0  0  0  0
  -17.4184  -26.6670   21.3998 H   0  0  0  0  0  0
  -18.0297  -26.0044   22.8986 H   0  0  0  0  0  0
  -19.7918  -30.7227   24.2308 H   0  0  0  0  0  0
  -17.5004  -31.6256   24.5158 H   0  0  0  0  0  0
  -15.5333  -30.2994   23.7631 H   0  0  0  0  0  0
  -15.8641  -28.0819   22.7055 H   0  0  0  0  0  0
  -24.5979  -30.6958   25.7843 H   0  0  0  0  0  0
  -24.8950  -32.2771   26.4943 H   0  0  0  0  0  0
  -25.8185  -30.8830   27.0210 H   0  0  0  0  0  0
  -26.2770  -29.6753   24.1175 H   0  0  0  0  0  0
  -27.4286  -29.7297   25.4346 H   0  0  0  0  0  0
  -27.8511  -30.4397   23.8935 H   0  0  0  0  0  0
  -27.2756  -33.3574   26.2025 H   0  0  0  0  0  0
  -28.3864  -32.6800   25.0189 H   0  0  0  0  0  0
  -28.0795  -31.8352   26.5289 H   0  0  0  0  0  0
  -28.2606  -38.0089   24.7496 H   0  0  0  0  0  0
  -28.1062  -36.2617   24.6289 H   0  0  0  0  0  0
  -27.2306  -37.1457   25.8873 H   0  0  0  0  0  0
  -20.9258  -29.8768   21.7000 H   0  0  0  0  0  0
  -26.0190  -38.2877   24.1413 H   0  0  0  0  0  0
  -31.1159  -19.7800   22.3212 H   0  0  0  0  0  0
  -31.6860  -17.4345   22.7554 H   0  0  0  0  0  0
  -27.8654  -18.5091   19.7689 H   0  0  0  0  0  0
  -29.9986  -25.2559   18.5599 H   0  0  0  0  0  0
  -30.7117  -22.1123   18.0917 H   0  0  0  0  0  0
  -28.9887  -22.3208   18.4987 H   0  0  0  0  0  0
  -30.2094  -22.8254   21.8269 H   0  0  0  0  0  0
  -31.8070  -22.5624   21.0835 H   0  0  0  0  0  0
  -32.7622  -25.6732   20.4893 H   0  0  0  0  0  0
  -32.2676  -27.1620   21.2893 H   0  0  0  0  0  0
  -32.1937  -27.0410   19.5380 H   0  0  0  0  0  0
  -30.6723  -15.3376   23.8255 H   0  0  0  0  0  0
  -32.1899  -15.1237   22.9381 H   0  0  0  0  0  0
  -31.0904  -13.7666   23.1469 H   0  0  0  0  0  0
  -28.6974  -21.2687   21.5424 H   0  0  0  0  0  0
  -28.2785  -20.7760   19.9302 H   0  0  0  0  0  0
  -29.9273  -27.8927   19.7792 H   0  0  0  0  0  0
  -29.5363  -27.6078   21.4755 H   0  0  0  0  0  0
  -30.4840  -25.4884   21.5471 H   0  0  0  0  0  0
  -30.9999  -20.8986   19.8769 H   0  0  0  0  0  0
  1 25  1  0  0  0
  1 30  2  0  0  0
  1 86  1  0  0  0
  2  3  1  0  0  0
  2 25  1  0  0  0
  2 89  1  0  0  0
  2 90  1  0  0  0
  3  4  1  0  0  0
  3 91  1  0  0  0
  3 92  1  0  0  0
  4  5  1  0  0  0
  4 93  1  0  0  0
  4 94  1  0  0  0
  5  6  1  0  0  0
  5 26  1  0  0  0
  5 95  1  0  0  0
  6 25  1  0  0  0
  6 96  1  0  0  0
  6 97  1  0  0  0
  7  8  2  0  0  0
  7 26  1  0  0  0
  7 29  1  0  0  0
  8  9  1  0  0  0
  8 22  1  0  0  0
  9 10  1  0  0  0
  9 27  2  0  0  0
 10 11  2  0  0  0
 10 15  1  0  0  0
 11 12  1  0  0  0
 11 98  1  0  0  0
 12 13  2  0  0  0
 12 99  1  0  0  0
 13 14  1  0  0  0
 13 31  1  0  0  0
 14 15  2  0  0  0
 14100  1  0  0  0
 15101  1  0  0  0
 16 17  2  0  0  0
 16 21  1  0  0  0
 16 31  1  0  0  0
 17 18  1  0  0  0
 17102  1  0  0  0
 18 19  2  0  0  0
 18103  1  0  0  0
 19 20  1  0  0  0
 19 24  1  0  0  0
 20 21  2  0  0  0
 20104  1  0  0  0
 21 23  1  0  0  0
 22 28  1  0  0  0
 22 32  2  0  0  0
 26 27  1  0  0  0
 28105  1  0  0  0
 28106  1  0  0  0
 29107  1  0  0  0
 29108  1  0  0  0
 33 34  1  0  0  0
 33 66  1  0  0  0
 33 70  2  0  0  0
 34 36  1  0  0  0
 34 59  1  0  0  0
 34109  1  0  0  0
 35 44  2  0  0  0
 35 45  1  0  0  0
 35 68  1  0  0  0
 36 56  1  0  0  0
 36110  1  0  0  0
 37 39  1  0  0  0
 37 47  1  0  0  0
 37 66  1  0  0  0
 37111  1  0  0  0
 38 43  2  0  0  0
 38 46  1  0  0  0
 38 47  1  0  0  0
 39 64  1  0  0  0
 39 67  2  0  0  0
 40 52  1  0  0  0
 40 53  2  0  0  0
 40 58  1  0  0  0
 41112  1  0  0  0
 41113  1  0  0  0
 41114  1  0  0  0
 41 48  1  0  0  0
 42 43  1  0  0  0
 42 66  1  0  0  0
 42115  1  0  0  0
 42116  1  0  0  0
 43 44  1  0  0  0
 44117  1  0  0  0
 45 46  2  0  0  0
 45118  1  0  0  0
 46119  1  0  0  0
 47120  1  0  0  0
 47121  1  0  0  0
 48 56  1  0  0  0
 48 65  1  0  0  0
 48122  1  0  0  0
 49 50  1  0  0  0
 49 53  1  0  0  0
 49 64  1  0  0  0
 49123  1  0  0  0
 50 51  1  0  0  0
 50124  1  0  0  0
 50125  1  0  0  0
 51 52  1  0  0  0
 51126  1  0  0  0
 51127  1  0  0  0
 52128  1  0  0  0
 52129  1  0  0  0
 53 54  1  0  0  0
 54 55  2  0  0  0
 54130  1  0  0  0
 55 57  1  0  0  0
 55131  1  0  0  0
 56 69  2  0  0  0
 57 58  2  0  0  0
 57132  1  0  0  0
 58133  1  0  0  0
 59 60  1  0  0  0
 59 61  1  0  0  0
 59 62  1  0  0  0
 60134  1  0  0  0
 60135  1  0  0  0
 60136  1  0  0  0
 61137  1  0  0  0
 61138  1  0  0  0
 61139  1  0  0  0
 62140  1  0  0  0
 62141  1  0  0  0
 62142  1  0  0  0
 63 65  1  0  0  0
 63143  1  0  0  0
 63144  1  0  0  0
 63145  1  0  0  0
 64146  1  0  0  0
 65147  1  0  0  0
 68 84  1  0  0  0
 71 72  2  0  0  0
 71 74  1  0  0  0
 71148  1  0  0  0
 72 75  1  0  0  0
 72149  1  0  0  0
 73 74  2  0  0  0
 73 76  1  0  0  0
 73150  1  0  0  0
 74 83  1  0  0  0
 75 76  2  0  0  0
 75 86  1  0  0  0
 76 88  1  0  0  0
 77 78  2  0  0  0
 77 79  1  0  0  0
 77 80  1  0  0  0
 78 85  1  0  0  0
 78151  1  0  0  0
 79 87  1  0  0  0
 79152  1  0  0  0
 79153  1  0  0  0
 80 87  1  0  0  0
 80154  1  0  0  0
 80155  1  0  0  0
 81156  1  0  0  0
 81157  1  0  0  0
 81158  1  0  0  0
 81 85  1  0  0  0
 82 86  1  0  0  0
 82159  1  0  0  0
 82160  1  0  0  0
 82161  1  0  0  0
 83162  1  0  0  0
 83163  1  0  0  0
 83 87  1  0  0  0
 84 85  1  0  0  0
 84164  1  0  0  0
 84165  1  0  0  0
 85166  1  0  0  0
 87167  1  0  0  0
M  CHG  1  87   1
M  ISO  4   1 100  68 101  84 101  86 100
M  END
> <chiral flag>
0

> <version>
0

> <s_m_source_file>
/data/baiqing/PycharmProjects/Reinvent-master-3.2/result/LINK_invent/BTK/process_docking_weight1_custom_product_contain_oxygen_bond_distance_aromatic_linkinvent_7_9_3/rearranged_h_0017.sdf

> <i_m_source_file_index>
52

> <r_mmod_Potential_Energy-OPLS-2005>
-30.2495784759521

> <r_mmod_Stretch_Energy-OPLS-2005>
40.3572578430176

> <r_mmod_Bend_Energy-OPLS-2005>
133.087875366211

> <r_mmod_Torsional_Energy-OPLS-2005>
314.328399658203

> <r_mmod_Improper_Torsional_Energy-OPLS-2005>
5.05534076690674

> <r_mmod_Van_der_Waal_Energy-OPLS-2005>
161.353363037109

> <r_mmod_Electrostatic_Energy-OPLS-2005>
-262.606597900391

> <r_mmod_Solvation_Energy-OPLS-2005>
-436.737915039062

> <b_mmod_Minimization_Converged-OPLS-2005>
0

> <r_mmod_RMS_Derivative-OPLS-2005>
3.81135606765747

$$$$
53
                    3D
 Structure written by MMmdl.
161169  0  0  1  0            999 V2000
  -30.7391  -14.4692   20.6267 C   0  0  0  0  0  0
  -30.4128  -12.3312   19.4178 C   0  0  0  0  0  0
  -29.4836  -12.5143   18.2031 C   0  0  0  0  0  0
  -28.0114  -12.3521   18.6210 C   0  0  0  0  0  0
  -27.6550  -13.1999   19.8683 C   0  0  2  0  0  0
  -28.6972  -13.0059   20.9933 C   0  0  0  0  0  0
  -25.2582  -13.8140   20.5673 C   0  0  0  0  0  0
  -24.1829  -13.0426   20.9177 C   0  0  0  0  0  0
  -24.6372  -11.6888   20.8736 C   0  0  0  0  0  0
  -23.9037  -10.4282   21.0407 C   0  0  0  0  0  0
  -24.3597   -9.4202   21.9186 C   0  0  0  0  0  0
  -23.6280   -8.2235   22.0757 C   0  0  0  0  0  0
  -22.4266   -8.0272   21.3542 C   0  0  0  0  0  0
  -21.9891   -9.0242   20.4643 C   0  0  0  0  0  0
  -22.7208  -10.2127   20.3052 C   0  0  0  0  0  0
  -21.6850   -6.0724   22.5275 C   0  0  0  0  0  0
  -21.4011   -6.5632   23.8206 C   0  0  0  0  0  0
  -21.3663   -5.6789   24.9172 C   0  0  0  0  0  0
  -21.6047   -4.3051   24.7224 C   0  0  0  0  0  0
  -21.8821   -3.8138   23.4346 C   0  0  0  0  0  0
  -21.9191   -4.6952   22.3400 C   0  0  0  0  0  0
  -22.7861  -13.5243   21.1836 C   0  0  0  0  0  0
  -22.1661   -4.2135   21.0979 F   0  0  0  0  0  0
  -21.5630   -3.4539   25.7741 F   0  0  0  0  0  0
  -30.0277  -13.3169   20.4457 N   0  0  0  0  0  0
  -26.2990  -12.9285   20.3337 N   0  0  0  0  0  0
  -25.9293  -11.6454   20.5760 N   0  0  0  0  0  0
  -22.0501  -12.8245   22.0398 N   0  0  0  0  0  0
  -25.4306  -15.1855   20.4073 N   0  0  0  0  0  0
  -31.8204  -14.6592   20.0586 O   0  0  0  0  0  0
  -21.6633   -6.8865   21.4236 O   0  0  0  0  0  0
  -22.3559  -14.5550   20.6683 O   0  0  0  0  0  0
  -24.6173  -31.8666   23.2106 C   0  0  0  0  0  0
  -25.9058  -32.4813   23.8404 C   0  0  1  0  0  0
  -27.2272  -27.4049   20.0979 C   0  0  0  0  0  0
  -25.5908  -33.8613   24.2328 N   0  0  0  0  0  0
  -23.4057  -30.4924   21.5514 C   0  0  2  0  0  0
  -24.8496  -28.9603   20.1114 C   0  0  0  0  0  0
  -22.7426  -29.4648   22.4980 C   0  0  0  0  0  0
  -18.0274  -28.1368   22.8485 C   0  0  0  0  0  0
  -24.1484  -36.7316   23.2636 C   0  0  0  0  0  0
  -25.9379  -30.8220   21.3701 C   0  0  0  0  0  0
  -26.0111  -29.4560   20.7151 C   0  0  0  0  0  0
  -27.1995  -28.6848   20.7078 C   0  0  0  0  0  0
  -26.0473  -26.9471   19.4625 C   0  0  0  0  0  0
  -24.8642  -27.7061   19.4827 C   0  0  0  0  0  0
  -23.6147  -29.8307   20.1636 C   0  0  0  0  0  0
  -25.4104  -36.3107   24.0334 C   0  0  1  0  0  0
  -20.5868  -28.3655   23.1305 C   0  0  2  0  0  0
  -20.6760  -26.9386   22.5413 C   0  0  0  0  0  0
  -19.5743  -26.6375   21.5203 C   0  0  0  0  0  0
  -18.1920  -26.7911   22.1612 C   0  0  0  0  0  0
  -19.1527  -28.8827   23.2890 C   0  0  0  0  0  0
  -18.9453  -30.1430   23.8900 C   0  0  0  0  0  0
  -17.6458  -30.6576   24.0556 C   0  0  0  0  0  0
  -25.9035  -34.9471   23.5132 C   0  0  0  0  0  0
  -16.5347  -29.9080   23.6322 C   0  0  0  0  0  0
  -16.7262  -28.6496   23.0343 C   0  0  0  0  0  0
  -26.4481  -31.6597   25.0740 C   0  0  0  0  0  0
  -25.3746  -31.3695   26.1489 C   0  0  0  0  0  0
  -27.0321  -30.3038   24.6130 C   0  0  0  0  0  0
  -27.6059  -32.4320   25.7495 C   0  0  0  0  0  0
  -27.5579  -37.1808   24.8462 C   0  0  0  0  0  0
  -21.4153  -29.3028   22.3722 N   0  0  0  0  0  0
  -26.4290  -37.3794   23.9407 N   0  0  0  0  0  0
  -24.6718  -31.0754   22.1019 N   0  0  0  0  0  0
  -23.4188  -28.8181   23.3022 O   0  0  0  0  0  0
  -28.3935  -26.6532   20.1474 O   0  0  0  0  0  0
  -26.5599  -34.8926   22.4694 O   0  0  0  0  0  0
  -23.5360  -32.1438   23.7485 O   0  0  0  0  0  0
  -29.5847  -18.4841   20.2048 C   0  0  0  0  0  0
  -29.7129  -19.8946   20.2228 C   0  0  0  0  0  0
  -29.4384  -19.8816   22.6304 C   0  0  0  0  0  0
  -29.3628  -17.7567   21.3977 C   0  0  0  0  0  0
  -29.6469  -20.6145   21.4394 C   0  0  0  0  0  0
  -29.2815  -18.4778   22.6122 C   0  0  0  0  0  0
  -31.0735  -22.4037   22.1701 C   0  0  0  0  0  0
  -31.2898  -15.8367   22.5435 C   0  0  0  0  0  0
  -29.1364  -16.2304   21.3600 C   0  0  0  0  0  0
  -29.2145  -24.3891   20.8219 C   0  0  0  0  0  0
  -29.2893  -22.8781   20.4404 C   0  0  0  0  0  0
  -28.3415  -25.2347   19.8610 C   0  0  0  0  0  0
  -29.8273  -22.0184   21.5094 N   0  0  0  0  0  0
  -30.3074  -15.3427   21.5740 N   0  0  0  0  0  0
  -29.0417  -17.8245   23.7749 F   0  0  0  0  0  0
  -31.4554  -12.4258   19.1095 H   0  0  0  0  0  0
  -30.3166  -11.3206   19.8187 H   0  0  0  0  0  0
  -29.7310  -11.7896   17.4265 H   0  0  0  0  0  0
  -29.6356  -13.5015   17.7630 H   0  0  0  0  0  0
  -27.8382  -11.2957   18.8302 H   0  0  0  0  0  0
  -27.3538  -12.6070   17.7894 H   0  0  0  0  0  0
  -27.6848  -14.2369   19.5428 H   0  0  0  0  0  0
  -28.6841  -11.9746   21.3477 H   0  0  0  0  0  0
  -28.4443  -13.6087   21.8651 H   0  0  0  0  0  0
  -25.2741   -9.5686   22.4761 H   0  0  0  0  0  0
  -23.9986   -7.4631   22.7487 H   0  0  0  0  0  0
  -21.0813   -8.8750   19.8957 H   0  0  0  0  0  0
  -22.3654  -10.9665   19.6163 H   0  0  0  0  0  0
  -21.2002   -7.6139   23.9703 H   0  0  0  0  0  0
  -21.1487   -6.0523   25.9074 H   0  0  0  0  0  0
  -22.0599   -2.7597   23.2852 H   0  0  0  0  0  0
  -22.4112  -11.9900   22.4772 H   0  0  0  0  0  0
  -21.1128  -13.1290   22.2619 H   0  0  0  0  0  0
  -24.6605  -15.8379   20.5078 H   0  0  0  0  0  0
  -26.2759  -15.6227   20.0647 H   0  0  0  0  0  0
  -26.7125  -32.5507   23.1165 H   0  0  0  0  0  0
  -25.0051  -33.9764   25.0466 H   0  0  0  0  0  0
  -22.6953  -31.3102   21.4142 H   0  0  0  0  0  0
  -23.3740  -35.9655   23.3313 H   0  0  0  0  0  0
  -24.3576  -36.8930   22.2050 H   0  0  0  0  0  0
  -23.7254  -37.6529   23.6650 H   0  0  0  0  0  0
  -26.0583  -31.5880   20.6031 H   0  0  0  0  0  0
  -26.8224  -30.8706   21.9931 H   0  0  0  0  0  0
  -28.0931  -29.0606   21.1867 H   0  0  0  0  0  0
  -26.0074  -26.0077   18.9322 H   0  0  0  0  0  0
  -23.9749  -27.3243   19.0009 H   0  0  0  0  0  0
  -23.7278  -30.6088   19.4078 H   0  0  0  0  0  0
  -22.7367  -29.2555   19.8631 H   0  0  0  0  0  0
  -25.1285  -36.1976   25.0829 H   0  0  0  0  0  0
  -20.9945  -28.3216   24.1432 H   0  0  0  0  0  0
  -20.5647  -26.2261   23.3605 H   0  0  0  0  0  0
  -21.6633  -26.7418   22.1216 H   0  0  0  0  0  0
  -19.6898  -25.6290   21.1226 H   0  0  0  0  0  0
  -19.6684  -27.3186   20.6735 H   0  0  0  0  0  0
  -17.4189  -26.6659   21.4014 H   0  0  0  0  0  0
  -18.0317  -26.0044   22.9000 H   0  0  0  0  0  0
  -19.7934  -30.7235   24.2277 H   0  0  0  0  0  0
  -17.5020  -31.6256   24.5153 H   0  0  0  0  0  0
  -15.5349  -30.2981   23.7646 H   0  0  0  0  0  0
  -15.8663  -28.0819   22.7050 H   0  0  0  0  0  0
  -24.5927  -30.7031   25.7835 H   0  0  0  0  0  0
  -24.8914  -32.2834   26.4946 H   0  0  0  0  0  0
  -25.8103  -30.8871   27.0245 H   0  0  0  0  0  0
  -26.2868  -29.6784   24.1194 H   0  0  0  0  0  0
  -27.4103  -29.7296   25.4598 H   0  0  0  0  0  0
  -27.8704  -30.4365   23.9288 H   0  0  0  0  0  0
  -27.2691  -33.3617   26.2092 H   0  0  0  0  0  0
  -28.3851  -32.6881   25.0306 H   0  0  0  0  0  0
  -28.0743  -31.8429   26.5390 H   0  0  0  0  0  0
  -28.2603  -38.0100   24.7510 H   0  0  0  0  0  0
  -28.1075  -36.2632   24.6295 H   0  0  0  0  0  0
  -27.2296  -37.1477   25.8867 H   0  0  0  0  0  0
  -20.9318  -29.8795   21.6984 H   0  0  0  0  0  0
  -26.0182  -38.2875   24.1410 H   0  0  0  0  0  0
  -29.6425  -17.9635   19.2593 H   0  0  0  0  0  0
  -29.8869  -20.4115   19.2901 H   0  0  0  0  0  0
  -29.3818  -20.3984   23.5773 H   0  0  0  0  0  0
  -30.8636  -22.9489   23.0917 H   0  0  0  0  0  0
  -31.6755  -23.0476   21.5277 H   0  0  0  0  0  0
  -31.6925  -21.5425   22.4297 H   0  0  0  0  0  0
  -30.8061  -16.1246   23.4759 H   0  0  0  0  0  0
  -31.8289  -16.6990   22.1484 H   0  0  0  0  0  0
  -32.0275  -15.0715   22.7931 H   0  0  0  0  0  0
  -28.3865  -15.9794   22.1118 H   0  0  0  0  0  0
  -28.6668  -16.0078   20.4023 H   0  0  0  0  0  0
  -30.2193  -24.8112   20.8571 H   0  0  0  0  0  0
  -28.8047  -24.4900   21.8277 H   0  0  0  0  0  0
  -29.8865  -22.7628   19.5340 H   0  0  0  0  0  0
  -28.2862  -22.5239   20.1957 H   0  0  0  0  0  0
  -27.3417  -24.8146   19.9546 H   0  0  0  0  0  0
  -28.6590  -25.0809   18.8288 H   0  0  0  0  0  0
  1 25  1  0  0  0
  1 30  2  0  0  0
  1 84  1  0  0  0
  2  3  1  0  0  0
  2 25  1  0  0  0
  2 86  1  0  0  0
  2 87  1  0  0  0
  3  4  1  0  0  0
  3 88  1  0  0  0
  3 89  1  0  0  0
  4  5  1  0  0  0
  4 90  1  0  0  0
  4 91  1  0  0  0
  5  6  1  0  0  0
  5 26  1  0  0  0
  5 92  1  0  0  0
  6 25  1  0  0  0
  6 93  1  0  0  0
  6 94  1  0  0  0
  7  8  2  0  0  0
  7 26  1  0  0  0
  7 29  1  0  0  0
  8  9  1  0  0  0
  8 22  1  0  0  0
  9 10  1  0  0  0
  9 27  2  0  0  0
 10 11  2  0  0  0
 10 15  1  0  0  0
 11 12  1  0  0  0
 11 95  1  0  0  0
 12 13  2  0  0  0
 12 96  1  0  0  0
 13 14  1  0  0  0
 13 31  1  0  0  0
 14 15  2  0  0  0
 14 97  1  0  0  0
 15 98  1  0  0  0
 16 17  2  0  0  0
 16 21  1  0  0  0
 16 31  1  0  0  0
 17 18  1  0  0  0
 17 99  1  0  0  0
 18 19  2  0  0  0
 18100  1  0  0  0
 19 20  1  0  0  0
 19 24  1  0  0  0
 20 21  2  0  0  0
 20101  1  0  0  0
 21 23  1  0  0  0
 22 28  1  0  0  0
 22 32  2  0  0  0
 26 27  1  0  0  0
 28102  1  0  0  0
 28103  1  0  0  0
 29104  1  0  0  0
 29105  1  0  0  0
 33 34  1  0  0  0
 33 66  1  0  0  0
 33 70  2  0  0  0
 34 36  1  0  0  0
 34 59  1  0  0  0
 34106  1  0  0  0
 35 44  2  0  0  0
 35 45  1  0  0  0
 35 68  1  0  0  0
 36 56  1  0  0  0
 36107  1  0  0  0
 37 39  1  0  0  0
 37 47  1  0  0  0
 37 66  1  0  0  0
 37108  1  0  0  0
 38 43  2  0  0  0
 38 46  1  0  0  0
 38 47  1  0  0  0
 39 64  1  0  0  0
 39 67  2  0  0  0
 40 52  1  0  0  0
 40 53  2  0  0  0
 40 58  1  0  0  0
 41109  1  0  0  0
 41110  1  0  0  0
 41111  1  0  0  0
 41 48  1  0  0  0
 42 43  1  0  0  0
 42 66  1  0  0  0
 42112  1  0  0  0
 42113  1  0  0  0
 43 44  1  0  0  0
 44114  1  0  0  0
 45 46  2  0  0  0
 45115  1  0  0  0
 46116  1  0  0  0
 47117  1  0  0  0
 47118  1  0  0  0
 48 56  1  0  0  0
 48 65  1  0  0  0
 48119  1  0  0  0
 49 50  1  0  0  0
 49 53  1  0  0  0
 49 64  1  0  0  0
 49120  1  0  0  0
 50 51  1  0  0  0
 50121  1  0  0  0
 50122  1  0  0  0
 51 52  1  0  0  0
 51123  1  0  0  0
 51124  1  0  0  0
 52125  1  0  0  0
 52126  1  0  0  0
 53 54  1  0  0  0
 54 55  2  0  0  0
 54127  1  0  0  0
 55 57  1  0  0  0
 55128  1  0  0  0
 56 69  2  0  0  0
 57 58  2  0  0  0
 57129  1  0  0  0
 58130  1  0  0  0
 59 60  1  0  0  0
 59 61  1  0  0  0
 59 62  1  0  0  0
 60131  1  0  0  0
 60132  1  0  0  0
 60133  1  0  0  0
 61134  1  0  0  0
 61135  1  0  0  0
 61136  1  0  0  0
 62137  1  0  0  0
 62138  1  0  0  0
 62139  1  0  0  0
 63 65  1  0  0  0
 63140  1  0  0  0
 63141  1  0  0  0
 63142  1  0  0  0
 64143  1  0  0  0
 65144  1  0  0  0
 68 82  1  0  0  0
 71 72  2  0  0  0
 71 74  1  0  0  0
 71145  1  0  0  0
 72 75  1  0  0  0
 72146  1  0  0  0
 73 75  2  0  0  0
 73 76  1  0  0  0
 73147  1  0  0  0
 74 76  2  0  0  0
 74 79  1  0  0  0
 75 83  1  0  0  0
 76 85  1  0  0  0
 77 83  1  0  0  0
 77148  1  0  0  0
 77149  1  0  0  0
 77150  1  0  0  0
 78 84  1  0  0  0
 78151  1  0  0  0
 78152  1  0  0  0
 78153  1  0  0  0
 79 84  1  0  0  0
 79154  1  0  0  0
 79155  1  0  0  0
 80 81  1  0  0  0
 80 82  1  0  0  0
 80156  1  0  0  0
 80157  1  0  0  0
 81 83  1  0  0  0
 81158  1  0  0  0
 81159  1  0  0  0
 82160  1  0  0  0
 82161  1  0  0  0
M  ISO  4   1 100  68 101  82 101  84 100
M  END
> <chiral flag>
0

> <version>
0

> <s_m_source_file>
/data/baiqing/PycharmProjects/Reinvent-master-3.2/result/LINK_invent/BTK/process_docking_weight1_custom_product_contain_oxygen_bond_distance_aromatic_linkinvent_7_9_3/rearranged_h_0017.sdf

> <i_m_source_file_index>
53

> <r_mmod_Potential_Energy-OPLS-2005>
108.428802490234

> <r_mmod_Stretch_Energy-OPLS-2005>
44.937442779541

> <r_mmod_Bend_Energy-OPLS-2005>
110.963203430176

> <r_mmod_Torsional_Energy-OPLS-2005>
274.612030029297

> <r_mmod_Improper_Torsional_Energy-OPLS-2005>
7.38503885269165

> <r_mmod_Van_der_Waal_Energy-OPLS-2005>
158.607894897461

> <r_mmod_Electrostatic_Energy-OPLS-2005>
-295.229187011719

> <r_mmod_Solvation_Energy-OPLS-2005>
-208.233032226562

> <b_mmod_Minimization_Converged-OPLS-2005>
0

> <r_mmod_RMS_Derivative-OPLS-2005>
1.12671661376953

$$$$
54
                    3D
 Structure written by MMmdl.
161169  0  0  1  0            999 V2000
  -30.8063  -14.4409   20.6560 C   0  0  0  0  0  0
  -30.3939  -12.3157   19.4563 C   0  0  0  0  0  0
  -29.4933  -12.5400   18.2247 C   0  0  0  0  0  0
  -28.0154  -12.3705   18.6153 C   0  0  0  0  0  0
  -27.6528  -13.2080   19.8680 C   0  0  2  0  0  0
  -28.6824  -12.9983   20.9982 C   0  0  0  0  0  0
  -25.2537  -13.8155   20.5658 C   0  0  0  0  0  0
  -24.1800  -13.0431   20.9135 C   0  0  0  0  0  0
  -24.6351  -11.6898   20.8676 C   0  0  0  0  0  0
  -23.9036  -10.4290   21.0364 C   0  0  0  0  0  0
  -24.3592   -9.4234   21.9160 C   0  0  0  0  0  0
  -23.6271   -8.2277   22.0762 C   0  0  0  0  0  0
  -22.4257   -8.0298   21.3546 C   0  0  0  0  0  0
  -21.9875   -9.0265   20.4650 C   0  0  0  0  0  0
  -22.7198  -10.2139   20.3039 C   0  0  0  0  0  0
  -21.6846   -6.0739   22.5280 C   0  0  0  0  0  0
  -21.4028   -6.5644   23.8216 C   0  0  0  0  0  0
  -21.3672   -5.6792   24.9171 C   0  0  0  0  0  0
  -21.6052   -4.3057   24.7216 C   0  0  0  0  0  0
  -21.8813   -3.8150   23.4334 C   0  0  0  0  0  0
  -21.9194   -4.6970   22.3396 C   0  0  0  0  0  0
  -22.7838  -13.5260   21.1830 C   0  0  0  0  0  0
  -22.1656   -4.2157   21.0972 F   0  0  0  0  0  0
  -21.5629   -3.4545   25.7730 F   0  0  0  0  0  0
  -30.0290  -13.3198   20.4819 N   0  0  0  0  0  0
  -26.2947  -12.9320   20.3270 N   0  0  0  0  0  0
  -25.9268  -11.6474   20.5675 N   0  0  0  0  0  0
  -22.0473  -12.8271   22.0393 N   0  0  0  0  0  0
  -25.4241  -15.1880   20.4165 N   0  0  0  0  0  0
  -31.8838  -14.5311   20.0528 O   0  0  0  0  0  0
  -21.6637   -6.8881   21.4240 O   0  0  0  0  0  0
  -22.3546  -14.5583   20.6694 O   0  0  0  0  0  0
  -24.6126  -31.8701   23.2104 C   0  0  0  0  0  0
  -25.9051  -32.4813   23.8400 C   0  0  1  0  0  0
  -27.2510  -27.4492   20.0950 C   0  0  0  0  0  0
  -25.5966  -33.8616   24.2346 N   0  0  0  0  0  0
  -23.3981  -30.4900   21.5485 C   0  0  2  0  0  0
  -24.8493  -28.9559   20.1187 C   0  0  0  0  0  0
  -22.7391  -29.4638   22.4989 C   0  0  0  0  0  0
  -18.0254  -28.1399   22.8496 C   0  0  0  0  0  0
  -24.1485  -36.7215   23.2643 C   0  0  0  0  0  0
  -25.9275  -30.8410   21.3604 C   0  0  0  0  0  0
  -26.0074  -29.4754   20.7070 C   0  0  0  0  0  0
  -27.2061  -28.7321   20.6879 C   0  0  0  0  0  0
  -26.0669  -26.9324   19.5180 C   0  0  0  0  0  0
  -24.8731  -27.6830   19.5241 C   0  0  0  0  0  0
  -23.6091  -29.8191   20.1631 C   0  0  0  0  0  0
  -25.4132  -36.3090   24.0339 C   0  0  1  0  0  0
  -20.5842  -28.3640   23.1346 C   0  0  2  0  0  0
  -20.6739  -26.9386   22.5414 C   0  0  0  0  0  0
  -19.5737  -26.6398   21.5204 C   0  0  0  0  0  0
  -18.1915  -26.7954   22.1614 C   0  0  0  0  0  0
  -19.1503  -28.8839   23.2909 C   0  0  0  0  0  0
  -18.9453  -30.1460   23.8895 C   0  0  0  0  0  0
  -17.6464  -30.6609   24.0580 C   0  0  0  0  0  0
  -25.9088  -34.9466   23.5126 C   0  0  0  0  0  0
  -16.5342  -29.9141   23.6332 C   0  0  0  0  0  0
  -16.7239  -28.6550   23.0345 C   0  0  0  0  0  0
  -26.4499  -31.6559   25.0715 C   0  0  0  0  0  0
  -25.3781  -31.3609   26.1463 C   0  0  0  0  0  0
  -27.0306  -30.3018   24.6058 C   0  0  0  0  0  0
  -27.6088  -32.4228   25.7512 C   0  0  0  0  0  0
  -27.5579  -37.1772   24.8505 C   0  0  0  0  0  0
  -21.4117  -29.2995   22.3747 N   0  0  0  0  0  0
  -26.4307  -37.3791   23.9435 N   0  0  0  0  0  0
  -24.6629  -31.0854   22.0965 N   0  0  0  0  0  0
  -23.4166  -28.8173   23.3023 O   0  0  0  0  0  0
  -28.4706  -26.7992   20.0946 O   0  0  0  0  0  0
  -26.5622  -34.8928   22.4668 O   0  0  0  0  0  0
  -23.5319  -32.1398   23.7535 O   0  0  0  0  0  0
  -30.3551  -18.7805   22.6159 C   0  0  0  0  0  0
  -29.9595  -18.8911   20.2265 C   0  0  0  0  0  0
  -29.8311  -20.0814   22.7618 C   0  0  0  0  0  0
  -29.4581  -20.2037   20.3721 C   0  0  0  0  0  0
  -30.4165  -18.1624   21.3494 C   0  0  0  0  0  0
  -29.3796  -20.8229   21.6444 C   0  0  0  0  0  0
  -27.8668  -22.2685   22.8739 C   0  0  0  0  0  0
  -29.6876  -15.4497   22.6520 C   0  0  0  0  0  0
  -31.1228  -16.8134   21.1668 C   0  0  0  0  0  0
  -28.6103  -24.5288   21.0262 C   0  0  0  0  0  0
  -28.8306  -23.0368   20.6670 C   0  0  0  0  0  0
  -28.5950  -25.4140   19.7657 C   0  0  0  0  0  0
  -28.8804  -22.1354   21.8249 N   0  0  0  0  0  0
  -30.3634  -15.5365   21.3509 N   0  0  0  0  0  0
  -31.4424  -12.3557   19.1590 H   0  0  0  0  0  0
  -30.2572  -11.3061   19.8494 H   0  0  0  0  0  0
  -29.7605  -11.8459   17.4269 H   0  0  0  0  0  0
  -29.6513  -13.5433   17.8228 H   0  0  0  0  0  0
  -27.8399  -11.3109   18.8084 H   0  0  0  0  0  0
  -27.3697  -12.6390   17.7778 H   0  0  0  0  0  0
  -27.6930  -14.2565   19.5726 H   0  0  0  0  0  0
  -28.6581  -11.9598   21.3338 H   0  0  0  0  0  0
  -28.3640  -13.5543   21.8690 H   0  0  0  0  0  0
  -25.2735   -9.5730   22.4723 H   0  0  0  0  0  0
  -23.9989   -7.4674   22.7481 H   0  0  0  0  0  0
  -21.0814   -8.8765   19.8956 H   0  0  0  0  0  0
  -22.3637  -10.9672   19.6147 H   0  0  0  0  0  0
  -21.2030   -7.6150   23.9720 H   0  0  0  0  0  0
  -21.1500   -6.0519   25.9072 H   0  0  0  0  0  0
  -22.0579   -2.7617   23.2825 H   0  0  0  0  0  0
  -22.4045  -11.9916   22.4769 H   0  0  0  0  0  0
  -21.1107  -13.1343   22.2595 H   0  0  0  0  0  0
  -24.6580  -15.8404   20.5457 H   0  0  0  0  0  0
  -26.2936  -15.6425   20.1644 H   0  0  0  0  0  0
  -26.7126  -32.5500   23.1163 H   0  0  0  0  0  0
  -25.0205  -33.9799   25.0558 H   0  0  0  0  0  0
  -22.6835  -31.3017   21.4047 H   0  0  0  0  0  0
  -23.3809  -35.9486   23.3377 H   0  0  0  0  0  0
  -24.3574  -36.8749   22.2045 H   0  0  0  0  0  0
  -23.7186  -37.6419   23.6595 H   0  0  0  0  0  0
  -26.0608  -31.6109   20.5985 H   0  0  0  0  0  0
  -26.8091  -30.8833   21.9857 H   0  0  0  0  0  0
  -28.1011  -29.1419   21.1325 H   0  0  0  0  0  0
  -26.0271  -25.9608   19.0518 H   0  0  0  0  0  0
  -23.9777  -27.2737   19.0767 H   0  0  0  0  0  0
  -23.7156  -30.5876   19.3975 H   0  0  0  0  0  0
  -22.7354  -29.2365   19.8651 H   0  0  0  0  0  0
  -25.1324  -36.1941   25.0833 H   0  0  0  0  0  0
  -20.9929  -28.3199   24.1469 H   0  0  0  0  0  0
  -20.5683  -26.2223   23.3574 H   0  0  0  0  0  0
  -21.6618  -26.7467   22.1208 H   0  0  0  0  0  0
  -19.6907  -25.6327   21.1213 H   0  0  0  0  0  0
  -19.6721  -27.3236   20.6760 H   0  0  0  0  0  0
  -17.4182  -26.6664   21.4016 H   0  0  0  0  0  0
  -18.0325  -26.0094   22.9013 H   0  0  0  0  0  0
  -19.7923  -30.7272   24.2255 H   0  0  0  0  0  0
  -17.5030  -31.6302   24.5183 H   0  0  0  0  0  0
  -15.5356  -30.3077   23.7672 H   0  0  0  0  0  0
  -15.8599  -28.0912   22.7064 H   0  0  0  0  0  0
  -24.5991  -30.6939   25.7787 H   0  0  0  0  0  0
  -24.8931  -32.2713   26.4962 H   0  0  0  0  0  0
  -25.8175  -30.8730   27.0170 H   0  0  0  0  0  0
  -26.2792  -29.6810   24.1166 H   0  0  0  0  0  0
  -27.4159  -29.7247   25.4476 H   0  0  0  0  0  0
  -27.8631  -30.4378   23.9156 H   0  0  0  0  0  0
  -27.2763  -33.3526   26.2145 H   0  0  0  0  0  0
  -28.3935  -32.6789   25.0379 H   0  0  0  0  0  0
  -28.0734  -31.8285   26.5410 H   0  0  0  0  0  0
  -28.2662  -38.0017   24.7568 H   0  0  0  0  0  0
  -28.1012  -36.2560   24.6325 H   0  0  0  0  0  0
  -27.2279  -37.1422   25.8907 H   0  0  0  0  0  0
  -20.9265  -29.8620   21.6898 H   0  0  0  0  0  0
  -26.0186  -38.2857   24.1474 H   0  0  0  0  0  0
  -30.7436  -18.2769   23.4888 H   0  0  0  0  0  0
  -30.0321  -18.4728   19.2321 H   0  0  0  0  0  0
  -29.8052  -20.5196   23.7487 H   0  0  0  0  0  0
  -29.1396  -20.7236   19.4822 H   0  0  0  0  0  0
  -27.4389  -21.3103   23.1725 H   0  0  0  0  0  0
  -27.0316  -22.8851   22.5437 H   0  0  0  0  0  0
  -28.2963  -22.7425   23.7559 H   0  0  0  0  0  0
  -29.8628  -14.4913   23.1442 H   0  0  0  0  0  0
  -28.6157  -15.6159   22.5369 H   0  0  0  0  0  0
  -30.0415  -16.1980   23.3540 H   0  0  0  0  0  0
  -31.9780  -16.7963   21.8453 H   0  0  0  0  0  0
  -31.5529  -16.8680   20.1636 H   0  0  0  0  0  0
  -29.4025  -24.8670   21.6973 H   0  0  0  0  0  0
  -27.6734  -24.6751   21.5629 H   0  0  0  0  0  0
  -29.7715  -22.9527   20.1178 H   0  0  0  0  0  0
  -28.0473  -22.7043   19.9844 H   0  0  0  0  0  0
  -27.8687  -25.0565   19.0387 H   0  0  0  0  0  0
  -29.5583  -25.3080   19.2670 H   0  0  0  0  0  0
  1 25  1  0  0  0
  1 30  2  0  0  0
  1 84  1  0  0  0
  2  3  1  0  0  0
  2 25  1  0  0  0
  2 85  1  0  0  0
  2 86  1  0  0  0
  3  4  1  0  0  0
  3 87  1  0  0  0
  3 88  1  0  0  0
  4  5  1  0  0  0
  4 89  1  0  0  0
  4 90  1  0  0  0
  5  6  1  0  0  0
  5 26  1  0  0  0
  5 91  1  0  0  0
  6 25  1  0  0  0
  6 92  1  0  0  0
  6 93  1  0  0  0
  7  8  2  0  0  0
  7 26  1  0  0  0
  7 29  1  0  0  0
  8  9  1  0  0  0
  8 22  1  0  0  0
  9 10  1  0  0  0
  9 27  2  0  0  0
 10 11  2  0  0  0
 10 15  1  0  0  0
 11 12  1  0  0  0
 11 94  1  0  0  0
 12 13  2  0  0  0
 12 95  1  0  0  0
 13 14  1  0  0  0
 13 31  1  0  0  0
 14 15  2  0  0  0
 14 96  1  0  0  0
 15 97  1  0  0  0
 16 17  2  0  0  0
 16 21  1  0  0  0
 16 31  1  0  0  0
 17 18  1  0  0  0
 17 98  1  0  0  0
 18 19  2  0  0  0
 18 99  1  0  0  0
 19 20  1  0  0  0
 19 24  1  0  0  0
 20 21  2  0  0  0
 20100  1  0  0  0
 21 23  1  0  0  0
 22 28  1  0  0  0
 22 32  2  0  0  0
 26 27  1  0  0  0
 28101  1  0  0  0
 28102  1  0  0  0
 29103  1  0  0  0
 29104  1  0  0  0
 33 34  1  0  0  0
 33 66  1  0  0  0
 33 70  2  0  0  0
 34 36  1  0  0  0
 34 59  1  0  0  0
 34105  1  0  0  0
 35 44  2  0  0  0
 35 45  1  0  0  0
 35 68  1  0  0  0
 36 56  1  0  0  0
 36106  1  0  0  0
 37 39  1  0  0  0
 37 47  1  0  0  0
 37 66  1  0  0  0
 37107  1  0  0  0
 38 43  2  0  0  0
 38 46  1  0  0  0
 38 47  1  0  0  0
 39 64  1  0  0  0
 39 67  2  0  0  0
 40 52  1  0  0  0
 40 53  2  0  0  0
 40 58  1  0  0  0
 41108  1  0  0  0
 41109  1  0  0  0
 41110  1  0  0  0
 41 48  1  0  0  0
 42 43  1  0  0  0
 42 66  1  0  0  0
 42111  1  0  0  0
 42112  1  0  0  0
 43 44  1  0  0  0
 44113  1  0  0  0
 45 46  2  0  0  0
 45114  1  0  0  0
 46115  1  0  0  0
 47116  1  0  0  0
 47117  1  0  0  0
 48 56  1  0  0  0
 48 65  1  0  0  0
 48118  1  0  0  0
 49 50  1  0  0  0
 49 53  1  0  0  0
 49 64  1  0  0  0
 49119  1  0  0  0
 50 51  1  0  0  0
 50120  1  0  0  0
 50121  1  0  0  0
 51 52  1  0  0  0
 51122  1  0  0  0
 51123  1  0  0  0
 52124  1  0  0  0
 52125  1  0  0  0
 53 54  1  0  0  0
 54 55  2  0  0  0
 54126  1  0  0  0
 55 57  1  0  0  0
 55127  1  0  0  0
 56 69  2  0  0  0
 57 58  2  0  0  0
 57128  1  0  0  0
 58129  1  0  0  0
 59 60  1  0  0  0
 59 61  1  0  0  0
 59 62  1  0  0  0
 60130  1  0  0  0
 60131  1  0  0  0
 60132  1  0  0  0
 61133  1  0  0  0
 61134  1  0  0  0
 61135  1  0  0  0
 62136  1  0  0  0
 62137  1  0  0  0
 62138  1  0  0  0
 63 65  1  0  0  0
 63139  1  0  0  0
 63140  1  0  0  0
 63141  1  0  0  0
 64142  1  0  0  0
 65143  1  0  0  0
 68 82  1  0  0  0
 71 73  2  0  0  0
 71 75  1  0  0  0
 71144  1  0  0  0
 72 74  1  0  0  0
 72 75  2  0  0  0
 72145  1  0  0  0
 73 76  1  0  0  0
 73146  1  0  0  0
 74 76  2  0  0  0
 74147  1  0  0  0
 75 79  1  0  0  0
 76 83  1  0  0  0
 77 83  1  0  0  0
 77148  1  0  0  0
 77149  1  0  0  0
 77150  1  0  0  0
 78 84  1  0  0  0
 78151  1  0  0  0
 78152  1  0  0  0
 78153  1  0  0  0
 79 84  1  0  0  0
 79154  1  0  0  0
 79155  1  0  0  0
 80 81  1  0  0  0
 80 82  1  0  0  0
 80156  1  0  0  0
 80157  1  0  0  0
 81 83  1  0  0  0
 81158  1  0  0  0
 81159  1  0  0  0
 82160  1  0  0  0
 82161  1  0  0  0
M  ISO  4   1 100  68 101  82 101  84 100
M  END
> <chiral flag>
0

> <version>
0

> <s_m_source_file>
/data/baiqing/PycharmProjects/Reinvent-master-3.2/result/LINK_invent/BTK/process_docking_weight1_custom_product_contain_oxygen_bond_distance_aromatic_linkinvent_7_9_3/rearranged_h_0017.sdf

> <i_m_source_file_index>
54

> <r_mmod_Potential_Energy-OPLS-2005>
100.385414123535

> <r_mmod_Stretch_Energy-OPLS-2005>
46.212100982666

> <r_mmod_Bend_Energy-OPLS-2005>
142.126251220703

> <r_mmod_Torsional_Energy-OPLS-2005>
238.704498291016

> <r_mmod_Improper_Torsional_Energy-OPLS-2005>
7.92415904998779

> <r_mmod_Van_der_Waal_Energy-OPLS-2005>
180.791030883789

> <r_mmod_Electrostatic_Energy-OPLS-2005>
-317.921661376953

> <r_mmod_Solvation_Energy-OPLS-2005>
-212.284820556641

> <b_mmod_Minimization_Converged-OPLS-2005>
0

> <r_mmod_RMS_Derivative-OPLS-2005>
4.60344171524048

$$$$
55
                    3D
 Structure written by MMmdl.
162170  0  0  1  0            999 V2000
  -30.4958  -14.5469   20.5861 C   0  0  0  0  0  0
  -30.4295  -12.3372   19.4225 C   0  0  0  0  0  0
  -29.4782  -12.4993   18.2100 C   0  0  0  0  0  0
  -27.9975  -12.3619   18.6250 C   0  0  0  0  0  0
  -27.6552  -13.1493   19.9154 C   0  0  2  0  0  0
  -28.6992  -12.8548   21.0115 C   0  0  0  0  0  0
  -25.2643  -13.8030   20.5861 C   0  0  0  0  0  0
  -24.1755  -13.0327   20.9174 C   0  0  0  0  0  0
  -24.6250  -11.6827   20.8820 C   0  0  0  0  0  0
  -23.8923  -10.4197   21.0431 C   0  0  0  0  0  0
  -24.3510   -9.4148   21.9217 C   0  0  0  0  0  0
  -23.6215   -8.2176   22.0752 C   0  0  0  0  0  0
  -22.4246   -8.0213   21.3508 C   0  0  0  0  0  0
  -21.9818   -9.0181   20.4647 C   0  0  0  0  0  0
  -22.7104  -10.2082   20.3065 C   0  0  0  0  0  0
  -21.6821   -6.0714   22.5273 C   0  0  0  0  0  0
  -21.3987   -6.5621   23.8203 C   0  0  0  0  0  0
  -21.3652   -5.6784   24.9177 C   0  0  0  0  0  0
  -21.6050   -4.3046   24.7237 C   0  0  0  0  0  0
  -21.8830   -3.8132   23.4360 C   0  0  0  0  0  0
  -21.9187   -4.6943   22.3407 C   0  0  0  0  0  0
  -22.7853  -13.5264   21.1814 C   0  0  0  0  0  0
  -22.1669   -4.2126   21.0980 F   0  0  0  0  0  0
  -21.5637   -3.4539   25.7742 F   0  0  0  0  0  0
  -30.0019  -13.2755   20.4767 N   0  0  0  0  0  0
  -26.2949  -12.9026   20.3626 N   0  0  0  0  0  0
  -25.9125  -11.6297   20.5881 N   0  0  0  0  0  0
  -22.0435  -12.8250   22.0400 N   0  0  0  0  0  0
  -25.4495  -15.1716   20.4511 N   0  0  0  0  0  0
  -31.5900  -14.8779   20.1188 O   0  0  0  0  0  0
  -21.6615   -6.8843   21.4231 O   0  0  0  0  0  0
  -22.3610  -14.5565   20.6659 O   0  0  0  0  0  0
  -24.6334  -31.8666   23.1998 C   0  0  0  0  0  0
  -25.9152  -32.4790   23.8264 C   0  0  1  0  0  0
  -27.1354  -27.3176   20.2216 C   0  0  0  0  0  0
  -25.5990  -33.8602   24.2239 N   0  0  0  0  0  0
  -23.4125  -30.5031   21.5489 C   0  0  2  0  0  0
  -24.8251  -28.9517   20.1032 C   0  0  0  0  0  0
  -22.7557  -29.4812   22.5021 C   0  0  0  0  0  0
  -18.0625  -28.0825   22.8480 C   0  0  0  0  0  0
  -24.1485  -36.7282   23.2628 C   0  0  0  0  0  0
  -25.9433  -30.8149   21.3495 C   0  0  0  0  0  0
  -25.9976  -29.4496   20.6926 C   0  0  0  0  0  0
  -27.1713  -28.6553   20.7075 C   0  0  0  0  0  0
  -25.9701  -26.8690   19.5716 C   0  0  0  0  0  0
  -24.8138  -27.6708   19.5246 C   0  0  0  0  0  0
  -23.6010  -29.8445   20.1560 C   0  0  0  0  0  0
  -25.4112  -36.3060   24.0322 C   0  0  1  0  0  0
  -20.6281  -28.3540   23.1235 C   0  0  2  0  0  0
  -20.7515  -26.9569   22.4491 C   0  0  0  0  0  0
  -19.6110  -26.6024   21.4804 C   0  0  0  0  0  0
  -18.2378  -26.7441   22.1634 C   0  0  0  0  0  0
  -19.1812  -28.8421   23.2849 C   0  0  0  0  0  0
  -18.9648  -30.0952   23.8955 C   0  0  0  0  0  0
  -17.6604  -30.6085   24.0459 C   0  0  0  0  0  0
  -25.9094  -34.9468   23.5079 C   0  0  0  0  0  0
  -16.5539  -29.8562   23.5940 C   0  0  0  0  0  0
  -16.7566  -28.6049   23.0026 C   0  0  0  0  0  0
  -26.4497  -31.6616   25.0654 C   0  0  0  0  0  0
  -25.3734  -31.3828   26.1384 C   0  0  0  0  0  0
  -27.0343  -30.3053   24.6164 C   0  0  0  0  0  0
  -27.6059  -32.4322   25.7469 C   0  0  0  0  0  0
  -27.5565  -37.1811   24.8467 C   0  0  0  0  0  0
  -21.4288  -29.3356   22.4017 N   0  0  0  0  0  0
  -26.4266  -37.3771   23.9417 N   0  0  0  0  0  0
  -24.6813  -31.0786   22.0866 N   0  0  0  0  0  0
  -23.4502  -28.8031   23.2678 O   0  0  0  0  0  0
  -28.1877  -26.4458   20.4550 O   0  0  0  0  0  0
  -26.5642  -34.8941   22.4640 O   0  0  0  0  0  0
  -23.5527  -32.1438   23.7495 O   0  0  0  0  0  0
  -28.2487  -18.8464   22.0386 C   0  0  0  0  0  0
  -28.9969  -17.6217   22.0913 C   0  0  0  0  0  0
  -27.6009  -18.2934   19.8013 C   0  0  0  0  0  0
  -27.5179  -19.2205   20.8732 C   0  0  0  0  0  0
  -28.3846  -17.1067   19.8195 C   0  0  0  0  0  0
  -29.0925  -16.7176   20.9930 C   0  0  0  0  0  0
  -28.3749  -16.2962   18.5424 C   0  0  0  0  0  0
  -25.5103  -21.1492   22.7163 C   0  0  0  0  0  0
  -26.7488  -20.5729   20.6247 C   0  0  0  0  0  0
  -27.0548  -24.2470   21.6586 C   0  0  0  0  0  0
  -26.1930  -23.0006   21.1757 C   0  0  0  0  0  0
  -27.9520  -24.9748   20.5504 C   0  0  0  0  0  0
  -29.6384  -15.3853   21.2471 N   0  0  0  0  0  0
  -26.5221  -21.5958   21.7154 N   0  3  1  0  0  0
  -31.4638  -12.5002   19.1137 H   0  0  0  0  0  0
  -30.3883  -11.3065   19.7836 H   0  0  0  0  0  0
  -29.7035  -11.7592   17.4389 H   0  0  0  0  0  0
  -29.6444  -13.4713   17.7480 H   0  0  0  0  0  0
  -27.7898  -11.3012   18.7927 H   0  0  0  0  0  0
  -27.3391  -12.6761   17.8182 H   0  0  0  0  0  0
  -27.7043  -14.1992   19.6918 H   0  0  0  0  0  0
  -28.7047  -11.7848   21.2286 H   0  0  0  0  0  0
  -28.4468  -13.3333   21.9574 H   0  0  0  0  0  0
  -25.2653   -9.5689   22.4804 H   0  0  0  0  0  0
  -23.9958   -7.4591   22.7444 H   0  0  0  0  0  0
  -21.0764   -8.8702   19.8935 H   0  0  0  0  0  0
  -22.3553  -10.9662   19.6201 H   0  0  0  0  0  0
  -21.1960   -7.6131   23.9701 H   0  0  0  0  0  0
  -21.1466   -6.0521   25.9085 H   0  0  0  0  0  0
  -22.0614   -2.7592   23.2864 H   0  0  0  0  0  0
  -22.4008  -11.9875   22.4758 H   0  0  0  0  0  0
  -21.1060  -13.1307   22.2595 H   0  0  0  0  0  0
  -24.7024  -15.8339   20.6284 H   0  0  0  0  0  0
  -26.3478  -15.6177   20.3014 H   0  0  0  0  0  0
  -26.7255  -32.5363   23.1008 H   0  0  0  0  0  0
  -25.0075  -33.9679   25.0355 H   0  0  0  0  0  0
  -22.6992  -31.3231   21.4337 H   0  0  0  0  0  0
  -23.3735  -35.9617   23.3312 H   0  0  0  0  0  0
  -24.3563  -36.8915   22.2028 H   0  0  0  0  0  0
  -23.7250  -37.6513   23.6659 H   0  0  0  0  0  0
  -26.1054  -31.5844   20.5992 H   0  0  0  0  0  0
  -26.8191  -30.8324   21.9849 H   0  0  0  0  0  0
  -28.0753  -29.0297   21.1705 H   0  0  0  0  0  0
  -25.9194  -25.8659   19.1683 H   0  0  0  0  0  0
  -23.9117  -27.3025   19.0481 H   0  0  0  0  0  0
  -23.7164  -30.6416   19.4235 H   0  0  0  0  0  0
  -22.7070  -29.3109   19.8395 H   0  0  0  0  0  0
  -25.1295  -36.1881   25.0820 H   0  0  0  0  0  0
  -21.0177  -28.2767   24.1452 H   0  0  0  0  0  0
  -20.7552  -26.2200   23.2635 H   0  0  0  0  0  0
  -21.7129  -26.8305   21.9463 H   0  0  0  0  0  0
  -19.7276  -25.5798   21.1134 H   0  0  0  0  0  0
  -19.6449  -27.2305   20.5918 H   0  0  0  0  0  0
  -17.4503  -26.6175   21.4218 H   0  0  0  0  0  0
  -18.1074  -25.9558   22.9218 H   0  0  0  0  0  0
  -19.8197  -30.6368   24.2851 H   0  0  0  0  0  0
  -17.5156  -31.5766   24.5053 H   0  0  0  0  0  0
  -15.5436  -30.2450   23.6983 H   0  0  0  0  0  0
  -15.9096  -28.0162   22.6507 H   0  0  0  0  0  0
  -24.5883  -30.7181   25.7738 H   0  0  0  0  0  0
  -24.8893  -32.3038   26.4712 H   0  0  0  0  0  0
  -25.8000  -30.9068   27.0238 H   0  0  0  0  0  0
  -26.2952  -29.6789   24.1163 H   0  0  0  0  0  0
  -27.4040  -29.7312   25.4674 H   0  0  0  0  0  0
  -27.8800  -30.4313   23.9389 H   0  0  0  0  0  0
  -27.2700  -33.3668   26.2030 H   0  0  0  0  0  0
  -28.3931  -32.6891   25.0330 H   0  0  0  0  0  0
  -28.0709  -31.8452   26.5441 H   0  0  0  0  0  0
  -28.2599  -38.0097   24.7486 H   0  0  0  0  0  0
  -28.1057  -36.2630   24.6321 H   0  0  0  0  0  0
  -27.2290  -37.1493   25.8878 H   0  0  0  0  0  0
  -20.9139  -29.9374   21.7821 H   0  0  0  0  0  0
  -26.0150  -38.2854   24.1437 H   0  0  0  0  0  0
  -28.2637  -19.4940   22.8978 H   0  0  0  0  0  0
  -29.4756  -17.3652   23.0207 H   0  0  0  0  0  0
  -27.0609  -18.5248   18.8937 H   0  0  0  0  0  0
  -27.4008  -15.8264   18.3812 H   0  0  0  0  0  0
  -29.1465  -15.5364   18.5361 H   0  0  0  0  0  0
  -28.5593  -16.9271   17.6745 H   0  0  0  0  0  0
  -25.6911  -20.1444   23.0897 H   0  0  0  0  0  0
  -24.5208  -21.1506   22.2721 H   0  0  0  0  0  0
  -25.4853  -21.8168   23.5873 H   0  0  0  0  0  0
  -25.7712  -20.2782   20.2269 H   0  0  0  0  0  0
  -27.3183  -21.0395   19.8101 H   0  0  0  0  0  0
  -27.6936  -23.8994   22.4633 H   0  0  0  0  0  0
  -26.3739  -24.9750   22.0984 H   0  0  0  0  0  0
  -26.2158  -23.0029   20.0995 H   0  0  0  0  0  0
  -25.1570  -23.2484   21.4243 H   0  0  0  0  0  0
  -27.6971  -24.5806   19.5696 H   0  0  0  0  0  0
  -28.9305  -24.5573   20.7508 H   0  0  0  0  0  0
  -29.0167  -14.8104   21.8046 H   0  0  0  0  0  0
  -27.3847  -21.6561   22.2143 H   0  0  0  0  0  0
  1 25  1  0  0  0
  1 30  2  0  0  0
  1 83  1  0  0  0
  2  3  1  0  0  0
  2 25  1  0  0  0
  2 85  1  0  0  0
  2 86  1  0  0  0
  3  4  1  0  0  0
  3 87  1  0  0  0
  3 88  1  0  0  0
  4  5  1  0  0  0
  4 89  1  0  0  0
  4 90  1  0  0  0
  5  6  1  0  0  0
  5 26  1  0  0  0
  5 91  1  0  0  0
  6 25  1  0  0  0
  6 92  1  0  0  0
  6 93  1  0  0  0
  7  8  2  0  0  0
  7 26  1  0  0  0
  7 29  1  0  0  0
  8  9  1  0  0  0
  8 22  1  0  0  0
  9 10  1  0  0  0
  9 27  2  0  0  0
 10 11  2  0  0  0
 10 15  1  0  0  0
 11 12  1  0  0  0
 11 94  1  0  0  0
 12 13  2  0  0  0
 12 95  1  0  0  0
 13 14  1  0  0  0
 13 31  1  0  0  0
 14 15  2  0  0  0
 14 96  1  0  0  0
 15 97  1  0  0  0
 16 17  2  0  0  0
 16 21  1  0  0  0
 16 31  1  0  0  0
 17 18  1  0  0  0
 17 98  1  0  0  0
 18 19  2  0  0  0
 18 99  1  0  0  0
 19 20  1  0  0  0
 19 24  1  0  0  0
 20 21  2  0  0  0
 20100  1  0  0  0
 21 23  1  0  0  0
 22 28  1  0  0  0
 22 32  2  0  0  0
 26 27  1  0  0  0
 28101  1  0  0  0
 28102  1  0  0  0
 29103  1  0  0  0
 29104  1  0  0  0
 33 34  1  0  0  0
 33 66  1  0  0  0
 33 70  2  0  0  0
 34 36  1  0  0  0
 34 59  1  0  0  0
 34105  1  0  0  0
 35 44  2  0  0  0
 35 45  1  0  0  0
 35 68  1  0  0  0
 36 56  1  0  0  0
 36106  1  0  0  0
 37 39  1  0  0  0
 37 47  1  0  0  0
 37 66  1  0  0  0
 37107  1  0  0  0
 38 43  2  0  0  0
 38 46  1  0  0  0
 38 47  1  0  0  0
 39 64  1  0  0  0
 39 67  2  0  0  0
 40 52  1  0  0  0
 40 53  2  0  0  0
 40 58  1  0  0  0
 41108  1  0  0  0
 41109  1  0  0  0
 41110  1  0  0  0
 41 48  1  0  0  0
 42 43  1  0  0  0
 42 66  1  0  0  0
 42111  1  0  0  0
 42112  1  0  0  0
 43 44  1  0  0  0
 44113  1  0  0  0
 45 46  2  0  0  0
 45114  1  0  0  0
 46115  1  0  0  0
 47116  1  0  0  0
 47117  1  0  0  0
 48 56  1  0  0  0
 48 65  1  0  0  0
 48118  1  0  0  0
 49 50  1  0  0  0
 49 53  1  0  0  0
 49 64  1  0  0  0
 49119  1  0  0  0
 50 51  1  0  0  0
 50120  1  0  0  0
 50121  1  0  0  0
 51 52  1  0  0  0
 51122  1  0  0  0
 51123  1  0  0  0
 52124  1  0  0  0
 52125  1  0  0  0
 53 54  1  0  0  0
 54 55  2  0  0  0
 54126  1  0  0  0
 55 57  1  0  0  0
 55127  1  0  0  0
 56 69  2  0  0  0
 57 58  2  0  0  0
 57128  1  0  0  0
 58129  1  0  0  0
 59 60  1  0  0  0
 59 61  1  0  0  0
 59 62  1  0  0  0
 60130  1  0  0  0
 60131  1  0  0  0
 60132  1  0  0  0
 61133  1  0  0  0
 61134  1  0  0  0
 61135  1  0  0  0
 62136  1  0  0  0
 62137  1  0  0  0
 62138  1  0  0  0
 63 65  1  0  0  0
 63139  1  0  0  0
 63140  1  0  0  0
 63141  1  0  0  0
 64142  1  0  0  0
 65143  1  0  0  0
 68 82  1  0  0  0
 71 72  2  0  0  0
 71 74  1  0  0  0
 71144  1  0  0  0
 72 76  1  0  0  0
 72145  1  0  0  0
 73 74  2  0  0  0
 73 75  1  0  0  0
 73146  1  0  0  0
 74 79  1  0  0  0
 75 76  2  0  0  0
 75 77  1  0  0  0
 76 83  1  0  0  0
 77147  1  0  0  0
 77148  1  0  0  0
 77149  1  0  0  0
 78150  1  0  0  0
 78151  1  0  0  0
 78152  1  0  0  0
 78 84  1  0  0  0
 79 84  1  0  0  0
 79153  1  0  0  0
 79154  1  0  0  0
 80 81  1  0  0  0
 80 82  1  0  0  0
 80155  1  0  0  0
 80156  1  0  0  0
 81 84  1  0  0  0
 81157  1  0  0  0
 81158  1  0  0  0
 82159  1  0  0  0
 82160  1  0  0  0
 83161  1  0  0  0
 84162  1  0  0  0
M  CHG  1  84   1
M  ISO  4   1 100  68 101  82 101  83 100
M  END
> <chiral flag>
0

> <version>
0

> <s_m_source_file>
/data/baiqing/PycharmProjects/Reinvent-master-3.2/result/LINK_invent/BTK/process_docking_weight1_custom_product_contain_oxygen_bond_distance_aromatic_linkinvent_7_9_3/rearranged_h_0017.sdf

> <i_m_source_file_index>
55

> <r_mmod_Potential_Energy-OPLS-2005>
52.7650413513184

> <r_mmod_Stretch_Energy-OPLS-2005>
84.4632949829102

> <r_mmod_Bend_Energy-OPLS-2005>
184.765823364258

> <r_mmod_Torsional_Energy-OPLS-2005>
288.531951904297

> <r_mmod_Improper_Torsional_Energy-OPLS-2005>
7.32989263534546

> <r_mmod_Van_der_Waal_Energy-OPLS-2005>
148.09733581543

> <r_mmod_Electrostatic_Energy-OPLS-2005>
-283.143676757812

> <r_mmod_Solvation_Energy-OPLS-2005>
-456.841461181641

> <b_mmod_Minimization_Converged-OPLS-2005>
0

> <r_mmod_RMS_Derivative-OPLS-2005>
23.7338619232178

$$$$
56
                    3D
 Structure written by MMmdl.
164172  0  0  1  0            999 V2000
  -30.7701  -14.4097   20.6512 C   0  0  0  0  0  0
  -30.4126  -12.3026   19.4096 C   0  0  0  0  0  0
  -29.4819  -12.4918   18.1975 C   0  0  0  0  0  0
  -28.0097  -12.3293   18.6183 C   0  0  0  0  0  0
  -27.6527  -13.1818   19.8606 C   0  0  2  0  0  0
  -28.6956  -12.9888   20.9868 C   0  0  0  0  0  0
  -25.2588  -13.8097   20.5656 C   0  0  0  0  0  0
  -24.1830  -13.0413   20.9187 C   0  0  0  0  0  0
  -24.6353  -11.6870   20.8753 C   0  0  0  0  0  0
  -23.9019  -10.4274   21.0424 C   0  0  0  0  0  0
  -24.3586   -9.4193   21.9195 C   0  0  0  0  0  0
  -23.6271   -8.2227   22.0758 C   0  0  0  0  0  0
  -22.4257   -8.0265   21.3545 C   0  0  0  0  0  0
  -21.9886   -9.0236   20.4647 C   0  0  0  0  0  0
  -22.7203  -10.2119   20.3062 C   0  0  0  0  0  0
  -21.6843   -6.0725   22.5281 C   0  0  0  0  0  0
  -21.4006   -6.5634   23.8213 C   0  0  0  0  0  0
  -21.3660   -5.6791   24.9177 C   0  0  0  0  0  0
  -21.6048   -4.3054   24.7232 C   0  0  0  0  0  0
  -21.8819   -3.8143   23.4354 C   0  0  0  0  0  0
  -21.9189   -4.6955   22.3406 C   0  0  0  0  0  0
  -22.7863  -13.5236   21.1856 C   0  0  0  0  0  0
  -22.1659   -4.2138   21.0984 F   0  0  0  0  0  0
  -21.5632   -3.4541   25.7747 F   0  0  0  0  0  0
  -30.0327  -13.2827   20.4413 N   0  0  0  0  0  0
  -26.2970  -12.9206   20.3298 N   0  0  0  0  0  0
  -25.9258  -11.6400   20.5758 N   0  0  0  0  0  0
  -22.0494  -12.8233   22.0409 N   0  0  0  0  0  0
  -25.4330  -15.1814   20.4037 N   0  0  0  0  0  0
  -31.8627  -14.5927   20.1042 O   0  0  0  0  0  0
  -21.6625   -6.8863   21.4241 O   0  0  0  0  0  0
  -22.3563  -14.5549   20.6704 O   0  0  0  0  0  0
  -24.6098  -31.8710   23.2142 C   0  0  0  0  0  0
  -25.9008  -32.4840   23.8424 C   0  0  1  0  0  0
  -27.2410  -27.4759   20.0993 C   0  0  0  0  0  0
  -25.5890  -33.8637   24.2351 N   0  0  0  0  0  0
  -23.3966  -30.4919   21.5533 C   0  0  2  0  0  0
  -24.8459  -28.9561   20.1240 C   0  0  0  0  0  0
  -22.7383  -29.4664   22.5027 C   0  0  0  0  0  0
  -18.0262  -28.1378   22.8496 C   0  0  0  0  0  0
  -24.1482  -36.7320   23.2643 C   0  0  0  0  0  0
  -25.9197  -30.8468   21.3638 C   0  0  0  0  0  0
  -26.0001  -29.4803   20.7205 C   0  0  0  0  0  0
  -27.2017  -28.7441   20.7113 C   0  0  0  0  0  0
  -26.0779  -26.9506   19.5029 C   0  0  0  0  0  0
  -24.8762  -27.6864   19.5168 C   0  0  0  0  0  0
  -23.6046  -29.8182   20.1696 C   0  0  0  0  0  0
  -25.4105  -36.3119   24.0341 C   0  0  1  0  0  0
  -20.5844  -28.3655   23.1338 C   0  0  2  0  0  0
  -20.6751  -26.9400   22.5417 C   0  0  0  0  0  0
  -19.5733  -26.6384   21.5214 C   0  0  0  0  0  0
  -18.1910  -26.7927   22.1620 C   0  0  0  0  0  0
  -19.1508  -28.8835   23.2913 C   0  0  0  0  0  0
  -18.9441  -30.1443   23.8921 C   0  0  0  0  0  0
  -17.6444  -30.6589   24.0563 C   0  0  0  0  0  0
  -25.9026  -34.9482   23.5140 C   0  0  0  0  0  0
  -16.5334  -29.9087   23.6328 C   0  0  0  0  0  0
  -16.7250  -28.6500   23.0359 C   0  0  0  0  0  0
  -26.4469  -31.6612   25.0737 C   0  0  0  0  0  0
  -25.3750  -31.3681   26.1490 C   0  0  0  0  0  0
  -27.0335  -30.3073   24.6091 C   0  0  0  0  0  0
  -27.6044  -32.4343   25.7490 C   0  0  0  0  0  0
  -27.5580  -37.1814   24.8469 C   0  0  0  0  0  0
  -21.4116  -29.3026   22.3758 N   0  0  0  0  0  0
  -26.4298  -37.3795   23.9407 N   0  0  0  0  0  0
  -24.6594  -31.0841   22.1026 N   0  0  0  0  0  0
  -23.4170  -28.8217   23.3064 O   0  0  0  0  0  0
  -28.4187  -26.7841   20.0219 O   0  0  0  0  0  0
  -26.5581  -34.8930   22.4697 O   0  0  0  0  0  0
  -23.5299  -32.1446   23.7556 O   0  0  0  0  0  0
  -30.4796  -19.9553   19.3948 C   0  0  0  0  0  0
  -30.3900  -18.7947   18.6128 C   0  0  0  0  0  0
  -29.7312  -18.7006   21.3398 C   0  0  0  0  0  0
  -30.1135  -19.9283   20.7549 C   0  0  0  0  0  0
  -29.9511  -17.5813   19.1761 C   0  0  0  0  0  0
  -29.6561  -17.5174   20.5676 C   0  0  0  0  0  0
  -29.7989  -16.4039   18.2285 C   0  0  0  0  0  0
  -31.2667  -15.8113   22.5633 C   0  0  0  0  0  0
  -29.2260  -16.2252   21.2704 C   0  0  0  0  0  0
  -28.3963  -24.4960   20.7399 C   0  0  0  0  0  0
  -29.0739  -22.2218   20.9517 C   0  0  0  0  0  0
  -28.7100  -25.9472   21.1326 C   0  0  0  0  0  0
  -30.1084  -21.2358   21.5401 C   0  0  0  0  0  0
  -29.1708  -23.5547   21.5421 N   0  0  0  0  0  0
  -30.3169  -15.2828   21.5792 N   0  0  0  0  0  0
  -29.8240  -21.0251   22.8270 F   0  0  0  0  0  0
  -31.3291  -21.7694   21.4643 F   0  0  0  0  0  0
  -31.4545  -12.3956   19.0983 H   0  0  0  0  0  0
  -30.3166  -11.2918   19.8088 H   0  0  0  0  0  0
  -29.7265  -11.7660   17.4204 H   0  0  0  0  0  0
  -29.6384  -13.4756   17.7547 H   0  0  0  0  0  0
  -27.8414  -11.2736   18.8346 H   0  0  0  0  0  0
  -27.3489  -12.5768   17.7869 H   0  0  0  0  0  0
  -27.6727  -14.2093   19.5150 H   0  0  0  0  0  0
  -28.6732  -11.9594   21.3475 H   0  0  0  0  0  0
  -28.4427  -13.6001   21.8532 H   0  0  0  0  0  0
  -25.2729   -9.5671   22.4772 H   0  0  0  0  0  0
  -23.9981   -7.4615   22.7473 H   0  0  0  0  0  0
  -21.0821   -8.8751   19.8948 H   0  0  0  0  0  0
  -22.3663  -10.9660   19.6172 H   0  0  0  0  0  0
  -21.1994   -7.6144   23.9710 H   0  0  0  0  0  0
  -21.1486   -6.0525   25.9079 H   0  0  0  0  0  0
  -22.0600   -2.7605   23.2859 H   0  0  0  0  0  0
  -22.4095  -11.9879   22.4782 H   0  0  0  0  0  0
  -21.1116  -13.1270   22.2617 H   0  0  0  0  0  0
  -24.6642  -15.8343   20.5094 H   0  0  0  0  0  0
  -26.2772  -15.6192   20.0598 H   0  0  0  0  0  0
  -26.7086  -32.5573   23.1202 H   0  0  0  0  0  0
  -25.0075  -33.9809   25.0518 H   0  0  0  0  0  0
  -22.6828  -31.3060   21.4134 H   0  0  0  0  0  0
  -23.3744  -35.9655   23.3320 H   0  0  0  0  0  0
  -24.3569  -36.8922   22.2055 H   0  0  0  0  0  0
  -23.7241  -37.6531   23.6650 H   0  0  0  0  0  0
  -26.0251  -31.6107   20.5925 H   0  0  0  0  0  0
  -26.8097  -30.9049   21.9780 H   0  0  0  0  0  0
  -28.0987  -29.1503   21.1569 H   0  0  0  0  0  0
  -26.1077  -25.9841   19.0200 H   0  0  0  0  0  0
  -23.9892  -27.2775   19.0524 H   0  0  0  0  0  0
  -23.7076  -30.5894   19.4053 H   0  0  0  0  0  0
  -22.7316  -29.2311   19.8792 H   0  0  0  0  0  0
  -25.1281  -36.1996   25.0834 H   0  0  0  0  0  0
  -20.9929  -28.3219   24.1464 H   0  0  0  0  0  0
  -20.5666  -26.2263   23.3597 H   0  0  0  0  0  0
  -21.6625  -26.7460   22.1209 H   0  0  0  0  0  0
  -19.6892  -25.6297   21.1240 H   0  0  0  0  0  0
  -19.6677  -27.3198   20.6750 H   0  0  0  0  0  0
  -17.4185  -26.6699   21.4013 H   0  0  0  0  0  0
  -18.0294  -26.0056   22.9000 H   0  0  0  0  0  0
  -19.7919  -30.7247   24.2306 H   0  0  0  0  0  0
  -17.5006  -31.6275   24.5159 H   0  0  0  0  0  0
  -15.5339  -30.2999   23.7642 H   0  0  0  0  0  0
  -15.8648  -28.0817   22.7082 H   0  0  0  0  0  0
  -24.5921  -30.7033   25.7815 H   0  0  0  0  0  0
  -24.8941  -32.2822   26.4980 H   0  0  0  0  0  0
  -25.8117  -30.8818   27.0221 H   0  0  0  0  0  0
  -26.2879  -29.6794   24.1196 H   0  0  0  0  0  0
  -27.4195  -29.7343   25.4535 H   0  0  0  0  0  0
  -27.8664  -30.4431   23.9187 H   0  0  0  0  0  0
  -27.2664  -33.3631   26.2093 H   0  0  0  0  0  0
  -28.3829  -32.6921   25.0299 H   0  0  0  0  0  0
  -28.0746  -31.8462   26.5382 H   0  0  0  0  0  0
  -28.2605  -38.0103   24.7516 H   0  0  0  0  0  0
  -28.1065  -36.2637   24.6296 H   0  0  0  0  0  0
  -27.2293  -37.1470   25.8869 H   0  0  0  0  0  0
  -20.9280  -29.8746   21.6976 H   0  0  0  0  0  0
  -26.0194  -38.2876   24.1397 H   0  0  0  0  0  0
  -30.7994  -20.8801   18.9343 H   0  0  0  0  0  0
  -30.6402  -18.8484   17.5619 H   0  0  0  0  0  0
  -29.4736  -18.6672   22.3897 H   0  0  0  0  0  0
  -29.4882  -16.7483   17.2414 H   0  0  0  0  0  0
  -29.0437  -15.6969   18.5572 H   0  0  0  0  0  0
  -30.7478  -15.8832   18.1035 H   0  0  0  0  0  0
  -30.7500  -16.2784   23.4021 H   0  0  0  0  0  0
  -31.9192  -16.5590   22.1094 H   0  0  0  0  0  0
  -31.8971  -15.0180   22.9687 H   0  0  0  0  0  0
  -28.4415  -15.7617   20.6871 H   0  0  0  0  0  0
  -28.7278  -16.4764   22.2081 H   0  0  0  0  0  0
  -28.6618  -24.3700   19.6882 H   0  0  0  0  0  0
  -27.3262  -24.2943   20.8209 H   0  0  0  0  0  0
  -28.0645  -21.8267   21.0789 H   0  0  0  0  0  0
  -29.2424  -22.3000   19.8771 H   0  0  0  0  0  0
  -29.7739  -26.0610   21.3430 H   0  0  0  0  0  0
  -28.1758  -26.2403   22.0386 H   0  0  0  0  0  0
  -28.8290  -23.5201   22.4975 H   0  0  0  0  0  0
  1 25  1  0  0  0
  1 30  2  0  0  0
  1 85  1  0  0  0
  2  3  1  0  0  0
  2 25  1  0  0  0
  2 88  1  0  0  0
  2 89  1  0  0  0
  3  4  1  0  0  0
  3 90  1  0  0  0
  3 91  1  0  0  0
  4  5  1  0  0  0
  4 92  1  0  0  0
  4 93  1  0  0  0
  5  6  1  0  0  0
  5 26  1  0  0  0
  5 94  1  0  0  0
  6 25  1  0  0  0
  6 95  1  0  0  0
  6 96  1  0  0  0
  7  8  2  0  0  0
  7 26  1  0  0  0
  7 29  1  0  0  0
  8  9  1  0  0  0
  8 22  1  0  0  0
  9 10  1  0  0  0
  9 27  2  0  0  0
 10 11  2  0  0  0
 10 15  1  0  0  0
 11 12  1  0  0  0
 11 97  1  0  0  0
 12 13  2  0  0  0
 12 98  1  0  0  0
 13 14  1  0  0  0
 13 31  1  0  0  0
 14 15  2  0  0  0
 14 99  1  0  0  0
 15100  1  0  0  0
 16 17  2  0  0  0
 16 21  1  0  0  0
 16 31  1  0  0  0
 17 18  1  0  0  0
 17101  1  0  0  0
 18 19  2  0  0  0
 18102  1  0  0  0
 19 20  1  0  0  0
 19 24  1  0  0  0
 20 21  2  0  0  0
 20103  1  0  0  0
 21 23  1  0  0  0
 22 28  1  0  0  0
 22 32  2  0  0  0
 26 27  1  0  0  0
 28104  1  0  0  0
 28105  1  0  0  0
 29106  1  0  0  0
 29107  1  0  0  0
 33 34  1  0  0  0
 33 66  1  0  0  0
 33 70  2  0  0  0
 34 36  1  0  0  0
 34 59  1  0  0  0
 34108  1  0  0  0
 35 44  2  0  0  0
 35 45  1  0  0  0
 35 68  1  0  0  0
 36 56  1  0  0  0
 36109  1  0  0  0
 37 39  1  0  0  0
 37 47  1  0  0  0
 37 66  1  0  0  0
 37110  1  0  0  0
 38 43  2  0  0  0
 38 46  1  0  0  0
 38 47  1  0  0  0
 39 64  1  0  0  0
 39 67  2  0  0  0
 40 52  1  0  0  0
 40 53  2  0  0  0
 40 58  1  0  0  0
 41111  1  0  0  0
 41112  1  0  0  0
 41113  1  0  0  0
 41 48  1  0  0  0
 42 43  1  0  0  0
 42 66  1  0  0  0
 42114  1  0  0  0
 42115  1  0  0  0
 43 44  1  0  0  0
 44116  1  0  0  0
 45 46  2  0  0  0
 45117  1  0  0  0
 46118  1  0  0  0
 47119  1  0  0  0
 47120  1  0  0  0
 48 56  1  0  0  0
 48 65  1  0  0  0
 48121  1  0  0  0
 49 50  1  0  0  0
 49 53  1  0  0  0
 49 64  1  0  0  0
 49122  1  0  0  0
 50 51  1  0  0  0
 50123  1  0  0  0
 50124  1  0  0  0
 51 52  1  0  0  0
 51125  1  0  0  0
 51126  1  0  0  0
 52127  1  0  0  0
 52128  1  0  0  0
 53 54  1  0  0  0
 54 55  2  0  0  0
 54129  1  0  0  0
 55 57  1  0  0  0
 55130  1  0  0  0
 56 69  2  0  0  0
 57 58  2  0  0  0
 57131  1  0  0  0
 58132  1  0  0  0
 59 60  1  0  0  0
 59 61  1  0  0  0
 59 62  1  0  0  0
 60133  1  0  0  0
 60134  1  0  0  0
 60135  1  0  0  0
 61136  1  0  0  0
 61137  1  0  0  0
 61138  1  0  0  0
 62139  1  0  0  0
 62140  1  0  0  0
 62141  1  0  0  0
 63 65  1  0  0  0
 63142  1  0  0  0
 63143  1  0  0  0
 63144  1  0  0  0
 64145  1  0  0  0
 65146  1  0  0  0
 68 82  1  0  0  0
 71 72  2  0  0  0
 71 74  1  0  0  0
 71147  1  0  0  0
 72 75  1  0  0  0
 72148  1  0  0  0
 73 74  2  0  0  0
 73 76  1  0  0  0
 73149  1  0  0  0
 74 83  1  0  0  0
 75 76  2  0  0  0
 75 77  1  0  0  0
 76 79  1  0  0  0
 77150  1  0  0  0
 77151  1  0  0  0
 77152  1  0  0  0
 78 85  1  0  0  0
 78153  1  0  0  0
 78154  1  0  0  0
 78155  1  0  0  0
 79 85  1  0  0  0
 79156  1  0  0  0
 79157  1  0  0  0
 80 82  1  0  0  0
 80 84  1  0  0  0
 80158  1  0  0  0
 80159  1  0  0  0
 81 83  1  0  0  0
 81 84  1  0  0  0
 81160  1  0  0  0
 81161  1  0  0  0
 82162  1  0  0  0
 82163  1  0  0  0
 83 86  1  0  0  0
 83 87  1  0  0  0
 84164  1  0  0  0
M  ISO  4   1 100  68 101  82 101  85 100
M  END
> <chiral flag>
0

> <version>
0

> <s_m_source_file>
/data/baiqing/PycharmProjects/Reinvent-master-3.2/result/LINK_invent/BTK/process_docking_weight1_custom_product_contain_oxygen_bond_distance_aromatic_linkinvent_7_9_3/rearranged_h_0017.sdf

> <i_m_source_file_index>
56

> <r_mmod_Potential_Energy-OPLS-2005>
148.295684814453

> <r_mmod_Stretch_Energy-OPLS-2005>
34.5376663208008

> <r_mmod_Bend_Energy-OPLS-2005>
95.0590972900391

> <r_mmod_Torsional_Energy-OPLS-2005>
299.227966308594

> <r_mmod_Improper_Torsional_Energy-OPLS-2005>
5.01048278808594

> <r_mmod_Van_der_Waal_Energy-OPLS-2005>
153.366851806641

> <r_mmod_Electrostatic_Energy-OPLS-2005>
-248.219924926758

> <r_mmod_Solvation_Energy-OPLS-2005>
-200.105804443359

> <b_mmod_Minimization_Converged-OPLS-2005>
0

> <r_mmod_RMS_Derivative-OPLS-2005>
0.903364062309265

$$$$
57
                    3D
 Structure written by MMmdl.
161169  0  0  1  0            999 V2000
  -30.8063  -14.4409   20.6560 C   0  0  0  0  0  0
  -30.3939  -12.3157   19.4563 C   0  0  0  0  0  0
  -29.4933  -12.5400   18.2247 C   0  0  0  0  0  0
  -28.0154  -12.3705   18.6153 C   0  0  0  0  0  0
  -27.6528  -13.2080   19.8680 C   0  0  2  0  0  0
  -28.6824  -12.9983   20.9982 C   0  0  0  0  0  0
  -25.2537  -13.8155   20.5658 C   0  0  0  0  0  0
  -24.1800  -13.0431   20.9135 C   0  0  0  0  0  0
  -24.6351  -11.6898   20.8676 C   0  0  0  0  0  0
  -23.9036  -10.4290   21.0364 C   0  0  0  0  0  0
  -24.3592   -9.4234   21.9160 C   0  0  0  0  0  0
  -23.6271   -8.2277   22.0762 C   0  0  0  0  0  0
  -22.4257   -8.0298   21.3546 C   0  0  0  0  0  0
  -21.9875   -9.0265   20.4650 C   0  0  0  0  0  0
  -22.7198  -10.2139   20.3039 C   0  0  0  0  0  0
  -21.6846   -6.0739   22.5280 C   0  0  0  0  0  0
  -21.4028   -6.5644   23.8216 C   0  0  0  0  0  0
  -21.3672   -5.6792   24.9171 C   0  0  0  0  0  0
  -21.6052   -4.3057   24.7216 C   0  0  0  0  0  0
  -21.8813   -3.8150   23.4334 C   0  0  0  0  0  0
  -21.9194   -4.6970   22.3396 C   0  0  0  0  0  0
  -22.7838  -13.5260   21.1830 C   0  0  0  0  0  0
  -22.1656   -4.2157   21.0972 F   0  0  0  0  0  0
  -21.5629   -3.4545   25.7730 F   0  0  0  0  0  0
  -30.0290  -13.3198   20.4819 N   0  0  0  0  0  0
  -26.2947  -12.9320   20.3270 N   0  0  0  0  0  0
  -25.9268  -11.6474   20.5675 N   0  0  0  0  0  0
  -22.0473  -12.8271   22.0393 N   0  0  0  0  0  0
  -25.4241  -15.1880   20.4165 N   0  0  0  0  0  0
  -31.8838  -14.5311   20.0528 O   0  0  0  0  0  0
  -21.6637   -6.8881   21.4240 O   0  0  0  0  0  0
  -22.3546  -14.5583   20.6694 O   0  0  0  0  0  0
  -24.6126  -31.8701   23.2104 C   0  0  0  0  0  0
  -25.9051  -32.4813   23.8400 C   0  0  1  0  0  0
  -27.2510  -27.4492   20.0950 C   0  0  0  0  0  0
  -25.5966  -33.8616   24.2346 N   0  0  0  0  0  0
  -23.3981  -30.4900   21.5485 C   0  0  2  0  0  0
  -24.8493  -28.9559   20.1187 C   0  0  0  0  0  0
  -22.7391  -29.4638   22.4989 C   0  0  0  0  0  0
  -18.0254  -28.1399   22.8496 C   0  0  0  0  0  0
  -24.1485  -36.7215   23.2643 C   0  0  0  0  0  0
  -25.9275  -30.8410   21.3604 C   0  0  0  0  0  0
  -26.0074  -29.4754   20.7070 C   0  0  0  0  0  0
  -27.2061  -28.7321   20.6879 C   0  0  0  0  0  0
  -26.0669  -26.9324   19.5180 C   0  0  0  0  0  0
  -24.8731  -27.6830   19.5241 C   0  0  0  0  0  0
  -23.6091  -29.8191   20.1631 C   0  0  0  0  0  0
  -25.4132  -36.3090   24.0339 C   0  0  1  0  0  0
  -20.5842  -28.3640   23.1346 C   0  0  2  0  0  0
  -20.6739  -26.9386   22.5414 C   0  0  0  0  0  0
  -19.5737  -26.6398   21.5204 C   0  0  0  0  0  0
  -18.1915  -26.7954   22.1614 C   0  0  0  0  0  0
  -19.1503  -28.8839   23.2909 C   0  0  0  0  0  0
  -18.9453  -30.1460   23.8895 C   0  0  0  0  0  0
  -17.6464  -30.6609   24.0580 C   0  0  0  0  0  0
  -25.9088  -34.9466   23.5126 C   0  0  0  0  0  0
  -16.5342  -29.9141   23.6332 C   0  0  0  0  0  0
  -16.7239  -28.6550   23.0345 C   0  0  0  0  0  0
  -26.4499  -31.6559   25.0715 C   0  0  0  0  0  0
  -25.3781  -31.3609   26.1463 C   0  0  0  0  0  0
  -27.0306  -30.3018   24.6058 C   0  0  0  0  0  0
  -27.6088  -32.4228   25.7512 C   0  0  0  0  0  0
  -27.5579  -37.1772   24.8505 C   0  0  0  0  0  0
  -21.4117  -29.2995   22.3747 N   0  0  0  0  0  0
  -26.4307  -37.3791   23.9435 N   0  0  0  0  0  0
  -24.6629  -31.0854   22.0965 N   0  0  0  0  0  0
  -23.4166  -28.8173   23.3023 O   0  0  0  0  0  0
  -28.4706  -26.7992   20.0946 O   0  0  0  0  0  0
  -26.5622  -34.8928   22.4668 O   0  0  0  0  0  0
  -23.5319  -32.1398   23.7535 O   0  0  0  0  0  0
  -30.3551  -18.7805   22.6159 C   0  0  0  0  0  0
  -29.9595  -18.8911   20.2265 C   0  0  0  0  0  0
  -29.8311  -20.0814   22.7618 C   0  0  0  0  0  0
  -29.4581  -20.2037   20.3721 C   0  0  0  0  0  0
  -30.4165  -18.1624   21.3494 C   0  0  0  0  0  0
  -29.3796  -20.8229   21.6444 C   0  0  0  0  0  0
  -27.8668  -22.2685   22.8739 C   0  0  0  0  0  0
  -29.6876  -15.4497   22.6520 C   0  0  0  0  0  0
  -31.1228  -16.8134   21.1668 C   0  0  0  0  0  0
  -28.6103  -24.5288   21.0262 C   0  0  0  0  0  0
  -28.8306  -23.0368   20.6670 C   0  0  0  0  0  0
  -28.5950  -25.4140   19.7657 C   0  0  0  0  0  0
  -28.8804  -22.1354   21.8249 N   0  0  0  0  0  0
  -30.3634  -15.5365   21.3509 N   0  0  0  0  0  0
  -31.4424  -12.3557   19.1590 H   0  0  0  0  0  0
  -30.2572  -11.3061   19.8494 H   0  0  0  0  0  0
  -29.7605  -11.8459   17.4269 H   0  0  0  0  0  0
  -29.6513  -13.5433   17.8228 H   0  0  0  0  0  0
  -27.8399  -11.3109   18.8084 H   0  0  0  0  0  0
  -27.3697  -12.6390   17.7778 H   0  0  0  0  0  0
  -27.6930  -14.2565   19.5726 H   0  0  0  0  0  0
  -28.6581  -11.9598   21.3338 H   0  0  0  0  0  0
  -28.3640  -13.5543   21.8690 H   0  0  0  0  0  0
  -25.2735   -9.5730   22.4723 H   0  0  0  0  0  0
  -23.9989   -7.4674   22.7481 H   0  0  0  0  0  0
  -21.0814   -8.8765   19.8956 H   0  0  0  0  0  0
  -22.3637  -10.9672   19.6147 H   0  0  0  0  0  0
  -21.2030   -7.6150   23.9720 H   0  0  0  0  0  0
  -21.1500   -6.0519   25.9072 H   0  0  0  0  0  0
  -22.0579   -2.7617   23.2825 H   0  0  0  0  0  0
  -22.4045  -11.9916   22.4769 H   0  0  0  0  0  0
  -21.1107  -13.1343   22.2595 H   0  0  0  0  0  0
  -24.6580  -15.8404   20.5457 H   0  0  0  0  0  0
  -26.2936  -15.6425   20.1644 H   0  0  0  0  0  0
  -26.7126  -32.5500   23.1163 H   0  0  0  0  0  0
  -25.0205  -33.9799   25.0558 H   0  0  0  0  0  0
  -22.6835  -31.3017   21.4047 H   0  0  0  0  0  0
  -23.3809  -35.9486   23.3377 H   0  0  0  0  0  0
  -24.3574  -36.8749   22.2045 H   0  0  0  0  0  0
  -23.7186  -37.6419   23.6595 H   0  0  0  0  0  0
  -26.0608  -31.6109   20.5985 H   0  0  0  0  0  0
  -26.8091  -30.8833   21.9857 H   0  0  0  0  0  0
  -28.1011  -29.1419   21.1325 H   0  0  0  0  0  0
  -26.0271  -25.9608   19.0518 H   0  0  0  0  0  0
  -23.9777  -27.2737   19.0767 H   0  0  0  0  0  0
  -23.7156  -30.5876   19.3975 H   0  0  0  0  0  0
  -22.7354  -29.2365   19.8651 H   0  0  0  0  0  0
  -25.1324  -36.1941   25.0833 H   0  0  0  0  0  0
  -20.9929  -28.3199   24.1469 H   0  0  0  0  0  0
  -20.5683  -26.2223   23.3574 H   0  0  0  0  0  0
  -21.6618  -26.7467   22.1208 H   0  0  0  0  0  0
  -19.6907  -25.6327   21.1213 H   0  0  0  0  0  0
  -19.6721  -27.3236   20.6760 H   0  0  0  0  0  0
  -17.4182  -26.6664   21.4016 H   0  0  0  0  0  0
  -18.0325  -26.0094   22.9013 H   0  0  0  0  0  0
  -19.7923  -30.7272   24.2255 H   0  0  0  0  0  0
  -17.5030  -31.6302   24.5183 H   0  0  0  0  0  0
  -15.5356  -30.3077   23.7672 H   0  0  0  0  0  0
  -15.8599  -28.0912   22.7064 H   0  0  0  0  0  0
  -24.5991  -30.6939   25.7787 H   0  0  0  0  0  0
  -24.8931  -32.2713   26.4962 H   0  0  0  0  0  0
  -25.8175  -30.8730   27.0170 H   0  0  0  0  0  0
  -26.2792  -29.6810   24.1166 H   0  0  0  0  0  0
  -27.4159  -29.7247   25.4476 H   0  0  0  0  0  0
  -27.8631  -30.4378   23.9156 H   0  0  0  0  0  0
  -27.2763  -33.3526   26.2145 H   0  0  0  0  0  0
  -28.3935  -32.6789   25.0379 H   0  0  0  0  0  0
  -28.0734  -31.8285   26.5410 H   0  0  0  0  0  0
  -28.2662  -38.0017   24.7568 H   0  0  0  0  0  0
  -28.1012  -36.2560   24.6325 H   0  0  0  0  0  0
  -27.2279  -37.1422   25.8907 H   0  0  0  0  0  0
  -20.9265  -29.8620   21.6898 H   0  0  0  0  0  0
  -26.0186  -38.2857   24.1474 H   0  0  0  0  0  0
  -30.7436  -18.2769   23.4888 H   0  0  0  0  0  0
  -30.0321  -18.4728   19.2321 H   0  0  0  0  0  0
  -29.8052  -20.5196   23.7487 H   0  0  0  0  0  0
  -29.1396  -20.7236   19.4822 H   0  0  0  0  0  0
  -27.4389  -21.3103   23.1725 H   0  0  0  0  0  0
  -27.0316  -22.8851   22.5437 H   0  0  0  0  0  0
  -28.2963  -22.7425   23.7559 H   0  0  0  0  0  0
  -29.8628  -14.4913   23.1442 H   0  0  0  0  0  0
  -28.6157  -15.6159   22.5369 H   0  0  0  0  0  0
  -30.0415  -16.1980   23.3540 H   0  0  0  0  0  0
  -31.9780  -16.7963   21.8453 H   0  0  0  0  0  0
  -31.5529  -16.8680   20.1636 H   0  0  0  0  0  0
  -29.4025  -24.8670   21.6973 H   0  0  0  0  0  0
  -27.6734  -24.6751   21.5629 H   0  0  0  0  0  0
  -29.7715  -22.9527   20.1178 H   0  0  0  0  0  0
  -28.0473  -22.7043   19.9844 H   0  0  0  0  0  0
  -27.8687  -25.0565   19.0387 H   0  0  0  0  0  0
  -29.5583  -25.3080   19.2670 H   0  0  0  0  0  0
  1 25  1  0  0  0
  1 30  2  0  0  0
  1 84  1  0  0  0
  2  3  1  0  0  0
  2 25  1  0  0  0
  2 85  1  0  0  0
  2 86  1  0  0  0
  3  4  1  0  0  0
  3 87  1  0  0  0
  3 88  1  0  0  0
  4  5  1  0  0  0
  4 89  1  0  0  0
  4 90  1  0  0  0
  5  6  1  0  0  0
  5 26  1  0  0  0
  5 91  1  0  0  0
  6 25  1  0  0  0
  6 92  1  0  0  0
  6 93  1  0  0  0
  7  8  2  0  0  0
  7 26  1  0  0  0
  7 29  1  0  0  0
  8  9  1  0  0  0
  8 22  1  0  0  0
  9 10  1  0  0  0
  9 27  2  0  0  0
 10 11  2  0  0  0
 10 15  1  0  0  0
 11 12  1  0  0  0
 11 94  1  0  0  0
 12 13  2  0  0  0
 12 95  1  0  0  0
 13 14  1  0  0  0
 13 31  1  0  0  0
 14 15  2  0  0  0
 14 96  1  0  0  0
 15 97  1  0  0  0
 16 17  2  0  0  0
 16 21  1  0  0  0
 16 31  1  0  0  0
 17 18  1  0  0  0
 17 98  1  0  0  0
 18 19  2  0  0  0
 18 99  1  0  0  0
 19 20  1  0  0  0
 19 24  1  0  0  0
 20 21  2  0  0  0
 20100  1  0  0  0
 21 23  1  0  0  0
 22 28  1  0  0  0
 22 32  2  0  0  0
 26 27  1  0  0  0
 28101  1  0  0  0
 28102  1  0  0  0
 29103  1  0  0  0
 29104  1  0  0  0
 33 34  1  0  0  0
 33 66  1  0  0  0
 33 70  2  0  0  0
 34 36  1  0  0  0
 34 59  1  0  0  0
 34105  1  0  0  0
 35 44  2  0  0  0
 35 45  1  0  0  0
 35 68  1  0  0  0
 36 56  1  0  0  0
 36106  1  0  0  0
 37 39  1  0  0  0
 37 47  1  0  0  0
 37 66  1  0  0  0
 37107  1  0  0  0
 38 43  2  0  0  0
 38 46  1  0  0  0
 38 47  1  0  0  0
 39 64  1  0  0  0
 39 67  2  0  0  0
 40 52  1  0  0  0
 40 53  2  0  0  0
 40 58  1  0  0  0
 41108  1  0  0  0
 41109  1  0  0  0
 41110  1  0  0  0
 41 48  1  0  0  0
 42 43  1  0  0  0
 42 66  1  0  0  0
 42111  1  0  0  0
 42112  1  0  0  0
 43 44  1  0  0  0
 44113  1  0  0  0
 45 46  2  0  0  0
 45114  1  0  0  0
 46115  1  0  0  0
 47116  1  0  0  0
 47117  1  0  0  0
 48 56  1  0  0  0
 48 65  1  0  0  0
 48118  1  0  0  0
 49 50  1  0  0  0
 49 53  1  0  0  0
 49 64  1  0  0  0
 49119  1  0  0  0
 50 51  1  0  0  0
 50120  1  0  0  0
 50121  1  0  0  0
 51 52  1  0  0  0
 51122  1  0  0  0
 51123  1  0  0  0
 52124  1  0  0  0
 52125  1  0  0  0
 53 54  1  0  0  0
 54 55  2  0  0  0
 54126  1  0  0  0
 55 57  1  0  0  0
 55127  1  0  0  0
 56 69  2  0  0  0
 57 58  2  0  0  0
 57128  1  0  0  0
 58129  1  0  0  0
 59 60  1  0  0  0
 59 61  1  0  0  0
 59 62  1  0  0  0
 60130  1  0  0  0
 60131  1  0  0  0
 60132  1  0  0  0
 61133  1  0  0  0
 61134  1  0  0  0
 61135  1  0  0  0
 62136  1  0  0  0
 62137  1  0  0  0
 62138  1  0  0  0
 63 65  1  0  0  0
 63139  1  0  0  0
 63140  1  0  0  0
 63141  1  0  0  0
 64142  1  0  0  0
 65143  1  0  0  0
 68 82  1  0  0  0
 71 73  2  0  0  0
 71 75  1  0  0  0
 71144  1  0  0  0
 72 74  1  0  0  0
 72 75  2  0  0  0
 72145  1  0  0  0
 73 76  1  0  0  0
 73146  1  0  0  0
 74 76  2  0  0  0
 74147  1  0  0  0
 75 79  1  0  0  0
 76 83  1  0  0  0
 77 83  1  0  0  0
 77148  1  0  0  0
 77149  1  0  0  0
 77150  1  0  0  0
 78 84  1  0  0  0
 78151  1  0  0  0
 78152  1  0  0  0
 78153  1  0  0  0
 79 84  1  0  0  0
 79154  1  0  0  0
 79155  1  0  0  0
 80 81  1  0  0  0
 80 82  1  0  0  0
 80156  1  0  0  0
 80157  1  0  0  0
 81 83  1  0  0  0
 81158  1  0  0  0
 81159  1  0  0  0
 82160  1  0  0  0
 82161  1  0  0  0
M  ISO  4   1 100  68 101  82 101  84 100
M  END
> <chiral flag>
0

> <version>
0

> <s_m_source_file>
/data/baiqing/PycharmProjects/Reinvent-master-3.2/result/LINK_invent/BTK/process_docking_weight1_custom_product_contain_oxygen_bond_distance_aromatic_linkinvent_7_9_3/rearranged_h_0017.sdf

> <i_m_source_file_index>
57

> <r_mmod_Potential_Energy-OPLS-2005>
100.385414123535

> <r_mmod_Stretch_Energy-OPLS-2005>
46.212100982666

> <r_mmod_Bend_Energy-OPLS-2005>
142.126251220703

> <r_mmod_Torsional_Energy-OPLS-2005>
238.704498291016

> <r_mmod_Improper_Torsional_Energy-OPLS-2005>
7.92415904998779

> <r_mmod_Van_der_Waal_Energy-OPLS-2005>
180.791030883789

> <r_mmod_Electrostatic_Energy-OPLS-2005>
-317.921661376953

> <r_mmod_Solvation_Energy-OPLS-2005>
-212.284820556641

> <b_mmod_Minimization_Converged-OPLS-2005>
0

> <r_mmod_RMS_Derivative-OPLS-2005>
4.60344171524048

$$$$
58
                    3D
 Structure written by MMmdl.
173182  0  0  1  0            999 V2000
  -30.6644  -14.7494   20.5362 C   0  0  0  0  0  0
  -30.4066  -12.4789   19.5042 C   0  0  0  0  0  0
  -29.5043  -12.5566   18.2535 C   0  0  0  0  0  0
  -28.0390  -12.3540   18.6631 C   0  0  0  0  0  0
  -27.6405  -13.2494   19.8682 C   0  0  2  0  0  0
  -28.6749  -13.2164   21.0159 C   0  0  0  0  0  0
  -25.2503  -13.8254   20.5807 C   0  0  0  0  0  0
  -24.1793  -13.0438   20.9231 C   0  0  0  0  0  0
  -24.6415  -11.6936   20.8773 C   0  0  0  0  0  0
  -23.9129  -10.4301   21.0430 C   0  0  0  0  0  0
  -24.3647   -9.4213   21.9199 C   0  0  0  0  0  0
  -23.6300   -8.2266   22.0768 C   0  0  0  0  0  0
  -22.4301   -8.0296   21.3537 C   0  0  0  0  0  0
  -21.9943   -9.0303   20.4648 C   0  0  0  0  0  0
  -22.7294  -10.2180   20.3100 C   0  0  0  0  0  0
  -21.6883   -6.0749   22.5280 C   0  0  0  0  0  0
  -21.4037   -6.5660   23.8207 C   0  0  0  0  0  0
  -21.3657   -5.6804   24.9161 C   0  0  0  0  0  0
  -21.6030   -4.3070   24.7205 C   0  0  0  0  0  0
  -21.8821   -3.8147   23.4326 C   0  0  0  0  0  0
  -21.9207   -4.6975   22.3386 C   0  0  0  0  0  0
  -22.7803  -13.5202   21.1869 C   0  0  0  0  0  0
  -22.1678   -4.2144   21.0975 F   0  0  0  0  0  0
  -21.5609   -3.4578   25.7728 F   0  0  0  0  0  0
  -29.9820  -13.5538   20.4482 N   0  0  0  0  0  0
  -26.2943  -12.9476   20.3407 N   0  0  0  0  0  0
  -25.9353  -11.6606   20.5792 N   0  0  0  0  0  0
  -22.0467  -12.8188   22.0425 N   0  0  0  0  0  0
  -25.4231  -15.1986   20.4272 N   0  0  0  0  0  0
  -31.8045  -14.7957   20.0566 O   0  0  0  0  0  0
  -21.6643   -6.8886   21.4232 O   0  0  0  0  0  0
  -22.3488  -14.5467   20.6629 O   0  0  0  0  0  0
  -24.6414  -31.8498   23.2006 C   0  0  0  0  0  0
  -25.9204  -32.4738   23.8370 C   0  0  1  0  0  0
  -27.1777  -27.1869   20.1277 C   0  0  0  0  0  0
  -25.5947  -33.8553   24.2261 N   0  0  0  0  0  0
  -23.4395  -30.4811   21.5476 C   0  0  2  0  0  0
  -24.8750  -28.9270   20.1144 C   0  0  0  0  0  0
  -22.7567  -29.4581   22.4892 C   0  0  0  0  0  0
  -18.0305  -28.1387   22.8493 C   0  0  0  0  0  0
  -24.1500  -36.7276   23.2645 C   0  0  0  0  0  0
  -25.9956  -30.7428   21.3914 C   0  0  0  0  0  0
  -26.0574  -29.3614   20.7261 C   0  0  0  0  0  0
  -27.2146  -28.5028   20.7227 C   0  0  0  0  0  0
  -25.9689  -26.8508   19.4772 C   0  0  0  0  0  0
  -24.8371  -27.6829   19.4793 C   0  0  0  0  0  0
  -23.6577  -29.8252   20.1628 C   0  0  0  0  0  0
  -25.4141  -36.3085   24.0327 C   0  0  1  0  0  0
  -20.5915  -28.3691   23.1244 C   0  0  2  0  0  0
  -20.6785  -26.9388   22.5406 C   0  0  0  0  0  0
  -19.5746  -26.6367   21.5229 C   0  0  0  0  0  0
  -18.1929  -26.7931   22.1643 C   0  0  0  0  0  0
  -19.1564  -28.8864   23.2861 C   0  0  0  0  0  0
  -18.9476  -30.1467   23.8873 C   0  0  0  0  0  0
  -17.6462  -30.6577   24.0569 C   0  0  0  0  0  0
  -25.9076  -34.9437   23.5115 C   0  0  0  0  0  0
  -16.5354  -29.9081   23.6309 C   0  0  0  0  0  0
  -16.7287  -28.6496   23.0346 C   0  0  0  0  0  0
  -26.4523  -31.6592   25.0791 C   0  0  0  0  0  0
  -25.3698  -31.3779   26.1481 C   0  0  0  0  0  0
  -27.0378  -30.3001   24.6329 C   0  0  0  0  0  0
  -27.6065  -32.4334   25.7554 C   0  0  0  0  0  0
  -27.5588  -37.1822   24.8466 C   0  0  0  0  0  0
  -21.4262  -29.3025   22.3638 N   0  0  0  0  0  0
  -26.4311  -37.3783   23.9404 N   0  0  0  0  0  0
  -24.7129  -31.0437   22.1015 N   0  0  0  0  0  0
  -23.4240  -28.8059   23.2958 O   0  0  0  0  0  0
  -28.2072  -26.1989   20.1910 O   0  0  0  0  0  0
  -26.5651  -34.8898   22.4691 O   0  0  0  0  0  0
  -23.5533  -32.1337   23.7241 O   0  0  0  0  0  0
  -28.8183  -19.8241   18.1292 C   0  0  0  0  0  0
  -30.3416  -17.5569   18.6677 C   0  0  0  0  0  0
  -29.2316  -18.9753   17.0820 C   0  0  0  0  0  0
  -29.6518  -18.1707   19.7355 C   0  0  0  0  0  0
  -29.0864  -19.5295   19.4963 C   0  0  0  0  0  0
  -30.1469  -17.9529   17.3478 C   0  0  0  0  0  0
  -26.3002  -16.4321   14.2199 C   0  0  0  0  0  0
  -26.3950  -15.9525   15.6739 C   0  0  0  0  0  0
  -27.0579  -17.7679   14.1699 C   0  0  0  0  0  0
  -27.3002  -16.9634   16.3773 C   0  0  0  0  0  0
  -31.0917  -16.2035   22.3648 C   0  0  0  0  0  0
  -29.3626  -17.1421   20.9150 C   0  0  0  0  0  0
  -28.5990  -19.0426   15.6978 C   0  0  0  0  0  0
  -28.7457  -23.3883   20.2885 C   0  0  0  0  0  0
  -27.8164  -24.7233   20.0415 C   0  0  0  0  0  0
  -28.0918  -21.8802   20.1820 C   0  0  0  0  0  0
  -30.1942  -15.8650   21.2508 N   0  0  0  0  0  0
  -27.9957  -17.7273   15.3086 N   0  3  0  0  0  0
  -28.8018  -20.5565   20.4610 O   0  0  0  0  0  0
  -30.6534  -17.2001   16.3398 F   0  0  0  0  0  0
  -31.4521  -12.5625   19.2010 H   0  0  0  0  0  0
  -30.3131  -11.5062   19.9863 H   0  0  0  0  0  0
  -29.8064  -11.8139   17.5127 H   0  0  0  0  0  0
  -29.6243  -13.5290   17.7742 H   0  0  0  0  0  0
  -27.9078  -11.3018   18.9159 H   0  0  0  0  0  0
  -27.3766  -12.5407   17.8190 H   0  0  0  0  0  0
  -27.6282  -14.2698   19.4858 H   0  0  0  0  0  0
  -28.7064  -12.2364   21.4889 H   0  0  0  0  0  0
  -28.3980  -13.9193   21.8051 H   0  0  0  0  0  0
  -25.2785   -9.5666   22.4769 H   0  0  0  0  0  0
  -23.9999   -7.4658   22.7499 H   0  0  0  0  0  0
  -21.0901   -8.8836   19.8939 H   0  0  0  0  0  0
  -22.3752  -10.9731   19.6248 H   0  0  0  0  0  0
  -21.2055   -7.6164   23.9719 H   0  0  0  0  0  0
  -21.1484   -6.0529   25.9063 H   0  0  0  0  0  0
  -22.0606   -2.7614   23.2845 H   0  0  0  0  0  0
  -22.4095  -11.9795   22.4696 H   0  0  0  0  0  0
  -21.1052  -13.1169   22.2645 H   0  0  0  0  0  0
  -24.6607  -15.8549   20.5329 H   0  0  0  0  0  0
  -26.2922  -15.6463   20.1785 H   0  0  0  0  0  0
  -26.7283  -32.5373   23.1110 H   0  0  0  0  0  0
  -25.0048  -33.9694   25.0372 H   0  0  0  0  0  0
  -22.7420  -31.3087   21.4056 H   0  0  0  0  0  0
  -23.3775  -35.9594   23.3312 H   0  0  0  0  0  0
  -24.3561  -36.8902   22.2054 H   0  0  0  0  0  0
  -23.7225  -37.6477   23.6645 H   0  0  0  0  0  0
  -26.1458  -31.5007   20.6201 H   0  0  0  0  0  0
  -26.8719  -30.7889   22.0280 H   0  0  0  0  0  0
  -28.1148  -28.8185   21.2308 H   0  0  0  0  0  0
  -25.8395  -25.9061   18.9764 H   0  0  0  0  0  0
  -23.9266  -27.3460   19.0033 H   0  0  0  0  0  0
  -23.8003  -30.6048   19.4159 H   0  0  0  0  0  0
  -22.7717  -29.2734   19.8433 H   0  0  0  0  0  0
  -25.1326  -36.1952   25.0815 H   0  0  0  0  0  0
  -21.0035  -28.3273   24.1368 H   0  0  0  0  0  0
  -20.5703  -26.2291   23.3633 H   0  0  0  0  0  0
  -21.6646  -26.7399   22.1195 H   0  0  0  0  0  0
  -19.6897  -25.6285   21.1245 H   0  0  0  0  0  0
  -19.6689  -27.3191   20.6778 H   0  0  0  0  0  0
  -17.4210  -26.6681   21.4042 H   0  0  0  0  0  0
  -18.0314  -26.0084   22.9040 H   0  0  0  0  0  0
  -19.7939  -30.7301   24.2237 H   0  0  0  0  0  0
  -17.4998  -31.6258   24.5183 H   0  0  0  0  0  0
  -15.5348  -30.2977   23.7645 H   0  0  0  0  0  0
  -15.8690  -28.0818   22.7066 H   0  0  0  0  0  0
  -24.5874  -30.7140   25.7789 H   0  0  0  0  0  0
  -24.8887  -32.2966   26.4842 H   0  0  0  0  0  0
  -25.7954  -30.8982   27.0307 H   0  0  0  0  0  0
  -26.3012  -29.6755   24.1280 H   0  0  0  0  0  0
  -27.3959  -29.7242   25.4871 H   0  0  0  0  0  0
  -27.8904  -30.4261   23.9665 H   0  0  0  0  0  0
  -27.2688  -33.3646   26.2103 H   0  0  0  0  0  0
  -28.3873  -32.6895   25.0381 H   0  0  0  0  0  0
  -28.0739  -31.8496   26.5499 H   0  0  0  0  0  0
  -28.2635  -38.0093   24.7507 H   0  0  0  0  0  0
  -28.1051  -36.2631   24.6309 H   0  0  0  0  0  0
  -27.2278  -37.1495   25.8857 H   0  0  0  0  0  0
  -20.9461  -29.8804   21.6868 H   0  0  0  0  0  0
  -26.0196  -38.2858   24.1406 H   0  0  0  0  0  0
  -28.2478  -20.6894   17.8361 H   0  0  0  0  0  0
  -30.8919  -16.6449   18.7904 H   0  0  0  0  0  0
  -25.2641  -16.5269   13.8925 H   0  0  0  0  0  0
  -26.7865  -15.7035   13.5685 H   0  0  0  0  0  0
  -26.8330  -14.9529   15.7194 H   0  0  0  0  0  0
  -25.4202  -15.8947   16.1616 H   0  0  0  0  0  0
  -26.3563  -18.5914   14.3029 H   0  0  0  0  0  0
  -27.5692  -17.9244   13.2197 H   0  0  0  0  0  0
  -26.6976  -17.6381   16.9881 H   0  0  0  0  0  0
  -27.9928  -16.4390   17.0391 H   0  0  0  0  0  0
  -31.9630  -16.7543   22.0032 H   0  0  0  0  0  0
  -31.4593  -15.3096   22.8744 H   0  0  0  0  0  0
  -30.6083  -16.8131   23.1264 H   0  0  0  0  0  0
  -28.3544  -16.7699   20.7236 H   0  0  0  0  0  0
  -29.2283  -17.7576   21.8057 H   0  0  0  0  0  0
  -29.3533  -19.3423   14.9713 H   0  0  0  0  0  0
  -27.8289  -19.8134   15.6931 H   0  0  0  0  0  0
  -29.1903  -23.4726   21.2785 H   0  0  0  0  0  0
  -29.5808  -23.4350   19.5889 H   0  0  0  0  0  0
  -26.9191  -24.5749   20.6471 H   0  0  0  0  0  0
  -27.4858  -24.6055   19.0099 H   0  0  0  0  0  0
  -27.5032  -21.8411   19.2731 H   0  0  0  0  0  0
  -27.3052  -21.8747   20.9397 H   0  0  0  0  0  0
  -28.7739  -17.1499   15.0164 H   0  0  0  0  0  0
  1 25  1  0  0  0
  1 30  2  0  0  0
  1 87  1  0  0  0
  2  3  1  0  0  0
  2 25  1  0  0  0
  2 91  1  0  0  0
  2 92  1  0  0  0
  3  4  1  0  0  0
  3 93  1  0  0  0
  3 94  1  0  0  0
  4  5  1  0  0  0
  4 95  1  0  0  0
  4 96  1  0  0  0
  5  6  1  0  0  0
  5 26  1  0  0  0
  5 97  1  0  0  0
  6 25  1  0  0  0
  6 98  1  0  0  0
  6 99  1  0  0  0
  7  8  2  0  0  0
  7 26  1  0  0  0
  7 29  1  0  0  0
  8  9  1  0  0  0
  8 22  1  0  0  0
  9 10  1  0  0  0
  9 27  2  0  0  0
 10 11  2  0  0  0
 10 15  1  0  0  0
 11 12  1  0  0  0
 11100  1  0  0  0
 12 13  2  0  0  0
 12101  1  0  0  0
 13 14  1  0  0  0
 13 31  1  0  0  0
 14 15  2  0  0  0
 14102  1  0  0  0
 15103  1  0  0  0
 16 17  2  0  0  0
 16 21  1  0  0  0
 16 31  1  0  0  0
 17 18  1  0  0  0
 17104  1  0  0  0
 18 19  2  0  0  0
 18105  1  0  0  0
 19 20  1  0  0  0
 19 24  1  0  0  0
 20 21  2  0  0  0
 20106  1  0  0  0
 21 23  1  0  0  0
 22 28  1  0  0  0
 22 32  2  0  0  0
 26 27  1  0  0  0
 28107  1  0  0  0
 28108  1  0  0  0
 29109  1  0  0  0
 29110  1  0  0  0
 33 34  1  0  0  0
 33 66  1  0  0  0
 33 70  2  0  0  0
 34 36  1  0  0  0
 34 59  1  0  0  0
 34111  1  0  0  0
 35 44  2  0  0  0
 35 45  1  0  0  0
 35 68  1  0  0  0
 36 56  1  0  0  0
 36112  1  0  0  0
 37 39  1  0  0  0
 37 47  1  0  0  0
 37 66  1  0  0  0
 37113  1  0  0  0
 38 43  2  0  0  0
 38 46  1  0  0  0
 38 47  1  0  0  0
 39 64  1  0  0  0
 39 67  2  0  0  0
 40 52  1  0  0  0
 40 53  2  0  0  0
 40 58  1  0  0  0
 41114  1  0  0  0
 41115  1  0  0  0
 41116  1  0  0  0
 41 48  1  0  0  0
 42 43  1  0  0  0
 42 66  1  0  0  0
 42117  1  0  0  0
 42118  1  0  0  0
 43 44  1  0  0  0
 44119  1  0  0  0
 45 46  2  0  0  0
 45120  1  0  0  0
 46121  1  0  0  0
 47122  1  0  0  0
 47123  1  0  0  0
 48 56  1  0  0  0
 48 65  1  0  0  0
 48124  1  0  0  0
 49 50  1  0  0  0
 49 53  1  0  0  0
 49 64  1  0  0  0
 49125  1  0  0  0
 50 51  1  0  0  0
 50126  1  0  0  0
 50127  1  0  0  0
 51 52  1  0  0  0
 51128  1  0  0  0
 51129  1  0  0  0
 52130  1  0  0  0
 52131  1  0  0  0
 53 54  1  0  0  0
 54 55  2  0  0  0
 54132  1  0  0  0
 55 57  1  0  0  0
 55133  1  0  0  0
 56 69  2  0  0  0
 57 58  2  0  0  0
 57134  1  0  0  0
 58135  1  0  0  0
 59 60  1  0  0  0
 59 61  1  0  0  0
 59 62  1  0  0  0
 60136  1  0  0  0
 60137  1  0  0  0
 60138  1  0  0  0
 61139  1  0  0  0
 61140  1  0  0  0
 61141  1  0  0  0
 62142  1  0  0  0
 62143  1  0  0  0
 62144  1  0  0  0
 63 65  1  0  0  0
 63145  1  0  0  0
 63146  1  0  0  0
 63147  1  0  0  0
 64148  1  0  0  0
 65149  1  0  0  0
 68 85  1  0  0  0
 71 73  2  0  0  0
 71 75  1  0  0  0
 71150  1  0  0  0
 72 74  1  0  0  0
 72 76  2  0  0  0
 72151  1  0  0  0
 73 76  1  0  0  0
 73 83  1  0  0  0
 74 75  2  0  0  0
 74 82  1  0  0  0
 75 89  1  0  0  0
 76 90  1  0  0  0
 77 78  1  0  0  0
 77 79  1  0  0  0
 77152  1  0  0  0
 77153  1  0  0  0
 78 80  1  0  0  0
 78154  1  0  0  0
 78155  1  0  0  0
 79 88  1  0  0  0
 79156  1  0  0  0
 79157  1  0  0  0
 80 88  1  0  0  0
 80158  1  0  0  0
 80159  1  0  0  0
 81 87  1  0  0  0
 81160  1  0  0  0
 81161  1  0  0  0
 81162  1  0  0  0
 82 87  1  0  0  0
 82163  1  0  0  0
 82164  1  0  0  0
 83165  1  0  0  0
 83166  1  0  0  0
 83 88  1  0  0  0
 84 85  1  0  0  0
 84 86  1  0  0  0
 84167  1  0  0  0
 84168  1  0  0  0
 85169  1  0  0  0
 85170  1  0  0  0
 86 89  1  0  0  0
 86171  1  0  0  0
 86172  1  0  0  0
 88173  1  0  0  0
M  CHG  1  88   1
M  ISO  4   1 100  68 101  85 101  87 100
M  END
> <chiral flag>
0

> <version>
0

> <s_m_source_file>
/data/baiqing/PycharmProjects/Reinvent-master-3.2/result/LINK_invent/BTK/process_docking_weight1_custom_product_contain_oxygen_bond_distance_aromatic_linkinvent_7_9_3/rearranged_h_0017.sdf

> <i_m_source_file_index>
58

> <r_mmod_Potential_Energy-OPLS-2005>
493.896850585938

> <r_mmod_Stretch_Energy-OPLS-2005>
187.668121337891

> <r_mmod_Bend_Energy-OPLS-2005>
299.405212402344

> <r_mmod_Torsional_Energy-OPLS-2005>
404.673461914062

> <r_mmod_Improper_Torsional_Energy-OPLS-2005>
8.86301517486572

> <r_mmod_Van_der_Waal_Energy-OPLS-2005>
156.560913085938

> <r_mmod_Electrostatic_Energy-OPLS-2005>
-247.38655090332

> <r_mmod_Solvation_Energy-OPLS-2005>
-432.717071533203

> <b_mmod_Minimization_Converged-OPLS-2005>
0

> <r_mmod_RMS_Derivative-OPLS-2005>
5.58398151397705

$$$$
59
                    3D
 Structure written by MMmdl.
162170  0  0  1  0            999 V2000
  -30.6601  -14.6028   20.3938 C   0  0  0  0  0  0
  -30.4481  -12.3281   19.4535 C   0  0  0  0  0  0
  -29.5104  -12.3337   18.2254 C   0  0  0  0  0  0
  -28.0159  -12.3078   18.6305 C   0  0  0  0  0  0
  -27.6472  -13.1969   19.8557 C   0  0  2  0  0  0
  -28.7114  -13.0821   20.9664 C   0  0  0  0  0  0
  -25.2570  -13.8129   20.5726 C   0  0  0  0  0  0
  -24.1818  -13.0426   20.9223 C   0  0  0  0  0  0
  -24.6360  -11.6891   20.8778 C   0  0  0  0  0  0
  -23.9024  -10.4287   21.0423 C   0  0  0  0  0  0
  -24.3590   -9.4206   21.9193 C   0  0  0  0  0  0
  -23.6280   -8.2234   22.0743 C   0  0  0  0  0  0
  -22.4263   -8.0273   21.3531 C   0  0  0  0  0  0
  -21.9894   -9.0250   20.4634 C   0  0  0  0  0  0
  -22.7206  -10.2138   20.3055 C   0  0  0  0  0  0
  -21.6860   -6.0724   22.5277 C   0  0  0  0  0  0
  -21.4023   -6.5624   23.8211 C   0  0  0  0  0  0
  -21.3660   -5.6771   24.9169 C   0  0  0  0  0  0
  -21.6055   -4.3035   24.7224 C   0  0  0  0  0  0
  -21.8814   -3.8133   23.4341 C   0  0  0  0  0  0
  -21.9192   -4.6950   22.3400 C   0  0  0  0  0  0
  -22.7841  -13.5246   21.1846 C   0  0  0  0  0  0
  -22.1657   -4.2129   21.0975 F   0  0  0  0  0  0
  -21.5629   -3.4520   25.7738 F   0  0  0  0  0  0
  -30.0123  -13.3986   20.3637 N   0  0  0  0  0  0
  -26.2984  -12.9256   20.3402 N   0  0  0  0  0  0
  -25.9284  -11.6439   20.5838 N   0  0  0  0  0  0
  -22.0443  -12.8276   22.0398 N   0  0  0  0  0  0
  -25.4253  -15.1848   20.4119 N   0  0  0  0  0  0
  -31.8853  -14.6779   20.2825 O   0  0  0  0  0  0
  -21.6638   -6.8866   21.4235 O   0  0  0  0  0  0
  -22.3545  -14.5538   20.6652 O   0  0  0  0  0  0
  -24.6147  -31.8677   23.2101 C   0  0  0  0  0  0
  -25.9043  -32.4817   23.8405 C   0  0  1  0  0  0
  -27.2360  -27.4235   20.1000 C   0  0  0  0  0  0
  -25.5902  -33.8617   24.2338 N   0  0  0  0  0  0
  -23.4044  -30.4900   21.5499 C   0  0  2  0  0  0
  -24.8536  -28.9487   20.1206 C   0  0  0  0  0  0
  -22.7416  -29.4655   22.4990 C   0  0  0  0  0  0
  -18.0265  -28.1367   22.8486 C   0  0  0  0  0  0
  -24.1485  -36.7313   23.2643 C   0  0  0  0  0  0
  -25.9355  -30.8254   21.3697 C   0  0  0  0  0  0
  -26.0129  -29.4555   20.7237 C   0  0  0  0  0  0
  -27.2089  -28.6980   20.7181 C   0  0  0  0  0  0
  -26.0661  -26.9357   19.4877 C   0  0  0  0  0  0
  -24.8735  -27.6854   19.5028 C   0  0  0  0  0  0
  -23.6167  -29.8196   20.1657 C   0  0  0  0  0  0
  -25.4108  -36.3115   24.0346 C   0  0  1  0  0  0
  -20.5856  -28.3659   23.1303 C   0  0  2  0  0  0
  -20.6745  -26.9390   22.5414 C   0  0  0  0  0  0
  -19.5730  -26.6374   21.5203 C   0  0  0  0  0  0
  -18.1910  -26.7911   22.1616 C   0  0  0  0  0  0
  -19.1514  -28.8827   23.2892 C   0  0  0  0  0  0
  -18.9450  -30.1431   23.8908 C   0  0  0  0  0  0
  -17.6453  -30.6579   24.0558 C   0  0  0  0  0  0
  -25.9034  -34.9475   23.5144 C   0  0  0  0  0  0
  -16.5342  -29.9084   23.6321 C   0  0  0  0  0  0
  -16.7253  -28.6492   23.0355 C   0  0  0  0  0  0
  -26.4476  -31.6589   25.0730 C   0  0  0  0  0  0
  -25.3751  -31.3688   26.1488 C   0  0  0  0  0  0
  -27.0318  -30.3035   24.6106 C   0  0  0  0  0  0
  -27.6064  -32.4303   25.7480 C   0  0  0  0  0  0
  -27.5586  -37.1814   24.8470 C   0  0  0  0  0  0
  -21.4140  -29.3031   22.3721 N   0  0  0  0  0  0
  -26.4298  -37.3799   23.9410 N   0  0  0  0  0  0
  -24.6696  -31.0763   22.1014 N   0  0  0  0  0  0
  -23.4179  -28.8202   23.3043 O   0  0  0  0  0  0
  -28.3793  -26.6563   20.0238 O   0  0  0  0  0  0
  -26.5598  -34.8922   22.4706 O   0  0  0  0  0  0
  -23.5329  -32.1446   23.7467 O   0  0  0  0  0  0
  -30.4023  -19.3949   19.9758 C   0  0  0  0  0  0
  -30.6583  -18.0230   19.7586 C   0  0  0  0  0  0
  -28.9095  -18.8026   21.7819 C   0  0  0  0  0  0
  -29.4784  -19.8082   20.9622 C   0  0  0  0  0  0
  -29.9647  -17.0043   20.4677 C   0  0  0  0  0  0
  -29.1332  -17.4209   21.5398 C   0  0  0  0  0  0
  -29.7634  -15.6609   18.4476 C   0  0  0  0  0  0
  -31.1177  -22.4427   21.7081 C   0  0  0  0  0  0
  -29.0030  -21.2795   21.0772 C   0  0  0  0  0  0
  -28.6127  -24.4647   21.2553 C   0  0  0  0  0  0
  -29.4884  -23.6501   20.2527 C   0  0  0  0  0  0
  -28.8041  -26.0139   21.2330 C   0  0  0  0  0  0
  -29.9259  -15.6606   19.9198 N   0  0  0  0  0  0
  -30.0162  -22.3211   20.7245 N   0  3  1  0  0  0
  -28.2864  -16.2778   22.5118 Cl  0  0  0  0  0  0
  -31.4829  -12.4546   19.1301 H   0  0  0  0  0  0
  -30.4110  -11.3660   19.9665 H   0  0  0  0  0  0
  -29.7248  -11.4494   17.6230 H   0  0  0  0  0  0
  -29.7371  -13.1614   17.5603 H   0  0  0  0  0  0
  -27.7797  -11.2683   18.8633 H   0  0  0  0  0  0
  -27.3916  -12.5626   17.7727 H   0  0  0  0  0  0
  -27.6309  -14.2279   19.5224 H   0  0  0  0  0  0
  -28.7224  -12.0755   21.3862 H   0  0  0  0  0  0
  -28.4868  -13.7477   21.7954 H   0  0  0  0  0  0
  -25.2726   -9.5710   22.4780 H   0  0  0  0  0  0
  -23.9987   -7.4630   22.7474 H   0  0  0  0  0  0
  -21.0816   -8.8778   19.8950 H   0  0  0  0  0  0
  -22.3653  -10.9689   19.6173 H   0  0  0  0  0  0
  -21.2018   -7.6133   23.9713 H   0  0  0  0  0  0
  -21.1488   -6.0499   25.9070 H   0  0  0  0  0  0
  -22.0591   -2.7594   23.2847 H   0  0  0  0  0  0
  -22.4013  -11.9972   22.4896 H   0  0  0  0  0  0
  -21.1046  -13.1322   22.2500 H   0  0  0  0  0  0
  -24.6689  -15.8435   20.5581 H   0  0  0  0  0  0
  -26.3013  -15.6324   20.1746 H   0  0  0  0  0  0
  -26.7114  -32.5529   23.1166 H   0  0  0  0  0  0
  -25.0047  -33.9788   25.0477 H   0  0  0  0  0  0
  -22.6934  -31.3068   21.4084 H   0  0  0  0  0  0
  -23.3746  -35.9648   23.3312 H   0  0  0  0  0  0
  -24.3575  -36.8916   22.2056 H   0  0  0  0  0  0
  -23.7229  -37.6519   23.6643 H   0  0  0  0  0  0
  -26.0524  -31.5872   20.5969 H   0  0  0  0  0  0
  -26.8217  -30.8784   21.9902 H   0  0  0  0  0  0
  -28.1057  -29.0896   21.1768 H   0  0  0  0  0  0
  -26.0798  -25.9715   18.9982 H   0  0  0  0  0  0
  -23.9845  -27.2912   19.0304 H   0  0  0  0  0  0
  -23.7294  -30.5950   19.4062 H   0  0  0  0  0  0
  -22.7402  -29.2422   19.8664 H   0  0  0  0  0  0
  -25.1277  -36.1994   25.0840 H   0  0  0  0  0  0
  -20.9939  -28.3227   24.1426 H   0  0  0  0  0  0
  -20.5623  -26.2280   23.3615 H   0  0  0  0  0  0
  -21.6624  -26.7430   22.1229 H   0  0  0  0  0  0
  -19.6900  -25.6290   21.1224 H   0  0  0  0  0  0
  -19.6665  -27.3190   20.6739 H   0  0  0  0  0  0
  -17.4187  -26.6662   21.4010 H   0  0  0  0  0  0
  -18.0312  -26.0044   22.9003 H   0  0  0  0  0  0
  -19.7936  -30.7224   24.2293 H   0  0  0  0  0  0
  -17.5023  -31.6260   24.5163 H   0  0  0  0  0  0
  -15.5343  -30.2999   23.7630 H   0  0  0  0  0  0
  -15.8652  -28.0809   22.7080 H   0  0  0  0  0  0
  -24.5912  -30.7049   25.7823 H   0  0  0  0  0  0
  -24.8956  -32.2838   26.4979 H   0  0  0  0  0  0
  -25.8118  -30.8828   27.0221 H   0  0  0  0  0  0
  -26.2868  -29.6783   24.1171 H   0  0  0  0  0  0
  -27.4104  -29.7282   25.4562 H   0  0  0  0  0  0
  -27.8694  -30.4363   23.9255 H   0  0  0  0  0  0
  -27.2706  -33.3597   26.2087 H   0  0  0  0  0  0
  -28.3853  -32.6866   25.0288 H   0  0  0  0  0  0
  -28.0755  -31.8406   26.5365 H   0  0  0  0  0  0
  -28.2614  -38.0102   24.7512 H   0  0  0  0  0  0
  -28.1067  -36.2632   24.6293 H   0  0  0  0  0  0
  -27.2304  -37.1470   25.8875 H   0  0  0  0  0  0
  -20.9304  -29.8774   21.6959 H   0  0  0  0  0  0
  -26.0188  -38.2882   24.1397 H   0  0  0  0  0  0
  -30.8774  -20.1137   19.3233 H   0  0  0  0  0  0
  -31.3215  -17.7594   18.9456 H   0  0  0  0  0  0
  -28.2154  -19.0831   22.5618 H   0  0  0  0  0  0
  -29.4903  -16.6312   18.0336 H   0  0  0  0  0  0
  -28.9483  -15.0269   18.1238 H   0  0  0  0  0  0
  -30.6736  -15.3425   17.9334 H   0  0  0  0  0  0
  -31.5253  -21.4680   21.9767 H   0  0  0  0  0  0
  -30.7907  -22.9309   22.6251 H   0  0  0  0  0  0
  -31.9377  -23.0279   21.2887 H   0  0  0  0  0  0
  -28.6232  -21.4683   22.0822 H   0  0  0  0  0  0
  -28.1456  -21.3856   20.4099 H   0  0  0  0  0  0
  -28.8275  -24.1370   22.2706 H   0  0  0  0  0  0
  -27.5609  -24.2287   21.0906 H   0  0  0  0  0  0
  -30.3425  -24.2586   19.9526 H   0  0  0  0  0  0
  -28.9220  -23.4985   19.3323 H   0  0  0  0  0  0
  -29.8591  -26.2492   21.3823 H   0  0  0  0  0  0
  -28.2855  -26.4454   22.0921 H   0  0  0  0  0  0
  -30.4571  -21.9443   19.8995 H   0  0  0  0  0  0
  1 25  1  0  0  0
  1 30  2  0  0  0
  1 83  1  0  0  0
  2  3  1  0  0  0
  2 25  1  0  0  0
  2 86  1  0  0  0
  2 87  1  0  0  0
  3  4  1  0  0  0
  3 88  1  0  0  0
  3 89  1  0  0  0
  4  5  1  0  0  0
  4 90  1  0  0  0
  4 91  1  0  0  0
  5  6  1  0  0  0
  5 26  1  0  0  0
  5 92  1  0  0  0
  6 25  1  0  0  0
  6 93  1  0  0  0
  6 94  1  0  0  0
  7  8  2  0  0  0
  7 26  1  0  0  0
  7 29  1  0  0  0
  8  9  1  0  0  0
  8 22  1  0  0  0
  9 10  1  0  0  0
  9 27  2  0  0  0
 10 11  2  0  0  0
 10 15  1  0  0  0
 11 12  1  0  0  0
 11 95  1  0  0  0
 12 13  2  0  0  0
 12 96  1  0  0  0
 13 14  1  0  0  0
 13 31  1  0  0  0
 14 15  2  0  0  0
 14 97  1  0  0  0
 15 98  1  0  0  0
 16 17  2  0  0  0
 16 21  1  0  0  0
 16 31  1  0  0  0
 17 18  1  0  0  0
 17 99  1  0  0  0
 18 19  2  0  0  0
 18100  1  0  0  0
 19 20  1  0  0  0
 19 24  1  0  0  0
 20 21  2  0  0  0
 20101  1  0  0  0
 21 23  1  0  0  0
 22 28  1  0  0  0
 22 32  2  0  0  0
 26 27  1  0  0  0
 28102  1  0  0  0
 28103  1  0  0  0
 29104  1  0  0  0
 29105  1  0  0  0
 33 34  1  0  0  0
 33 66  1  0  0  0
 33 70  2  0  0  0
 34 36  1  0  0  0
 34 59  1  0  0  0
 34106  1  0  0  0
 35 44  2  0  0  0
 35 45  1  0  0  0
 35 68  1  0  0  0
 36 56  1  0  0  0
 36107  1  0  0  0
 37 39  1  0  0  0
 37 47  1  0  0  0
 37 66  1  0  0  0
 37108  1  0  0  0
 38 43  2  0  0  0
 38 46  1  0  0  0
 38 47  1  0  0  0
 39 64  1  0  0  0
 39 67  2  0  0  0
 40 52  1  0  0  0
 40 53  2  0  0  0
 40 58  1  0  0  0
 41109  1  0  0  0
 41110  1  0  0  0
 41111  1  0  0  0
 41 48  1  0  0  0
 42 43  1  0  0  0
 42 66  1  0  0  0
 42112  1  0  0  0
 42113  1  0  0  0
 43 44  1  0  0  0
 44114  1  0  0  0
 45 46  2  0  0  0
 45115  1  0  0  0
 46116  1  0  0  0
 47117  1  0  0  0
 47118  1  0  0  0
 48 56  1  0  0  0
 48 65  1  0  0  0
 48119  1  0  0  0
 49 50  1  0  0  0
 49 53  1  0  0  0
 49 64  1  0  0  0
 49120  1  0  0  0
 50 51  1  0  0  0
 50121  1  0  0  0
 50122  1  0  0  0
 51 52  1  0  0  0
 51123  1  0  0  0
 51124  1  0  0  0
 52125  1  0  0  0
 52126  1  0  0  0
 53 54  1  0  0  0
 54 55  2  0  0  0
 54127  1  0  0  0
 55 57  1  0  0  0
 55128  1  0  0  0
 56 69  2  0  0  0
 57 58  2  0  0  0
 57129  1  0  0  0
 58130  1  0  0  0
 59 60  1  0  0  0
 59 61  1  0  0  0
 59 62  1  0  0  0
 60131  1  0  0  0
 60132  1  0  0  0
 60133  1  0  0  0
 61134  1  0  0  0
 61135  1  0  0  0
 61136  1  0  0  0
 62137  1  0  0  0
 62138  1  0  0  0
 62139  1  0  0  0
 63 65  1  0  0  0
 63140  1  0  0  0
 63141  1  0  0  0
 63142  1  0  0  0
 64143  1  0  0  0
 65144  1  0  0  0
 68 82  1  0  0  0
 71 72  2  0  0  0
 71 74  1  0  0  0
 71145  1  0  0  0
 72 75  1  0  0  0
 72146  1  0  0  0
 73 74  2  0  0  0
 73 76  1  0  0  0
 73147  1  0  0  0
 74 79  1  0  0  0
 75 76  2  0  0  0
 75 83  1  0  0  0
 76 85  1  0  0  0
 77 83  1  0  0  0
 77148  1  0  0  0
 77149  1  0  0  0
 77150  1  0  0  0
 78151  1  0  0  0
 78152  1  0  0  0
 78153  1  0  0  0
 78 84  1  0  0  0
 79 84  1  0  0  0
 79154  1  0  0  0
 79155  1  0  0  0
 80 81  1  0  0  0
 80 82  1  0  0  0
 80156  1  0  0  0
 80157  1  0  0  0
 81 84  1  0  0  0
 81158  1  0  0  0
 81159  1  0  0  0
 82160  1  0  0  0
 82161  1  0  0  0
 84162  1  0  0  0
M  CHG  1  84   1
M  ISO  4   1 100  68 101  82 101  83 100
M  END
> <chiral flag>
0

> <version>
0

> <s_m_source_file>
/data/baiqing/PycharmProjects/Reinvent-master-3.2/result/LINK_invent/BTK/process_docking_weight1_custom_product_contain_oxygen_bond_distance_aromatic_linkinvent_7_9_3/rearranged_h_0017.sdf

> <i_m_source_file_index>
59

> <r_mmod_Potential_Energy-OPLS-2005>
101.626335144043

> <r_mmod_Stretch_Energy-OPLS-2005>
50.6671752929688

> <r_mmod_Bend_Energy-OPLS-2005>
123.652946472168

> <r_mmod_Torsional_Energy-OPLS-2005>
369.828857421875

> <r_mmod_Improper_Torsional_Energy-OPLS-2005>
26.798698425293

> <r_mmod_Van_der_Waal_Energy-OPLS-2005>
148.168075561523

> <r_mmod_Electrostatic_Energy-OPLS-2005>
-216.450576782227

> <r_mmod_Solvation_Energy-OPLS-2005>
-442.502563476562

> <b_mmod_Minimization_Converged-OPLS-2005>
0

> <r_mmod_RMS_Derivative-OPLS-2005>
2.22306895256042

$$$$
60
                    3D
 Structure written by MMmdl.
159167  0  0  1  0            999 V2000
  -30.7169  -14.5494   20.6861 C   0  0  0  0  0  0
  -30.4286  -12.3842   19.4726 C   0  0  0  0  0  0
  -29.5113  -12.5462   18.2457 C   0  0  0  0  0  0
  -28.0369  -12.3729   18.6517 C   0  0  0  0  0  0
  -27.6616  -13.2235   19.8972 C   0  0  2  0  0  0
  -28.6990  -13.0309   21.0258 C   0  0  0  0  0  0
  -25.2545  -13.8182   20.5690 C   0  0  0  0  0  0
  -24.1792  -13.0448   20.9151 C   0  0  0  0  0  0
  -24.6398  -11.6903   20.8755 C   0  0  0  0  0  0
  -23.9052  -10.4302   21.0402 C   0  0  0  0  0  0
  -24.3620   -9.4210   21.9182 C   0  0  0  0  0  0
  -23.6295   -8.2251   22.0740 C   0  0  0  0  0  0
  -22.4281   -8.0299   21.3531 C   0  0  0  0  0  0
  -21.9919   -9.0249   20.4653 C   0  0  0  0  0  0
  -22.7240  -10.2142   20.3055 C   0  0  0  0  0  0
  -21.6856   -6.0742   22.5270 C   0  0  0  0  0  0
  -21.4020   -6.5638   23.8204 C   0  0  0  0  0  0
  -21.3670   -5.6800   24.9169 C   0  0  0  0  0  0
  -21.6033   -4.3078   24.7238 C   0  0  0  0  0  0
  -21.8828   -3.8157   23.4343 C   0  0  0  0  0  0
  -21.9207   -4.6947   22.3406 C   0  0  0  0  0  0
  -22.7837  -13.5225   21.1859 C   0  0  0  0  0  0
  -22.1675   -4.2146   21.0978 F   0  0  0  0  0  0
  -21.5633   -3.4554   25.7736 F   0  0  0  0  0  0
  -30.0228  -13.3796   20.4936 N   0  0  0  0  0  0
  -26.3021  -12.9380   20.3474 N   0  0  0  0  0  0
  -25.9335  -11.6514   20.5835 N   0  0  0  0  0  0
  -22.0509  -12.8156   22.0434 N   0  0  0  0  0  0
  -25.4233  -15.1886   20.4050 N   0  0  0  0  0  0
  -31.7805  -14.7364   20.0840 O   0  0  0  0  0  0
  -21.6656   -6.8869   21.4232 O   0  0  0  0  0  0
  -22.3481  -14.5531   20.6767 O   0  0  0  0  0  0
  -24.6169  -31.8654   23.2108 C   0  0  0  0  0  0
  -25.9056  -32.4819   23.8409 C   0  0  1  0  0  0
  -27.2193  -27.3645   20.1173 C   0  0  0  0  0  0
  -25.5860  -33.8612   24.2299 N   0  0  0  0  0  0
  -23.4062  -30.4905   21.5528 C   0  0  2  0  0  0
  -24.8499  -28.9547   20.1166 C   0  0  0  0  0  0
  -22.7427  -29.4632   22.4997 C   0  0  0  0  0  0
  -18.0261  -28.1352   22.8512 C   0  0  0  0  0  0
  -24.1491  -36.7317   23.2635 C   0  0  0  0  0  0
  -25.9428  -30.8152   21.3672 C   0  0  0  0  0  0
  -26.0152  -29.4447   20.7157 C   0  0  0  0  0  0
  -27.1977  -28.6592   20.7101 C   0  0  0  0  0  0
  -26.0167  -26.9026   19.5253 C   0  0  0  0  0  0
  -24.8473  -27.6849   19.5230 C   0  0  0  0  0  0
  -23.6186  -29.8366   20.1628 C   0  0  0  0  0  0
  -25.4112  -36.3101   24.0331 C   0  0  1  0  0  0
  -20.5848  -28.3633   23.1298 C   0  0  2  0  0  0
  -20.6721  -26.9342   22.5391 C   0  0  0  0  0  0
  -19.5715  -26.6377   21.5203 C   0  0  0  0  0  0
  -18.1907  -26.7897   22.1611 C   0  0  0  0  0  0
  -19.1511  -28.8822   23.2902 C   0  0  0  0  0  0
  -18.9438  -30.1413   23.8896 C   0  0  0  0  0  0
  -17.6454  -30.6573   24.0545 C   0  0  0  0  0  0
  -25.9027  -34.9456   23.5109 C   0  0  0  0  0  0
  -16.5324  -29.9068   23.6349 C   0  0  0  0  0  0
  -16.7259  -28.6488   23.0370 C   0  0  0  0  0  0
  -26.4479  -31.6604   25.0707 C   0  0  0  0  0  0
  -25.3771  -31.3697   26.1462 C   0  0  0  0  0  0
  -27.0316  -30.3049   24.6080 C   0  0  0  0  0  0
  -27.6050  -32.4325   25.7466 C   0  0  0  0  0  0
  -27.5575  -37.1821   24.8463 C   0  0  0  0  0  0
  -21.4148  -29.2984   22.3685 N   0  0  0  0  0  0
  -26.4297  -37.3788   23.9393 N   0  0  0  0  0  0
  -24.6754  -31.0717   22.1009 N   0  0  0  0  0  0
  -23.4173  -28.8168   23.3061 O   0  0  0  0  0  0
  -28.3963  -26.6127   20.1518 O   0  0  0  0  0  0
  -26.5608  -34.8909   22.4686 O   0  0  0  0  0  0
  -23.5339  -32.1419   23.7468 O   0  0  0  0  0  0
  -27.1436  -17.3808   22.2363 C   0  0  0  0  0  0
  -27.4011  -18.6109   21.6093 C   0  0  0  0  0  0
  -28.0973  -16.3436   22.2104 C   0  0  0  0  0  0
  -29.5951  -17.7736   20.9308 C   0  0  0  0  0  0
  -28.6321  -18.8410   20.9576 C   0  0  0  0  0  0
  -29.3315  -16.4962   21.5342 C   0  0  0  0  0  0
  -31.3734  -15.7677   22.6475 C   0  0  0  0  0  0
  -28.8004  -20.1823   20.1844 C   0  0  0  0  0  0
  -28.6800  -24.0949   20.6984 C   0  0  0  0  0  0
  -28.3768  -22.6572   20.1325 C   0  0  0  0  0  0
  -28.4659  -25.2423   19.6477 C   0  0  0  0  0  0
  -30.3244  -15.4381   21.6700 N   0  0  0  0  0  0
  -28.7906  -21.4691   20.9529 N   0  3  0  0  0  0
  -31.4695  -12.4953   19.1614 H   0  0  0  0  0  0
  -30.3587  -11.3733   19.8759 H   0  0  0  0  0  0
  -29.7750  -11.8303   17.4652 H   0  0  0  0  0  0
  -29.6611  -13.5412   17.8262 H   0  0  0  0  0  0
  -27.8674  -11.3153   18.8627 H   0  0  0  0  0  0
  -27.3809  -12.6202   17.8149 H   0  0  0  0  0  0
  -27.7012  -14.2689   19.5945 H   0  0  0  0  0  0
  -28.6924  -11.9987   21.3754 H   0  0  0  0  0  0
  -28.4462  -13.6231   21.8985 H   0  0  0  0  0  0
  -25.2762   -9.5698   22.4765 H   0  0  0  0  0  0
  -24.0022   -7.4640   22.7454 H   0  0  0  0  0  0
  -21.0869   -8.8784   19.8949 H   0  0  0  0  0  0
  -22.3705  -10.9678   19.6195 H   0  0  0  0  0  0
  -21.2003   -7.6158   23.9699 H   0  0  0  0  0  0
  -21.1484   -6.0535   25.9063 H   0  0  0  0  0  0
  -22.0601   -2.7607   23.2853 H   0  0  0  0  0  0
  -22.4139  -11.9740   22.4681 H   0  0  0  0  0  0
  -21.1167  -13.1190   22.2792 H   0  0  0  0  0  0
  -24.6712  -15.8548   20.5282 H   0  0  0  0  0  0
  -26.3130  -15.6270   20.2016 H   0  0  0  0  0  0
  -26.7084  -32.5540   23.1152 H   0  0  0  0  0  0
  -25.0008  -33.9802   25.0425 H   0  0  0  0  0  0
  -22.6927  -31.3046   21.4180 H   0  0  0  0  0  0
  -23.3731  -35.9686   23.3348 H   0  0  0  0  0  0
  -24.3571  -36.8893   22.2046 H   0  0  0  0  0  0
  -23.7273  -37.6539   23.6640 H   0  0  0  0  0  0
  -26.0461  -31.5887   20.6018 H   0  0  0  0  0  0
  -26.8269  -30.8721   21.9901 H   0  0  0  0  0  0
  -28.0959  -29.0343   21.1792 H   0  0  0  0  0  0
  -25.9236  -25.9343   19.0624 H   0  0  0  0  0  0
  -23.9442  -27.2945   19.0738 H   0  0  0  0  0  0
  -23.7275  -30.6182   19.4060 H   0  0  0  0  0  0
  -22.7400  -29.2630   19.8693 H   0  0  0  0  0  0
  -25.1305  -36.1978   25.0826 H   0  0  0  0  0  0
  -20.9927  -28.3169   24.1426 H   0  0  0  0  0  0
  -20.5600  -26.2218   23.3599 H   0  0  0  0  0  0
  -21.6614  -26.7370   22.1226 H   0  0  0  0  0  0
  -19.6856  -25.6306   21.1215 H   0  0  0  0  0  0
  -19.6667  -27.3200   20.6747 H   0  0  0  0  0  0
  -17.4172  -26.6663   21.4020 H   0  0  0  0  0  0
  -18.0265  -26.0027   22.8993 H   0  0  0  0  0  0
  -19.7916  -30.7252   24.2243 H   0  0  0  0  0  0
  -17.5001  -31.6271   24.5101 H   0  0  0  0  0  0
  -15.5322  -30.2986   23.7649 H   0  0  0  0  0  0
  -15.8631  -28.0812   22.7075 H   0  0  0  0  0  0
  -24.5908  -30.7078   25.7803 H   0  0  0  0  0  0
  -24.9011  -32.2854   26.4980 H   0  0  0  0  0  0
  -25.8133  -30.8810   27.0188 H   0  0  0  0  0  0
  -26.2874  -29.6827   24.1082 H   0  0  0  0  0  0
  -27.4029  -29.7242   25.4543 H   0  0  0  0  0  0
  -27.8744  -30.4363   23.9279 H   0  0  0  0  0  0
  -27.2657  -33.3599   26.2107 H   0  0  0  0  0  0
  -28.3839  -32.6941   25.0281 H   0  0  0  0  0  0
  -28.0769  -31.8421   26.5339 H   0  0  0  0  0  0
  -28.2614  -38.0089   24.7463 H   0  0  0  0  0  0
  -28.1035  -36.2612   24.6360 H   0  0  0  0  0  0
  -27.2281  -37.1573   25.8859 H   0  0  0  0  0  0
  -20.9229  -29.8653   21.6910 H   0  0  0  0  0  0
  -26.0180  -38.2871   24.1379 H   0  0  0  0  0  0
  -26.2067  -17.2371   22.7549 H   0  0  0  0  0  0
  -26.6310  -19.3753   21.6120 H   0  0  0  0  0  0
  -27.8622  -15.4417   22.7502 H   0  0  0  0  0  0
  -30.5526  -17.9457   20.4558 H   0  0  0  0  0  0
  -32.0703  -16.5191   22.2612 H   0  0  0  0  0  0
  -31.9630  -14.8905   22.9228 H   0  0  0  0  0  0
  -30.9368  -16.1589   23.5678 H   0  0  0  0  0  0
  -27.9554  -20.2309   19.4924 H   0  0  0  0  0  0
  -29.6810  -20.1496   19.5469 H   0  0  0  0  0  0
  -28.0542  -24.2787   21.5710 H   0  0  0  0  0  0
  -29.7158  -24.1370   21.0434 H   0  0  0  0  0  0
  -28.8385  -22.5754   19.1458 H   0  0  0  0  0  0
  -27.3002  -22.5831   19.9644 H   0  0  0  0  0  0
  -27.6576  -24.9729   18.9720 H   0  0  0  0  0  0
  -29.3303  -25.2250   18.9847 H   0  0  0  0  0  0
  -29.7081  -21.6140   21.3288 H   0  0  0  0  0  0
  -28.1634  -21.3767   21.7322 H   0  0  0  0  0  0
  1 25  1  0  0  0
  1 30  2  0  0  0
  1 82  1  0  0  0
  2  3  1  0  0  0
  2 25  1  0  0  0
  2 84  1  0  0  0
  2 85  1  0  0  0
  3  4  1  0  0  0
  3 86  1  0  0  0
  3 87  1  0  0  0
  4  5  1  0  0  0
  4 88  1  0  0  0
  4 89  1  0  0  0
  5  6  1  0  0  0
  5 26  1  0  0  0
  5 90  1  0  0  0
  6 25  1  0  0  0
  6 91  1  0  0  0
  6 92  1  0  0  0
  7  8  2  0  0  0
  7 26  1  0  0  0
  7 29  1  0  0  0
  8  9  1  0  0  0
  8 22  1  0  0  0
  9 10  1  0  0  0
  9 27  2  0  0  0
 10 11  2  0  0  0
 10 15  1  0  0  0
 11 12  1  0  0  0
 11 93  1  0  0  0
 12 13  2  0  0  0
 12 94  1  0  0  0
 13 14  1  0  0  0
 13 31  1  0  0  0
 14 15  2  0  0  0
 14 95  1  0  0  0
 15 96  1  0  0  0
 16 17  2  0  0  0
 16 21  1  0  0  0
 16 31  1  0  0  0
 17 18  1  0  0  0
 17 97  1  0  0  0
 18 19  2  0  0  0
 18 98  1  0  0  0
 19 20  1  0  0  0
 19 24  1  0  0  0
 20 21  2  0  0  0
 20 99  1  0  0  0
 21 23  1  0  0  0
 22 28  1  0  0  0
 22 32  2  0  0  0
 26 27  1  0  0  0
 28100  1  0  0  0
 28101  1  0  0  0
 29102  1  0  0  0
 29103  1  0  0  0
 33 34  1  0  0  0
 33 66  1  0  0  0
 33 70  2  0  0  0
 34 36  1  0  0  0
 34 59  1  0  0  0
 34104  1  0  0  0
 35 44  2  0  0  0
 35 45  1  0  0  0
 35 68  1  0  0  0
 36 56  1  0  0  0
 36105  1  0  0  0
 37 39  1  0  0  0
 37 47  1  0  0  0
 37 66  1  0  0  0
 37106  1  0  0  0
 38 43  2  0  0  0
 38 46  1  0  0  0
 38 47  1  0  0  0
 39 64  1  0  0  0
 39 67  2  0  0  0
 40 52  1  0  0  0
 40 53  2  0  0  0
 40 58  1  0  0  0
 41107  1  0  0  0
 41108  1  0  0  0
 41109  1  0  0  0
 41 48  1  0  0  0
 42 43  1  0  0  0
 42 66  1  0  0  0
 42110  1  0  0  0
 42111  1  0  0  0
 43 44  1  0  0  0
 44112  1  0  0  0
 45 46  2  0  0  0
 45113  1  0  0  0
 46114  1  0  0  0
 47115  1  0  0  0
 47116  1  0  0  0
 48 56  1  0  0  0
 48 65  1  0  0  0
 48117  1  0  0  0
 49 50  1  0  0  0
 49 53  1  0  0  0
 49 64  1  0  0  0
 49118  1  0  0  0
 50 51  1  0  0  0
 50119  1  0  0  0
 50120  1  0  0  0
 51 52  1  0  0  0
 51121  1  0  0  0
 51122  1  0  0  0
 52123  1  0  0  0
 52124  1  0  0  0
 53 54  1  0  0  0
 54 55  2  0  0  0
 54125  1  0  0  0
 55 57  1  0  0  0
 55126  1  0  0  0
 56 69  2  0  0  0
 57 58  2  0  0  0
 57127  1  0  0  0
 58128  1  0  0  0
 59 60  1  0  0  0
 59 61  1  0  0  0
 59 62  1  0  0  0
 60129  1  0  0  0
 60130  1  0  0  0
 60131  1  0  0  0
 61132  1  0  0  0
 61133  1  0  0  0
 61134  1  0  0  0
 62135  1  0  0  0
 62136  1  0  0  0
 62137  1  0  0  0
 63 65  1  0  0  0
 63138  1  0  0  0
 63139  1  0  0  0
 63140  1  0  0  0
 64141  1  0  0  0
 65142  1  0  0  0
 68 81  1  0  0  0
 71 72  2  0  0  0
 71 73  1  0  0  0
 71143  1  0  0  0
 72 75  1  0  0  0
 72144  1  0  0  0
 73 76  2  0  0  0
 73145  1  0  0  0
 74 75  2  0  0  0
 74 76  1  0  0  0
 74146  1  0  0  0
 75 78  1  0  0  0
 76 82  1  0  0  0
 77 82  1  0  0  0
 77147  1  0  0  0
 77148  1  0  0  0
 77149  1  0  0  0
 78 83  1  0  0  0
 78150  1  0  0  0
 78151  1  0  0  0
 79 80  1  0  0  0
 79 81  1  0  0  0
 79152  1  0  0  0
 79153  1  0  0  0
 80 83  1  0  0  0
 80154  1  0  0  0
 80155  1  0  0  0
 81156  1  0  0  0
 81157  1  0  0  0
 83158  1  0  0  0
 83159  1  0  0  0
M  CHG  1  83   1
M  ISO  4   1 100  68 101  81 101  82 100
M  END
> <chiral flag>
0

> <version>
0

> <s_m_source_file>
/data/baiqing/PycharmProjects/Reinvent-master-3.2/result/LINK_invent/BTK/process_docking_weight1_custom_product_contain_oxygen_bond_distance_aromatic_linkinvent_7_9_3/rearranged_h_0017.sdf

> <i_m_source_file_index>
60

> <r_mmod_Potential_Energy-OPLS-2005>
-24.5336666107178

> <r_mmod_Stretch_Energy-OPLS-2005>
65.7306900024414

> <r_mmod_Bend_Energy-OPLS-2005>
143.34602355957

> <r_mmod_Torsional_Energy-OPLS-2005>
282.300354003906

> <r_mmod_Improper_Torsional_Energy-OPLS-2005>
6.87714290618896

> <r_mmod_Van_der_Waal_Energy-OPLS-2005>
142.215667724609

> <r_mmod_Electrostatic_Energy-OPLS-2005>
-224.896392822266

> <r_mmod_Solvation_Energy-OPLS-2005>
-466.105590820312

> <b_mmod_Minimization_Converged-OPLS-2005>
0

> <r_mmod_RMS_Derivative-OPLS-2005>
7.66941547393799

$$$$
61
                    3D
 Structure written by MMmdl.
171179  0  0  1  0            999 V2000
  -30.0913  -15.7169   19.9939 C   0  0  0  0  0  0
  -30.3942  -13.1206   19.4779 C   0  0  0  0  0  0
  -29.5294  -12.6365   18.2862 C   0  0  0  0  0  0
  -28.1081  -12.2694   18.7460 C   0  0  0  0  0  0
  -27.5610  -13.2989   19.7578 C   0  0  2  0  0  0
  -28.5667  -13.6855   20.8510 C   0  0  0  0  0  0
  -25.2244  -13.8241   20.5752 C   0  0  0  0  0  0
  -24.1657  -13.0396   20.9328 C   0  0  0  0  0  0
  -24.6361  -11.6903   20.8780 C   0  0  0  0  0  0
  -23.9066  -10.4247   21.0392 C   0  0  0  0  0  0
  -24.3618   -9.4196   21.9192 C   0  0  0  0  0  0
  -23.6313   -8.2230   22.0733 C   0  0  0  0  0  0
  -22.4284   -8.0270   21.3542 C   0  0  0  0  0  0
  -21.9921   -9.0226   20.4620 C   0  0  0  0  0  0
  -22.7232  -10.2116   20.3039 C   0  0  0  0  0  0
  -21.6867   -6.0726   22.5279 C   0  0  0  0  0  0
  -21.4010   -6.5634   23.8206 C   0  0  0  0  0  0
  -21.3658   -5.6798   24.9178 C   0  0  0  0  0  0
  -21.6036   -4.3057   24.7234 C   0  0  0  0  0  0
  -21.8829   -3.8143   23.4356 C   0  0  0  0  0  0
  -21.9192   -4.6951   22.3404 C   0  0  0  0  0  0
  -22.7677  -13.5158   21.2007 C   0  0  0  0  0  0
  -22.1671   -4.2142   21.0978 F   0  0  0  0  0  0
  -21.5623   -3.4530   25.7736 F   0  0  0  0  0  0
  -29.7091  -14.3101   20.1462 N   0  0  0  0  0  0
  -26.2600  -12.9558   20.2991 N   0  0  0  0  0  0
  -25.9268  -11.6635   20.5553 N   0  0  0  0  0  0
  -22.0335  -12.8109   22.0527 N   0  0  0  0  0  0
  -25.3884  -15.1985   20.4261 N   0  0  0  0  0  0
  -31.3372  -15.6956   19.8821 O   0  0  0  0  0  0
  -21.6640   -6.8880   21.4246 O   0  0  0  0  0  0
  -22.3357  -14.5462   20.6839 O   0  0  0  0  0  0
  -25.2175  -31.9487   22.5887 C   0  0  0  0  0  0
  -26.3701  -32.4776   23.5487 C   0  0  1  0  0  0
  -26.6620  -27.9715   21.8089 C   0  0  0  0  0  0
  -26.0056  -33.8473   24.0618 N   0  0  0  0  0  0
  -23.8945  -29.2422   21.0893 C   0  0  2  0  0  0
  -25.2132  -28.4247   19.9643 C   0  0  0  0  0  0
  -22.6909  -28.4202   21.9731 C   0  0  0  0  0  0
  -17.9760  -28.1431   22.7918 C   0  0  0  0  0  0
  -24.1818  -36.6950   23.2479 C   0  0  0  0  0  0
  -26.2469  -30.8060   20.7030 C   0  0  0  0  0  0
  -26.3074  -29.3764   20.2819 C   0  0  0  0  0  0
  -27.3479  -28.7963   20.9443 C   0  0  0  0  0  0
  -26.3418  -26.8003   21.0405 C   0  0  0  0  0  0
  -25.4025  -27.0724   20.0874 C   0  0  0  0  0  0
  -23.7910  -28.5595   19.8940 C   0  0  0  0  0  0
  -25.4635  -36.2693   23.9868 C   0  0  1  0  0  0
  -20.5204  -28.1642   23.0964 C   0  0  2  0  0  0
  -20.4213  -26.6741   22.7078 C   0  0  0  0  0  0
  -19.4680  -26.5062   21.5413 C   0  0  0  0  0  0
  -18.0674  -26.8094   22.0625 C   0  0  0  0  0  0
  -19.1389  -28.8263   23.2324 C   0  0  0  0  0  0
  -18.9905  -30.0961   23.8422 C   0  0  0  0  0  0
  -17.7070  -30.6480   24.0490 C   0  0  0  0  0  0
  -26.0559  -34.9795   23.3673 C   0  0  0  0  0  0
  -16.5584  -29.9383   23.6518 C   0  0  0  0  0  0
  -16.6983  -28.6924   23.0163 C   0  0  0  0  0  0
  -26.6481  -31.6700   24.9295 C   0  0  0  0  0  0
  -25.5136  -31.5586   26.0239 C   0  0  0  0  0  0
  -27.2331  -30.2670   24.6439 C   0  0  0  0  0  0
  -27.7833  -32.4345   25.6530 C   0  0  0  0  0  0
  -27.5702  -37.2039   24.8425 C   0  0  0  0  0  0
  -21.3865  -28.7809   22.1141 N   0  0  0  0  0  0
  -26.4194  -37.4002   23.9662 N   0  0  0  0  0  0
  -25.1356  -30.8073   21.4878 N   0  0  0  0  0  0
  -23.1197  -27.6103   22.7895 O   0  0  0  0  0  0
  -25.5554  -28.4709   22.7317 O   0  0  0  0  0  0
  -26.5916  -35.0091   22.2641 O   0  0  0  0  0  0
  -24.2516  -32.4230   23.2682 O   0  0  0  0  0  0
  -27.5810  -25.0009   18.9868 C   0  0  0  0  0  0
  -26.3867  -24.2163   17.3294 C   0  0  0  0  0  0
  -28.0350  -23.5773   19.3461 C   0  0  0  0  0  0
  -26.8832  -22.7743   17.6669 C   0  0  0  0  0  0
  -26.6413  -25.5619   17.9651 C   0  0  0  0  0  0
  -27.7762  -22.2244   18.7492 C   0  0  0  0  0  0
  -28.6245  -20.9881   20.6914 C   0  0  0  0  0  0
  -24.7672  -28.9151   16.0286 C   0  0  0  0  0  0
  -26.2538  -27.4021   17.5610 C   0  0  0  0  0  0
  -29.1302  -17.3794   19.9321 C   0  0  0  0  0  0
  -23.3296  -31.2210   19.7393 C   0  0  0  0  0  0
  -22.8282  -31.1210   21.8567 C   0  0  0  0  0  0
  -28.8855  -19.1014   18.9732 C   0  0  0  0  0  0
  -24.5516  -30.3571   18.2736 C   0  0  0  0  0  0
  -24.1943  -29.7940   23.3640 C   0  0  0  0  0  0
  -28.2736  -20.7307   19.3016 N   0  0  0  0  0  0
  -24.9737  -28.7137   17.4865 N   0  3  1  0  0  0
  -31.3750  -13.4125   19.1001 H   0  0  0  0  0  0
  -30.5934  -12.3196   20.1888 H   0  0  0  0  0  0
  -30.0043  -11.7904   17.7907 H   0  0  0  0  0  0
  -29.4690  -13.4369   17.5459 H   0  0  0  0  0  0
  -28.1494  -11.2873   19.2111 H   0  0  0  0  0  0
  -27.4450  -12.1774   17.8839 H   0  0  0  0  0  0
  -27.3957  -14.1918   19.1553 H   0  0  0  0  0  0
  -28.8520  -12.8308   21.4662 H   0  0  0  0  0  0
  -28.1228  -14.4204   21.5271 H   0  0  0  0  0  0
  -25.2748   -9.5692   22.4777 H   0  0  0  0  0  0
  -24.0007   -7.4615   22.7443 H   0  0  0  0  0  0
  -21.0849   -8.8763   19.8915 H   0  0  0  0  0  0
  -22.3699  -10.9674   19.6139 H   0  0  0  0  0  0
  -21.2017   -7.6140   23.9730 H   0  0  0  0  0  0
  -21.1462   -6.0502   25.9085 H   0  0  0  0  0  0
  -22.0610   -2.7596   23.2848 H   0  0  0  0  0  0
  -22.3948  -11.9791   22.4961 H   0  0  0  0  0  0
  -21.0932  -13.1090   22.2679 H   0  0  0  0  0  0
  -24.6234  -15.8511   20.5562 H   0  0  0  0  0  0
  -26.2384  -15.6461   20.1112 H   0  0  0  0  0  0
  -27.2851  -32.5468   22.9662 H   0  0  0  0  0  0
  -25.5778  -33.8601   24.9696 H   0  0  0  0  0  0
  -22.9018  -29.3656   20.7021 H   0  0  0  0  0  0
  -23.4304  -35.9063   23.2559 H   0  0  0  0  0  0
  -24.3747  -36.9411   22.2041 H   0  0  0  0  0  0
  -23.7313  -37.5672   23.7224 H   0  0  0  0  0  0
  -26.1699  -31.5504   19.9198 H   0  0  0  0  0  0
  -27.1524  -31.0995   21.2421 H   0  0  0  0  0  0
  -28.0483  -28.2572   20.3081 H   0  0  0  0  0  0
  -26.2196  -25.8326   21.5052 H   0  0  0  0  0  0
  -24.7351  -26.2826   19.7746 H   0  0  0  0  0  0
  -23.1600  -28.8336   19.0235 H   0  0  0  0  0  0
  -23.2634  -27.5879   19.9493 H   0  0  0  0  0  0
  -25.1790  -36.0677   25.0244 H   0  0  0  0  0  0
  -21.0068  -28.2414   24.0692 H   0  0  0  0  0  0
  -20.0464  -26.1151   23.5660 H   0  0  0  0  0  0
  -21.3478  -26.1586   22.4600 H   0  0  0  0  0  0
  -19.5244  -25.4884   21.1510 H   0  0  0  0  0  0
  -19.7419  -27.1635   20.7124 H   0  0  0  0  0  0
  -17.3668  -26.8003   21.2253 H   0  0  0  0  0  0
  -17.7562  -26.0179   22.7464 H   0  0  0  0  0  0
  -19.8604  -30.6480   24.1585 H   0  0  0  0  0  0
  -17.6031  -31.6148   24.5237 H   0  0  0  0  0  0
  -15.5777  -30.3559   23.8356 H   0  0  0  0  0  0
  -15.8089  -28.1652   22.6985 H   0  0  0  0  0  0
  -25.0002  -30.6016   26.0884 H   0  0  0  0  0  0
  -24.7700  -32.3499   25.9218 H   0  0  0  0  0  0
  -25.9203  -31.6691   27.0309 H   0  0  0  0  0  0
  -26.4995  -29.4722   24.6026 H   0  0  0  0  0  0
  -27.8948  -29.9310   25.4467 H   0  0  0  0  0  0
  -27.8310  -30.2448   23.7304 H   0  0  0  0  0  0
  -27.4661  -33.3916   26.0723 H   0  0  0  0  0  0
  -28.6022  -32.6404   24.9649 H   0  0  0  0  0  0
  -28.2301  -31.8637   26.4674 H   0  0  0  0  0  0
  -28.2196  -38.0806   24.7909 H   0  0  0  0  0  0
  -28.1791  -36.3356   24.5736 H   0  0  0  0  0  0
  -27.2601  -37.0962   25.8845 H   0  0  0  0  0  0
  -20.9977  -29.4926   21.5180 H   0  0  0  0  0  0
  -25.9510  -38.2588   24.2521 H   0  0  0  0  0  0
  -28.0532  -25.7663   19.5797 H   0  0  0  0  0  0
  -25.7554  -24.2657   16.4510 H   0  0  0  0  0  0
  -28.6878  -23.5936   20.2101 H   0  0  0  0  0  0
  -26.4968  -22.0185   16.9958 H   0  0  0  0  0  0
  -27.8003  -21.4681   21.2179 H   0  0  0  0  0  0
  -29.5044  -21.6318   20.7526 H   0  0  0  0  0  0
  -28.8488  -20.0748   21.2439 H   0  0  0  0  0  0
  -24.7526  -27.9589   15.5039 H   0  0  0  0  0  0
  -25.6055  -29.4917   15.6252 H   0  0  0  0  0  0
  -23.8439  -29.4493   15.7896 H   0  0  0  0  0  0
  -26.6884  -27.4465   16.5591 H   0  0  0  0  0  0
  -27.0470  -27.8855   18.1321 H   0  0  0  0  0  0
  -28.1063  -17.0188   20.0200 H   0  0  0  0  0  0
  -29.3505  -17.7386   20.9367 H   0  0  0  0  0  0
  -22.3533  -31.1799   19.2571 H   0  0  0  0  0  0
  -23.5852  -32.2705   19.6184 H   0  0  0  0  0  0
  -21.7701  -30.9642   21.9643 H   0  0  0  0  0  0
  -22.5138  -32.1348   22.1057 H   0  0  0  0  0  0
  -28.3011  -18.8131   18.0999 H   0  0  0  0  0  0
  -29.8712  -19.2890   18.5427 H   0  0  0  0  0  0
  -25.4663  -30.9356   18.1681 H   0  0  0  0  0  0
  -24.0246  -30.8234   17.4471 H   0  0  0  0  0  0
  -23.5343  -29.3838   24.1295 H   0  0  0  0  0  0
  -24.6241  -30.3048   24.1829 H   0  0  0  0  0  0
  -24.1726  -28.1665   17.7585 H   0  0  0  0  0  0
  1 25  1  0  0  0
  1 30  2  0  0  0
  1 80  1  0  0  0
  2  3  1  0  0  0
  2 25  1  0  0  0
  2 88  1  0  0  0
  2 89  1  0  0  0
  3  4  1  0  0  0
  3 90  1  0  0  0
  3 91  1  0  0  0
  4  5  1  0  0  0
  4 92  1  0  0  0
  4 93  1  0  0  0
  5  6  1  0  0  0
  5 26  1  0  0  0
  5 94  1  0  0  0
  6 25  1  0  0  0
  6 95  1  0  0  0
  6 96  1  0  0  0
  7  8  2  0  0  0
  7 26  1  0  0  0
  7 29  1  0  0  0
  8  9  1  0  0  0
  8 22  1  0  0  0
  9 10  1  0  0  0
  9 27  2  0  0  0
 10 11  2  0  0  0
 10 15  1  0  0  0
 11 12  1  0  0  0
 11 97  1  0  0  0
 12 13  2  0  0  0
 12 98  1  0  0  0
 13 14  1  0  0  0
 13 31  1  0  0  0
 14 15  2  0  0  0
 14 99  1  0  0  0
 15100  1  0  0  0
 16 17  2  0  0  0
 16 21  1  0  0  0
 16 31  1  0  0  0
 17 18  1  0  0  0
 17101  1  0  0  0
 18 19  2  0  0  0
 18102  1  0  0  0
 19 20  1  0  0  0
 19 24  1  0  0  0
 20 21  2  0  0  0
 20103  1  0  0  0
 21 23  1  0  0  0
 22 28  1  0  0  0
 22 32  2  0  0  0
 26 27  1  0  0  0
 28104  1  0  0  0
 28105  1  0  0  0
 29106  1  0  0  0
 29107  1  0  0  0
 33 34  1  0  0  0
 33 66  1  0  0  0
 33 70  2  0  0  0
 34 36  1  0  0  0
 34 59  1  0  0  0
 34108  1  0  0  0
 35 44  2  0  0  0
 35 45  1  0  0  0
 35 68  1  0  0  0
 36 56  1  0  0  0
 36109  1  0  0  0
 37 39  1  0  0  0
 37 47  1  0  0  0
 37 66  1  0  0  0
 37110  1  0  0  0
 38 43  2  0  0  0
 38 46  1  0  0  0
 38 47  1  0  0  0
 39 64  1  0  0  0
 39 67  2  0  0  0
 40 52  1  0  0  0
 40 53  2  0  0  0
 40 58  1  0  0  0
 41111  1  0  0  0
 41112  1  0  0  0
 41113  1  0  0  0
 41 48  1  0  0  0
 42 43  1  0  0  0
 42 66  1  0  0  0
 42114  1  0  0  0
 42115  1  0  0  0
 43 44  1  0  0  0
 44116  1  0  0  0
 45 46  2  0  0  0
 45117  1  0  0  0
 46118  1  0  0  0
 47119  1  0  0  0
 47120  1  0  0  0
 48 56  1  0  0  0
 48 65  1  0  0  0
 48121  1  0  0  0
 49 50  1  0  0  0
 49 53  1  0  0  0
 49 64  1  0  0  0
 49122  1  0  0  0
 50 51  1  0  0  0
 50123  1  0  0  0
 50124  1  0  0  0
 51 52  1  0  0  0
 51125  1  0  0  0
 51126  1  0  0  0
 52127  1  0  0  0
 52128  1  0  0  0
 53 54  1  0  0  0
 54 55  2  0  0  0
 54129  1  0  0  0
 55 57  1  0  0  0
 55130  1  0  0  0
 56 69  2  0  0  0
 57 58  2  0  0  0
 57131  1  0  0  0
 58132  1  0  0  0
 59 60  1  0  0  0
 59 61  1  0  0  0
 59 62  1  0  0  0
 60133  1  0  0  0
 60134  1  0  0  0
 60135  1  0  0  0
 61136  1  0  0  0
 61137  1  0  0  0
 61138  1  0  0  0
 62139  1  0  0  0
 62140  1  0  0  0
 62141  1  0  0  0
 63 65  1  0  0  0
 63142  1  0  0  0
 63143  1  0  0  0
 63144  1  0  0  0
 64145  1  0  0  0
 65146  1  0  0  0
 68 85  1  0  0  0
 71 73  2  0  0  0
 71 75  1  0  0  0
 71147  1  0  0  0
 72 74  1  0  0  0
 72 75  2  0  0  0
 72148  1  0  0  0
 73 76  1  0  0  0
 73149  1  0  0  0
 74 76  2  0  0  0
 74150  1  0  0  0
 75 79  1  0  0  0
 76 86  1  0  0  0
 77 86  1  0  0  0
 77151  1  0  0  0
 77152  1  0  0  0
 77153  1  0  0  0
 78154  1  0  0  0
 78155  1  0  0  0
 78156  1  0  0  0
 78 87  1  0  0  0
 79 87  1  0  0  0
 79157  1  0  0  0
 79158  1  0  0  0
 80 83  1  0  0  0
 80159  1  0  0  0
 80160  1  0  0  0
 81 82  1  0  0  0
 81 84  1  0  0  0
 81161  1  0  0  0
 81162  1  0  0  0
 82 85  1  0  0  0
 82163  1  0  0  0
 82164  1  0  0  0
 83 86  1  0  0  0
 83165  1  0  0  0
 83166  1  0  0  0
 84 87  1  0  0  0
 84167  1  0  0  0
 84168  1  0  0  0
 85169  1  0  0  0
 85170  1  0  0  0
 87171  1  0  0  0
M  CHG  1  87   1
M  ISO  4   1 100  68 101  80 100  85 101
M  END
> <chiral flag>
0

> <version>
0

> <s_m_source_file>
/data/baiqing/PycharmProjects/Reinvent-master-3.2/result/LINK_invent/BTK/process_docking_weight1_custom_product_contain_oxygen_bond_distance_aromatic_linkinvent_7_9_3/rearranged_h_0017.sdf

> <i_m_source_file_index>
61

> <r_mmod_Potential_Energy-OPLS-2005>
13137.197265625

> <r_mmod_Stretch_Energy-OPLS-2005>
4691.49951171875

> <r_mmod_Bend_Energy-OPLS-2005>
2099.06518554688

> <r_mmod_Torsional_Energy-OPLS-2005>
596.831726074219

> <r_mmod_Improper_Torsional_Energy-OPLS-2005>
72.9662322998047

> <r_mmod_Van_der_Waal_Energy-OPLS-2005>
1912.55871582031

> <r_mmod_Electrostatic_Energy-OPLS-2005>
-214.513336181641

> <r_mmod_Solvation_Energy-OPLS-2005>
-446.741912841797

> <b_mmod_Minimization_Converged-OPLS-2005>
0

> <r_mmod_RMS_Derivative-OPLS-2005>
13.7710580825806

$$$$
62
                    3D
 Structure written by MMmdl.
148156  0  0  1  0            999 V2000
  -30.5226  -14.9136   20.4293 C   0  0  0  0  0  0
  -30.4488  -12.5603   19.4982 C   0  0  0  0  0  0
  -29.5250  -12.5321   18.2568 C   0  0  0  0  0  0
  -28.0550  -12.3244   18.6701 C   0  0  0  0  0  0
  -27.6383  -13.2414   19.8495 C   0  0  2  0  0  0
  -28.6811  -13.2255   20.9888 C   0  0  0  0  0  0
  -25.2494  -13.8203   20.5706 C   0  0  0  0  0  0
  -24.1795  -13.0436   20.9210 C   0  0  0  0  0  0
  -24.6401  -11.6919   20.8745 C   0  0  0  0  0  0
  -23.9079  -10.4292   21.0403 C   0  0  0  0  0  0
  -24.3626   -9.4207   21.9182 C   0  0  0  0  0  0
  -23.6297   -8.2244   22.0754 C   0  0  0  0  0  0
  -22.4279   -8.0283   21.3544 C   0  0  0  0  0  0
  -21.9917   -9.0257   20.4646 C   0  0  0  0  0  0
  -22.7249  -10.2135   20.3054 C   0  0  0  0  0  0
  -21.6855   -6.0736   22.5278 C   0  0  0  0  0  0
  -21.4016   -6.5640   23.8212 C   0  0  0  0  0  0
  -21.3660   -5.6793   24.9174 C   0  0  0  0  0  0
  -21.6044   -4.3055   24.7224 C   0  0  0  0  0  0
  -21.8819   -3.8147   23.4346 C   0  0  0  0  0  0
  -21.9193   -4.6964   22.3402 C   0  0  0  0  0  0
  -22.7815  -13.5211   21.1870 C   0  0  0  0  0  0
  -22.1661   -4.2149   21.0979 F   0  0  0  0  0  0
  -21.5628   -3.4539   25.7737 F   0  0  0  0  0  0
  -29.9669  -13.6374   20.4070 N   0  0  0  0  0  0
  -26.2926  -12.9425   20.3279 N   0  0  0  0  0  0
  -25.9337  -11.6558   20.5748 N   0  0  0  0  0  0
  -22.0468  -12.8199   22.0429 N   0  0  0  0  0  0
  -25.4167  -15.1930   20.4140 N   0  0  0  0  0  0
  -31.7033  -15.0368   20.0837 O   0  0  0  0  0  0
  -21.6642   -6.8880   21.4241 O   0  0  0  0  0  0
  -22.3493  -14.5514   20.6716 O   0  0  0  0  0  0
  -24.6423  -31.8444   23.1888 C   0  0  0  0  0  0
  -25.9199  -32.4695   23.8273 C   0  0  1  0  0  0
  -27.2228  -27.1462   20.1370 C   0  0  0  0  0  0
  -25.5949  -33.8501   24.2189 N   0  0  0  0  0  0
  -23.4453  -30.4641   21.5340 C   0  0  2  0  0  0
  -24.8948  -28.8943   20.1061 C   0  0  0  0  0  0
  -22.7561  -29.4546   22.4858 C   0  0  0  0  0  0
  -18.0303  -28.1394   22.8478 C   0  0  0  0  0  0
  -24.1492  -36.7257   23.2643 C   0  0  0  0  0  0
  -26.0005  -30.7197   21.3874 C   0  0  0  0  0  0
  -26.0703  -29.3328   20.7265 C   0  0  0  0  0  0
  -27.2296  -28.4721   20.7308 C   0  0  0  0  0  0
  -26.0157  -26.8055   19.4837 C   0  0  0  0  0  0
  -24.8798  -27.6434   19.4725 C   0  0  0  0  0  0
  -23.6705  -29.7946   20.1522 C   0  0  0  0  0  0
  -25.4124  -36.3033   24.0316 C   0  0  1  0  0  0
  -20.5915  -28.3718   23.1237 C   0  0  2  0  0  0
  -20.6787  -26.9422   22.5404 C   0  0  0  0  0  0
  -19.5761  -26.6380   21.5212 C   0  0  0  0  0  0
  -18.1943  -26.7932   22.1625 C   0  0  0  0  0  0
  -19.1560  -28.8875   23.2850 C   0  0  0  0  0  0
  -18.9477  -30.1471   23.8874 C   0  0  0  0  0  0
  -17.6474  -30.6591   24.0559 C   0  0  0  0  0  0
  -25.9073  -34.9407   23.5062 C   0  0  0  0  0  0
  -16.5365  -29.9084   23.6336 C   0  0  0  0  0  0
  -16.7288  -28.6503   23.0356 C   0  0  0  0  0  0
  -26.4525  -31.6565   25.0714 C   0  0  0  0  0  0
  -25.3712  -31.3753   26.1411 C   0  0  0  0  0  0
  -27.0395  -30.2962   24.6298 C   0  0  0  0  0  0
  -27.6050  -32.4337   25.7501 C   0  0  0  0  0  0
  -27.5576  -37.1786   24.8466 C   0  0  0  0  0  0
  -21.4254  -29.3044   22.3608 N   0  0  0  0  0  0
  -26.4288  -37.3745   23.9407 N   0  0  0  0  0  0
  -24.7157  -31.0306   22.0918 N   0  0  0  0  0  0
  -23.4208  -28.8095   23.3007 O   0  0  0  0  0  0
  -28.2920  -26.1843   20.2527 O   0  0  0  0  0  0
  -26.5661  -34.8904   22.4642 O   0  0  0  0  0  0
  -23.5544  -32.1318   23.7113 O   0  0  0  0  0  0
  -30.3165  -19.7861   19.5251 C   0  0  0  0  0  0
  -30.5013  -18.3516   19.6948 C   0  0  0  0  0  0
  -28.5259  -19.7830   21.0447 C   0  0  0  0  0  0
  -29.3103  -20.5993   20.1649 C   0  0  0  0  0  0
  -29.6774  -17.5391   20.5377 C   0  0  0  0  0  0
  -28.6877  -18.3442   21.2057 C   0  0  0  0  0  0
  -29.1426  -22.1578   19.8196 C   0  0  0  0  0  0
  -28.4874  -23.3182   20.2993 C   0  0  0  0  0  0
  -28.3578  -24.7906   19.5758 C   0  0  0  0  0  0
  -29.6890  -16.0185   20.7144 N   0  0  0  0  0  0
  -27.8287  -17.7024   22.0342 F   0  0  0  0  0  0
  -31.4828  -12.7223   19.1895 H   0  0  0  0  0  0
  -30.4396  -11.5964   20.0096 H   0  0  0  0  0  0
  -29.8360  -11.7431   17.5708 H   0  0  0  0  0  0
  -29.6213  -13.4703   17.7082 H   0  0  0  0  0  0
  -27.9399  -11.2792   18.9595 H   0  0  0  0  0  0
  -27.3943  -12.4780   17.8160 H   0  0  0  0  0  0
  -27.6147  -14.2529   19.4432 H   0  0  0  0  0  0
  -28.7560  -12.2334   21.4365 H   0  0  0  0  0  0
  -28.3841  -13.9002   21.7930 H   0  0  0  0  0  0
  -25.2771   -9.5682   22.4757 H   0  0  0  0  0  0
  -24.0004   -7.4636   22.7475 H   0  0  0  0  0  0
  -21.0846   -8.8780   19.8953 H   0  0  0  0  0  0
  -22.3708  -10.9675   19.6164 H   0  0  0  0  0  0
  -21.2010   -7.6149   23.9715 H   0  0  0  0  0  0
  -21.1481   -6.0523   25.9076 H   0  0  0  0  0  0
  -22.0598   -2.7609   23.2847 H   0  0  0  0  0  0
  -22.4094  -11.9865   22.4818 H   0  0  0  0  0  0
  -21.1084  -13.1217   22.2638 H   0  0  0  0  0  0
  -24.6517  -15.8462   20.5420 H   0  0  0  0  0  0
  -26.2676  -15.6407   20.0993 H   0  0  0  0  0  0
  -26.7261  -32.5300   23.0998 H   0  0  0  0  0  0
  -25.0072  -33.9617   25.0320 H   0  0  0  0  0  0
  -22.7474  -31.2899   21.3808 H   0  0  0  0  0  0
  -23.3757  -35.9585   23.3293 H   0  0  0  0  0  0
  -24.3575  -36.8901   22.2059 H   0  0  0  0  0  0
  -23.7244  -37.6448   23.6688 H   0  0  0  0  0  0
  -26.1574  -31.4758   20.6168 H   0  0  0  0  0  0
  -26.8704  -30.7674   22.0308 H   0  0  0  0  0  0
  -28.1224  -28.8010   21.2440 H   0  0  0  0  0  0
  -25.8864  -25.8471   19.0096 H   0  0  0  0  0  0
  -23.9788  -27.2992   18.9834 H   0  0  0  0  0  0
  -23.8050  -30.5699   19.3970 H   0  0  0  0  0  0
  -22.7855  -29.2359   19.8423 H   0  0  0  0  0  0
  -25.1313  -36.1861   25.0808 H   0  0  0  0  0  0
  -21.0009  -28.3309   24.1358 H   0  0  0  0  0  0
  -20.5682  -26.2331   23.3623 H   0  0  0  0  0  0
  -21.6653  -26.7428   22.1202 H   0  0  0  0  0  0
  -19.6922  -25.6285   21.1256 H   0  0  0  0  0  0
  -19.6698  -27.3178   20.6732 H   0  0  0  0  0  0
  -17.4210  -26.6673   21.4031 H   0  0  0  0  0  0
  -18.0345  -26.0080   22.9029 H   0  0  0  0  0  0
  -19.7952  -30.7294   24.2233 H   0  0  0  0  0  0
  -17.5026  -31.6269   24.5165 H   0  0  0  0  0  0
  -15.5364  -30.2979   23.7672 H   0  0  0  0  0  0
  -15.8689  -28.0814   22.7085 H   0  0  0  0  0  0
  -24.5889  -30.7105   25.7730 H   0  0  0  0  0  0
  -24.8904  -32.2937   26.4791 H   0  0  0  0  0  0
  -25.7995  -30.8952   27.0219 H   0  0  0  0  0  0
  -26.3016  -29.6679   24.1298 H   0  0  0  0  0  0
  -27.4002  -29.7267   25.4874 H   0  0  0  0  0  0
  -27.8925  -30.4200   23.9621 H   0  0  0  0  0  0
  -27.2635  -33.3653   26.2026 H   0  0  0  0  0  0
  -28.3888  -32.6875   25.0351 H   0  0  0  0  0  0
  -28.0690  -31.8501   26.5463 H   0  0  0  0  0  0
  -28.2587  -38.0088   24.7509 H   0  0  0  0  0  0
  -28.1078  -36.2616   24.6299 H   0  0  0  0  0  0
  -27.2290  -37.1438   25.8869 H   0  0  0  0  0  0
  -20.9463  -29.8757   21.6789 H   0  0  0  0  0  0
  -26.0155  -38.2813   24.1408 H   0  0  0  0  0  0
  -30.9845  -20.2807   18.8337 H   0  0  0  0  0  0
  -31.2841  -17.8700   19.1264 H   0  0  0  0  0  0
  -27.7275  -20.2587   21.5946 H   0  0  0  0  0  0
  -29.6598  -22.3727   18.8945 H   0  0  0  0  0  0
  -27.9340  -23.2313   21.2231 H   0  0  0  0  0  0
  -27.5417  -24.6799   18.8692 H   0  0  0  0  0  0
  -29.2302  -24.8542   18.9253 H   0  0  0  0  0  0
  -28.8203  -15.6985   21.1162 H   0  0  0  0  0  0
  1 25  1  0  0  0
  1 30  2  0  0  0
  1 80  1  0  0  0
  2  3  1  0  0  0
  2 25  1  0  0  0
  2 82  1  0  0  0
  2 83  1  0  0  0
  3  4  1  0  0  0
  3 84  1  0  0  0
  3 85  1  0  0  0
  4  5  1  0  0  0
  4 86  1  0  0  0
  4 87  1  0  0  0
  5  6  1  0  0  0
  5 26  1  0  0  0
  5 88  1  0  0  0
  6 25  1  0  0  0
  6 89  1  0  0  0
  6 90  1  0  0  0
  7  8  2  0  0  0
  7 26  1  0  0  0
  7 29  1  0  0  0
  8  9  1  0  0  0
  8 22  1  0  0  0
  9 10  1  0  0  0
  9 27  2  0  0  0
 10 11  2  0  0  0
 10 15  1  0  0  0
 11 12  1  0  0  0
 11 91  1  0  0  0
 12 13  2  0  0  0
 12 92  1  0  0  0
 13 14  1  0  0  0
 13 31  1  0  0  0
 14 15  2  0  0  0
 14 93  1  0  0  0
 15 94  1  0  0  0
 16 17  2  0  0  0
 16 21  1  0  0  0
 16 31  1  0  0  0
 17 18  1  0  0  0
 17 95  1  0  0  0
 18 19  2  0  0  0
 18 96  1  0  0  0
 19 20  1  0  0  0
 19 24  1  0  0  0
 20 21  2  0  0  0
 20 97  1  0  0  0
 21 23  1  0  0  0
 22 28  1  0  0  0
 22 32  2  0  0  0
 26 27  1  0  0  0
 28 98  1  0  0  0
 28 99  1  0  0  0
 29100  1  0  0  0
 29101  1  0  0  0
 33 34  1  0  0  0
 33 66  1  0  0  0
 33 70  2  0  0  0
 34 36  1  0  0  0
 34 59  1  0  0  0
 34102  1  0  0  0
 35 44  2  0  0  0
 35 45  1  0  0  0
 35 68  1  0  0  0
 36 56  1  0  0  0
 36103  1  0  0  0
 37 39  1  0  0  0
 37 47  1  0  0  0
 37 66  1  0  0  0
 37104  1  0  0  0
 38 43  2  0  0  0
 38 46  1  0  0  0
 38 47  1  0  0  0
 39 64  1  0  0  0
 39 67  2  0  0  0
 40 52  1  0  0  0
 40 53  2  0  0  0
 40 58  1  0  0  0
 41105  1  0  0  0
 41106  1  0  0  0
 41107  1  0  0  0
 41 48  1  0  0  0
 42 43  1  0  0  0
 42 66  1  0  0  0
 42108  1  0  0  0
 42109  1  0  0  0
 43 44  1  0  0  0
 44110  1  0  0  0
 45 46  2  0  0  0
 45111  1  0  0  0
 46112  1  0  0  0
 47113  1  0  0  0
 47114  1  0  0  0
 48 56  1  0  0  0
 48 65  1  0  0  0
 48115  1  0  0  0
 49 50  1  0  0  0
 49 53  1  0  0  0
 49 64  1  0  0  0
 49116  1  0  0  0
 50 51  1  0  0  0
 50117  1  0  0  0
 50118  1  0  0  0
 51 52  1  0  0  0
 51119  1  0  0  0
 51120  1  0  0  0
 52121  1  0  0  0
 52122  1  0  0  0
 53 54  1  0  0  0
 54 55  2  0  0  0
 54123  1  0  0  0
 55 57  1  0  0  0
 55124  1  0  0  0
 56 69  2  0  0  0
 57 58  2  0  0  0
 57125  1  0  0  0
 58126  1  0  0  0
 59 60  1  0  0  0
 59 61  1  0  0  0
 59 62  1  0  0  0
 60127  1  0  0  0
 60128  1  0  0  0
 60129  1  0  0  0
 61130  1  0  0  0
 61131  1  0  0  0
 61132  1  0  0  0
 62133  1  0  0  0
 62134  1  0  0  0
 62135  1  0  0  0
 63 65  1  0  0  0
 63136  1  0  0  0
 63137  1  0  0  0
 63138  1  0  0  0
 64139  1  0  0  0
 65140  1  0  0  0
 68 79  1  0  0  0
 71 72  2  0  0  0
 71 74  1  0  0  0
 71141  1  0  0  0
 72 75  1  0  0  0
 72142  1  0  0  0
 73 74  2  0  0  0
 73 76  1  0  0  0
 73143  1  0  0  0
 74 77  1  0  0  0
 75 76  2  0  0  0
 75 80  1  0  0  0
 76 81  1  0  0  0
 77 78  2  0  0  0
 77144  1  0  0  0
 78 79  1  0  0  0
 78145  1  0  0  0
 79146  1  0  0  0
 79147  1  0  0  0
 80148  1  0  0  0
M  ISO  4   1 100  68 101  79 101  80 100
M  END
> <chiral flag>
0

> <version>
0

> <s_m_source_file>
/data/baiqing/PycharmProjects/Reinvent-master-3.2/result/LINK_invent/BTK/process_docking_weight1_custom_product_contain_oxygen_bond_distance_aromatic_linkinvent_7_9_3/rearranged_h_0017.sdf

> <i_m_source_file_index>
62

> <r_mmod_Potential_Energy-OPLS-2005>
399.312713623047

> <r_mmod_Stretch_Energy-OPLS-2005>
213.372772216797

> <r_mmod_Bend_Energy-OPLS-2005>
260.7060546875

> <r_mmod_Torsional_Energy-OPLS-2005>
214.760696411133

> <r_mmod_Improper_Torsional_Energy-OPLS-2005>
4.42288541793823

> <r_mmod_Van_der_Waal_Energy-OPLS-2005>
132.536224365234

> <r_mmod_Electrostatic_Energy-OPLS-2005>
-400.437469482422

> <r_mmod_Solvation_Energy-OPLS-2005>
-201.287734985352

> <b_mmod_Minimization_Converged-OPLS-2005>
0

> <r_mmod_RMS_Derivative-OPLS-2005>
0.155435532331467

$$$$
63
                    3D
 Structure written by MMmdl.
147154  0  0  1  0            999 V2000
  -30.4984  -15.0246   20.4237 C   0  0  0  0  0  0
  -30.4456  -12.6319   19.5199 C   0  0  0  0  0  0
  -29.5319  -12.5498   18.2724 C   0  0  0  0  0  0
  -28.0653  -12.3211   18.6830 C   0  0  0  0  0  0
  -27.6305  -13.2558   19.8411 C   0  0  2  0  0  0
  -28.6679  -13.2999   20.9828 C   0  0  0  0  0  0
  -25.2462  -13.8226   20.5719 C   0  0  0  0  0  0
  -24.1779  -13.0440   20.9217 C   0  0  0  0  0  0
  -24.6405  -11.6928   20.8740 C   0  0  0  0  0  0
  -23.9089  -10.4295   21.0398 C   0  0  0  0  0  0
  -24.3634   -9.4210   21.9179 C   0  0  0  0  0  0
  -23.6303   -8.2248   22.0753 C   0  0  0  0  0  0
  -22.4284   -8.0286   21.3545 C   0  0  0  0  0  0
  -21.9923   -9.0259   20.4645 C   0  0  0  0  0  0
  -22.7258  -10.2135   20.3051 C   0  0  0  0  0  0
  -21.6857   -6.0739   22.5279 C   0  0  0  0  0  0
  -21.4017   -6.5641   23.8213 C   0  0  0  0  0  0
  -21.3660   -5.6793   24.9174 C   0  0  0  0  0  0
  -21.6044   -4.3056   24.7224 C   0  0  0  0  0  0
  -21.8819   -3.8148   23.4345 C   0  0  0  0  0  0
  -21.9194   -4.6966   22.3402 C   0  0  0  0  0  0
  -22.7797  -13.5204   21.1877 C   0  0  0  0  0  0
  -22.1661   -4.2151   21.0979 F   0  0  0  0  0  0
  -21.5629   -3.4539   25.7737 F   0  0  0  0  0  0
  -29.9441  -13.7348   20.3995 N   0  0  0  0  0  0
  -26.2894  -12.9472   20.3248 N   0  0  0  0  0  0
  -25.9343  -11.6592   20.5726 N   0  0  0  0  0  0
  -22.0454  -12.8189   22.0435 N   0  0  0  0  0  0
  -25.4136  -15.1958   20.4179 N   0  0  0  0  0  0
  -31.6783  -15.0885   20.0554 O   0  0  0  0  0  0
  -21.6645   -6.8884   21.4242 O   0  0  0  0  0  0
  -22.3475  -14.5507   20.6725 O   0  0  0  0  0  0
  -24.6483  -31.8382   23.1833 C   0  0  0  0  0  0
  -25.9232  -32.4662   23.8243 C   0  0  1  0  0  0
  -27.2186  -27.0772   20.1599 C   0  0  0  0  0  0
  -25.5959  -33.8472   24.2156 N   0  0  0  0  0  0
  -23.4555  -30.4549   21.5292 C   0  0  2  0  0  0
  -24.9073  -28.8717   20.1071 C   0  0  0  0  0  0
  -22.7594  -29.4513   22.4833 C   0  0  0  0  0  0
  -18.0309  -28.1399   22.8475 C   0  0  0  0  0  0
  -24.1493  -36.7241   23.2644 C   0  0  0  0  0  0
  -26.0149  -30.6915   21.3929 C   0  0  0  0  0  0
  -26.0843  -29.2971   20.7350 C   0  0  0  0  0  0
  -27.2365  -28.4154   20.7459 C   0  0  0  0  0  0
  -26.0203  -26.7745   19.4754 C   0  0  0  0  0  0
  -24.8919  -27.6264   19.4602 C   0  0  0  0  0  0
  -23.6858  -29.7803   20.1499 C   0  0  0  0  0  0
  -25.4128  -36.3013   24.0310 C   0  0  1  0  0  0
  -20.5925  -28.3730   23.1221 C   0  0  2  0  0  0
  -20.6790  -26.9427   22.5404 C   0  0  0  0  0  0
  -19.5764  -26.6380   21.5213 C   0  0  0  0  0  0
  -18.1946  -26.7936   22.1624 C   0  0  0  0  0  0
  -19.1567  -28.8884   23.2839 C   0  0  0  0  0  0
  -18.9482  -30.1478   23.8867 C   0  0  0  0  0  0
  -17.6477  -30.6594   24.0558 C   0  0  0  0  0  0
  -25.9082  -34.9390   23.5046 C   0  0  0  0  0  0
  -16.5368  -29.9084   23.6339 C   0  0  0  0  0  0
  -16.7293  -28.6504   23.0359 C   0  0  0  0  0  0
  -26.4535  -31.6555   25.0711 C   0  0  0  0  0  0
  -25.3703  -31.3762   26.1395 C   0  0  0  0  0  0
  -27.0415  -30.2943   24.6343 C   0  0  0  0  0  0
  -27.6053  -32.4337   25.7502 C   0  0  0  0  0  0
  -27.5574  -37.1779   24.8467 C   0  0  0  0  0  0
  -21.4279  -29.3044   22.3584 N   0  0  0  0  0  0
  -26.4287  -37.3732   23.9405 N   0  0  0  0  0  0
  -24.7263  -31.0180   22.0897 N   0  0  0  0  0  0
  -23.4210  -28.8070   23.3013 O   0  0  0  0  0  0
  -28.2551  -26.0583   20.2672 O   0  0  0  0  0  0
  -26.5676  -34.8898   22.4631 O   0  0  0  0  0  0
  -23.5589  -32.1287   23.7016 O   0  0  0  0  0  0
  -29.7320  -16.4670   20.8492 C   0  0  0  0  0  0
  -28.8285  -23.1136   20.5753 C   0  0  0  0  0  0
  -28.0778  -24.5201   19.9232 C   0  0  0  0  0  0
  -29.7585  -17.9980   20.0707 C   0  0  0  0  0  0
  -28.8896  -21.5173   19.9270 C   0  0  0  0  0  0
  -30.4981  -20.1168   21.7853 O   0  0  0  0  0  0
  -28.0818  -19.5214   21.7603 O   0  0  0  0  0  0
  -29.3048  -19.7914   20.9865 S   0  0  0  0  0  0
  -31.4791  -12.7926   19.2103 H   0  0  0  0  0  0
  -30.4472  -11.6833   20.0592 H   0  0  0  0  0  0
  -29.8654  -11.7506   17.6093 H   0  0  0  0  0  0
  -29.6121  -13.4763   17.7018 H   0  0  0  0  0  0
  -27.9696  -11.2804   18.9950 H   0  0  0  0  0  0
  -27.4048  -12.4441   17.8239 H   0  0  0  0  0  0
  -27.5897  -14.2559   19.4086 H   0  0  0  0  0  0
  -28.7653  -12.3251   21.4631 H   0  0  0  0  0  0
  -28.3506  -13.9939   21.7621 H   0  0  0  0  0  0
  -25.2777   -9.5685   22.4756 H   0  0  0  0  0  0
  -24.0009   -7.4641   22.7475 H   0  0  0  0  0  0
  -21.0854   -8.8781   19.8951 H   0  0  0  0  0  0
  -22.3715  -10.9673   19.6161 H   0  0  0  0  0  0
  -21.2010   -7.6149   23.9717 H   0  0  0  0  0  0
  -21.1482   -6.0523   25.9077 H   0  0  0  0  0  0
  -22.0597   -2.7611   23.2845 H   0  0  0  0  0  0
  -22.4082  -11.9855   22.4824 H   0  0  0  0  0  0
  -21.1068  -13.1202   22.2643 H   0  0  0  0  0  0
  -24.6480  -15.8499   20.5395 H   0  0  0  0  0  0
  -26.2665  -15.6402   20.1031 H   0  0  0  0  0  0
  -26.7297  -32.5248   23.0965 H   0  0  0  0  0  0
  -25.0076  -33.9577   25.0284 H   0  0  0  0  0  0
  -22.7610  -31.2825   21.3702 H   0  0  0  0  0  0
  -23.3760  -35.9567   23.3294 H   0  0  0  0  0  0
  -24.3573  -36.8890   22.2061 H   0  0  0  0  0  0
  -23.7244  -37.6429   23.6696 H   0  0  0  0  0  0
  -26.1793  -31.4422   20.6187 H   0  0  0  0  0  0
  -26.8817  -30.7427   22.0400 H   0  0  0  0  0  0
  -28.1276  -28.7330   21.2690 H   0  0  0  0  0  0
  -25.9178  -25.8294   18.9642 H   0  0  0  0  0  0
  -23.9968  -27.2989   18.9494 H   0  0  0  0  0  0
  -23.8262  -30.5533   19.3935 H   0  0  0  0  0  0
  -22.7995  -29.2249   19.8380 H   0  0  0  0  0  0
  -25.1320  -36.1833   25.0802 H   0  0  0  0  0  0
  -21.0017  -28.3327   24.1343 H   0  0  0  0  0  0
  -20.5679  -26.2346   23.3630 H   0  0  0  0  0  0
  -21.6655  -26.7422   22.1205 H   0  0  0  0  0  0
  -19.6924  -25.6283   21.1262 H   0  0  0  0  0  0
  -19.6701  -27.3173   20.6729 H   0  0  0  0  0  0
  -17.4214  -26.6680   21.4028 H   0  0  0  0  0  0
  -18.0344  -26.0085   22.9027 H   0  0  0  0  0  0
  -19.7957  -30.7303   24.2222 H   0  0  0  0  0  0
  -17.5029  -31.6270   24.5166 H   0  0  0  0  0  0
  -15.5366  -30.2976   23.7679 H   0  0  0  0  0  0
  -15.8694  -28.0811   22.7092 H   0  0  0  0  0  0
  -24.5891  -30.7102   25.7710 H   0  0  0  0  0  0
  -24.8883  -32.2949   26.4746 H   0  0  0  0  0  0
  -25.7970  -30.8981   27.0221 H   0  0  0  0  0  0
  -26.3051  -29.6646   24.1338 H   0  0  0  0  0  0
  -27.3988  -29.7267   25.4946 H   0  0  0  0  0  0
  -27.8974  -30.4161   23.9703 H   0  0  0  0  0  0
  -27.2637  -33.3665   26.2002 H   0  0  0  0  0  0
  -28.3903  -32.6855   25.0359 H   0  0  0  0  0  0
  -28.0678  -31.8516   26.5482 H   0  0  0  0  0  0
  -28.2584  -38.0082   24.7507 H   0  0  0  0  0  0
  -28.1077  -36.2609   24.6305 H   0  0  0  0  0  0
  -27.2288  -37.1436   25.8869 H   0  0  0  0  0  0
  -20.9503  -29.8748   21.6746 H   0  0  0  0  0  0
  -26.0148  -38.2798   24.1405 H   0  0  0  0  0  0
  -28.6823  -16.2189   21.0001 H   0  0  0  0  0  0
  -30.1026  -16.6541   21.8568 H   0  0  0  0  0  0
  -28.4146  -23.0076   21.5783 H   0  0  0  0  0  0
  -29.8682  -23.3885   20.7530 H   0  0  0  0  0  0
  -27.0149  -24.3095   20.0301 H   0  0  0  0  0  0
  -28.2577  -24.4750   18.8490 H   0  0  0  0  0  0
  -29.0885  -17.9360   19.2150 H   0  0  0  0  0  0
  -30.7487  -18.1348   19.6388 H   0  0  0  0  0  0
  -29.6013  -21.5256   19.1026 H   0  0  0  0  0  0
  -27.9276  -21.3188   19.4570 H   0  0  0  0  0  0
  1 25  1  0  0  0
  1 30  2  0  0  0
  1 71  1  0  0  0
  2  3  1  0  0  0
  2 25  1  0  0  0
  2 79  1  0  0  0
  2 80  1  0  0  0
  3  4  1  0  0  0
  3 81  1  0  0  0
  3 82  1  0  0  0
  4  5  1  0  0  0
  4 83  1  0  0  0
  4 84  1  0  0  0
  5  6  1  0  0  0
  5 26  1  0  0  0
  5 85  1  0  0  0
  6 25  1  0  0  0
  6 86  1  0  0  0
  6 87  1  0  0  0
  7  8  2  0  0  0
  7 26  1  0  0  0
  7 29  1  0  0  0
  8  9  1  0  0  0
  8 22  1  0  0  0
  9 10  1  0  0  0
  9 27  2  0  0  0
 10 11  2  0  0  0
 10 15  1  0  0  0
 11 12  1  0  0  0
 11 88  1  0  0  0
 12 13  2  0  0  0
 12 89  1  0  0  0
 13 14  1  0  0  0
 13 31  1  0  0  0
 14 15  2  0  0  0
 14 90  1  0  0  0
 15 91  1  0  0  0
 16 17  2  0  0  0
 16 21  1  0  0  0
 16 31  1  0  0  0
 17 18  1  0  0  0
 17 92  1  0  0  0
 18 19  2  0  0  0
 18 93  1  0  0  0
 19 20  1  0  0  0
 19 24  1  0  0  0
 20 21  2  0  0  0
 20 94  1  0  0  0
 21 23  1  0  0  0
 22 28  1  0  0  0
 22 32  2  0  0  0
 26 27  1  0  0  0
 28 95  1  0  0  0
 28 96  1  0  0  0
 29 97  1  0  0  0
 29 98  1  0  0  0
 33 34  1  0  0  0
 33 66  1  0  0  0
 33 70  2  0  0  0
 34 36  1  0  0  0
 34 59  1  0  0  0
 34 99  1  0  0  0
 35 44  2  0  0  0
 35 45  1  0  0  0
 35 68  1  0  0  0
 36 56  1  0  0  0
 36100  1  0  0  0
 37 39  1  0  0  0
 37 47  1  0  0  0
 37 66  1  0  0  0
 37101  1  0  0  0
 38 43  2  0  0  0
 38 46  1  0  0  0
 38 47  1  0  0  0
 39 64  1  0  0  0
 39 67  2  0  0  0
 40 52  1  0  0  0
 40 53  2  0  0  0
 40 58  1  0  0  0
 41102  1  0  0  0
 41103  1  0  0  0
 41104  1  0  0  0
 41 48  1  0  0  0
 42 43  1  0  0  0
 42 66  1  0  0  0
 42105  1  0  0  0
 42106  1  0  0  0
 43 44  1  0  0  0
 44107  1  0  0  0
 45 46  2  0  0  0
 45108  1  0  0  0
 46109  1  0  0  0
 47110  1  0  0  0
 47111  1  0  0  0
 48 56  1  0  0  0
 48 65  1  0  0  0
 48112  1  0  0  0
 49 50  1  0  0  0
 49 53  1  0  0  0
 49 64  1  0  0  0
 49113  1  0  0  0
 50 51  1  0  0  0
 50114  1  0  0  0
 50115  1  0  0  0
 51 52  1  0  0  0
 51116  1  0  0  0
 51117  1  0  0  0
 52118  1  0  0  0
 52119  1  0  0  0
 53 54  1  0  0  0
 54 55  2  0  0  0
 54120  1  0  0  0
 55 57  1  0  0  0
 55121  1  0  0  0
 56 69  2  0  0  0
 57 58  2  0  0  0
 57122  1  0  0  0
 58123  1  0  0  0
 59 60  1  0  0  0
 59 61  1  0  0  0
 59 62  1  0  0  0
 60124  1  0  0  0
 60125  1  0  0  0
 60126  1  0  0  0
 61127  1  0  0  0
 61128  1  0  0  0
 61129  1  0  0  0
 62130  1  0  0  0
 62131  1  0  0  0
 62132  1  0  0  0
 63 65  1  0  0  0
 63133  1  0  0  0
 63134  1  0  0  0
 63135  1  0  0  0
 64136  1  0  0  0
 65137  1  0  0  0
 68 73  1  0  0  0
 71 74  1  0  0  0
 71138  1  0  0  0
 71139  1  0  0  0
 72 73  1  0  0  0
 72 75  1  0  0  0
 72140  1  0  0  0
 72141  1  0  0  0
 73142  1  0  0  0
 73143  1  0  0  0
 74144  1  0  0  0
 74145  1  0  0  0
 74 78  1  0  0  0
 75 78  1  0  0  0
 75146  1  0  0  0
 75147  1  0  0  0
 76 78  2  0  0  0
 77 78  2  0  0  0
M  ISO  4   1 100  68 101  71 100  73 101
M  END
> <chiral flag>
0

> <version>
0

> <s_m_source_file>
/data/baiqing/PycharmProjects/Reinvent-master-3.2/result/LINK_invent/BTK/process_docking_weight1_custom_product_contain_oxygen_bond_distance_aromatic_linkinvent_7_9_3/rearranged_h_0017.sdf

> <i_m_source_file_index>
63

> <r_mmod_Potential_Energy-OPLS-2005>
388.4619140625

> <r_mmod_Stretch_Energy-OPLS-2005>
363.8515625

> <r_mmod_Bend_Energy-OPLS-2005>
335.483489990234

> <r_mmod_Torsional_Energy-OPLS-2005>
179.850769042969

> <r_mmod_Improper_Torsional_Energy-OPLS-2005>
1.82642924785614

> <r_mmod_Van_der_Waal_Energy-OPLS-2005>
109.60179901123

> <r_mmod_Electrostatic_Energy-OPLS-2005>
-592.103942871094

> <r_mmod_Solvation_Energy-OPLS-2005>
-258.273529052734

> <b_mmod_Minimization_Converged-OPLS-2005>
0

> <r_mmod_RMS_Derivative-OPLS-2005>
0.108917325735092

$$$$
64
                    3D
 Structure written by MMmdl.
161169  0  0  1  0            999 V2000
  -30.8063  -14.4409   20.6560 C   0  0  0  0  0  0
  -30.3939  -12.3157   19.4563 C   0  0  0  0  0  0
  -29.4933  -12.5400   18.2247 C   0  0  0  0  0  0
  -28.0154  -12.3705   18.6153 C   0  0  0  0  0  0
  -27.6528  -13.2080   19.8680 C   0  0  2  0  0  0
  -28.6824  -12.9983   20.9982 C   0  0  0  0  0  0
  -25.2537  -13.8155   20.5658 C   0  0  0  0  0  0
  -24.1800  -13.0431   20.9135 C   0  0  0  0  0  0
  -24.6351  -11.6898   20.8676 C   0  0  0  0  0  0
  -23.9036  -10.4290   21.0364 C   0  0  0  0  0  0
  -24.3592   -9.4234   21.9160 C   0  0  0  0  0  0
  -23.6271   -8.2277   22.0762 C   0  0  0  0  0  0
  -22.4257   -8.0298   21.3546 C   0  0  0  0  0  0
  -21.9875   -9.0265   20.4650 C   0  0  0  0  0  0
  -22.7198  -10.2139   20.3039 C   0  0  0  0  0  0
  -21.6846   -6.0739   22.5280 C   0  0  0  0  0  0
  -21.4028   -6.5644   23.8216 C   0  0  0  0  0  0
  -21.3672   -5.6792   24.9171 C   0  0  0  0  0  0
  -21.6052   -4.3057   24.7216 C   0  0  0  0  0  0
  -21.8813   -3.8150   23.4334 C   0  0  0  0  0  0
  -21.9194   -4.6970   22.3396 C   0  0  0  0  0  0
  -22.7838  -13.5260   21.1830 C   0  0  0  0  0  0
  -22.1656   -4.2157   21.0972 F   0  0  0  0  0  0
  -21.5629   -3.4545   25.7730 F   0  0  0  0  0  0
  -30.0290  -13.3198   20.4819 N   0  0  0  0  0  0
  -26.2947  -12.9320   20.3270 N   0  0  0  0  0  0
  -25.9268  -11.6474   20.5675 N   0  0  0  0  0  0
  -22.0473  -12.8271   22.0393 N   0  0  0  0  0  0
  -25.4241  -15.1880   20.4165 N   0  0  0  0  0  0
  -31.8838  -14.5311   20.0528 O   0  0  0  0  0  0
  -21.6637   -6.8881   21.4240 O   0  0  0  0  0  0
  -22.3546  -14.5583   20.6694 O   0  0  0  0  0  0
  -24.6126  -31.8701   23.2104 C   0  0  0  0  0  0
  -25.9051  -32.4813   23.8400 C   0  0  1  0  0  0
  -27.2510  -27.4492   20.0950 C   0  0  0  0  0  0
  -25.5966  -33.8616   24.2346 N   0  0  0  0  0  0
  -23.3981  -30.4900   21.5485 C   0  0  2  0  0  0
  -24.8493  -28.9559   20.1187 C   0  0  0  0  0  0
  -22.7391  -29.4638   22.4989 C   0  0  0  0  0  0
  -18.0254  -28.1399   22.8496 C   0  0  0  0  0  0
  -24.1485  -36.7215   23.2643 C   0  0  0  0  0  0
  -25.9275  -30.8410   21.3604 C   0  0  0  0  0  0
  -26.0074  -29.4754   20.7070 C   0  0  0  0  0  0
  -27.2061  -28.7321   20.6879 C   0  0  0  0  0  0
  -26.0669  -26.9324   19.5180 C   0  0  0  0  0  0
  -24.8731  -27.6830   19.5241 C   0  0  0  0  0  0
  -23.6091  -29.8191   20.1631 C   0  0  0  0  0  0
  -25.4132  -36.3090   24.0339 C   0  0  1  0  0  0
  -20.5842  -28.3640   23.1346 C   0  0  2  0  0  0
  -20.6739  -26.9386   22.5414 C   0  0  0  0  0  0
  -19.5737  -26.6398   21.5204 C   0  0  0  0  0  0
  -18.1915  -26.7954   22.1614 C   0  0  0  0  0  0
  -19.1503  -28.8839   23.2909 C   0  0  0  0  0  0
  -18.9453  -30.1460   23.8895 C   0  0  0  0  0  0
  -17.6464  -30.6609   24.0580 C   0  0  0  0  0  0
  -25.9088  -34.9466   23.5126 C   0  0  0  0  0  0
  -16.5342  -29.9141   23.6332 C   0  0  0  0  0  0
  -16.7239  -28.6550   23.0345 C   0  0  0  0  0  0
  -26.4499  -31.6559   25.0715 C   0  0  0  0  0  0
  -25.3781  -31.3609   26.1463 C   0  0  0  0  0  0
  -27.0306  -30.3018   24.6058 C   0  0  0  0  0  0
  -27.6088  -32.4228   25.7512 C   0  0  0  0  0  0
  -27.5579  -37.1772   24.8505 C   0  0  0  0  0  0
  -21.4117  -29.2995   22.3747 N   0  0  0  0  0  0
  -26.4307  -37.3791   23.9435 N   0  0  0  0  0  0
  -24.6629  -31.0854   22.0965 N   0  0  0  0  0  0
  -23.4166  -28.8173   23.3023 O   0  0  0  0  0  0
  -28.4706  -26.7992   20.0946 O   0  0  0  0  0  0
  -26.5622  -34.8928   22.4668 O   0  0  0  0  0  0
  -23.5319  -32.1398   23.7535 O   0  0  0  0  0  0
  -30.3551  -18.7805   22.6159 C   0  0  0  0  0  0
  -29.9595  -18.8911   20.2265 C   0  0  0  0  0  0
  -29.8311  -20.0814   22.7618 C   0  0  0  0  0  0
  -29.4581  -20.2037   20.3721 C   0  0  0  0  0  0
  -30.4165  -18.1624   21.3494 C   0  0  0  0  0  0
  -29.3796  -20.8229   21.6444 C   0  0  0  0  0  0
  -27.8668  -22.2685   22.8739 C   0  0  0  0  0  0
  -29.6876  -15.4497   22.6520 C   0  0  0  0  0  0
  -31.1228  -16.8134   21.1668 C   0  0  0  0  0  0
  -28.6103  -24.5288   21.0262 C   0  0  0  0  0  0
  -28.8306  -23.0368   20.6670 C   0  0  0  0  0  0
  -28.5950  -25.4140   19.7657 C   0  0  0  0  0  0
  -28.8804  -22.1354   21.8249 N   0  0  0  0  0  0
  -30.3634  -15.5365   21.3509 N   0  0  0  0  0  0
  -31.4424  -12.3557   19.1590 H   0  0  0  0  0  0
  -30.2572  -11.3061   19.8494 H   0  0  0  0  0  0
  -29.7605  -11.8459   17.4269 H   0  0  0  0  0  0
  -29.6513  -13.5433   17.8228 H   0  0  0  0  0  0
  -27.8399  -11.3109   18.8084 H   0  0  0  0  0  0
  -27.3697  -12.6390   17.7778 H   0  0  0  0  0  0
  -27.6930  -14.2565   19.5726 H   0  0  0  0  0  0
  -28.6581  -11.9598   21.3338 H   0  0  0  0  0  0
  -28.3640  -13.5543   21.8690 H   0  0  0  0  0  0
  -25.2735   -9.5730   22.4723 H   0  0  0  0  0  0
  -23.9989   -7.4674   22.7481 H   0  0  0  0  0  0
  -21.0814   -8.8765   19.8956 H   0  0  0  0  0  0
  -22.3637  -10.9672   19.6147 H   0  0  0  0  0  0
  -21.2030   -7.6150   23.9720 H   0  0  0  0  0  0
  -21.1500   -6.0519   25.9072 H   0  0  0  0  0  0
  -22.0579   -2.7617   23.2825 H   0  0  0  0  0  0
  -22.4045  -11.9916   22.4769 H   0  0  0  0  0  0
  -21.1107  -13.1343   22.2595 H   0  0  0  0  0  0
  -24.6580  -15.8404   20.5457 H   0  0  0  0  0  0
  -26.2936  -15.6425   20.1644 H   0  0  0  0  0  0
  -26.7126  -32.5500   23.1163 H   0  0  0  0  0  0
  -25.0205  -33.9799   25.0558 H   0  0  0  0  0  0
  -22.6835  -31.3017   21.4047 H   0  0  0  0  0  0
  -23.3809  -35.9486   23.3377 H   0  0  0  0  0  0
  -24.3574  -36.8749   22.2045 H   0  0  0  0  0  0
  -23.7186  -37.6419   23.6595 H   0  0  0  0  0  0
  -26.0608  -31.6109   20.5985 H   0  0  0  0  0  0
  -26.8091  -30.8833   21.9857 H   0  0  0  0  0  0
  -28.1011  -29.1419   21.1325 H   0  0  0  0  0  0
  -26.0271  -25.9608   19.0518 H   0  0  0  0  0  0
  -23.9777  -27.2737   19.0767 H   0  0  0  0  0  0
  -23.7156  -30.5876   19.3975 H   0  0  0  0  0  0
  -22.7354  -29.2365   19.8651 H   0  0  0  0  0  0
  -25.1324  -36.1941   25.0833 H   0  0  0  0  0  0
  -20.9929  -28.3199   24.1469 H   0  0  0  0  0  0
  -20.5683  -26.2223   23.3574 H   0  0  0  0  0  0
  -21.6618  -26.7467   22.1208 H   0  0  0  0  0  0
  -19.6907  -25.6327   21.1213 H   0  0  0  0  0  0
  -19.6721  -27.3236   20.6760 H   0  0  0  0  0  0
  -17.4182  -26.6664   21.4016 H   0  0  0  0  0  0
  -18.0325  -26.0094   22.9013 H   0  0  0  0  0  0
  -19.7923  -30.7272   24.2255 H   0  0  0  0  0  0
  -17.5030  -31.6302   24.5183 H   0  0  0  0  0  0
  -15.5356  -30.3077   23.7672 H   0  0  0  0  0  0
  -15.8599  -28.0912   22.7064 H   0  0  0  0  0  0
  -24.5991  -30.6939   25.7787 H   0  0  0  0  0  0
  -24.8931  -32.2713   26.4962 H   0  0  0  0  0  0
  -25.8175  -30.8730   27.0170 H   0  0  0  0  0  0
  -26.2792  -29.6810   24.1166 H   0  0  0  0  0  0
  -27.4159  -29.7247   25.4476 H   0  0  0  0  0  0
  -27.8631  -30.4378   23.9156 H   0  0  0  0  0  0
  -27.2763  -33.3526   26.2145 H   0  0  0  0  0  0
  -28.3935  -32.6789   25.0379 H   0  0  0  0  0  0
  -28.0734  -31.8285   26.5410 H   0  0  0  0  0  0
  -28.2662  -38.0017   24.7568 H   0  0  0  0  0  0
  -28.1012  -36.2560   24.6325 H   0  0  0  0  0  0
  -27.2279  -37.1422   25.8907 H   0  0  0  0  0  0
  -20.9265  -29.8620   21.6898 H   0  0  0  0  0  0
  -26.0186  -38.2857   24.1474 H   0  0  0  0  0  0
  -30.7436  -18.2769   23.4888 H   0  0  0  0  0  0
  -30.0321  -18.4728   19.2321 H   0  0  0  0  0  0
  -29.8052  -20.5196   23.7487 H   0  0  0  0  0  0
  -29.1396  -20.7236   19.4822 H   0  0  0  0  0  0
  -27.4389  -21.3103   23.1725 H   0  0  0  0  0  0
  -27.0316  -22.8851   22.5437 H   0  0  0  0  0  0
  -28.2963  -22.7425   23.7559 H   0  0  0  0  0  0
  -29.8628  -14.4913   23.1442 H   0  0  0  0  0  0
  -28.6157  -15.6159   22.5369 H   0  0  0  0  0  0
  -30.0415  -16.1980   23.3540 H   0  0  0  0  0  0
  -31.9780  -16.7963   21.8453 H   0  0  0  0  0  0
  -31.5529  -16.8680   20.1636 H   0  0  0  0  0  0
  -29.4025  -24.8670   21.6973 H   0  0  0  0  0  0
  -27.6734  -24.6751   21.5629 H   0  0  0  0  0  0
  -29.7715  -22.9527   20.1178 H   0  0  0  0  0  0
  -28.0473  -22.7043   19.9844 H   0  0  0  0  0  0
  -27.8687  -25.0565   19.0387 H   0  0  0  0  0  0
  -29.5583  -25.3080   19.2670 H   0  0  0  0  0  0
  1 25  1  0  0  0
  1 30  2  0  0  0
  1 84  1  0  0  0
  2  3  1  0  0  0
  2 25  1  0  0  0
  2 85  1  0  0  0
  2 86  1  0  0  0
  3  4  1  0  0  0
  3 87  1  0  0  0
  3 88  1  0  0  0
  4  5  1  0  0  0
  4 89  1  0  0  0
  4 90  1  0  0  0
  5  6  1  0  0  0
  5 26  1  0  0  0
  5 91  1  0  0  0
  6 25  1  0  0  0
  6 92  1  0  0  0
  6 93  1  0  0  0
  7  8  2  0  0  0
  7 26  1  0  0  0
  7 29  1  0  0  0
  8  9  1  0  0  0
  8 22  1  0  0  0
  9 10  1  0  0  0
  9 27  2  0  0  0
 10 11  2  0  0  0
 10 15  1  0  0  0
 11 12  1  0  0  0
 11 94  1  0  0  0
 12 13  2  0  0  0
 12 95  1  0  0  0
 13 14  1  0  0  0
 13 31  1  0  0  0
 14 15  2  0  0  0
 14 96  1  0  0  0
 15 97  1  0  0  0
 16 17  2  0  0  0
 16 21  1  0  0  0
 16 31  1  0  0  0
 17 18  1  0  0  0
 17 98  1  0  0  0
 18 19  2  0  0  0
 18 99  1  0  0  0
 19 20  1  0  0  0
 19 24  1  0  0  0
 20 21  2  0  0  0
 20100  1  0  0  0
 21 23  1  0  0  0
 22 28  1  0  0  0
 22 32  2  0  0  0
 26 27  1  0  0  0
 28101  1  0  0  0
 28102  1  0  0  0
 29103  1  0  0  0
 29104  1  0  0  0
 33 34  1  0  0  0
 33 66  1  0  0  0
 33 70  2  0  0  0
 34 36  1  0  0  0
 34 59  1  0  0  0
 34105  1  0  0  0
 35 44  2  0  0  0
 35 45  1  0  0  0
 35 68  1  0  0  0
 36 56  1  0  0  0
 36106  1  0  0  0
 37 39  1  0  0  0
 37 47  1  0  0  0
 37 66  1  0  0  0
 37107  1  0  0  0
 38 43  2  0  0  0
 38 46  1  0  0  0
 38 47  1  0  0  0
 39 64  1  0  0  0
 39 67  2  0  0  0
 40 52  1  0  0  0
 40 53  2  0  0  0
 40 58  1  0  0  0
 41108  1  0  0  0
 41109  1  0  0  0
 41110  1  0  0  0
 41 48  1  0  0  0
 42 43  1  0  0  0
 42 66  1  0  0  0
 42111  1  0  0  0
 42112  1  0  0  0
 43 44  1  0  0  0
 44113  1  0  0  0
 45 46  2  0  0  0
 45114  1  0  0  0
 46115  1  0  0  0
 47116  1  0  0  0
 47117  1  0  0  0
 48 56  1  0  0  0
 48 65  1  0  0  0
 48118  1  0  0  0
 49 50  1  0  0  0
 49 53  1  0  0  0
 49 64  1  0  0  0
 49119  1  0  0  0
 50 51  1  0  0  0
 50120  1  0  0  0
 50121  1  0  0  0
 51 52  1  0  0  0
 51122  1  0  0  0
 51123  1  0  0  0
 52124  1  0  0  0
 52125  1  0  0  0
 53 54  1  0  0  0
 54 55  2  0  0  0
 54126  1  0  0  0
 55 57  1  0  0  0
 55127  1  0  0  0
 56 69  2  0  0  0
 57 58  2  0  0  0
 57128  1  0  0  0
 58129  1  0  0  0
 59 60  1  0  0  0
 59 61  1  0  0  0
 59 62  1  0  0  0
 60130  1  0  0  0
 60131  1  0  0  0
 60132  1  0  0  0
 61133  1  0  0  0
 61134  1  0  0  0
 61135  1  0  0  0
 62136  1  0  0  0
 62137  1  0  0  0
 62138  1  0  0  0
 63 65  1  0  0  0
 63139  1  0  0  0
 63140  1  0  0  0
 63141  1  0  0  0
 64142  1  0  0  0
 65143  1  0  0  0
 68 82  1  0  0  0
 71 73  2  0  0  0
 71 75  1  0  0  0
 71144  1  0  0  0
 72 74  1  0  0  0
 72 75  2  0  0  0
 72145  1  0  0  0
 73 76  1  0  0  0
 73146  1  0  0  0
 74 76  2  0  0  0
 74147  1  0  0  0
 75 79  1  0  0  0
 76 83  1  0  0  0
 77 83  1  0  0  0
 77148  1  0  0  0
 77149  1  0  0  0
 77150  1  0  0  0
 78 84  1  0  0  0
 78151  1  0  0  0
 78152  1  0  0  0
 78153  1  0  0  0
 79 84  1  0  0  0
 79154  1  0  0  0
 79155  1  0  0  0
 80 81  1  0  0  0
 80 82  1  0  0  0
 80156  1  0  0  0
 80157  1  0  0  0
 81 83  1  0  0  0
 81158  1  0  0  0
 81159  1  0  0  0
 82160  1  0  0  0
 82161  1  0  0  0
M  ISO  4   1 100  68 101  82 101  84 100
M  END
> <chiral flag>
0

> <version>
0

> <s_m_source_file>
/data/baiqing/PycharmProjects/Reinvent-master-3.2/result/LINK_invent/BTK/process_docking_weight1_custom_product_contain_oxygen_bond_distance_aromatic_linkinvent_7_9_3/rearranged_h_0017.sdf

> <i_m_source_file_index>
64

> <r_mmod_Potential_Energy-OPLS-2005>
100.385414123535

> <r_mmod_Stretch_Energy-OPLS-2005>
46.212100982666

> <r_mmod_Bend_Energy-OPLS-2005>
142.126251220703

> <r_mmod_Torsional_Energy-OPLS-2005>
238.704498291016

> <r_mmod_Improper_Torsional_Energy-OPLS-2005>
7.92415904998779

> <r_mmod_Van_der_Waal_Energy-OPLS-2005>
180.791030883789

> <r_mmod_Electrostatic_Energy-OPLS-2005>
-317.921661376953

> <r_mmod_Solvation_Energy-OPLS-2005>
-212.284820556641

> <b_mmod_Minimization_Converged-OPLS-2005>
0

> <r_mmod_RMS_Derivative-OPLS-2005>
4.60344171524048

$$$$
65
                    3D
 Structure written by MMmdl.
166175  0  0  1  0            999 V2000
  -30.6576  -14.5397   20.3956 C   0  0  0  0  0  0
  -30.4315  -12.2953   19.4393 C   0  0  0  0  0  0
  -29.5024  -12.4032   18.2116 C   0  0  0  0  0  0
  -28.0152  -12.3199   18.6213 C   0  0  0  0  0  0
  -27.6491  -13.1976   19.8503 C   0  0  2  0  0  0
  -28.7039  -13.0741   20.9737 C   0  0  0  0  0  0
  -25.2566  -13.8154   20.5646 C   0  0  0  0  0  0
  -24.1815  -13.0432   20.9182 C   0  0  0  0  0  0
  -24.6371  -11.6909   20.8756 C   0  0  0  0  0  0
  -23.9043  -10.4292   21.0430 C   0  0  0  0  0  0
  -24.3604   -9.4215   21.9196 C   0  0  0  0  0  0
  -23.6287   -8.2247   22.0762 C   0  0  0  0  0  0
  -22.4278   -8.0284   21.3537 C   0  0  0  0  0  0
  -21.9908   -9.0254   20.4642 C   0  0  0  0  0  0
  -22.7227  -10.2139   20.3066 C   0  0  0  0  0  0
  -21.6867   -6.0749   22.5277 C   0  0  0  0  0  0
  -21.4023   -6.5645   23.8214 C   0  0  0  0  0  0
  -21.3652   -5.6792   24.9171 C   0  0  0  0  0  0
  -21.6047   -4.3059   24.7224 C   0  0  0  0  0  0
  -21.8814   -3.8153   23.4341 C   0  0  0  0  0  0
  -21.9192   -4.6973   22.3394 C   0  0  0  0  0  0
  -22.7831  -13.5230   21.1827 C   0  0  0  0  0  0
  -22.1654   -4.2160   21.0966 F   0  0  0  0  0  0
  -21.5633   -3.4530   25.7733 F   0  0  0  0  0  0
  -30.0231  -13.3381   20.3859 N   0  0  0  0  0  0
  -26.2975  -12.9282   20.3304 N   0  0  0  0  0  0
  -25.9298  -11.6473   20.5800 N   0  0  0  0  0  0
  -22.0472  -12.8221   22.0393 N   0  0  0  0  0  0
  -25.4308  -15.1866   20.4018 N   0  0  0  0  0  0
  -31.8743  -14.6609   20.2359 O   0  0  0  0  0  0
  -21.6630   -6.8889   21.4239 O   0  0  0  0  0  0
  -22.3514  -14.5549   20.6702 O   0  0  0  0  0  0
  -24.6157  -31.8695   23.2122 C   0  0  0  0  0  0
  -25.9076  -32.4816   23.8400 C   0  0  1  0  0  0
  -27.2344  -27.4453   20.0672 C   0  0  0  0  0  0
  -25.5946  -33.8616   24.2334 N   0  0  0  0  0  0
  -23.4019  -30.4954   21.5542 C   0  0  2  0  0  0
  -24.8432  -28.9579   20.1193 C   0  0  0  0  0  0
  -22.7411  -29.4678   22.5012 C   0  0  0  0  0  0
  -18.0278  -28.1373   22.8513 C   0  0  0  0  0  0
  -24.1489  -36.7290   23.2640 C   0  0  0  0  0  0
  -25.9326  -30.8308   21.3705 C   0  0  0  0  0  0
  -26.0049  -29.4673   20.7131 C   0  0  0  0  0  0
  -27.2004  -28.7140   20.6915 C   0  0  0  0  0  0
  -26.0418  -26.9312   19.5103 C   0  0  0  0  0  0
  -24.8534  -27.6836   19.5255 C   0  0  0  0  0  0
  -23.6078  -29.8284   20.1685 C   0  0  0  0  0  0
  -25.4123  -36.3103   24.0336 C   0  0  1  0  0  0
  -20.5868  -28.3671   23.1313 C   0  0  2  0  0  0
  -20.6773  -26.9412   22.5413 C   0  0  0  0  0  0
  -19.5745  -26.6383   21.5227 C   0  0  0  0  0  0
  -18.1919  -26.7921   22.1635 C   0  0  0  0  0  0
  -19.1525  -28.8843   23.2908 C   0  0  0  0  0  0
  -18.9452  -30.1462   23.8902 C   0  0  0  0  0  0
  -17.6455  -30.6592   24.0573 C   0  0  0  0  0  0
  -25.9066  -34.9467   23.5124 C   0  0  0  0  0  0
  -16.5350  -29.9090   23.6339 C   0  0  0  0  0  0
  -16.7266  -28.6503   23.0368 C   0  0  0  0  0  0
  -26.4508  -31.6607   25.0735 C   0  0  0  0  0  0
  -25.3769  -31.3724   26.1481 C   0  0  0  0  0  0
  -27.0363  -30.3039   24.6153 C   0  0  0  0  0  0
  -27.6071  -32.4348   25.7497 C   0  0  0  0  0  0
  -27.5582  -37.1806   24.8471 C   0  0  0  0  0  0
  -21.4145  -29.3043   22.3724 N   0  0  0  0  0  0
  -26.4305  -37.3787   23.9406 N   0  0  0  0  0  0
  -24.6680  -31.0796   22.1028 N   0  0  0  0  0  0
  -23.4176  -28.8227   23.3063 O   0  0  0  0  0  0
  -28.4200  -26.7389   20.0368 O   0  0  0  0  0  0
  -26.5599  -34.8918   22.4661 O   0  0  0  0  0  0
  -23.5355  -32.1450   23.7529 O   0  0  0  0  0  0
  -29.0928  -22.1373   18.3169 C   0  0  0  0  0  0
  -29.2654  -22.5322   20.7076 C   0  0  0  0  0  0
  -28.8439  -23.5085   18.1057 C   0  0  0  0  0  0
  -29.0252  -23.9122   20.4929 C   0  0  0  0  0  0
  -29.3178  -21.6312   19.6166 C   0  0  0  0  0  0
  -28.8275  -24.4140   19.1867 C   0  0  0  0  0  0
  -29.4749  -17.4061   18.4770 C   0  0  0  0  0  0
  -29.7671  -15.9123   18.5912 C   0  0  0  0  0  0
  -29.6541  -16.8216   20.7867 C   0  0  0  0  0  0
  -28.8405  -17.7224   19.8316 C   0  0  1  0  0  0
  -26.7725  -19.4962   18.4719 C   0  0  0  0  0  0
  -29.7006  -20.1469   19.7944 C   0  0  0  0  0  0
  -28.6803  -25.9088   18.8936 C   0  0  0  0  0  0
  -27.2244  -19.6227   19.9406 C   0  0  0  0  0  0
  -29.8472  -15.5681   20.0268 N   0  0  0  0  0  0
  -28.6264  -19.1731   20.1965 N   0  3  1  0  0  0
  -31.4743  -12.4006   19.1336 H   0  0  0  0  0  0
  -30.3446  -11.3127   19.9063 H   0  0  0  0  0  0
  -29.7288  -11.6001   17.5083 H   0  0  0  0  0  0
  -29.6992  -13.3240   17.6671 H   0  0  0  0  0  0
  -27.8057  -11.2736   18.8456 H   0  0  0  0  0  0
  -27.3788  -12.5754   17.7716 H   0  0  0  0  0  0
  -27.6470  -14.2251   19.4994 H   0  0  0  0  0  0
  -28.6850  -12.0802   21.4239 H   0  0  0  0  0  0
  -28.4908  -13.7851   21.7741 H   0  0  0  0  0  0
  -25.2771   -9.5699   22.4729 H   0  0  0  0  0  0
  -24.0016   -7.4655   22.7479 H   0  0  0  0  0  0
  -21.0847   -8.8777   19.8937 H   0  0  0  0  0  0
  -22.3710  -10.9672   19.6158 H   0  0  0  0  0  0
  -21.2023   -7.6153   23.9709 H   0  0  0  0  0  0
  -21.1473   -6.0528   25.9066 H   0  0  0  0  0  0
  -22.0600   -2.7615   23.2838 H   0  0  0  0  0  0
  -22.4092  -11.9891   22.4786 H   0  0  0  0  0  0
  -21.1077  -13.1246   22.2590 H   0  0  0  0  0  0
  -24.6657  -15.8461   20.4922 H   0  0  0  0  0  0
  -26.2855  -15.6103   20.0711 H   0  0  0  0  0  0
  -26.7145  -32.5520   23.1161 H   0  0  0  0  0  0
  -25.0171  -33.9788   25.0533 H   0  0  0  0  0  0
  -22.6913  -31.3120   21.4172 H   0  0  0  0  0  0
  -23.3768  -35.9601   23.3298 H   0  0  0  0  0  0
  -24.3575  -36.8909   22.2053 H   0  0  0  0  0  0
  -23.7220  -37.6483   23.6659 H   0  0  0  0  0  0
  -26.0612  -31.6028   20.6107 H   0  0  0  0  0  0
  -26.8141  -30.8680   21.9981 H   0  0  0  0  0  0
  -28.1005  -29.1138   21.1377 H   0  0  0  0  0  0
  -26.0148  -25.9443   19.0723 H   0  0  0  0  0  0
  -23.9543  -27.2730   19.0870 H   0  0  0  0  0  0
  -23.7184  -30.6042   19.4101 H   0  0  0  0  0  0
  -22.7304  -29.2506   19.8723 H   0  0  0  0  0  0
  -25.1304  -36.1966   25.0830 H   0  0  0  0  0  0
  -20.9966  -28.3240   24.1432 H   0  0  0  0  0  0
  -20.5714  -26.2290   23.3604 H   0  0  0  0  0  0
  -21.6634  -26.7476   22.1188 H   0  0  0  0  0  0
  -19.6912  -25.6298   21.1248 H   0  0  0  0  0  0
  -19.6666  -27.3201   20.6759 H   0  0  0  0  0  0
  -17.4201  -26.6710   21.4015 H   0  0  0  0  0  0
  -18.0296  -26.0040   22.9001 H   0  0  0  0  0  0
  -19.7926  -30.7289   24.2244 H   0  0  0  0  0  0
  -17.5008  -31.6259   24.5194 H   0  0  0  0  0  0
  -15.5354  -30.3007   23.7637 H   0  0  0  0  0  0
  -15.8666  -28.0829   22.7076 H   0  0  0  0  0  0
  -24.5904  -30.7127   25.7799 H   0  0  0  0  0  0
  -24.9024  -32.2900   26.4968 H   0  0  0  0  0  0
  -25.8119  -30.8836   27.0208 H   0  0  0  0  0  0
  -26.2920  -29.6753   24.1251 H   0  0  0  0  0  0
  -27.4163  -29.7332   25.4641 H   0  0  0  0  0  0
  -27.8742  -30.4339   23.9295 H   0  0  0  0  0  0
  -27.2685  -33.3661   26.2044 H   0  0  0  0  0  0
  -28.3896  -32.6887   25.0336 H   0  0  0  0  0  0
  -28.0717  -31.8492   26.5438 H   0  0  0  0  0  0
  -28.2616  -38.0087   24.7523 H   0  0  0  0  0  0
  -28.1065  -36.2620   24.6317 H   0  0  0  0  0  0
  -27.2285  -37.1489   25.8869 H   0  0  0  0  0  0
  -20.9315  -29.8757   21.6933 H   0  0  0  0  0  0
  -26.0189  -38.2862   24.1398 H   0  0  0  0  0  0
  -29.1385  -21.4810   17.4571 H   0  0  0  0  0  0
  -29.4425  -22.1812   21.7158 H   0  0  0  0  0  0
  -28.7020  -23.8689   17.0960 H   0  0  0  0  0  0
  -29.0191  -24.5925   21.3335 H   0  0  0  0  0  0
  -28.8328  -17.6416   17.6272 H   0  0  0  0  0  0
  -30.4343  -17.8992   18.3289 H   0  0  0  0  0  0
  -30.6852  -15.6634   18.0521 H   0  0  0  0  0  0
  -28.9572  -15.3602   18.1173 H   0  0  0  0  0  0
  -29.1233  -16.6308   21.7200 H   0  0  0  0  0  0
  -30.6236  -17.2653   21.0249 H   0  0  0  0  0  0
  -27.8500  -17.2625   19.8197 H   0  0  0  0  0  0
  -25.8400  -20.0387   18.3125 H   0  0  0  0  0  0
  -26.5920  -18.4578   18.1955 H   0  0  0  0  0  0
  -27.5037  -19.8995   17.7747 H   0  0  0  0  0  0
  -30.5219  -20.0705   20.5073 H   0  0  0  0  0  0
  -30.1315  -19.8739   18.8370 H   0  0  0  0  0  0
  -27.9708  -26.0558   18.0780 H   0  0  0  0  0  0
  -29.6319  -26.2439   18.4801 H   0  0  0  0  0  0
  -26.5514  -19.0306   20.5616 H   0  0  0  0  0  0
  -27.0730  -20.6435   20.2907 H   0  0  0  0  0  0
  -28.6705  -19.1890   21.2047 H   0  0  0  0  0  0
  1 25  1  0  0  0
  1 30  2  0  0  0
  1 85  1  0  0  0
  2  3  1  0  0  0
  2 25  1  0  0  0
  2 87  1  0  0  0
  2 88  1  0  0  0
  3  4  1  0  0  0
  3 89  1  0  0  0
  3 90  1  0  0  0
  4  5  1  0  0  0
  4 91  1  0  0  0
  4 92  1  0  0  0
  5  6  1  0  0  0
  5 26  1  0  0  0
  5 93  1  0  0  0
  6 25  1  0  0  0
  6 94  1  0  0  0
  6 95  1  0  0  0
  7  8  2  0  0  0
  7 26  1  0  0  0
  7 29  1  0  0  0
  8  9  1  0  0  0
  8 22  1  0  0  0
  9 10  1  0  0  0
  9 27  2  0  0  0
 10 11  2  0  0  0
 10 15  1  0  0  0
 11 12  1  0  0  0
 11 96  1  0  0  0
 12 13  2  0  0  0
 12 97  1  0  0  0
 13 14  1  0  0  0
 13 31  1  0  0  0
 14 15  2  0  0  0
 14 98  1  0  0  0
 15 99  1  0  0  0
 16 17  2  0  0  0
 16 21  1  0  0  0
 16 31  1  0  0  0
 17 18  1  0  0  0
 17100  1  0  0  0
 18 19  2  0  0  0
 18101  1  0  0  0
 19 20  1  0  0  0
 19 24  1  0  0  0
 20 21  2  0  0  0
 20102  1  0  0  0
 21 23  1  0  0  0
 22 28  1  0  0  0
 22 32  2  0  0  0
 26 27  1  0  0  0
 28103  1  0  0  0
 28104  1  0  0  0
 29105  1  0  0  0
 29106  1  0  0  0
 33 34  1  0  0  0
 33 66  1  0  0  0
 33 70  2  0  0  0
 34 36  1  0  0  0
 34 59  1  0  0  0
 34107  1  0  0  0
 35 44  2  0  0  0
 35 45  1  0  0  0
 35 68  1  0  0  0
 36 56  1  0  0  0
 36108  1  0  0  0
 37 39  1  0  0  0
 37 47  1  0  0  0
 37 66  1  0  0  0
 37109  1  0  0  0
 38 43  2  0  0  0
 38 46  1  0  0  0
 38 47  1  0  0  0
 39 64  1  0  0  0
 39 67  2  0  0  0
 40 52  1  0  0  0
 40 53  2  0  0  0
 40 58  1  0  0  0
 41110  1  0  0  0
 41111  1  0  0  0
 41112  1  0  0  0
 41 48  1  0  0  0
 42 43  1  0  0  0
 42 66  1  0  0  0
 42113  1  0  0  0
 42114  1  0  0  0
 43 44  1  0  0  0
 44115  1  0  0  0
 45 46  2  0  0  0
 45116  1  0  0  0
 46117  1  0  0  0
 47118  1  0  0  0
 47119  1  0  0  0
 48 56  1  0  0  0
 48 65  1  0  0  0
 48120  1  0  0  0
 49 50  1  0  0  0
 49 53  1  0  0  0
 49 64  1  0  0  0
 49121  1  0  0  0
 50 51  1  0  0  0
 50122  1  0  0  0
 50123  1  0  0  0
 51 52  1  0  0  0
 51124  1  0  0  0
 51125  1  0  0  0
 52126  1  0  0  0
 52127  1  0  0  0
 53 54  1  0  0  0
 54 55  2  0  0  0
 54128  1  0  0  0
 55 57  1  0  0  0
 55129  1  0  0  0
 56 69  2  0  0  0
 57 58  2  0  0  0
 57130  1  0  0  0
 58131  1  0  0  0
 59 60  1  0  0  0
 59 61  1  0  0  0
 59 62  1  0  0  0
 60132  1  0  0  0
 60133  1  0  0  0
 60134  1  0  0  0
 61135  1  0  0  0
 61136  1  0  0  0
 61137  1  0  0  0
 62138  1  0  0  0
 62139  1  0  0  0
 62140  1  0  0  0
 63 65  1  0  0  0
 63141  1  0  0  0
 63142  1  0  0  0
 63143  1  0  0  0
 64144  1  0  0  0
 65145  1  0  0  0
 68 83  1  0  0  0
 71 73  2  0  0  0
 71 75  1  0  0  0
 71146  1  0  0  0
 72 74  1  0  0  0
 72 75  2  0  0  0
 72147  1  0  0  0
 73 76  1  0  0  0
 73148  1  0  0  0
 74 76  2  0  0  0
 74149  1  0  0  0
 75 82  1  0  0  0
 76 83  1  0  0  0
 77 78  1  0  0  0
 77150  1  0  0  0
 77151  1  0  0  0
 77 80  1  0  0  0
 78 85  1  0  0  0
 78152  1  0  0  0
 78153  1  0  0  0
 79 80  1  0  0  0
 79 85  1  0  0  0
 79154  1  0  0  0
 79155  1  0  0  0
 80 86  1  0  0  0
 80156  1  0  0  0
 81 84  1  0  0  0
 81157  1  0  0  0
 81158  1  0  0  0
 81159  1  0  0  0
 82160  1  0  0  0
 82161  1  0  0  0
 82 86  1  0  0  0
 83162  1  0  0  0
 83163  1  0  0  0
 84 86  1  0  0  0
 84164  1  0  0  0
 84165  1  0  0  0
 86166  1  0  0  0
M  CHG  1  86   1
M  ISO  4   1 100  68 101  83 101  85 100
M  END
> <chiral flag>
0

> <version>
0

> <s_m_source_file>
/data/baiqing/PycharmProjects/Reinvent-master-3.2/result/LINK_invent/BTK/process_docking_weight1_custom_product_contain_oxygen_bond_distance_aromatic_linkinvent_7_9_3/rearranged_h_0017.sdf

> <i_m_source_file_index>
65

> <r_mmod_Potential_Energy-OPLS-2005>
167.479263305664

> <r_mmod_Stretch_Energy-OPLS-2005>
43.3038330078125

> <r_mmod_Bend_Energy-OPLS-2005>
150.202209472656

> <r_mmod_Torsional_Energy-OPLS-2005>
378.22412109375

> <r_mmod_Improper_Torsional_Energy-OPLS-2005>
21.5014114379883

> <r_mmod_Van_der_Waal_Energy-OPLS-2005>
151.151794433594

> <r_mmod_Electrostatic_Energy-OPLS-2005>
-171.146041870117

> <r_mmod_Solvation_Energy-OPLS-2005>
-435.903564453125

> <b_mmod_Minimization_Converged-OPLS-2005>
0

> <r_mmod_RMS_Derivative-OPLS-2005>
2.7930588722229

$$$$
66
                    3D
 Structure written by MMmdl.
155163  0  0  1  0            999 V2000
  -30.6136  -14.7371   20.3586 C   0  0  0  0  0  0
  -30.4373  -12.4190   19.4596 C   0  0  0  0  0  0
  -29.4956  -12.3662   18.2330 C   0  0  0  0  0  0
  -28.0177  -12.2788   18.6564 C   0  0  0  0  0  0
  -27.6368  -13.2203   19.8311 C   0  0  2  0  0  0
  -28.6920  -13.1961   20.9550 C   0  0  0  0  0  0
  -25.2542  -13.8195   20.5717 C   0  0  0  0  0  0
  -24.1812  -13.0457   20.9226 C   0  0  0  0  0  0
  -24.6381  -11.6928   20.8788 C   0  0  0  0  0  0
  -23.9055  -10.4304   21.0433 C   0  0  0  0  0  0
  -24.3608   -9.4213   21.9200 C   0  0  0  0  0  0
  -23.6291   -8.2243   22.0757 C   0  0  0  0  0  0
  -22.4275   -8.0278   21.3544 C   0  0  0  0  0  0
  -21.9915   -9.0257   20.4649 C   0  0  0  0  0  0
  -22.7235  -10.2141   20.3071 C   0  0  0  0  0  0
  -21.6852   -6.0740   22.5281 C   0  0  0  0  0  0
  -21.4011   -6.5647   23.8214 C   0  0  0  0  0  0
  -21.3659   -5.6799   24.9177 C   0  0  0  0  0  0
  -21.6041   -4.3061   24.7226 C   0  0  0  0  0  0
  -21.8821   -3.8153   23.4348 C   0  0  0  0  0  0
  -21.9192   -4.6968   22.3404 C   0  0  0  0  0  0
  -22.7834  -13.5246   21.1874 C   0  0  0  0  0  0
  -22.1664   -4.2155   21.0981 F   0  0  0  0  0  0
  -21.5625   -3.4546   25.7738 F   0  0  0  0  0  0
  -29.9814  -13.5168   20.3357 N   0  0  0  0  0  0
  -26.2937  -12.9375   20.3288 N   0  0  0  0  0  0
  -25.9304  -11.6536   20.5826 N   0  0  0  0  0  0
  -22.0479  -12.8226   22.0421 N   0  0  0  0  0  0
  -25.4307  -15.1909   20.4143 N   0  0  0  0  0  0
  -31.8468  -14.7848   20.3163 O   0  0  0  0  0  0
  -21.6638   -6.8876   21.4238 O   0  0  0  0  0  0
  -22.3523  -14.5550   20.6715 O   0  0  0  0  0  0
  -24.6260  -31.8577   23.1992 C   0  0  0  0  0  0
  -25.9103  -32.4770   23.8330 C   0  0  1  0  0  0
  -27.2278  -27.3092   20.1414 C   0  0  0  0  0  0
  -25.5914  -33.8573   24.2261 N   0  0  0  0  0  0
  -23.4198  -30.4774   21.5421 C   0  0  2  0  0  0
  -24.8672  -28.9185   20.1200 C   0  0  0  0  0  0
  -22.7460  -29.4618   22.4946 C   0  0  0  0  0  0
  -18.0281  -28.1380   22.8482 C   0  0  0  0  0  0
  -24.1490  -36.7291   23.2643 C   0  0  0  0  0  0
  -25.9588  -30.7873   21.3674 C   0  0  0  0  0  0
  -26.0344  -29.4098   20.7190 C   0  0  0  0  0  0
  -27.2204  -28.6197   20.7101 C   0  0  0  0  0  0
  -26.0407  -26.8564   19.5337 C   0  0  0  0  0  0
  -24.8725  -27.6481   19.5169 C   0  0  0  0  0  0
  -23.6343  -29.8007   20.1617 C   0  0  0  0  0  0
  -25.4114  -36.3080   24.0327 C   0  0  1  0  0  0
  -20.5881  -28.3681   23.1287 C   0  0  2  0  0  0
  -20.6772  -26.9404   22.5412 C   0  0  0  0  0  0
  -19.5753  -26.6376   21.5213 C   0  0  0  0  0  0
  -18.1929  -26.7925   22.1619 C   0  0  0  0  0  0
  -19.1533  -28.8847   23.2881 C   0  0  0  0  0  0
  -18.9462  -30.1452   23.8890 C   0  0  0  0  0  0
  -17.6464  -30.6583   24.0563 C   0  0  0  0  0  0
  -25.9042  -34.9449   23.5093 C   0  0  0  0  0  0
  -16.5353  -29.9078   23.6339 C   0  0  0  0  0  0
  -16.7268  -28.6497   23.0351 C   0  0  0  0  0  0
  -26.4486  -31.6589   25.0708 C   0  0  0  0  0  0
  -25.3725  -31.3733   26.1440 C   0  0  0  0  0  0
  -27.0334  -30.3019   24.6158 C   0  0  0  0  0  0
  -27.6036  -32.4338   25.7480 C   0  0  0  0  0  0
  -27.5579  -37.1797   24.8465 C   0  0  0  0  0  0
  -21.4175  -29.3038   22.3682 N   0  0  0  0  0  0
  -26.4293  -37.3777   23.9408 N   0  0  0  0  0  0
  -24.6874  -31.0582   22.0938 N   0  0  0  0  0  0
  -23.4181  -28.8175   23.3044 O   0  0  0  0  0  0
  -28.3670  -26.4987   20.1113 O   0  0  0  0  0  0
  -26.5623  -34.8920   22.4667 O   0  0  0  0  0  0
  -23.5424  -32.1370   23.7320 O   0  0  0  0  0  0
  -28.5181  -19.3563   19.5703 C   0  0  0  0  0  0
  -29.8332  -19.2141   21.5635 C   0  0  0  0  0  0
  -28.7625  -17.9716   19.3370 C   0  0  0  0  0  0
  -30.1053  -17.8242   21.3127 C   0  0  0  0  0  0
  -29.0541  -20.0320   20.6894 C   0  0  0  0  0  0
  -29.5953  -17.1534   20.1655 C   0  0  0  0  0  0
  -30.0611  -15.6925   18.2551 C   0  0  0  0  0  0
  -28.1383  -23.8217   19.8849 C   0  0  0  0  0  0
  -29.0888  -22.5259   20.0115 C   0  0  0  0  0  0
  -28.3632  -25.1534   20.7401 C   0  0  0  0  0  0
  -28.7623  -21.4169   20.9677 N   0  0  0  0  0  0
  -29.9233  -15.7700   19.7262 N   0  0  0  0  0  0
  -31.4698  -12.5576   19.1337 H   0  0  0  0  0  0
  -30.4159  -11.4733   20.0030 H   0  0  0  0  0  0
  -29.7459  -11.4958   17.6248 H   0  0  0  0  0  0
  -29.6366  -13.2121   17.5690 H   0  0  0  0  0  0
  -27.8420  -11.2430   18.9490 H   0  0  0  0  0  0
  -27.3667  -12.4611   17.8006 H   0  0  0  0  0  0
  -27.6193  -14.2286   19.4175 H   0  0  0  0  0  0
  -28.7294  -12.2215   21.4431 H   0  0  0  0  0  0
  -28.4461  -13.9292   21.7259 H   0  0  0  0  0  0
  -25.2749   -9.5691   22.4780 H   0  0  0  0  0  0
  -24.0006   -7.4634   22.7472 H   0  0  0  0  0  0
  -21.0853   -8.8774   19.8948 H   0  0  0  0  0  0
  -22.3697  -10.9682   19.6186 H   0  0  0  0  0  0
  -21.2001   -7.6156   23.9722 H   0  0  0  0  0  0
  -21.1476   -6.0528   25.9081 H   0  0  0  0  0  0
  -22.0596   -2.7616   23.2845 H   0  0  0  0  0  0
  -22.4090  -11.9871   22.4778 H   0  0  0  0  0  0
  -21.1099  -13.1254   22.2630 H   0  0  0  0  0  0
  -24.6754  -15.8562   20.5354 H   0  0  0  0  0  0
  -26.2997  -15.6247   20.1280 H   0  0  0  0  0  0
  -26.7167  -32.5435   23.1074 H   0  0  0  0  0  0
  -25.0082  -33.9720   25.0420 H   0  0  0  0  0  0
  -22.7155  -31.2988   21.3938 H   0  0  0  0  0  0
  -23.3754  -35.9626   23.3308 H   0  0  0  0  0  0
  -24.3581  -36.8908   22.2058 H   0  0  0  0  0  0
  -23.7241  -37.6490   23.6665 H   0  0  0  0  0  0
  -26.0865  -31.5454   20.5935 H   0  0  0  0  0  0
  -26.8413  -30.8417   21.9934 H   0  0  0  0  0  0
  -28.1241  -29.0001   21.1644 H   0  0  0  0  0  0
  -26.0188  -25.8805   19.0698 H   0  0  0  0  0  0
  -23.9778  -27.2642   19.0464 H   0  0  0  0  0  0
  -23.7513  -30.5706   19.3989 H   0  0  0  0  0  0
  -22.7552  -29.2262   19.8637 H   0  0  0  0  0  0
  -25.1297  -36.1930   25.0820 H   0  0  0  0  0  0
  -20.9971  -28.3248   24.1411 H   0  0  0  0  0  0
  -20.5681  -26.2283   23.3607 H   0  0  0  0  0  0
  -21.6637  -26.7438   22.1201 H   0  0  0  0  0  0
  -19.6920  -25.6288   21.1236 H   0  0  0  0  0  0
  -19.6699  -27.3190   20.6749 H   0  0  0  0  0  0
  -17.4204  -26.6676   21.4017 H   0  0  0  0  0  0
  -18.0325  -26.0063   22.9007 H   0  0  0  0  0  0
  -19.7942  -30.7266   24.2247 H   0  0  0  0  0  0
  -17.5023  -31.6266   24.5158 H   0  0  0  0  0  0
  -15.5355  -30.2981   23.7671 H   0  0  0  0  0  0
  -15.8664  -28.0818   22.7073 H   0  0  0  0  0  0
  -24.5897  -30.7081   25.7776 H   0  0  0  0  0  0
  -24.8926  -32.2910   26.4857 H   0  0  0  0  0  0
  -25.8052  -30.8920   27.0220 H   0  0  0  0  0  0
  -26.2904  -29.6768   24.1193 H   0  0  0  0  0  0
  -27.4053  -29.7270   25.4648 H   0  0  0  0  0  0
  -27.8757  -30.4315   23.9361 H   0  0  0  0  0  0
  -27.2632  -33.3647   26.2032 H   0  0  0  0  0  0
  -28.3857  -32.6889   25.0315 H   0  0  0  0  0  0
  -28.0697  -31.8490   26.5423 H   0  0  0  0  0  0
  -28.2592  -38.0098   24.7504 H   0  0  0  0  0  0
  -28.1073  -36.2622   24.6294 H   0  0  0  0  0  0
  -27.2294  -37.1441   25.8869 H   0  0  0  0  0  0
  -20.9353  -29.8736   21.6870 H   0  0  0  0  0  0
  -26.0171  -38.2854   24.1403 H   0  0  0  0  0  0
  -27.8822  -19.8928   18.8806 H   0  0  0  0  0  0
  -30.2583  -19.6572   22.4528 H   0  0  0  0  0  0
  -28.2998  -17.5485   18.4577 H   0  0  0  0  0  0
  -30.7450  -17.2926   22.0019 H   0  0  0  0  0  0
  -29.1062  -15.4365   17.7959 H   0  0  0  0  0  0
  -30.8091  -14.9752   17.9125 H   0  0  0  0  0  0
  -30.3970  -16.6378   17.8272 H   0  0  0  0  0  0
  -27.0916  -23.5218   19.9449 H   0  0  0  0  0  0
  -28.2561  -24.1475   18.8510 H   0  0  0  0  0  0
  -30.1083  -22.8587   20.2165 H   0  0  0  0  0  0
  -29.1405  -22.0726   19.0200 H   0  0  0  0  0  0
  -29.3438  -25.0664   21.2087 H   0  0  0  0  0  0
  -27.6649  -25.1574   21.5784 H   0  0  0  0  0  0
  -28.9697  -21.6740   21.9309 H   0  0  0  0  0  0
  1 25  1  0  0  0
  1 30  2  0  0  0
  1 82  1  0  0  0
  2  3  1  0  0  0
  2 25  1  0  0  0
  2 83  1  0  0  0
  2 84  1  0  0  0
  3  4  1  0  0  0
  3 85  1  0  0  0
  3 86  1  0  0  0
  4  5  1  0  0  0
  4 87  1  0  0  0
  4 88  1  0  0  0
  5  6  1  0  0  0
  5 26  1  0  0  0
  5 89  1  0  0  0
  6 25  1  0  0  0
  6 90  1  0  0  0
  6 91  1  0  0  0
  7  8  2  0  0  0
  7 26  1  0  0  0
  7 29  1  0  0  0
  8  9  1  0  0  0
  8 22  1  0  0  0
  9 10  1  0  0  0
  9 27  2  0  0  0
 10 11  2  0  0  0
 10 15  1  0  0  0
 11 12  1  0  0  0
 11 92  1  0  0  0
 12 13  2  0  0  0
 12 93  1  0  0  0
 13 14  1  0  0  0
 13 31  1  0  0  0
 14 15  2  0  0  0
 14 94  1  0  0  0
 15 95  1  0  0  0
 16 17  2  0  0  0
 16 21  1  0  0  0
 16 31  1  0  0  0
 17 18  1  0  0  0
 17 96  1  0  0  0
 18 19  2  0  0  0
 18 97  1  0  0  0
 19 20  1  0  0  0
 19 24  1  0  0  0
 20 21  2  0  0  0
 20 98  1  0  0  0
 21 23  1  0  0  0
 22 28  1  0  0  0
 22 32  2  0  0  0
 26 27  1  0  0  0
 28 99  1  0  0  0
 28100  1  0  0  0
 29101  1  0  0  0
 29102  1  0  0  0
 33 34  1  0  0  0
 33 66  1  0  0  0
 33 70  2  0  0  0
 34 36  1  0  0  0
 34 59  1  0  0  0
 34103  1  0  0  0
 35 44  2  0  0  0
 35 45  1  0  0  0
 35 68  1  0  0  0
 36 56  1  0  0  0
 36104  1  0  0  0
 37 39  1  0  0  0
 37 47  1  0  0  0
 37 66  1  0  0  0
 37105  1  0  0  0
 38 43  2  0  0  0
 38 46  1  0  0  0
 38 47  1  0  0  0
 39 64  1  0  0  0
 39 67  2  0  0  0
 40 52  1  0  0  0
 40 53  2  0  0  0
 40 58  1  0  0  0
 41106  1  0  0  0
 41107  1  0  0  0
 41108  1  0  0  0
 41 48  1  0  0  0
 42 43  1  0  0  0
 42 66  1  0  0  0
 42109  1  0  0  0
 42110  1  0  0  0
 43 44  1  0  0  0
 44111  1  0  0  0
 45 46  2  0  0  0
 45112  1  0  0  0
 46113  1  0  0  0
 47114  1  0  0  0
 47115  1  0  0  0
 48 56  1  0  0  0
 48 65  1  0  0  0
 48116  1  0  0  0
 49 50  1  0  0  0
 49 53  1  0  0  0
 49 64  1  0  0  0
 49117  1  0  0  0
 50 51  1  0  0  0
 50118  1  0  0  0
 50119  1  0  0  0
 51 52  1  0  0  0
 51120  1  0  0  0
 51121  1  0  0  0
 52122  1  0  0  0
 52123  1  0  0  0
 53 54  1  0  0  0
 54 55  2  0  0  0
 54124  1  0  0  0
 55 57  1  0  0  0
 55125  1  0  0  0
 56 69  2  0  0  0
 57 58  2  0  0  0
 57126  1  0  0  0
 58127  1  0  0  0
 59 60  1  0  0  0
 59 61  1  0  0  0
 59 62  1  0  0  0
 60128  1  0  0  0
 60129  1  0  0  0
 60130  1  0  0  0
 61131  1  0  0  0
 61132  1  0  0  0
 61133  1  0  0  0
 62134  1  0  0  0
 62135  1  0  0  0
 62136  1  0  0  0
 63 65  1  0  0  0
 63137  1  0  0  0
 63138  1  0  0  0
 63139  1  0  0  0
 64140  1  0  0  0
 65141  1  0  0  0
 68 80  1  0  0  0
 71 73  2  0  0  0
 71 75  1  0  0  0
 71142  1  0  0  0
 72 74  1  0  0  0
 72 75  2  0  0  0
 72143  1  0  0  0
 73 76  1  0  0  0
 73144  1  0  0  0
 74 76  2  0  0  0
 74145  1  0  0  0
 75 81  1  0  0  0
 76 82  1  0  0  0
 77 82  1  0  0  0
 77146  1  0  0  0
 77147  1  0  0  0
 77148  1  0  0  0
 78 79  1  0  0  0
 78 80  1  0  0  0
 78149  1  0  0  0
 78150  1  0  0  0
 79 81  1  0  0  0
 79151  1  0  0  0
 79152  1  0  0  0
 80153  1  0  0  0
 80154  1  0  0  0
 81155  1  0  0  0
M  ISO  4   1 100  68 101  80 101  82 100
M  END
> <chiral flag>
0

> <version>
0

> <s_m_source_file>
/data/baiqing/PycharmProjects/Reinvent-master-3.2/result/LINK_invent/BTK/process_docking_weight1_custom_product_contain_oxygen_bond_distance_aromatic_linkinvent_7_9_3/rearranged_h_0017.sdf

> <i_m_source_file_index>
66

> <r_mmod_Potential_Energy-OPLS-2005>
365.580322265625

> <r_mmod_Stretch_Energy-OPLS-2005>
95.084098815918

> <r_mmod_Bend_Energy-OPLS-2005>
179.925765991211

> <r_mmod_Torsional_Energy-OPLS-2005>
345.948333740234

> <r_mmod_Improper_Torsional_Energy-OPLS-2005>
32.894287109375

> <r_mmod_Van_der_Waal_Energy-OPLS-2005>
143.585754394531

> <r_mmod_Electrostatic_Energy-OPLS-2005>
-311.075775146484

> <r_mmod_Solvation_Energy-OPLS-2005>
-204.440216064453

> <b_mmod_Minimization_Converged-OPLS-2005>
0

> <r_mmod_RMS_Derivative-OPLS-2005>
1.17209112644196

$$$$
67
                    3D
 Structure written by MMmdl.
155163  0  0  1  0            999 V2000
  -30.5633  -14.9288   20.3527 C   0  0  0  0  0  0
  -30.4483  -12.5536   19.4828 C   0  0  0  0  0  0
  -29.5179  -12.4289   18.2520 C   0  0  0  0  0  0
  -28.0414  -12.2867   18.6720 C   0  0  0  0  0  0
  -27.6289  -13.2362   19.8292 C   0  0  2  0  0  0
  -28.6857  -13.2860   20.9506 C   0  0  0  0  0  0
  -25.2496  -13.8202   20.5744 C   0  0  0  0  0  0
  -24.1783  -13.0451   20.9232 C   0  0  0  0  0  0
  -24.6384  -11.6929   20.8777 C   0  0  0  0  0  0
  -23.9066  -10.4299   21.0413 C   0  0  0  0  0  0
  -24.3619   -9.4210   21.9181 C   0  0  0  0  0  0
  -23.6299   -8.2245   22.0748 C   0  0  0  0  0  0
  -22.4281   -8.0280   21.3536 C   0  0  0  0  0  0
  -21.9915   -9.0263   20.4644 C   0  0  0  0  0  0
  -22.7245  -10.2145   20.3057 C   0  0  0  0  0  0
  -21.6858   -6.0724   22.5273 C   0  0  0  0  0  0
  -21.4020   -6.5634   23.8205 C   0  0  0  0  0  0
  -21.3667   -5.6788   24.9170 C   0  0  0  0  0  0
  -21.6051   -4.3049   24.7220 C   0  0  0  0  0  0
  -21.8823   -3.8137   23.4343 C   0  0  0  0  0  0
  -21.9194   -4.6950   22.3399 C   0  0  0  0  0  0
  -22.7798  -13.5224   21.1870 C   0  0  0  0  0  0
  -22.1651   -4.2135   21.0972 F   0  0  0  0  0  0
  -21.5639   -3.4533   25.7734 F   0  0  0  0  0  0
  -29.9525  -13.6770   20.3197 N   0  0  0  0  0  0
  -26.2905  -12.9406   20.3288 N   0  0  0  0  0  0
  -25.9321  -11.6557   20.5809 N   0  0  0  0  0  0
  -22.0441  -12.8212   22.0421 N   0  0  0  0  0  0
  -25.4237  -15.1919   20.4188 N   0  0  0  0  0  0
  -31.7970  -14.9519   20.2867 O   0  0  0  0  0  0
  -21.6647   -6.8872   21.4233 O   0  0  0  0  0  0
  -22.3481  -14.5522   20.6702 O   0  0  0  0  0  0
  -24.6405  -31.8468   23.1900 C   0  0  0  0  0  0
  -25.9189  -32.4709   23.8282 C   0  0  1  0  0  0
  -27.2235  -27.1619   20.1467 C   0  0  0  0  0  0
  -25.5947  -33.8517   24.2195 N   0  0  0  0  0  0
  -23.4437  -30.4650   21.5353 C   0  0  2  0  0  0
  -24.8942  -28.8973   20.1093 C   0  0  0  0  0  0
  -22.7566  -29.4542   22.4871 C   0  0  0  0  0  0
  -18.0301  -28.1388   22.8475 C   0  0  0  0  0  0
  -24.1490  -36.7264   23.2643 C   0  0  0  0  0  0
  -25.9978  -30.7267   21.3882 C   0  0  0  0  0  0
  -26.0702  -29.3409   20.7277 C   0  0  0  0  0  0
  -27.2348  -28.4886   20.7313 C   0  0  0  0  0  0
  -26.0215  -26.8157   19.4877 C   0  0  0  0  0  0
  -24.8813  -27.6464   19.4757 C   0  0  0  0  0  0
  -23.6695  -29.7967   20.1534 C   0  0  0  0  0  0
  -25.4123  -36.3041   24.0315 C   0  0  1  0  0  0
  -20.5912  -28.3712   23.1243 C   0  0  2  0  0  0
  -20.6782  -26.9415   22.5405 C   0  0  0  0  0  0
  -19.5756  -26.6370   21.5214 C   0  0  0  0  0  0
  -18.1940  -26.7924   22.1624 C   0  0  0  0  0  0
  -19.1558  -28.8868   23.2847 C   0  0  0  0  0  0
  -18.9477  -30.1468   23.8865 C   0  0  0  0  0  0
  -17.6474  -30.6583   24.0556 C   0  0  0  0  0  0
  -25.9074  -34.9416   23.5068 C   0  0  0  0  0  0
  -16.5364  -29.9077   23.6332 C   0  0  0  0  0  0
  -16.7288  -28.6495   23.0351 C   0  0  0  0  0  0
  -26.4513  -31.6575   25.0724 C   0  0  0  0  0  0
  -25.3690  -31.3772   26.1419 C   0  0  0  0  0  0
  -27.0384  -30.2968   24.6312 C   0  0  0  0  0  0
  -27.6031  -32.4352   25.7515 C   0  0  0  0  0  0
  -27.5577  -37.1792   24.8461 C   0  0  0  0  0  0
  -21.4257  -29.3042   22.3624 N   0  0  0  0  0  0
  -26.4285  -37.3754   23.9406 N   0  0  0  0  0  0
  -24.7133  -31.0337   22.0926 N   0  0  0  0  0  0
  -23.4216  -28.8091   23.3014 O   0  0  0  0  0  0
  -28.2839  -26.1918   20.2278 O   0  0  0  0  0  0
  -26.5664  -34.8912   22.4647 O   0  0  0  0  0  0
  -23.5532  -32.1343   23.7125 O   0  0  0  0  0  0
  -28.0618  -19.4971   19.7656 C   0  0  0  0  0  0
  -28.3367  -18.0840   19.8033 C   0  0  0  0  0  0
  -30.2295  -19.9529   20.5628 C   0  0  0  0  0  0
  -28.9940  -20.5336   20.0936 C   0  0  0  0  0  0
  -29.5864  -17.4966   20.1774 C   0  0  0  0  0  0
  -30.5206  -18.5147   20.5967 C   0  0  0  0  0  0
  -29.7389  -15.8973   18.3437 C   0  0  0  0  0  0
  -28.3700  -22.0249   18.3278 C   0  0  0  0  0  0
  -28.9892  -23.3532   20.3512 C   0  0  0  0  0  0
  -28.0253  -24.6851   19.9786 C   0  0  0  0  0  0
  -29.8388  -16.0311   19.8111 N   0  0  0  0  0  0
  -28.6613  -21.9501   19.7623 N   0  0  0  0  0  0
  -31.7656  -18.1290   20.9642 F   0  0  0  0  0  0
  -31.4765  -12.7158   19.1549 H   0  0  0  0  0  0
  -30.4586  -11.6273   20.0589 H   0  0  0  0  0  0
  -29.8114  -11.5604   17.6613 H   0  0  0  0  0  0
  -29.6322  -13.2796   17.5861 H   0  0  0  0  0  0
  -27.9001  -11.2506   18.9811 H   0  0  0  0  0  0
  -27.3882  -12.4338   17.8108 H   0  0  0  0  0  0
  -27.5768  -14.2309   19.3934 H   0  0  0  0  0  0
  -28.7733  -12.3227   21.4567 H   0  0  0  0  0  0
  -28.4035  -14.0187   21.7090 H   0  0  0  0  0  0
  -25.2768   -9.5689   22.4747 H   0  0  0  0  0  0
  -24.0018   -7.4636   22.7461 H   0  0  0  0  0  0
  -21.0849   -8.8797   19.8946 H   0  0  0  0  0  0
  -22.3713  -10.9692   19.6168 H   0  0  0  0  0  0
  -21.2013   -7.6142   23.9704 H   0  0  0  0  0  0
  -21.1482   -6.0513   25.9072 H   0  0  0  0  0  0
  -22.0594   -2.7598   23.2847 H   0  0  0  0  0  0
  -22.4075  -11.9914   22.4865 H   0  0  0  0  0  0
  -21.1048  -13.1228   22.2600 H   0  0  0  0  0  0
  -24.6682  -15.8573   20.5432 H   0  0  0  0  0  0
  -26.2926  -15.6256   20.1362 H   0  0  0  0  0  0
  -26.7260  -32.5316   23.1019 H   0  0  0  0  0  0
  -25.0061  -33.9634   25.0320 H   0  0  0  0  0  0
  -22.7445  -31.2895   21.3828 H   0  0  0  0  0  0
  -23.3759  -35.9591   23.3296 H   0  0  0  0  0  0
  -24.3563  -36.8909   22.2057 H   0  0  0  0  0  0
  -23.7245  -37.6456   23.6691 H   0  0  0  0  0  0
  -26.1562  -31.4846   20.6198 H   0  0  0  0  0  0
  -26.8663  -30.7711   22.0333 H   0  0  0  0  0  0
  -28.1282  -28.8232   21.2399 H   0  0  0  0  0  0
  -25.9249  -25.8612   18.9926 H   0  0  0  0  0  0
  -23.9846  -27.2998   18.9800 H   0  0  0  0  0  0
  -23.8069  -30.5733   19.4002 H   0  0  0  0  0  0
  -22.7852  -29.2396   19.8398 H   0  0  0  0  0  0
  -25.1311  -36.1871   25.0807 H   0  0  0  0  0  0
  -20.9999  -28.3298   24.1368 H   0  0  0  0  0  0
  -20.5671  -26.2329   23.3627 H   0  0  0  0  0  0
  -21.6651  -26.7414   22.1210 H   0  0  0  0  0  0
  -19.6915  -25.6275   21.1261 H   0  0  0  0  0  0
  -19.6691  -27.3167   20.6734 H   0  0  0  0  0  0
  -17.4209  -26.6671   21.4027 H   0  0  0  0  0  0
  -18.0331  -26.0069   22.9023 H   0  0  0  0  0  0
  -19.7957  -30.7291   24.2217 H   0  0  0  0  0  0
  -17.5028  -31.6259   24.5171 H   0  0  0  0  0  0
  -15.5364  -30.2968   23.7672 H   0  0  0  0  0  0
  -15.8689  -28.0806   22.7076 H   0  0  0  0  0  0
  -24.5852  -30.7147   25.7737 H   0  0  0  0  0  0
  -24.8904  -32.2963   26.4806 H   0  0  0  0  0  0
  -25.7959  -30.8958   27.0226 H   0  0  0  0  0  0
  -26.3010  -29.6691   24.1298 H   0  0  0  0  0  0
  -27.3972  -29.7269   25.4895 H   0  0  0  0  0  0
  -27.8929  -30.4205   23.9654 H   0  0  0  0  0  0
  -27.2599  -33.3656   26.2055 H   0  0  0  0  0  0
  -28.3861  -32.6915   25.0365 H   0  0  0  0  0  0
  -28.0687  -31.8515   26.5469 H   0  0  0  0  0  0
  -28.2585  -38.0097   24.7507 H   0  0  0  0  0  0
  -28.1082  -36.2626   24.6287 H   0  0  0  0  0  0
  -27.2293  -37.1438   25.8862 H   0  0  0  0  0  0
  -20.9468  -29.8781   21.6827 H   0  0  0  0  0  0
  -26.0156  -38.2826   24.1400 H   0  0  0  0  0  0
  -27.0890  -19.7895   19.3966 H   0  0  0  0  0  0
  -27.5596  -17.4267   19.4422 H   0  0  0  0  0  0
  -31.0300  -20.6243   20.8313 H   0  0  0  0  0  0
  -29.8471  -16.8574   17.8378 H   0  0  0  0  0  0
  -28.7763  -15.4872   18.0441 H   0  0  0  0  0  0
  -30.5238  -15.2736   17.9089 H   0  0  0  0  0  0
  -27.2965  -22.1188   18.1575 H   0  0  0  0  0  0
  -28.7206  -21.1498   17.7768 H   0  0  0  0  0  0
  -28.8606  -22.8831   17.8668 H   0  0  0  0  0  0
  -29.0419  -23.2582   21.4361 H   0  0  0  0  0  0
  -30.0068  -23.5891   20.0368 H   0  0  0  0  0  0
  -27.0603  -24.4667   20.4382 H   0  0  0  0  0  0
  -27.8439  -24.6352   18.9066 H   0  0  0  0  0  0
  1 25  1  0  0  0
  1 30  2  0  0  0
  1 81  1  0  0  0
  2  3  1  0  0  0
  2 25  1  0  0  0
  2 84  1  0  0  0
  2 85  1  0  0  0
  3  4  1  0  0  0
  3 86  1  0  0  0
  3 87  1  0  0  0
  4  5  1  0  0  0
  4 88  1  0  0  0
  4 89  1  0  0  0
  5  6  1  0  0  0
  5 26  1  0  0  0
  5 90  1  0  0  0
  6 25  1  0  0  0
  6 91  1  0  0  0
  6 92  1  0  0  0
  7  8  2  0  0  0
  7 26  1  0  0  0
  7 29  1  0  0  0
  8  9  1  0  0  0
  8 22  1  0  0  0
  9 10  1  0  0  0
  9 27  2  0  0  0
 10 11  2  0  0  0
 10 15  1  0  0  0
 11 12  1  0  0  0
 11 93  1  0  0  0
 12 13  2  0  0  0
 12 94  1  0  0  0
 13 14  1  0  0  0
 13 31  1  0  0  0
 14 15  2  0  0  0
 14 95  1  0  0  0
 15 96  1  0  0  0
 16 17  2  0  0  0
 16 21  1  0  0  0
 16 31  1  0  0  0
 17 18  1  0  0  0
 17 97  1  0  0  0
 18 19  2  0  0  0
 18 98  1  0  0  0
 19 20  1  0  0  0
 19 24  1  0  0  0
 20 21  2  0  0  0
 20 99  1  0  0  0
 21 23  1  0  0  0
 22 28  1  0  0  0
 22 32  2  0  0  0
 26 27  1  0  0  0
 28100  1  0  0  0
 28101  1  0  0  0
 29102  1  0  0  0
 29103  1  0  0  0
 33 34  1  0  0  0
 33 66  1  0  0  0
 33 70  2  0  0  0
 34 36  1  0  0  0
 34 59  1  0  0  0
 34104  1  0  0  0
 35 44  2  0  0  0
 35 45  1  0  0  0
 35 68  1  0  0  0
 36 56  1  0  0  0
 36105  1  0  0  0
 37 39  1  0  0  0
 37 47  1  0  0  0
 37 66  1  0  0  0
 37106  1  0  0  0
 38 43  2  0  0  0
 38 46  1  0  0  0
 38 47  1  0  0  0
 39 64  1  0  0  0
 39 67  2  0  0  0
 40 52  1  0  0  0
 40 53  2  0  0  0
 40 58  1  0  0  0
 41107  1  0  0  0
 41108  1  0  0  0
 41109  1  0  0  0
 41 48  1  0  0  0
 42 43  1  0  0  0
 42 66  1  0  0  0
 42110  1  0  0  0
 42111  1  0  0  0
 43 44  1  0  0  0
 44112  1  0  0  0
 45 46  2  0  0  0
 45113  1  0  0  0
 46114  1  0  0  0
 47115  1  0  0  0
 47116  1  0  0  0
 48 56  1  0  0  0
 48 65  1  0  0  0
 48117  1  0  0  0
 49 50  1  0  0  0
 49 53  1  0  0  0
 49 64  1  0  0  0
 49118  1  0  0  0
 50 51  1  0  0  0
 50119  1  0  0  0
 50120  1  0  0  0
 51 52  1  0  0  0
 51121  1  0  0  0
 51122  1  0  0  0
 52123  1  0  0  0
 52124  1  0  0  0
 53 54  1  0  0  0
 54 55  2  0  0  0
 54125  1  0  0  0
 55 57  1  0  0  0
 55126  1  0  0  0
 56 69  2  0  0  0
 57 58  2  0  0  0
 57127  1  0  0  0
 58128  1  0  0  0
 59 60  1  0  0  0
 59 61  1  0  0  0
 59 62  1  0  0  0
 60129  1  0  0  0
 60130  1  0  0  0
 60131  1  0  0  0
 61132  1  0  0  0
 61133  1  0  0  0
 61134  1  0  0  0
 62135  1  0  0  0
 62136  1  0  0  0
 62137  1  0  0  0
 63 65  1  0  0  0
 63138  1  0  0  0
 63139  1  0  0  0
 63140  1  0  0  0
 64141  1  0  0  0
 65142  1  0  0  0
 68 80  1  0  0  0
 71 72  2  0  0  0
 71 74  1  0  0  0
 71143  1  0  0  0
 72 75  1  0  0  0
 72144  1  0  0  0
 73 74  2  0  0  0
 73 76  1  0  0  0
 73145  1  0  0  0
 74 82  1  0  0  0
 75 76  2  0  0  0
 75 81  1  0  0  0
 76 83  1  0  0  0
 77 81  1  0  0  0
 77146  1  0  0  0
 77147  1  0  0  0
 77148  1  0  0  0
 78 82  1  0  0  0
 78149  1  0  0  0
 78150  1  0  0  0
 78151  1  0  0  0
 79 80  1  0  0  0
 79 82  1  0  0  0
 79152  1  0  0  0
 79153  1  0  0  0
 80154  1  0  0  0
 80155  1  0  0  0
M  ISO  4   1 100  68 101  80 101  81 100
M  END
> <chiral flag>
0

> <version>
0

> <s_m_source_file>
/data/baiqing/PycharmProjects/Reinvent-master-3.2/result/LINK_invent/BTK/process_docking_weight1_custom_product_contain_oxygen_bond_distance_aromatic_linkinvent_7_9_3/rearranged_h_0017.sdf

> <i_m_source_file_index>
67

> <r_mmod_Potential_Energy-OPLS-2005>
682.359985351562

> <r_mmod_Stretch_Energy-OPLS-2005>
217.011840820312

> <r_mmod_Bend_Energy-OPLS-2005>
284.245727539062

> <r_mmod_Torsional_Energy-OPLS-2005>
337.897735595703

> <r_mmod_Improper_Torsional_Energy-OPLS-2005>
31.2326259613037

> <r_mmod_Van_der_Waal_Energy-OPLS-2005>
144.328384399414

> <r_mmod_Electrostatic_Energy-OPLS-2005>
-300.110321044922

> <r_mmod_Solvation_Energy-OPLS-2005>
-216.201553344727

> <b_mmod_Minimization_Converged-OPLS-2005>
0

> <r_mmod_RMS_Derivative-OPLS-2005>
1.44680678844452

$$$$
68
                    3D
 Structure written by MMmdl.
162170  0  0  1  0            999 V2000
  -30.8041  -14.3242   20.7208 C   0  0  0  0  0  0
  -30.4131  -12.2778   19.3945 C   0  0  0  0  0  0
  -29.4872  -12.5469   18.1955 C   0  0  0  0  0  0
  -28.0125  -12.3932   18.6077 C   0  0  0  0  0  0
  -27.6729  -13.2048   19.8851 C   0  0  2  0  0  0
  -28.7092  -12.9428   21.0023 C   0  0  0  0  0  0
  -25.2637  -13.8156   20.5674 C   0  0  0  0  0  0
  -24.1871  -13.0433   20.9142 C   0  0  0  0  0  0
  -24.6411  -11.6901   20.8700 C   0  0  0  0  0  0
  -23.9074  -10.4288   21.0376 C   0  0  0  0  0  0
  -24.3623   -9.4211   21.9163 C   0  0  0  0  0  0
  -23.6293   -8.2253   22.0747 C   0  0  0  0  0  0
  -22.4275   -8.0282   21.3544 C   0  0  0  0  0  0
  -21.9913   -9.0250   20.4639 C   0  0  0  0  0  0
  -22.7243  -10.2125   20.3030 C   0  0  0  0  0  0
  -21.6852   -6.0742   22.5282 C   0  0  0  0  0  0
  -21.4010   -6.5645   23.8218 C   0  0  0  0  0  0
  -21.3655   -5.6793   24.9176 C   0  0  0  0  0  0
  -21.6037   -4.3054   24.7231 C   0  0  0  0  0  0
  -21.8820   -3.8147   23.4350 C   0  0  0  0  0  0
  -21.9196   -4.6967   22.3402 C   0  0  0  0  0  0
  -22.7890  -13.5234   21.1811 C   0  0  0  0  0  0
  -22.1665   -4.2154   21.0983 F   0  0  0  0  0  0
  -21.5625   -3.4540   25.7748 F   0  0  0  0  0  0
  -30.0638  -13.2107   20.4779 N   0  0  0  0  0  0
  -26.3089  -12.9329   20.3394 N   0  0  0  0  0  0
  -25.9341  -11.6484   20.5723 N   0  0  0  0  0  0
  -22.0531  -12.8223   22.0358 N   0  0  0  0  0  0
  -25.4376  -15.1870   20.4115 N   0  0  0  0  0  0
  -31.7632  -14.6504   20.0146 O   0  0  0  0  0  0
  -21.6632   -6.8883   21.4241 O   0  0  0  0  0  0
  -22.3578  -14.5548   20.6670 O   0  0  0  0  0  0
  -24.6122  -31.8690   23.2122 C   0  0  0  0  0  0
  -25.9028  -32.4821   23.8401 C   0  0  1  0  0  0
  -27.2425  -27.4630   20.0998 C   0  0  0  0  0  0
  -25.5877  -33.8610   24.2329 N   0  0  0  0  0  0
  -23.3975  -30.4914   21.5535 C   0  0  2  0  0  0
  -24.8456  -28.9621   20.1156 C   0  0  0  0  0  0
  -22.7391  -29.4645   22.5022 C   0  0  0  0  0  0
  -18.0255  -28.1362   22.8484 C   0  0  0  0  0  0
  -24.1483  -36.7316   23.2630 C   0  0  0  0  0  0
  -25.9224  -30.8455   21.3600 C   0  0  0  0  0  0
  -26.0019  -29.4822   20.7075 C   0  0  0  0  0  0
  -27.2023  -28.7404   20.6946 C   0  0  0  0  0  0
  -26.0706  -26.9527   19.4944 C   0  0  0  0  0  0
  -24.8738  -27.6947   19.5048 C   0  0  0  0  0  0
  -23.6035  -29.8227   20.1671 C   0  0  0  0  0  0
  -25.4082  -36.3089   24.0338 C   0  0  1  0  0  0
  -20.5844  -28.3632   23.1334 C   0  0  2  0  0  0
  -20.6760  -26.9378   22.5419 C   0  0  0  0  0  0
  -19.5744  -26.6370   21.5206 C   0  0  0  0  0  0
  -18.1910  -26.7904   22.1601 C   0  0  0  0  0  0
  -19.1504  -28.8816   23.2907 C   0  0  0  0  0  0
  -18.9435  -30.1427   23.8910 C   0  0  0  0  0  0
  -17.6441  -30.6575   24.0562 C   0  0  0  0  0  0
  -25.9019  -34.9467   23.5132 C   0  0  0  0  0  0
  -16.5334  -29.9074   23.6328 C   0  0  0  0  0  0
  -16.7246  -28.6495   23.0339 C   0  0  0  0  0  0
  -26.4469  -31.6571   25.0714 C   0  0  0  0  0  0
  -25.3745  -31.3656   26.1462 C   0  0  0  0  0  0
  -27.0305  -30.3027   24.6039 C   0  0  0  0  0  0
  -27.6059  -32.4271   25.7478 C   0  0  0  0  0  0
  -27.5577  -37.1788   24.8440 C   0  0  0  0  0  0
  -21.4119  -29.3008   22.3760 N   0  0  0  0  0  0
  -26.4259  -37.3787   23.9436 N   0  0  0  0  0  0
  -24.6621  -31.0815   22.1010 N   0  0  0  0  0  0
  -23.4174  -28.8184   23.3058 O   0  0  0  0  0  0
  -28.4324  -26.7703   20.1238 O   0  0  0  0  0  0
  -26.5607  -34.8927   22.4706 O   0  0  0  0  0  0
  -23.5326  -32.1429   23.7543 O   0  0  0  0  0  0
  -32.1244  -18.3616   22.1231 C   0  0  0  0  0  0
  -31.9328  -17.0059   21.7927 C   0  0  0  0  0  0
  -30.0956  -18.3168   23.4633 C   0  0  0  0  0  0
  -31.1846  -19.0357   22.9276 C   0  0  0  0  0  0
  -29.8989  -16.9576   23.1359 C   0  0  0  0  0  0
  -30.7901  -16.3031   22.2502 C   0  0  0  0  0  0
  -28.7086  -16.2193   23.7273 C   0  0  0  0  0  0
  -31.3092  -20.5360   23.1607 C   0  0  0  0  0  0
  -29.5339  -23.2967   21.1642 C   0  0  0  0  0  0
  -29.4682  -24.8343   21.1310 C   0  0  0  0  0  0
  -30.5074  -22.7160   22.2120 C   0  0  0  0  0  0
  -28.3726  -25.3464   20.1799 C   0  0  0  0  0  0
  -30.4894  -14.9640   21.8609 N   0  0  0  0  0  0
  -30.5242  -21.2403   22.1297 N   0  3  0  0  0  0
  -31.4594  -12.3587   19.0936 H   0  0  0  0  0  0
  -30.2873  -11.2519   19.7445 H   0  0  0  0  0  0
  -29.7214  -11.8673   17.3751 H   0  0  0  0  0  0
  -29.6624  -13.5560   17.8187 H   0  0  0  0  0  0
  -27.8175  -11.3327   18.7730 H   0  0  0  0  0  0
  -27.3605  -12.6958   17.7873 H   0  0  0  0  0  0
  -27.7341  -14.2604   19.6188 H   0  0  0  0  0  0
  -28.6573  -11.9024   21.3267 H   0  0  0  0  0  0
  -28.4535  -13.5314   21.8833 H   0  0  0  0  0  0
  -25.2774   -9.5692   22.4729 H   0  0  0  0  0  0
  -24.0014   -7.4650   22.7467 H   0  0  0  0  0  0
  -21.0849   -8.8752   19.8946 H   0  0  0  0  0  0
  -22.3697  -10.9649   19.6127 H   0  0  0  0  0  0
  -21.1992   -7.6155   23.9724 H   0  0  0  0  0  0
  -21.1467   -6.0521   25.9083 H   0  0  0  0  0  0
  -22.0597   -2.7609   23.2850 H   0  0  0  0  0  0
  -22.4130  -11.9853   22.4697 H   0  0  0  0  0  0
  -21.1154  -13.1253   22.2576 H   0  0  0  0  0  0
  -24.6739  -15.8463   20.5186 H   0  0  0  0  0  0
  -26.3030  -15.6264   20.1211 H   0  0  0  0  0  0
  -26.7097  -32.5562   23.1173 H   0  0  0  0  0  0
  -25.0011  -33.9761   25.0462 H   0  0  0  0  0  0
  -22.6841  -31.3066   21.4152 H   0  0  0  0  0  0
  -23.3739  -35.9655   23.3263 H   0  0  0  0  0  0
  -24.3603  -36.8961   22.2052 H   0  0  0  0  0  0
  -23.7239  -37.6504   23.6686 H   0  0  0  0  0  0
  -26.0264  -31.6128   20.5911 H   0  0  0  0  0  0
  -26.8137  -30.9031   21.9737 H   0  0  0  0  0  0
  -28.0957  -29.1405   21.1535 H   0  0  0  0  0  0
  -26.0749  -25.9900   19.0045 H   0  0  0  0  0  0
  -23.9852  -27.2890   19.0410 H   0  0  0  0  0  0
  -23.7085  -30.5986   19.4084 H   0  0  0  0  0  0
  -22.7288  -29.2390   19.8735 H   0  0  0  0  0  0
  -25.1239  -36.1940   25.0825 H   0  0  0  0  0  0
  -20.9913  -28.3203   24.1462 H   0  0  0  0  0  0
  -20.5661  -26.2230   23.3593 H   0  0  0  0  0  0
  -21.6640  -26.7444   22.1218 H   0  0  0  0  0  0
  -19.6924  -25.6283   21.1227 H   0  0  0  0  0  0
  -19.6688  -27.3195   20.6752 H   0  0  0  0  0  0
  -17.4184  -26.6656   21.4005 H   0  0  0  0  0  0
  -18.0305  -26.0037   22.8981 H   0  0  0  0  0  0
  -19.7917  -30.7247   24.2286 H   0  0  0  0  0  0
  -17.4998  -31.6265   24.5138 H   0  0  0  0  0  0
  -15.5335  -30.2978   23.7657 H   0  0  0  0  0  0
  -15.8635  -28.0833   22.7035 H   0  0  0  0  0  0
  -24.5904  -30.7007   25.7806 H   0  0  0  0  0  0
  -24.8940  -32.2800   26.4948 H   0  0  0  0  0  0
  -25.8091  -30.8793   27.0203 H   0  0  0  0  0  0
  -26.2829  -29.6779   24.1119 H   0  0  0  0  0  0
  -27.4134  -29.7243   25.4461 H   0  0  0  0  0  0
  -27.8639  -30.4370   23.9138 H   0  0  0  0  0  0
  -27.2687  -33.3557   26.2098 H   0  0  0  0  0  0
  -28.3850  -32.6829   25.0287 H   0  0  0  0  0  0
  -28.0746  -31.8352   26.5355 H   0  0  0  0  0  0
  -28.2519  -38.0161   24.7582 H   0  0  0  0  0  0
  -28.1137  -36.2695   24.6108 H   0  0  0  0  0  0
  -27.2336  -37.1249   25.8848 H   0  0  0  0  0  0
  -20.9267  -29.8719   21.6977 H   0  0  0  0  0  0
  -26.0136  -38.2851   24.1470 H   0  0  0  0  0  0
  -32.9857  -18.8840   21.7287 H   0  0  0  0  0  0
  -32.6739  -16.5359   21.1640 H   0  0  0  0  0  0
  -29.3863  -18.8201   24.1070 H   0  0  0  0  0  0
  -28.1478  -16.8460   24.4208 H   0  0  0  0  0  0
  -29.0462  -15.3418   24.2798 H   0  0  0  0  0  0
  -28.0255  -15.8977   22.9411 H   0  0  0  0  0  0
  -32.3556  -20.8409   23.1103 H   0  0  0  0  0  0
  -30.9475  -20.7918   24.1574 H   0  0  0  0  0  0
  -29.8131  -22.9399   20.1717 H   0  0  0  0  0  0
  -28.5335  -22.9053   21.3576 H   0  0  0  0  0  0
  -30.4354  -25.2349   20.8266 H   0  0  0  0  0  0
  -29.2773  -25.2172   22.1345 H   0  0  0  0  0  0
  -30.2026  -23.0229   23.2134 H   0  0  0  0  0  0
  -31.5157  -23.1039   22.0552 H   0  0  0  0  0  0
  -27.4108  -24.9833   20.5483 H   0  0  0  0  0  0
  -28.5099  -24.9462   19.1747 H   0  0  0  0  0  0
  -29.7546  -14.5136   22.3844 H   0  0  0  0  0  0
  -29.5789  -20.9057   22.1984 H   0  0  0  0  0  0
  -30.8816  -20.9676   21.2292 H   0  0  0  0  0  0
  1 25  1  0  0  0
  1 30  2  0  0  0
  1 83  1  0  0  0
  2  3  1  0  0  0
  2 25  1  0  0  0
  2 85  1  0  0  0
  2 86  1  0  0  0
  3  4  1  0  0  0
  3 87  1  0  0  0
  3 88  1  0  0  0
  4  5  1  0  0  0
  4 89  1  0  0  0
  4 90  1  0  0  0
  5  6  1  0  0  0
  5 26  1  0  0  0
  5 91  1  0  0  0
  6 25  1  0  0  0
  6 92  1  0  0  0
  6 93  1  0  0  0
  7  8  2  0  0  0
  7 26  1  0  0  0
  7 29  1  0  0  0
  8  9  1  0  0  0
  8 22  1  0  0  0
  9 10  1  0  0  0
  9 27  2  0  0  0
 10 11  2  0  0  0
 10 15  1  0  0  0
 11 12  1  0  0  0
 11 94  1  0  0  0
 12 13  2  0  0  0
 12 95  1  0  0  0
 13 14  1  0  0  0
 13 31  1  0  0  0
 14 15  2  0  0  0
 14 96  1  0  0  0
 15 97  1  0  0  0
 16 17  2  0  0  0
 16 21  1  0  0  0
 16 31  1  0  0  0
 17 18  1  0  0  0
 17 98  1  0  0  0
 18 19  2  0  0  0
 18 99  1  0  0  0
 19 20  1  0  0  0
 19 24  1  0  0  0
 20 21  2  0  0  0
 20100  1  0  0  0
 21 23  1  0  0  0
 22 28  1  0  0  0
 22 32  2  0  0  0
 26 27  1  0  0  0
 28101  1  0  0  0
 28102  1  0  0  0
 29103  1  0  0  0
 29104  1  0  0  0
 33 34  1  0  0  0
 33 66  1  0  0  0
 33 70  2  0  0  0
 34 36  1  0  0  0
 34 59  1  0  0  0
 34105  1  0  0  0
 35 44  2  0  0  0
 35 45  1  0  0  0
 35 68  1  0  0  0
 36 56  1  0  0  0
 36106  1  0  0  0
 37 39  1  0  0  0
 37 47  1  0  0  0
 37 66  1  0  0  0
 37107  1  0  0  0
 38 43  2  0  0  0
 38 46  1  0  0  0
 38 47  1  0  0  0
 39 64  1  0  0  0
 39 67  2  0  0  0
 40 52  1  0  0  0
 40 53  2  0  0  0
 40 58  1  0  0  0
 41108  1  0  0  0
 41109  1  0  0  0
 41110  1  0  0  0
 41 48  1  0  0  0
 42 43  1  0  0  0
 42 66  1  0  0  0
 42111  1  0  0  0
 42112  1  0  0  0
 43 44  1  0  0  0
 44113  1  0  0  0
 45 46  2  0  0  0
 45114  1  0  0  0
 46115  1  0  0  0
 47116  1  0  0  0
 47117  1  0  0  0
 48 56  1  0  0  0
 48 65  1  0  0  0
 48118  1  0  0  0
 49 50  1  0  0  0
 49 53  1  0  0  0
 49 64  1  0  0  0
 49119  1  0  0  0
 50 51  1  0  0  0
 50120  1  0  0  0
 50121  1  0  0  0
 51 52  1  0  0  0
 51122  1  0  0  0
 51123  1  0  0  0
 52124  1  0  0  0
 52125  1  0  0  0
 53 54  1  0  0  0
 54 55  2  0  0  0
 54126  1  0  0  0
 55 57  1  0  0  0
 55127  1  0  0  0
 56 69  2  0  0  0
 57 58  2  0  0  0
 57128  1  0  0  0
 58129  1  0  0  0
 59 60  1  0  0  0
 59 61  1  0  0  0
 59 62  1  0  0  0
 60130  1  0  0  0
 60131  1  0  0  0
 60132  1  0  0  0
 61133  1  0  0  0
 61134  1  0  0  0
 61135  1  0  0  0
 62136  1  0  0  0
 62137  1  0  0  0
 62138  1  0  0  0
 63 65  1  0  0  0
 63139  1  0  0  0
 63140  1  0  0  0
 63141  1  0  0  0
 64142  1  0  0  0
 65143  1  0  0  0
 68 82  1  0  0  0
 71 72  2  0  0  0
 71 74  1  0  0  0
 71144  1  0  0  0
 72 76  1  0  0  0
 72145  1  0  0  0
 73 74  2  0  0  0
 73 75  1  0  0  0
 73146  1  0  0  0
 74 78  1  0  0  0
 75 76  2  0  0  0
 75 77  1  0  0  0
 76 83  1  0  0  0
 77147  1  0  0  0
 77148  1  0  0  0
 77149  1  0  0  0
 78 84  1  0  0  0
 78150  1  0  0  0
 78151  1  0  0  0
 79 80  1  0  0  0
 79 81  1  0  0  0
 79152  1  0  0  0
 79153  1  0  0  0
 80 82  1  0  0  0
 80154  1  0  0  0
 80155  1  0  0  0
 81 84  1  0  0  0
 81156  1  0  0  0
 81157  1  0  0  0
 82158  1  0  0  0
 82159  1  0  0  0
 83160  1  0  0  0
 84161  1  0  0  0
 84162  1  0  0  0
M  CHG  1  84   1
M  ISO  4   1 100  68 101  82 101  83 100
M  END
> <chiral flag>
0

> <version>
0

> <s_m_source_file>
/data/baiqing/PycharmProjects/Reinvent-master-3.2/result/LINK_invent/BTK/process_docking_weight1_custom_product_contain_oxygen_bond_distance_aromatic_linkinvent_7_9_3/rearranged_h_0017.sdf

> <i_m_source_file_index>
68

> <r_mmod_Potential_Energy-OPLS-2005>
-293.058258056641

> <r_mmod_Stretch_Energy-OPLS-2005>
33.5107765197754

> <r_mmod_Bend_Energy-OPLS-2005>
93.7577896118164

> <r_mmod_Torsional_Energy-OPLS-2005>
203.369140625

> <r_mmod_Improper_Torsional_Energy-OPLS-2005>
3.53759908676147

> <r_mmod_Van_der_Waal_Energy-OPLS-2005>
155.730850219727

> <r_mmod_Electrostatic_Energy-OPLS-2005>
-326.448486328125

> <r_mmod_Solvation_Energy-OPLS-2005>
-464.913330078125

> <b_mmod_Minimization_Converged-OPLS-2005>
0

> <r_mmod_RMS_Derivative-OPLS-2005>
2.17427539825439

$$$$
69
                    3D
 Structure written by MMmdl.
155164  0  0  1  0            999 V2000
  -30.6577  -14.5267   20.5840 C   0  0  0  0  0  0
  -30.4358  -12.3434   19.4298 C   0  0  0  0  0  0
  -29.5003  -12.5253   18.2142 C   0  0  0  0  0  0
  -28.0221  -12.3722   18.6240 C   0  0  0  0  0  0
  -27.6650  -13.2088   19.8808 C   0  0  2  0  0  0
  -28.7048  -12.9834   21.0016 C   0  0  0  0  0  0
  -25.2604  -13.8170   20.5678 C   0  0  0  0  0  0
  -24.1852  -13.0442   20.9173 C   0  0  0  0  0  0
  -24.6409  -11.6913   20.8729 C   0  0  0  0  0  0
  -23.9077  -10.4297   21.0397 C   0  0  0  0  0  0
  -24.3621   -9.4211   21.9175 C   0  0  0  0  0  0
  -23.6294   -8.2249   22.0749 C   0  0  0  0  0  0
  -22.4275   -8.0287   21.3540 C   0  0  0  0  0  0
  -21.9912   -9.0264   20.4644 C   0  0  0  0  0  0
  -22.7246  -10.2142   20.3051 C   0  0  0  0  0  0
  -21.6859   -6.0739   22.5275 C   0  0  0  0  0  0
  -21.4022   -6.5643   23.8207 C   0  0  0  0  0  0
  -21.3653   -5.6792   24.9167 C   0  0  0  0  0  0
  -21.6039   -4.3056   24.7217 C   0  0  0  0  0  0
  -21.8824   -3.8151   23.4337 C   0  0  0  0  0  0
  -21.9194   -4.6968   22.3395 C   0  0  0  0  0  0
  -22.7875  -13.5242   21.1830 C   0  0  0  0  0  0
  -22.1666   -4.2154   21.0971 F   0  0  0  0  0  0
  -21.5620   -3.4536   25.7727 F   0  0  0  0  0  0
  -30.0376  -13.3155   20.4638 N   0  0  0  0  0  0
  -26.3047  -12.9340   20.3386 N   0  0  0  0  0  0
  -25.9339  -11.6495   20.5775 N   0  0  0  0  0  0
  -22.0518  -12.8238   22.0399 N   0  0  0  0  0  0
  -25.4328  -15.1881   20.4073 N   0  0  0  0  0  0
  -31.7367  -14.7795   20.0378 O   0  0  0  0  0  0
  -21.6642   -6.8884   21.4237 O   0  0  0  0  0  0
  -22.3552  -14.5530   20.6665 O   0  0  0  0  0  0
  -24.6191  -31.8636   23.2059 C   0  0  0  0  0  0
  -25.9062  -32.4801   23.8376 C   0  0  1  0  0  0
  -27.2394  -27.3879   20.1004 C   0  0  0  0  0  0
  -25.5895  -33.8600   24.2301 N   0  0  0  0  0  0
  -23.4089  -30.4864   21.5469 C   0  0  2  0  0  0
  -24.8552  -28.9418   20.1153 C   0  0  0  0  0  0
  -22.7437  -29.4640   22.4969 C   0  0  0  0  0  0
  -18.0284  -28.1359   22.8514 C   0  0  0  0  0  0
  -24.1480  -36.7310   23.2640 C   0  0  0  0  0  0
  -25.9409  -30.8155   21.3630 C   0  0  0  0  0  0
  -26.0166  -29.4448   20.7120 C   0  0  0  0  0  0
  -27.2076  -28.6762   20.6979 C   0  0  0  0  0  0
  -26.0515  -26.9063   19.5029 C   0  0  0  0  0  0
  -24.8707  -27.6748   19.5066 C   0  0  0  0  0  0
  -23.6189  -29.8129   20.1637 C   0  0  0  0  0  0
  -25.4104  -36.3097   24.0333 C   0  0  1  0  0  0
  -20.5882  -28.3642   23.1265 C   0  0  2  0  0  0
  -20.6763  -26.9386   22.5345 C   0  0  0  0  0  0
  -19.5702  -26.6352   21.5188 C   0  0  0  0  0  0
  -18.1913  -26.7892   22.1663 C   0  0  0  0  0  0
  -19.1547  -28.8819   23.2884 C   0  0  0  0  0  0
  -18.9490  -30.1422   23.8894 C   0  0  0  0  0  0
  -17.6502  -30.6570   24.0575 C   0  0  0  0  0  0
  -25.9034  -34.9461   23.5118 C   0  0  0  0  0  0
  -16.5379  -29.9082   23.6361 C   0  0  0  0  0  0
  -16.7278  -28.6487   23.0400 C   0  0  0  0  0  0
  -26.4471  -31.6597   25.0720 C   0  0  0  0  0  0
  -25.3722  -31.3729   26.1462 C   0  0  0  0  0  0
  -27.0305  -30.3033   24.6117 C   0  0  0  0  0  0
  -27.6033  -32.4329   25.7492 C   0  0  0  0  0  0
  -27.5577  -37.1808   24.8464 C   0  0  0  0  0  0
  -21.4167  -29.3014   22.3688 N   0  0  0  0  0  0
  -26.4288  -37.3788   23.9406 N   0  0  0  0  0  0
  -24.6751  -31.0708   22.0968 N   0  0  0  0  0  0
  -23.4186  -28.8208   23.3051 O   0  0  0  0  0  0
  -28.4227  -26.6579   20.1284 O   0  0  0  0  0  0
  -26.5605  -34.8922   22.4684 O   0  0  0  0  0  0
  -23.5370  -32.1412   23.7421 O   0  0  0  0  0  0
  -29.1422  -18.9969   22.1400 C   0  0  0  0  0  0
  -29.6954  -17.6960   22.2480 C   0  0  0  0  0  0
  -28.7634  -18.6324   19.7778 C   0  0  0  0  0  0
  -28.6080  -19.4631   20.9161 C   0  0  0  0  0  0
  -29.7508  -16.8229   21.1347 C   0  0  0  0  0  0
  -29.3174  -17.3274   19.8807 C   0  0  0  0  0  0
  -29.0164  -22.9144   20.7339 C   0  0  0  0  0  0
  -27.0160  -23.1474   20.2634 C   0  0  0  0  0  0
  -28.0958  -24.1731   20.6191 C   0  0  2  0  0  0
  -27.5987  -20.6374   20.9087 C   0  0  0  0  0  0
  -28.5092  -25.2955   19.6217 C   0  0  0  0  0  0
  -27.9391  -22.0542   20.6384 N   0  0  0  0  0  0
  -30.0208  -15.4263   21.3663 N   0  0  0  0  0  0
  -30.1942  -22.6956   20.9287 O   0  0  0  0  0  0
  -29.3146  -16.5253   18.7885 F   0  0  0  0  0  0
  -31.4774  -12.4652   19.1265 H   0  0  0  0  0  0
  -30.3600  -11.3282   19.8224 H   0  0  0  0  0  0
  -29.7478  -11.8039   17.4344 H   0  0  0  0  0  0
  -29.6563  -13.5130   17.7775 H   0  0  0  0  0  0
  -27.8388  -11.3150   18.8179 H   0  0  0  0  0  0
  -27.3690  -12.6449   17.7937 H   0  0  0  0  0  0
  -27.7112  -14.2583   19.5885 H   0  0  0  0  0  0
  -28.6931  -11.9417   21.3254 H   0  0  0  0  0  0
  -28.4432  -13.5586   21.8904 H   0  0  0  0  0  0
  -25.2771   -9.5679   22.4745 H   0  0  0  0  0  0
  -23.9998   -7.4639   22.7469 H   0  0  0  0  0  0
  -21.0843   -8.8790   19.8952 H   0  0  0  0  0  0
  -22.3710  -10.9675   19.6156 H   0  0  0  0  0  0
  -21.2033   -7.6153   23.9714 H   0  0  0  0  0  0
  -21.1463   -6.0520   25.9067 H   0  0  0  0  0  0
  -22.0610   -2.7614   23.2830 H   0  0  0  0  0  0
  -22.4137  -11.9901   22.4783 H   0  0  0  0  0  0
  -21.1132  -13.1252   22.2588 H   0  0  0  0  0  0
  -24.6660  -15.8442   20.5057 H   0  0  0  0  0  0
  -26.2916  -15.6244   20.0947 H   0  0  0  0  0  0
  -26.7128  -32.5492   23.1137 H   0  0  0  0  0  0
  -25.0039  -33.9760   25.0442 H   0  0  0  0  0  0
  -22.6990  -31.3037   21.4028 H   0  0  0  0  0  0
  -23.3735  -35.9651   23.3307 H   0  0  0  0  0  0
  -24.3573  -36.8924   22.2053 H   0  0  0  0  0  0
  -23.7241  -37.6519   23.6655 H   0  0  0  0  0  0
  -26.0546  -31.5773   20.5901 H   0  0  0  0  0  0
  -26.8290  -30.8748   21.9803 H   0  0  0  0  0  0
  -28.1042  -29.0654   21.1599 H   0  0  0  0  0  0
  -26.0089  -25.9346   19.0356 H   0  0  0  0  0  0
  -23.9762  -27.2804   19.0452 H   0  0  0  0  0  0
  -23.7271  -30.5835   19.4001 H   0  0  0  0  0  0
  -22.7436  -29.2301   19.8705 H   0  0  0  0  0  0
  -25.1283  -36.1960   25.0827 H   0  0  0  0  0  0
  -20.9988  -28.3172   24.1374 H   0  0  0  0  0  0
  -20.5700  -26.2240   23.3521 H   0  0  0  0  0  0
  -21.6615  -26.7445   22.1090 H   0  0  0  0  0  0
  -19.6842  -25.6271   21.1175 H   0  0  0  0  0  0
  -19.6585  -27.3171   20.6722 H   0  0  0  0  0  0
  -17.4133  -26.6604   21.4114 H   0  0  0  0  0  0
  -18.0385  -26.0046   22.9090 H   0  0  0  0  0  0
  -19.7985  -30.7218   24.2247 H   0  0  0  0  0  0
  -17.5097  -31.6256   24.5178 H   0  0  0  0  0  0
  -15.5392  -30.3017   23.7697 H   0  0  0  0  0  0
  -15.8670  -28.0808   22.7138 H   0  0  0  0  0  0
  -24.5885  -30.7087   25.7805 H   0  0  0  0  0  0
  -24.8931  -32.2898   26.4901 H   0  0  0  0  0  0
  -25.8062  -30.8902   27.0227 H   0  0  0  0  0  0
  -26.2863  -29.6802   24.1140 H   0  0  0  0  0  0
  -27.4036  -29.7265   25.4593 H   0  0  0  0  0  0
  -27.8713  -30.4352   23.9300 H   0  0  0  0  0  0
  -27.2631  -33.3617   26.2090 H   0  0  0  0  0  0
  -28.3832  -32.6916   25.0317 H   0  0  0  0  0  0
  -28.0710  -31.8445   26.5395 H   0  0  0  0  0  0
  -28.2602  -38.0099   24.7504 H   0  0  0  0  0  0
  -28.1062  -36.2630   24.6292 H   0  0  0  0  0  0
  -27.2293  -37.1463   25.8868 H   0  0  0  0  0  0
  -20.9336  -29.8705   21.6879 H   0  0  0  0  0  0
  -26.0169  -38.2866   24.1403 H   0  0  0  0  0  0
  -29.0234  -19.5900   23.0363 H   0  0  0  0  0  0
  -30.0032  -17.3414   23.2218 H   0  0  0  0  0  0
  -28.3419  -18.9401   18.8321 H   0  0  0  0  0  0
  -26.7415  -23.1438   19.2062 H   0  0  0  0  0  0
  -26.1279  -23.2261   20.8928 H   0  0  0  0  0  0
  -27.8970  -24.5884   21.6076 H   0  0  0  0  0  0
  -27.1019  -20.6318   21.8806 H   0  0  0  0  0  0
  -26.8085  -20.3673   20.2071 H   0  0  0  0  0  0
  -27.9830  -25.1971   18.6728 H   0  0  0  0  0  0
  -29.5564  -25.1560   19.3499 H   0  0  0  0  0  0
  -29.3602  -14.9921   21.9921 H   0  0  0  0  0  0
  1 25  1  0  0  0
  1 30  2  0  0  0
  1 83  1  0  0  0
  2  3  1  0  0  0
  2 25  1  0  0  0
  2 86  1  0  0  0
  2 87  1  0  0  0
  3  4  1  0  0  0
  3 88  1  0  0  0
  3 89  1  0  0  0
  4  5  1  0  0  0
  4 90  1  0  0  0
  4 91  1  0  0  0
  5  6  1  0  0  0
  5 26  1  0  0  0
  5 92  1  0  0  0
  6 25  1  0  0  0
  6 93  1  0  0  0
  6 94  1  0  0  0
  7  8  2  0  0  0
  7 26  1  0  0  0
  7 29  1  0  0  0
  8  9  1  0  0  0
  8 22  1  0  0  0
  9 10  1  0  0  0
  9 27  2  0  0  0
 10 11  2  0  0  0
 10 15  1  0  0  0
 11 12  1  0  0  0
 11 95  1  0  0  0
 12 13  2  0  0  0
 12 96  1  0  0  0
 13 14  1  0  0  0
 13 31  1  0  0  0
 14 15  2  0  0  0
 14 97  1  0  0  0
 15 98  1  0  0  0
 16 17  2  0  0  0
 16 21  1  0  0  0
 16 31  1  0  0  0
 17 18  1  0  0  0
 17 99  1  0  0  0
 18 19  2  0  0  0
 18100  1  0  0  0
 19 20  1  0  0  0
 19 24  1  0  0  0
 20 21  2  0  0  0
 20101  1  0  0  0
 21 23  1  0  0  0
 22 28  1  0  0  0
 22 32  2  0  0  0
 26 27  1  0  0  0
 28102  1  0  0  0
 28103  1  0  0  0
 29104  1  0  0  0
 29105  1  0  0  0
 33 34  1  0  0  0
 33 66  1  0  0  0
 33 70  2  0  0  0
 34 36  1  0  0  0
 34 59  1  0  0  0
 34106  1  0  0  0
 35 44  2  0  0  0
 35 45  1  0  0  0
 35 68  1  0  0  0
 36 56  1  0  0  0
 36107  1  0  0  0
 37 39  1  0  0  0
 37 47  1  0  0  0
 37 66  1  0  0  0
 37108  1  0  0  0
 38 43  2  0  0  0
 38 46  1  0  0  0
 38 47  1  0  0  0
 39 64  1  0  0  0
 39 67  2  0  0  0
 40 52  1  0  0  0
 40 53  2  0  0  0
 40 58  1  0  0  0
 41109  1  0  0  0
 41110  1  0  0  0
 41111  1  0  0  0
 41 48  1  0  0  0
 42 43  1  0  0  0
 42 66  1  0  0  0
 42112  1  0  0  0
 42113  1  0  0  0
 43 44  1  0  0  0
 44114  1  0  0  0
 45 46  2  0  0  0
 45115  1  0  0  0
 46116  1  0  0  0
 47117  1  0  0  0
 47118  1  0  0  0
 48 56  1  0  0  0
 48 65  1  0  0  0
 48119  1  0  0  0
 49 50  1  0  0  0
 49 53  1  0  0  0
 49 64  1  0  0  0
 49120  1  0  0  0
 50 51  1  0  0  0
 50121  1  0  0  0
 50122  1  0  0  0
 51 52  1  0  0  0
 51123  1  0  0  0
 51124  1  0  0  0
 52125  1  0  0  0
 52126  1  0  0  0
 53 54  1  0  0  0
 54 55  2  0  0  0
 54127  1  0  0  0
 55 57  1  0  0  0
 55128  1  0  0  0
 56 69  2  0  0  0
 57 58  2  0  0  0
 57129  1  0  0  0
 58130  1  0  0  0
 59 60  1  0  0  0
 59 61  1  0  0  0
 59 62  1  0  0  0
 60131  1  0  0  0
 60132  1  0  0  0
 60133  1  0  0  0
 61134  1  0  0  0
 61135  1  0  0  0
 61136  1  0  0  0
 62137  1  0  0  0
 62138  1  0  0  0
 62139  1  0  0  0
 63 65  1  0  0  0
 63140  1  0  0  0
 63141  1  0  0  0
 63142  1  0  0  0
 64143  1  0  0  0
 65144  1  0  0  0
 68 81  1  0  0  0
 71 72  2  0  0  0
 71 74  1  0  0  0
 71145  1  0  0  0
 72 75  1  0  0  0
 72146  1  0  0  0
 73 74  2  0  0  0
 73 76  1  0  0  0
 73147  1  0  0  0
 74 80  1  0  0  0
 75 76  2  0  0  0
 75 83  1  0  0  0
 76 85  1  0  0  0
 77 79  1  0  0  0
 77 82  1  0  0  0
 77 84  2  0  0  0
 78 79  1  0  0  0
 78 82  1  0  0  0
 78148  1  0  0  0
 78149  1  0  0  0
 79 81  1  0  0  0
 79150  1  0  0  0
 80 82  1  0  0  0
 80151  1  0  0  0
 80152  1  0  0  0
 81153  1  0  0  0
 81154  1  0  0  0
 83155  1  0  0  0
M  ISO  4   1 100  68 101  81 101  83 100
M  END
> <chiral flag>
0

> <version>
0

> <s_m_source_file>
/data/baiqing/PycharmProjects/Reinvent-master-3.2/result/LINK_invent/BTK/process_docking_weight1_custom_product_contain_oxygen_bond_distance_aromatic_linkinvent_7_9_3/rearranged_h_0017.sdf

> <i_m_source_file_index>
69

> <r_mmod_Potential_Energy-OPLS-2005>
-42.109447479248

> <r_mmod_Stretch_Energy-OPLS-2005>
48.7759323120117

> <r_mmod_Bend_Energy-OPLS-2005>
138.788650512695

> <r_mmod_Torsional_Energy-OPLS-2005>
269.045501708984

> <r_mmod_Improper_Torsional_Energy-OPLS-2005>
8.77054119110107

> <r_mmod_Van_der_Waal_Energy-OPLS-2005>
135.625366210938

> <r_mmod_Electrostatic_Energy-OPLS-2005>
-418.866760253906

> <r_mmod_Solvation_Energy-OPLS-2005>
-244.32633972168

> <b_mmod_Minimization_Converged-OPLS-2005>
0

> <r_mmod_RMS_Derivative-OPLS-2005>
1.32710587978363

$$$$
70
                    3D
 Structure written by MMmdl.
161169  0  0  1  0            999 V2000
  -30.7391  -14.4692   20.6267 C   0  0  0  0  0  0
  -30.4128  -12.3312   19.4178 C   0  0  0  0  0  0
  -29.4836  -12.5143   18.2031 C   0  0  0  0  0  0
  -28.0114  -12.3521   18.6210 C   0  0  0  0  0  0
  -27.6550  -13.1999   19.8683 C   0  0  2  0  0  0
  -28.6972  -13.0059   20.9933 C   0  0  0  0  0  0
  -25.2582  -13.8140   20.5673 C   0  0  0  0  0  0
  -24.1829  -13.0426   20.9177 C   0  0  0  0  0  0
  -24.6372  -11.6888   20.8736 C   0  0  0  0  0  0
  -23.9037  -10.4282   21.0407 C   0  0  0  0  0  0
  -24.3597   -9.4202   21.9186 C   0  0  0  0  0  0
  -23.6280   -8.2235   22.0757 C   0  0  0  0  0  0
  -22.4266   -8.0272   21.3542 C   0  0  0  0  0  0
  -21.9891   -9.0242   20.4643 C   0  0  0  0  0  0
  -22.7208  -10.2127   20.3052 C   0  0  0  0  0  0
  -21.6850   -6.0724   22.5275 C   0  0  0  0  0  0
  -21.4011   -6.5632   23.8206 C   0  0  0  0  0  0
  -21.3663   -5.6789   24.9172 C   0  0  0  0  0  0
  -21.6047   -4.3051   24.7224 C   0  0  0  0  0  0
  -21.8821   -3.8138   23.4346 C   0  0  0  0  0  0
  -21.9191   -4.6952   22.3400 C   0  0  0  0  0  0
  -22.7861  -13.5243   21.1836 C   0  0  0  0  0  0
  -22.1661   -4.2135   21.0979 F   0  0  0  0  0  0
  -21.5630   -3.4539   25.7741 F   0  0  0  0  0  0
  -30.0277  -13.3169   20.4457 N   0  0  0  0  0  0
  -26.2990  -12.9285   20.3337 N   0  0  0  0  0  0
  -25.9293  -11.6454   20.5760 N   0  0  0  0  0  0
  -22.0501  -12.8245   22.0398 N   0  0  0  0  0  0
  -25.4306  -15.1855   20.4073 N   0  0  0  0  0  0
  -31.8204  -14.6592   20.0586 O   0  0  0  0  0  0
  -21.6633   -6.8865   21.4236 O   0  0  0  0  0  0
  -22.3559  -14.5550   20.6683 O   0  0  0  0  0  0
  -24.6173  -31.8666   23.2106 C   0  0  0  0  0  0
  -25.9058  -32.4813   23.8404 C   0  0  1  0  0  0
  -27.2272  -27.4049   20.0979 C   0  0  0  0  0  0
  -25.5908  -33.8613   24.2328 N   0  0  0  0  0  0
  -23.4057  -30.4924   21.5514 C   0  0  2  0  0  0
  -24.8496  -28.9603   20.1114 C   0  0  0  0  0  0
  -22.7426  -29.4648   22.4980 C   0  0  0  0  0  0
  -18.0274  -28.1368   22.8485 C   0  0  0  0  0  0
  -24.1484  -36.7316   23.2636 C   0  0  0  0  0  0
  -25.9379  -30.8220   21.3701 C   0  0  0  0  0  0
  -26.0111  -29.4560   20.7151 C   0  0  0  0  0  0
  -27.1995  -28.6848   20.7078 C   0  0  0  0  0  0
  -26.0473  -26.9471   19.4625 C   0  0  0  0  0  0
  -24.8642  -27.7061   19.4827 C   0  0  0  0  0  0
  -23.6147  -29.8307   20.1636 C   0  0  0  0  0  0
  -25.4104  -36.3107   24.0334 C   0  0  1  0  0  0
  -20.5868  -28.3655   23.1305 C   0  0  2  0  0  0
  -20.6760  -26.9386   22.5413 C   0  0  0  0  0  0
  -19.5743  -26.6375   21.5203 C   0  0  0  0  0  0
  -18.1920  -26.7911   22.1612 C   0  0  0  0  0  0
  -19.1527  -28.8827   23.2890 C   0  0  0  0  0  0
  -18.9453  -30.1430   23.8900 C   0  0  0  0  0  0
  -17.6458  -30.6576   24.0556 C   0  0  0  0  0  0
  -25.9035  -34.9471   23.5132 C   0  0  0  0  0  0
  -16.5347  -29.9080   23.6322 C   0  0  0  0  0  0
  -16.7262  -28.6496   23.0343 C   0  0  0  0  0  0
  -26.4481  -31.6597   25.0740 C   0  0  0  0  0  0
  -25.3746  -31.3695   26.1489 C   0  0  0  0  0  0
  -27.0321  -30.3038   24.6130 C   0  0  0  0  0  0
  -27.6059  -32.4320   25.7495 C   0  0  0  0  0  0
  -27.5579  -37.1808   24.8462 C   0  0  0  0  0  0
  -21.4153  -29.3028   22.3722 N   0  0  0  0  0  0
  -26.4290  -37.3794   23.9407 N   0  0  0  0  0  0
  -24.6718  -31.0754   22.1019 N   0  0  0  0  0  0
  -23.4188  -28.8181   23.3022 O   0  0  0  0  0  0
  -28.3935  -26.6532   20.1474 O   0  0  0  0  0  0
  -26.5599  -34.8926   22.4694 O   0  0  0  0  0  0
  -23.5360  -32.1438   23.7485 O   0  0  0  0  0  0
  -29.5847  -18.4841   20.2048 C   0  0  0  0  0  0
  -29.7129  -19.8946   20.2228 C   0  0  0  0  0  0
  -29.4384  -19.8816   22.6304 C   0  0  0  0  0  0
  -29.3628  -17.7567   21.3977 C   0  0  0  0  0  0
  -29.6469  -20.6145   21.4394 C   0  0  0  0  0  0
  -29.2815  -18.4778   22.6122 C   0  0  0  0  0  0
  -31.0735  -22.4037   22.1701 C   0  0  0  0  0  0
  -31.2898  -15.8367   22.5435 C   0  0  0  0  0  0
  -29.1364  -16.2304   21.3600 C   0  0  0  0  0  0
  -29.2145  -24.3891   20.8219 C   0  0  0  0  0  0
  -29.2893  -22.8781   20.4404 C   0  0  0  0  0  0
  -28.3415  -25.2347   19.8610 C   0  0  0  0  0  0
  -29.8273  -22.0184   21.5094 N   0  0  0  0  0  0
  -30.3074  -15.3427   21.5740 N   0  0  0  0  0  0
  -29.0417  -17.8245   23.7749 F   0  0  0  0  0  0
  -31.4554  -12.4258   19.1095 H   0  0  0  0  0  0
  -30.3166  -11.3206   19.8187 H   0  0  0  0  0  0
  -29.7310  -11.7896   17.4265 H   0  0  0  0  0  0
  -29.6356  -13.5015   17.7630 H   0  0  0  0  0  0
  -27.8382  -11.2957   18.8302 H   0  0  0  0  0  0
  -27.3538  -12.6070   17.7894 H   0  0  0  0  0  0
  -27.6848  -14.2369   19.5428 H   0  0  0  0  0  0
  -28.6841  -11.9746   21.3477 H   0  0  0  0  0  0
  -28.4443  -13.6087   21.8651 H   0  0  0  0  0  0
  -25.2741   -9.5686   22.4761 H   0  0  0  0  0  0
  -23.9986   -7.4631   22.7487 H   0  0  0  0  0  0
  -21.0813   -8.8750   19.8957 H   0  0  0  0  0  0
  -22.3654  -10.9665   19.6163 H   0  0  0  0  0  0
  -21.2002   -7.6139   23.9703 H   0  0  0  0  0  0
  -21.1487   -6.0523   25.9074 H   0  0  0  0  0  0
  -22.0599   -2.7597   23.2852 H   0  0  0  0  0  0
  -22.4112  -11.9900   22.4772 H   0  0  0  0  0  0
  -21.1128  -13.1290   22.2619 H   0  0  0  0  0  0
  -24.6605  -15.8379   20.5078 H   0  0  0  0  0  0
  -26.2759  -15.6227   20.0647 H   0  0  0  0  0  0
  -26.7125  -32.5507   23.1165 H   0  0  0  0  0  0
  -25.0051  -33.9764   25.0466 H   0  0  0  0  0  0
  -22.6953  -31.3102   21.4142 H   0  0  0  0  0  0
  -23.3740  -35.9655   23.3313 H   0  0  0  0  0  0
  -24.3576  -36.8930   22.2050 H   0  0  0  0  0  0
  -23.7254  -37.6529   23.6650 H   0  0  0  0  0  0
  -26.0583  -31.5880   20.6031 H   0  0  0  0  0  0
  -26.8224  -30.8706   21.9931 H   0  0  0  0  0  0
  -28.0931  -29.0606   21.1867 H   0  0  0  0  0  0
  -26.0074  -26.0077   18.9322 H   0  0  0  0  0  0
  -23.9749  -27.3243   19.0009 H   0  0  0  0  0  0
  -23.7278  -30.6088   19.4078 H   0  0  0  0  0  0
  -22.7367  -29.2555   19.8631 H   0  0  0  0  0  0
  -25.1285  -36.1976   25.0829 H   0  0  0  0  0  0
  -20.9945  -28.3216   24.1432 H   0  0  0  0  0  0
  -20.5647  -26.2261   23.3605 H   0  0  0  0  0  0
  -21.6633  -26.7418   22.1216 H   0  0  0  0  0  0
  -19.6898  -25.6290   21.1226 H   0  0  0  0  0  0
  -19.6684  -27.3186   20.6735 H   0  0  0  0  0  0
  -17.4189  -26.6659   21.4014 H   0  0  0  0  0  0
  -18.0317  -26.0044   22.9000 H   0  0  0  0  0  0
  -19.7934  -30.7235   24.2277 H   0  0  0  0  0  0
  -17.5020  -31.6256   24.5153 H   0  0  0  0  0  0
  -15.5349  -30.2981   23.7646 H   0  0  0  0  0  0
  -15.8663  -28.0819   22.7050 H   0  0  0  0  0  0
  -24.5927  -30.7031   25.7835 H   0  0  0  0  0  0
  -24.8914  -32.2834   26.4946 H   0  0  0  0  0  0
  -25.8103  -30.8871   27.0245 H   0  0  0  0  0  0
  -26.2868  -29.6784   24.1194 H   0  0  0  0  0  0
  -27.4103  -29.7296   25.4598 H   0  0  0  0  0  0
  -27.8704  -30.4365   23.9288 H   0  0  0  0  0  0
  -27.2691  -33.3617   26.2092 H   0  0  0  0  0  0
  -28.3851  -32.6881   25.0306 H   0  0  0  0  0  0
  -28.0743  -31.8429   26.5390 H   0  0  0  0  0  0
  -28.2603  -38.0100   24.7510 H   0  0  0  0  0  0
  -28.1075  -36.2632   24.6295 H   0  0  0  0  0  0
  -27.2296  -37.1477   25.8867 H   0  0  0  0  0  0
  -20.9318  -29.8795   21.6984 H   0  0  0  0  0  0
  -26.0182  -38.2875   24.1410 H   0  0  0  0  0  0
  -29.6425  -17.9635   19.2593 H   0  0  0  0  0  0
  -29.8869  -20.4115   19.2901 H   0  0  0  0  0  0
  -29.3818  -20.3984   23.5773 H   0  0  0  0  0  0
  -30.8636  -22.9489   23.0917 H   0  0  0  0  0  0
  -31.6755  -23.0476   21.5277 H   0  0  0  0  0  0
  -31.6925  -21.5425   22.4297 H   0  0  0  0  0  0
  -30.8061  -16.1246   23.4759 H   0  0  0  0  0  0
  -31.8289  -16.6990   22.1484 H   0  0  0  0  0  0
  -32.0275  -15.0715   22.7931 H   0  0  0  0  0  0
  -28.3865  -15.9794   22.1118 H   0  0  0  0  0  0
  -28.6668  -16.0078   20.4023 H   0  0  0  0  0  0
  -30.2193  -24.8112   20.8571 H   0  0  0  0  0  0
  -28.8047  -24.4900   21.8277 H   0  0  0  0  0  0
  -29.8865  -22.7628   19.5340 H   0  0  0  0  0  0
  -28.2862  -22.5239   20.1957 H   0  0  0  0  0  0
  -27.3417  -24.8146   19.9546 H   0  0  0  0  0  0
  -28.6590  -25.0809   18.8288 H   0  0  0  0  0  0
  1 25  1  0  0  0
  1 30  2  0  0  0
  1 84  1  0  0  0
  2  3  1  0  0  0
  2 25  1  0  0  0
  2 86  1  0  0  0
  2 87  1  0  0  0
  3  4  1  0  0  0
  3 88  1  0  0  0
  3 89  1  0  0  0
  4  5  1  0  0  0
  4 90  1  0  0  0
  4 91  1  0  0  0
  5  6  1  0  0  0
  5 26  1  0  0  0
  5 92  1  0  0  0
  6 25  1  0  0  0
  6 93  1  0  0  0
  6 94  1  0  0  0
  7  8  2  0  0  0
  7 26  1  0  0  0
  7 29  1  0  0  0
  8  9  1  0  0  0
  8 22  1  0  0  0
  9 10  1  0  0  0
  9 27  2  0  0  0
 10 11  2  0  0  0
 10 15  1  0  0  0
 11 12  1  0  0  0
 11 95  1  0  0  0
 12 13  2  0  0  0
 12 96  1  0  0  0
 13 14  1  0  0  0
 13 31  1  0  0  0
 14 15  2  0  0  0
 14 97  1  0  0  0
 15 98  1  0  0  0
 16 17  2  0  0  0
 16 21  1  0  0  0
 16 31  1  0  0  0
 17 18  1  0  0  0
 17 99  1  0  0  0
 18 19  2  0  0  0
 18100  1  0  0  0
 19 20  1  0  0  0
 19 24  1  0  0  0
 20 21  2  0  0  0
 20101  1  0  0  0
 21 23  1  0  0  0
 22 28  1  0  0  0
 22 32  2  0  0  0
 26 27  1  0  0  0
 28102  1  0  0  0
 28103  1  0  0  0
 29104  1  0  0  0
 29105  1  0  0  0
 33 34  1  0  0  0
 33 66  1  0  0  0
 33 70  2  0  0  0
 34 36  1  0  0  0
 34 59  1  0  0  0
 34106  1  0  0  0
 35 44  2  0  0  0
 35 45  1  0  0  0
 35 68  1  0  0  0
 36 56  1  0  0  0
 36107  1  0  0  0
 37 39  1  0  0  0
 37 47  1  0  0  0
 37 66  1  0  0  0
 37108  1  0  0  0
 38 43  2  0  0  0
 38 46  1  0  0  0
 38 47  1  0  0  0
 39 64  1  0  0  0
 39 67  2  0  0  0
 40 52  1  0  0  0
 40 53  2  0  0  0
 40 58  1  0  0  0
 41109  1  0  0  0
 41110  1  0  0  0
 41111  1  0  0  0
 41 48  1  0  0  0
 42 43  1  0  0  0
 42 66  1  0  0  0
 42112  1  0  0  0
 42113  1  0  0  0
 43 44  1  0  0  0
 44114  1  0  0  0
 45 46  2  0  0  0
 45115  1  0  0  0
 46116  1  0  0  0
 47117  1  0  0  0
 47118  1  0  0  0
 48 56  1  0  0  0
 48 65  1  0  0  0
 48119  1  0  0  0
 49 50  1  0  0  0
 49 53  1  0  0  0
 49 64  1  0  0  0
 49120  1  0  0  0
 50 51  1  0  0  0
 50121  1  0  0  0
 50122  1  0  0  0
 51 52  1  0  0  0
 51123  1  0  0  0
 51124  1  0  0  0
 52125  1  0  0  0
 52126  1  0  0  0
 53 54  1  0  0  0
 54 55  2  0  0  0
 54127  1  0  0  0
 55 57  1  0  0  0
 55128  1  0  0  0
 56 69  2  0  0  0
 57 58  2  0  0  0
 57129  1  0  0  0
 58130  1  0  0  0
 59 60  1  0  0  0
 59 61  1  0  0  0
 59 62  1  0  0  0
 60131  1  0  0  0
 60132  1  0  0  0
 60133  1  0  0  0
 61134  1  0  0  0
 61135  1  0  0  0
 61136  1  0  0  0
 62137  1  0  0  0
 62138  1  0  0  0
 62139  1  0  0  0
 63 65  1  0  0  0
 63140  1  0  0  0
 63141  1  0  0  0
 63142  1  0  0  0
 64143  1  0  0  0
 65144  1  0  0  0
 68 82  1  0  0  0
 71 72  2  0  0  0
 71 74  1  0  0  0
 71145  1  0  0  0
 72 75  1  0  0  0
 72146  1  0  0  0
 73 75  2  0  0  0
 73 76  1  0  0  0
 73147  1  0  0  0
 74 76  2  0  0  0
 74 79  1  0  0  0
 75 83  1  0  0  0
 76 85  1  0  0  0
 77 83  1  0  0  0
 77148  1  0  0  0
 77149  1  0  0  0
 77150  1  0  0  0
 78 84  1  0  0  0
 78151  1  0  0  0
 78152  1  0  0  0
 78153  1  0  0  0
 79 84  1  0  0  0
 79154  1  0  0  0
 79155  1  0  0  0
 80 81  1  0  0  0
 80 82  1  0  0  0
 80156  1  0  0  0
 80157  1  0  0  0
 81 83  1  0  0  0
 81158  1  0  0  0
 81159  1  0  0  0
 82160  1  0  0  0
 82161  1  0  0  0
M  ISO  4   1 100  68 101  82 101  84 100
M  END
> <chiral flag>
0

> <version>
0

> <s_m_source_file>
/data/baiqing/PycharmProjects/Reinvent-master-3.2/result/LINK_invent/BTK/process_docking_weight1_custom_product_contain_oxygen_bond_distance_aromatic_linkinvent_7_9_3/rearranged_h_0017.sdf

> <i_m_source_file_index>
70

> <r_mmod_Potential_Energy-OPLS-2005>
108.428802490234

> <r_mmod_Stretch_Energy-OPLS-2005>
44.937442779541

> <r_mmod_Bend_Energy-OPLS-2005>
110.963203430176

> <r_mmod_Torsional_Energy-OPLS-2005>
274.612030029297

> <r_mmod_Improper_Torsional_Energy-OPLS-2005>
7.38503885269165

> <r_mmod_Van_der_Waal_Energy-OPLS-2005>
158.607894897461

> <r_mmod_Electrostatic_Energy-OPLS-2005>
-295.229187011719

> <r_mmod_Solvation_Energy-OPLS-2005>
-208.233032226562

> <b_mmod_Minimization_Converged-OPLS-2005>
0

> <r_mmod_RMS_Derivative-OPLS-2005>
1.12671661376953

$$$$
71
                    3D
 Structure written by MMmdl.
165173  0  0  1  0            999 V2000
  -30.7126  -14.4972   20.4082 C   0  0  0  0  0  0
  -30.4241  -12.2830   19.4357 C   0  0  0  0  0  0
  -29.4961  -12.4177   18.2076 C   0  0  0  0  0  0
  -28.0174  -12.3007   18.6269 C   0  0  0  0  0  0
  -27.6541  -13.1975   19.8408 C   0  0  2  0  0  0
  -28.7005  -13.0938   20.9738 C   0  0  0  0  0  0
  -25.2646  -13.8130   20.5671 C   0  0  0  0  0  0
  -24.1888  -13.0431   20.9233 C   0  0  0  0  0  0
  -24.6397  -11.6894   20.8715 C   0  0  0  0  0  0
  -23.9061  -10.4285   21.0378 C   0  0  0  0  0  0
  -24.3639   -9.4218   21.9167 C   0  0  0  0  0  0
  -23.6321   -8.2239   22.0745 C   0  0  0  0  0  0
  -22.4296   -8.0271   21.3549 C   0  0  0  0  0  0
  -21.9938   -9.0257   20.4639 C   0  0  0  0  0  0
  -22.7234  -10.2141   20.3032 C   0  0  0  0  0  0
  -21.6877   -6.0732   22.5253 C   0  0  0  0  0  0
  -21.4022   -6.5626   23.8180 C   0  0  0  0  0  0
  -21.3664   -5.6765   24.9156 C   0  0  0  0  0  0
  -21.6069   -4.3033   24.7199 C   0  0  0  0  0  0
  -21.8824   -3.8141   23.4318 C   0  0  0  0  0  0
  -21.9225   -4.6977   22.3374 C   0  0  0  0  0  0
  -22.7901  -13.5229   21.1866 C   0  0  0  0  0  0
  -22.1681   -4.2163   21.0956 F   0  0  0  0  0  0
  -21.5668   -3.4487   25.7702 F   0  0  0  0  0  0
  -30.0258  -13.3270   20.3859 N   0  0  0  0  0  0
  -26.3027  -12.9275   20.3248 N   0  0  0  0  0  0
  -25.9316  -11.6464   20.5752 N   0  0  0  0  0  0
  -22.0552  -12.8176   22.0405 N   0  0  0  0  0  0
  -25.4400  -15.1822   20.4088 N   0  0  0  0  0  0
  -31.9437  -14.5342   20.3516 O   0  0  0  0  0  0
  -21.6662   -6.8876   21.4209 O   0  0  0  0  0  0
  -22.3571  -14.5510   20.6683 O   0  0  0  0  0  0
  -24.6081  -31.8712   23.2118 C   0  0  0  0  0  0
  -25.9009  -32.4824   23.8393 C   0  0  1  0  0  0
  -27.2457  -27.4898   20.0891 C   0  0  0  0  0  0
  -25.5875  -33.8621   24.2342 N   0  0  0  0  0  0
  -23.3962  -30.4932   21.5520 C   0  0  2  0  0  0
  -24.8443  -28.9553   20.1241 C   0  0  0  0  0  0
  -22.7387  -29.4675   22.5007 C   0  0  0  0  0  0
  -18.0269  -28.1379   22.8495 C   0  0  0  0  0  0
  -24.1491  -36.7315   23.2642 C   0  0  0  0  0  0
  -25.9184  -30.8472   21.3623 C   0  0  0  0  0  0
  -25.9957  -29.4814   20.7225 C   0  0  0  0  0  0
  -27.2007  -28.7526   20.7070 C   0  0  0  0  0  0
  -26.0823  -26.9524   19.5027 C   0  0  0  0  0  0
  -24.8757  -27.6825   19.5214 C   0  0  0  0  0  0
  -23.6035  -29.8180   20.1686 C   0  0  0  0  0  0
  -25.4117  -36.3117   24.0338 C   0  0  1  0  0  0
  -20.5852  -28.3659   23.1324 C   0  0  2  0  0  0
  -20.6769  -26.9403   22.5416 C   0  0  0  0  0  0
  -19.5743  -26.6402   21.5210 C   0  0  0  0  0  0
  -18.1918  -26.7932   22.1628 C   0  0  0  0  0  0
  -19.1516  -28.8840   23.2906 C   0  0  0  0  0  0
  -18.9453  -30.1449   23.8909 C   0  0  0  0  0  0
  -17.6461  -30.6579   24.0574 C   0  0  0  0  0  0
  -25.9026  -34.9482   23.5142 C   0  0  0  0  0  0
  -16.5349  -29.9088   23.6329 C   0  0  0  0  0  0
  -16.7266  -28.6508   23.0338 C   0  0  0  0  0  0
  -26.4466  -31.6581   25.0699 C   0  0  0  0  0  0
  -25.3753  -31.3633   26.1461 C   0  0  0  0  0  0
  -27.0317  -30.3054   24.6037 C   0  0  0  0  0  0
  -27.6076  -32.4286   25.7430 C   0  0  0  0  0  0
  -27.5588  -37.1808   24.8469 C   0  0  0  0  0  0
  -21.4131  -29.3021   22.3737 N   0  0  0  0  0  0
  -26.4307  -37.3806   23.9406 N   0  0  0  0  0  0
  -24.6587  -31.0850   22.1002 N   0  0  0  0  0  0
  -23.4181  -28.8245   23.3051 O   0  0  0  0  0  0
  -28.4386  -26.8278   19.9976 O   0  0  0  0  0  0
  -26.5613  -34.8938   22.4724 O   0  0  0  0  0  0
  -23.5293  -32.1443   23.7551 O   0  0  0  0  0  0
  -29.1690  -18.4083   18.7372 C   0  0  0  0  0  0
  -29.5611  -19.6953   18.3389 C   0  0  0  0  0  0
  -30.0430  -18.8307   20.9703 C   0  0  0  0  0  0
  -29.4723  -17.9371   20.0360 C   0  0  0  0  0  0
  -30.1536  -20.5781   19.2611 C   0  0  0  0  0  0
  -30.3677  -20.1498   20.5905 C   0  0  0  0  0  0
  -30.5814  -15.8123   18.3941 C   0  0  0  0  0  0
  -28.6873  -22.8959   17.4321 C   0  0  0  0  0  0
  -29.1979  -16.4758   20.4080 C   0  0  0  0  0  0
  -30.5414  -21.9796   18.8208 C   0  0  0  0  0  0
  -28.5602  -24.4859   20.4606 C   0  0  0  0  0  0
  -29.5534  -24.2192   19.3186 C   0  0  0  0  0  0
  -28.6926  -25.8964   21.0354 C   0  0  0  0  0  0
  -30.0586  -15.4739   19.7345 N   0  0  0  0  0  0
  -29.3463  -22.8599   18.7632 N   0  3  1  0  0  0
  -30.9135  -20.9952   21.4980 F   0  0  0  0  0  0
  -30.3225  -11.2988   19.8975 H   0  0  0  0  0  0
  -31.4738  -12.3652   19.1452 H   0  0  0  0  0  0
  -29.7263  -11.6457   17.4718 H   0  0  0  0  0  0
  -29.6638  -13.3692   17.7021 H   0  0  0  0  0  0
  -27.8266  -11.2551   18.8712 H   0  0  0  0  0  0
  -27.3658  -12.5246   17.7833 H   0  0  0  0  0  0
  -27.6678  -14.2143   19.4552 H   0  0  0  0  0  0
  -28.4846  -13.8193   21.7624 H   0  0  0  0  0  0
  -28.6703  -12.1119   21.4481 H   0  0  0  0  0  0
  -25.2814   -9.5682   22.4715 H   0  0  0  0  0  0
  -24.0061   -7.4625   22.7428 H   0  0  0  0  0  0
  -21.0898   -8.8758   19.8912 H   0  0  0  0  0  0
  -22.3718  -10.9695   19.6118 H   0  0  0  0  0  0
  -21.1951   -7.6121   23.9666 H   0  0  0  0  0  0
  -21.1504   -6.0503   25.9055 H   0  0  0  0  0  0
  -22.0605   -2.7610   23.2784 H   0  0  0  0  0  0
  -22.4223  -11.9867   22.4809 H   0  0  0  0  0  0
  -21.1165  -13.1146   22.2596 H   0  0  0  0  0  0
  -24.6716  -15.8333   20.5211 H   0  0  0  0  0  0
  -26.2852  -15.6194   20.0671 H   0  0  0  0  0  0
  -26.7086  -32.5580   23.1158 H   0  0  0  0  0  0
  -24.9988  -33.9804   25.0454 H   0  0  0  0  0  0
  -22.6816  -31.3066   21.4114 H   0  0  0  0  0  0
  -23.3748  -35.9647   23.3304 H   0  0  0  0  0  0
  -24.3581  -36.8944   22.2059 H   0  0  0  0  0  0
  -23.7252  -37.6529   23.6648 H   0  0  0  0  0  0
  -26.0260  -31.6070   20.5864 H   0  0  0  0  0  0
  -26.8114  -30.9068   21.9741 H   0  0  0  0  0  0
  -28.1025  -29.1606   21.1439 H   0  0  0  0  0  0
  -26.1142  -25.9865   19.0172 H   0  0  0  0  0  0
  -23.9892  -27.2683   19.0602 H   0  0  0  0  0  0
  -23.7123  -30.5909   19.4062 H   0  0  0  0  0  0
  -22.7289  -29.2341   19.8754 H   0  0  0  0  0  0
  -25.1283  -36.1986   25.0826 H   0  0  0  0  0  0
  -20.9950  -28.3230   24.1440 H   0  0  0  0  0  0
  -20.5691  -26.2266   23.3601 H   0  0  0  0  0  0
  -21.6637  -26.7464   22.1193 H   0  0  0  0  0  0
  -19.6909  -25.6323   21.1208 H   0  0  0  0  0  0
  -19.6672  -27.3242   20.6765 H   0  0  0  0  0  0
  -17.4199  -26.6687   21.4021 H   0  0  0  0  0  0
  -18.0310  -26.0043   22.9001 H   0  0  0  0  0  0
  -19.7925  -30.7260   24.2271 H   0  0  0  0  0  0
  -17.5013  -31.6252   24.5181 H   0  0  0  0  0  0
  -15.5346  -30.3008   23.7628 H   0  0  0  0  0  0
  -15.8668  -28.0851   22.7028 H   0  0  0  0  0  0
  -24.5925  -30.6995   25.7767 H   0  0  0  0  0  0
  -24.8929  -32.2763   26.4970 H   0  0  0  0  0  0
  -25.8131  -30.8745   27.0177 H   0  0  0  0  0  0
  -26.2841  -29.6760   24.1215 H   0  0  0  0  0  0
  -27.4268  -29.7343   25.4443 H   0  0  0  0  0  0
  -27.8569  -30.4405   23.9046 H   0  0  0  0  0  0
  -27.2733  -33.3584   26.2047 H   0  0  0  0  0  0
  -28.3836  -32.6871   25.0200 H   0  0  0  0  0  0
  -28.0791  -31.8378   26.5297 H   0  0  0  0  0  0
  -28.2616  -38.0102   24.7536 H   0  0  0  0  0  0
  -28.1084  -36.2645   24.6257 H   0  0  0  0  0  0
  -27.2301  -37.1404   25.8875 H   0  0  0  0  0  0
  -20.9303  -29.8681   21.6903 H   0  0  0  0  0  0
  -26.0190  -38.2883   24.1430 H   0  0  0  0  0  0
  -28.6906  -17.7675   18.0091 H   0  0  0  0  0  0
  -29.4078  -19.9928   17.3119 H   0  0  0  0  0  0
  -30.2450  -18.5115   21.9826 H   0  0  0  0  0  0
  -29.7631  -15.8931   17.6773 H   0  0  0  0  0  0
  -31.2595  -15.0544   17.9996 H   0  0  0  0  0  0
  -31.1619  -16.7350   18.3984 H   0  0  0  0  0  0
  -28.3465  -21.9132   17.1107 H   0  0  0  0  0  0
  -29.3606  -23.2898   16.6707 H   0  0  0  0  0  0
  -27.8056  -23.5373   17.4587 H   0  0  0  0  0  0
  -29.2595  -16.3657   21.4933 H   0  0  0  0  0  0
  -28.1574  -16.2820   20.1544 H   0  0  0  0  0  0
  -31.0522  -21.9524   17.8560 H   0  0  0  0  0  0
  -31.2779  -22.3499   19.5337 H   0  0  0  0  0  0
  -28.7247  -23.7652   21.2628 H   0  0  0  0  0  0
  -27.5401  -24.3346   20.1076 H   0  0  0  0  0  0
  -30.5697  -24.3639   19.6839 H   0  0  0  0  0  0
  -29.4284  -24.9700   18.5353 H   0  0  0  0  0  0
  -29.7062  -26.0576   21.4047 H   0  0  0  0  0  0
  -28.0220  -26.0225   21.8878 H   0  0  0  0  0  0
  -28.6864  -22.4231   19.3882 H   0  0  0  0  0  0
  1 25  1  0  0  0
  1 30  2  0  0  0
  1 84  1  0  0  0
  2  3  1  0  0  0
  2 25  1  0  0  0
  2 87  1  0  0  0
  2 88  1  0  0  0
  3  4  1  0  0  0
  3 89  1  0  0  0
  3 90  1  0  0  0
  4  5  1  0  0  0
  4 91  1  0  0  0
  4 92  1  0  0  0
  5  6  1  0  0  0
  5 26  1  0  0  0
  5 93  1  0  0  0
  6 25  1  0  0  0
  6 94  1  0  0  0
  6 95  1  0  0  0
  7  8  2  0  0  0
  7 26  1  0  0  0
  7 29  1  0  0  0
  8  9  1  0  0  0
  8 22  1  0  0  0
  9 10  1  0  0  0
  9 27  2  0  0  0
 10 11  2  0  0  0
 10 15  1  0  0  0
 11 12  1  0  0  0
 11 96  1  0  0  0
 12 13  2  0  0  0
 12 97  1  0  0  0
 13 14  1  0  0  0
 13 31  1  0  0  0
 14 15  2  0  0  0
 14 98  1  0  0  0
 15 99  1  0  0  0
 16 17  2  0  0  0
 16 21  1  0  0  0
 16 31  1  0  0  0
 17 18  1  0  0  0
 17100  1  0  0  0
 18 19  2  0  0  0
 18101  1  0  0  0
 19 20  1  0  0  0
 19 24  1  0  0  0
 20 21  2  0  0  0
 20102  1  0  0  0
 21 23  1  0  0  0
 22 28  1  0  0  0
 22 32  2  0  0  0
 26 27  1  0  0  0
 28103  1  0  0  0
 28104  1  0  0  0
 29105  1  0  0  0
 29106  1  0  0  0
 33 34  1  0  0  0
 33 66  1  0  0  0
 33 70  2  0  0  0
 34 36  1  0  0  0
 34 59  1  0  0  0
 34107  1  0  0  0
 35 44  2  0  0  0
 35 45  1  0  0  0
 35 68  1  0  0  0
 36 56  1  0  0  0
 36108  1  0  0  0
 37 39  1  0  0  0
 37 47  1  0  0  0
 37 66  1  0  0  0
 37109  1  0  0  0
 38 43  2  0  0  0
 38 46  1  0  0  0
 38 47  1  0  0  0
 39 64  1  0  0  0
 39 67  2  0  0  0
 40 52  1  0  0  0
 40 53  2  0  0  0
 40 58  1  0  0  0
 41110  1  0  0  0
 41111  1  0  0  0
 41112  1  0  0  0
 41 48  1  0  0  0
 42 43  1  0  0  0
 42 66  1  0  0  0
 42113  1  0  0  0
 42114  1  0  0  0
 43 44  1  0  0  0
 44115  1  0  0  0
 45 46  2  0  0  0
 45116  1  0  0  0
 46117  1  0  0  0
 47118  1  0  0  0
 47119  1  0  0  0
 48 56  1  0  0  0
 48 65  1  0  0  0
 48120  1  0  0  0
 49 50  1  0  0  0
 49 53  1  0  0  0
 49 64  1  0  0  0
 49121  1  0  0  0
 50 51  1  0  0  0
 50122  1  0  0  0
 50123  1  0  0  0
 51 52  1  0  0  0
 51124  1  0  0  0
 51125  1  0  0  0
 52126  1  0  0  0
 52127  1  0  0  0
 53 54  1  0  0  0
 54 55  2  0  0  0
 54128  1  0  0  0
 55 57  1  0  0  0
 55129  1  0  0  0
 56 69  2  0  0  0
 57 58  2  0  0  0
 57130  1  0  0  0
 58131  1  0  0  0
 59 60  1  0  0  0
 59 61  1  0  0  0
 59 62  1  0  0  0
 60132  1  0  0  0
 60133  1  0  0  0
 60134  1  0  0  0
 61135  1  0  0  0
 61136  1  0  0  0
 61137  1  0  0  0
 62138  1  0  0  0
 62139  1  0  0  0
 62140  1  0  0  0
 63 65  1  0  0  0
 63141  1  0  0  0
 63142  1  0  0  0
 63143  1  0  0  0
 64144  1  0  0  0
 65145  1  0  0  0
 68 83  1  0  0  0
 71 72  2  0  0  0
 71 74  1  0  0  0
 71146  1  0  0  0
 72 75  1  0  0  0
 72147  1  0  0  0
 73 74  2  0  0  0
 73 76  1  0  0  0
 73148  1  0  0  0
 74 79  1  0  0  0
 75 76  2  0  0  0
 75 80  1  0  0  0
 76 86  1  0  0  0
 77 84  1  0  0  0
 77149  1  0  0  0
 77150  1  0  0  0
 77151  1  0  0  0
 78152  1  0  0  0
 78153  1  0  0  0
 78154  1  0  0  0
 78 85  1  0  0  0
 79 84  1  0  0  0
 79155  1  0  0  0
 79156  1  0  0  0
 80 85  1  0  0  0
 80157  1  0  0  0
 80158  1  0  0  0
 81 82  1  0  0  0
 81 83  1  0  0  0
 81159  1  0  0  0
 81160  1  0  0  0
 82 85  1  0  0  0
 82161  1  0  0  0
 82162  1  0  0  0
 83163  1  0  0  0
 83164  1  0  0  0
 85165  1  0  0  0
M  CHG  1  85   1
M  ISO  4   1 100  68 101  83 101  84 100
M  END
> <chiral flag>
0

> <version>
0

> <s_m_source_file>
/data/baiqing/PycharmProjects/Reinvent-master-3.2/result/LINK_invent/BTK/process_docking_weight1_custom_product_contain_oxygen_bond_distance_aromatic_linkinvent_7_9_3/rearranged_h_0017.sdf

> <i_m_source_file_index>
71

> <r_mmod_Potential_Energy-OPLS-2005>
19.3048477172852

> <r_mmod_Stretch_Energy-OPLS-2005>
34.0043716430664

> <r_mmod_Bend_Energy-OPLS-2005>
93.1738433837891

> <r_mmod_Torsional_Energy-OPLS-2005>
328.671234130859

> <r_mmod_Improper_Torsional_Energy-OPLS-2005>
30.9154891967773

> <r_mmod_Van_der_Waal_Energy-OPLS-2005>
160.376327514648

> <r_mmod_Electrostatic_Energy-OPLS-2005>
-242.605209350586

> <r_mmod_Solvation_Energy-OPLS-2005>
-420.481781005859

> <b_mmod_Minimization_Converged-OPLS-2005>
0

> <r_mmod_RMS_Derivative-OPLS-2005>
4.50510787963867

$$$$
72
                    3D
 Structure written by MMmdl.
167175  0  0  1  0            999 V2000
  -30.6197  -14.4607   20.6058 C   0  0  0  0  0  0
  -30.4436  -12.3188   19.3658 C   0  0  0  0  0  0
  -29.4835  -12.5251   18.1703 C   0  0  0  0  0  0
  -28.0055  -12.3315   18.5974 C   0  0  0  0  0  0
  -27.6478  -13.1436   19.8608 C   0  0  2  0  0  0
  -28.7051  -12.8668   20.9495 C   0  0  0  0  0  0
  -25.2567  -13.7958   20.5729 C   0  0  0  0  0  0
  -24.1806  -13.0348   20.9257 C   0  0  0  0  0  0
  -24.6243  -11.6754   20.8765 C   0  0  0  0  0  0
  -23.8857  -10.4216   21.0391 C   0  0  0  0  0  0
  -24.3460   -9.4145   21.9171 C   0  0  0  0  0  0
  -23.6179   -8.2163   22.0717 C   0  0  0  0  0  0
  -22.4177   -8.0173   21.3496 C   0  0  0  0  0  0
  -21.9782   -9.0132   20.4615 C   0  0  0  0  0  0
  -22.7035  -10.2052   20.3005 C   0  0  0  0  0  0
  -21.6856   -6.0664   22.5260 C   0  0  0  0  0  0
  -21.4006   -6.5576   23.8191 C   0  0  0  0  0  0
  -21.3654   -5.6750   24.9180 C   0  0  0  0  0  0
  -21.6033   -4.2997   24.7263 C   0  0  0  0  0  0
  -21.8824   -3.8077   23.4389 C   0  0  0  0  0  0
  -21.9188   -4.6886   22.3435 C   0  0  0  0  0  0
  -22.7833  -13.5188   21.1940 C   0  0  0  0  0  0
  -22.1659   -4.2061   21.1020 F   0  0  0  0  0  0
  -21.5650   -3.4499   25.7799 F   0  0  0  0  0  0
  -30.0196  -13.2556   20.4193 N   0  0  0  0  0  0
  -26.2932  -12.8994   20.3380 N   0  0  0  0  0  0
  -25.9140  -11.6209   20.5778 N   0  0  0  0  0  0
  -22.0484  -12.8189   22.0450 N   0  0  0  0  0  0
  -25.4289  -15.1729   20.4018 N   0  0  0  0  0  0
  -31.7122  -14.7205   20.0867 O   0  0  0  0  0  0
  -21.6565   -6.8772   21.4192 O   0  0  0  0  0  0
  -22.3554  -14.5520   20.6747 O   0  0  0  0  0  0
  -24.6115  -31.8642   23.2041 C   0  0  0  0  0  0
  -25.8993  -32.4809   23.8376 C   0  0  1  0  0  0
  -27.2706  -27.4553   20.0915 C   0  0  0  0  0  0
  -25.5849  -33.8610   24.2310 N   0  0  0  0  0  0
  -23.4103  -30.4737   21.5394 C   0  0  2  0  0  0
  -24.8614  -28.9395   20.1135 C   0  0  0  0  0  0
  -22.7442  -29.4535   22.4936 C   0  0  0  0  0  0
  -18.0215  -28.1391   22.8419 C   0  0  0  0  0  0
  -24.1479  -36.7344   23.2634 C   0  0  0  0  0  0
  -25.9257  -30.8317   21.3597 C   0  0  0  0  0  0
  -26.0101  -29.4622   20.7172 C   0  0  0  0  0  0
  -27.2059  -28.7168   20.7200 C   0  0  0  0  0  0
  -26.0984  -26.9343   19.4895 C   0  0  0  0  0  0
  -24.8998  -27.6753   19.4990 C   0  0  0  0  0  0
  -23.6271  -29.8045   20.1527 C   0  0  0  0  0  0
  -25.4104  -36.3116   24.0332 C   0  0  1  0  0  0
  -20.5813  -28.3669   23.1371 C   0  0  2  0  0  0
  -20.6652  -26.9391   22.5450 C   0  0  0  0  0  0
  -19.5747  -26.6438   21.5129 C   0  0  0  0  0  0
  -18.1897  -26.8010   22.1434 C   0  0  0  0  0  0
  -19.1435  -28.8809   23.2952 C   0  0  0  0  0  0
  -18.9354  -30.1388   23.8988 C   0  0  0  0  0  0
  -17.6366  -30.6542   24.0606 C   0  0  0  0  0  0
  -25.9014  -34.9476   23.5135 C   0  0  0  0  0  0
  -16.5278  -29.9059   23.6306 C   0  0  0  0  0  0
  -16.7213  -28.6505   23.0248 C   0  0  0  0  0  0
  -26.4467  -31.6597   25.0699 C   0  0  0  0  0  0
  -25.3758  -31.3673   26.1452 C   0  0  0  0  0  0
  -27.0316  -30.3047   24.6098 C   0  0  0  0  0  0
  -27.6015  -32.4335   25.7495 C   0  0  0  0  0  0
  -27.5580  -37.1829   24.8463 C   0  0  0  0  0  0
  -21.4148  -29.3060   22.3783 N   0  0  0  0  0  0
  -26.4291  -37.3795   23.9398 N   0  0  0  0  0  0
  -24.6647  -31.0751   22.0933 N   0  0  0  0  0  0
  -23.4192  -28.8026   23.2932 O   0  0  0  0  0  0
  -28.4921  -26.8121   20.1102 O   0  0  0  0  0  0
  -26.5569  -34.8905   22.4689 O   0  0  0  0  0  0
  -23.5297  -32.1399   23.7385 O   0  0  0  0  0  0
  -27.9550  -20.5190   21.9849 C   0  0  0  0  0  0
  -28.5022  -19.2607   21.6596 C   0  0  0  0  0  0
  -28.0183  -21.1365   19.6512 C   0  0  0  0  0  0
  -27.6799  -21.4731   20.9826 C   0  0  0  0  0  0
  -28.7973  -18.8949   20.3237 C   0  0  0  0  0  0
  -28.5496  -19.8732   19.3156 C   0  0  0  0  0  0
  -24.5984  -22.6206   21.3212 C   0  0  0  0  0  0
  -29.8326  -17.3060   18.7224 C   0  0  0  0  0  0
  -29.9252  -15.5366   21.4870 C   0  0  0  0  0  0
  -28.6428  -24.3752   20.2659 C   0  0  0  0  0  0
  -25.8836  -22.6937   22.1587 C   0  0  0  0  0  0
  -28.8304  -16.4559   20.8384 C   0  0  0  0  0  0
  -27.2063  -23.8500   20.4061 C   0  0  0  0  0  0
  -28.7318  -25.6217   19.3640 C   0  0  0  0  0  0
  -29.3378  -17.6018   20.0625 N   0  0  0  0  0  0
  -27.0955  -22.7179   21.3291 N   0  0  0  0  0  0
  -28.7973  -19.6345   18.0035 F   0  0  0  0  0  0
  -31.4905  -12.4352   19.0673 H   0  0  0  0  0  0
  -30.3761  -11.2983   19.7418 H   0  0  0  0  0  0
  -29.7284  -11.8396   17.3583 H   0  0  0  0  0  0
  -29.6182  -13.5297   17.7573 H   0  0  0  0  0  0
  -27.8447  -11.2759   18.7936 H   0  0  0  0  0  0
  -27.3300  -12.5793   17.7782 H   0  0  0  0  0  0
  -27.6699  -14.1703   19.5247 H   0  0  0  0  0  0
  -28.7448  -11.7916   21.1407 H   0  0  0  0  0  0
  -28.4366  -13.2917   21.9105 H   0  0  0  0  0  0
  -25.2580   -9.5701   22.4779 H   0  0  0  0  0  0
  -23.9901   -7.4559   22.7424 H   0  0  0  0  0  0
  -21.0707   -8.8513   19.8984 H   0  0  0  0  0  0
  -22.3329  -10.9536   19.6119 H   0  0  0  0  0  0
  -21.1947   -7.6077   23.9674 H   0  0  0  0  0  0
  -21.1508   -6.0504   25.9103 H   0  0  0  0  0  0
  -22.0620   -2.7521   23.2922 H   0  0  0  0  0  0
  -22.4045  -11.9792   22.4804 H   0  0  0  0  0  0
  -21.1154  -13.1236   22.2769 H   0  0  0  0  0  0
  -24.6561  -15.8241   20.4716 H   0  0  0  0  0  0
  -26.2410  -15.5853   19.9693 H   0  0  0  0  0  0
  -26.7072  -32.5568   23.1149 H   0  0  0  0  0  0
  -25.0046  -33.9837   25.0494 H   0  0  0  0  0  0
  -22.6988  -31.2828   21.3889 H   0  0  0  0  0  0
  -23.3694  -35.9716   23.3304 H   0  0  0  0  0  0
  -24.3558  -36.8949   22.2039 H   0  0  0  0  0  0
  -23.7295  -37.6575   23.6649 H   0  0  0  0  0  0
  -26.0324  -31.5849   20.5782 H   0  0  0  0  0  0
  -26.8136  -30.8983   21.9768 H   0  0  0  0  0  0
  -28.0879  -29.1085   21.2110 H   0  0  0  0  0  0
  -26.0761  -25.9628   19.0200 H   0  0  0  0  0  0
  -24.0217  -27.2728   19.0177 H   0  0  0  0  0  0
  -23.7465  -30.5656   19.3834 H   0  0  0  0  0  0
  -22.7595  -29.2161   19.8530 H   0  0  0  0  0  0
  -25.1268  -36.1973   25.0821 H   0  0  0  0  0  0
  -20.9880  -28.3134   24.1505 H   0  0  0  0  0  0
  -20.5291  -26.2349   23.3644 H   0  0  0  0  0  0
  -21.6544  -26.7219   22.1383 H   0  0  0  0  0  0
  -19.6812  -25.6286   21.1286 H   0  0  0  0  0  0
  -19.6824  -27.3170   20.6604 H   0  0  0  0  0  0
  -17.4222  -26.6784   21.3796 H   0  0  0  0  0  0
  -18.0268  -26.0109   22.8779 H   0  0  0  0  0  0
  -19.7873  -30.7107   24.2417 H   0  0  0  0  0  0
  -17.4888  -31.6214   24.5220 H   0  0  0  0  0  0
  -15.5274  -30.2931   23.7586 H   0  0  0  0  0  0
  -15.8587  -28.0949   22.6869 H   0  0  0  0  0  0
  -24.5893  -30.7084   25.7766 H   0  0  0  0  0  0
  -24.9017  -32.2816   26.5001 H   0  0  0  0  0  0
  -25.8122  -30.8755   27.0153 H   0  0  0  0  0  0
  -26.2879  -29.6778   24.1160 H   0  0  0  0  0  0
  -27.4064  -29.7313   25.4576 H   0  0  0  0  0  0
  -27.8703  -30.4316   23.9253 H   0  0  0  0  0  0
  -27.2588  -33.3568   26.2166 H   0  0  0  0  0  0
  -28.3800  -32.7017   25.0350 H   0  0  0  0  0  0
  -28.0729  -31.8443   26.5369 H   0  0  0  0  0  0
  -28.2596  -38.0124   24.7456 H   0  0  0  0  0  0
  -28.1076  -36.2645   24.6326 H   0  0  0  0  0  0
  -27.2292  -37.1518   25.8868 H   0  0  0  0  0  0
  -20.9363  -29.8911   21.7070 H   0  0  0  0  0  0
  -26.0166  -38.2863   24.1387 H   0  0  0  0  0  0
  -27.7848  -20.7528   23.0253 H   0  0  0  0  0  0
  -28.7070  -18.5777   22.4680 H   0  0  0  0  0  0
  -27.8831  -21.8365   18.8426 H   0  0  0  0  0  0
  -23.7225  -22.8384   21.9368 H   0  0  0  0  0  0
  -24.4726  -21.6258   20.8937 H   0  0  0  0  0  0
  -24.5869  -23.3402   20.4973 H   0  0  0  0  0  0
  -30.5921  -18.0285   18.4288 H   0  0  0  0  0  0
  -29.0256  -17.3117   17.9871 H   0  0  0  0  0  0
  -30.2898  -16.3185   18.6680 H   0  0  0  0  0  0
  -30.6837  -16.1687   21.9553 H   0  0  0  0  0  0
  -29.4818  -14.9915   22.3149 H   0  0  0  0  0  0
  -29.2789  -23.5885   19.8537 H   0  0  0  0  0  0
  -29.0522  -24.5938   21.2552 H   0  0  0  0  0  0
  -25.8813  -21.8679   22.8724 H   0  0  0  0  0  0
  -25.8576  -23.6138   22.7536 H   0  0  0  0  0  0
  -28.1809  -15.9181   20.1605 H   0  0  0  0  0  0
  -28.1175  -16.7564   21.6077 H   0  0  0  0  0  0
  -26.8079  -23.5862   19.4223 H   0  0  0  0  0  0
  -26.5588  -24.6520   20.7698 H   0  0  0  0  0  0
  -28.1315  -25.5315   18.4573 H   0  0  0  0  0  0
  -29.7621  -25.6887   19.0137 H   0  0  0  0  0  0
  1 25  1  0  0  0
  1 30  2  0  0  0
  1 79  1  0  0  0
  2  3  1  0  0  0
  2 25  1  0  0  0
  2 88  1  0  0  0
  2 89  1  0  0  0
  3  4  1  0  0  0
  3 90  1  0  0  0
  3 91  1  0  0  0
  4  5  1  0  0  0
  4 92  1  0  0  0
  4 93  1  0  0  0
  5  6  1  0  0  0
  5 26  1  0  0  0
  5 94  1  0  0  0
  6 25  1  0  0  0
  6 95  1  0  0  0
  6 96  1  0  0  0
  7  8  2  0  0  0
  7 26  1  0  0  0
  7 29  1  0  0  0
  8  9  1  0  0  0
  8 22  1  0  0  0
  9 10  1  0  0  0
  9 27  2  0  0  0
 10 11  2  0  0  0
 10 15  1  0  0  0
 11 12  1  0  0  0
 11 97  1  0  0  0
 12 13  2  0  0  0
 12 98  1  0  0  0
 13 14  1  0  0  0
 13 31  1  0  0  0
 14 15  2  0  0  0
 14 99  1  0  0  0
 15100  1  0  0  0
 16 17  2  0  0  0
 16 21  1  0  0  0
 16 31  1  0  0  0
 17 18  1  0  0  0
 17101  1  0  0  0
 18 19  2  0  0  0
 18102  1  0  0  0
 19 20  1  0  0  0
 19 24  1  0  0  0
 20 21  2  0  0  0
 20103  1  0  0  0
 21 23  1  0  0  0
 22 28  1  0  0  0
 22 32  2  0  0  0
 26 27  1  0  0  0
 28104  1  0  0  0
 28105  1  0  0  0
 29106  1  0  0  0
 29107  1  0  0  0
 33 34  1  0  0  0
 33 66  1  0  0  0
 33 70  2  0  0  0
 34 36  1  0  0  0
 34 59  1  0  0  0
 34108  1  0  0  0
 35 44  2  0  0  0
 35 45  1  0  0  0
 35 68  1  0  0  0
 36 56  1  0  0  0
 36109  1  0  0  0
 37 39  1  0  0  0
 37 47  1  0  0  0
 37 66  1  0  0  0
 37110  1  0  0  0
 38 43  2  0  0  0
 38 46  1  0  0  0
 38 47  1  0  0  0
 39 64  1  0  0  0
 39 67  2  0  0  0
 40 52  1  0  0  0
 40 53  2  0  0  0
 40 58  1  0  0  0
 41111  1  0  0  0
 41112  1  0  0  0
 41113  1  0  0  0
 41 48  1  0  0  0
 42 43  1  0  0  0
 42 66  1  0  0  0
 42114  1  0  0  0
 42115  1  0  0  0
 43 44  1  0  0  0
 44116  1  0  0  0
 45 46  2  0  0  0
 45117  1  0  0  0
 46118  1  0  0  0
 47119  1  0  0  0
 47120  1  0  0  0
 48 56  1  0  0  0
 48 65  1  0  0  0
 48121  1  0  0  0
 49 50  1  0  0  0
 49 53  1  0  0  0
 49 64  1  0  0  0
 49122  1  0  0  0
 50 51  1  0  0  0
 50123  1  0  0  0
 50124  1  0  0  0
 51 52  1  0  0  0
 51125  1  0  0  0
 51126  1  0  0  0
 52127  1  0  0  0
 52128  1  0  0  0
 53 54  1  0  0  0
 54 55  2  0  0  0
 54129  1  0  0  0
 55 57  1  0  0  0
 55130  1  0  0  0
 56 69  2  0  0  0
 57 58  2  0  0  0
 57131  1  0  0  0
 58132  1  0  0  0
 59 60  1  0  0  0
 59 61  1  0  0  0
 59 62  1  0  0  0
 60133  1  0  0  0
 60134  1  0  0  0
 60135  1  0  0  0
 61136  1  0  0  0
 61137  1  0  0  0
 61138  1  0  0  0
 62139  1  0  0  0
 62140  1  0  0  0
 62141  1  0  0  0
 63 65  1  0  0  0
 63142  1  0  0  0
 63143  1  0  0  0
 63144  1  0  0  0
 64145  1  0  0  0
 65146  1  0  0  0
 68 84  1  0  0  0
 71 72  2  0  0  0
 71 74  1  0  0  0
 71147  1  0  0  0
 72 75  1  0  0  0
 72148  1  0  0  0
 73 74  2  0  0  0
 73 76  1  0  0  0
 73149  1  0  0  0
 74 86  1  0  0  0
 75 76  2  0  0  0
 75 85  1  0  0  0
 76 87  1  0  0  0
 77 81  1  0  0  0
 77150  1  0  0  0
 77151  1  0  0  0
 77152  1  0  0  0
 78 85  1  0  0  0
 78153  1  0  0  0
 78154  1  0  0  0
 78155  1  0  0  0
 79 82  1  0  0  0
 79156  1  0  0  0
 79157  1  0  0  0
 80 83  1  0  0  0
 80 84  1  0  0  0
 80158  1  0  0  0
 80159  1  0  0  0
 81 86  1  0  0  0
 81160  1  0  0  0
 81161  1  0  0  0
 82 85  1  0  0  0
 82162  1  0  0  0
 82163  1  0  0  0
 83 86  1  0  0  0
 83164  1  0  0  0
 83165  1  0  0  0
 84166  1  0  0  0
 84167  1  0  0  0
M  ISO  4   1 100  68 101  79 100  84 101
M  END
> <chiral flag>
0

> <version>
0

> <s_m_source_file>
/data/baiqing/PycharmProjects/Reinvent-master-3.2/result/LINK_invent/BTK/process_docking_weight1_custom_product_contain_oxygen_bond_distance_aromatic_linkinvent_7_9_3/rearranged_h_0017.sdf

> <i_m_source_file_index>
72

> <r_mmod_Potential_Energy-OPLS-2005>
53.4779663085938

> <r_mmod_Stretch_Energy-OPLS-2005>
42.9021606445312

> <r_mmod_Bend_Energy-OPLS-2005>
140.873489379883

> <r_mmod_Torsional_Energy-OPLS-2005>
164.182815551758

> <r_mmod_Improper_Torsional_Energy-OPLS-2005>
6.81796026229858

> <r_mmod_Van_der_Waal_Energy-OPLS-2005>
175.037033081055

> <r_mmod_Electrostatic_Energy-OPLS-2005>
-281.102233886719

> <r_mmod_Solvation_Energy-OPLS-2005>
-212.935958862305

> <b_mmod_Minimization_Converged-OPLS-2005>
0

> <r_mmod_RMS_Derivative-OPLS-2005>
10.2372407913208

$$$$
73
                    3D
 Structure written by MMmdl.
150158  0  0  1  0            999 V2000
  -30.1827  -15.9010   20.3170 C   0  0  0  0  0  0
  -30.3996  -13.2881   19.5164 C   0  0  0  0  0  0
  -29.5524  -12.7144   18.3358 C   0  0  0  0  0  0
  -28.1549  -12.2839   18.8033 C   0  0  0  0  0  0
  -27.5820  -13.3082   19.8005 C   0  0  2  0  0  0
  -28.5816  -13.7750   20.8915 C   0  0  0  0  0  0
  -25.2272  -13.8206   20.5793 C   0  0  0  0  0  0
  -24.1683  -13.0371   20.9308 C   0  0  0  0  0  0
  -24.6406  -11.6896   20.8784 C   0  0  0  0  0  0
  -23.9107  -10.4254   21.0405 C   0  0  0  0  0  0
  -24.3641   -9.4167   21.9186 C   0  0  0  0  0  0
  -23.6296   -8.2217   22.0760 C   0  0  0  0  0  0
  -22.4282   -8.0265   21.3548 C   0  0  0  0  0  0
  -21.9929   -9.0243   20.4644 C   0  0  0  0  0  0
  -22.7276  -10.2114   20.3047 C   0  0  0  0  0  0
  -21.6845   -6.0717   22.5279 C   0  0  0  0  0  0
  -21.4004   -6.5621   23.8211 C   0  0  0  0  0  0
  -21.3669   -5.6775   24.9176 C   0  0  0  0  0  0
  -21.6059   -4.3040   24.7228 C   0  0  0  0  0  0
  -21.8816   -3.8126   23.4347 C   0  0  0  0  0  0
  -21.9191   -4.6943   22.3404 C   0  0  0  0  0  0
  -22.7705  -13.5136   21.1920 C   0  0  0  0  0  0
  -22.1653   -4.2123   21.0981 F   0  0  0  0  0  0
  -21.5654   -3.4530   25.7743 F   0  0  0  0  0  0
  -29.7004  -14.4868   20.2055 N   0  0  0  0  0  0
  -26.2730  -12.9556   20.3251 N   0  0  0  0  0  0
  -25.9357  -11.6627   20.5719 N   0  0  0  0  0  0
  -22.0363  -12.8125   22.0471 N   0  0  0  0  0  0
  -25.3758  -15.1938   20.4200 N   0  0  0  0  0  0
  -31.4321  -15.7902   20.2995 O   0  0  0  0  0  0
  -21.6644   -6.8862   21.4240 O   0  0  0  0  0  0
  -22.3397  -14.5442   20.6750 O   0  0  0  0  0  0
  -24.7022  -31.7804   23.1354 C   0  0  0  0  0  0
  -25.9523  -32.4371   23.7966 C   0  0  1  0  0  0
  -27.2262  -26.5271   20.2537 C   0  0  0  0  0  0
  -25.6043  -33.8202   24.1859 N   0  0  0  0  0  0
  -23.5343  -30.3741   21.4947 C   0  0  2  0  0  0
  -24.9866  -28.6713   20.1336 C   0  0  0  0  0  0
  -22.7860  -29.4218   22.4687 C   0  0  0  0  0  0
  -18.0357  -28.1423   22.8451 C   0  0  0  0  0  0
  -24.1489  -36.7107   23.2653 C   0  0  0  0  0  0
  -26.1206  -30.4583   21.4192 C   0  0  0  0  0  0
  -26.1804  -28.9996   20.7849 C   0  0  0  0  0  0
  -27.2803  -27.9653   20.7984 C   0  0  0  0  0  0
  -25.9928  -26.4478   19.5437 C   0  0  0  0  0  0
  -24.9409  -27.4232   19.4862 C   0  0  0  0  0  0
  -23.7945  -29.6503   20.1401 C   0  0  0  0  0  0
  -25.4136  -36.2834   24.0285 C   0  0  1  0  0  0
  -20.6003  -28.3794   23.1127 C   0  0  2  0  0  0
  -20.6812  -26.9442   22.5402 C   0  0  0  0  0  0
  -19.5776  -26.6367   21.5225 C   0  0  0  0  0  0
  -18.1965  -26.7958   22.1617 C   0  0  0  0  0  0
  -19.1630  -28.8934   23.2767 C   0  0  0  0  0  0
  -18.9521  -30.1516   23.8815 C   0  0  0  0  0  0
  -17.6505  -30.6597   24.0543 C   0  0  0  0  0  0
  -25.9140  -34.9238   23.4912 C   0  0  0  0  0  0
  -16.5396  -29.9075   23.6342 C   0  0  0  0  0  0
  -16.7339  -28.6495   23.0371 C   0  0  0  0  0  0
  -26.4634  -31.6465   25.0652 C   0  0  0  0  0  0
  -25.3660  -31.3811   26.1243 C   0  0  0  0  0  0
  -27.0576  -30.2795   24.6621 C   0  0  0  0  0  0
  -27.6082  -32.4331   25.7466 C   0  0  0  0  0  0
  -27.5553  -37.1702   24.8466 C   0  0  0  0  0  0
  -21.4491  -29.3027   22.3450 N   0  0  0  0  0  0
  -26.4235  -37.3623   23.9442 N   0  0  0  0  0  0
  -24.8114  -30.9093   22.0687 N   0  0  0  0  0  0
  -23.4230  -28.7844   23.3100 O   0  0  0  0  0  0
  -28.2152  -25.2710   20.2354 O   0  0  0  0  0  0
  -26.5767  -34.8861   22.4522 O   0  0  0  0  0  0
  -23.6005  -32.0949   23.6213 O   0  0  0  0  0  0
  -27.9060  -20.2436   20.6938 C   0  0  0  0  0  0
  -29.9581  -20.6317   19.9104 C   0  0  0  0  0  0
  -27.5518  -21.9335   20.1569 C   0  0  0  0  0  0
  -29.7253  -22.3660   20.3711 C   0  0  0  0  0  0
  -29.2994  -19.1810   20.5772 C   0  0  2  0  0  0
  -28.3441  -23.4350   20.4931 C   0  0  1  0  0  0
  -28.0292  -17.1269   19.8005 C   0  0  0  0  0  0
  -29.3935  -17.3304   20.2716 N   0  0  0  0  0  0
  -31.3602  -13.6085   19.1104 H   0  0  0  0  0  0
  -30.6443  -12.5018   20.2335 H   0  0  0  0  0  0
  -30.0673  -11.8743   17.8665 H   0  0  0  0  0  0
  -29.4522  -13.4787   17.5651 H   0  0  0  0  0  0
  -28.2414  -11.3147   19.2937 H   0  0  0  0  0  0
  -27.4836  -12.1416   17.9541 H   0  0  0  0  0  0
  -27.3899  -14.1643   19.1599 H   0  0  0  0  0  0
  -28.9152  -12.9509   21.5231 H   0  0  0  0  0  0
  -28.0907  -14.4853   21.5580 H   0  0  0  0  0  0
  -25.2774   -9.5640   22.4776 H   0  0  0  0  0  0
  -23.9987   -7.4607   22.7489 H   0  0  0  0  0  0
  -21.0858   -8.8766   19.8954 H   0  0  0  0  0  0
  -22.3724  -10.9655   19.6163 H   0  0  0  0  0  0
  -21.1969   -7.6124   23.9705 H   0  0  0  0  0  0
  -21.1512   -6.0507   25.9082 H   0  0  0  0  0  0
  -22.0586   -2.7583   23.2859 H   0  0  0  0  0  0
  -22.4003  -11.9783   22.4828 H   0  0  0  0  0  0
  -21.0991  -13.1149   22.2709 H   0  0  0  0  0  0
  -24.5920  -15.8277   20.5288 H   0  0  0  0  0  0
  -26.2164  -15.6478   20.0931 H   0  0  0  0  0  0
  -26.7628  -32.4787   23.0688 H   0  0  0  0  0  0
  -25.0176  -33.9191   25.0016 H   0  0  0  0  0  0
  -22.8691  -31.2151   21.2879 H   0  0  0  0  0  0
  -23.3781  -35.9399   23.3204 H   0  0  0  0  0  0
  -24.3589  -36.8871   22.2089 H   0  0  0  0  0  0
  -23.7193  -37.6234   23.6798 H   0  0  0  0  0  0
  -26.3316  -31.1610   20.6117 H   0  0  0  0  0  0
  -26.9723  -30.5427   22.0820 H   0  0  0  0  0  0
  -28.1866  -28.2421   21.3173 H   0  0  0  0  0  0
  -25.8022  -25.5173   19.0296 H   0  0  0  0  0  0
  -24.0464  -27.1596   18.9380 H   0  0  0  0  0  0
  -23.9907  -30.3967   19.3699 H   0  0  0  0  0  0
  -22.8947  -29.1273   19.8101 H   0  0  0  0  0  0
  -25.1337  -36.1552   25.0769 H   0  0  0  0  0  0
  -21.0075  -28.3398   24.1261 H   0  0  0  0  0  0
  -20.5664  -26.2417   23.3675 H   0  0  0  0  0  0
  -21.6667  -26.7362   22.1216 H   0  0  0  0  0  0
  -19.6930  -25.6260   21.1288 H   0  0  0  0  0  0
  -19.6709  -27.3145   20.6732 H   0  0  0  0  0  0
  -17.4242  -26.6729   21.4014 H   0  0  0  0  0  0
  -18.0334  -26.0113   22.9014 H   0  0  0  0  0  0
  -19.7996  -30.7356   24.2154 H   0  0  0  0  0  0
  -17.5049  -31.6272   24.5156 H   0  0  0  0  0  0
  -15.5389  -30.2937   23.7722 H   0  0  0  0  0  0
  -15.8750  -28.0776   22.7144 H   0  0  0  0  0  0
  -24.5903  -30.7108   25.7527 H   0  0  0  0  0  0
  -24.8786  -32.3029   26.4419 H   0  0  0  0  0  0
  -25.7808  -30.9124   27.0177 H   0  0  0  0  0  0
  -26.3318  -29.6394   24.1603 H   0  0  0  0  0  0
  -27.3968  -29.7264   25.5387 H   0  0  0  0  0  0
  -27.9296  -30.3914   24.0184 H   0  0  0  0  0  0
  -27.2672  -33.3765   26.1737 H   0  0  0  0  0  0
  -28.4044  -32.6660   25.0384 H   0  0  0  0  0  0
  -28.0580  -31.8642   26.5610 H   0  0  0  0  0  0
  -28.2487  -38.0077   24.7575 H   0  0  0  0  0  0
  -28.1122  -36.2603   24.6177 H   0  0  0  0  0  0
  -27.2306  -37.1201   25.8876 H   0  0  0  0  0  0
  -20.9854  -29.8652   21.6459 H   0  0  0  0  0  0
  -26.0032  -38.2647   24.1494 H   0  0  0  0  0  0
  -27.0764  -19.6743   20.2770 H   0  0  0  0  0  0
  -27.6711  -20.2514   21.7589 H   0  0  0  0  0  0
  -31.0377  -20.4793   19.9458 H   0  0  0  0  0  0
  -29.7268  -20.5877   18.8450 H   0  0  0  0  0  0
  -26.5200  -22.1016   20.4698 H   0  0  0  0  0  0
  -27.4753  -21.8788   19.0700 H   0  0  0  0  0  0
  -30.4018  -22.9038   19.7071 H   0  0  0  0  0  0
  -30.2124  -22.4552   21.3428 H   0  0  0  0  0  0
  -29.7215  -19.1761   21.5827 H   0  0  0  0  0  0
  -28.1680  -23.4923   21.5679 H   0  0  0  0  0  0
  -27.3399  -17.1664   20.6438 H   0  0  0  0  0  0
  -27.8867  -16.1965   19.2642 H   0  0  0  0  0  0
  -27.7505  -17.9031   19.0877 H   0  0  0  0  0  0
  1 25  1  0  0  0
  1 30  2  0  0  0
  1 78  1  0  0  0
  2  3  1  0  0  0
  2 25  1  0  0  0
  2 79  1  0  0  0
  2 80  1  0  0  0
  3  4  1  0  0  0
  3 81  1  0  0  0
  3 82  1  0  0  0
  4  5  1  0  0  0
  4 83  1  0  0  0
  4 84  1  0  0  0
  5  6  1  0  0  0
  5 26  1  0  0  0
  5 85  1  0  0  0
  6 25  1  0  0  0
  6 86  1  0  0  0
  6 87  1  0  0  0
  7  8  2  0  0  0
  7 26  1  0  0  0
  7 29  1  0  0  0
  8  9  1  0  0  0
  8 22  1  0  0  0
  9 10  1  0  0  0
  9 27  2  0  0  0
 10 11  2  0  0  0
 10 15  1  0  0  0
 11 12  1  0  0  0
 11 88  1  0  0  0
 12 13  2  0  0  0
 12 89  1  0  0  0
 13 14  1  0  0  0
 13 31  1  0  0  0
 14 15  2  0  0  0
 14 90  1  0  0  0
 15 91  1  0  0  0
 16 17  2  0  0  0
 16 21  1  0  0  0
 16 31  1  0  0  0
 17 18  1  0  0  0
 17 92  1  0  0  0
 18 19  2  0  0  0
 18 93  1  0  0  0
 19 20  1  0  0  0
 19 24  1  0  0  0
 20 21  2  0  0  0
 20 94  1  0  0  0
 21 23  1  0  0  0
 22 28  1  0  0  0
 22 32  2  0  0  0
 26 27  1  0  0  0
 28 95  1  0  0  0
 28 96  1  0  0  0
 29 97  1  0  0  0
 29 98  1  0  0  0
 33 34  1  0  0  0
 33 66  1  0  0  0
 33 70  2  0  0  0
 34 36  1  0  0  0
 34 59  1  0  0  0
 34 99  1  0  0  0
 35 44  2  0  0  0
 35 45  1  0  0  0
 35 68  1  0  0  0
 36 56  1  0  0  0
 36100  1  0  0  0
 37 39  1  0  0  0
 37 47  1  0  0  0
 37 66  1  0  0  0
 37101  1  0  0  0
 38 43  2  0  0  0
 38 46  1  0  0  0
 38 47  1  0  0  0
 39 64  1  0  0  0
 39 67  2  0  0  0
 40 52  1  0  0  0
 40 53  2  0  0  0
 40 58  1  0  0  0
 41102  1  0  0  0
 41103  1  0  0  0
 41104  1  0  0  0
 41 48  1  0  0  0
 42 43  1  0  0  0
 42 66  1  0  0  0
 42105  1  0  0  0
 42106  1  0  0  0
 43 44  1  0  0  0
 44107  1  0  0  0
 45 46  2  0  0  0
 45108  1  0  0  0
 46109  1  0  0  0
 47110  1  0  0  0
 47111  1  0  0  0
 48 56  1  0  0  0
 48 65  1  0  0  0
 48112  1  0  0  0
 49 50  1  0  0  0
 49 53  1  0  0  0
 49 64  1  0  0  0
 49113  1  0  0  0
 50 51  1  0  0  0
 50114  1  0  0  0
 50115  1  0  0  0
 51 52  1  0  0  0
 51116  1  0  0  0
 51117  1  0  0  0
 52118  1  0  0  0
 52119  1  0  0  0
 53 54  1  0  0  0
 54 55  2  0  0  0
 54120  1  0  0  0
 55 57  1  0  0  0
 55121  1  0  0  0
 56 69  2  0  0  0
 57 58  2  0  0  0
 57122  1  0  0  0
 58123  1  0  0  0
 59 60  1  0  0  0
 59 61  1  0  0  0
 59 62  1  0  0  0
 60124  1  0  0  0
 60125  1  0  0  0
 60126  1  0  0  0
 61127  1  0  0  0
 61128  1  0  0  0
 61129  1  0  0  0
 62130  1  0  0  0
 62131  1  0  0  0
 62132  1  0  0  0
 63 65  1  0  0  0
 63133  1  0  0  0
 63134  1  0  0  0
 63135  1  0  0  0
 64136  1  0  0  0
 65137  1  0  0  0
 68 76  1  0  0  0
 71 73  1  0  0  0
 71 75  1  0  0  0
 71138  1  0  0  0
 71139  1  0  0  0
 72 74  1  0  0  0
 72 75  1  0  0  0
 72140  1  0  0  0
 72141  1  0  0  0
 73 76  1  0  0  0
 73142  1  0  0  0
 73143  1  0  0  0
 74 76  1  0  0  0
 74144  1  0  0  0
 74145  1  0  0  0
 75 78  1  0  0  0
 75146  1  0  0  0
 76147  1  0  0  0
 77 78  1  0  0  0
 77148  1  0  0  0
 77149  1  0  0  0
 77150  1  0  0  0
M  ISO  4   1 100  68 101  76 101  78 100
M  END
> <chiral flag>
0

> <version>
0

> <s_m_source_file>
/data/baiqing/PycharmProjects/Reinvent-master-3.2/result/LINK_invent/BTK/process_docking_weight1_custom_product_contain_oxygen_bond_distance_aromatic_linkinvent_7_9_3/rearranged_h_0017.sdf

> <i_m_source_file_index>
73

> <r_mmod_Potential_Energy-OPLS-2005>
3691.34765625

> <r_mmod_Stretch_Energy-OPLS-2005>
1381.32385253906

> <r_mmod_Bend_Energy-OPLS-2005>
1020.80969238281

> <r_mmod_Torsional_Energy-OPLS-2005>
330.405883789062

> <r_mmod_Improper_Torsional_Energy-OPLS-2005>
4.35735273361206

> <r_mmod_Van_der_Waal_Energy-OPLS-2005>
125.297576904297

> <r_mmod_Electrostatic_Energy-OPLS-2005>
-281.475738525391

> <r_mmod_Solvation_Energy-OPLS-2005>
-209.227767944336

> <b_mmod_Minimization_Converged-OPLS-2005>
0

> <r_mmod_RMS_Derivative-OPLS-2005>
2.33965992927551

$$$$
74
                    3D
 Structure written by MMmdl.
150158  0  0  1  0            999 V2000
  -29.8417  -16.8288   20.2533 C   0  0  0  0  0  0
  -30.2797  -13.9846   19.5287 C   0  0  0  0  0  0
  -29.5757  -13.0472   18.4440 C   0  0  0  0  0  0
  -28.2701  -12.4269   18.9431 C   0  0  0  0  0  0
  -27.5749  -13.4686   19.8271 C   0  0  2  0  0  0
  -28.4904  -14.2614   20.8531 C   0  0  0  0  0  0
  -25.2134  -13.8555   20.5970 C   0  0  0  0  0  0
  -24.1681  -13.0488   20.9350 C   0  0  0  0  0  0
  -24.6607  -11.7074   20.8737 C   0  0  0  0  0  0
  -23.9318  -10.4343   21.0325 C   0  0  0  0  0  0
  -24.3773   -9.4240   21.9143 C   0  0  0  0  0  0
  -23.6384   -8.2300   22.0752 C   0  0  0  0  0  0
  -22.4358   -8.0341   21.3550 C   0  0  0  0  0  0
  -22.0046   -9.0327   20.4635 C   0  0  0  0  0  0
  -22.7445  -10.2174   20.3014 C   0  0  0  0  0  0
  -21.6886   -6.0779   22.5279 C   0  0  0  0  0  0
  -21.4037   -6.5666   23.8217 C   0  0  0  0  0  0
  -21.3665   -5.6808   24.9172 C   0  0  0  0  0  0
  -21.6046   -4.3071   24.7215 C   0  0  0  0  0  0
  -21.8811   -3.8171   23.4331 C   0  0  0  0  0  0
  -21.9200   -4.6999   22.3394 C   0  0  0  0  0  0
  -22.7640  -13.5075   21.1924 C   0  0  0  0  0  0
  -22.1665   -4.2184   21.0971 F   0  0  0  0  0  0
  -21.5622   -3.4545   25.7722 F   0  0  0  0  0  0
  -29.4556  -15.2479   20.1432 N   0  0  0  0  0  0
  -26.2839  -13.0238   20.3552 N   0  0  0  0  0  0
  -25.9638  -11.7115   20.5681 N   0  0  0  0  0  0
  -22.0341  -12.8028   22.0480 N   0  0  0  0  0  0
  -25.3446  -15.2315   20.4343 N   0  0  0  0  0  0
  -31.0935  -16.5696   20.2035 O   0  0  0  0  0  0
  -21.6689   -6.8947   21.4255 O   0  0  0  0  0  0
  -22.3263  -14.5349   20.6750 O   0  0  0  0  0  0
  -24.7677  -31.6972   23.0832 C   0  0  0  0  0  0
  -25.9818  -32.4000   23.7680 C   0  0  1  0  0  0
  -27.2872  -25.8734   20.2668 C   0  0  0  0  0  0
  -25.6031  -33.7870   24.1456 N   0  0  0  0  0  0
  -23.6343  -30.2603   21.4575 C   0  0  2  0  0  0
  -25.1105  -28.4323   20.1442 C   0  0  0  0  0  0
  -22.8155  -29.3767   22.4469 C   0  0  0  0  0  0
  -18.0405  -28.1485   22.8405 C   0  0  0  0  0  0
  -24.1507  -36.7001   23.2662 C   0  0  0  0  0  0
  -26.2412  -30.1529   21.4800 C   0  0  0  0  0  0
  -26.3095  -28.6240   20.8426 C   0  0  0  0  0  0
  -27.3422  -27.4041   20.8628 C   0  0  0  0  0  0
  -26.0630  -26.1228   19.5031 C   0  0  0  0  0  0
  -25.0770  -27.2068   19.4466 C   0  0  0  0  0  0
  -23.9413  -29.4829   20.1307 C   0  0  0  0  0  0
  -25.4174  -36.2631   24.0207 C   0  0  1  0  0  0
  -20.6081  -28.3892   23.0988 C   0  0  2  0  0  0
  -20.6828  -26.9472   22.5420 C   0  0  0  0  0  0
  -19.5812  -26.6355   21.5233 C   0  0  0  0  0  0
  -18.1995  -26.7996   22.1602 C   0  0  0  0  0  0
  -19.1688  -28.9025   23.2657 C   0  0  0  0  0  0
  -18.9572  -30.1585   23.8746 C   0  0  0  0  0  0
  -17.6547  -30.6634   24.0544 C   0  0  0  0  0  0
  -25.9193  -34.9042   23.4729 C   0  0  0  0  0  0
  -16.5436  -29.9107   23.6360 C   0  0  0  0  0  0
  -16.7377  -28.6541   23.0360 C   0  0  0  0  0  0
  -26.4737  -31.6408   25.0637 C   0  0  0  0  0  0
  -25.3567  -31.3975   26.1073 C   0  0  0  0  0  0
  -27.0802  -30.2682   24.7104 C   0  0  0  0  0  0
  -27.6015  -32.4459   25.7510 C   0  0  0  0  0  0
  -27.5542  -37.1650   24.8442 C   0  0  0  0  0  0
  -21.4724  -29.2972   22.3225 N   0  0  0  0  0  0
  -26.4234  -37.3479   23.9395 N   0  0  0  0  0  0
  -24.9156  -30.7550   22.0595 N   0  0  0  0  0  0
  -23.4184  -28.7485   23.3185 O   0  0  0  0  0  0
  -27.9096  -24.1601   20.2615 O   0  0  0  0  0  0
  -26.5943  -34.8787   22.4425 O   0  0  0  0  0  0
  -23.6517  -32.0422   23.5236 O   0  0  0  0  0  0
  -29.3153  -23.4754   18.7855 C   0  0  0  0  0  0
  -28.7550  -21.8086   19.0123 C   0  0  0  0  0  0
  -29.2853  -23.4723   21.7577 C   0  0  0  0  0  0
  -29.9359  -24.4389   20.2739 C   0  0  0  0  0  0
  -28.8924  -20.6236   20.2653 C   0  0  0  0  0  0
  -28.7288  -21.8004   21.5297 C   0  0  0  0  0  0
  -31.3309  -24.8931   20.2716 C   0  0  0  0  0  0
  -31.8628  -23.4846   20.4198 C   0  0  0  0  0  0
  -30.6336  -22.4902   20.2873 C   0  0  0  0  0  0
  -29.0822  -18.5135   20.2616 N   0  0  0  0  0  0
  -28.3966  -21.2205   22.7084 F   0  0  0  0  0  0
  -31.1613  -14.3915   19.0319 H   0  0  0  0  0  0
  -30.7124  -13.3704   20.3225 H   0  0  0  0  0  0
  -30.2578  -12.2638   18.1106 H   0  0  0  0  0  0
  -29.3577  -13.6528   17.5632 H   0  0  0  0  0  0
  -28.4970  -11.5406   19.5374 H   0  0  0  0  0  0
  -27.6365  -12.1057   18.1154 H   0  0  0  0  0  0
  -27.2988  -14.2284   19.0930 H   0  0  0  0  0  0
  -28.9826  -13.5831   21.5533 H   0  0  0  0  0  0
  -27.8572  -14.8760   21.4926 H   0  0  0  0  0  0
  -25.2898   -9.5699   22.4758 H   0  0  0  0  0  0
  -24.0057   -7.4706   22.7504 H   0  0  0  0  0  0
  -21.0968   -8.8879   19.8950 H   0  0  0  0  0  0
  -22.3897  -10.9713   19.6129 H   0  0  0  0  0  0
  -21.2037   -7.6173   23.9733 H   0  0  0  0  0  0
  -21.1496   -6.0533   25.9078 H   0  0  0  0  0  0
  -22.0578   -2.7635   23.2819 H   0  0  0  0  0  0
  -22.4021  -11.9731   22.4894 H   0  0  0  0  0  0
  -21.0927  -13.0982   22.2655 H   0  0  0  0  0  0
  -24.5611  -15.8679   20.5297 H   0  0  0  0  0  0
  -26.1892  -15.6843   20.1095 H   0  0  0  0  0  0
  -26.8004  -32.4342   23.0473 H   0  0  0  0  0  0
  -24.9968  -33.8754   24.9477 H   0  0  0  0  0  0
  -23.0121  -31.1176   21.1918 H   0  0  0  0  0  0
  -23.3778  -35.9316   23.3175 H   0  0  0  0  0  0
  -24.3561  -36.8875   22.2111 H   0  0  0  0  0  0
  -23.7269  -37.6105   23.6913 H   0  0  0  0  0  0
  -26.5242  -30.8204   20.6647 H   0  0  0  0  0  0
  -27.0664  -30.2467   22.1709 H   0  0  0  0  0  0
  -28.2034  -27.5868   21.4899 H   0  0  0  0  0  0
  -25.7635  -25.2654   18.9158 H   0  0  0  0  0  0
  -24.2072  -27.0225   18.8310 H   0  0  0  0  0  0
  -24.1921  -30.2101   19.3574 H   0  0  0  0  0  0
  -23.0340  -28.9949   19.7714 H   0  0  0  0  0  0
  -25.1429  -36.1270   25.0692 H   0  0  0  0  0  0
  -21.0127  -28.3581   24.1129 H   0  0  0  0  0  0
  -20.5629  -26.2544   23.3765 H   0  0  0  0  0  0
  -21.6685  -26.7292   22.1282 H   0  0  0  0  0  0
  -19.6956  -25.6217   21.1385 H   0  0  0  0  0  0
  -19.6779  -27.3065   20.6687 H   0  0  0  0  0  0
  -17.4279  -26.6760   21.3992 H   0  0  0  0  0  0
  -18.0338  -26.0180   22.9028 H   0  0  0  0  0  0
  -19.8048  -30.7443   24.2057 H   0  0  0  0  0  0
  -17.5093  -31.6288   24.5199 H   0  0  0  0  0  0
  -15.5432  -30.2960   23.7767 H   0  0  0  0  0  0
  -15.8783  -28.0819   22.7129 H   0  0  0  0  0  0
  -24.5818  -30.7276   25.7329 H   0  0  0  0  0  0
  -24.8706  -32.3289   26.3990 H   0  0  0  0  0  0
  -25.7522  -30.9447   27.0172 H   0  0  0  0  0  0
  -26.3677  -29.6039   24.2208 H   0  0  0  0  0  0
  -27.4047  -29.7446   25.6106 H   0  0  0  0  0  0
  -27.9703  -30.3679   24.0885 H   0  0  0  0  0  0
  -27.2454  -33.3941   26.1549 H   0  0  0  0  0  0
  -28.4104  -32.6724   25.0548 H   0  0  0  0  0  0
  -28.0364  -31.8947   26.5860 H   0  0  0  0  0  0
  -28.2442  -38.0046   24.7502 H   0  0  0  0  0  0
  -28.1148  -36.2553   24.6242 H   0  0  0  0  0  0
  -27.2259  -37.1238   25.8840 H   0  0  0  0  0  0
  -21.0225  -29.8580   21.6124 H   0  0  0  0  0  0
  -25.9986  -38.2495   24.1400 H   0  0  0  0  0  0
  -29.4784  -23.8421   17.7819 H   0  0  0  0  0  0
  -28.5835  -21.3419   18.0531 H   0  0  0  0  0  0
  -29.4159  -23.8466   22.7627 H   0  0  0  0  0  0
  -31.5653  -25.5469   21.1118 H   0  0  0  0  0  0
  -31.5920  -25.3582   19.3207 H   0  0  0  0  0  0
  -32.3267  -23.3781   21.4018 H   0  0  0  0  0  0
  -32.6438  -23.2769   19.6866 H   0  0  0  0  0  0
  -30.9437  -21.7933   21.0838 H   0  0  0  0  0  0
  -30.9978  -21.9232   19.4113 H   0  0  0  0  0  0
  -28.1174  -18.2093   20.2695 H   0  0  0  0  0  0
  1 25  1  0  0  0
  1 30  2  0  0  0
  1 80  1  0  0  0
  2  3  1  0  0  0
  2 25  1  0  0  0
  2 82  1  0  0  0
  2 83  1  0  0  0
  3  4  1  0  0  0
  3 84  1  0  0  0
  3 85  1  0  0  0
  4  5  1  0  0  0
  4 86  1  0  0  0
  4 87  1  0  0  0
  5  6  1  0  0  0
  5 26  1  0  0  0
  5 88  1  0  0  0
  6 25  1  0  0  0
  6 89  1  0  0  0
  6 90  1  0  0  0
  7  8  2  0  0  0
  7 26  1  0  0  0
  7 29  1  0  0  0
  8  9  1  0  0  0
  8 22  1  0  0  0
  9 10  1  0  0  0
  9 27  2  0  0  0
 10 11  2  0  0  0
 10 15  1  0  0  0
 11 12  1  0  0  0
 11 91  1  0  0  0
 12 13  2  0  0  0
 12 92  1  0  0  0
 13 14  1  0  0  0
 13 31  1  0  0  0
 14 15  2  0  0  0
 14 93  1  0  0  0
 15 94  1  0  0  0
 16 17  2  0  0  0
 16 21  1  0  0  0
 16 31  1  0  0  0
 17 18  1  0  0  0
 17 95  1  0  0  0
 18 19  2  0  0  0
 18 96  1  0  0  0
 19 20  1  0  0  0
 19 24  1  0  0  0
 20 21  2  0  0  0
 20 97  1  0  0  0
 21 23  1  0  0  0
 22 28  1  0  0  0
 22 32  2  0  0  0
 26 27  1  0  0  0
 28 98  1  0  0  0
 28 99  1  0  0  0
 29100  1  0  0  0
 29101  1  0  0  0
 33 34  1  0  0  0
 33 66  1  0  0  0
 33 70  2  0  0  0
 34 36  1  0  0  0
 34 59  1  0  0  0
 34102  1  0  0  0
 35 44  2  0  0  0
 35 45  1  0  0  0
 35 68  1  0  0  0
 36 56  1  0  0  0
 36103  1  0  0  0
 37 39  1  0  0  0
 37 47  1  0  0  0
 37 66  1  0  0  0
 37104  1  0  0  0
 38 43  2  0  0  0
 38 46  1  0  0  0
 38 47  1  0  0  0
 39 64  1  0  0  0
 39 67  2  0  0  0
 40 52  1  0  0  0
 40 53  2  0  0  0
 40 58  1  0  0  0
 41105  1  0  0  0
 41106  1  0  0  0
 41107  1  0  0  0
 41 48  1  0  0  0
 42 43  1  0  0  0
 42 66  1  0  0  0
 42108  1  0  0  0
 42109  1  0  0  0
 43 44  1  0  0  0
 44110  1  0  0  0
 45 46  2  0  0  0
 45111  1  0  0  0
 46112  1  0  0  0
 47113  1  0  0  0
 47114  1  0  0  0
 48 56  1  0  0  0
 48 65  1  0  0  0
 48115  1  0  0  0
 49 50  1  0  0  0
 49 53  1  0  0  0
 49 64  1  0  0  0
 49116  1  0  0  0
 50 51  1  0  0  0
 50117  1  0  0  0
 50118  1  0  0  0
 51 52  1  0  0  0
 51119  1  0  0  0
 51120  1  0  0  0
 52121  1  0  0  0
 52122  1  0  0  0
 53 54  1  0  0  0
 54 55  2  0  0  0
 54123  1  0  0  0
 55 57  1  0  0  0
 55124  1  0  0  0
 56 69  2  0  0  0
 57 58  2  0  0  0
 57125  1  0  0  0
 58126  1  0  0  0
 59 60  1  0  0  0
 59 61  1  0  0  0
 59 62  1  0  0  0
 60127  1  0  0  0
 60128  1  0  0  0
 60129  1  0  0  0
 61130  1  0  0  0
 61131  1  0  0  0
 61132  1  0  0  0
 62133  1  0  0  0
 62134  1  0  0  0
 62135  1  0  0  0
 63 65  1  0  0  0
 63136  1  0  0  0
 63137  1  0  0  0
 63138  1  0  0  0
 64139  1  0  0  0
 65140  1  0  0  0
 68 79  1  0  0  0
 71 72  2  0  0  0
 71 74  1  0  0  0
 71141  1  0  0  0
 72 75  1  0  0  0
 72142  1  0  0  0
 73 74  2  0  0  0
 73 76  1  0  0  0
 73143  1  0  0  0
 74 77  1  0  0  0
 75 76  2  0  0  0
 75 80  1  0  0  0
 76 81  1  0  0  0
 77 78  1  0  0  0
 77144  1  0  0  0
 77145  1  0  0  0
 78 79  1  0  0  0
 78146  1  0  0  0
 78147  1  0  0  0
 79148  1  0  0  0
 79149  1  0  0  0
 80150  1  0  0  0
M  ISO  4   1 100  68 101  79 101  80 100
M  END
> <chiral flag>
0

> <version>
0

> <s_m_source_file>
/data/baiqing/PycharmProjects/Reinvent-master-3.2/result/LINK_invent/BTK/process_docking_weight1_custom_product_contain_oxygen_bond_distance_aromatic_linkinvent_7_9_3/rearranged_h_0017.sdf

> <i_m_source_file_index>
74

> <r_mmod_Potential_Energy-OPLS-2005>
15151.51953125

> <r_mmod_Stretch_Energy-OPLS-2005>
8435.3994140625

> <r_mmod_Bend_Energy-OPLS-2005>
1123.55126953125

> <r_mmod_Torsional_Energy-OPLS-2005>
454.562652587891

> <r_mmod_Improper_Torsional_Energy-OPLS-2005>
30.4856948852539

> <r_mmod_Van_der_Waal_Energy-OPLS-2005>
2040.11962890625

> <r_mmod_Electrostatic_Energy-OPLS-2005>
-364.344421386719

> <r_mmod_Solvation_Energy-OPLS-2005>
-221.814407348633

> <b_mmod_Minimization_Converged-OPLS-2005>
0

> <r_mmod_RMS_Derivative-OPLS-2005>
2.417644739151

$$$$
75
                    3D
 Structure written by MMmdl.
162170  0  0  1  0            999 V2000
  -30.4958  -14.5469   20.5861 C   0  0  0  0  0  0
  -30.4295  -12.3372   19.4225 C   0  0  0  0  0  0
  -29.4782  -12.4993   18.2100 C   0  0  0  0  0  0
  -27.9975  -12.3619   18.6250 C   0  0  0  0  0  0
  -27.6552  -13.1493   19.9154 C   0  0  2  0  0  0
  -28.6992  -12.8548   21.0115 C   0  0  0  0  0  0
  -25.2643  -13.8030   20.5861 C   0  0  0  0  0  0
  -24.1755  -13.0327   20.9174 C   0  0  0  0  0  0
  -24.6250  -11.6827   20.8820 C   0  0  0  0  0  0
  -23.8923  -10.4197   21.0431 C   0  0  0  0  0  0
  -24.3510   -9.4148   21.9217 C   0  0  0  0  0  0
  -23.6215   -8.2176   22.0752 C   0  0  0  0  0  0
  -22.4246   -8.0213   21.3508 C   0  0  0  0  0  0
  -21.9818   -9.0181   20.4647 C   0  0  0  0  0  0
  -22.7104  -10.2082   20.3065 C   0  0  0  0  0  0
  -21.6821   -6.0714   22.5273 C   0  0  0  0  0  0
  -21.3987   -6.5621   23.8203 C   0  0  0  0  0  0
  -21.3652   -5.6784   24.9177 C   0  0  0  0  0  0
  -21.6050   -4.3046   24.7237 C   0  0  0  0  0  0
  -21.8830   -3.8132   23.4360 C   0  0  0  0  0  0
  -21.9187   -4.6943   22.3407 C   0  0  0  0  0  0
  -22.7853  -13.5264   21.1814 C   0  0  0  0  0  0
  -22.1669   -4.2126   21.0980 F   0  0  0  0  0  0
  -21.5637   -3.4539   25.7742 F   0  0  0  0  0  0
  -30.0019  -13.2755   20.4767 N   0  0  0  0  0  0
  -26.2949  -12.9026   20.3626 N   0  0  0  0  0  0
  -25.9125  -11.6297   20.5881 N   0  0  0  0  0  0
  -22.0435  -12.8250   22.0400 N   0  0  0  0  0  0
  -25.4495  -15.1716   20.4511 N   0  0  0  0  0  0
  -31.5900  -14.8779   20.1188 O   0  0  0  0  0  0
  -21.6615   -6.8843   21.4231 O   0  0  0  0  0  0
  -22.3610  -14.5565   20.6659 O   0  0  0  0  0  0
  -24.6334  -31.8666   23.1998 C   0  0  0  0  0  0
  -25.9152  -32.4790   23.8264 C   0  0  1  0  0  0
  -27.1354  -27.3176   20.2216 C   0  0  0  0  0  0
  -25.5990  -33.8602   24.2239 N   0  0  0  0  0  0
  -23.4125  -30.5031   21.5489 C   0  0  2  0  0  0
  -24.8251  -28.9517   20.1032 C   0  0  0  0  0  0
  -22.7557  -29.4812   22.5021 C   0  0  0  0  0  0
  -18.0625  -28.0825   22.8480 C   0  0  0  0  0  0
  -24.1485  -36.7282   23.2628 C   0  0  0  0  0  0
  -25.9433  -30.8149   21.3495 C   0  0  0  0  0  0
  -25.9976  -29.4496   20.6926 C   0  0  0  0  0  0
  -27.1713  -28.6553   20.7075 C   0  0  0  0  0  0
  -25.9701  -26.8690   19.5716 C   0  0  0  0  0  0
  -24.8138  -27.6708   19.5246 C   0  0  0  0  0  0
  -23.6010  -29.8445   20.1560 C   0  0  0  0  0  0
  -25.4112  -36.3060   24.0322 C   0  0  1  0  0  0
  -20.6281  -28.3540   23.1235 C   0  0  2  0  0  0
  -20.7515  -26.9569   22.4491 C   0  0  0  0  0  0
  -19.6110  -26.6024   21.4804 C   0  0  0  0  0  0
  -18.2378  -26.7441   22.1634 C   0  0  0  0  0  0
  -19.1812  -28.8421   23.2849 C   0  0  0  0  0  0
  -18.9648  -30.0952   23.8955 C   0  0  0  0  0  0
  -17.6604  -30.6085   24.0459 C   0  0  0  0  0  0
  -25.9094  -34.9468   23.5079 C   0  0  0  0  0  0
  -16.5539  -29.8562   23.5940 C   0  0  0  0  0  0
  -16.7566  -28.6049   23.0026 C   0  0  0  0  0  0
  -26.4497  -31.6616   25.0654 C   0  0  0  0  0  0
  -25.3734  -31.3828   26.1384 C   0  0  0  0  0  0
  -27.0343  -30.3053   24.6164 C   0  0  0  0  0  0
  -27.6059  -32.4322   25.7469 C   0  0  0  0  0  0
  -27.5565  -37.1811   24.8467 C   0  0  0  0  0  0
  -21.4288  -29.3356   22.4017 N   0  0  0  0  0  0
  -26.4266  -37.3771   23.9417 N   0  0  0  0  0  0
  -24.6813  -31.0786   22.0866 N   0  0  0  0  0  0
  -23.4502  -28.8031   23.2678 O   0  0  0  0  0  0
  -28.1877  -26.4458   20.4550 O   0  0  0  0  0  0
  -26.5642  -34.8941   22.4640 O   0  0  0  0  0  0
  -23.5527  -32.1438   23.7495 O   0  0  0  0  0  0
  -28.2487  -18.8464   22.0386 C   0  0  0  0  0  0
  -28.9969  -17.6217   22.0913 C   0  0  0  0  0  0
  -27.6009  -18.2934   19.8013 C   0  0  0  0  0  0
  -27.5179  -19.2205   20.8732 C   0  0  0  0  0  0
  -28.3846  -17.1067   19.8195 C   0  0  0  0  0  0
  -29.0925  -16.7176   20.9930 C   0  0  0  0  0  0
  -28.3749  -16.2962   18.5424 C   0  0  0  0  0  0
  -25.5103  -21.1492   22.7163 C   0  0  0  0  0  0
  -26.7488  -20.5729   20.6247 C   0  0  0  0  0  0
  -27.0548  -24.2470   21.6586 C   0  0  0  0  0  0
  -26.1930  -23.0006   21.1757 C   0  0  0  0  0  0
  -27.9520  -24.9748   20.5504 C   0  0  0  0  0  0
  -29.6384  -15.3853   21.2471 N   0  0  0  0  0  0
  -26.5221  -21.5958   21.7154 N   0  3  1  0  0  0
  -31.4638  -12.5002   19.1137 H   0  0  0  0  0  0
  -30.3883  -11.3065   19.7836 H   0  0  0  0  0  0
  -29.7035  -11.7592   17.4389 H   0  0  0  0  0  0
  -29.6444  -13.4713   17.7480 H   0  0  0  0  0  0
  -27.7898  -11.3012   18.7927 H   0  0  0  0  0  0
  -27.3391  -12.6761   17.8182 H   0  0  0  0  0  0
  -27.7043  -14.1992   19.6918 H   0  0  0  0  0  0
  -28.7047  -11.7848   21.2286 H   0  0  0  0  0  0
  -28.4468  -13.3333   21.9574 H   0  0  0  0  0  0
  -25.2653   -9.5689   22.4804 H   0  0  0  0  0  0
  -23.9958   -7.4591   22.7444 H   0  0  0  0  0  0
  -21.0764   -8.8702   19.8935 H   0  0  0  0  0  0
  -22.3553  -10.9662   19.6201 H   0  0  0  0  0  0
  -21.1960   -7.6131   23.9701 H   0  0  0  0  0  0
  -21.1466   -6.0521   25.9085 H   0  0  0  0  0  0
  -22.0614   -2.7592   23.2864 H   0  0  0  0  0  0
  -22.4008  -11.9875   22.4758 H   0  0  0  0  0  0
  -21.1060  -13.1307   22.2595 H   0  0  0  0  0  0
  -24.7024  -15.8339   20.6284 H   0  0  0  0  0  0
  -26.3478  -15.6177   20.3014 H   0  0  0  0  0  0
  -26.7255  -32.5363   23.1008 H   0  0  0  0  0  0
  -25.0075  -33.9679   25.0355 H   0  0  0  0  0  0
  -22.6992  -31.3231   21.4337 H   0  0  0  0  0  0
  -23.3735  -35.9617   23.3312 H   0  0  0  0  0  0
  -24.3563  -36.8915   22.2028 H   0  0  0  0  0  0
  -23.7250  -37.6513   23.6659 H   0  0  0  0  0  0
  -26.1054  -31.5844   20.5992 H   0  0  0  0  0  0
  -26.8191  -30.8324   21.9849 H   0  0  0  0  0  0
  -28.0753  -29.0297   21.1705 H   0  0  0  0  0  0
  -25.9194  -25.8659   19.1683 H   0  0  0  0  0  0
  -23.9117  -27.3025   19.0481 H   0  0  0  0  0  0
  -23.7164  -30.6416   19.4235 H   0  0  0  0  0  0
  -22.7070  -29.3109   19.8395 H   0  0  0  0  0  0
  -25.1295  -36.1881   25.0820 H   0  0  0  0  0  0
  -21.0177  -28.2767   24.1452 H   0  0  0  0  0  0
  -20.7552  -26.2200   23.2635 H   0  0  0  0  0  0
  -21.7129  -26.8305   21.9463 H   0  0  0  0  0  0
  -19.7276  -25.5798   21.1134 H   0  0  0  0  0  0
  -19.6449  -27.2305   20.5918 H   0  0  0  0  0  0
  -17.4503  -26.6175   21.4218 H   0  0  0  0  0  0
  -18.1074  -25.9558   22.9218 H   0  0  0  0  0  0
  -19.8197  -30.6368   24.2851 H   0  0  0  0  0  0
  -17.5156  -31.5766   24.5053 H   0  0  0  0  0  0
  -15.5436  -30.2450   23.6983 H   0  0  0  0  0  0
  -15.9096  -28.0162   22.6507 H   0  0  0  0  0  0
  -24.5883  -30.7181   25.7738 H   0  0  0  0  0  0
  -24.8893  -32.3038   26.4712 H   0  0  0  0  0  0
  -25.8000  -30.9068   27.0238 H   0  0  0  0  0  0
  -26.2952  -29.6789   24.1163 H   0  0  0  0  0  0
  -27.4040  -29.7312   25.4674 H   0  0  0  0  0  0
  -27.8800  -30.4313   23.9389 H   0  0  0  0  0  0
  -27.2700  -33.3668   26.2030 H   0  0  0  0  0  0
  -28.3931  -32.6891   25.0330 H   0  0  0  0  0  0
  -28.0709  -31.8452   26.5441 H   0  0  0  0  0  0
  -28.2599  -38.0097   24.7486 H   0  0  0  0  0  0
  -28.1057  -36.2630   24.6321 H   0  0  0  0  0  0
  -27.2290  -37.1493   25.8878 H   0  0  0  0  0  0
  -20.9139  -29.9374   21.7821 H   0  0  0  0  0  0
  -26.0150  -38.2854   24.1437 H   0  0  0  0  0  0
  -28.2637  -19.4940   22.8978 H   0  0  0  0  0  0
  -29.4756  -17.3652   23.0207 H   0  0  0  0  0  0
  -27.0609  -18.5248   18.8937 H   0  0  0  0  0  0
  -27.4008  -15.8264   18.3812 H   0  0  0  0  0  0
  -29.1465  -15.5364   18.5361 H   0  0  0  0  0  0
  -28.5593  -16.9271   17.6745 H   0  0  0  0  0  0
  -25.6911  -20.1444   23.0897 H   0  0  0  0  0  0
  -24.5208  -21.1506   22.2721 H   0  0  0  0  0  0
  -25.4853  -21.8168   23.5873 H   0  0  0  0  0  0
  -25.7712  -20.2782   20.2269 H   0  0  0  0  0  0
  -27.3183  -21.0395   19.8101 H   0  0  0  0  0  0
  -27.6936  -23.8994   22.4633 H   0  0  0  0  0  0
  -26.3739  -24.9750   22.0984 H   0  0  0  0  0  0
  -26.2158  -23.0029   20.0995 H   0  0  0  0  0  0
  -25.1570  -23.2484   21.4243 H   0  0  0  0  0  0
  -27.6971  -24.5806   19.5696 H   0  0  0  0  0  0
  -28.9305  -24.5573   20.7508 H   0  0  0  0  0  0
  -29.0167  -14.8104   21.8046 H   0  0  0  0  0  0
  -27.3847  -21.6561   22.2143 H   0  0  0  0  0  0
  1 25  1  0  0  0
  1 30  2  0  0  0
  1 83  1  0  0  0
  2  3  1  0  0  0
  2 25  1  0  0  0
  2 85  1  0  0  0
  2 86  1  0  0  0
  3  4  1  0  0  0
  3 87  1  0  0  0
  3 88  1  0  0  0
  4  5  1  0  0  0
  4 89  1  0  0  0
  4 90  1  0  0  0
  5  6  1  0  0  0
  5 26  1  0  0  0
  5 91  1  0  0  0
  6 25  1  0  0  0
  6 92  1  0  0  0
  6 93  1  0  0  0
  7  8  2  0  0  0
  7 26  1  0  0  0
  7 29  1  0  0  0
  8  9  1  0  0  0
  8 22  1  0  0  0
  9 10  1  0  0  0
  9 27  2  0  0  0
 10 11  2  0  0  0
 10 15  1  0  0  0
 11 12  1  0  0  0
 11 94  1  0  0  0
 12 13  2  0  0  0
 12 95  1  0  0  0
 13 14  1  0  0  0
 13 31  1  0  0  0
 14 15  2  0  0  0
 14 96  1  0  0  0
 15 97  1  0  0  0
 16 17  2  0  0  0
 16 21  1  0  0  0
 16 31  1  0  0  0
 17 18  1  0  0  0
 17 98  1  0  0  0
 18 19  2  0  0  0
 18 99  1  0  0  0
 19 20  1  0  0  0
 19 24  1  0  0  0
 20 21  2  0  0  0
 20100  1  0  0  0
 21 23  1  0  0  0
 22 28  1  0  0  0
 22 32  2  0  0  0
 26 27  1  0  0  0
 28101  1  0  0  0
 28102  1  0  0  0
 29103  1  0  0  0
 29104  1  0  0  0
 33 34  1  0  0  0
 33 66  1  0  0  0
 33 70  2  0  0  0
 34 36  1  0  0  0
 34 59  1  0  0  0
 34105  1  0  0  0
 35 44  2  0  0  0
 35 45  1  0  0  0
 35 68  1  0  0  0
 36 56  1  0  0  0
 36106  1  0  0  0
 37 39  1  0  0  0
 37 47  1  0  0  0
 37 66  1  0  0  0
 37107  1  0  0  0
 38 43  2  0  0  0
 38 46  1  0  0  0
 38 47  1  0  0  0
 39 64  1  0  0  0
 39 67  2  0  0  0
 40 52  1  0  0  0
 40 53  2  0  0  0
 40 58  1  0  0  0
 41108  1  0  0  0
 41109  1  0  0  0
 41110  1  0  0  0
 41 48  1  0  0  0
 42 43  1  0  0  0
 42 66  1  0  0  0
 42111  1  0  0  0
 42112  1  0  0  0
 43 44  1  0  0  0
 44113  1  0  0  0
 45 46  2  0  0  0
 45114  1  0  0  0
 46115  1  0  0  0
 47116  1  0  0  0
 47117  1  0  0  0
 48 56  1  0  0  0
 48 65  1  0  0  0
 48118  1  0  0  0
 49 50  1  0  0  0
 49 53  1  0  0  0
 49 64  1  0  0  0
 49119  1  0  0  0
 50 51  1  0  0  0
 50120  1  0  0  0
 50121  1  0  0  0
 51 52  1  0  0  0
 51122  1  0  0  0
 51123  1  0  0  0
 52124  1  0  0  0
 52125  1  0  0  0
 53 54  1  0  0  0
 54 55  2  0  0  0
 54126  1  0  0  0
 55 57  1  0  0  0
 55127  1  0  0  0
 56 69  2  0  0  0
 57 58  2  0  0  0
 57128  1  0  0  0
 58129  1  0  0  0
 59 60  1  0  0  0
 59 61  1  0  0  0
 59 62  1  0  0  0
 60130  1  0  0  0
 60131  1  0  0  0
 60132  1  0  0  0
 61133  1  0  0  0
 61134  1  0  0  0
 61135  1  0  0  0
 62136  1  0  0  0
 62137  1  0  0  0
 62138  1  0  0  0
 63 65  1  0  0  0
 63139  1  0  0  0
 63140  1  0  0  0
 63141  1  0  0  0
 64142  1  0  0  0
 65143  1  0  0  0
 68 82  1  0  0  0
 71 72  2  0  0  0
 71 74  1  0  0  0
 71144  1  0  0  0
 72 76  1  0  0  0
 72145  1  0  0  0
 73 74  2  0  0  0
 73 75  1  0  0  0
 73146  1  0  0  0
 74 79  1  0  0  0
 75 76  2  0  0  0
 75 77  1  0  0  0
 76 83  1  0  0  0
 77147  1  0  0  0
 77148  1  0  0  0
 77149  1  0  0  0
 78150  1  0  0  0
 78151  1  0  0  0
 78152  1  0  0  0
 78 84  1  0  0  0
 79 84  1  0  0  0
 79153  1  0  0  0
 79154  1  0  0  0
 80 81  1  0  0  0
 80 82  1  0  0  0
 80155  1  0  0  0
 80156  1  0  0  0
 81 84  1  0  0  0
 81157  1  0  0  0
 81158  1  0  0  0
 82159  1  0  0  0
 82160  1  0  0  0
 83161  1  0  0  0
 84162  1  0  0  0
M  CHG  1  84   1
M  ISO  4   1 100  68 101  82 101  83 100
M  END
> <chiral flag>
0

> <version>
0

> <s_m_source_file>
/data/baiqing/PycharmProjects/Reinvent-master-3.2/result/LINK_invent/BTK/process_docking_weight1_custom_product_contain_oxygen_bond_distance_aromatic_linkinvent_7_9_3/rearranged_h_0017.sdf

> <i_m_source_file_index>
75

> <r_mmod_Potential_Energy-OPLS-2005>
52.7650413513184

> <r_mmod_Stretch_Energy-OPLS-2005>
84.4632949829102

> <r_mmod_Bend_Energy-OPLS-2005>
184.765823364258

> <r_mmod_Torsional_Energy-OPLS-2005>
288.531951904297

> <r_mmod_Improper_Torsional_Energy-OPLS-2005>
7.32989263534546

> <r_mmod_Van_der_Waal_Energy-OPLS-2005>
148.09733581543

> <r_mmod_Electrostatic_Energy-OPLS-2005>
-283.143676757812

> <r_mmod_Solvation_Energy-OPLS-2005>
-456.841461181641

> <b_mmod_Minimization_Converged-OPLS-2005>
0

> <r_mmod_RMS_Derivative-OPLS-2005>
23.7338619232178

$$$$
76
                    3D
 Structure written by MMmdl.
156165  0  0  1  0            999 V2000
  -30.5221  -14.8969   20.4389 C   0  0  0  0  0  0
  -30.4459  -12.5504   19.4949 C   0  0  0  0  0  0
  -29.5236  -12.5402   18.2518 C   0  0  0  0  0  0
  -28.0513  -12.3348   18.6601 C   0  0  0  0  0  0
  -27.6375  -13.2412   19.8496 C   0  0  2  0  0  0
  -28.6799  -13.2113   20.9888 C   0  0  0  0  0  0
  -25.2488  -13.8199   20.5705 C   0  0  0  0  0  0
  -24.1791  -13.0432   20.9208 C   0  0  0  0  0  0
  -24.6393  -11.6913   20.8733 C   0  0  0  0  0  0
  -23.9072  -10.4292   21.0400 C   0  0  0  0  0  0
  -24.3624   -9.4207   21.9180 C   0  0  0  0  0  0
  -23.6294   -8.2244   22.0753 C   0  0  0  0  0  0
  -22.4274   -8.0280   21.3541 C   0  0  0  0  0  0
  -21.9910   -9.0255   20.4644 C   0  0  0  0  0  0
  -22.7240  -10.2134   20.3053 C   0  0  0  0  0  0
  -21.6851   -6.0733   22.5278 C   0  0  0  0  0  0
  -21.4016   -6.5639   23.8213 C   0  0  0  0  0  0
  -21.3661   -5.6792   24.9175 C   0  0  0  0  0  0
  -21.6048   -4.3054   24.7223 C   0  0  0  0  0  0
  -21.8817   -3.8142   23.4343 C   0  0  0  0  0  0
  -21.9192   -4.6961   22.3399 C   0  0  0  0  0  0
  -22.7812  -13.5208   21.1873 C   0  0  0  0  0  0
  -22.1662   -4.2148   21.0976 F   0  0  0  0  0  0
  -21.5630   -3.4538   25.7734 F   0  0  0  0  0  0
  -29.9670  -13.6220   20.4103 N   0  0  0  0  0  0
  -26.2914  -12.9421   20.3264 N   0  0  0  0  0  0
  -25.9326  -11.6552   20.5726 N   0  0  0  0  0  0
  -22.0470  -12.8202   22.0435 N   0  0  0  0  0  0
  -25.4170  -15.1932   20.4153 N   0  0  0  0  0  0
  -31.7026  -15.0264   20.0960 O   0  0  0  0  0  0
  -21.6638   -6.8874   21.4238 O   0  0  0  0  0  0
  -22.3496  -14.5517   20.6723 O   0  0  0  0  0  0
  -24.6425  -31.8467   23.1909 C   0  0  0  0  0  0
  -25.9212  -32.4699   23.8289 C   0  0  1  0  0  0
  -27.2112  -27.1537   20.1391 C   0  0  0  0  0  0
  -25.5973  -33.8505   24.2209 N   0  0  0  0  0  0
  -23.4437  -30.4681   21.5366 C   0  0  2  0  0  0
  -24.8915  -28.9009   20.1057 C   0  0  0  0  0  0
  -22.7561  -29.4564   22.4874 C   0  0  0  0  0  0
  -18.0317  -28.1388   22.8459 C   0  0  0  0  0  0
  -24.1494  -36.7260   23.2638 C   0  0  0  0  0  0
  -25.9983  -30.7220   21.3906 C   0  0  0  0  0  0
  -26.0664  -29.3359   20.7311 C   0  0  0  0  0  0
  -27.2245  -28.4745   20.7390 C   0  0  0  0  0  0
  -26.0195  -26.8321   19.4501 C   0  0  0  0  0  0
  -24.8804  -27.6626   19.4498 C   0  0  0  0  0  0
  -23.6672  -29.8008   20.1539 C   0  0  0  0  0  0
  -25.4124  -36.3034   24.0317 C   0  0  1  0  0  0
  -20.5921  -28.3723   23.1229 C   0  0  2  0  0  0
  -20.6827  -26.9436   22.5366 C   0  0  0  0  0  0
  -19.5778  -26.6338   21.5212 C   0  0  0  0  0  0
  -18.1945  -26.7931   22.1590 C   0  0  0  0  0  0
  -19.1566  -28.8865   23.2846 C   0  0  0  0  0  0
  -18.9477  -30.1453   23.8886 C   0  0  0  0  0  0
  -17.6469  -30.6575   24.0561 C   0  0  0  0  0  0
  -25.9080  -34.9408   23.5068 C   0  0  0  0  0  0
  -16.5366  -29.9070   23.6319 C   0  0  0  0  0  0
  -16.7302  -28.6493   23.0334 C   0  0  0  0  0  0
  -26.4536  -31.6553   25.0720 C   0  0  0  0  0  0
  -25.3717  -31.3748   26.1412 C   0  0  0  0  0  0
  -27.0400  -30.2950   24.6294 C   0  0  0  0  0  0
  -27.6064  -32.4315   25.7501 C   0  0  0  0  0  0
  -27.5575  -37.1793   24.8465 C   0  0  0  0  0  0
  -21.4252  -29.3083   22.3640 N   0  0  0  0  0  0
  -26.4290  -37.3746   23.9404 N   0  0  0  0  0  0
  -24.7144  -31.0332   22.0942 N   0  0  0  0  0  0
  -23.4222  -28.8087   23.2993 O   0  0  0  0  0  0
  -28.2606  -26.1718   20.2384 O   0  0  0  0  0  0
  -26.5655  -34.8904   22.4639 O   0  0  0  0  0  0
  -23.5552  -32.1353   23.7137 O   0  0  0  0  0  0
  -29.5997  -19.9256   21.3663 C   0  0  0  0  0  0
  -29.9094  -18.5055   21.4998 C   0  0  0  0  0  0
  -29.0874  -18.1093   19.3281 C   0  0  0  0  0  0
  -28.9795  -20.5166   20.2126 C   0  0  0  0  0  0
  -29.6634  -17.5067   20.4918 C   0  0  0  0  0  0
  -28.7645  -19.5175   19.1953 C   0  0  0  0  0  0
  -26.9878  -22.3775   21.9471 C   0  0  0  0  0  0
  -28.2500  -23.2498   22.0354 C   0  0  0  0  0  0
  -27.0137  -21.7667   20.5369 C   0  0  0  0  0  0
  -28.7577  -23.3075   20.5922 C   0  0  2  0  0  0
  -28.0459  -24.6722   19.8971 C   0  0  0  0  0  0
  -28.3946  -21.8854   20.0758 N   0  0  0  0  0  0
  -29.6830  -15.9970   20.7294 N   0  0  0  0  0  0
  -28.1591  -19.9068   18.0458 F   0  0  0  0  0  0
  -31.4824  -12.7075   19.1927 H   0  0  0  0  0  0
  -30.4268  -11.5819   19.9966 H   0  0  0  0  0  0
  -29.8328  -11.7622   17.5528 H   0  0  0  0  0  0
  -29.6232  -13.4861   17.7171 H   0  0  0  0  0  0
  -27.9257  -11.2866   18.9324 H   0  0  0  0  0  0
  -27.3949  -12.5071   17.8063 H   0  0  0  0  0  0
  -27.6169  -14.2567   19.4522 H   0  0  0  0  0  0
  -28.7491  -12.2143   21.4270 H   0  0  0  0  0  0
  -28.3853  -13.8783   21.7999 H   0  0  0  0  0  0
  -25.2774   -9.5681   22.4747 H   0  0  0  0  0  0
  -24.0003   -7.4636   22.7474 H   0  0  0  0  0  0
  -21.0838   -8.8771   19.8953 H   0  0  0  0  0  0
  -22.3696  -10.9670   19.6158 H   0  0  0  0  0  0
  -21.2010   -7.6148   23.9712 H   0  0  0  0  0  0
  -21.1487   -6.0526   25.9081 H   0  0  0  0  0  0
  -22.0592   -2.7603   23.2845 H   0  0  0  0  0  0
  -22.4101  -11.9866   22.4818 H   0  0  0  0  0  0
  -21.1089  -13.1221   22.2648 H   0  0  0  0  0  0
  -24.6459  -15.8424   20.5279 H   0  0  0  0  0  0
  -26.2569  -15.6359   20.0669 H   0  0  0  0  0  0
  -26.7265  -32.5311   23.1003 H   0  0  0  0  0  0
  -25.0100  -33.9621   25.0343 H   0  0  0  0  0  0
  -22.7447  -31.2940   21.3855 H   0  0  0  0  0  0
  -23.3759  -35.9589   23.3292 H   0  0  0  0  0  0
  -24.3583  -36.8905   22.2057 H   0  0  0  0  0  0
  -23.7257  -37.6457   23.6678 H   0  0  0  0  0  0
  -26.1539  -31.4764   20.6182 H   0  0  0  0  0  0
  -26.8694  -30.7703   22.0322 H   0  0  0  0  0  0
  -28.1136  -28.7960   21.2623 H   0  0  0  0  0  0
  -25.9262  -25.9025   18.9103 H   0  0  0  0  0  0
  -23.9887  -27.3331   18.9337 H   0  0  0  0  0  0
  -23.8000  -30.5766   19.3994 H   0  0  0  0  0  0
  -22.7820  -29.2421   19.8451 H   0  0  0  0  0  0
  -25.1308  -36.1862   25.0811 H   0  0  0  0  0  0
  -20.9999  -28.3291   24.1355 H   0  0  0  0  0  0
  -20.5798  -26.2330   23.3581 H   0  0  0  0  0  0
  -21.6679  -26.7491   22.1108 H   0  0  0  0  0  0
  -19.6938  -25.6216   21.1318 H   0  0  0  0  0  0
  -19.6705  -27.3071   20.6684 H   0  0  0  0  0  0
  -17.4240  -26.6739   21.3953 H   0  0  0  0  0  0
  -18.0284  -26.0054   22.8952 H   0  0  0  0  0  0
  -19.7949  -30.7265   24.2274 H   0  0  0  0  0  0
  -17.5025  -31.6236   24.5200 H   0  0  0  0  0  0
  -15.5362  -30.2956   23.7649 H   0  0  0  0  0  0
  -15.8718  -28.0795   22.7036 H   0  0  0  0  0  0
  -24.5905  -30.7079   25.7742 H   0  0  0  0  0  0
  -24.8891  -32.2930   26.4767 H   0  0  0  0  0  0
  -25.8001  -30.8979   27.0236 H   0  0  0  0  0  0
  -26.3024  -29.6667   24.1291 H   0  0  0  0  0  0
  -27.4007  -29.7247   25.4865 H   0  0  0  0  0  0
  -27.8926  -30.4184   23.9613 H   0  0  0  0  0  0
  -27.2658  -33.3635   26.2020 H   0  0  0  0  0  0
  -28.3902  -32.6851   25.0347 H   0  0  0  0  0  0
  -28.0695  -31.8483   26.5471 H   0  0  0  0  0  0
  -28.2584  -38.0093   24.7497 H   0  0  0  0  0  0
  -28.1083  -36.2628   24.6302 H   0  0  0  0  0  0
  -27.2295  -37.1440   25.8868 H   0  0  0  0  0  0
  -20.9462  -29.8870   21.6881 H   0  0  0  0  0  0
  -26.0160  -38.2816   24.1396 H   0  0  0  0  0  0
  -29.7809  -20.5571   22.2224 H   0  0  0  0  0  0
  -30.2993  -18.1738   22.4519 H   0  0  0  0  0  0
  -28.8081  -17.4646   18.5084 H   0  0  0  0  0  0
  -26.0767  -22.9580   22.0962 H   0  0  0  0  0  0
  -27.0118  -21.5989   22.7115 H   0  0  0  0  0  0
  -28.9909  -22.7731   22.6773 H   0  0  0  0  0  0
  -28.0493  -24.2386   22.4519 H   0  0  0  0  0  0
  -26.3622  -22.3252   19.8634 H   0  0  0  0  0  0
  -26.6275  -20.7446   20.5489 H   0  0  0  0  0  0
  -29.8419  -23.4308   20.5755 H   0  0  0  0  0  0
  -28.2231  -24.6042   18.8238 H   0  0  0  0  0  0
  -26.9814  -24.4891   20.0179 H   0  0  0  0  0  0
  -28.7941  -15.6553   21.0630 H   0  0  0  0  0  0
  1 25  1  0  0  0
  1 30  2  0  0  0
  1 83  1  0  0  0
  2  3  1  0  0  0
  2 25  1  0  0  0
  2 85  1  0  0  0
  2 86  1  0  0  0
  3  4  1  0  0  0
  3 87  1  0  0  0
  3 88  1  0  0  0
  4  5  1  0  0  0
  4 89  1  0  0  0
  4 90  1  0  0  0
  5  6  1  0  0  0
  5 26  1  0  0  0
  5 91  1  0  0  0
  6 25  1  0  0  0
  6 92  1  0  0  0
  6 93  1  0  0  0
  7  8  2  0  0  0
  7 26  1  0  0  0
  7 29  1  0  0  0
  8  9  1  0  0  0
  8 22  1  0  0  0
  9 10  1  0  0  0
  9 27  2  0  0  0
 10 11  2  0  0  0
 10 15  1  0  0  0
 11 12  1  0  0  0
 11 94  1  0  0  0
 12 13  2  0  0  0
 12 95  1  0  0  0
 13 14  1  0  0  0
 13 31  1  0  0  0
 14 15  2  0  0  0
 14 96  1  0  0  0
 15 97  1  0  0  0
 16 17  2  0  0  0
 16 21  1  0  0  0
 16 31  1  0  0  0
 17 18  1  0  0  0
 17 98  1  0  0  0
 18 19  2  0  0  0
 18 99  1  0  0  0
 19 20  1  0  0  0
 19 24  1  0  0  0
 20 21  2  0  0  0
 20100  1  0  0  0
 21 23  1  0  0  0
 22 28  1  0  0  0
 22 32  2  0  0  0
 26 27  1  0  0  0
 28101  1  0  0  0
 28102  1  0  0  0
 29103  1  0  0  0
 29104  1  0  0  0
 33 34  1  0  0  0
 33 66  1  0  0  0
 33 70  2  0  0  0
 34 36  1  0  0  0
 34 59  1  0  0  0
 34105  1  0  0  0
 35 44  2  0  0  0
 35 45  1  0  0  0
 35 68  1  0  0  0
 36 56  1  0  0  0
 36106  1  0  0  0
 37 39  1  0  0  0
 37 47  1  0  0  0
 37 66  1  0  0  0
 37107  1  0  0  0
 38 43  2  0  0  0
 38 46  1  0  0  0
 38 47  1  0  0  0
 39 64  1  0  0  0
 39 67  2  0  0  0
 40 52  1  0  0  0
 40 53  2  0  0  0
 40 58  1  0  0  0
 41108  1  0  0  0
 41109  1  0  0  0
 41110  1  0  0  0
 41 48  1  0  0  0
 42 43  1  0  0  0
 42 66  1  0  0  0
 42111  1  0  0  0
 42112  1  0  0  0
 43 44  1  0  0  0
 44113  1  0  0  0
 45 46  2  0  0  0
 45114  1  0  0  0
 46115  1  0  0  0
 47116  1  0  0  0
 47117  1  0  0  0
 48 56  1  0  0  0
 48 65  1  0  0  0
 48118  1  0  0  0
 49 50  1  0  0  0
 49 53  1  0  0  0
 49 64  1  0  0  0
 49119  1  0  0  0
 50 51  1  0  0  0
 50120  1  0  0  0
 50121  1  0  0  0
 51 52  1  0  0  0
 51122  1  0  0  0
 51123  1  0  0  0
 52124  1  0  0  0
 52125  1  0  0  0
 53 54  1  0  0  0
 54 55  2  0  0  0
 54126  1  0  0  0
 55 57  1  0  0  0
 55127  1  0  0  0
 56 69  2  0  0  0
 57 58  2  0  0  0
 57128  1  0  0  0
 58129  1  0  0  0
 59 60  1  0  0  0
 59 61  1  0  0  0
 59 62  1  0  0  0
 60130  1  0  0  0
 60131  1  0  0  0
 60132  1  0  0  0
 61133  1  0  0  0
 61134  1  0  0  0
 61135  1  0  0  0
 62136  1  0  0  0
 62137  1  0  0  0
 62138  1  0  0  0
 63 65  1  0  0  0
 63139  1  0  0  0
 63140  1  0  0  0
 63141  1  0  0  0
 64142  1  0  0  0
 65143  1  0  0  0
 68 81  1  0  0  0
 71 72  2  0  0  0
 71 74  1  0  0  0
 71144  1  0  0  0
 72 75  1  0  0  0
 72145  1  0  0  0
 73 75  2  0  0  0
 73 76  1  0  0  0
 73146  1  0  0  0
 74 76  2  0  0  0
 74 82  1  0  0  0
 75 83  1  0  0  0
 76 84  1  0  0  0
 77 78  1  0  0  0
 77 79  1  0  0  0
 77147  1  0  0  0
 77148  1  0  0  0
 78 80  1  0  0  0
 78149  1  0  0  0
 78150  1  0  0  0
 79 82  1  0  0  0
 79151  1  0  0  0
 79152  1  0  0  0
 80 81  1  0  0  0
 80 82  1  0  0  0
 80153  1  0  0  0
 81154  1  0  0  0
 81155  1  0  0  0
 83156  1  0  0  0
M  ISO  4   1 100  68 101  81 101  83 100
M  END
> <chiral flag>
0

> <version>
0

> <s_m_source_file>
/data/baiqing/PycharmProjects/Reinvent-master-3.2/result/LINK_invent/BTK/process_docking_weight1_custom_product_contain_oxygen_bond_distance_aromatic_linkinvent_7_9_3/rearranged_h_0017.sdf

> <i_m_source_file_index>
76

> <r_mmod_Potential_Energy-OPLS-2005>
604.973327636719

> <r_mmod_Stretch_Energy-OPLS-2005>
213.610977172852

> <r_mmod_Bend_Energy-OPLS-2005>
295.256744384766

> <r_mmod_Torsional_Energy-OPLS-2005>
325.764038085938

> <r_mmod_Improper_Torsional_Energy-OPLS-2005>
12.984546661377

> <r_mmod_Van_der_Waal_Energy-OPLS-2005>
134.237396240234

> <r_mmod_Electrostatic_Energy-OPLS-2005>
-322.065826416016

> <r_mmod_Solvation_Energy-OPLS-2005>
-223.904541015625

> <b_mmod_Minimization_Converged-OPLS-2005>
0

> <r_mmod_RMS_Derivative-OPLS-2005>
1.20590484142303

$$$$
77
                    3D
 Structure written by MMmdl.
162170  0  0  1  0            999 V2000
  -30.7609  -14.4777   20.6265 C   0  0  0  0  0  0
  -30.4167  -12.3324   19.4328 C   0  0  0  0  0  0
  -29.4916  -12.5059   18.2126 C   0  0  0  0  0  0
  -28.0202  -12.3428   18.6321 C   0  0  0  0  0  0
  -27.6585  -13.2121   19.8643 C   0  0  2  0  0  0
  -28.6962  -13.0377   20.9941 C   0  0  0  0  0  0
  -25.2583  -13.8173   20.5665 C   0  0  0  0  0  0
  -24.1837  -13.0447   20.9159 C   0  0  0  0  0  0
  -24.6398  -11.6911   20.8725 C   0  0  0  0  0  0
  -23.9069  -10.4296   21.0404 C   0  0  0  0  0  0
  -24.3614   -9.4214   21.9185 C   0  0  0  0  0  0
  -23.6287   -8.2249   22.0763 C   0  0  0  0  0  0
  -22.4274   -8.0287   21.3546 C   0  0  0  0  0  0
  -21.9909   -9.0259   20.4645 C   0  0  0  0  0  0
  -22.7243  -10.2132   20.3053 C   0  0  0  0  0  0
  -21.6851   -6.0745   22.5280 C   0  0  0  0  0  0
  -21.4008   -6.5649   23.8213 C   0  0  0  0  0  0
  -21.3654   -5.6796   24.9174 C   0  0  0  0  0  0
  -21.6039   -4.3062   24.7220 C   0  0  0  0  0  0
  -21.8814   -3.8154   23.4346 C   0  0  0  0  0  0
  -21.9191   -4.6970   22.3402 C   0  0  0  0  0  0
  -22.7860  -13.5238   21.1830 C   0  0  0  0  0  0
  -22.1663   -4.2161   21.0977 F   0  0  0  0  0  0
  -21.5622   -3.4541   25.7733 F   0  0  0  0  0  0
  -30.0360  -13.3306   20.4501 N   0  0  0  0  0  0
  -26.3017  -12.9348   20.3317 N   0  0  0  0  0  0
  -25.9325  -11.6508   20.5747 N   0  0  0  0  0  0
  -22.0501  -12.8226   22.0386 N   0  0  0  0  0  0
  -25.4318  -15.1891   20.4111 N   0  0  0  0  0  0
  -31.8219  -14.6755   20.0256 O   0  0  0  0  0  0
  -21.6641   -6.8882   21.4247 O   0  0  0  0  0  0
  -22.3546  -14.5558   20.6703 O   0  0  0  0  0  0
  -24.6174  -31.8659   23.2077 C   0  0  0  0  0  0
  -25.9061  -32.4814   23.8376 C   0  0  1  0  0  0
  -27.2341  -27.4140   20.1033 C   0  0  0  0  0  0
  -25.5922  -33.8612   24.2322 N   0  0  0  0  0  0
  -23.4062  -30.4866   21.5491 C   0  0  2  0  0  0
  -24.8556  -28.9509   20.1124 C   0  0  0  0  0  0
  -22.7420  -29.4639   22.4998 C   0  0  0  0  0  0
  -18.0266  -28.1364   22.8481 C   0  0  0  0  0  0
  -24.1484  -36.7289   23.2631 C   0  0  0  0  0  0
  -25.9354  -30.8262   21.3616 C   0  0  0  0  0  0
  -26.0173  -29.4580   20.7108 C   0  0  0  0  0  0
  -27.2138  -28.6975   20.7020 C   0  0  0  0  0  0
  -26.0594  -26.9297   19.4920 C   0  0  0  0  0  0
  -24.8735  -27.6873   19.4969 C   0  0  0  0  0  0
  -23.6145  -29.8145   20.1653 C   0  0  0  0  0  0
  -25.4097  -36.3097   24.0343 C   0  0  1  0  0  0
  -20.5857  -28.3647   23.1315 C   0  0  2  0  0  0
  -20.6755  -26.9382   22.5402 C   0  0  0  0  0  0
  -19.5737  -26.6365   21.5198 C   0  0  0  0  0  0
  -18.1914  -26.7907   22.1603 C   0  0  0  0  0  0
  -19.1516  -28.8822   23.2892 C   0  0  0  0  0  0
  -18.9451  -30.1431   23.8900 C   0  0  0  0  0  0
  -17.6458  -30.6580   24.0554 C   0  0  0  0  0  0
  -25.9029  -34.9473   23.5122 C   0  0  0  0  0  0
  -16.5345  -29.9070   23.6339 C   0  0  0  0  0  0
  -16.7254  -28.6486   23.0358 C   0  0  0  0  0  0
  -26.4479  -31.6599   25.0710 C   0  0  0  0  0  0
  -25.3746  -31.3683   26.1463 C   0  0  0  0  0  0
  -27.0329  -30.3055   24.6060 C   0  0  0  0  0  0
  -27.6055  -32.4316   25.7484 C   0  0  0  0  0  0
  -27.5582  -37.1780   24.8456 C   0  0  0  0  0  0
  -21.4141  -29.3041   22.3753 N   0  0  0  0  0  0
  -26.4271  -37.3800   23.9438 N   0  0  0  0  0  0
  -24.6714  -31.0731   22.0990 N   0  0  0  0  0  0
  -23.4184  -28.8167   23.3033 O   0  0  0  0  0  0
  -28.3582  -26.6111   20.1111 O   0  0  0  0  0  0
  -26.5576  -34.8943   22.4669 O   0  0  0  0  0  0
  -23.5354  -32.1415   23.7454 O   0  0  0  0  0  0
  -29.9922  -19.2248   21.7500 C   0  0  0  0  0  0
  -29.8684  -18.6166   19.4156 C   0  0  0  0  0  0
  -30.1154  -17.8549   22.0952 C   0  0  0  0  0  0
  -29.9785  -17.2450   19.7612 C   0  0  0  0  0  0
  -29.8759  -19.6308   20.4025 C   0  0  0  0  0  0
  -30.1262  -16.8255   21.1119 C   0  0  0  0  0  0
  -30.4269  -15.0900   22.9117 C   0  0  0  0  0  0
  -27.5007  -21.0264   19.1872 C   0  0  0  0  0  0
  -29.8298  -21.1335   20.0163 C   0  0  0  0  0  0
  -29.0743  -24.2130   20.7198 C   0  0  0  0  0  0
  -28.4456  -23.2415   19.6775 C   0  0  0  0  0  0
  -28.2671  -25.5112   21.0438 C   0  0  0  0  0  0
  -30.2806  -15.4218   21.4851 N   0  0  0  0  0  0
  -28.4748  -21.7732   20.0242 N   0  3  1  0  0  0
  -31.4627  -12.4154   19.1310 H   0  0  0  0  0  0
  -30.3138  -11.3289   19.8486 H   0  0  0  0  0  0
  -29.7438  -11.7726   17.4448 H   0  0  0  0  0  0
  -29.6440  -13.4886   17.7626 H   0  0  0  0  0  0
  -27.8615  -11.2888   18.8666 H   0  0  0  0  0  0
  -27.3574  -12.5709   17.7971 H   0  0  0  0  0  0
  -27.6938  -14.2516   19.5374 H   0  0  0  0  0  0
  -28.6728  -12.0176   21.3806 H   0  0  0  0  0  0
  -28.4261  -13.6772   21.8338 H   0  0  0  0  0  0
  -25.2757   -9.5687   22.4763 H   0  0  0  0  0  0
  -23.9991   -7.4644   22.7489 H   0  0  0  0  0  0
  -21.0840   -8.8776   19.8948 H   0  0  0  0  0  0
  -22.3713  -10.9668   19.6152 H   0  0  0  0  0  0
  -21.2005   -7.6155   23.9717 H   0  0  0  0  0  0
  -21.1471   -6.0530   25.9071 H   0  0  0  0  0  0
  -22.0597   -2.7620   23.2843 H   0  0  0  0  0  0
  -22.4119  -11.9870   22.4739 H   0  0  0  0  0  0
  -21.1114  -13.1235   22.2585 H   0  0  0  0  0  0
  -24.6710  -15.8482   20.5325 H   0  0  0  0  0  0
  -26.2960  -15.6305   20.1225 H   0  0  0  0  0  0
  -26.7131  -32.5524   23.1142 H   0  0  0  0  0  0
  -25.0199  -33.9770   25.0553 H   0  0  0  0  0  0
  -22.6958  -31.3033   21.4049 H   0  0  0  0  0  0
  -23.3783  -35.9585   23.3252 H   0  0  0  0  0  0
  -24.3598  -36.8933   22.2056 H   0  0  0  0  0  0
  -23.7185  -37.6461   23.6664 H   0  0  0  0  0  0
  -26.0405  -31.5888   20.5886 H   0  0  0  0  0  0
  -26.8262  -30.8865   21.9760 H   0  0  0  0  0  0
  -28.1095  -29.0788   21.1718 H   0  0  0  0  0  0
  -26.0598  -25.9556   19.0237 H   0  0  0  0  0  0
  -23.9826  -27.2928   19.0280 H   0  0  0  0  0  0
  -23.7119  -30.5873   19.4016 H   0  0  0  0  0  0
  -22.7408  -29.2275   19.8760 H   0  0  0  0  0  0
  -25.1263  -36.1949   25.0830 H   0  0  0  0  0  0
  -20.9921  -28.3186   24.1444 H   0  0  0  0  0  0
  -20.5643  -26.2249   23.3578 H   0  0  0  0  0  0
  -21.6620  -26.7415   22.1191 H   0  0  0  0  0  0
  -19.6906  -25.6275   21.1217 H   0  0  0  0  0  0
  -19.6690  -27.3189   20.6740 H   0  0  0  0  0  0
  -17.4175  -26.6675   21.4000 H   0  0  0  0  0  0
  -18.0317  -26.0032   22.8978 H   0  0  0  0  0  0
  -19.7943  -30.7242   24.2260 H   0  0  0  0  0  0
  -17.5025  -31.6273   24.5133 H   0  0  0  0  0  0
  -15.5349  -30.2979   23.7677 H   0  0  0  0  0  0
  -15.8645  -28.0808   22.7081 H   0  0  0  0  0  0
  -24.5945  -30.6990   25.7807 H   0  0  0  0  0  0
  -24.8908  -32.2829   26.4911 H   0  0  0  0  0  0
  -25.8112  -30.8865   27.0224 H   0  0  0  0  0  0
  -26.2872  -29.6798   24.1138 H   0  0  0  0  0  0
  -27.4177  -29.7291   25.4485 H   0  0  0  0  0  0
  -27.8665  -30.4411   23.9163 H   0  0  0  0  0  0
  -27.2688  -33.3640   26.2032 H   0  0  0  0  0  0
  -28.3899  -32.6824   25.0329 H   0  0  0  0  0  0
  -28.0688  -31.8448   26.5430 H   0  0  0  0  0  0
  -28.2531  -38.0151   24.7617 H   0  0  0  0  0  0
  -28.1153  -36.2687   24.6133 H   0  0  0  0  0  0
  -27.2322  -37.1235   25.8862 H   0  0  0  0  0  0
  -20.9306  -29.8792   21.6998 H   0  0  0  0  0  0
  -26.0154  -38.2859   24.1528 H   0  0  0  0  0  0
  -30.0122  -19.9679   22.5356 H   0  0  0  0  0  0
  -29.7925  -18.8864   18.3713 H   0  0  0  0  0  0
  -30.2213  -17.6251   23.1455 H   0  0  0  0  0  0
  -29.9718  -16.5210   18.9585 H   0  0  0  0  0  0
  -31.3483  -15.5210   23.3071 H   0  0  0  0  0  0
  -30.4791  -14.0152   23.0988 H   0  0  0  0  0  0
  -29.5857  -15.4645   23.4949 H   0  0  0  0  0  0
  -27.3729  -19.9992   19.5282 H   0  0  0  0  0  0
  -27.8252  -21.0006   18.1459 H   0  0  0  0  0  0
  -26.5112  -21.4846   19.2159 H   0  0  0  0  0  0
  -30.2695  -21.2492   19.0242 H   0  0  0  0  0  0
  -30.4892  -21.6797   20.6925 H   0  0  0  0  0  0
  -30.0931  -24.4676   20.4262 H   0  0  0  0  0  0
  -29.1769  -23.6732   21.6622 H   0  0  0  0  0  0
  -28.9028  -23.4008   18.6999 H   0  0  0  0  0  0
  -27.4009  -23.5321   19.5568 H   0  0  0  0  0  0
  -28.6376  -25.8982   21.9942 H   0  0  0  0  0  0
  -27.2292  -25.2347   21.2448 H   0  0  0  0  0  0
  -28.1297  -21.6933   20.9684 H   0  0  0  0  0  0
  1 25  1  0  0  0
  1 30  2  0  0  0
  1 83  1  0  0  0
  2  3  1  0  0  0
  2 25  1  0  0  0
  2 85  1  0  0  0
  2 86  1  0  0  0
  3  4  1  0  0  0
  3 87  1  0  0  0
  3 88  1  0  0  0
  4  5  1  0  0  0
  4 89  1  0  0  0
  4 90  1  0  0  0
  5  6  1  0  0  0
  5 26  1  0  0  0
  5 91  1  0  0  0
  6 25  1  0  0  0
  6 92  1  0  0  0
  6 93  1  0  0  0
  7  8  2  0  0  0
  7 26  1  0  0  0
  7 29  1  0  0  0
  8  9  1  0  0  0
  8 22  1  0  0  0
  9 10  1  0  0  0
  9 27  2  0  0  0
 10 11  2  0  0  0
 10 15  1  0  0  0
 11 12  1  0  0  0
 11 94  1  0  0  0
 12 13  2  0  0  0
 12 95  1  0  0  0
 13 14  1  0  0  0
 13 31  1  0  0  0
 14 15  2  0  0  0
 14 96  1  0  0  0
 15 97  1  0  0  0
 16 17  2  0  0  0
 16 21  1  0  0  0
 16 31  1  0  0  0
 17 18  1  0  0  0
 17 98  1  0  0  0
 18 19  2  0  0  0
 18 99  1  0  0  0
 19 20  1  0  0  0
 19 24  1  0  0  0
 20 21  2  0  0  0
 20100  1  0  0  0
 21 23  1  0  0  0
 22 28  1  0  0  0
 22 32  2  0  0  0
 26 27  1  0  0  0
 28101  1  0  0  0
 28102  1  0  0  0
 29103  1  0  0  0
 29104  1  0  0  0
 33 34  1  0  0  0
 33 66  1  0  0  0
 33 70  2  0  0  0
 34 36  1  0  0  0
 34 59  1  0  0  0
 34105  1  0  0  0
 35 44  2  0  0  0
 35 45  1  0  0  0
 35 68  1  0  0  0
 36 56  1  0  0  0
 36106  1  0  0  0
 37 39  1  0  0  0
 37 47  1  0  0  0
 37 66  1  0  0  0
 37107  1  0  0  0
 38 43  2  0  0  0
 38 46  1  0  0  0
 38 47  1  0  0  0
 39 64  1  0  0  0
 39 67  2  0  0  0
 40 52  1  0  0  0
 40 53  2  0  0  0
 40 58  1  0  0  0
 41108  1  0  0  0
 41109  1  0  0  0
 41110  1  0  0  0
 41 48  1  0  0  0
 42 43  1  0  0  0
 42 66  1  0  0  0
 42111  1  0  0  0
 42112  1  0  0  0
 43 44  1  0  0  0
 44113  1  0  0  0
 45 46  2  0  0  0
 45114  1  0  0  0
 46115  1  0  0  0
 47116  1  0  0  0
 47117  1  0  0  0
 48 56  1  0  0  0
 48 65  1  0  0  0
 48118  1  0  0  0
 49 50  1  0  0  0
 49 53  1  0  0  0
 49 64  1  0  0  0
 49119  1  0  0  0
 50 51  1  0  0  0
 50120  1  0  0  0
 50121  1  0  0  0
 51 52  1  0  0  0
 51122  1  0  0  0
 51123  1  0  0  0
 52124  1  0  0  0
 52125  1  0  0  0
 53 54  1  0  0  0
 54 55  2  0  0  0
 54126  1  0  0  0
 55 57  1  0  0  0
 55127  1  0  0  0
 56 69  2  0  0  0
 57 58  2  0  0  0
 57128  1  0  0  0
 58129  1  0  0  0
 59 60  1  0  0  0
 59 61  1  0  0  0
 59 62  1  0  0  0
 60130  1  0  0  0
 60131  1  0  0  0
 60132  1  0  0  0
 61133  1  0  0  0
 61134  1  0  0  0
 61135  1  0  0  0
 62136  1  0  0  0
 62137  1  0  0  0
 62138  1  0  0  0
 63 65  1  0  0  0
 63139  1  0  0  0
 63140  1  0  0  0
 63141  1  0  0  0
 64142  1  0  0  0
 65143  1  0  0  0
 68 82  1  0  0  0
 71 73  2  0  0  0
 71 75  1  0  0  0
 71144  1  0  0  0
 72 74  1  0  0  0
 72 75  2  0  0  0
 72145  1  0  0  0
 73 76  1  0  0  0
 73146  1  0  0  0
 74 76  2  0  0  0
 74147  1  0  0  0
 75 79  1  0  0  0
 76 83  1  0  0  0
 77 83  1  0  0  0
 77148  1  0  0  0
 77149  1  0  0  0
 77150  1  0  0  0
 78151  1  0  0  0
 78152  1  0  0  0
 78153  1  0  0  0
 78 84  1  0  0  0
 79 84  1  0  0  0
 79154  1  0  0  0
 79155  1  0  0  0
 80 81  1  0  0  0
 80 82  1  0  0  0
 80156  1  0  0  0
 80157  1  0  0  0
 81 84  1  0  0  0
 81158  1  0  0  0
 81159  1  0  0  0
 82160  1  0  0  0
 82161  1  0  0  0
 84162  1  0  0  0
M  CHG  1  84   1
M  ISO  4   1 100  68 101  82 101  83 100
M  END
> <chiral flag>
0

> <version>
0

> <s_m_source_file>
/data/baiqing/PycharmProjects/Reinvent-master-3.2/result/LINK_invent/BTK/process_docking_weight1_custom_product_contain_oxygen_bond_distance_aromatic_linkinvent_7_9_3/rearranged_h_0017.sdf

> <i_m_source_file_index>
77

> <r_mmod_Potential_Energy-OPLS-2005>
15.3480434417725

> <r_mmod_Stretch_Energy-OPLS-2005>
52.8608551025391

> <r_mmod_Bend_Energy-OPLS-2005>
111.99144744873

> <r_mmod_Torsional_Energy-OPLS-2005>
302.245422363281

> <r_mmod_Improper_Torsional_Energy-OPLS-2005>
2.93491387367249

> <r_mmod_Van_der_Waal_Energy-OPLS-2005>
154.772994995117

> <r_mmod_Electrostatic_Energy-OPLS-2005>
-191.54020690918

> <r_mmod_Solvation_Energy-OPLS-2005>
-433.879608154297

> <b_mmod_Minimization_Converged-OPLS-2005>
0

> <r_mmod_RMS_Derivative-OPLS-2005>
1.88787949085236

$$$$
78
                    3D
 Structure written by MMmdl.
165173  0  0  1  0            999 V2000
  -30.7079  -14.4414   20.5988 C   0  0  0  0  0  0
  -30.4299  -12.2950   19.4141 C   0  0  0  0  0  0
  -29.4967  -12.5076   18.2040 C   0  0  0  0  0  0
  -28.0178  -12.3697   18.6172 C   0  0  0  0  0  0
  -27.6682  -13.2000   19.8806 C   0  0  2  0  0  0
  -28.7085  -12.9520   20.9970 C   0  0  0  0  0  0
  -25.2622  -13.8147   20.5672 C   0  0  0  0  0  0
  -24.1858  -13.0437   20.9167 C   0  0  0  0  0  0
  -24.6395  -11.6899   20.8720 C   0  0  0  0  0  0
  -23.9056  -10.4289   21.0392 C   0  0  0  0  0  0
  -24.3601   -9.4207   21.9177 C   0  0  0  0  0  0
  -23.6278   -8.2242   22.0758 C   0  0  0  0  0  0
  -22.4263   -8.0271   21.3544 C   0  0  0  0  0  0
  -21.9891   -9.0244   20.4648 C   0  0  0  0  0  0
  -22.7220  -10.2127   20.3055 C   0  0  0  0  0  0
  -21.6850   -6.0723   22.5272 C   0  0  0  0  0  0
  -21.4015   -6.5634   23.8201 C   0  0  0  0  0  0
  -21.3663   -5.6791   24.9168 C   0  0  0  0  0  0
  -21.6044   -4.3053   24.7219 C   0  0  0  0  0  0
  -21.8826   -3.8140   23.4344 C   0  0  0  0  0  0
  -21.9193   -4.6953   22.3398 C   0  0  0  0  0  0
  -22.7882  -13.5246   21.1822 C   0  0  0  0  0  0
  -22.1662   -4.2137   21.0976 F   0  0  0  0  0  0
  -21.5629   -3.4542   25.7737 F   0  0  0  0  0  0
  -30.0465  -13.2600   20.4563 N   0  0  0  0  0  0
  -26.3056  -12.9302   20.3375 N   0  0  0  0  0  0
  -25.9324  -11.6468   20.5758 N   0  0  0  0  0  0
  -22.0515  -12.8249   22.0383 N   0  0  0  0  0  0
  -25.4360  -15.1864   20.4074 N   0  0  0  0  0  0
  -31.8047  -14.6623   20.0774 O   0  0  0  0  0  0
  -21.6635   -6.8864   21.4234 O   0  0  0  0  0  0
  -22.3574  -14.5547   20.6658 O   0  0  0  0  0  0
  -24.6140  -31.8686   23.2109 C   0  0  0  0  0  0
  -25.9024  -32.4833   23.8411 C   0  0  1  0  0  0
  -27.2257  -27.4393   20.0932 C   0  0  0  0  0  0
  -25.5887  -33.8629   24.2345 N   0  0  0  0  0  0
  -23.4026  -30.4942   21.5520 C   0  0  2  0  0  0
  -24.8508  -28.9711   20.1066 C   0  0  0  0  0  0
  -22.7426  -29.4641   22.4975 C   0  0  0  0  0  0
  -18.0276  -28.1375   22.8486 C   0  0  0  0  0  0
  -24.1486  -36.7311   23.2642 C   0  0  0  0  0  0
  -25.9339  -30.8371   21.3653 C   0  0  0  0  0  0
  -26.0119  -29.4750   20.7072 C   0  0  0  0  0  0
  -27.2078  -28.7166   20.6987 C   0  0  0  0  0  0
  -26.0559  -26.9653   19.4604 C   0  0  0  0  0  0
  -24.8682  -27.7163   19.4767 C   0  0  0  0  0  0
  -23.6111  -29.8348   20.1638 C   0  0  0  0  0  0
  -25.4106  -36.3115   24.0347 C   0  0  1  0  0  0
  -20.5872  -28.3646   23.1317 C   0  0  2  0  0  0
  -20.6760  -26.9382   22.5423 C   0  0  0  0  0  0
  -19.5743  -26.6382   21.5217 C   0  0  0  0  0  0
  -18.1919  -26.7922   22.1622 C   0  0  0  0  0  0
  -19.1528  -28.8831   23.2893 C   0  0  0  0  0  0
  -18.9453  -30.1442   23.8902 C   0  0  0  0  0  0
  -17.6459  -30.6578   24.0562 C   0  0  0  0  0  0
  -25.9036  -34.9480   23.5153 C   0  0  0  0  0  0
  -16.5346  -29.9080   23.6328 C   0  0  0  0  0  0
  -16.7266  -28.6509   23.0330 C   0  0  0  0  0  0
  -26.4463  -31.6604   25.0731 C   0  0  0  0  0  0
  -25.3724  -31.3705   26.1478 C   0  0  0  0  0  0
  -27.0283  -30.3061   24.6067 C   0  0  0  0  0  0
  -27.6049  -32.4323   25.7480 C   0  0  0  0  0  0
  -27.5581  -37.1809   24.8472 C   0  0  0  0  0  0
  -21.4155  -29.3009   22.3726 N   0  0  0  0  0  0
  -26.4296  -37.3792   23.9416 N   0  0  0  0  0  0
  -24.6686  -31.0793   22.1008 N   0  0  0  0  0  0
  -23.4222  -28.8167   23.2987 O   0  0  0  0  0  0
  -28.3393  -26.6276   20.1548 O   0  0  0  0  0  0
  -26.5590  -34.8925   22.4713 O   0  0  0  0  0  0
  -23.5339  -32.1432   23.7516 O   0  0  0  0  0  0
  -28.7069  -18.8379   20.9099 C   0  0  0  0  0  0
  -31.1204  -18.9367   20.6284 C   0  0  0  0  0  0
  -28.7905  -17.4487   21.1331 C   0  0  0  0  0  0
  -31.2031  -17.5418   20.8403 C   0  0  0  0  0  0
  -29.8713  -19.5968   20.6574 C   0  0  0  0  0  0
  -30.0333  -16.7817   21.0799 C   0  0  0  0  0  0
  -31.3900  -21.2871   24.8840 C   0  0  0  0  0  0
  -29.7673  -21.1058   20.4214 C   0  0  0  0  0  0
  -30.4946  -20.9318   23.6901 C   0  0  0  0  0  0
  -29.0405  -24.2499   20.7373 C   0  0  0  0  0  0
  -30.4031  -22.0718   22.6552 C   0  0  0  0  0  0
  -28.4318  -22.9910   21.4206 C   0  0  0  0  0  0
  -28.0817  -25.4452   20.9367 C   0  0  0  0  0  0
  -30.0379  -15.3737   21.2998 N   0  0  0  0  0  0
  -29.3362  -21.8260   21.6484 N   0  3  1  0  0  0
  -31.4735  -12.4005   19.1107 H   0  0  0  0  0  0
  -30.3359  -11.2776   19.7966 H   0  0  0  0  0  0
  -29.7295  -11.7834   17.4227 H   0  0  0  0  0  0
  -29.6695  -13.4935   17.7700 H   0  0  0  0  0  0
  -27.8276  -11.3130   18.8070 H   0  0  0  0  0  0
  -27.3654  -12.6492   17.7890 H   0  0  0  0  0  0
  -27.7224  -14.2514   19.5974 H   0  0  0  0  0  0
  -28.6821  -11.9086   21.3139 H   0  0  0  0  0  0
  -28.4609  -13.5232   21.8920 H   0  0  0  0  0  0
  -25.2752   -9.5690   22.4738 H   0  0  0  0  0  0
  -23.9987   -7.4651   22.7497 H   0  0  0  0  0  0
  -21.0812   -8.8762   19.8963 H   0  0  0  0  0  0
  -22.3673  -10.9657   19.6156 H   0  0  0  0  0  0
  -21.2014   -7.6143   23.9704 H   0  0  0  0  0  0
  -21.1475   -6.0519   25.9069 H   0  0  0  0  0  0
  -22.0602   -2.7600   23.2848 H   0  0  0  0  0  0
  -22.4111  -11.9905   22.4773 H   0  0  0  0  0  0
  -21.1138  -13.1293   22.2576 H   0  0  0  0  0  0
  -24.6684  -15.8415   20.5122 H   0  0  0  0  0  0
  -26.2816  -15.6188   20.0573 H   0  0  0  0  0  0
  -26.7100  -32.5560   23.1182 H   0  0  0  0  0  0
  -25.0046  -33.9802   25.0499 H   0  0  0  0  0  0
  -22.6906  -31.3109   21.4172 H   0  0  0  0  0  0
  -23.3753  -35.9636   23.3320 H   0  0  0  0  0  0
  -24.3587  -36.8904   22.2052 H   0  0  0  0  0  0
  -23.7238  -37.6525   23.6640 H   0  0  0  0  0  0
  -26.0452  -31.6060   20.5996 H   0  0  0  0  0  0
  -26.8225  -30.8899   21.9824 H   0  0  0  0  0  0
  -28.0997  -29.0902   21.1821 H   0  0  0  0  0  0
  -26.0538  -26.0014   18.9696 H   0  0  0  0  0  0
  -23.9788  -27.3273   19.0004 H   0  0  0  0  0  0
  -23.7184  -30.6149   19.4103 H   0  0  0  0  0  0
  -22.7357  -29.2548   19.8657 H   0  0  0  0  0  0
  -25.1283  -36.1993   25.0840 H   0  0  0  0  0  0
  -20.9953  -28.3204   24.1440 H   0  0  0  0  0  0
  -20.5674  -26.2239   23.3600 H   0  0  0  0  0  0
  -21.6625  -26.7431   22.1205 H   0  0  0  0  0  0
  -19.6897  -25.6304   21.1220 H   0  0  0  0  0  0
  -19.6690  -27.3200   20.6758 H   0  0  0  0  0  0
  -17.4190  -26.6673   21.4017 H   0  0  0  0  0  0
  -18.0306  -26.0065   22.9020 H   0  0  0  0  0  0
  -19.7934  -30.7252   24.2264 H   0  0  0  0  0  0
  -17.5017  -31.6255   24.5164 H   0  0  0  0  0  0
  -15.5346  -30.2983   23.7651 H   0  0  0  0  0  0
  -15.8666  -28.0844   22.7014 H   0  0  0  0  0  0
  -24.5902  -30.7048   25.7819 H   0  0  0  0  0  0
  -24.8900  -32.2845   26.4947 H   0  0  0  0  0  0
  -25.8071  -30.8865   27.0232 H   0  0  0  0  0  0
  -26.2803  -29.6850   24.1116 H   0  0  0  0  0  0
  -27.4083  -29.7276   25.4496 H   0  0  0  0  0  0
  -27.8629  -30.4422   23.9182 H   0  0  0  0  0  0
  -27.2685  -33.3621   26.2081 H   0  0  0  0  0  0
  -28.3827  -32.6888   25.0275 H   0  0  0  0  0  0
  -28.0747  -31.8431   26.5365 H   0  0  0  0  0  0
  -28.2605  -38.0095   24.7522 H   0  0  0  0  0  0
  -28.1066  -36.2632   24.6299 H   0  0  0  0  0  0
  -27.2302  -37.1476   25.8873 H   0  0  0  0  0  0
  -20.9304  -29.8787   21.7006 H   0  0  0  0  0  0
  -26.0197  -38.2878   24.1417 H   0  0  0  0  0  0
  -27.7350  -19.3118   20.9342 H   0  0  0  0  0  0
  -32.0266  -19.4971   20.4424 H   0  0  0  0  0  0
  -27.8818  -16.8962   21.3290 H   0  0  0  0  0  0
  -32.1755  -17.0693   20.8220 H   0  0  0  0  0  0
  -31.0004  -22.1531   25.4213 H   0  0  0  0  0  0
  -32.4046  -21.5220   24.5627 H   0  0  0  0  0  0
  -31.4474  -20.4598   25.5922 H   0  0  0  0  0  0
  -29.0361  -21.2569   19.6261 H   0  0  0  0  0  0
  -30.7064  -21.5158   20.0448 H   0  0  0  0  0  0
  -29.4998  -20.6864   24.0655 H   0  0  0  0  0  0
  -30.8793  -20.0256   23.2226 H   0  0  0  0  0  0
  -29.1806  -24.0565   19.6736 H   0  0  0  0  0  0
  -30.0199  -24.4967   21.1452 H   0  0  0  0  0  0
  -31.3664  -22.2376   22.1716 H   0  0  0  0  0  0
  -30.1812  -22.9923   23.1973 H   0  0  0  0  0  0
  -27.5670  -22.6543   20.8456 H   0  0  0  0  0  0
  -28.0251  -23.2748   22.3934 H   0  0  0  0  0  0
  -28.0943  -25.7369   21.9885 H   0  0  0  0  0  0
  -27.0749  -25.0658   20.7606 H   0  0  0  0  0  0
  -29.2065  -15.0071   21.7355 H   0  0  0  0  0  0
  -28.7242  -21.1635   22.1000 H   0  0  0  0  0  0
  1 25  1  0  0  0
  1 30  2  0  0  0
  1 84  1  0  0  0
  2  3  1  0  0  0
  2 25  1  0  0  0
  2 86  1  0  0  0
  2 87  1  0  0  0
  3  4  1  0  0  0
  3 88  1  0  0  0
  3 89  1  0  0  0
  4  5  1  0  0  0
  4 90  1  0  0  0
  4 91  1  0  0  0
  5  6  1  0  0  0
  5 26  1  0  0  0
  5 92  1  0  0  0
  6 25  1  0  0  0
  6 93  1  0  0  0
  6 94  1  0  0  0
  7  8  2  0  0  0
  7 26  1  0  0  0
  7 29  1  0  0  0
  8  9  1  0  0  0
  8 22  1  0  0  0
  9 10  1  0  0  0
  9 27  2  0  0  0
 10 11  2  0  0  0
 10 15  1  0  0  0
 11 12  1  0  0  0
 11 95  1  0  0  0
 12 13  2  0  0  0
 12 96  1  0  0  0
 13 14  1  0  0  0
 13 31  1  0  0  0
 14 15  2  0  0  0
 14 97  1  0  0  0
 15 98  1  0  0  0
 16 17  2  0  0  0
 16 21  1  0  0  0
 16 31  1  0  0  0
 17 18  1  0  0  0
 17 99  1  0  0  0
 18 19  2  0  0  0
 18100  1  0  0  0
 19 20  1  0  0  0
 19 24  1  0  0  0
 20 21  2  0  0  0
 20101  1  0  0  0
 21 23  1  0  0  0
 22 28  1  0  0  0
 22 32  2  0  0  0
 26 27  1  0  0  0
 28102  1  0  0  0
 28103  1  0  0  0
 29104  1  0  0  0
 29105  1  0  0  0
 33 34  1  0  0  0
 33 66  1  0  0  0
 33 70  2  0  0  0
 34 36  1  0  0  0
 34 59  1  0  0  0
 34106  1  0  0  0
 35 44  2  0  0  0
 35 45  1  0  0  0
 35 68  1  0  0  0
 36 56  1  0  0  0
 36107  1  0  0  0
 37 39  1  0  0  0
 37 47  1  0  0  0
 37 66  1  0  0  0
 37108  1  0  0  0
 38 43  2  0  0  0
 38 46  1  0  0  0
 38 47  1  0  0  0
 39 64  1  0  0  0
 39 67  2  0  0  0
 40 52  1  0  0  0
 40 53  2  0  0  0
 40 58  1  0  0  0
 41109  1  0  0  0
 41110  1  0  0  0
 41111  1  0  0  0
 41 48  1  0  0  0
 42 43  1  0  0  0
 42 66  1  0  0  0
 42112  1  0  0  0
 42113  1  0  0  0
 43 44  1  0  0  0
 44114  1  0  0  0
 45 46  2  0  0  0
 45115  1  0  0  0
 46116  1  0  0  0
 47117  1  0  0  0
 47118  1  0  0  0
 48 56  1  0  0  0
 48 65  1  0  0  0
 48119  1  0  0  0
 49 50  1  0  0  0
 49 53  1  0  0  0
 49 64  1  0  0  0
 49120  1  0  0  0
 50 51  1  0  0  0
 50121  1  0  0  0
 50122  1  0  0  0
 51 52  1  0  0  0
 51123  1  0  0  0
 51124  1  0  0  0
 52125  1  0  0  0
 52126  1  0  0  0
 53 54  1  0  0  0
 54 55  2  0  0  0
 54127  1  0  0  0
 55 57  1  0  0  0
 55128  1  0  0  0
 56 69  2  0  0  0
 57 58  2  0  0  0
 57129  1  0  0  0
 58130  1  0  0  0
 59 60  1  0  0  0
 59 61  1  0  0  0
 59 62  1  0  0  0
 60131  1  0  0  0
 60132  1  0  0  0
 60133  1  0  0  0
 61134  1  0  0  0
 61135  1  0  0  0
 61136  1  0  0  0
 62137  1  0  0  0
 62138  1  0  0  0
 62139  1  0  0  0
 63 65  1  0  0  0
 63140  1  0  0  0
 63141  1  0  0  0
 63142  1  0  0  0
 64143  1  0  0  0
 65144  1  0  0  0
 68 83  1  0  0  0
 71 73  2  0  0  0
 71 75  1  0  0  0
 71145  1  0  0  0
 72 74  1  0  0  0
 72 75  2  0  0  0
 72146  1  0  0  0
 73 76  1  0  0  0
 73147  1  0  0  0
 74 76  2  0  0  0
 74148  1  0  0  0
 75 78  1  0  0  0
 76 84  1  0  0  0
 77 79  1  0  0  0
 77149  1  0  0  0
 77150  1  0  0  0
 77151  1  0  0  0
 78152  1  0  0  0
 78153  1  0  0  0
 78 85  1  0  0  0
 79 81  1  0  0  0
 79154  1  0  0  0
 79155  1  0  0  0
 80 82  1  0  0  0
 80 83  1  0  0  0
 80156  1  0  0  0
 80157  1  0  0  0
 81 85  1  0  0  0
 81158  1  0  0  0
 81159  1  0  0  0
 82 85  1  0  0  0
 82160  1  0  0  0
 82161  1  0  0  0
 83162  1  0  0  0
 83163  1  0  0  0
 84164  1  0  0  0
 85165  1  0  0  0
M  CHG  1  85   1
M  ISO  4   1 100  68 101  83 101  84 100
M  END
> <chiral flag>
0

> <version>
0

> <s_m_source_file>
/data/baiqing/PycharmProjects/Reinvent-master-3.2/result/LINK_invent/BTK/process_docking_weight1_custom_product_contain_oxygen_bond_distance_aromatic_linkinvent_7_9_3/rearranged_h_0017.sdf

> <i_m_source_file_index>
78

> <r_mmod_Potential_Energy-OPLS-2005>
-133.317855834961

> <r_mmod_Stretch_Energy-OPLS-2005>
37.303955078125

> <r_mmod_Bend_Energy-OPLS-2005>
103.275024414062

> <r_mmod_Torsional_Energy-OPLS-2005>
251.351501464844

> <r_mmod_Improper_Torsional_Energy-OPLS-2005>
4.14348602294922

> <r_mmod_Van_der_Waal_Energy-OPLS-2005>
150.095306396484

> <r_mmod_Electrostatic_Energy-OPLS-2005>
-251.400466918945

> <r_mmod_Solvation_Energy-OPLS-2005>
-441.337554931641

> <b_mmod_Minimization_Converged-OPLS-2005>
0

> <r_mmod_RMS_Derivative-OPLS-2005>
1.78263413906097

$$$$
79
                    3D
 Structure written by MMmdl.
158166  0  0  1  0            999 V2000
  -30.6816  -14.6220   20.6003 C   0  0  0  0  0  0
  -30.4275  -12.4093   19.4594 C   0  0  0  0  0  0
  -29.5045  -12.5232   18.2279 C   0  0  0  0  0  0
  -28.0306  -12.3483   18.6368 C   0  0  0  0  0  0
  -27.6510  -13.2216   19.8603 C   0  0  2  0  0  0
  -28.6859  -13.0824   20.9947 C   0  0  0  0  0  0
  -25.2551  -13.8184   20.5681 C   0  0  0  0  0  0
  -24.1819  -13.0435   20.9190 C   0  0  0  0  0  0
  -24.6400  -11.6911   20.8724 C   0  0  0  0  0  0
  -23.9076  -10.4286   21.0396 C   0  0  0  0  0  0
  -24.3624   -9.4201   21.9178 C   0  0  0  0  0  0
  -23.6293   -8.2240   22.0750 C   0  0  0  0  0  0
  -22.4274   -8.0281   21.3545 C   0  0  0  0  0  0
  -21.9916   -9.0255   20.4643 C   0  0  0  0  0  0
  -22.7250  -10.2132   20.3046 C   0  0  0  0  0  0
  -21.6857   -6.0731   22.5281 C   0  0  0  0  0  0
  -21.4014   -6.5635   23.8212 C   0  0  0  0  0  0
  -21.3659   -5.6789   24.9180 C   0  0  0  0  0  0
  -21.6046   -4.3052   24.7232 C   0  0  0  0  0  0
  -21.8822   -3.8142   23.4351 C   0  0  0  0  0  0
  -21.9191   -4.6956   22.3407 C   0  0  0  0  0  0
  -22.7841  -13.5221   21.1862 C   0  0  0  0  0  0
  -22.1657   -4.2133   21.0987 F   0  0  0  0  0  0
  -21.5633   -3.4544   25.7752 F   0  0  0  0  0  0
  -30.0116  -13.4269   20.4515 N   0  0  0  0  0  0
  -26.2975  -12.9374   20.3284 N   0  0  0  0  0  0
  -25.9325  -11.6524   20.5722 N   0  0  0  0  0  0
  -22.0493  -12.8197   22.0414 N   0  0  0  0  0  0
  -25.4292  -15.1902   20.4119 N   0  0  0  0  0  0
  -31.7574  -14.8104   20.0221 O   0  0  0  0  0  0
  -21.6649   -6.8872   21.4239 O   0  0  0  0  0  0
  -22.3519  -14.5530   20.6721 O   0  0  0  0  0  0
  -24.6267  -31.8583   23.2048 C   0  0  0  0  0  0
  -25.9115  -32.4764   23.8359 C   0  0  1  0  0  0
  -27.2132  -27.3072   20.1168 C   0  0  0  0  0  0
  -25.5941  -33.8567   24.2287 N   0  0  0  0  0  0
  -23.4216  -30.4846   21.5468 C   0  0  2  0  0  0
  -24.8680  -28.9427   20.1111 C   0  0  0  0  0  0
  -22.7485  -29.4612   22.4927 C   0  0  0  0  0  0
  -18.0283  -28.1389   22.8490 C   0  0  0  0  0  0
  -24.1486  -36.7290   23.2636 C   0  0  0  0  0  0
  -25.9643  -30.7851   21.3786 C   0  0  0  0  0  0
  -26.0386  -29.4118   20.7217 C   0  0  0  0  0  0
  -27.2178  -28.6040   20.7205 C   0  0  0  0  0  0
  -26.0231  -26.9023   19.4707 C   0  0  0  0  0  0
  -24.8611  -27.6923   19.4782 C   0  0  0  0  0  0
  -23.6378  -29.8250   20.1609 C   0  0  0  0  0  0
  -25.4107  -36.3069   24.0324 C   0  0  1  0  0  0
  -20.5885  -28.3692   23.1278 C   0  0  2  0  0  0
  -20.6784  -26.9419   22.5407 C   0  0  0  0  0  0
  -19.5759  -26.6391   21.5213 C   0  0  0  0  0  0
  -18.1931  -26.7936   22.1616 C   0  0  0  0  0  0
  -19.1539  -28.8860   23.2881 C   0  0  0  0  0  0
  -18.9463  -30.1464   23.8897 C   0  0  0  0  0  0
  -17.6464  -30.6600   24.0561 C   0  0  0  0  0  0
  -25.9058  -34.9436   23.5104 C   0  0  0  0  0  0
  -16.5353  -29.9093   23.6336 C   0  0  0  0  0  0
  -16.7270  -28.6508   23.0362 C   0  0  0  0  0  0
  -26.4510  -31.6579   25.0731 C   0  0  0  0  0  0
  -25.3749  -31.3699   26.1470 C   0  0  0  0  0  0
  -27.0358  -30.2998   24.6188 C   0  0  0  0  0  0
  -27.6068  -32.4320   25.7508 C   0  0  0  0  0  0
  -27.5573  -37.1792   24.8464 C   0  0  0  0  0  0
  -21.4198  -29.3039   22.3668 N   0  0  0  0  0  0
  -26.4281  -37.3765   23.9411 N   0  0  0  0  0  0
  -24.6895  -31.0595   22.1002 N   0  0  0  0  0  0
  -23.4208  -28.8140   23.2999 O   0  0  0  0  0  0
  -28.2948  -26.4093   20.1221 O   0  0  0  0  0  0
  -26.5617  -34.8895   22.4663 O   0  0  0  0  0  0
  -23.5425  -32.1386   23.7371 O   0  0  0  0  0  0
  -29.9535  -18.9839   19.5381 C   0  0  0  0  0  0
  -30.0638  -17.5799   19.8087 C   0  0  0  0  0  0
  -29.5290  -19.4083   21.8500 C   0  0  0  0  0  0
  -29.7196  -19.9504   20.5576 C   0  0  0  0  0  0
  -29.9546  -17.0337   21.1233 C   0  0  0  0  0  0
  -29.6343  -18.0133   22.1268 C   0  0  0  0  0  0
  -28.0985  -25.0353   20.5386 C   0  0  0  0  0  0
  -30.2755  -15.2000   22.8587 C   0  0  0  0  0  0
  -27.6231  -22.0019   19.4483 C   0  0  0  0  0  0
  -29.8923  -21.5080   20.3140 C   0  0  0  0  0  0
  -29.1163  -23.9415   20.0238 C   0  0  0  0  0  0
  -30.1598  -15.5863   21.4389 N   0  0  0  0  0  0
  -28.7255  -22.4852   20.3167 N   0  3  1  0  0  0
  -27.1567  -24.6782   21.2543 O   0  0  0  0  0  0
  -29.4380  -17.6585   23.4184 F   0  0  0  0  0  0
  -31.4702  -12.5225   19.1583 H   0  0  0  0  0  0
  -30.3576  -11.4117   19.8966 H   0  0  0  0  0  0
  -29.7757  -11.7728   17.4841 H   0  0  0  0  0  0
  -29.6437  -13.4942   17.7507 H   0  0  0  0  0  0
  -27.8774  -11.2945   18.8739 H   0  0  0  0  0  0
  -27.3740  -12.5670   17.7939 H   0  0  0  0  0  0
  -27.6720  -14.2579   19.5215 H   0  0  0  0  0  0
  -28.6955  -12.0643   21.3863 H   0  0  0  0  0  0
  -28.3899  -13.7164   21.8283 H   0  0  0  0  0  0
  -25.2772   -9.5675   22.4755 H   0  0  0  0  0  0
  -24.0001   -7.4631   22.7470 H   0  0  0  0  0  0
  -21.0851   -8.8780   19.8942 H   0  0  0  0  0  0
  -22.3718  -10.9670   19.6151 H   0  0  0  0  0  0
  -21.2006   -7.6142   23.9714 H   0  0  0  0  0  0
  -21.1477   -6.0525   25.9084 H   0  0  0  0  0  0
  -22.0600   -2.7602   23.2876 H   0  0  0  0  0  0
  -22.4118  -11.9856   22.4785 H   0  0  0  0  0  0
  -21.1100  -13.1195   22.2610 H   0  0  0  0  0  0
  -24.6728  -15.8547   20.5362 H   0  0  0  0  0  0
  -26.2952  -15.6251   20.1186 H   0  0  0  0  0  0
  -26.7178  -32.5448   23.1100 H   0  0  0  0  0  0
  -25.0108  -33.9716   25.0445 H   0  0  0  0  0  0
  -22.7146  -31.3049   21.4053 H   0  0  0  0  0  0
  -23.3742  -35.9633   23.3304 H   0  0  0  0  0  0
  -24.3570  -36.8918   22.2051 H   0  0  0  0  0  0
  -23.7249  -37.6488   23.6672 H   0  0  0  0  0  0
  -26.0954  -31.5456   20.6073 H   0  0  0  0  0  0
  -26.8452  -30.8362   22.0069 H   0  0  0  0  0  0
  -28.1159  -28.9569   21.2078 H   0  0  0  0  0  0
  -25.9768  -25.9447   18.9717 H   0  0  0  0  0  0
  -23.9655  -27.3316   18.9912 H   0  0  0  0  0  0
  -23.7586  -30.6041   19.4069 H   0  0  0  0  0  0
  -22.7562  -29.2574   19.8576 H   0  0  0  0  0  0
  -25.1274  -36.1916   25.0812 H   0  0  0  0  0  0
  -20.9963  -28.3283   24.1402 H   0  0  0  0  0  0
  -20.5706  -26.2297   23.3601 H   0  0  0  0  0  0
  -21.6650  -26.7467   22.1187 H   0  0  0  0  0  0
  -19.6934  -25.6306   21.1241 H   0  0  0  0  0  0
  -19.6708  -27.3202   20.6745 H   0  0  0  0  0  0
  -17.4200  -26.6688   21.4011 H   0  0  0  0  0  0
  -18.0332  -26.0077   22.9012 H   0  0  0  0  0  0
  -19.7939  -30.7285   24.2263 H   0  0  0  0  0  0
  -17.5017  -31.6280   24.5171 H   0  0  0  0  0  0
  -15.5354  -30.2988   23.7686 H   0  0  0  0  0  0
  -15.8665  -28.0832   22.7071 H   0  0  0  0  0  0
  -24.5960  -30.6989   25.7827 H   0  0  0  0  0  0
  -24.8886  -32.2843   26.4874 H   0  0  0  0  0  0
  -25.8096  -30.8926   27.0263 H   0  0  0  0  0  0
  -26.2922  -29.6724   24.1254 H   0  0  0  0  0  0
  -27.4091  -29.7273   25.4693 H   0  0  0  0  0  0
  -27.8783  -30.4271   23.9383 H   0  0  0  0  0  0
  -27.2693  -33.3651   26.2028 H   0  0  0  0  0  0
  -28.3920  -32.6827   25.0364 H   0  0  0  0  0  0
  -28.0685  -31.8473   26.5474 H   0  0  0  0  0  0
  -28.2579  -38.0102   24.7525 H   0  0  0  0  0  0
  -28.1083  -36.2628   24.6282 H   0  0  0  0  0  0
  -27.2295  -37.1431   25.8869 H   0  0  0  0  0  0
  -20.9376  -29.8762   21.6881 H   0  0  0  0  0  0
  -26.0162  -38.2833   24.1437 H   0  0  0  0  0  0
  -30.1167  -19.3221   18.5238 H   0  0  0  0  0  0
  -30.2833  -16.9263   18.9766 H   0  0  0  0  0  0
  -29.3487  -20.0744   22.6814 H   0  0  0  0  0  0
  -29.3151  -15.2941   23.3641 H   0  0  0  0  0  0
  -31.0058  -15.8302   23.3684 H   0  0  0  0  0  0
  -30.6060  -14.1707   23.0218 H   0  0  0  0  0  0
  -27.2686  -21.0251   19.7791 H   0  0  0  0  0  0
  -27.9518  -21.9026   18.4126 H   0  0  0  0  0  0
  -26.7635  -22.6723   19.4639 H   0  0  0  0  0  0
  -30.4044  -21.6250   19.3583 H   0  0  0  0  0  0
  -30.6062  -21.8595   21.0605 H   0  0  0  0  0  0
  -30.0742  -24.1532   20.4967 H   0  0  0  0  0  0
  -29.2628  -24.0722   18.9519 H   0  0  0  0  0  0
  -28.3626  -22.4979   21.2583 H   0  0  0  0  0  0
  1 25  1  0  0  0
  1 30  2  0  0  0
  1 82  1  0  0  0
  2  3  1  0  0  0
  2 25  1  0  0  0
  2 86  1  0  0  0
  2 87  1  0  0  0
  3  4  1  0  0  0
  3 88  1  0  0  0
  3 89  1  0  0  0
  4  5  1  0  0  0
  4 90  1  0  0  0
  4 91  1  0  0  0
  5  6  1  0  0  0
  5 26  1  0  0  0
  5 92  1  0  0  0
  6 25  1  0  0  0
  6 93  1  0  0  0
  6 94  1  0  0  0
  7  8  2  0  0  0
  7 26  1  0  0  0
  7 29  1  0  0  0
  8  9  1  0  0  0
  8 22  1  0  0  0
  9 10  1  0  0  0
  9 27  2  0  0  0
 10 11  2  0  0  0
 10 15  1  0  0  0
 11 12  1  0  0  0
 11 95  1  0  0  0
 12 13  2  0  0  0
 12 96  1  0  0  0
 13 14  1  0  0  0
 13 31  1  0  0  0
 14 15  2  0  0  0
 14 97  1  0  0  0
 15 98  1  0  0  0
 16 17  2  0  0  0
 16 21  1  0  0  0
 16 31  1  0  0  0
 17 18  1  0  0  0
 17 99  1  0  0  0
 18 19  2  0  0  0
 18100  1  0  0  0
 19 20  1  0  0  0
 19 24  1  0  0  0
 20 21  2  0  0  0
 20101  1  0  0  0
 21 23  1  0  0  0
 22 28  1  0  0  0
 22 32  2  0  0  0
 26 27  1  0  0  0
 28102  1  0  0  0
 28103  1  0  0  0
 29104  1  0  0  0
 29105  1  0  0  0
 33 34  1  0  0  0
 33 66  1  0  0  0
 33 70  2  0  0  0
 34 36  1  0  0  0
 34 59  1  0  0  0
 34106  1  0  0  0
 35 44  2  0  0  0
 35 45  1  0  0  0
 35 68  1  0  0  0
 36 56  1  0  0  0
 36107  1  0  0  0
 37 39  1  0  0  0
 37 47  1  0  0  0
 37 66  1  0  0  0
 37108  1  0  0  0
 38 43  2  0  0  0
 38 46  1  0  0  0
 38 47  1  0  0  0
 39 64  1  0  0  0
 39 67  2  0  0  0
 40 52  1  0  0  0
 40 53  2  0  0  0
 40 58  1  0  0  0
 41109  1  0  0  0
 41110  1  0  0  0
 41111  1  0  0  0
 41 48  1  0  0  0
 42 43  1  0  0  0
 42 66  1  0  0  0
 42112  1  0  0  0
 42113  1  0  0  0
 43 44  1  0  0  0
 44114  1  0  0  0
 45 46  2  0  0  0
 45115  1  0  0  0
 46116  1  0  0  0
 47117  1  0  0  0
 47118  1  0  0  0
 48 56  1  0  0  0
 48 65  1  0  0  0
 48119  1  0  0  0
 49 50  1  0  0  0
 49 53  1  0  0  0
 49 64  1  0  0  0
 49120  1  0  0  0
 50 51  1  0  0  0
 50121  1  0  0  0
 50122  1  0  0  0
 51 52  1  0  0  0
 51123  1  0  0  0
 51124  1  0  0  0
 52125  1  0  0  0
 52126  1  0  0  0
 53 54  1  0  0  0
 54 55  2  0  0  0
 54127  1  0  0  0
 55 57  1  0  0  0
 55128  1  0  0  0
 56 69  2  0  0  0
 57 58  2  0  0  0
 57129  1  0  0  0
 58130  1  0  0  0
 59 60  1  0  0  0
 59 61  1  0  0  0
 59 62  1  0  0  0
 60131  1  0  0  0
 60132  1  0  0  0
 60133  1  0  0  0
 61134  1  0  0  0
 61135  1  0  0  0
 61136  1  0  0  0
 62137  1  0  0  0
 62138  1  0  0  0
 62139  1  0  0  0
 63 65  1  0  0  0
 63140  1  0  0  0
 63141  1  0  0  0
 63142  1  0  0  0
 64143  1  0  0  0
 65144  1  0  0  0
 68 77  1  0  0  0
 71 72  2  0  0  0
 71 74  1  0  0  0
 71145  1  0  0  0
 72 75  1  0  0  0
 72146  1  0  0  0
 73 74  2  0  0  0
 73 76  1  0  0  0
 73147  1  0  0  0
 74 80  1  0  0  0
 75 76  2  0  0  0
 75 82  1  0  0  0
 76 85  1  0  0  0
 77 81  1  0  0  0
 77 84  2  0  0  0
 78 82  1  0  0  0
 78148  1  0  0  0
 78149  1  0  0  0
 78150  1  0  0  0
 79151  1  0  0  0
 79152  1  0  0  0
 79153  1  0  0  0
 79 83  1  0  0  0
 80 83  1  0  0  0
 80154  1  0  0  0
 80155  1  0  0  0
 81 83  1  0  0  0
 81156  1  0  0  0
 81157  1  0  0  0
 83158  1  0  0  0
M  CHG  1  83   1
M  ISO  4   1 100  68 101  77 101  82 100
M  END
> <chiral flag>
0

> <version>
0

> <s_m_source_file>
/data/baiqing/PycharmProjects/Reinvent-master-3.2/result/LINK_invent/BTK/process_docking_weight1_custom_product_contain_oxygen_bond_distance_aromatic_linkinvent_7_9_3/rearranged_h_0017.sdf

> <i_m_source_file_index>
79

> <r_mmod_Potential_Energy-OPLS-2005>
17.0570755004883

> <r_mmod_Stretch_Energy-OPLS-2005>
103.300483703613

> <r_mmod_Bend_Energy-OPLS-2005>
147.291763305664

> <r_mmod_Torsional_Energy-OPLS-2005>
275.309234619141

> <r_mmod_Improper_Torsional_Energy-OPLS-2005>
4.07011985778809

> <r_mmod_Van_der_Waal_Energy-OPLS-2005>
157.483474731445

> <r_mmod_Electrostatic_Energy-OPLS-2005>
-276.773284912109

> <r_mmod_Solvation_Energy-OPLS-2005>
-443.762420654297

> <b_mmod_Minimization_Converged-OPLS-2005>
0

> <r_mmod_RMS_Derivative-OPLS-2005>
1.55063450336456

$$$$
80
                    3D
 Structure written by MMmdl.
158166  0  0  1  0            999 V2000
  -30.6808  -14.6286   20.5817 C   0  0  0  0  0  0
  -30.4344  -12.4113   19.4574 C   0  0  0  0  0  0
  -29.5090  -12.5212   18.2255 C   0  0  0  0  0  0
  -28.0327  -12.3478   18.6333 C   0  0  0  0  0  0
  -27.6521  -13.2212   19.8560 C   0  0  2  0  0  0
  -28.6888  -13.0699   20.9851 C   0  0  0  0  0  0
  -25.2556  -13.8190   20.5668 C   0  0  0  0  0  0
  -24.1826  -13.0456   20.9168 C   0  0  0  0  0  0
  -24.6399  -11.6919   20.8720 C   0  0  0  0  0  0
  -23.9076  -10.4295   21.0393 C   0  0  0  0  0  0
  -24.3624   -9.4206   21.9170 C   0  0  0  0  0  0
  -23.6294   -8.2246   22.0751 C   0  0  0  0  0  0
  -22.4277   -8.0284   21.3541 C   0  0  0  0  0  0
  -21.9910   -9.0261   20.4648 C   0  0  0  0  0  0
  -22.7250  -10.2132   20.3044 C   0  0  0  0  0  0
  -21.6845   -6.0734   22.5281 C   0  0  0  0  0  0
  -21.4025   -6.5635   23.8219 C   0  0  0  0  0  0
  -21.3660   -5.6782   24.9179 C   0  0  0  0  0  0
  -21.6044   -4.3049   24.7220 C   0  0  0  0  0  0
  -21.8818   -3.8137   23.4339 C   0  0  0  0  0  0
  -21.9197   -4.6959   22.3399 C   0  0  0  0  0  0
  -22.7843  -13.5240   21.1828 C   0  0  0  0  0  0
  -22.1663   -4.2142   21.0977 F   0  0  0  0  0  0
  -21.5621   -3.4536   25.7735 F   0  0  0  0  0  0
  -30.0114  -13.4315   20.4444 N   0  0  0  0  0  0
  -26.2979  -12.9381   20.3257 N   0  0  0  0  0  0
  -25.9321  -11.6526   20.5698 N   0  0  0  0  0  0
  -22.0487  -12.8250   22.0399 N   0  0  0  0  0  0
  -25.4278  -15.1920   20.4136 N   0  0  0  0  0  0
  -31.7955  -14.7707   20.0682 O   0  0  0  0  0  0
  -21.6643   -6.8878   21.4241 O   0  0  0  0  0  0
  -22.3522  -14.5535   20.6659 O   0  0  0  0  0  0
  -24.6265  -31.8605   23.2044 C   0  0  0  0  0  0
  -25.9114  -32.4789   23.8364 C   0  0  1  0  0  0
  -27.2195  -27.3222   20.1116 C   0  0  0  0  0  0
  -25.5936  -33.8588   24.2284 N   0  0  0  0  0  0
  -23.4184  -30.4866   21.5481 C   0  0  2  0  0  0
  -24.8624  -28.9450   20.1128 C   0  0  0  0  0  0
  -22.7471  -29.4639   22.4956 C   0  0  0  0  0  0
  -18.0287  -28.1389   22.8489 C   0  0  0  0  0  0
  -24.1484  -36.7287   23.2636 C   0  0  0  0  0  0
  -25.9610  -30.7929   21.3752 C   0  0  0  0  0  0
  -26.0338  -29.4228   20.7124 C   0  0  0  0  0  0
  -27.2170  -28.6253   20.6981 C   0  0  0  0  0  0
  -26.0191  -26.8964   19.4938 C   0  0  0  0  0  0
  -24.8566  -27.6870   19.4945 C   0  0  0  0  0  0
  -23.6317  -29.8256   20.1622 C   0  0  0  0  0  0
  -25.4113  -36.3089   24.0327 C   0  0  1  0  0  0
  -20.5887  -28.3683   23.1293 C   0  0  2  0  0  0
  -20.6779  -26.9416   22.5410 C   0  0  0  0  0  0
  -19.5754  -26.6385   21.5213 C   0  0  0  0  0  0
  -18.1930  -26.7931   22.1625 C   0  0  0  0  0  0
  -19.1540  -28.8858   23.2883 C   0  0  0  0  0  0
  -18.9461  -30.1457   23.8903 C   0  0  0  0  0  0
  -17.6462  -30.6589   24.0563 C   0  0  0  0  0  0
  -25.9055  -34.9461   23.5100 C   0  0  0  0  0  0
  -16.5354  -29.9087   23.6336 C   0  0  0  0  0  0
  -16.7275  -28.6507   23.0357 C   0  0  0  0  0  0
  -26.4493  -31.6596   25.0727 C   0  0  0  0  0  0
  -25.3723  -31.3759   26.1451 C   0  0  0  0  0  0
  -27.0325  -30.3013   24.6186 C   0  0  0  0  0  0
  -27.6051  -32.4331   25.7502 C   0  0  0  0  0  0
  -27.5586  -37.1799   24.8467 C   0  0  0  0  0  0
  -21.4192  -29.3034   22.3693 N   0  0  0  0  0  0
  -26.4294  -37.3783   23.9414 N   0  0  0  0  0  0
  -24.6873  -31.0627   22.0992 N   0  0  0  0  0  0
  -23.4205  -28.8166   23.3016 O   0  0  0  0  0  0
  -28.3394  -26.4740   20.1539 O   0  0  0  0  0  0
  -26.5616  -34.8925   22.4662 O   0  0  0  0  0  0
  -23.5435  -32.1409   23.7379 O   0  0  0  0  0  0
  -29.0541  -17.9813   21.4596 C   0  0  0  0  0  0
  -30.8349  -17.7129   19.8819 C   0  0  0  0  0  0
  -29.0392  -19.3914   21.2321 C   0  0  0  0  0  0
  -30.8330  -19.1248   19.6712 C   0  0  0  0  0  0
  -29.9805  -17.0934   20.8332 C   0  0  0  0  0  0
  -29.9681  -20.0218   20.3691 C   0  0  0  0  0  0
  -29.9079  -15.4805   22.7039 C   0  0  0  0  0  0
  -31.4550  -21.9255   19.9634 C   0  0  0  0  0  0
  -29.2905  -23.9915   20.2826 C   0  0  0  0  0  0
  -28.9575  -22.4269   20.1778 C   0  0  0  0  0  0
  -28.0998  -25.0144   20.0587 C   0  0  0  0  0  0
  -30.0727  -15.6766   21.2545 N   0  0  0  0  0  0
  -30.1017  -21.4574   20.2730 N   0  0  0  0  0  0
  -31.4766  -12.5245   19.1541 H   0  0  0  0  0  0
  -30.3708  -11.4154   19.8989 H   0  0  0  0  0  0
  -29.7804  -11.7720   17.4807 H   0  0  0  0  0  0
  -29.6489  -13.4915   17.7447 H   0  0  0  0  0  0
  -27.8809  -11.2939   18.8720 H   0  0  0  0  0  0
  -27.3737  -12.5670   17.7932 H   0  0  0  0  0  0
  -27.6760  -14.2596   19.5223 H   0  0  0  0  0  0
  -28.7032  -12.0441   21.3561 H   0  0  0  0  0  0
  -28.3862  -13.6755   21.8334 H   0  0  0  0  0  0
  -25.2772   -9.5675   22.4742 H   0  0  0  0  0  0
  -24.0000   -7.4638   22.7471 H   0  0  0  0  0  0
  -21.0832   -8.8787   19.8969 H   0  0  0  0  0  0
  -22.3711  -10.9664   19.6144 H   0  0  0  0  0  0
  -21.2033   -7.6142   23.9718 H   0  0  0  0  0  0
  -21.1476   -6.0512   25.9079 H   0  0  0  0  0  0
  -22.0597   -2.7596   23.2837 H   0  0  0  0  0  0
  -22.4125  -11.9940   22.4819 H   0  0  0  0  0  0
  -21.1098  -13.1268   22.2595 H   0  0  0  0  0  0
  -24.6628  -15.8481   20.5237 H   0  0  0  0  0  0
  -26.2874  -15.6319   20.1105 H   0  0  0  0  0  0
  -26.7175  -32.5447   23.1107 H   0  0  0  0  0  0
  -25.0103  -33.9730   25.0450 H   0  0  0  0  0  0
  -22.7115  -31.3071   21.4087 H   0  0  0  0  0  0
  -23.3761  -35.9607   23.3298 H   0  0  0  0  0  0
  -24.3586  -36.8910   22.2055 H   0  0  0  0  0  0
  -23.7222  -37.6481   23.6657 H   0  0  0  0  0  0
  -26.0969  -31.5596   20.6116 H   0  0  0  0  0  0
  -26.8406  -30.8367   22.0053 H   0  0  0  0  0  0
  -28.1175  -28.9912   21.1714 H   0  0  0  0  0  0
  -25.9380  -25.9363   19.0089 H   0  0  0  0  0  0
  -23.9577  -27.3152   19.0219 H   0  0  0  0  0  0
  -23.7532  -30.6041   19.4081 H   0  0  0  0  0  0
  -22.7497  -29.2573   19.8595 H   0  0  0  0  0  0
  -25.1296  -36.1941   25.0822 H   0  0  0  0  0  0
  -20.9980  -28.3249   24.1414 H   0  0  0  0  0  0
  -20.5687  -26.2294   23.3603 H   0  0  0  0  0  0
  -21.6645  -26.7453   22.1198 H   0  0  0  0  0  0
  -19.6917  -25.6294   21.1244 H   0  0  0  0  0  0
  -19.6687  -27.3194   20.6742 H   0  0  0  0  0  0
  -17.4200  -26.6676   21.4025 H   0  0  0  0  0  0
  -18.0334  -26.0071   22.9027 H   0  0  0  0  0  0
  -19.7936  -30.7261   24.2281 H   0  0  0  0  0  0
  -17.5022  -31.6275   24.5148 H   0  0  0  0  0  0
  -15.5360  -30.2990   23.7659 H   0  0  0  0  0  0
  -15.8673  -28.0821   22.7083 H   0  0  0  0  0  0
  -24.5887  -30.7113   25.7794 H   0  0  0  0  0  0
  -24.8914  -32.2932   26.4852 H   0  0  0  0  0  0
  -25.8031  -30.8956   27.0243 H   0  0  0  0  0  0
  -26.2899  -29.6778   24.1185 H   0  0  0  0  0  0
  -27.3998  -29.7252   25.4691 H   0  0  0  0  0  0
  -27.8784  -30.4292   23.9428 H   0  0  0  0  0  0
  -27.2662  -33.3641   26.2059 H   0  0  0  0  0  0
  -28.3874  -32.6883   25.0342 H   0  0  0  0  0  0
  -28.0698  -31.8468   26.5438 H   0  0  0  0  0  0
  -28.2602  -38.0102   24.7535 H   0  0  0  0  0  0
  -28.1087  -36.2636   24.6270 H   0  0  0  0  0  0
  -27.2309  -37.1424   25.8872 H   0  0  0  0  0  0
  -20.9378  -29.8756   21.6898 H   0  0  0  0  0  0
  -26.0177  -38.2859   24.1421 H   0  0  0  0  0  0
  -28.3454  -17.5945   22.1756 H   0  0  0  0  0  0
  -31.5691  -17.1322   19.3428 H   0  0  0  0  0  0
  -28.3414  -19.9919   21.7956 H   0  0  0  0  0  0
  -31.5561  -19.5139   18.9684 H   0  0  0  0  0  0
  -30.4377  -16.2620   23.2505 H   0  0  0  0  0  0
  -30.3075  -14.5281   23.0614 H   0  0  0  0  0  0
  -28.8589  -15.5292   22.9921 H   0  0  0  0  0  0
  -31.6434  -22.9198   20.3667 H   0  0  0  0  0  0
  -31.6303  -21.9563   18.8863 H   0  0  0  0  0  0
  -32.2121  -21.2806   20.4144 H   0  0  0  0  0  0
  -30.0483  -24.2411   19.5406 H   0  0  0  0  0  0
  -29.7398  -24.1902   21.2565 H   0  0  0  0  0  0
  -28.4485  -22.2423   19.2302 H   0  0  0  0  0  0
  -28.2304  -22.1824   20.9533 H   0  0  0  0  0  0
  -27.3131  -24.7543   20.7682 H   0  0  0  0  0  0
  -27.7086  -24.7939   19.0658 H   0  0  0  0  0  0
  1 25  1  0  0  0
  1 30  2  0  0  0
  1 82  1  0  0  0
  2  3  1  0  0  0
  2 25  1  0  0  0
  2 84  1  0  0  0
  2 85  1  0  0  0
  3  4  1  0  0  0
  3 86  1  0  0  0
  3 87  1  0  0  0
  4  5  1  0  0  0
  4 88  1  0  0  0
  4 89  1  0  0  0
  5  6  1  0  0  0
  5 26  1  0  0  0
  5 90  1  0  0  0
  6 25  1  0  0  0
  6 91  1  0  0  0
  6 92  1  0  0  0
  7  8  2  0  0  0
  7 26  1  0  0  0
  7 29  1  0  0  0
  8  9  1  0  0  0
  8 22  1  0  0  0
  9 10  1  0  0  0
  9 27  2  0  0  0
 10 11  2  0  0  0
 10 15  1  0  0  0
 11 12  1  0  0  0
 11 93  1  0  0  0
 12 13  2  0  0  0
 12 94  1  0  0  0
 13 14  1  0  0  0
 13 31  1  0  0  0
 14 15  2  0  0  0
 14 95  1  0  0  0
 15 96  1  0  0  0
 16 17  2  0  0  0
 16 21  1  0  0  0
 16 31  1  0  0  0
 17 18  1  0  0  0
 17 97  1  0  0  0
 18 19  2  0  0  0
 18 98  1  0  0  0
 19 20  1  0  0  0
 19 24  1  0  0  0
 20 21  2  0  0  0
 20 99  1  0  0  0
 21 23  1  0  0  0
 22 28  1  0  0  0
 22 32  2  0  0  0
 26 27  1  0  0  0
 28100  1  0  0  0
 28101  1  0  0  0
 29102  1  0  0  0
 29103  1  0  0  0
 33 34  1  0  0  0
 33 66  1  0  0  0
 33 70  2  0  0  0
 34 36  1  0  0  0
 34 59  1  0  0  0
 34104  1  0  0  0
 35 44  2  0  0  0
 35 45  1  0  0  0
 35 68  1  0  0  0
 36 56  1  0  0  0
 36105  1  0  0  0
 37 39  1  0  0  0
 37 47  1  0  0  0
 37 66  1  0  0  0
 37106  1  0  0  0
 38 43  2  0  0  0
 38 46  1  0  0  0
 38 47  1  0  0  0
 39 64  1  0  0  0
 39 67  2  0  0  0
 40 52  1  0  0  0
 40 53  2  0  0  0
 40 58  1  0  0  0
 41107  1  0  0  0
 41108  1  0  0  0
 41109  1  0  0  0
 41 48  1  0  0  0
 42 43  1  0  0  0
 42 66  1  0  0  0
 42110  1  0  0  0
 42111  1  0  0  0
 43 44  1  0  0  0
 44112  1  0  0  0
 45 46  2  0  0  0
 45113  1  0  0  0
 46114  1  0  0  0
 47115  1  0  0  0
 47116  1  0  0  0
 48 56  1  0  0  0
 48 65  1  0  0  0
 48117  1  0  0  0
 49 50  1  0  0  0
 49 53  1  0  0  0
 49 64  1  0  0  0
 49118  1  0  0  0
 50 51  1  0  0  0
 50119  1  0  0  0
 50120  1  0  0  0
 51 52  1  0  0  0
 51121  1  0  0  0
 51122  1  0  0  0
 52123  1  0  0  0
 52124  1  0  0  0
 53 54  1  0  0  0
 54 55  2  0  0  0
 54125  1  0  0  0
 55 57  1  0  0  0
 55126  1  0  0  0
 56 69  2  0  0  0
 57 58  2  0  0  0
 57127  1  0  0  0
 58128  1  0  0  0
 59 60  1  0  0  0
 59 61  1  0  0  0
 59 62  1  0  0  0
 60129  1  0  0  0
 60130  1  0  0  0
 60131  1  0  0  0
 61132  1  0  0  0
 61133  1  0  0  0
 61134  1  0  0  0
 62135  1  0  0  0
 62136  1  0  0  0
 62137  1  0  0  0
 63 65  1  0  0  0
 63138  1  0  0  0
 63139  1  0  0  0
 63140  1  0  0  0
 64141  1  0  0  0
 65142  1  0  0  0
 68 81  1  0  0  0
 71 73  2  0  0  0
 71 75  1  0  0  0
 71143  1  0  0  0
 72 74  1  0  0  0
 72 75  2  0  0  0
 72144  1  0  0  0
 73 76  1  0  0  0
 73145  1  0  0  0
 74 76  2  0  0  0
 74146  1  0  0  0
 75 82  1  0  0  0
 76 83  1  0  0  0
 77 82  1  0  0  0
 77147  1  0  0  0
 77148  1  0  0  0
 77149  1  0  0  0
 78 83  1  0  0  0
 78150  1  0  0  0
 78151  1  0  0  0
 78152  1  0  0  0
 79 80  1  0  0  0
 79 81  1  0  0  0
 79153  1  0  0  0
 79154  1  0  0  0
 80 83  1  0  0  0
 80155  1  0  0  0
 80156  1  0  0  0
 81157  1  0  0  0
 81158  1  0  0  0
M  ISO  4   1 100  68 101  81 101  82 100
M  END
> <chiral flag>
0

> <version>
0

> <s_m_source_file>
/data/baiqing/PycharmProjects/Reinvent-master-3.2/result/LINK_invent/BTK/process_docking_weight1_custom_product_contain_oxygen_bond_distance_aromatic_linkinvent_7_9_3/rearranged_h_0017.sdf

> <i_m_source_file_index>
80

> <r_mmod_Potential_Energy-OPLS-2005>
227.097290039062

> <r_mmod_Stretch_Energy-OPLS-2005>
89.0428237915039

> <r_mmod_Bend_Energy-OPLS-2005>
152.601806640625

> <r_mmod_Torsional_Energy-OPLS-2005>
288.566436767578

> <r_mmod_Improper_Torsional_Energy-OPLS-2005>
4.04857540130615

> <r_mmod_Van_der_Waal_Energy-OPLS-2005>
166.317947387695

> <r_mmod_Electrostatic_Energy-OPLS-2005>
-310.021820068359

> <r_mmod_Solvation_Energy-OPLS-2005>
-207.76628112793

> <b_mmod_Minimization_Converged-OPLS-2005>
0

> <r_mmod_RMS_Derivative-OPLS-2005>
1.96840369701385

$$$$
81
                    3D
 Structure written by MMmdl.
163172  0  0  1  0            999 V2000
  -30.6577  -14.6274   20.5761 C   0  0  0  0  0  0
  -30.4275  -12.4112   19.4407 C   0  0  0  0  0  0
  -29.4994  -12.5258   18.2111 C   0  0  0  0  0  0
  -28.0216  -12.3609   18.6180 C   0  0  0  0  0  0
  -27.6483  -13.2198   19.8530 C   0  0  2  0  0  0
  -28.6851  -13.0522   20.9779 C   0  0  0  0  0  0
  -25.2546  -13.8187   20.5665 C   0  0  0  0  0  0
  -24.1820  -13.0436   20.9182 C   0  0  0  0  0  0
  -24.6401  -11.6921   20.8733 C   0  0  0  0  0  0
  -23.9079  -10.4300   21.0412 C   0  0  0  0  0  0
  -24.3625   -9.4215   21.9197 C   0  0  0  0  0  0
  -23.6292   -8.2248   22.0769 C   0  0  0  0  0  0
  -22.4278   -8.0289   21.3542 C   0  0  0  0  0  0
  -21.9923   -9.0268   20.4637 C   0  0  0  0  0  0
  -22.7257  -10.2141   20.3053 C   0  0  0  0  0  0
  -21.6856   -6.0740   22.5287 C   0  0  0  0  0  0
  -21.4012   -6.5645   23.8217 C   0  0  0  0  0  0
  -21.3658   -5.6795   24.9180 C   0  0  0  0  0  0
  -21.6052   -4.3057   24.7230 C   0  0  0  0  0  0
  -21.8824   -3.8148   23.4352 C   0  0  0  0  0  0
  -21.9192   -4.6966   22.3409 C   0  0  0  0  0  0
  -22.7838  -13.5217   21.1857 C   0  0  0  0  0  0
  -22.1664   -4.2150   21.0981 F   0  0  0  0  0  0
  -21.5625   -3.4538   25.7741 F   0  0  0  0  0  0
  -30.0040  -13.4213   20.4364 N   0  0  0  0  0  0
  -26.2951  -12.9367   20.3231 N   0  0  0  0  0  0
  -25.9314  -11.6523   20.5702 N   0  0  0  0  0  0
  -22.0481  -12.8167   22.0386 N   0  0  0  0  0  0
  -25.4282  -15.1905   20.4119 N   0  0  0  0  0  0
  -31.7582  -14.8035   20.0425 O   0  0  0  0  0  0
  -21.6629   -6.8888   21.4245 O   0  0  0  0  0  0
  -22.3524  -14.5530   20.6733 O   0  0  0  0  0  0
  -24.6284  -31.8584   23.1986 C   0  0  0  0  0  0
  -25.9124  -32.4764   23.8336 C   0  0  1  0  0  0
  -27.2305  -27.3091   20.1233 C   0  0  0  0  0  0
  -25.5928  -33.8561   24.2242 N   0  0  0  0  0  0
  -23.4219  -30.4785   21.5422 C   0  0  2  0  0  0
  -24.8692  -28.9244   20.1172 C   0  0  0  0  0  0
  -22.7469  -29.4615   22.4929 C   0  0  0  0  0  0
  -18.0279  -28.1404   22.8484 C   0  0  0  0  0  0
  -24.1474  -36.7284   23.2629 C   0  0  0  0  0  0
  -25.9619  -30.7878   21.3658 C   0  0  0  0  0  0
  -26.0388  -29.4104   20.7162 C   0  0  0  0  0  0
  -27.2240  -28.6159   20.7051 C   0  0  0  0  0  0
  -26.0390  -26.8723   19.5050 C   0  0  0  0  0  0
  -24.8708  -27.6610   19.5043 C   0  0  0  0  0  0
  -23.6376  -29.8063   20.1614 C   0  0  0  0  0  0
  -25.4105  -36.3066   24.0310 C   0  0  1  0  0  0
  -20.5877  -28.3717   23.1274 C   0  0  2  0  0  0
  -20.6768  -26.9437   22.5418 C   0  0  0  0  0  0
  -19.5754  -26.6408   21.5210 C   0  0  0  0  0  0
  -18.1921  -26.7954   22.1611 C   0  0  0  0  0  0
  -19.1532  -28.8876   23.2870 C   0  0  0  0  0  0
  -18.9456  -30.1468   23.8908 C   0  0  0  0  0  0
  -17.6465  -30.6603   24.0581 C   0  0  0  0  0  0
  -25.9062  -34.9442   23.5078 C   0  0  0  0  0  0
  -16.5351  -29.9106   23.6339 C   0  0  0  0  0  0
  -16.7270  -28.6517   23.0360 C   0  0  0  0  0  0
  -26.4516  -31.6579   25.0706 C   0  0  0  0  0  0
  -25.3747  -31.3690   26.1413 C   0  0  0  0  0  0
  -27.0380  -30.3006   24.6168 C   0  0  0  0  0  0
  -27.6039  -32.4338   25.7517 C   0  0  0  0  0  0
  -27.5590  -37.1770   24.8439 C   0  0  0  0  0  0
  -21.4177  -29.3061   22.3659 N   0  0  0  0  0  0
  -26.4258  -37.3790   23.9443 N   0  0  0  0  0  0
  -24.6904  -31.0583   22.0940 N   0  0  0  0  0  0
  -23.4178  -28.8165   23.3027 O   0  0  0  0  0  0
  -28.3618  -26.4784   20.1126 O   0  0  0  0  0  0
  -26.5643  -34.8923   22.4655 O   0  0  0  0  0  0
  -23.5439  -32.1374   23.7311 O   0  0  0  0  0  0
  -29.9929  -18.9681   19.3104 C   0  0  0  0  0  0
  -30.2342  -17.6017   19.6657 C   0  0  0  0  0  0
  -28.8510  -19.3239   21.3793 C   0  0  0  0  0  0
  -29.2865  -19.8749   20.1515 C   0  0  0  0  0  0
  -29.8073  -17.0404   20.9061 C   0  0  0  0  0  0
  -29.0991  -17.9681   21.7466 C   0  0  0  0  0  0
  -31.2703  -23.8525   20.8977 C   0  0  0  0  0  0
  -30.5782  -24.4247   19.6666 C   0  0  0  0  0  0
  -30.6382  -22.4686   21.0317 C   0  0  0  0  0  0
  -29.1239  -23.9407   19.8121 C   0  0  2  0  0  0
  -30.0717  -15.3445   22.7675 C   0  0  0  0  0  0
  -28.8934  -21.3344   19.6737 C   0  0  0  0  0  0
  -28.2368  -25.0600   20.5509 C   0  0  0  0  0  0
  -30.0656  -15.6290   21.3203 N   0  0  0  0  0  0
  -29.2543  -22.5646   20.4960 N   0  3  1  0  0  0
  -28.5984  -17.5779   22.9419 F   0  0  0  0  0  0
  -31.4659  -12.5387   19.1344 H   0  0  0  0  0  0
  -30.3696  -11.4101   19.8719 H   0  0  0  0  0  0
  -29.7645  -11.7775   17.4624 H   0  0  0  0  0  0
  -29.6403  -13.4969   17.7351 H   0  0  0  0  0  0
  -27.8502  -11.3057   18.8321 H   0  0  0  0  0  0
  -27.3712  -12.6063   17.7776 H   0  0  0  0  0  0
  -27.6751  -14.2616   19.5341 H   0  0  0  0  0  0
  -28.6964  -12.0195   21.3307 H   0  0  0  0  0  0
  -28.3867  -13.6473   21.8345 H   0  0  0  0  0  0
  -25.2774   -9.5679   22.4782 H   0  0  0  0  0  0
  -23.9999   -7.4641   22.7495 H   0  0  0  0  0  0
  -21.0871   -8.8796   19.8931 H   0  0  0  0  0  0
  -22.3739  -10.9685   19.6167 H   0  0  0  0  0  0
  -21.2006   -7.6153   23.9706 H   0  0  0  0  0  0
  -21.1475   -6.0529   25.9076 H   0  0  0  0  0  0
  -22.0600   -2.7613   23.2850 H   0  0  0  0  0  0
  -22.4101  -11.9808   22.4730 H   0  0  0  0  0  0
  -21.1090  -13.1168   22.2584 H   0  0  0  0  0  0
  -24.6717  -15.8545   20.5396 H   0  0  0  0  0  0
  -26.2922  -15.6277   20.1147 H   0  0  0  0  0  0
  -26.7190  -32.5441   23.1085 H   0  0  0  0  0  0
  -25.0050  -33.9701   25.0372 H   0  0  0  0  0  0
  -22.7161  -31.2989   21.3957 H   0  0  0  0  0  0
  -23.3791  -35.9553   23.3162 H   0  0  0  0  0  0
  -24.3590  -36.9078   22.2079 H   0  0  0  0  0  0
  -23.7155  -37.6397   23.6776 H   0  0  0  0  0  0
  -26.0815  -31.5449   20.5915 H   0  0  0  0  0  0
  -26.8452  -30.8473   21.9906 H   0  0  0  0  0  0
  -28.1263  -28.9889   21.1700 H   0  0  0  0  0  0
  -25.9997  -25.9104   19.0138 H   0  0  0  0  0  0
  -23.9740  -27.2844   19.0318 H   0  0  0  0  0  0
  -23.7539  -30.5782   19.3998 H   0  0  0  0  0  0
  -22.7578  -29.2333   19.8656 H   0  0  0  0  0  0
  -25.1273  -36.1884   25.0796 H   0  0  0  0  0  0
  -20.9962  -28.3317   24.1400 H   0  0  0  0  0  0
  -20.5675  -26.2329   23.3616 H   0  0  0  0  0  0
  -21.6638  -26.7468   22.1231 H   0  0  0  0  0  0
  -19.6924  -25.6317   21.1252 H   0  0  0  0  0  0
  -19.6694  -27.3209   20.6727 H   0  0  0  0  0  0
  -17.4199  -26.6706   21.3998 H   0  0  0  0  0  0
  -18.0307  -26.0081   22.8995 H   0  0  0  0  0  0
  -19.7925  -30.7272   24.2286 H   0  0  0  0  0  0
  -17.5021  -31.6277   24.5207 H   0  0  0  0  0  0
  -15.5352  -30.3028   23.7644 H   0  0  0  0  0  0
  -15.8659  -28.0843   22.7088 H   0  0  0  0  0  0
  -24.5953  -30.7002   25.7738 H   0  0  0  0  0  0
  -24.8893  -32.2830   26.4826 H   0  0  0  0  0  0
  -25.8074  -30.8889   27.0194 H   0  0  0  0  0  0
  -26.2951  -29.6730   24.1221 H   0  0  0  0  0  0
  -27.4107  -29.7285   25.4678 H   0  0  0  0  0  0
  -27.8807  -30.4291   23.9369 H   0  0  0  0  0  0
  -27.2632  -33.3677   26.2007 H   0  0  0  0  0  0
  -28.3916  -32.6837   25.0398 H   0  0  0  0  0  0
  -28.0627  -31.8521   26.5521 H   0  0  0  0  0  0
  -28.2476  -38.0197   24.7678 H   0  0  0  0  0  0
  -28.1210  -36.2738   24.6019 H   0  0  0  0  0  0
  -27.2333  -37.1127   25.8834 H   0  0  0  0  0  0
  -20.9354  -29.8757   21.6845 H   0  0  0  0  0  0
  -26.0114  -38.2819   24.1597 H   0  0  0  0  0  0
  -30.3349  -19.3113   18.3429 H   0  0  0  0  0  0
  -30.7667  -16.9854   18.9548 H   0  0  0  0  0  0
  -28.2816  -19.9375   22.0611 H   0  0  0  0  0  0
  -31.0383  -24.4541   21.7774 H   0  0  0  0  0  0
  -32.3561  -23.8090   20.7988 H   0  0  0  0  0  0
  -31.0214  -23.9925   18.7670 H   0  0  0  0  0  0
  -30.6819  -25.5063   19.5859 H   0  0  0  0  0  0
  -30.6475  -22.1039   22.0598 H   0  0  0  0  0  0
  -31.2297  -21.7675   20.4380 H   0  0  0  0  0  0
  -28.6967  -23.8099   18.8175 H   0  0  0  0  0  0
  -30.6184  -16.1175   23.3073 H   0  0  0  0  0  0
  -30.5449  -14.3956   23.0315 H   0  0  0  0  0  0
  -29.0573  -15.3061   23.1652 H   0  0  0  0  0  0
  -27.8152  -21.3498   19.5143 H   0  0  0  0  0  0
  -29.3314  -21.4723   18.6846 H   0  0  0  0  0  0
  -28.5052  -25.0597   21.6073 H   0  0  0  0  0  0
  -27.1975  -24.7353   20.5322 H   0  0  0  0  0  0
  -28.6322  -22.5560   21.2923 H   0  0  0  0  0  0
  1 25  1  0  0  0
  1 30  2  0  0  0
  1 84  1  0  0  0
  2  3  1  0  0  0
  2 25  1  0  0  0
  2 87  1  0  0  0
  2 88  1  0  0  0
  3  4  1  0  0  0
  3 89  1  0  0  0
  3 90  1  0  0  0
  4  5  1  0  0  0
  4 91  1  0  0  0
  4 92  1  0  0  0
  5  6  1  0  0  0
  5 26  1  0  0  0
  5 93  1  0  0  0
  6 25  1  0  0  0
  6 94  1  0  0  0
  6 95  1  0  0  0
  7  8  2  0  0  0
  7 26  1  0  0  0
  7 29  1  0  0  0
  8  9  1  0  0  0
  8 22  1  0  0  0
  9 10  1  0  0  0
  9 27  2  0  0  0
 10 11  2  0  0  0
 10 15  1  0  0  0
 11 12  1  0  0  0
 11 96  1  0  0  0
 12 13  2  0  0  0
 12 97  1  0  0  0
 13 14  1  0  0  0
 13 31  1  0  0  0
 14 15  2  0  0  0
 14 98  1  0  0  0
 15 99  1  0  0  0
 16 17  2  0  0  0
 16 21  1  0  0  0
 16 31  1  0  0  0
 17 18  1  0  0  0
 17100  1  0  0  0
 18 19  2  0  0  0
 18101  1  0  0  0
 19 20  1  0  0  0
 19 24  1  0  0  0
 20 21  2  0  0  0
 20102  1  0  0  0
 21 23  1  0  0  0
 22 28  1  0  0  0
 22 32  2  0  0  0
 26 27  1  0  0  0
 28103  1  0  0  0
 28104  1  0  0  0
 29105  1  0  0  0
 29106  1  0  0  0
 33 34  1  0  0  0
 33 66  1  0  0  0
 33 70  2  0  0  0
 34 36  1  0  0  0
 34 59  1  0  0  0
 34107  1  0  0  0
 35 44  2  0  0  0
 35 45  1  0  0  0
 35 68  1  0  0  0
 36 56  1  0  0  0
 36108  1  0  0  0
 37 39  1  0  0  0
 37 47  1  0  0  0
 37 66  1  0  0  0
 37109  1  0  0  0
 38 43  2  0  0  0
 38 46  1  0  0  0
 38 47  1  0  0  0
 39 64  1  0  0  0
 39 67  2  0  0  0
 40 52  1  0  0  0
 40 53  2  0  0  0
 40 58  1  0  0  0
 41110  1  0  0  0
 41111  1  0  0  0
 41112  1  0  0  0
 41 48  1  0  0  0
 42 43  1  0  0  0
 42 66  1  0  0  0
 42113  1  0  0  0
 42114  1  0  0  0
 43 44  1  0  0  0
 44115  1  0  0  0
 45 46  2  0  0  0
 45116  1  0  0  0
 46117  1  0  0  0
 47118  1  0  0  0
 47119  1  0  0  0
 48 56  1  0  0  0
 48 65  1  0  0  0
 48120  1  0  0  0
 49 50  1  0  0  0
 49 53  1  0  0  0
 49 64  1  0  0  0
 49121  1  0  0  0
 50 51  1  0  0  0
 50122  1  0  0  0
 50123  1  0  0  0
 51 52  1  0  0  0
 51124  1  0  0  0
 51125  1  0  0  0
 52126  1  0  0  0
 52127  1  0  0  0
 53 54  1  0  0  0
 54 55  2  0  0  0
 54128  1  0  0  0
 55 57  1  0  0  0
 55129  1  0  0  0
 56 69  2  0  0  0
 57 58  2  0  0  0
 57130  1  0  0  0
 58131  1  0  0  0
 59 60  1  0  0  0
 59 61  1  0  0  0
 59 62  1  0  0  0
 60132  1  0  0  0
 60133  1  0  0  0
 60134  1  0  0  0
 61135  1  0  0  0
 61136  1  0  0  0
 61137  1  0  0  0
 62138  1  0  0  0
 62139  1  0  0  0
 62140  1  0  0  0
 63 65  1  0  0  0
 63141  1  0  0  0
 63142  1  0  0  0
 63143  1  0  0  0
 64144  1  0  0  0
 65145  1  0  0  0
 68 83  1  0  0  0
 71 72  2  0  0  0
 71 74  1  0  0  0
 71146  1  0  0  0
 72 75  1  0  0  0
 72147  1  0  0  0
 73 74  2  0  0  0
 73 76  1  0  0  0
 73148  1  0  0  0
 74 82  1  0  0  0
 75 76  2  0  0  0
 75 84  1  0  0  0
 76 86  1  0  0  0
 77 78  1  0  0  0
 77 79  1  0  0  0
 77149  1  0  0  0
 77150  1  0  0  0
 78 80  1  0  0  0
 78151  1  0  0  0
 78152  1  0  0  0
 79 85  1  0  0  0
 79153  1  0  0  0
 79154  1  0  0  0
 80 83  1  0  0  0
 80 85  1  0  0  0
 80155  1  0  0  0
 81 84  1  0  0  0
 81156  1  0  0  0
 81157  1  0  0  0
 81158  1  0  0  0
 82159  1  0  0  0
 82160  1  0  0  0
 82 85  1  0  0  0
 83161  1  0  0  0
 83162  1  0  0  0
 85163  1  0  0  0
M  CHG  1  85   1
M  ISO  4   1 100  68 101  83 101  84 100
M  END
> <chiral flag>
0

> <version>
0

> <s_m_source_file>
/data/baiqing/PycharmProjects/Reinvent-master-3.2/result/LINK_invent/BTK/process_docking_weight1_custom_product_contain_oxygen_bond_distance_aromatic_linkinvent_7_9_3/rearranged_h_0017.sdf

> <i_m_source_file_index>
81

> <r_mmod_Potential_Energy-OPLS-2005>
236.419052124023

> <r_mmod_Stretch_Energy-OPLS-2005>
101.532073974609

> <r_mmod_Bend_Energy-OPLS-2005>
172.996597290039

> <r_mmod_Torsional_Energy-OPLS-2005>
350.48681640625

> <r_mmod_Improper_Torsional_Energy-OPLS-2005>
3.00839710235596

> <r_mmod_Van_der_Waal_Energy-OPLS-2005>
150.268539428711

> <r_mmod_Electrostatic_Energy-OPLS-2005>
-166.404296875

> <r_mmod_Solvation_Energy-OPLS-2005>
-419.643768310547

> <b_mmod_Minimization_Converged-OPLS-2005>
0

> <r_mmod_RMS_Derivative-OPLS-2005>
2.70439553260803

$$$$
82
                    3D
 Structure written by MMmdl.
167175  0  0  1  0            999 V2000
  -30.7355  -14.6717   20.5278 C   0  0  0  0  0  0
  -30.4184  -12.4276   19.4876 C   0  0  0  0  0  0
  -29.5119  -12.5401   18.2463 C   0  0  0  0  0  0
  -28.0417  -12.3641   18.6574 C   0  0  0  0  0  0
  -27.6541  -13.2464   19.8711 C   0  0  2  0  0  0
  -28.6988  -13.1871   21.0098 C   0  0  0  0  0  0
  -25.2570  -13.8219   20.5878 C   0  0  0  0  0  0
  -24.1828  -13.0427   20.9230 C   0  0  0  0  0  0
  -24.6441  -11.6897   20.8724 C   0  0  0  0  0  0
  -23.9094  -10.4304   21.0442 C   0  0  0  0  0  0
  -24.3678   -9.4250   21.9222 C   0  0  0  0  0  0
  -23.6343   -8.2264   22.0785 C   0  0  0  0  0  0
  -22.4307   -8.0319   21.3550 C   0  0  0  0  0  0
  -21.9938   -9.0301   20.4676 C   0  0  0  0  0  0
  -22.7256  -10.2179   20.3087 C   0  0  0  0  0  0
  -21.6845   -6.0763   22.5295 C   0  0  0  0  0  0
  -21.3981   -6.5654   23.8232 C   0  0  0  0  0  0
  -21.3663   -5.6822   24.9224 C   0  0  0  0  0  0
  -21.6080   -4.3093   24.7253 C   0  0  0  0  0  0
  -21.8801   -3.8168   23.4355 C   0  0  0  0  0  0
  -21.9168   -4.6981   22.3419 C   0  0  0  0  0  0
  -22.7839  -13.5212   21.1873 C   0  0  0  0  0  0
  -22.1614   -4.2124   21.1003 F   0  0  0  0  0  0
  -21.5720   -3.4607   25.7783 F   0  0  0  0  0  0
  -30.0155  -13.4967   20.4404 N   0  0  0  0  0  0
  -26.3026  -12.9461   20.3436 N   0  0  0  0  0  0
  -25.9386  -11.6550   20.5748 N   0  0  0  0  0  0
  -22.0441  -12.8177   22.0437 N   0  0  0  0  0  0
  -25.4357  -15.1963   20.4540 N   0  0  0  0  0  0
  -31.8370  -14.7273   19.9756 O   0  0  0  0  0  0
  -21.6655   -6.8917   21.4251 O   0  0  0  0  0  0
  -22.3514  -14.5513   20.6756 O   0  0  0  0  0  0
  -24.6311  -31.8573   23.2009 C   0  0  0  0  0  0
  -25.9144  -32.4757   23.8350 C   0  0  1  0  0  0
  -27.2111  -27.2944   20.1195 C   0  0  0  0  0  0
  -25.5948  -33.8571   24.2275 N   0  0  0  0  0  0
  -23.4229  -30.4827   21.5433 C   0  0  2  0  0  0
  -24.8639  -28.9213   20.1174 C   0  0  0  0  0  0
  -22.7503  -29.4616   22.4952 C   0  0  0  0  0  0
  -18.0310  -28.1384   22.8554 C   0  0  0  0  0  0
  -24.1493  -36.7283   23.2635 C   0  0  0  0  0  0
  -25.9675  -30.7764   21.3704 C   0  0  0  0  0  0
  -26.0354  -29.4011   20.7168 C   0  0  0  0  0  0
  -27.2183  -28.5999   20.7019 C   0  0  0  0  0  0
  -26.0190  -26.8584   19.5066 C   0  0  0  0  0  0
  -24.8597  -27.6587   19.5017 C   0  0  0  0  0  0
  -23.6385  -29.8112   20.1599 C   0  0  0  0  0  0
  -25.4126  -36.3050   24.0317 C   0  0  1  0  0  0
  -20.5896  -28.3720   23.1309 C   0  0  2  0  0  0
  -20.6801  -26.9394   22.5548 C   0  0  0  0  0  0
  -19.5760  -26.6299   21.5376 C   0  0  0  0  0  0
  -18.1960  -26.7856   22.1820 C   0  0  0  0  0  0
  -19.1551  -28.8910   23.2853 C   0  0  0  0  0  0
  -18.9453  -30.1576   23.8764 C   0  0  0  0  0  0
  -17.6434  -30.6656   24.0457 C   0  0  0  0  0  0
  -25.9056  -34.9439   23.5092 C   0  0  0  0  0  0
  -16.5333  -29.9076   23.6295 C   0  0  0  0  0  0
  -16.7285  -28.6500   23.0371 C   0  0  0  0  0  0
  -26.4502  -31.6553   25.0712 C   0  0  0  0  0  0
  -25.3746  -31.3699   26.1441 C   0  0  0  0  0  0
  -27.0324  -30.2984   24.6133 C   0  0  0  0  0  0
  -27.6063  -32.4287   25.7470 C   0  0  0  0  0  0
  -27.5579  -37.1807   24.8463 C   0  0  0  0  0  0
  -21.4213  -29.3013   22.3679 N   0  0  0  0  0  0
  -26.4304  -37.3764   23.9385 N   0  0  0  0  0  0
  -24.6926  -31.0577   22.0956 N   0  0  0  0  0  0
  -23.4218  -28.8196   23.3066 O   0  0  0  0  0  0
  -28.3190  -26.4392   20.1034 O   0  0  0  0  0  0
  -26.5630  -34.8897   22.4651 O   0  0  0  0  0  0
  -23.5473  -32.1424   23.7318 O   0  0  0  0  0  0
  -29.8051  -17.4960   19.4671 C   0  0  0  0  0  0
  -29.1331  -17.9560   21.7190 C   0  0  0  0  0  0
  -29.3937  -18.8183   19.1014 C   0  0  0  0  0  0
  -28.7560  -19.2911   21.3576 C   0  0  0  0  0  0
  -29.7111  -17.0244   20.8023 C   0  0  0  0  0  0
  -28.8794  -19.7725   20.0312 C   0  0  0  0  0  0
  -34.3223  -18.1720   21.4219 C   0  0  0  0  0  0
  -27.3375  -20.9825   18.6590 C   0  0  0  0  0  0
  -33.2282  -17.0884   21.3449 C   0  0  0  0  0  0
  -32.1735  -17.1498   22.4676 C   0  0  0  0  0  0
  -28.2708  -23.7502   19.7490 C   0  0  0  0  0  0
  -31.1594  -15.9570   22.5048 C   0  0  0  0  0  0
  -28.4919  -22.3202   20.4621 C   0  0  0  0  0  0
  -28.1760  -25.0677   20.6610 C   0  0  0  0  0  0
  -30.3172  -15.7599   21.2892 N   0  0  0  0  0  0
  -28.4548  -21.0880   19.5991 N   0  0  0  0  0  0
  -31.4622  -12.4954   19.1923 H   0  0  0  0  0  0
  -30.3123  -11.4447   19.9502 H   0  0  0  0  0  0
  -29.7791  -11.8063   17.4835 H   0  0  0  0  0  0
  -29.6555  -13.5186   17.7913 H   0  0  0  0  0  0
  -27.9068  -11.3122   18.9089 H   0  0  0  0  0  0
  -27.3812  -12.5626   17.8119 H   0  0  0  0  0  0
  -27.6544  -14.2723   19.4974 H   0  0  0  0  0  0
  -28.7051  -12.1980   21.4679 H   0  0  0  0  0  0
  -28.4446  -13.8898   21.8017 H   0  0  0  0  0  0
  -25.2854   -9.5739   22.4753 H   0  0  0  0  0  0
  -24.0068   -7.4670   22.7525 H   0  0  0  0  0  0
  -21.0862   -8.8833   19.9017 H   0  0  0  0  0  0
  -22.3731  -10.9755   19.6211 H   0  0  0  0  0  0
  -21.1899   -7.6145   23.9705 H   0  0  0  0  0  0
  -21.1525   -6.0574   25.9122 H   0  0  0  0  0  0
  -22.0547   -2.7592   23.2887 H   0  0  0  0  0  0
  -22.3898  -11.9749   22.4745 H   0  0  0  0  0  0
  -21.1114  -13.1262   22.2712 H   0  0  0  0  0  0
  -24.7103  -15.8735   20.6581 H   0  0  0  0  0  0
  -26.3402  -15.6200   20.2949 H   0  0  0  0  0  0
  -26.7221  -32.5362   23.1092 H   0  0  0  0  0  0
  -25.0071  -33.9727   25.0407 H   0  0  0  0  0  0
  -22.7194  -31.3080   21.3989 H   0  0  0  0  0  0
  -23.3720  -35.9635   23.3289 H   0  0  0  0  0  0
  -24.3616  -36.8926   22.2045 H   0  0  0  0  0  0
  -23.7276  -37.6507   23.6675 H   0  0  0  0  0  0
  -26.0975  -31.5335   20.5961 H   0  0  0  0  0  0
  -26.8489  -30.8285   21.9989 H   0  0  0  0  0  0
  -28.1224  -28.9736   21.1695 H   0  0  0  0  0  0
  -25.9830  -25.8919   19.0246 H   0  0  0  0  0  0
  -23.9616  -27.2880   19.0215 H   0  0  0  0  0  0
  -23.7665  -30.5835   19.4022 H   0  0  0  0  0  0
  -22.7495  -29.2523   19.8589 H   0  0  0  0  0  0
  -25.1310  -36.1899   25.0821 H   0  0  0  0  0  0
  -20.9989  -28.3433   24.1453 H   0  0  0  0  0  0
  -20.5639  -26.2395   23.3842 H   0  0  0  0  0  0
  -21.6663  -26.7347   22.1415 H   0  0  0  0  0  0
  -19.6891  -25.6165   21.1514 H   0  0  0  0  0  0
  -19.6721  -27.3015   20.6830 H   0  0  0  0  0  0
  -17.4213  -26.6468   21.4214 H   0  0  0  0  0  0
  -18.0510  -26.0046   22.9329 H   0  0  0  0  0  0
  -19.7913  -30.7498   24.2044 H   0  0  0  0  0  0
  -17.4946  -31.6395   24.4928 H   0  0  0  0  0  0
  -15.5320  -30.2977   23.7641 H   0  0  0  0  0  0
  -15.8713  -28.0745   22.7152 H   0  0  0  0  0  0
  -24.5919  -30.7043   25.7802 H   0  0  0  0  0  0
  -24.8911  -32.2848   26.4865 H   0  0  0  0  0  0
  -25.8081  -30.8904   27.0223 H   0  0  0  0  0  0
  -26.2886  -29.6740   24.1177 H   0  0  0  0  0  0
  -27.4074  -29.7230   25.4605 H   0  0  0  0  0  0
  -27.8731  -30.4274   23.9312 H   0  0  0  0  0  0
  -27.2682  -33.3602   26.2018 H   0  0  0  0  0  0
  -28.3861  -32.6845   25.0288 H   0  0  0  0  0  0
  -28.0714  -31.8427   26.5394 H   0  0  0  0  0  0
  -28.2607  -38.0090   24.7497 H   0  0  0  0  0  0
  -28.1083  -36.2646   24.6313 H   0  0  0  0  0  0
  -27.2319  -37.1459   25.8874 H   0  0  0  0  0  0
  -20.9442  -29.8776   21.6884 H   0  0  0  0  0  0
  -26.0152  -38.2843   24.1379 H   0  0  0  0  0  0
  -30.2720  -16.8703   18.7182 H   0  0  0  0  0  0
  -29.0174  -17.6667   22.7527 H   0  0  0  0  0  0
  -29.5106  -19.1161   18.0662 H   0  0  0  0  0  0
  -28.3546  -19.9434   22.1199 H   0  0  0  0  0  0
  -34.6757  -18.3463   22.4397 H   0  0  0  0  0  0
  -33.9690  -19.1251   21.0231 H   0  0  0  0  0  0
  -35.1903  -17.8809   20.8283 H   0  0  0  0  0  0
  -27.3578  -20.0618   18.0742 H   0  0  0  0  0  0
  -27.3411  -21.8040   17.9403 H   0  0  0  0  0  0
  -26.3879  -21.0042   19.1946 H   0  0  0  0  0  0
  -33.7005  -16.1083   21.3675 H   0  0  0  0  0  0
  -32.7485  -17.1697   20.3712 H   0  0  0  0  0  0
  -31.6611  -18.1149   22.4300 H   0  0  0  0  0  0
  -32.7058  -17.1709   23.4219 H   0  0  0  0  0  0
  -27.3478  -23.7178   19.1686 H   0  0  0  0  0  0
  -29.0747  -23.8788   19.0247 H   0  0  0  0  0  0
  -31.7173  -15.0499   22.7595 H   0  0  0  0  0  0
  -30.4949  -16.0997   23.3569 H   0  0  0  0  0  0
  -27.7661  -22.1984   21.2672 H   0  0  0  0  0  0
  -29.4712  -22.3447   20.9479 H   0  0  0  0  0  0
  -27.2539  -25.0124   21.2398 H   0  0  0  0  0  0
  -28.9754  -24.9856   21.4006 H   0  0  0  0  0  0
  1 25  1  0  0  0
  1 30  2  0  0  0
  1 85  1  0  0  0
  2  3  1  0  0  0
  2 25  1  0  0  0
  2 87  1  0  0  0
  2 88  1  0  0  0
  3  4  1  0  0  0
  3 89  1  0  0  0
  3 90  1  0  0  0
  4  5  1  0  0  0
  4 91  1  0  0  0
  4 92  1  0  0  0
  5  6  1  0  0  0
  5 26  1  0  0  0
  5 93  1  0  0  0
  6 25  1  0  0  0
  6 94  1  0  0  0
  6 95  1  0  0  0
  7  8  2  0  0  0
  7 26  1  0  0  0
  7 29  1  0  0  0
  8  9  1  0  0  0
  8 22  1  0  0  0
  9 10  1  0  0  0
  9 27  2  0  0  0
 10 11  2  0  0  0
 10 15  1  0  0  0
 11 12  1  0  0  0
 11 96  1  0  0  0
 12 13  2  0  0  0
 12 97  1  0  0  0
 13 14  1  0  0  0
 13 31  1  0  0  0
 14 15  2  0  0  0
 14 98  1  0  0  0
 15 99  1  0  0  0
 16 17  2  0  0  0
 16 21  1  0  0  0
 16 31  1  0  0  0
 17 18  1  0  0  0
 17100  1  0  0  0
 18 19  2  0  0  0
 18101  1  0  0  0
 19 20  1  0  0  0
 19 24  1  0  0  0
 20 21  2  0  0  0
 20102  1  0  0  0
 21 23  1  0  0  0
 22 28  1  0  0  0
 22 32  2  0  0  0
 26 27  1  0  0  0
 28103  1  0  0  0
 28104  1  0  0  0
 29105  1  0  0  0
 29106  1  0  0  0
 33 34  1  0  0  0
 33 66  1  0  0  0
 33 70  2  0  0  0
 34 36  1  0  0  0
 34 59  1  0  0  0
 34107  1  0  0  0
 35 44  2  0  0  0
 35 45  1  0  0  0
 35 68  1  0  0  0
 36 56  1  0  0  0
 36108  1  0  0  0
 37 39  1  0  0  0
 37 47  1  0  0  0
 37 66  1  0  0  0
 37109  1  0  0  0
 38 43  2  0  0  0
 38 46  1  0  0  0
 38 47  1  0  0  0
 39 64  1  0  0  0
 39 67  2  0  0  0
 40 52  1  0  0  0
 40 53  2  0  0  0
 40 58  1  0  0  0
 41110  1  0  0  0
 41111  1  0  0  0
 41112  1  0  0  0
 41 48  1  0  0  0
 42 43  1  0  0  0
 42 66  1  0  0  0
 42113  1  0  0  0
 42114  1  0  0  0
 43 44  1  0  0  0
 44115  1  0  0  0
 45 46  2  0  0  0
 45116  1  0  0  0
 46117  1  0  0  0
 47118  1  0  0  0
 47119  1  0  0  0
 48 56  1  0  0  0
 48 65  1  0  0  0
 48120  1  0  0  0
 49 50  1  0  0  0
 49 53  1  0  0  0
 49 64  1  0  0  0
 49121  1  0  0  0
 50 51  1  0  0  0
 50122  1  0  0  0
 50123  1  0  0  0
 51 52  1  0  0  0
 51124  1  0  0  0
 51125  1  0  0  0
 52126  1  0  0  0
 52127  1  0  0  0
 53 54  1  0  0  0
 54 55  2  0  0  0
 54128  1  0  0  0
 55 57  1  0  0  0
 55129  1  0  0  0
 56 69  2  0  0  0
 57 58  2  0  0  0
 57130  1  0  0  0
 58131  1  0  0  0
 59 60  1  0  0  0
 59 61  1  0  0  0
 59 62  1  0  0  0
 60132  1  0  0  0
 60133  1  0  0  0
 60134  1  0  0  0
 61135  1  0  0  0
 61136  1  0  0  0
 61137  1  0  0  0
 62138  1  0  0  0
 62139  1  0  0  0
 62140  1  0  0  0
 63 65  1  0  0  0
 63141  1  0  0  0
 63142  1  0  0  0
 63143  1  0  0  0
 64144  1  0  0  0
 65145  1  0  0  0
 68 84  1  0  0  0
 71 73  2  0  0  0
 71 75  1  0  0  0
 71146  1  0  0  0
 72 74  1  0  0  0
 72 75  2  0  0  0
 72147  1  0  0  0
 73 76  1  0  0  0
 73148  1  0  0  0
 74 76  2  0  0  0
 74149  1  0  0  0
 75 85  1  0  0  0
 76 86  1  0  0  0
 77 79  1  0  0  0
 77150  1  0  0  0
 77151  1  0  0  0
 77152  1  0  0  0
 78 86  1  0  0  0
 78153  1  0  0  0
 78154  1  0  0  0
 78155  1  0  0  0
 79 80  1  0  0  0
 79156  1  0  0  0
 79157  1  0  0  0
 80 82  1  0  0  0
 80158  1  0  0  0
 80159  1  0  0  0
 81 83  1  0  0  0
 81 84  1  0  0  0
 81160  1  0  0  0
 81161  1  0  0  0
 82 85  1  0  0  0
 82162  1  0  0  0
 82163  1  0  0  0
 83 86  1  0  0  0
 83164  1  0  0  0
 83165  1  0  0  0
 84166  1  0  0  0
 84167  1  0  0  0
M  ISO  4   1 100  68 101  84 101  85 100
M  END
> <chiral flag>
0

> <version>
0

> <s_m_source_file>
/data/baiqing/PycharmProjects/Reinvent-master-3.2/result/LINK_invent/BTK/process_docking_weight1_custom_product_contain_oxygen_bond_distance_aromatic_linkinvent_7_9_3/rearranged_h_0017.sdf

> <i_m_source_file_index>
82

> <r_mmod_Potential_Energy-OPLS-2005>
318.402313232422

> <r_mmod_Stretch_Energy-OPLS-2005>
104.836730957031

> <r_mmod_Bend_Energy-OPLS-2005>
178.521911621094

> <r_mmod_Torsional_Energy-OPLS-2005>
314.687072753906

> <r_mmod_Improper_Torsional_Energy-OPLS-2005>
8.32651710510254

> <r_mmod_Van_der_Waal_Energy-OPLS-2005>
142.013076782227

> <r_mmod_Electrostatic_Energy-OPLS-2005>
-291.289215087891

> <r_mmod_Solvation_Energy-OPLS-2005>
-200.371444702148

> <b_mmod_Minimization_Converged-OPLS-2005>
0

> <r_mmod_RMS_Derivative-OPLS-2005>
7.32449293136597

$$$$
83
                    3D
 Structure written by MMmdl.
164172  0  0  1  0            999 V2000
  -30.6025  -14.6260   20.5065 C   0  0  0  0  0  0
  -30.4353  -12.3827   19.4424 C   0  0  0  0  0  0
  -29.5055  -12.5246   18.2160 C   0  0  0  0  0  0
  -28.0238  -12.3620   18.6227 C   0  0  0  0  0  0
  -27.6538  -13.2117   19.8685 C   0  0  2  0  0  0
  -28.6999  -13.0300   20.9914 C   0  0  0  0  0  0
  -25.2551  -13.8141   20.5690 C   0  0  0  0  0  0
  -24.1807  -13.0416   20.9169 C   0  0  0  0  0  0
  -24.6362  -11.6882   20.8691 C   0  0  0  0  0  0
  -23.9035  -10.4264   21.0352 C   0  0  0  0  0  0
  -24.3591   -9.4206   21.9140 C   0  0  0  0  0  0
  -23.6282   -8.2227   22.0737 C   0  0  0  0  0  0
  -22.4269   -8.0242   21.3530 C   0  0  0  0  0  0
  -21.9885   -9.0205   20.4647 C   0  0  0  0  0  0
  -22.7185  -10.2092   20.3027 C   0  0  0  0  0  0
  -21.6871   -6.0716   22.5280 C   0  0  0  0  0  0
  -21.4011   -6.5622   23.8204 C   0  0  0  0  0  0
  -21.3658   -5.6777   24.9168 C   0  0  0  0  0  0
  -21.6049   -4.3042   24.7224 C   0  0  0  0  0  0
  -21.8825   -3.8127   23.4344 C   0  0  0  0  0  0
  -21.9185   -4.6937   22.3399 C   0  0  0  0  0  0
  -22.7839  -13.5207   21.1832 C   0  0  0  0  0  0
  -22.1670   -4.2111   21.0986 F   0  0  0  0  0  0
  -21.5626   -3.4541   25.7751 F   0  0  0  0  0  0
  -30.0162  -13.3893   20.4373 N   0  0  0  0  0  0
  -26.2971  -12.9312   20.3335 N   0  0  0  0  0  0
  -25.9294  -11.6468   20.5726 N   0  0  0  0  0  0
  -22.0502  -12.8209   22.0409 N   0  0  0  0  0  0
  -25.4270  -15.1863   20.4126 N   0  0  0  0  0  0
  -31.7529  -14.8197   20.0990 O   0  0  0  0  0  0
  -21.6641   -6.8843   21.4233 O   0  0  0  0  0  0
  -22.3523  -14.5514   20.6669 O   0  0  0  0  0  0
  -24.6239  -31.8589   23.1999 C   0  0  0  0  0  0
  -25.9087  -32.4775   23.8337 C   0  0  1  0  0  0
  -27.2376  -27.3155   20.1212 C   0  0  0  0  0  0
  -25.5915  -33.8578   24.2248 N   0  0  0  0  0  0
  -23.4176  -30.4789   21.5415 C   0  0  2  0  0  0
  -24.8698  -28.9307   20.1130 C   0  0  0  0  0  0
  -22.7474  -29.4593   22.4925 C   0  0  0  0  0  0
  -18.0268  -28.1376   22.8464 C   0  0  0  0  0  0
  -24.1492  -36.7286   23.2640 C   0  0  0  0  0  0
  -25.9583  -30.7905   21.3698 C   0  0  0  0  0  0
  -26.0364  -29.4159   20.7153 C   0  0  0  0  0  0
  -27.2188  -28.6198   20.7065 C   0  0  0  0  0  0
  -26.0395  -26.8761   19.5064 C   0  0  0  0  0  0
  -24.8750  -27.6682   19.5021 C   0  0  0  0  0  0
  -23.6368  -29.8098   20.1587 C   0  0  0  0  0  0
  -25.4121  -36.3070   24.0319 C   0  0  1  0  0  0
  -20.5871  -28.3667   23.1282 C   0  0  2  0  0  0
  -20.6756  -26.9388   22.5414 C   0  0  0  0  0  0
  -19.5743  -26.6363   21.5202 C   0  0  0  0  0  0
  -18.1918  -26.7911   22.1611 C   0  0  0  0  0  0
  -19.1524  -28.8838   23.2862 C   0  0  0  0  0  0
  -18.9452  -30.1445   23.8878 C   0  0  0  0  0  0
  -17.6459  -30.6587   24.0534 C   0  0  0  0  0  0
  -25.9059  -34.9452   23.5091 C   0  0  0  0  0  0
  -16.5343  -29.9085   23.6323 C   0  0  0  0  0  0
  -16.7258  -28.6498   23.0338 C   0  0  0  0  0  0
  -26.4476  -31.6598   25.0717 C   0  0  0  0  0  0
  -25.3727  -31.3729   26.1461 C   0  0  0  0  0  0
  -27.0308  -30.3023   24.6171 C   0  0  0  0  0  0
  -27.6036  -32.4330   25.7498 C   0  0  0  0  0  0
  -27.5571  -37.1797   24.8455 C   0  0  0  0  0  0
  -21.4181  -29.3019   22.3688 N   0  0  0  0  0  0
  -26.4277  -37.3781   23.9411 N   0  0  0  0  0  0
  -24.6843  -31.0607   22.0942 N   0  0  0  0  0  0
  -23.4208  -28.8145   23.2994 O   0  0  0  0  0  0
  -28.3944  -26.5203   20.1874 O   0  0  0  0  0  0
  -26.5626  -34.8922   22.4653 O   0  0  0  0  0  0
  -23.5412  -32.1371   23.7348 O   0  0  0  0  0  0
  -28.8114  -19.2767   21.4842 C   0  0  0  0  0  0
  -28.8494  -17.8538   21.5303 C   0  0  0  0  0  0
  -30.6872  -17.8470   19.9878 C   0  0  0  0  0  0
  -29.7016  -20.0411   20.6863 C   0  0  0  0  0  0
  -29.8068  -17.0938   20.8088 C   0  0  0  0  0  0
  -30.6363  -19.2810   19.9071 C   0  0  0  0  0  0
  -31.6559  -19.4252   17.7192 C   0  0  0  0  0  0
  -32.8268  -20.2199   19.7460 C   0  0  0  0  0  0
  -28.1199  -22.2124   18.9875 C   0  0  0  0  0  0
  -29.7300  -21.6248   20.8054 C   0  0  0  0  0  0
  -28.5135  -23.9373   20.8223 C   0  0  0  0  0  0
  -28.4698  -25.1087   19.7326 C   0  0  0  0  0  0
  -29.7795  -15.6356   20.9313 N   0  0  0  0  0  0
  -31.5564  -19.9489   19.0803 N   0  0  0  0  0  0
  -28.5307  -22.4610   20.3892 N   0  3  1  0  0  0
  -31.4795  -12.5049   19.1534 H   0  0  0  0  0  0
  -30.3583  -11.3804   19.8661 H   0  0  0  0  0  0
  -29.7723  -11.7870   17.4586 H   0  0  0  0  0  0
  -29.6490  -13.5015   17.7525 H   0  0  0  0  0  0
  -27.8514  -11.3052   18.8294 H   0  0  0  0  0  0
  -27.3693  -12.6162   17.7874 H   0  0  0  0  0  0
  -27.6816  -14.2538   19.5491 H   0  0  0  0  0  0
  -28.7130  -11.9923   21.3306 H   0  0  0  0  0  0
  -28.4484  -13.6239   21.8693 H   0  0  0  0  0  0
  -25.2726   -9.5721   22.4710 H   0  0  0  0  0  0
  -24.0014   -7.4642   22.7466 H   0  0  0  0  0  0
  -21.0806   -8.8673   19.8986 H   0  0  0  0  0  0
  -22.3578  -10.9605   19.6139 H   0  0  0  0  0  0
  -21.2014   -7.6132   23.9704 H   0  0  0  0  0  0
  -21.1487   -6.0510   25.9075 H   0  0  0  0  0  0
  -22.0606   -2.7584   23.2857 H   0  0  0  0  0  0
  -22.4132  -11.9880   22.4803 H   0  0  0  0  0  0
  -21.1119  -13.1231   22.2629 H   0  0  0  0  0  0
  -24.6590  -15.8400   20.5209 H   0  0  0  0  0  0
  -26.2705  -15.6265   20.0669 H   0  0  0  0  0  0
  -26.7152  -32.5447   23.1087 H   0  0  0  0  0  0
  -25.0032  -33.9713   25.0371 H   0  0  0  0  0  0
  -22.7091  -31.2956   21.3950 H   0  0  0  0  0  0
  -23.3757  -35.9610   23.3285 H   0  0  0  0  0  0
  -24.3579  -36.8940   22.2056 H   0  0  0  0  0  0
  -23.7238  -37.6484   23.6682 H   0  0  0  0  0  0
  -26.0884  -31.5536   20.5997 H   0  0  0  0  0  0
  -26.8391  -30.8428   21.9996 H   0  0  0  0  0  0
  -28.1164  -28.9953   21.1784 H   0  0  0  0  0  0
  -25.9538  -25.9115   19.0335 H   0  0  0  0  0  0
  -23.9763  -27.2894   19.0339 H   0  0  0  0  0  0
  -23.7591  -30.5817   19.3983 H   0  0  0  0  0  0
  -22.7580  -29.2380   19.8546 H   0  0  0  0  0  0
  -25.1301  -36.1903   25.0807 H   0  0  0  0  0  0
  -20.9931  -28.3226   24.1413 H   0  0  0  0  0  0
  -20.5639  -26.2259   23.3599 H   0  0  0  0  0  0
  -21.6623  -26.7415   22.1211 H   0  0  0  0  0  0
  -19.6901  -25.6266   21.1239 H   0  0  0  0  0  0
  -19.6701  -27.3153   20.6713 H   0  0  0  0  0  0
  -17.4182  -26.6611   21.4026 H   0  0  0  0  0  0
  -18.0356  -26.0074   22.9034 H   0  0  0  0  0  0
  -19.7938  -30.7245   24.2250 H   0  0  0  0  0  0
  -17.5026  -31.6272   24.5127 H   0  0  0  0  0  0
  -15.5346  -30.2987   23.7681 H   0  0  0  0  0  0
  -15.8641  -28.0832   22.7067 H   0  0  0  0  0  0
  -24.5891  -30.7081   25.7798 H   0  0  0  0  0  0
  -24.8931  -32.2897   26.4912 H   0  0  0  0  0  0
  -25.8082  -30.8897   27.0223 H   0  0  0  0  0  0
  -26.2868  -29.6794   24.1193 H   0  0  0  0  0  0
  -27.3996  -29.7263   25.4668 H   0  0  0  0  0  0
  -27.8747  -30.4298   23.9383 H   0  0  0  0  0  0
  -27.2643  -33.3638   26.2063 H   0  0  0  0  0  0
  -28.3875  -32.6886   25.0350 H   0  0  0  0  0  0
  -28.0676  -31.8465   26.5445 H   0  0  0  0  0  0
  -28.2566  -38.0118   24.7528 H   0  0  0  0  0  0
  -28.1089  -36.2647   24.6242 H   0  0  0  0  0  0
  -27.2288  -37.1395   25.8858 H   0  0  0  0  0  0
  -20.9362  -29.8745   21.6911 H   0  0  0  0  0  0
  -26.0147  -38.2843   24.1462 H   0  0  0  0  0  0
  -28.0915  -19.7894   22.1066 H   0  0  0  0  0  0
  -28.1322  -17.3425   22.1584 H   0  0  0  0  0  0
  -31.4289  -17.3192   19.4078 H   0  0  0  0  0  0
  -30.6777  -19.1400   17.3257 H   0  0  0  0  0  0
  -32.3065  -18.5491   17.6693 H   0  0  0  0  0  0
  -32.0721  -20.1843   17.0553 H   0  0  0  0  0  0
  -32.7080  -20.3658   20.8220 H   0  0  0  0  0  0
  -33.2757  -21.1253   19.3357 H   0  0  0  0  0  0
  -33.5334  -19.3999   19.5955 H   0  0  0  0  0  0
  -27.9951  -21.1465   18.8004 H   0  0  0  0  0  0
  -28.8603  -22.5951   18.2861 H   0  0  0  0  0  0
  -27.1569  -22.6774   18.7749 H   0  0  0  0  0  0
  -30.5962  -22.0214   20.2776 H   0  0  0  0  0  0
  -29.9226  -21.8390   21.8588 H   0  0  0  0  0  0
  -27.6304  -24.0510   21.4513 H   0  0  0  0  0  0
  -29.3514  -24.1194   21.4964 H   0  0  0  0  0  0
  -27.7204  -24.8987   18.9776 H   0  0  0  0  0  0
  -29.4097  -25.0462   19.1810 H   0  0  0  0  0  0
  -28.9302  -15.2707   21.3336 H   0  0  0  0  0  0
  -27.7834  -22.0557   20.9353 H   0  0  0  0  0  0
  1 25  1  0  0  0
  1 30  2  0  0  0
  1 83  1  0  0  0
  2  3  1  0  0  0
  2 25  1  0  0  0
  2 86  1  0  0  0
  2 87  1  0  0  0
  3  4  1  0  0  0
  3 88  1  0  0  0
  3 89  1  0  0  0
  4  5  1  0  0  0
  4 90  1  0  0  0
  4 91  1  0  0  0
  5  6  1  0  0  0
  5 26  1  0  0  0
  5 92  1  0  0  0
  6 25  1  0  0  0
  6 93  1  0  0  0
  6 94  1  0  0  0
  7  8  2  0  0  0
  7 26  1  0  0  0
  7 29  1  0  0  0
  8  9  1  0  0  0
  8 22  1  0  0  0
  9 10  1  0  0  0
  9 27  2  0  0  0
 10 11  2  0  0  0
 10 15  1  0  0  0
 11 12  1  0  0  0
 11 95  1  0  0  0
 12 13  2  0  0  0
 12 96  1  0  0  0
 13 14  1  0  0  0
 13 31  1  0  0  0
 14 15  2  0  0  0
 14 97  1  0  0  0
 15 98  1  0  0  0
 16 17  2  0  0  0
 16 21  1  0  0  0
 16 31  1  0  0  0
 17 18  1  0  0  0
 17 99  1  0  0  0
 18 19  2  0  0  0
 18100  1  0  0  0
 19 20  1  0  0  0
 19 24  1  0  0  0
 20 21  2  0  0  0
 20101  1  0  0  0
 21 23  1  0  0  0
 22 28  1  0  0  0
 22 32  2  0  0  0
 26 27  1  0  0  0
 28102  1  0  0  0
 28103  1  0  0  0
 29104  1  0  0  0
 29105  1  0  0  0
 33 34  1  0  0  0
 33 66  1  0  0  0
 33 70  2  0  0  0
 34 36  1  0  0  0
 34 59  1  0  0  0
 34106  1  0  0  0
 35 44  2  0  0  0
 35 45  1  0  0  0
 35 68  1  0  0  0
 36 56  1  0  0  0
 36107  1  0  0  0
 37 39  1  0  0  0
 37 47  1  0  0  0
 37 66  1  0  0  0
 37108  1  0  0  0
 38 43  2  0  0  0
 38 46  1  0  0  0
 38 47  1  0  0  0
 39 64  1  0  0  0
 39 67  2  0  0  0
 40 52  1  0  0  0
 40 53  2  0  0  0
 40 58  1  0  0  0
 41109  1  0  0  0
 41110  1  0  0  0
 41111  1  0  0  0
 41 48  1  0  0  0
 42 43  1  0  0  0
 42 66  1  0  0  0
 42112  1  0  0  0
 42113  1  0  0  0
 43 44  1  0  0  0
 44114  1  0  0  0
 45 46  2  0  0  0
 45115  1  0  0  0
 46116  1  0  0  0
 47117  1  0  0  0
 47118  1  0  0  0
 48 56  1  0  0  0
 48 65  1  0  0  0
 48119  1  0  0  0
 49 50  1  0  0  0
 49 53  1  0  0  0
 49 64  1  0  0  0
 49120  1  0  0  0
 50 51  1  0  0  0
 50121  1  0  0  0
 50122  1  0  0  0
 51 52  1  0  0  0
 51123  1  0  0  0
 51124  1  0  0  0
 52125  1  0  0  0
 52126  1  0  0  0
 53 54  1  0  0  0
 54 55  2  0  0  0
 54127  1  0  0  0
 55 57  1  0  0  0
 55128  1  0  0  0
 56 69  2  0  0  0
 57 58  2  0  0  0
 57129  1  0  0  0
 58130  1  0  0  0
 59 60  1  0  0  0
 59 61  1  0  0  0
 59 62  1  0  0  0
 60131  1  0  0  0
 60132  1  0  0  0
 60133  1  0  0  0
 61134  1  0  0  0
 61135  1  0  0  0
 61136  1  0  0  0
 62137  1  0  0  0
 62138  1  0  0  0
 62139  1  0  0  0
 63 65  1  0  0  0
 63140  1  0  0  0
 63141  1  0  0  0
 63142  1  0  0  0
 64143  1  0  0  0
 65144  1  0  0  0
 68 82  1  0  0  0
 71 72  2  0  0  0
 71 74  1  0  0  0
 71145  1  0  0  0
 72 75  1  0  0  0
 72146  1  0  0  0
 73 75  2  0  0  0
 73 76  1  0  0  0
 73147  1  0  0  0
 74 76  2  0  0  0
 74 80  1  0  0  0
 75 83  1  0  0  0
 76 84  1  0  0  0
 77 84  1  0  0  0
 77148  1  0  0  0
 77149  1  0  0  0
 77150  1  0  0  0
 78 84  1  0  0  0
 78151  1  0  0  0
 78152  1  0  0  0
 78153  1  0  0  0
 79154  1  0  0  0
 79155  1  0  0  0
 79156  1  0  0  0
 79 85  1  0  0  0
 80 85  1  0  0  0
 80157  1  0  0  0
 80158  1  0  0  0
 81 82  1  0  0  0
 81 85  1  0  0  0
 81159  1  0  0  0
 81160  1  0  0  0
 82161  1  0  0  0
 82162  1  0  0  0
 83163  1  0  0  0
 85164  1  0  0  0
M  CHG  1  85   1
M  ISO  4   1 100  68 101  82 101  83 100
M  END
> <chiral flag>
0

> <version>
0

> <s_m_source_file>
/data/baiqing/PycharmProjects/Reinvent-master-3.2/result/LINK_invent/BTK/process_docking_weight1_custom_product_contain_oxygen_bond_distance_aromatic_linkinvent_7_9_3/rearranged_h_0017.sdf

> <i_m_source_file_index>
83

> <r_mmod_Potential_Energy-OPLS-2005>
-0.124339528381824

> <r_mmod_Stretch_Energy-OPLS-2005>
87.610954284668

> <r_mmod_Bend_Energy-OPLS-2005>
168.198181152344

> <r_mmod_Torsional_Energy-OPLS-2005>
227.889846801758

> <r_mmod_Improper_Torsional_Energy-OPLS-2005>
8.12071800231934

> <r_mmod_Van_der_Waal_Energy-OPLS-2005>
144.760299682617

> <r_mmod_Electrostatic_Energy-OPLS-2005>
-244.182220458984

> <r_mmod_Solvation_Energy-OPLS-2005>
-436.953399658203

> <b_mmod_Minimization_Converged-OPLS-2005>
0

> <r_mmod_RMS_Derivative-OPLS-2005>
3.04603552818298

$$$$
84
                    3D
 Structure written by MMmdl.
161169  0  0  1  0            999 V2000
  -30.8063  -14.4409   20.6560 C   0  0  0  0  0  0
  -30.3939  -12.3157   19.4563 C   0  0  0  0  0  0
  -29.4933  -12.5400   18.2247 C   0  0  0  0  0  0
  -28.0154  -12.3705   18.6153 C   0  0  0  0  0  0
  -27.6528  -13.2080   19.8680 C   0  0  2  0  0  0
  -28.6824  -12.9983   20.9982 C   0  0  0  0  0  0
  -25.2537  -13.8155   20.5658 C   0  0  0  0  0  0
  -24.1800  -13.0431   20.9135 C   0  0  0  0  0  0
  -24.6351  -11.6898   20.8676 C   0  0  0  0  0  0
  -23.9036  -10.4290   21.0364 C   0  0  0  0  0  0
  -24.3592   -9.4234   21.9160 C   0  0  0  0  0  0
  -23.6271   -8.2277   22.0762 C   0  0  0  0  0  0
  -22.4257   -8.0298   21.3546 C   0  0  0  0  0  0
  -21.9875   -9.0265   20.4650 C   0  0  0  0  0  0
  -22.7198  -10.2139   20.3039 C   0  0  0  0  0  0
  -21.6846   -6.0739   22.5280 C   0  0  0  0  0  0
  -21.4028   -6.5644   23.8216 C   0  0  0  0  0  0
  -21.3672   -5.6792   24.9171 C   0  0  0  0  0  0
  -21.6052   -4.3057   24.7216 C   0  0  0  0  0  0
  -21.8813   -3.8150   23.4334 C   0  0  0  0  0  0
  -21.9194   -4.6970   22.3396 C   0  0  0  0  0  0
  -22.7838  -13.5260   21.1830 C   0  0  0  0  0  0
  -22.1656   -4.2157   21.0972 F   0  0  0  0  0  0
  -21.5629   -3.4545   25.7730 F   0  0  0  0  0  0
  -30.0290  -13.3198   20.4819 N   0  0  0  0  0  0
  -26.2947  -12.9320   20.3270 N   0  0  0  0  0  0
  -25.9268  -11.6474   20.5675 N   0  0  0  0  0  0
  -22.0473  -12.8271   22.0393 N   0  0  0  0  0  0
  -25.4241  -15.1880   20.4165 N   0  0  0  0  0  0
  -31.8838  -14.5311   20.0528 O   0  0  0  0  0  0
  -21.6637   -6.8881   21.4240 O   0  0  0  0  0  0
  -22.3546  -14.5583   20.6694 O   0  0  0  0  0  0
  -24.6126  -31.8701   23.2104 C   0  0  0  0  0  0
  -25.9051  -32.4813   23.8400 C   0  0  1  0  0  0
  -27.2510  -27.4492   20.0950 C   0  0  0  0  0  0
  -25.5966  -33.8616   24.2346 N   0  0  0  0  0  0
  -23.3981  -30.4900   21.5485 C   0  0  2  0  0  0
  -24.8493  -28.9559   20.1187 C   0  0  0  0  0  0
  -22.7391  -29.4638   22.4989 C   0  0  0  0  0  0
  -18.0254  -28.1399   22.8496 C   0  0  0  0  0  0
  -24.1485  -36.7215   23.2643 C   0  0  0  0  0  0
  -25.9275  -30.8410   21.3604 C   0  0  0  0  0  0
  -26.0074  -29.4754   20.7070 C   0  0  0  0  0  0
  -27.2061  -28.7321   20.6879 C   0  0  0  0  0  0
  -26.0669  -26.9324   19.5180 C   0  0  0  0  0  0
  -24.8731  -27.6830   19.5241 C   0  0  0  0  0  0
  -23.6091  -29.8191   20.1631 C   0  0  0  0  0  0
  -25.4132  -36.3090   24.0339 C   0  0  1  0  0  0
  -20.5842  -28.3640   23.1346 C   0  0  2  0  0  0
  -20.6739  -26.9386   22.5414 C   0  0  0  0  0  0
  -19.5737  -26.6398   21.5204 C   0  0  0  0  0  0
  -18.1915  -26.7954   22.1614 C   0  0  0  0  0  0
  -19.1503  -28.8839   23.2909 C   0  0  0  0  0  0
  -18.9453  -30.1460   23.8895 C   0  0  0  0  0  0
  -17.6464  -30.6609   24.0580 C   0  0  0  0  0  0
  -25.9088  -34.9466   23.5126 C   0  0  0  0  0  0
  -16.5342  -29.9141   23.6332 C   0  0  0  0  0  0
  -16.7239  -28.6550   23.0345 C   0  0  0  0  0  0
  -26.4499  -31.6559   25.0715 C   0  0  0  0  0  0
  -25.3781  -31.3609   26.1463 C   0  0  0  0  0  0
  -27.0306  -30.3018   24.6058 C   0  0  0  0  0  0
  -27.6088  -32.4228   25.7512 C   0  0  0  0  0  0
  -27.5579  -37.1772   24.8505 C   0  0  0  0  0  0
  -21.4117  -29.2995   22.3747 N   0  0  0  0  0  0
  -26.4307  -37.3791   23.9435 N   0  0  0  0  0  0
  -24.6629  -31.0854   22.0965 N   0  0  0  0  0  0
  -23.4166  -28.8173   23.3023 O   0  0  0  0  0  0
  -28.4706  -26.7992   20.0946 O   0  0  0  0  0  0
  -26.5622  -34.8928   22.4668 O   0  0  0  0  0  0
  -23.5319  -32.1398   23.7535 O   0  0  0  0  0  0
  -30.3551  -18.7805   22.6159 C   0  0  0  0  0  0
  -29.9595  -18.8911   20.2265 C   0  0  0  0  0  0
  -29.8311  -20.0814   22.7618 C   0  0  0  0  0  0
  -29.4581  -20.2037   20.3721 C   0  0  0  0  0  0
  -30.4165  -18.1624   21.3494 C   0  0  0  0  0  0
  -29.3796  -20.8229   21.6444 C   0  0  0  0  0  0
  -27.8668  -22.2685   22.8739 C   0  0  0  0  0  0
  -29.6876  -15.4497   22.6520 C   0  0  0  0  0  0
  -31.1228  -16.8134   21.1668 C   0  0  0  0  0  0
  -28.6103  -24.5288   21.0262 C   0  0  0  0  0  0
  -28.8306  -23.0368   20.6670 C   0  0  0  0  0  0
  -28.5950  -25.4140   19.7657 C   0  0  0  0  0  0
  -28.8804  -22.1354   21.8249 N   0  0  0  0  0  0
  -30.3634  -15.5365   21.3509 N   0  0  0  0  0  0
  -31.4424  -12.3557   19.1590 H   0  0  0  0  0  0
  -30.2572  -11.3061   19.8494 H   0  0  0  0  0  0
  -29.7605  -11.8459   17.4269 H   0  0  0  0  0  0
  -29.6513  -13.5433   17.8228 H   0  0  0  0  0  0
  -27.8399  -11.3109   18.8084 H   0  0  0  0  0  0
  -27.3697  -12.6390   17.7778 H   0  0  0  0  0  0
  -27.6930  -14.2565   19.5726 H   0  0  0  0  0  0
  -28.6581  -11.9598   21.3338 H   0  0  0  0  0  0
  -28.3640  -13.5543   21.8690 H   0  0  0  0  0  0
  -25.2735   -9.5730   22.4723 H   0  0  0  0  0  0
  -23.9989   -7.4674   22.7481 H   0  0  0  0  0  0
  -21.0814   -8.8765   19.8956 H   0  0  0  0  0  0
  -22.3637  -10.9672   19.6147 H   0  0  0  0  0  0
  -21.2030   -7.6150   23.9720 H   0  0  0  0  0  0
  -21.1500   -6.0519   25.9072 H   0  0  0  0  0  0
  -22.0579   -2.7617   23.2825 H   0  0  0  0  0  0
  -22.4045  -11.9916   22.4769 H   0  0  0  0  0  0
  -21.1107  -13.1343   22.2595 H   0  0  0  0  0  0
  -24.6580  -15.8404   20.5457 H   0  0  0  0  0  0
  -26.2936  -15.6425   20.1644 H   0  0  0  0  0  0
  -26.7126  -32.5500   23.1163 H   0  0  0  0  0  0
  -25.0205  -33.9799   25.0558 H   0  0  0  0  0  0
  -22.6835  -31.3017   21.4047 H   0  0  0  0  0  0
  -23.3809  -35.9486   23.3377 H   0  0  0  0  0  0
  -24.3574  -36.8749   22.2045 H   0  0  0  0  0  0
  -23.7186  -37.6419   23.6595 H   0  0  0  0  0  0
  -26.0608  -31.6109   20.5985 H   0  0  0  0  0  0
  -26.8091  -30.8833   21.9857 H   0  0  0  0  0  0
  -28.1011  -29.1419   21.1325 H   0  0  0  0  0  0
  -26.0271  -25.9608   19.0518 H   0  0  0  0  0  0
  -23.9777  -27.2737   19.0767 H   0  0  0  0  0  0
  -23.7156  -30.5876   19.3975 H   0  0  0  0  0  0
  -22.7354  -29.2365   19.8651 H   0  0  0  0  0  0
  -25.1324  -36.1941   25.0833 H   0  0  0  0  0  0
  -20.9929  -28.3199   24.1469 H   0  0  0  0  0  0
  -20.5683  -26.2223   23.3574 H   0  0  0  0  0  0
  -21.6618  -26.7467   22.1208 H   0  0  0  0  0  0
  -19.6907  -25.6327   21.1213 H   0  0  0  0  0  0
  -19.6721  -27.3236   20.6760 H   0  0  0  0  0  0
  -17.4182  -26.6664   21.4016 H   0  0  0  0  0  0
  -18.0325  -26.0094   22.9013 H   0  0  0  0  0  0
  -19.7923  -30.7272   24.2255 H   0  0  0  0  0  0
  -17.5030  -31.6302   24.5183 H   0  0  0  0  0  0
  -15.5356  -30.3077   23.7672 H   0  0  0  0  0  0
  -15.8599  -28.0912   22.7064 H   0  0  0  0  0  0
  -24.5991  -30.6939   25.7787 H   0  0  0  0  0  0
  -24.8931  -32.2713   26.4962 H   0  0  0  0  0  0
  -25.8175  -30.8730   27.0170 H   0  0  0  0  0  0
  -26.2792  -29.6810   24.1166 H   0  0  0  0  0  0
  -27.4159  -29.7247   25.4476 H   0  0  0  0  0  0
  -27.8631  -30.4378   23.9156 H   0  0  0  0  0  0
  -27.2763  -33.3526   26.2145 H   0  0  0  0  0  0
  -28.3935  -32.6789   25.0379 H   0  0  0  0  0  0
  -28.0734  -31.8285   26.5410 H   0  0  0  0  0  0
  -28.2662  -38.0017   24.7568 H   0  0  0  0  0  0
  -28.1012  -36.2560   24.6325 H   0  0  0  0  0  0
  -27.2279  -37.1422   25.8907 H   0  0  0  0  0  0
  -20.9265  -29.8620   21.6898 H   0  0  0  0  0  0
  -26.0186  -38.2857   24.1474 H   0  0  0  0  0  0
  -30.7436  -18.2769   23.4888 H   0  0  0  0  0  0
  -30.0321  -18.4728   19.2321 H   0  0  0  0  0  0
  -29.8052  -20.5196   23.7487 H   0  0  0  0  0  0
  -29.1396  -20.7236   19.4822 H   0  0  0  0  0  0
  -27.4389  -21.3103   23.1725 H   0  0  0  0  0  0
  -27.0316  -22.8851   22.5437 H   0  0  0  0  0  0
  -28.2963  -22.7425   23.7559 H   0  0  0  0  0  0
  -29.8628  -14.4913   23.1442 H   0  0  0  0  0  0
  -28.6157  -15.6159   22.5369 H   0  0  0  0  0  0
  -30.0415  -16.1980   23.3540 H   0  0  0  0  0  0
  -31.9780  -16.7963   21.8453 H   0  0  0  0  0  0
  -31.5529  -16.8680   20.1636 H   0  0  0  0  0  0
  -29.4025  -24.8670   21.6973 H   0  0  0  0  0  0
  -27.6734  -24.6751   21.5629 H   0  0  0  0  0  0
  -29.7715  -22.9527   20.1178 H   0  0  0  0  0  0
  -28.0473  -22.7043   19.9844 H   0  0  0  0  0  0
  -27.8687  -25.0565   19.0387 H   0  0  0  0  0  0
  -29.5583  -25.3080   19.2670 H   0  0  0  0  0  0
  1 25  1  0  0  0
  1 30  2  0  0  0
  1 84  1  0  0  0
  2  3  1  0  0  0
  2 25  1  0  0  0
  2 85  1  0  0  0
  2 86  1  0  0  0
  3  4  1  0  0  0
  3 87  1  0  0  0
  3 88  1  0  0  0
  4  5  1  0  0  0
  4 89  1  0  0  0
  4 90  1  0  0  0
  5  6  1  0  0  0
  5 26  1  0  0  0
  5 91  1  0  0  0
  6 25  1  0  0  0
  6 92  1  0  0  0
  6 93  1  0  0  0
  7  8  2  0  0  0
  7 26  1  0  0  0
  7 29  1  0  0  0
  8  9  1  0  0  0
  8 22  1  0  0  0
  9 10  1  0  0  0
  9 27  2  0  0  0
 10 11  2  0  0  0
 10 15  1  0  0  0
 11 12  1  0  0  0
 11 94  1  0  0  0
 12 13  2  0  0  0
 12 95  1  0  0  0
 13 14  1  0  0  0
 13 31  1  0  0  0
 14 15  2  0  0  0
 14 96  1  0  0  0
 15 97  1  0  0  0
 16 17  2  0  0  0
 16 21  1  0  0  0
 16 31  1  0  0  0
 17 18  1  0  0  0
 17 98  1  0  0  0
 18 19  2  0  0  0
 18 99  1  0  0  0
 19 20  1  0  0  0
 19 24  1  0  0  0
 20 21  2  0  0  0
 20100  1  0  0  0
 21 23  1  0  0  0
 22 28  1  0  0  0
 22 32  2  0  0  0
 26 27  1  0  0  0
 28101  1  0  0  0
 28102  1  0  0  0
 29103  1  0  0  0
 29104  1  0  0  0
 33 34  1  0  0  0
 33 66  1  0  0  0
 33 70  2  0  0  0
 34 36  1  0  0  0
 34 59  1  0  0  0
 34105  1  0  0  0
 35 44  2  0  0  0
 35 45  1  0  0  0
 35 68  1  0  0  0
 36 56  1  0  0  0
 36106  1  0  0  0
 37 39  1  0  0  0
 37 47  1  0  0  0
 37 66  1  0  0  0
 37107  1  0  0  0
 38 43  2  0  0  0
 38 46  1  0  0  0
 38 47  1  0  0  0
 39 64  1  0  0  0
 39 67  2  0  0  0
 40 52  1  0  0  0
 40 53  2  0  0  0
 40 58  1  0  0  0
 41108  1  0  0  0
 41109  1  0  0  0
 41110  1  0  0  0
 41 48  1  0  0  0
 42 43  1  0  0  0
 42 66  1  0  0  0
 42111  1  0  0  0
 42112  1  0  0  0
 43 44  1  0  0  0
 44113  1  0  0  0
 45 46  2  0  0  0
 45114  1  0  0  0
 46115  1  0  0  0
 47116  1  0  0  0
 47117  1  0  0  0
 48 56  1  0  0  0
 48 65  1  0  0  0
 48118  1  0  0  0
 49 50  1  0  0  0
 49 53  1  0  0  0
 49 64  1  0  0  0
 49119  1  0  0  0
 50 51  1  0  0  0
 50120  1  0  0  0
 50121  1  0  0  0
 51 52  1  0  0  0
 51122  1  0  0  0
 51123  1  0  0  0
 52124  1  0  0  0
 52125  1  0  0  0
 53 54  1  0  0  0
 54 55  2  0  0  0
 54126  1  0  0  0
 55 57  1  0  0  0
 55127  1  0  0  0
 56 69  2  0  0  0
 57 58  2  0  0  0
 57128  1  0  0  0
 58129  1  0  0  0
 59 60  1  0  0  0
 59 61  1  0  0  0
 59 62  1  0  0  0
 60130  1  0  0  0
 60131  1  0  0  0
 60132  1  0  0  0
 61133  1  0  0  0
 61134  1  0  0  0
 61135  1  0  0  0
 62136  1  0  0  0
 62137  1  0  0  0
 62138  1  0  0  0
 63 65  1  0  0  0
 63139  1  0  0  0
 63140  1  0  0  0
 63141  1  0  0  0
 64142  1  0  0  0
 65143  1  0  0  0
 68 82  1  0  0  0
 71 73  2  0  0  0
 71 75  1  0  0  0
 71144  1  0  0  0
 72 74  1  0  0  0
 72 75  2  0  0  0
 72145  1  0  0  0
 73 76  1  0  0  0
 73146  1  0  0  0
 74 76  2  0  0  0
 74147  1  0  0  0
 75 79  1  0  0  0
 76 83  1  0  0  0
 77 83  1  0  0  0
 77148  1  0  0  0
 77149  1  0  0  0
 77150  1  0  0  0
 78 84  1  0  0  0
 78151  1  0  0  0
 78152  1  0  0  0
 78153  1  0  0  0
 79 84  1  0  0  0
 79154  1  0  0  0
 79155  1  0  0  0
 80 81  1  0  0  0
 80 82  1  0  0  0
 80156  1  0  0  0
 80157  1  0  0  0
 81 83  1  0  0  0
 81158  1  0  0  0
 81159  1  0  0  0
 82160  1  0  0  0
 82161  1  0  0  0
M  ISO  4   1 100  68 101  82 101  84 100
M  END
> <chiral flag>
0

> <version>
0

> <s_m_source_file>
/data/baiqing/PycharmProjects/Reinvent-master-3.2/result/LINK_invent/BTK/process_docking_weight1_custom_product_contain_oxygen_bond_distance_aromatic_linkinvent_7_9_3/rearranged_h_0017.sdf

> <i_m_source_file_index>
84

> <r_mmod_Potential_Energy-OPLS-2005>
100.385414123535

> <r_mmod_Stretch_Energy-OPLS-2005>
46.212100982666

> <r_mmod_Bend_Energy-OPLS-2005>
142.126251220703

> <r_mmod_Torsional_Energy-OPLS-2005>
238.704498291016

> <r_mmod_Improper_Torsional_Energy-OPLS-2005>
7.92415904998779

> <r_mmod_Van_der_Waal_Energy-OPLS-2005>
180.791030883789

> <r_mmod_Electrostatic_Energy-OPLS-2005>
-317.921661376953

> <r_mmod_Solvation_Energy-OPLS-2005>
-212.284820556641

> <b_mmod_Minimization_Converged-OPLS-2005>
0

> <r_mmod_RMS_Derivative-OPLS-2005>
4.60344171524048

$$$$
85
                    3D
 Structure written by MMmdl.
161169  0  0  1  0            999 V2000
  -30.6783  -14.6302   20.5326 C   0  0  0  0  0  0
  -30.4225  -12.4022   19.4497 C   0  0  0  0  0  0
  -29.4992  -12.5297   18.2189 C   0  0  0  0  0  0
  -28.0230  -12.3686   18.6298 C   0  0  0  0  0  0
  -27.6521  -13.2288   19.8678 C   0  0  2  0  0  0
  -28.6978  -13.0801   20.9934 C   0  0  0  0  0  0
  -25.2546  -13.8195   20.5731 C   0  0  0  0  0  0
  -24.1820  -13.0438   20.9194 C   0  0  0  0  0  0
  -24.6410  -11.6914   20.8738 C   0  0  0  0  0  0
  -23.9085  -10.4290   21.0394 C   0  0  0  0  0  0
  -24.3623   -9.4206   21.9187 C   0  0  0  0  0  0
  -23.6288   -8.2245   22.0761 C   0  0  0  0  0  0
  -22.4278   -8.0291   21.3539 C   0  0  0  0  0  0
  -21.9930   -9.0259   20.4629 C   0  0  0  0  0  0
  -22.7266  -10.2126   20.3039 C   0  0  0  0  0  0
  -21.6843   -6.0750   22.5275 C   0  0  0  0  0  0
  -21.4011   -6.5645   23.8211 C   0  0  0  0  0  0
  -21.3660   -5.6793   24.9171 C   0  0  0  0  0  0
  -21.6046   -4.3056   24.7222 C   0  0  0  0  0  0
  -21.8818   -3.8156   23.4334 C   0  0  0  0  0  0
  -21.9188   -4.6977   22.3393 C   0  0  0  0  0  0
  -22.7836  -13.5222   21.1836 C   0  0  0  0  0  0
  -22.1656   -4.2166   21.0965 F   0  0  0  0  0  0
  -21.5630   -3.4537   25.7732 F   0  0  0  0  0  0
  -30.0078  -13.4332   20.4285 N   0  0  0  0  0  0
  -26.2988  -12.9403   20.3364 N   0  0  0  0  0  0
  -25.9346  -11.6542   20.5763 N   0  0  0  0  0  0
  -22.0457  -12.8185   22.0356 N   0  0  0  0  0  0
  -25.4250  -15.1932   20.4204 N   0  0  0  0  0  0
  -31.8244  -14.7251   20.0807 O   0  0  0  0  0  0
  -21.6629   -6.8899   21.4239 O   0  0  0  0  0  0
  -22.3523  -14.5531   20.6697 O   0  0  0  0  0  0
  -24.6250  -31.8595   23.2022 C   0  0  0  0  0  0
  -25.9092  -32.4780   23.8366 C   0  0  1  0  0  0
  -27.2303  -27.3399   20.1247 C   0  0  0  0  0  0
  -25.5908  -33.8582   24.2284 N   0  0  0  0  0  0
  -23.4192  -30.4813   21.5449 C   0  0  2  0  0  0
  -24.8706  -28.9396   20.1100 C   0  0  0  0  0  0
  -22.7483  -29.4598   22.4937 C   0  0  0  0  0  0
  -18.0285  -28.1356   22.8480 C   0  0  0  0  0  0
  -24.1473  -36.7288   23.2637 C   0  0  0  0  0  0
  -25.9580  -30.7973   21.3713 C   0  0  0  0  0  0
  -26.0356  -29.4252   20.7172 C   0  0  0  0  0  0
  -27.2224  -28.6379   20.7134 C   0  0  0  0  0  0
  -26.0502  -26.9029   19.4860 C   0  0  0  0  0  0
  -24.8779  -27.6830   19.4833 C   0  0  0  0  0  0
  -23.6366  -29.8157   20.1598 C   0  0  0  0  0  0
  -25.4101  -36.3084   24.0322 C   0  0  1  0  0  0
  -20.5886  -28.3652   23.1281 C   0  0  2  0  0  0
  -20.6770  -26.9388   22.5383 C   0  0  0  0  0  0
  -19.5741  -26.6378   21.5185 C   0  0  0  0  0  0
  -18.1913  -26.7900   22.1606 C   0  0  0  0  0  0
  -19.1543  -28.8821   23.2864 C   0  0  0  0  0  0
  -18.9472  -30.1430   23.8879 C   0  0  0  0  0  0
  -17.6475  -30.6554   24.0566 C   0  0  0  0  0  0
  -25.9045  -34.9453   23.5110 C   0  0  0  0  0  0
  -16.5361  -29.9064   23.6329 C   0  0  0  0  0  0
  -16.7284  -28.6488   23.0338 C   0  0  0  0  0  0
  -26.4486  -31.6579   25.0728 C   0  0  0  0  0  0
  -25.3723  -31.3649   26.1441 C   0  0  0  0  0  0
  -27.0396  -30.3045   24.6134 C   0  0  0  0  0  0
  -27.6011  -32.4338   25.7533 C   0  0  0  0  0  0
  -27.5552  -37.1819   24.8467 C   0  0  0  0  0  0
  -21.4193  -29.3026   22.3698 N   0  0  0  0  0  0
  -26.4271  -37.3786   23.9402 N   0  0  0  0  0  0
  -24.6858  -31.0626   22.0966 N   0  0  0  0  0  0
  -23.4220  -28.8131   23.2997 O   0  0  0  0  0  0
  -28.3378  -26.4887   20.1538 O   0  0  0  0  0  0
  -26.5626  -34.8921   22.4684 O   0  0  0  0  0  0
  -23.5416  -32.1389   23.7347 O   0  0  0  0  0  0
  -30.4418  -19.5912   19.7811 C   0  0  0  0  0  0
  -28.6822  -18.8890   21.2494 C   0  0  0  0  0  0
  -30.1133  -20.9605   20.0053 C   0  0  0  0  0  0
  -28.3746  -20.2597   21.4988 C   0  0  0  0  0  0
  -29.7536  -18.5097   20.4011 C   0  0  0  0  0  0
  -29.0851  -21.3435   20.9012 C   0  0  0  0  0  0
  -30.5539  -24.3935   20.6610 C   0  0  0  0  0  0
  -28.6685  -22.8721   22.7162 C   0  0  0  0  0  0
  -29.5976  -15.9915   22.2529 C   0  0  0  0  0  0
  -30.1610  -17.0321   20.0127 C   0  0  0  0  0  0
  -28.1122  -25.1659   20.7659 C   0  0  0  0  0  0
  -29.0953  -23.9435   20.4610 C   0  0  2  0  0  0
  -28.7896  -22.7077   21.2630 N   0  0  0  0  0  0
  -29.9737  -15.7798   20.8511 N   0  0  0  0  0  0
  -31.4658  -12.5018   19.1451 H   0  0  0  0  0  0
  -30.3409  -11.4066   19.8886 H   0  0  0  0  0  0
  -29.7622  -11.7853   17.4664 H   0  0  0  0  0  0
  -29.6429  -13.5041   17.7481 H   0  0  0  0  0  0
  -27.8539  -11.3136   18.8480 H   0  0  0  0  0  0
  -27.3690  -12.6138   17.7918 H   0  0  0  0  0  0
  -27.6706  -14.2690   19.5402 H   0  0  0  0  0  0
  -28.7144  -12.0534   21.3634 H   0  0  0  0  0  0
  -28.4350  -13.6948   21.8516 H   0  0  0  0  0  0
  -25.2757   -9.5676   22.4771 H   0  0  0  0  0  0
  -23.9986   -7.4643   22.7493 H   0  0  0  0  0  0
  -21.0870   -8.8778   19.8915 H   0  0  0  0  0  0
  -22.3746  -10.9667   19.6133 H   0  0  0  0  0  0
  -21.2000   -7.6152   23.9722 H   0  0  0  0  0  0
  -21.1485   -6.0522   25.9078 H   0  0  0  0  0  0
  -22.0597   -2.7624   23.2829 H   0  0  0  0  0  0
  -22.4057  -11.9831   22.4722 H   0  0  0  0  0  0
  -21.1054  -13.1173   22.2501 H   0  0  0  0  0  0
  -24.6621  -15.8503   20.5466 H   0  0  0  0  0  0
  -26.2897  -15.6368   20.1378 H   0  0  0  0  0  0
  -26.7181  -32.5474   23.1145 H   0  0  0  0  0  0
  -25.0056  -33.9741   25.0428 H   0  0  0  0  0  0
  -22.7096  -31.2982   21.3999 H   0  0  0  0  0  0
  -23.3756  -35.9596   23.3280 H   0  0  0  0  0  0
  -24.3563  -36.8951   22.2057 H   0  0  0  0  0  0
  -23.7211  -37.6466   23.6703 H   0  0  0  0  0  0
  -26.0808  -31.5563   20.5985 H   0  0  0  0  0  0
  -26.8434  -30.8542   21.9937 H   0  0  0  0  0  0
  -28.1161  -29.0057   21.1965 H   0  0  0  0  0  0
  -26.0272  -25.9413   18.9943 H   0  0  0  0  0  0
  -23.9890  -27.3066   18.9971 H   0  0  0  0  0  0
  -23.7545  -30.5932   19.4040 H   0  0  0  0  0  0
  -22.7599  -29.2399   19.8587 H   0  0  0  0  0  0
  -25.1278  -36.1935   25.0814 H   0  0  0  0  0  0
  -20.9957  -28.3209   24.1414 H   0  0  0  0  0  0
  -20.5676  -26.2247   23.3560 H   0  0  0  0  0  0
  -21.6635  -26.7401   22.1180 H   0  0  0  0  0  0
  -19.6897  -25.6310   21.1165 H   0  0  0  0  0  0
  -19.6665  -27.3226   20.6746 H   0  0  0  0  0  0
  -17.4181  -26.6672   21.4006 H   0  0  0  0  0  0
  -18.0310  -26.0010   22.8982 H   0  0  0  0  0  0
  -19.7955  -30.7241   24.2232 H   0  0  0  0  0  0
  -17.5041  -31.6236   24.5174 H   0  0  0  0  0  0
  -15.5368  -30.2965   23.7653 H   0  0  0  0  0  0
  -15.8682  -28.0822   22.7029 H   0  0  0  0  0  0
  -24.5878  -30.7044   25.7731 H   0  0  0  0  0  0
  -24.8940  -32.2794   26.4963 H   0  0  0  0  0  0
  -25.8043  -30.8731   27.0164 H   0  0  0  0  0  0
  -26.3007  -29.6753   24.1161 H   0  0  0  0  0  0
  -27.4192  -29.7307   25.4595 H   0  0  0  0  0  0
  -27.8799  -30.4418   23.9322 H   0  0  0  0  0  0
  -27.2615  -33.3683   26.2013 H   0  0  0  0  0  0
  -28.3888  -32.6820   25.0409 H   0  0  0  0  0  0
  -28.0594  -31.8517   26.5538 H   0  0  0  0  0  0
  -28.2542  -38.0135   24.7531 H   0  0  0  0  0  0
  -28.1079  -36.2670   24.6292 H   0  0  0  0  0  0
  -27.2269  -37.1470   25.8866 H   0  0  0  0  0  0
  -20.9355  -29.8813   21.6974 H   0  0  0  0  0  0
  -26.0137  -38.2851   24.1413 H   0  0  0  0  0  0
  -31.2504  -19.3765   19.0966 H   0  0  0  0  0  0
  -28.0701  -18.1370   21.7214 H   0  0  0  0  0  0
  -30.6941  -21.7124   19.4948 H   0  0  0  0  0  0
  -27.5588  -20.4724   22.1750 H   0  0  0  0  0  0
  -30.7733  -25.2709   20.0509 H   0  0  0  0  0  0
  -31.2698  -23.6259   20.3741 H   0  0  0  0  0  0
  -30.7576  -24.6602   21.6971 H   0  0  0  0  0  0
  -29.1829  -22.0806   23.2650 H   0  0  0  0  0  0
  -27.6211  -22.8636   23.0197 H   0  0  0  0  0  0
  -29.1047  -23.8083   23.0637 H   0  0  0  0  0  0
  -28.5132  -16.0266   22.3568 H   0  0  0  0  0  0
  -30.0154  -16.9213   22.6385 H   0  0  0  0  0  0
  -29.9630  -15.1989   22.9092 H   0  0  0  0  0  0
  -31.2194  -17.0991   19.7544 H   0  0  0  0  0  0
  -29.6590  -16.8301   19.0653 H   0  0  0  0  0  0
  -28.1258  -25.3662   21.8369 H   0  0  0  0  0  0
  -27.1025  -24.8072   20.5699 H   0  0  0  0  0  0
  -28.9706  -23.6805   19.4090 H   0  0  0  0  0  0
  1 25  1  0  0  0
  1 30  2  0  0  0
  1 84  1  0  0  0
  2  3  1  0  0  0
  2 25  1  0  0  0
  2 85  1  0  0  0
  2 86  1  0  0  0
  3  4  1  0  0  0
  3 87  1  0  0  0
  3 88  1  0  0  0
  4  5  1  0  0  0
  4 89  1  0  0  0
  4 90  1  0  0  0
  5  6  1  0  0  0
  5 26  1  0  0  0
  5 91  1  0  0  0
  6 25  1  0  0  0
  6 92  1  0  0  0
  6 93  1  0  0  0
  7  8  2  0  0  0
  7 26  1  0  0  0
  7 29  1  0  0  0
  8  9  1  0  0  0
  8 22  1  0  0  0
  9 10  1  0  0  0
  9 27  2  0  0  0
 10 11  2  0  0  0
 10 15  1  0  0  0
 11 12  1  0  0  0
 11 94  1  0  0  0
 12 13  2  0  0  0
 12 95  1  0  0  0
 13 14  1  0  0  0
 13 31  1  0  0  0
 14 15  2  0  0  0
 14 96  1  0  0  0
 15 97  1  0  0  0
 16 17  2  0  0  0
 16 21  1  0  0  0
 16 31  1  0  0  0
 17 18  1  0  0  0
 17 98  1  0  0  0
 18 19  2  0  0  0
 18 99  1  0  0  0
 19 20  1  0  0  0
 19 24  1  0  0  0
 20 21  2  0  0  0
 20100  1  0  0  0
 21 23  1  0  0  0
 22 28  1  0  0  0
 22 32  2  0  0  0
 26 27  1  0  0  0
 28101  1  0  0  0
 28102  1  0  0  0
 29103  1  0  0  0
 29104  1  0  0  0
 33 34  1  0  0  0
 33 66  1  0  0  0
 33 70  2  0  0  0
 34 36  1  0  0  0
 34 59  1  0  0  0
 34105  1  0  0  0
 35 44  2  0  0  0
 35 45  1  0  0  0
 35 68  1  0  0  0
 36 56  1  0  0  0
 36106  1  0  0  0
 37 39  1  0  0  0
 37 47  1  0  0  0
 37 66  1  0  0  0
 37107  1  0  0  0
 38 43  2  0  0  0
 38 46  1  0  0  0
 38 47  1  0  0  0
 39 64  1  0  0  0
 39 67  2  0  0  0
 40 52  1  0  0  0
 40 53  2  0  0  0
 40 58  1  0  0  0
 41108  1  0  0  0
 41109  1  0  0  0
 41110  1  0  0  0
 41 48  1  0  0  0
 42 43  1  0  0  0
 42 66  1  0  0  0
 42111  1  0  0  0
 42112  1  0  0  0
 43 44  1  0  0  0
 44113  1  0  0  0
 45 46  2  0  0  0
 45114  1  0  0  0
 46115  1  0  0  0
 47116  1  0  0  0
 47117  1  0  0  0
 48 56  1  0  0  0
 48 65  1  0  0  0
 48118  1  0  0  0
 49 50  1  0  0  0
 49 53  1  0  0  0
 49 64  1  0  0  0
 49119  1  0  0  0
 50 51  1  0  0  0
 50120  1  0  0  0
 50121  1  0  0  0
 51 52  1  0  0  0
 51122  1  0  0  0
 51123  1  0  0  0
 52124  1  0  0  0
 52125  1  0  0  0
 53 54  1  0  0  0
 54 55  2  0  0  0
 54126  1  0  0  0
 55 57  1  0  0  0
 55127  1  0  0  0
 56 69  2  0  0  0
 57 58  2  0  0  0
 57128  1  0  0  0
 58129  1  0  0  0
 59 60  1  0  0  0
 59 61  1  0  0  0
 59 62  1  0  0  0
 60130  1  0  0  0
 60131  1  0  0  0
 60132  1  0  0  0
 61133  1  0  0  0
 61134  1  0  0  0
 61135  1  0  0  0
 62136  1  0  0  0
 62137  1  0  0  0
 62138  1  0  0  0
 63 65  1  0  0  0
 63139  1  0  0  0
 63140  1  0  0  0
 63141  1  0  0  0
 64142  1  0  0  0
 65143  1  0  0  0
 68 81  1  0  0  0
 71 73  2  0  0  0
 71 75  1  0  0  0
 71144  1  0  0  0
 72 74  1  0  0  0
 72 75  2  0  0  0
 72145  1  0  0  0
 73 76  1  0  0  0
 73146  1  0  0  0
 74 76  2  0  0  0
 74147  1  0  0  0
 75 80  1  0  0  0
 76 83  1  0  0  0
 77148  1  0  0  0
 77149  1  0  0  0
 77150  1  0  0  0
 77 82  1  0  0  0
 78 83  1  0  0  0
 78151  1  0  0  0
 78152  1  0  0  0
 78153  1  0  0  0
 79 84  1  0  0  0
 79154  1  0  0  0
 79155  1  0  0  0
 79156  1  0  0  0
 80 84  1  0  0  0
 80157  1  0  0  0
 80158  1  0  0  0
 81 82  1  0  0  0
 81159  1  0  0  0
 81160  1  0  0  0
 82 83  1  0  0  0
 82161  1  0  0  0
M  ISO  4   1 100  68 101  81 101  84 100
M  END
> <chiral flag>
0

> <version>
0

> <s_m_source_file>
/data/baiqing/PycharmProjects/Reinvent-master-3.2/result/LINK_invent/BTK/process_docking_weight1_custom_product_contain_oxygen_bond_distance_aromatic_linkinvent_7_9_3/rearranged_h_0017.sdf

> <i_m_source_file_index>
85

> <r_mmod_Potential_Energy-OPLS-2005>
213.669982910156

> <r_mmod_Stretch_Energy-OPLS-2005>
83.8696899414062

> <r_mmod_Bend_Energy-OPLS-2005>
164.26416015625

> <r_mmod_Torsional_Energy-OPLS-2005>
283.068450927734

> <r_mmod_Improper_Torsional_Energy-OPLS-2005>
11.0250158309937

> <r_mmod_Van_der_Waal_Energy-OPLS-2005>
157.330001831055

> <r_mmod_Electrostatic_Energy-OPLS-2005>
-325.171936035156

> <r_mmod_Solvation_Energy-OPLS-2005>
-202.593185424805

> <b_mmod_Minimization_Converged-OPLS-2005>
0

> <r_mmod_RMS_Derivative-OPLS-2005>
2.22905158996582

$$$$
86
                    3D
 Structure written by MMmdl.
157166  0  0  1  0            999 V2000
  -30.5815  -14.8798   20.3965 C   0  0  0  0  0  0
  -30.4497  -12.5332   19.4887 C   0  0  0  0  0  0
  -29.5269  -12.4663   18.2503 C   0  0  0  0  0  0
  -28.0504  -12.3000   18.6650 C   0  0  0  0  0  0
  -27.6331  -13.2236   19.8412 C   0  0  2  0  0  0
  -28.6850  -13.2582   20.9707 C   0  0  0  0  0  0
  -25.2514  -13.8153   20.5728 C   0  0  0  0  0  0
  -24.1793  -13.0427   20.9218 C   0  0  0  0  0  0
  -24.6373  -11.6895   20.8762 C   0  0  0  0  0  0
  -23.9051  -10.4287   21.0424 C   0  0  0  0  0  0
  -24.3609   -9.4207   21.9204 C   0  0  0  0  0  0
  -23.6286   -8.2241   22.0775 C   0  0  0  0  0  0
  -22.4280   -8.0280   21.3556 C   0  0  0  0  0  0
  -21.9908   -9.0246   20.4663 C   0  0  0  0  0  0
  -22.7225  -10.2133   20.3078 C   0  0  0  0  0  0
  -21.6866   -6.0738   22.5284 C   0  0  0  0  0  0
  -21.4018   -6.5637   23.8218 C   0  0  0  0  0  0
  -21.3656   -5.6797   24.9178 C   0  0  0  0  0  0
  -21.6047   -4.3056   24.7232 C   0  0  0  0  0  0
  -21.8826   -3.8155   23.4352 C   0  0  0  0  0  0
  -21.9194   -4.6963   22.3411 C   0  0  0  0  0  0
  -22.7822  -13.5235   21.1865 C   0  0  0  0  0  0
  -22.1663   -4.2161   21.0982 F   0  0  0  0  0  0
  -21.5622   -3.4526   25.7730 F   0  0  0  0  0  0
  -29.9619  -13.6377   20.3532 N   0  0  0  0  0  0
  -26.2922  -12.9329   20.3316 N   0  0  0  0  0  0
  -25.9311  -11.6492   20.5790 N   0  0  0  0  0  0
  -22.0437  -12.8259   22.0410 N   0  0  0  0  0  0
  -25.4243  -15.1882   20.4137 N   0  0  0  0  0  0
  -31.8101  -14.9207   20.2821 O   0  0  0  0  0  0
  -21.6652   -6.8873   21.4250 O   0  0  0  0  0  0
  -22.3521  -14.5543   20.6701 O   0  0  0  0  0  0
  -24.6402  -31.8484   23.1910 C   0  0  0  0  0  0
  -25.9193  -32.4728   23.8305 C   0  0  1  0  0  0
  -27.2380  -27.2022   20.1514 C   0  0  0  0  0  0
  -25.5955  -33.8534   24.2232 N   0  0  0  0  0  0
  -23.4436  -30.4634   21.5357 C   0  0  2  0  0  0
  -24.8982  -28.8972   20.1151 C   0  0  0  0  0  0
  -22.7566  -29.4549   22.4899 C   0  0  0  0  0  0
  -18.0302  -28.1394   22.8477 C   0  0  0  0  0  0
  -24.1483  -36.7262   23.2642 C   0  0  0  0  0  0
  -25.9941  -30.7432   21.3804 C   0  0  0  0  0  0
  -26.0724  -29.3577   20.7277 C   0  0  0  0  0  0
  -27.2487  -28.5264   20.7278 C   0  0  0  0  0  0
  -26.0439  -26.8260   19.5040 C   0  0  0  0  0  0
  -24.8939  -27.6427   19.4851 C   0  0  0  0  0  0
  -23.6682  -29.7859   20.1571 C   0  0  0  0  0  0
  -25.4115  -36.3052   24.0320 C   0  0  1  0  0  0
  -20.5908  -28.3710   23.1249 C   0  0  2  0  0  0
  -20.6789  -26.9420   22.5398 C   0  0  0  0  0  0
  -19.5758  -26.6379   21.5212 C   0  0  0  0  0  0
  -18.1938  -26.7939   22.1619 C   0  0  0  0  0  0
  -19.1557  -28.8876   23.2849 C   0  0  0  0  0  0
  -18.9471  -30.1476   23.8864 C   0  0  0  0  0  0
  -17.6463  -30.6585   24.0552 C   0  0  0  0  0  0
  -25.9058  -34.9426   23.5078 C   0  0  0  0  0  0
  -16.5358  -29.9067   23.6336 C   0  0  0  0  0  0
  -16.7289  -28.6489   23.0354 C   0  0  0  0  0  0
  -26.4533  -31.6571   25.0724 C   0  0  0  0  0  0
  -25.3730  -31.3736   26.1427 C   0  0  0  0  0  0
  -27.0406  -30.2984   24.6255 C   0  0  0  0  0  0
  -27.6062  -32.4335   25.7511 C   0  0  0  0  0  0
  -27.5570  -37.1794   24.8471 C   0  0  0  0  0  0
  -21.4262  -29.3051   22.3647 N   0  0  0  0  0  0
  -26.4283  -37.3754   23.9405 N   0  0  0  0  0  0
  -24.7116  -31.0376   22.0920 N   0  0  0  0  0  0
  -23.4222  -28.8103   23.3044 O   0  0  0  0  0  0
  -28.2949  -26.2416   20.1651 O   0  0  0  0  0  0
  -26.5622  -34.8913   22.4644 O   0  0  0  0  0  0
  -23.5526  -32.1333   23.7159 O   0  0  0  0  0  0
  -28.1369  -21.0646   19.6864 C   0  0  0  0  0  0
  -29.8156  -21.3151   21.3346 C   0  0  0  0  0  0
  -27.9112  -22.4953   19.6829 C   0  0  0  0  0  0
  -29.5853  -22.7483   21.3346 C   0  0  0  0  0  0
  -29.0715  -20.3862   20.5372 C   0  0  0  0  0  0
  -28.5909  -23.4162   20.5402 C   0  0  0  0  0  0
  -28.8200  -18.2661   22.1392 C   0  0  0  0  0  0
  -30.2359  -17.6739   22.1947 C   0  0  0  0  0  0
  -29.0774  -18.7550   20.7010 C   0  0  2  0  0  0
  -30.2017  -17.5342   20.6684 C   0  0  2  0  0  0
  -29.1911  -16.2140   18.9413 C   0  0  0  0  0  0
  -28.0313  -24.9171   20.8739 C   0  0  0  0  0  0
  -29.8177  -16.0720   20.2658 N   0  0  0  0  0  0
  -31.4829  -12.6923   19.1757 H   0  0  0  0  0  0
  -30.4440  -11.5871   20.0341 H   0  0  0  0  0  0
  -29.8234  -11.6346   17.6093 H   0  0  0  0  0  0
  -29.6575  -13.3578   17.6394 H   0  0  0  0  0  0
  -27.9097  -11.2572   18.9509 H   0  0  0  0  0  0
  -27.4013  -12.4673   17.8057 H   0  0  0  0  0  0
  -27.5815  -14.2179   19.4142 H   0  0  0  0  0  0
  -28.7664  -12.2954   21.4777 H   0  0  0  0  0  0
  -28.4028  -13.9869   21.7325 H   0  0  0  0  0  0
  -25.2746   -9.5679   22.4798 H   0  0  0  0  0  0
  -23.9980   -7.4644   22.7509 H   0  0  0  0  0  0
  -21.0842   -8.8768   19.8978 H   0  0  0  0  0  0
  -22.3674  -10.9675   19.6200 H   0  0  0  0  0  0
  -21.2023   -7.6153   23.9709 H   0  0  0  0  0  0
  -21.1469   -6.0541   25.9076 H   0  0  0  0  0  0
  -22.0618   -2.7617   23.2865 H   0  0  0  0  0  0
  -22.3988  -11.9919   22.4852 H   0  0  0  0  0  0
  -21.1057  -13.1337   22.2558 H   0  0  0  0  0  0
  -24.6657  -15.8509   20.5338 H   0  0  0  0  0  0
  -26.2929  -15.6246   20.1350 H   0  0  0  0  0  0
  -26.7272  -32.5369   23.1050 H   0  0  0  0  0  0
  -25.0166  -33.9665   25.0426 H   0  0  0  0  0  0
  -22.7434  -31.2874   21.3783 H   0  0  0  0  0  0
  -23.3749  -35.9590   23.3317 H   0  0  0  0  0  0
  -24.3562  -36.8877   22.2052 H   0  0  0  0  0  0
  -23.7242  -37.6461   23.6666 H   0  0  0  0  0  0
  -26.1361  -31.4964   20.6040 H   0  0  0  0  0  0
  -26.8688  -30.8009   22.0155 H   0  0  0  0  0  0
  -28.1484  -28.8779   21.2132 H   0  0  0  0  0  0
  -25.9937  -25.8589   19.0228 H   0  0  0  0  0  0
  -24.0011  -27.2851   18.9895 H   0  0  0  0  0  0
  -23.7931  -30.5557   19.3945 H   0  0  0  0  0  0
  -22.7903  -29.2131   19.8543 H   0  0  0  0  0  0
  -25.1303  -36.1885   25.0812 H   0  0  0  0  0  0
  -20.9987  -28.3292   24.1373 H   0  0  0  0  0  0
  -20.5697  -26.2329   23.3619 H   0  0  0  0  0  0
  -21.6654  -26.7445   22.1184 H   0  0  0  0  0  0
  -19.6910  -25.6279   21.1271 H   0  0  0  0  0  0
  -19.6684  -27.3170   20.6735 H   0  0  0  0  0  0
  -17.4208  -26.6700   21.4013 H   0  0  0  0  0  0
  -18.0315  -26.0073   22.9013 H   0  0  0  0  0  0
  -19.7939  -30.7318   24.2209 H   0  0  0  0  0  0
  -17.5003  -31.6265   24.5156 H   0  0  0  0  0  0
  -15.5353  -30.2956   23.7674 H   0  0  0  0  0  0
  -15.8695  -28.0806   22.7077 H   0  0  0  0  0  0
  -24.5902  -30.7100   25.7737 H   0  0  0  0  0  0
  -24.8939  -32.2915   26.4839 H   0  0  0  0  0  0
  -25.8030  -30.8909   27.0213 H   0  0  0  0  0  0
  -26.3022  -29.6705   24.1260 H   0  0  0  0  0  0
  -27.4051  -29.7279   25.4803 H   0  0  0  0  0  0
  -27.8908  -30.4251   23.9551 H   0  0  0  0  0  0
  -27.2648  -33.3644   26.2051 H   0  0  0  0  0  0
  -28.3893  -32.6886   25.0361 H   0  0  0  0  0  0
  -28.0706  -31.8493   26.5458 H   0  0  0  0  0  0
  -28.2591  -38.0086   24.7502 H   0  0  0  0  0  0
  -28.1060  -36.2612   24.6316 H   0  0  0  0  0  0
  -27.2285  -37.1470   25.8875 H   0  0  0  0  0  0
  -20.9485  -29.8776   21.6825 H   0  0  0  0  0  0
  -26.0155  -38.2826   24.1396 H   0  0  0  0  0  0
  -27.4999  -20.4606   19.0544 H   0  0  0  0  0  0
  -30.5390  -20.9170   22.0332 H   0  0  0  0  0  0
  -27.1157  -22.8779   19.0575 H   0  0  0  0  0  0
  -30.1445  -23.3393   22.0454 H   0  0  0  0  0  0
  -28.6419  -19.0516   22.8744 H   0  0  0  0  0  0
  -28.0497  -17.4948   22.1940 H   0  0  0  0  0  0
  -30.3150  -16.7431   22.7585 H   0  0  0  0  0  0
  -30.9761  -18.4023   22.5315 H   0  0  0  0  0  0
  -28.2353  -18.4375   20.0879 H   0  0  0  0  0  0
  -31.1385  -17.8572   20.2115 H   0  0  0  0  0  0
  -28.1144  -16.3461   19.0345 H   0  0  0  0  0  0
  -29.3641  -15.3697   18.2794 H   0  0  0  0  0  0
  -29.5824  -17.0767   18.3964 H   0  0  0  0  0  0
  -28.3673  -25.1088   21.8936 H   0  0  0  0  0  0
  -26.9539  -24.7964   20.9811 H   0  0  0  0  0  0
  1 25  1  0  0  0
  1 30  2  0  0  0
  1 83  1  0  0  0
  2  3  1  0  0  0
  2 25  1  0  0  0
  2 84  1  0  0  0
  2 85  1  0  0  0
  3  4  1  0  0  0
  3 86  1  0  0  0
  3 87  1  0  0  0
  4  5  1  0  0  0
  4 88  1  0  0  0
  4 89  1  0  0  0
  5  6  1  0  0  0
  5 26  1  0  0  0
  5 90  1  0  0  0
  6 25  1  0  0  0
  6 91  1  0  0  0
  6 92  1  0  0  0
  7  8  2  0  0  0
  7 26  1  0  0  0
  7 29  1  0  0  0
  8  9  1  0  0  0
  8 22  1  0  0  0
  9 10  1  0  0  0
  9 27  2  0  0  0
 10 11  2  0  0  0
 10 15  1  0  0  0
 11 12  1  0  0  0
 11 93  1  0  0  0
 12 13  2  0  0  0
 12 94  1  0  0  0
 13 14  1  0  0  0
 13 31  1  0  0  0
 14 15  2  0  0  0
 14 95  1  0  0  0
 15 96  1  0  0  0
 16 17  2  0  0  0
 16 21  1  0  0  0
 16 31  1  0  0  0
 17 18  1  0  0  0
 17 97  1  0  0  0
 18 19  2  0  0  0
 18 98  1  0  0  0
 19 20  1  0  0  0
 19 24  1  0  0  0
 20 21  2  0  0  0
 20 99  1  0  0  0
 21 23  1  0  0  0
 22 28  1  0  0  0
 22 32  2  0  0  0
 26 27  1  0  0  0
 28100  1  0  0  0
 28101  1  0  0  0
 29102  1  0  0  0
 29103  1  0  0  0
 33 34  1  0  0  0
 33 66  1  0  0  0
 33 70  2  0  0  0
 34 36  1  0  0  0
 34 59  1  0  0  0
 34104  1  0  0  0
 35 44  2  0  0  0
 35 45  1  0  0  0
 35 68  1  0  0  0
 36 56  1  0  0  0
 36105  1  0  0  0
 37 39  1  0  0  0
 37 47  1  0  0  0
 37 66  1  0  0  0
 37106  1  0  0  0
 38 43  2  0  0  0
 38 46  1  0  0  0
 38 47  1  0  0  0
 39 64  1  0  0  0
 39 67  2  0  0  0
 40 52  1  0  0  0
 40 53  2  0  0  0
 40 58  1  0  0  0
 41107  1  0  0  0
 41108  1  0  0  0
 41109  1  0  0  0
 41 48  1  0  0  0
 42 43  1  0  0  0
 42 66  1  0  0  0
 42110  1  0  0  0
 42111  1  0  0  0
 43 44  1  0  0  0
 44112  1  0  0  0
 45 46  2  0  0  0
 45113  1  0  0  0
 46114  1  0  0  0
 47115  1  0  0  0
 47116  1  0  0  0
 48 56  1  0  0  0
 48 65  1  0  0  0
 48117  1  0  0  0
 49 50  1  0  0  0
 49 53  1  0  0  0
 49 64  1  0  0  0
 49118  1  0  0  0
 50 51  1  0  0  0
 50119  1  0  0  0
 50120  1  0  0  0
 51 52  1  0  0  0
 51121  1  0  0  0
 51122  1  0  0  0
 52123  1  0  0  0
 52124  1  0  0  0
 53 54  1  0  0  0
 54 55  2  0  0  0
 54125  1  0  0  0
 55 57  1  0  0  0
 55126  1  0  0  0
 56 69  2  0  0  0
 57 58  2  0  0  0
 57127  1  0  0  0
 58128  1  0  0  0
 59 60  1  0  0  0
 59 61  1  0  0  0
 59 62  1  0  0  0
 60129  1  0  0  0
 60130  1  0  0  0
 60131  1  0  0  0
 61132  1  0  0  0
 61133  1  0  0  0
 61134  1  0  0  0
 62135  1  0  0  0
 62136  1  0  0  0
 62137  1  0  0  0
 63 65  1  0  0  0
 63138  1  0  0  0
 63139  1  0  0  0
 63140  1  0  0  0
 64141  1  0  0  0
 65142  1  0  0  0
 68 82  1  0  0  0
 71 73  2  0  0  0
 71 75  1  0  0  0
 71143  1  0  0  0
 72 74  1  0  0  0
 72 75  2  0  0  0
 72144  1  0  0  0
 73 76  1  0  0  0
 73145  1  0  0  0
 74 76  2  0  0  0
 74146  1  0  0  0
 75 79  1  0  0  0
 76 82  1  0  0  0
 77 78  1  0  0  0
 77 79  1  0  0  0
 77147  1  0  0  0
 77148  1  0  0  0
 78 80  1  0  0  0
 78149  1  0  0  0
 78150  1  0  0  0
 79 80  1  0  0  0
 79151  1  0  0  0
 80 83  1  0  0  0
 80152  1  0  0  0
 81 83  1  0  0  0
 81153  1  0  0  0
 81154  1  0  0  0
 81155  1  0  0  0
 82156  1  0  0  0
 82157  1  0  0  0
M  ISO  4   1 100  68 101  82 101  83 100
M  END
> <chiral flag>
0

> <version>
0

> <s_m_source_file>
/data/baiqing/PycharmProjects/Reinvent-master-3.2/result/LINK_invent/BTK/process_docking_weight1_custom_product_contain_oxygen_bond_distance_aromatic_linkinvent_7_9_3/rearranged_h_0017.sdf

> <i_m_source_file_index>
86

> <r_mmod_Potential_Energy-OPLS-2005>
629.243530273438

> <r_mmod_Stretch_Energy-OPLS-2005>
186.442718505859

> <r_mmod_Bend_Energy-OPLS-2005>
240.727035522461

> <r_mmod_Torsional_Energy-OPLS-2005>
380.267639160156

> <r_mmod_Improper_Torsional_Energy-OPLS-2005>
15.5678472518921

> <r_mmod_Van_der_Waal_Energy-OPLS-2005>
135.044342041016

> <r_mmod_Electrostatic_Energy-OPLS-2005>
-288.942169189453

> <r_mmod_Solvation_Energy-OPLS-2005>
-190.413146972656

> <b_mmod_Minimization_Converged-OPLS-2005>
0

> <r_mmod_RMS_Derivative-OPLS-2005>
2.61545729637146

$$$$
87
                    3D
 Structure written by MMmdl.
159167  0  0  1  0            999 V2000
  -30.6556  -14.4952   20.5859 C   0  0  0  0  0  0
  -30.4366  -12.3229   19.4144 C   0  0  0  0  0  0
  -29.5007  -12.5079   18.1990 C   0  0  0  0  0  0
  -28.0224  -12.3498   18.6109 C   0  0  0  0  0  0
  -27.6627  -13.1910   19.8669 C   0  0  2  0  0  0
  -28.7023  -12.9538   20.9856 C   0  0  0  0  0  0
  -25.2604  -13.8125   20.5634 C   0  0  0  0  0  0
  -24.1847  -13.0399   20.9144 C   0  0  0  0  0  0
  -24.6385  -11.6879   20.8688 C   0  0  0  0  0  0
  -23.9048  -10.4271   21.0387 C   0  0  0  0  0  0
  -24.3613   -9.4193   21.9165 C   0  0  0  0  0  0
  -23.6283   -8.2241   22.0746 C   0  0  0  0  0  0
  -22.4263   -8.0275   21.3541 C   0  0  0  0  0  0
  -21.9900   -9.0245   20.4644 C   0  0  0  0  0  0
  -22.7222  -10.2118   20.3037 C   0  0  0  0  0  0
  -21.6843   -6.0732   22.5279 C   0  0  0  0  0  0
  -21.4006   -6.5635   23.8208 C   0  0  0  0  0  0
  -21.3669   -5.6779   24.9174 C   0  0  0  0  0  0
  -21.6048   -4.3047   24.7207 C   0  0  0  0  0  0
  -21.8823   -3.8143   23.4331 C   0  0  0  0  0  0
  -21.9196   -4.6969   22.3388 C   0  0  0  0  0  0
  -22.7883  -13.5238   21.1810 C   0  0  0  0  0  0
  -22.1658   -4.2163   21.0962 F   0  0  0  0  0  0
  -21.5640   -3.4519   25.7721 F   0  0  0  0  0  0
  -30.0336  -13.2893   20.4513 N   0  0  0  0  0  0
  -26.3016  -12.9260   20.3299 N   0  0  0  0  0  0
  -25.9297  -11.6419   20.5673 N   0  0  0  0  0  0
  -22.0527  -12.8233   22.0391 N   0  0  0  0  0  0
  -25.4247  -15.1840   20.4100 N   0  0  0  0  0  0
  -31.7493  -14.7482   20.0695 O   0  0  0  0  0  0
  -21.6617   -6.8882   21.4243 O   0  0  0  0  0  0
  -22.3577  -14.5545   20.6676 O   0  0  0  0  0  0
  -24.6203  -31.8661   23.2001 C   0  0  0  0  0  0
  -25.9054  -32.4805   23.8334 C   0  0  1  0  0  0
  -27.2315  -27.4237   20.0916 C   0  0  0  0  0  0
  -25.5877  -33.8590   24.2273 N   0  0  0  0  0  0
  -23.4033  -30.4937   21.5438 C   0  0  2  0  0  0
  -24.8501  -28.9454   20.1151 C   0  0  0  0  0  0
  -22.7401  -29.4767   22.5022 C   0  0  0  0  0  0
  -18.0302  -28.1430   22.8506 C   0  0  0  0  0  0
  -24.1499  -36.7327   23.2648 C   0  0  0  0  0  0
  -25.9311  -30.8287   21.3458 C   0  0  0  0  0  0
  -26.0121  -29.4585   20.7060 C   0  0  0  0  0  0
  -27.2097  -28.7032   20.6978 C   0  0  0  0  0  0
  -26.0578  -26.9271   19.4889 C   0  0  0  0  0  0
  -24.8682  -27.6778   19.5079 C   0  0  0  0  0  0
  -23.6050  -29.8047   20.1681 C   0  0  0  0  0  0
  -25.4114  -36.3127   24.0358 C   0  0  1  0  0  0
  -20.5884  -28.3746   23.1277 C   0  0  2  0  0  0
  -20.6891  -26.9524   22.5244 C   0  0  0  0  0  0
  -19.5746  -26.6403   21.5182 C   0  0  0  0  0  0
  -18.1933  -26.7975   22.1616 C   0  0  0  0  0  0
  -19.1553  -28.8898   23.2909 C   0  0  0  0  0  0
  -18.9518  -30.1507   23.8938 C   0  0  0  0  0  0
  -17.6534  -30.6680   24.0532 C   0  0  0  0  0  0
  -25.9030  -34.9481   23.5120 C   0  0  0  0  0  0
  -16.5420  -29.9179   23.6315 C   0  0  0  0  0  0
  -16.7312  -28.6560   23.0394 C   0  0  0  0  0  0
  -26.4420  -31.6598   25.0688 C   0  0  0  0  0  0
  -25.3637  -31.3720   26.1411 C   0  0  0  0  0  0
  -27.0252  -30.3077   24.5996 C   0  0  0  0  0  0
  -27.6024  -32.4298   25.7428 C   0  0  0  0  0  0
  -27.5587  -37.1820   24.8475 C   0  0  0  0  0  0
  -21.4126  -29.3226   22.3802 N   0  0  0  0  0  0
  -26.4309  -37.3812   23.9411 N   0  0  0  0  0  0
  -24.6723  -31.0756   22.0897 N   0  0  0  0  0  0
  -23.4163  -28.8288   23.3070 O   0  0  0  0  0  0
  -28.3468  -26.6171   20.1247 O   0  0  0  0  0  0
  -26.5627  -34.8940   22.4695 O   0  0  0  0  0  0
  -23.5403  -32.1461   23.7366 O   0  0  0  0  0  0
  -28.4721  -18.4510   19.6556 C   0  0  0  0  0  0
  -28.8768  -17.1147   19.8740 C   0  0  0  0  0  0
  -30.2377  -17.8344   21.7499 C   0  0  0  0  0  0
  -28.9330  -19.4976   20.4884 C   0  0  0  0  0  0
  -29.7424  -16.7838   20.9412 C   0  0  0  0  0  0
  -29.8564  -19.1768   21.5112 C   0  0  0  0  0  0
  -27.1897  -20.9682   22.4519 C   0  0  0  0  0  0
  -28.4219  -20.9395   20.2771 C   0  0  0  0  0  0
  -28.5444  -24.1286   20.6593 C   0  0  0  0  0  0
  -27.5893  -23.0961   21.3304 C   0  0  0  0  0  0
  -28.2311  -25.5820   21.1215 C   0  0  0  0  0  0
  -29.9595  -15.4130   21.2894 N   0  0  0  0  0  0
  -28.0971  -21.6982   21.5254 N   0  3  1  0  0  0
  -30.3304  -20.1649   22.3076 F   0  0  0  0  0  0
  -31.4786  -12.4532   19.1138 H   0  0  0  0  0  0
  -30.3631  -11.3037   19.8002 H   0  0  0  0  0  0
  -29.7510  -11.7828   17.4230 H   0  0  0  0  0  0
  -29.6553  -13.4930   17.7576 H   0  0  0  0  0  0
  -27.8524  -11.2908   18.8109 H   0  0  0  0  0  0
  -27.3679  -12.6091   17.7774 H   0  0  0  0  0  0
  -27.7049  -14.2376   19.5685 H   0  0  0  0  0  0
  -28.6905  -11.9059   21.2872 H   0  0  0  0  0  0
  -28.4439  -13.5101   21.8862 H   0  0  0  0  0  0
  -25.2777   -9.5659   22.4712 H   0  0  0  0  0  0
  -24.0000   -7.4629   22.7463 H   0  0  0  0  0  0
  -21.0835   -8.8751   19.8948 H   0  0  0  0  0  0
  -22.3694  -10.9649   19.6125 H   0  0  0  0  0  0
  -21.1968   -7.6134   23.9716 H   0  0  0  0  0  0
  -21.1500   -6.0499   25.9078 H   0  0  0  0  0  0
  -22.0597   -2.7611   23.2802 H   0  0  0  0  0  0
  -22.4135  -11.9912   22.4810 H   0  0  0  0  0  0
  -21.1124  -13.1260   22.2559 H   0  0  0  0  0  0
  -24.6422  -15.8159   20.5301 H   0  0  0  0  0  0
  -26.2721  -15.6576   20.1307 H   0  0  0  0  0  0
  -26.7125  -32.5566   23.1111 H   0  0  0  0  0  0
  -24.9980  -33.9719   25.0384 H   0  0  0  0  0  0
  -22.6977  -31.3129   21.3946 H   0  0  0  0  0  0
  -23.3748  -35.9673   23.3327 H   0  0  0  0  0  0
  -24.3609  -36.8910   22.2062 H   0  0  0  0  0  0
  -23.7227  -37.6537   23.6622 H   0  0  0  0  0  0
  -26.0198  -31.5718   20.5544 H   0  0  0  0  0  0
  -26.8262  -30.9052   21.9485 H   0  0  0  0  0  0
  -28.1007  -29.0897   21.1736 H   0  0  0  0  0  0
  -26.0628  -25.9485   19.0281 H   0  0  0  0  0  0
  -23.9753  -27.2683   19.0580 H   0  0  0  0  0  0
  -23.6952  -30.5603   19.3892 H   0  0  0  0  0  0
  -22.7287  -29.2128   19.8959 H   0  0  0  0  0  0
  -25.1271  -36.2016   25.0858 H   0  0  0  0  0  0
  -20.9955  -28.3229   24.1389 H   0  0  0  0  0  0
  -20.6035  -26.2302   23.3349 H   0  0  0  0  0  0
  -21.6752  -26.7738   22.0930 H   0  0  0  0  0  0
  -19.6857  -25.6300   21.1280 H   0  0  0  0  0  0
  -19.6579  -27.3091   20.6632 H   0  0  0  0  0  0
  -17.4295  -26.6837   21.3908 H   0  0  0  0  0  0
  -18.0164  -26.0041   22.8888 H   0  0  0  0  0  0
  -19.8023  -30.7304   24.2324 H   0  0  0  0  0  0
  -17.5170  -31.6380   24.5118 H   0  0  0  0  0  0
  -15.5418  -30.3050   23.7635 H   0  0  0  0  0  0
  -15.8694  -28.0879   22.7166 H   0  0  0  0  0  0
  -24.5814  -30.7067   25.7698 H   0  0  0  0  0  0
  -24.8822  -32.2906   26.4819 H   0  0  0  0  0  0
  -25.7955  -30.8900   27.0194 H   0  0  0  0  0  0
  -26.2795  -29.6868   24.1018 H   0  0  0  0  0  0
  -27.4060  -29.7267   25.4395 H   0  0  0  0  0  0
  -27.8585  -30.4468   23.9096 H   0  0  0  0  0  0
  -27.2654  -33.3584   26.2037 H   0  0  0  0  0  0
  -28.3778  -32.6871   25.0192 H   0  0  0  0  0  0
  -28.0725  -31.8398   26.5309 H   0  0  0  0  0  0
  -28.2636  -38.0096   24.7504 H   0  0  0  0  0  0
  -28.1057  -36.2625   24.6313 H   0  0  0  0  0  0
  -27.2313  -37.1467   25.8887 H   0  0  0  0  0  0
  -20.9282  -29.9173   21.7237 H   0  0  0  0  0  0
  -26.0216  -38.2914   24.1351 H   0  0  0  0  0  0
  -27.7820  -18.6598   18.8483 H   0  0  0  0  0  0
  -28.4784  -16.3442   19.2313 H   0  0  0  0  0  0
  -30.8876  -17.6240   22.5850 H   0  0  0  0  0  0
  -27.5668  -19.9896   22.7433 H   0  0  0  0  0  0
  -26.1974  -20.8283   22.0240 H   0  0  0  0  0  0
  -27.0657  -21.5269   23.3796 H   0  0  0  0  0  0
  -27.5296  -20.9081   19.6514 H   0  0  0  0  0  0
  -29.1721  -21.4824   19.7040 H   0  0  0  0  0  0
  -28.4596  -24.0525   19.5736 H   0  0  0  0  0  0
  -29.5801  -23.8951   20.9166 H   0  0  0  0  0  0
  -26.6411  -23.0789   20.7894 H   0  0  0  0  0  0
  -27.3530  -23.4756   22.3280 H   0  0  0  0  0  0
  -27.2374  -25.6002   21.5785 H   0  0  0  0  0  0
  -28.9112  -25.8437   21.9331 H   0  0  0  0  0  0
  -29.1884  -14.9899   21.7828 H   0  0  0  0  0  0
  -28.9789  -21.7551   22.0149 H   0  0  0  0  0  0
  1 25  1  0  0  0
  1 30  2  0  0  0
  1 82  1  0  0  0
  2  3  1  0  0  0
  2 25  1  0  0  0
  2 85  1  0  0  0
  2 86  1  0  0  0
  3  4  1  0  0  0
  3 87  1  0  0  0
  3 88  1  0  0  0
  4  5  1  0  0  0
  4 89  1  0  0  0
  4 90  1  0  0  0
  5  6  1  0  0  0
  5 26  1  0  0  0
  5 91  1  0  0  0
  6 25  1  0  0  0
  6 92  1  0  0  0
  6 93  1  0  0  0
  7  8  2  0  0  0
  7 26  1  0  0  0
  7 29  1  0  0  0
  8  9  1  0  0  0
  8 22  1  0  0  0
  9 10  1  0  0  0
  9 27  2  0  0  0
 10 11  2  0  0  0
 10 15  1  0  0  0
 11 12  1  0  0  0
 11 94  1  0  0  0
 12 13  2  0  0  0
 12 95  1  0  0  0
 13 14  1  0  0  0
 13 31  1  0  0  0
 14 15  2  0  0  0
 14 96  1  0  0  0
 15 97  1  0  0  0
 16 17  2  0  0  0
 16 21  1  0  0  0
 16 31  1  0  0  0
 17 18  1  0  0  0
 17 98  1  0  0  0
 18 19  2  0  0  0
 18 99  1  0  0  0
 19 20  1  0  0  0
 19 24  1  0  0  0
 20 21  2  0  0  0
 20100  1  0  0  0
 21 23  1  0  0  0
 22 28  1  0  0  0
 22 32  2  0  0  0
 26 27  1  0  0  0
 28101  1  0  0  0
 28102  1  0  0  0
 29103  1  0  0  0
 29104  1  0  0  0
 33 34  1  0  0  0
 33 66  1  0  0  0
 33 70  2  0  0  0
 34 36  1  0  0  0
 34 59  1  0  0  0
 34105  1  0  0  0
 35 44  2  0  0  0
 35 45  1  0  0  0
 35 68  1  0  0  0
 36 56  1  0  0  0
 36106  1  0  0  0
 37 39  1  0  0  0
 37 47  1  0  0  0
 37 66  1  0  0  0
 37107  1  0  0  0
 38 43  2  0  0  0
 38 46  1  0  0  0
 38 47  1  0  0  0
 39 64  1  0  0  0
 39 67  2  0  0  0
 40 52  1  0  0  0
 40 53  2  0  0  0
 40 58  1  0  0  0
 41108  1  0  0  0
 41109  1  0  0  0
 41110  1  0  0  0
 41 48  1  0  0  0
 42 43  1  0  0  0
 42 66  1  0  0  0
 42111  1  0  0  0
 42112  1  0  0  0
 43 44  1  0  0  0
 44113  1  0  0  0
 45 46  2  0  0  0
 45114  1  0  0  0
 46115  1  0  0  0
 47116  1  0  0  0
 47117  1  0  0  0
 48 56  1  0  0  0
 48 65  1  0  0  0
 48118  1  0  0  0
 49 50  1  0  0  0
 49 53  1  0  0  0
 49 64  1  0  0  0
 49119  1  0  0  0
 50 51  1  0  0  0
 50120  1  0  0  0
 50121  1  0  0  0
 51 52  1  0  0  0
 51122  1  0  0  0
 51123  1  0  0  0
 52124  1  0  0  0
 52125  1  0  0  0
 53 54  1  0  0  0
 54 55  2  0  0  0
 54126  1  0  0  0
 55 57  1  0  0  0
 55127  1  0  0  0
 56 69  2  0  0  0
 57 58  2  0  0  0
 57128  1  0  0  0
 58129  1  0  0  0
 59 60  1  0  0  0
 59 61  1  0  0  0
 59 62  1  0  0  0
 60130  1  0  0  0
 60131  1  0  0  0
 60132  1  0  0  0
 61133  1  0  0  0
 61134  1  0  0  0
 61135  1  0  0  0
 62136  1  0  0  0
 62137  1  0  0  0
 62138  1  0  0  0
 63 65  1  0  0  0
 63139  1  0  0  0
 63140  1  0  0  0
 63141  1  0  0  0
 64142  1  0  0  0
 65143  1  0  0  0
 68 81  1  0  0  0
 71 72  2  0  0  0
 71 74  1  0  0  0
 71144  1  0  0  0
 72 75  1  0  0  0
 72145  1  0  0  0
 73 75  2  0  0  0
 73 76  1  0  0  0
 73146  1  0  0  0
 74 76  2  0  0  0
 74 78  1  0  0  0
 75 82  1  0  0  0
 76 84  1  0  0  0
 77147  1  0  0  0
 77148  1  0  0  0
 77149  1  0  0  0
 77 83  1  0  0  0
 78 83  1  0  0  0
 78150  1  0  0  0
 78151  1  0  0  0
 79 80  1  0  0  0
 79 81  1  0  0  0
 79152  1  0  0  0
 79153  1  0  0  0
 80 83  1  0  0  0
 80154  1  0  0  0
 80155  1  0  0  0
 81156  1  0  0  0
 81157  1  0  0  0
 82158  1  0  0  0
 83159  1  0  0  0
M  CHG  1  83   1
M  ISO  4   1 100  68 101  81 101  82 100
M  END
> <chiral flag>
0

> <version>
0

> <s_m_source_file>
/data/baiqing/PycharmProjects/Reinvent-master-3.2/result/LINK_invent/BTK/process_docking_weight1_custom_product_contain_oxygen_bond_distance_aromatic_linkinvent_7_9_3/rearranged_h_0017.sdf

> <i_m_source_file_index>
87

> <r_mmod_Potential_Energy-OPLS-2005>
-123.312965393066

> <r_mmod_Stretch_Energy-OPLS-2005>
41.7686157226562

> <r_mmod_Bend_Energy-OPLS-2005>
103.873176574707

> <r_mmod_Torsional_Energy-OPLS-2005>
282.567504882812

> <r_mmod_Improper_Torsional_Energy-OPLS-2005>
5.60172033309937

> <r_mmod_Van_der_Waal_Energy-OPLS-2005>
149.639495849609

> <r_mmod_Electrostatic_Energy-OPLS-2005>
-279.183563232422

> <r_mmod_Solvation_Energy-OPLS-2005>
-444.560119628906

> <b_mmod_Minimization_Converged-OPLS-2005>
0

> <r_mmod_RMS_Derivative-OPLS-2005>
5.4221625328064

$$$$
88
                    3D
 Structure written by MMmdl.
154162  0  0  1  0            999 V2000
  -30.6760  -14.4450   20.5964 C   0  0  0  0  0  0
  -30.4205  -12.3028   19.4144 C   0  0  0  0  0  0
  -29.4958  -12.5464   18.2049 C   0  0  0  0  0  0
  -28.0183  -12.3814   18.6156 C   0  0  0  0  0  0
  -27.6637  -13.2017   19.8852 C   0  0  2  0  0  0
  -28.6984  -12.9411   21.0003 C   0  0  0  0  0  0
  -25.2580  -13.8151   20.5674 C   0  0  0  0  0  0
  -24.1810  -13.0429   20.9116 C   0  0  0  0  0  0
  -24.6358  -11.6900   20.8683 C   0  0  0  0  0  0
  -23.9037  -10.4294   21.0372 C   0  0  0  0  0  0
  -24.3582   -9.4220   21.9158 C   0  0  0  0  0  0
  -23.6250   -8.2259   22.0763 C   0  0  0  0  0  0
  -22.4231   -8.0286   21.3567 C   0  0  0  0  0  0
  -21.9847   -9.0262   20.4678 C   0  0  0  0  0  0
  -22.7189  -10.2130   20.3047 C   0  0  0  0  0  0
  -21.6864   -6.0705   22.5272 C   0  0  0  0  0  0
  -21.4029   -6.5611   23.8201 C   0  0  0  0  0  0
  -21.3646   -5.6767   24.9161 C   0  0  0  0  0  0
  -21.6037   -4.3027   24.7221 C   0  0  0  0  0  0
  -21.8819   -3.8124   23.4346 C   0  0  0  0  0  0
  -21.9196   -4.6939   22.3397 C   0  0  0  0  0  0
  -22.7840  -13.5247   21.1763 C   0  0  0  0  0  0
  -22.1667   -4.2136   21.0970 F   0  0  0  0  0  0
  -21.5615   -3.4520   25.7736 F   0  0  0  0  0  0
  -30.0356  -13.2550   20.4661 N   0  0  0  0  0  0
  -26.3008  -12.9308   20.3377 N   0  0  0  0  0  0
  -25.9286  -11.6474   20.5715 N   0  0  0  0  0  0
  -22.0448  -12.8305   22.0341 N   0  0  0  0  0  0
  -25.4384  -15.1869   20.4173 N   0  0  0  0  0  0
  -31.7763  -14.6776   20.0859 O   0  0  0  0  0  0
  -21.6650   -6.8847   21.4235 O   0  0  0  0  0  0
  -22.3542  -14.5553   20.6584 O   0  0  0  0  0  0
  -24.6126  -31.8700   23.2133 C   0  0  0  0  0  0
  -25.9049  -32.4840   23.8393 C   0  0  1  0  0  0
  -27.2151  -27.4349   20.0916 C   0  0  0  0  0  0
  -25.5929  -33.8639   24.2336 N   0  0  0  0  0  0
  -23.3980  -30.4961   21.5517 C   0  0  2  0  0  0
  -24.8447  -28.9659   20.1075 C   0  0  0  0  0  0
  -22.7387  -29.4685   22.4996 C   0  0  0  0  0  0
  -18.0245  -28.1405   22.8462 C   0  0  0  0  0  0
  -24.1474  -36.7295   23.2609 C   0  0  0  0  0  0
  -25.9267  -30.8351   21.3667 C   0  0  0  0  0  0
  -26.0048  -29.4704   20.7104 C   0  0  0  0  0  0
  -27.1975  -28.7109   20.7025 C   0  0  0  0  0  0
  -26.0463  -26.9477   19.4776 C   0  0  0  0  0  0
  -24.8598  -27.7039   19.4900 C   0  0  0  0  0  0
  -23.6071  -29.8343   20.1620 C   0  0  0  0  0  0
  -25.4097  -36.3132   24.0339 C   0  0  1  0  0  0
  -20.5851  -28.3684   23.1346 C   0  0  2  0  0  0
  -20.6749  -26.9419   22.5469 C   0  0  0  0  0  0
  -19.5760  -26.6404   21.5209 C   0  0  0  0  0  0
  -18.1912  -26.7947   22.1578 C   0  0  0  0  0  0
  -19.1507  -28.8844   23.2902 C   0  0  0  0  0  0
  -18.9447  -30.1434   23.8944 C   0  0  0  0  0  0
  -17.6464  -30.6604   24.0573 C   0  0  0  0  0  0
  -25.9034  -34.9501   23.5131 C   0  0  0  0  0  0
  -16.5347  -29.9111   23.6332 C   0  0  0  0  0  0
  -16.7242  -28.6536   23.0334 C   0  0  0  0  0  0
  -26.4475  -31.6600   25.0710 C   0  0  0  0  0  0
  -25.3758  -31.3801   26.1495 C   0  0  0  0  0  0
  -27.0193  -30.2989   24.6095 C   0  0  0  0  0  0
  -27.6097  -32.4258   25.7445 C   0  0  0  0  0  0
  -27.5609  -37.1778   24.8421 C   0  0  0  0  0  0
  -21.4125  -29.3060   22.3761 N   0  0  0  0  0  0
  -26.4276  -37.3829   23.9440 N   0  0  0  0  0  0
  -24.6634  -31.0799   22.1034 N   0  0  0  0  0  0
  -23.4162  -28.8211   23.3017 O   0  0  0  0  0  0
  -28.3390  -26.6427   20.1077 O   0  0  0  0  0  0
  -26.5576  -34.8945   22.4680 O   0  0  0  0  0  0
  -23.5342  -32.1477   23.7550 O   0  0  0  0  0  0
  -29.2126  -17.6268   21.8849 C   0  0  0  0  0  0
  -29.0585  -19.0077   21.6214 C   0  0  0  0  0  0
  -30.3290  -17.3405   19.7484 C   0  0  0  0  0  0
  -29.8661  -16.7779   20.9618 C   0  0  0  0  0  0
  -29.5488  -19.5743   20.4170 C   0  0  0  0  0  0
  -30.1737  -18.7155   19.4826 C   0  0  0  0  0  0
  -27.8042  -24.2683   20.8512 C   0  0  0  0  0  0
  -28.8766  -23.2393   20.4212 C   0  0  0  0  0  0
  -28.3381  -25.6920   21.1850 C   0  0  0  0  0  0
  -28.4580  -21.7569   20.5955 C   0  0  0  0  0  0
  -29.9804  -15.3868   21.2679 N   0  0  0  0  0  0
  -29.5122  -20.9259   20.1057 O   0  0  0  0  0  0
  -30.7590  -19.3364   17.9768 Cl  0  0  0  0  0  0
  -31.4700  -12.3955   19.1245 H   0  0  0  0  0  0
  -30.3033  -11.2833   19.7800 H   0  0  0  0  0  0
  -29.7425  -11.8660   17.3898 H   0  0  0  0  0  0
  -29.6590  -13.5543   17.8207 H   0  0  0  0  0  0
  -27.8413  -11.3206   18.8012 H   0  0  0  0  0  0
  -27.3626  -12.6683   17.7936 H   0  0  0  0  0  0
  -27.7197  -14.2565   19.6100 H   0  0  0  0  0  0
  -28.6677  -11.8937   21.3041 H   0  0  0  0  0  0
  -28.4491  -13.5022   21.9007 H   0  0  0  0  0  0
  -25.2723   -9.5715   22.4726 H   0  0  0  0  0  0
  -23.9981   -7.4651   22.7466 H   0  0  0  0  0  0
  -21.0782   -8.8789   19.8974 H   0  0  0  0  0  0
  -22.3654  -10.9662   19.6157 H   0  0  0  0  0  0
  -21.2055   -7.6123   23.9688 H   0  0  0  0  0  0
  -21.1445   -6.0503   25.9055 H   0  0  0  0  0  0
  -22.0611   -2.7581   23.2862 H   0  0  0  0  0  0
  -22.3999  -11.9977   22.4817 H   0  0  0  0  0  0
  -21.1075  -13.1408   22.2478 H   0  0  0  0  0  0
  -24.6839  -15.8573   20.5212 H   0  0  0  0  0  0
  -26.3188  -15.6231   20.1760 H   0  0  0  0  0  0
  -26.7119  -32.5546   23.1147 H   0  0  0  0  0  0
  -25.0152  -33.9826   25.0534 H   0  0  0  0  0  0
  -22.6817  -31.3102   21.4191 H   0  0  0  0  0  0
  -23.3818  -35.9541   23.3193 H   0  0  0  0  0  0
  -24.3598  -36.9000   22.2050 H   0  0  0  0  0  0
  -23.7123  -37.6423   23.6679 H   0  0  0  0  0  0
  -26.0394  -31.6065   20.6037 H   0  0  0  0  0  0
  -26.8134  -30.8868   21.9857 H   0  0  0  0  0  0
  -28.0939  -29.0910   21.1741 H   0  0  0  0  0  0
  -26.0497  -25.9818   18.9953 H   0  0  0  0  0  0
  -23.9688  -27.3095   19.0235 H   0  0  0  0  0  0
  -23.7179  -30.6124   19.4041 H   0  0  0  0  0  0
  -22.7275  -29.2589   19.8657 H   0  0  0  0  0  0
  -25.1266  -36.1981   25.0824 H   0  0  0  0  0  0
  -20.9927  -28.3255   24.1473 H   0  0  0  0  0  0
  -20.5598  -26.2289   23.3646 H   0  0  0  0  0  0
  -21.6634  -26.7433   22.1318 H   0  0  0  0  0  0
  -19.6924  -25.6310   21.1253 H   0  0  0  0  0  0
  -19.6731  -27.3196   20.6726 H   0  0  0  0  0  0
  -17.4214  -26.6721   21.3926 H   0  0  0  0  0  0
  -18.0242  -26.0071   22.8939 H   0  0  0  0  0  0
  -19.7938  -30.7192   24.2351 H   0  0  0  0  0  0
  -17.5047  -31.6283   24.5176 H   0  0  0  0  0  0
  -15.5361  -30.3041   23.7638 H   0  0  0  0  0  0
  -15.8623  -28.0853   22.7061 H   0  0  0  0  0  0
  -24.5954  -30.7069   25.7944 H   0  0  0  0  0  0
  -24.8942  -32.2998   26.4827 H   0  0  0  0  0  0
  -25.8150  -30.9114   27.0315 H   0  0  0  0  0  0
  -26.2686  -29.6834   24.1130 H   0  0  0  0  0  0
  -27.3878  -29.7154   25.4548 H   0  0  0  0  0  0
  -27.8601  -30.4214   23.9261 H   0  0  0  0  0  0
  -27.2787  -33.3583   26.2023 H   0  0  0  0  0  0
  -28.3920  -32.6744   25.0259 H   0  0  0  0  0  0
  -28.0744  -31.8360   26.5361 H   0  0  0  0  0  0
  -28.2584  -38.0128   24.7633 H   0  0  0  0  0  0
  -28.1165  -36.2702   24.6009 H   0  0  0  0  0  0
  -27.2377  -37.1185   25.8828 H   0  0  0  0  0  0
  -20.9261  -29.8796   21.7019 H   0  0  0  0  0  0
  -26.0173  -38.2881   24.1586 H   0  0  0  0  0  0
  -28.8313  -17.2336   22.8187 H   0  0  0  0  0  0
  -28.5830  -19.6097   22.3822 H   0  0  0  0  0  0
  -30.8072  -16.7327   18.9962 H   0  0  0  0  0  0
  -27.3255  -23.8875   21.7558 H   0  0  0  0  0  0
  -27.0104  -24.3106   20.1094 H   0  0  0  0  0  0
  -29.7749  -23.3887   21.0182 H   0  0  0  0  0  0
  -29.1609  -23.4321   19.3847 H   0  0  0  0  0  0
  -29.3507  -25.6228   21.5778 H   0  0  0  0  0  0
  -27.7484  -26.0949   22.0125 H   0  0  0  0  0  0
  -27.5528  -21.5432   20.0254 H   0  0  0  0  0  0
  -28.2338  -21.5737   21.6446 H   0  0  0  0  0  0
  -29.2567  -15.0163   21.8645 H   0  0  0  0  0  0
  1 25  1  0  0  0
  1 30  2  0  0  0
  1 81  1  0  0  0
  2  3  1  0  0  0
  2 25  1  0  0  0
  2 84  1  0  0  0
  2 85  1  0  0  0
  3  4  1  0  0  0
  3 86  1  0  0  0
  3 87  1  0  0  0
  4  5  1  0  0  0
  4 88  1  0  0  0
  4 89  1  0  0  0
  5  6  1  0  0  0
  5 26  1  0  0  0
  5 90  1  0  0  0
  6 25  1  0  0  0
  6 91  1  0  0  0
  6 92  1  0  0  0
  7  8  2  0  0  0
  7 26  1  0  0  0
  7 29  1  0  0  0
  8  9  1  0  0  0
  8 22  1  0  0  0
  9 10  1  0  0  0
  9 27  2  0  0  0
 10 11  2  0  0  0
 10 15  1  0  0  0
 11 12  1  0  0  0
 11 93  1  0  0  0
 12 13  2  0  0  0
 12 94  1  0  0  0
 13 14  1  0  0  0
 13 31  1  0  0  0
 14 15  2  0  0  0
 14 95  1  0  0  0
 15 96  1  0  0  0
 16 17  2  0  0  0
 16 21  1  0  0  0
 16 31  1  0  0  0
 17 18  1  0  0  0
 17 97  1  0  0  0
 18 19  2  0  0  0
 18 98  1  0  0  0
 19 20  1  0  0  0
 19 24  1  0  0  0
 20 21  2  0  0  0
 20 99  1  0  0  0
 21 23  1  0  0  0
 22 28  1  0  0  0
 22 32  2  0  0  0
 26 27  1  0  0  0
 28100  1  0  0  0
 28101  1  0  0  0
 29102  1  0  0  0
 29103  1  0  0  0
 33 34  1  0  0  0
 33 66  1  0  0  0
 33 70  2  0  0  0
 34 36  1  0  0  0
 34 59  1  0  0  0
 34104  1  0  0  0
 35 44  2  0  0  0
 35 45  1  0  0  0
 35 68  1  0  0  0
 36 56  1  0  0  0
 36105  1  0  0  0
 37 39  1  0  0  0
 37 47  1  0  0  0
 37 66  1  0  0  0
 37106  1  0  0  0
 38 43  2  0  0  0
 38 46  1  0  0  0
 38 47  1  0  0  0
 39 64  1  0  0  0
 39 67  2  0  0  0
 40 52  1  0  0  0
 40 53  2  0  0  0
 40 58  1  0  0  0
 41107  1  0  0  0
 41108  1  0  0  0
 41109  1  0  0  0
 41 48  1  0  0  0
 42 43  1  0  0  0
 42 66  1  0  0  0
 42110  1  0  0  0
 42111  1  0  0  0
 43 44  1  0  0  0
 44112  1  0  0  0
 45 46  2  0  0  0
 45113  1  0  0  0
 46114  1  0  0  0
 47115  1  0  0  0
 47116  1  0  0  0
 48 56  1  0  0  0
 48 65  1  0  0  0
 48117  1  0  0  0
 49 50  1  0  0  0
 49 53  1  0  0  0
 49 64  1  0  0  0
 49118  1  0  0  0
 50 51  1  0  0  0
 50119  1  0  0  0
 50120  1  0  0  0
 51 52  1  0  0  0
 51121  1  0  0  0
 51122  1  0  0  0
 52123  1  0  0  0
 52124  1  0  0  0
 53 54  1  0  0  0
 54 55  2  0  0  0
 54125  1  0  0  0
 55 57  1  0  0  0
 55126  1  0  0  0
 56 69  2  0  0  0
 57 58  2  0  0  0
 57127  1  0  0  0
 58128  1  0  0  0
 59 60  1  0  0  0
 59 61  1  0  0  0
 59 62  1  0  0  0
 60129  1  0  0  0
 60130  1  0  0  0
 60131  1  0  0  0
 61132  1  0  0  0
 61133  1  0  0  0
 61134  1  0  0  0
 62135  1  0  0  0
 62136  1  0  0  0
 62137  1  0  0  0
 63 65  1  0  0  0
 63138  1  0  0  0
 63139  1  0  0  0
 63140  1  0  0  0
 64141  1  0  0  0
 65142  1  0  0  0
 68 79  1  0  0  0
 71 72  2  0  0  0
 71 74  1  0  0  0
 71143  1  0  0  0
 72 75  1  0  0  0
 72144  1  0  0  0
 73 74  2  0  0  0
 73 76  1  0  0  0
 73145  1  0  0  0
 74 81  1  0  0  0
 75 76  2  0  0  0
 75 82  1  0  0  0
 76 83  1  0  0  0
 77 78  1  0  0  0
 77 79  1  0  0  0
 77146  1  0  0  0
 77147  1  0  0  0
 78 80  1  0  0  0
 78148  1  0  0  0
 78149  1  0  0  0
 79150  1  0  0  0
 79151  1  0  0  0
 80 82  1  0  0  0
 80152  1  0  0  0
 80153  1  0  0  0
 81154  1  0  0  0
M  ISO  4   1 100  68 101  79 101  81 100
M  END
> <chiral flag>
0

> <version>
0

> <s_m_source_file>
/data/baiqing/PycharmProjects/Reinvent-master-3.2/result/LINK_invent/BTK/process_docking_weight1_custom_product_contain_oxygen_bond_distance_aromatic_linkinvent_7_9_3/rearranged_h_0017.sdf

> <i_m_source_file_index>
88

> <r_mmod_Potential_Energy-OPLS-2005>
1.58047413825989

> <r_mmod_Stretch_Energy-OPLS-2005>
37.0162353515625

> <r_mmod_Bend_Energy-OPLS-2005>
103.89453125

> <r_mmod_Torsional_Energy-OPLS-2005>
257.165985107422

> <r_mmod_Improper_Torsional_Energy-OPLS-2005>
3.55432033538818

> <r_mmod_Van_der_Waal_Energy-OPLS-2005>
153.400390625

> <r_mmod_Electrostatic_Energy-OPLS-2005>
-354.548492431641

> <r_mmod_Solvation_Energy-OPLS-2005>
-211.634948730469

> <b_mmod_Minimization_Converged-OPLS-2005>
0

> <r_mmod_RMS_Derivative-OPLS-2005>
4.97159910202026

$$$$
89
                    3D
 Structure written by MMmdl.
162170  0  0  1  0            999 V2000
  -30.6383  -14.5819   20.6442 C   0  0  0  0  0  0
  -30.4393  -12.4022   19.4470 C   0  0  0  0  0  0
  -29.5055  -12.5289   18.2235 C   0  0  0  0  0  0
  -28.0283  -12.3466   18.6246 C   0  0  0  0  0  0
  -27.6532  -13.1922   19.8686 C   0  0  2  0  0  0
  -28.6835  -12.9885   20.9931 C   0  0  0  0  0  0
  -25.2544  -13.8027   20.5666 C   0  0  0  0  0  0
  -24.1801  -13.0338   20.9151 C   0  0  0  0  0  0
  -24.6338  -11.6799   20.8678 C   0  0  0  0  0  0
  -23.8950  -10.4223   21.0369 C   0  0  0  0  0  0
  -24.3509   -9.4168   21.9180 C   0  0  0  0  0  0
  -23.6225   -8.2178   22.0764 C   0  0  0  0  0  0
  -22.4217   -8.0194   21.3541 C   0  0  0  0  0  0
  -21.9826   -9.0141   20.4630 C   0  0  0  0  0  0
  -22.7107  -10.2048   20.3037 C   0  0  0  0  0  0
  -21.6819   -6.0665   22.5315 C   0  0  0  0  0  0
  -21.3999   -6.5600   23.8239 C   0  0  0  0  0  0
  -21.3700   -5.6796   24.9227 C   0  0  0  0  0  0
  -21.6056   -4.3047   24.7310 C   0  0  0  0  0  0
  -21.8776   -3.8112   23.4433 C   0  0  0  0  0  0
  -21.9153   -4.6896   22.3466 C   0  0  0  0  0  0
  -22.7824  -13.5135   21.1882 C   0  0  0  0  0  0
  -22.1577   -4.2052   21.1048 F   0  0  0  0  0  0
  -21.5703   -3.4574   25.7840 F   0  0  0  0  0  0
  -30.0046  -13.3743   20.4717 N   0  0  0  0  0  0
  -26.2951  -12.9176   20.3277 N   0  0  0  0  0  0
  -25.9262  -11.6351   20.5705 N   0  0  0  0  0  0
  -22.0506  -12.8144   22.0451 N   0  0  0  0  0  0
  -25.4295  -15.1749   20.4086 N   0  0  0  0  0  0
  -31.7084  -14.8213   20.0753 O   0  0  0  0  0  0
  -21.6596   -6.8799   21.4270 O   0  0  0  0  0  0
  -22.3514  -14.5472   20.6742 O   0  0  0  0  0  0
  -24.6285  -31.8549   23.2002 C   0  0  0  0  0  0
  -25.9168  -32.4715   23.8306 C   0  0  1  0  0  0
  -27.2085  -27.2734   20.1155 C   0  0  0  0  0  0
  -25.5977  -33.8515   24.2210 N   0  0  0  0  0  0
  -23.4139  -30.4838   21.5450 C   0  0  2  0  0  0
  -24.8574  -28.9270   20.1074 C   0  0  0  0  0  0
  -22.7454  -29.4639   22.4935 C   0  0  0  0  0  0
  -18.0273  -28.1386   22.8478 C   0  0  0  0  0  0
  -24.1492  -36.7269   23.2623 C   0  0  0  0  0  0
  -25.9579  -30.7704   21.3745 C   0  0  0  0  0  0
  -26.0274  -29.3930   20.7179 C   0  0  0  0  0  0
  -27.2017  -28.5744   20.7194 C   0  0  0  0  0  0
  -26.0141  -26.8772   19.4705 C   0  0  0  0  0  0
  -24.8506  -27.6725   19.4788 C   0  0  0  0  0  0
  -23.6255  -29.8154   20.1617 C   0  0  0  0  0  0
  -25.4116  -36.2997   24.0279 C   0  0  1  0  0  0
  -20.5866  -28.3686   23.1295 C   0  0  2  0  0  0
  -20.6784  -26.9430   22.5408 C   0  0  0  0  0  0
  -19.5768  -26.6391   21.5208 C   0  0  0  0  0  0
  -18.1933  -26.7921   22.1612 C   0  0  0  0  0  0
  -19.1524  -28.8858   23.2863 C   0  0  0  0  0  0
  -18.9464  -30.1457   23.8882 C   0  0  0  0  0  0
  -17.6475  -30.6606   24.0558 C   0  0  0  0  0  0
  -25.9069  -34.9386   23.5034 C   0  0  0  0  0  0
  -16.5358  -29.9108   23.6353 C   0  0  0  0  0  0
  -16.7259  -28.6518   23.0371 C   0  0  0  0  0  0
  -26.4538  -31.6522   25.0687 C   0  0  0  0  0  0
  -25.3805  -31.3688   26.1443 C   0  0  0  0  0  0
  -27.0391  -30.2930   24.6177 C   0  0  0  0  0  0
  -27.6018  -32.4287   25.7519 C   0  0  0  0  0  0
  -27.5547  -37.1791   24.8469 C   0  0  0  0  0  0
  -21.4176  -29.3031   22.3671 N   0  0  0  0  0  0
  -26.4264  -37.3731   23.9403 N   0  0  0  0  0  0
  -24.6839  -31.0548   22.0952 N   0  0  0  0  0  0
  -23.4163  -28.8203   23.3030 O   0  0  0  0  0  0
  -28.3113  -26.3958   20.1744 O   0  0  0  0  0  0
  -26.5634  -34.8887   22.4597 O   0  0  0  0  0  0
  -23.5460  -32.1352   23.7355 O   0  0  0  0  0  0
  -28.7010  -17.5248   22.0037 C   0  0  0  0  0  0
  -28.4451  -18.9138   21.9393 C   0  0  0  0  0  0
  -30.2550  -17.7427   20.2085 C   0  0  0  0  0  0
  -30.0070  -19.1607   20.1360 C   0  0  0  0  0  0
  -29.6694  -16.8925   21.1874 C   0  0  0  0  0  0
  -29.1181  -19.8238   21.0631 C   0  0  0  0  0  0
  -31.5471  -20.9449   19.3210 C   0  0  0  0  0  0
  -30.8059  -19.8478   19.1101 C   0  0  0  0  0  0
  -30.1236  -15.1841   22.9217 C   0  0  0  0  0  0
  -28.2933  -21.6428   22.5186 C   0  0  0  0  0  0
  -29.0789  -23.8181   20.4458 C   0  0  0  0  0  0
  -28.6892  -22.2794   20.1468 C   0  0  0  0  0  0
  -28.1089  -24.9445   19.8676 C   0  0  0  0  0  0
  -30.0499  -15.5021   21.4840 N   0  0  0  0  0  0
  -28.9153  -21.2639   21.2357 N   0  0  0  0  0  0
  -30.7732  -19.3466   17.8633 F   0  0  0  0  0  0
  -31.4776  -12.5624   19.1487 H   0  0  0  0  0  0
  -30.4162  -11.3932   19.8592 H   0  0  0  0  0  0
  -29.7889  -11.7935   17.4684 H   0  0  0  0  0  0
  -29.6336  -13.5114   17.7658 H   0  0  0  0  0  0
  -27.8686  -11.2879   18.8335 H   0  0  0  0  0  0
  -27.3710  -12.5840   17.7876 H   0  0  0  0  0  0
  -27.6903  -14.2384   19.5602 H   0  0  0  0  0  0
  -28.6973  -11.9395   21.2911 H   0  0  0  0  0  0
  -28.3867  -13.5337   21.8854 H   0  0  0  0  0  0
  -25.2651   -9.5696   22.4745 H   0  0  0  0  0  0
  -23.9926   -7.4609   22.7511 H   0  0  0  0  0  0
  -21.0754   -8.8579   19.8979 H   0  0  0  0  0  0
  -22.3495  -10.9545   19.6128 H   0  0  0  0  0  0
  -21.1929   -7.6111   23.9707 H   0  0  0  0  0  0
  -21.1598   -6.0566   25.9124 H   0  0  0  0  0  0
  -22.0515   -2.7563   23.2999 H   0  0  0  0  0  0
  -22.4116  -11.9754   22.4757 H   0  0  0  0  0  0
  -21.1176  -13.1218   22.2788 H   0  0  0  0  0  0
  -24.6775  -15.8373   20.5524 H   0  0  0  0  0  0
  -26.2835  -15.6064   20.0803 H   0  0  0  0  0  0
  -26.7214  -32.5355   23.1023 H   0  0  0  0  0  0
  -25.0180  -33.9657   25.0386 H   0  0  0  0  0  0
  -22.7034  -31.3018   21.4081 H   0  0  0  0  0  0
  -23.3701  -35.9663   23.3297 H   0  0  0  0  0  0
  -24.3571  -36.8908   22.2037 H   0  0  0  0  0  0
  -23.7331  -37.6496   23.6685 H   0  0  0  0  0  0
  -26.0925  -31.5312   20.6034 H   0  0  0  0  0  0
  -26.8373  -30.8185   22.0058 H   0  0  0  0  0  0
  -28.0916  -28.9177   21.2244 H   0  0  0  0  0  0
  -25.9438  -25.9251   18.9671 H   0  0  0  0  0  0
  -23.9482  -27.3127   19.0004 H   0  0  0  0  0  0
  -23.7344  -30.5921   19.4028 H   0  0  0  0  0  0
  -22.7391  -29.2505   19.8656 H   0  0  0  0  0  0
  -25.1303  -36.1774   25.0766 H   0  0  0  0  0  0
  -20.9919  -28.3273   24.1422 H   0  0  0  0  0  0
  -20.5743  -26.2294   23.3586 H   0  0  0  0  0  0
  -21.6651  -26.7521   22.1170 H   0  0  0  0  0  0
  -19.6957  -25.6307   21.1228 H   0  0  0  0  0  0
  -19.6713  -27.3201   20.6733 H   0  0  0  0  0  0
  -17.4208  -26.6632   21.4013 H   0  0  0  0  0  0
  -18.0371  -26.0076   22.9027 H   0  0  0  0  0  0
  -19.7958  -30.7257   24.2232 H   0  0  0  0  0  0
  -17.5063  -31.6294   24.5149 H   0  0  0  0  0  0
  -15.5371  -30.3022   23.7716 H   0  0  0  0  0  0
  -15.8631  -28.0841   22.7120 H   0  0  0  0  0  0
  -24.5964  -30.7020   25.7849 H   0  0  0  0  0  0
  -24.9044  -32.2878   26.4868 H   0  0  0  0  0  0
  -25.8187  -30.8909   27.0220 H   0  0  0  0  0  0
  -26.2968  -29.6644   24.1251 H   0  0  0  0  0  0
  -27.4116  -29.7209   25.4686 H   0  0  0  0  0  0
  -27.8815  -30.4158   23.9369 H   0  0  0  0  0  0
  -27.2530  -33.3569   26.2074 H   0  0  0  0  0  0
  -28.3907  -32.6892   25.0442 H   0  0  0  0  0  0
  -28.0625  -31.8457   26.5521 H   0  0  0  0  0  0
  -28.2555  -38.0091   24.7458 H   0  0  0  0  0  0
  -28.1042  -36.2603   24.6341 H   0  0  0  0  0  0
  -27.2268  -37.1487   25.8882 H   0  0  0  0  0  0
  -20.9332  -29.8703   21.6848 H   0  0  0  0  0  0
  -26.0079  -38.2769   24.1460 H   0  0  0  0  0  0
  -28.1619  -16.9575   22.7460 H   0  0  0  0  0  0
  -27.7095  -19.2575   22.6503 H   0  0  0  0  0  0
  -30.9906  -17.3292   19.5365 H   0  0  0  0  0  0
  -31.5941  -21.3899   20.3051 H   0  0  0  0  0  0
  -32.1075  -21.4073   18.5206 H   0  0  0  0  0  0
  -30.5098  -16.0405   23.4728 H   0  0  0  0  0  0
  -30.7792  -14.3417   23.1588 H   0  0  0  0  0  0
  -29.1391  -14.9658   23.3315 H   0  0  0  0  0  0
  -28.1573  -22.7137   22.6613 H   0  0  0  0  0  0
  -28.8918  -21.2921   23.3608 H   0  0  0  0  0  0
  -27.2849  -21.2354   22.6015 H   0  0  0  0  0  0
  -30.0863  -23.9790   20.0592 H   0  0  0  0  0  0
  -29.1813  -23.9992   21.5137 H   0  0  0  0  0  0
  -29.1866  -21.9717   19.2280 H   0  0  0  0  0  0
  -27.6276  -22.2296   19.9073 H   0  0  0  0  0  0
  -27.1280  -24.6352   20.2286 H   0  0  0  0  0  0
  -28.0910  -24.8321   18.7811 H   0  0  0  0  0  0
  1 25  1  0  0  0
  1 30  2  0  0  0
  1 84  1  0  0  0
  2  3  1  0  0  0
  2 25  1  0  0  0
  2 87  1  0  0  0
  2 88  1  0  0  0
  3  4  1  0  0  0
  3 89  1  0  0  0
  3 90  1  0  0  0
  4  5  1  0  0  0
  4 91  1  0  0  0
  4 92  1  0  0  0
  5  6  1  0  0  0
  5 26  1  0  0  0
  5 93  1  0  0  0
  6 25  1  0  0  0
  6 94  1  0  0  0
  6 95  1  0  0  0
  7  8  2  0  0  0
  7 26  1  0  0  0
  7 29  1  0  0  0
  8  9  1  0  0  0
  8 22  1  0  0  0
  9 10  1  0  0  0
  9 27  2  0  0  0
 10 11  2  0  0  0
 10 15  1  0  0  0
 11 12  1  0  0  0
 11 96  1  0  0  0
 12 13  2  0  0  0
 12 97  1  0  0  0
 13 14  1  0  0  0
 13 31  1  0  0  0
 14 15  2  0  0  0
 14 98  1  0  0  0
 15 99  1  0  0  0
 16 17  2  0  0  0
 16 21  1  0  0  0
 16 31  1  0  0  0
 17 18  1  0  0  0
 17100  1  0  0  0
 18 19  2  0  0  0
 18101  1  0  0  0
 19 20  1  0  0  0
 19 24  1  0  0  0
 20 21  2  0  0  0
 20102  1  0  0  0
 21 23  1  0  0  0
 22 28  1  0  0  0
 22 32  2  0  0  0
 26 27  1  0  0  0
 28103  1  0  0  0
 28104  1  0  0  0
 29105  1  0  0  0
 29106  1  0  0  0
 33 34  1  0  0  0
 33 66  1  0  0  0
 33 70  2  0  0  0
 34 36  1  0  0  0
 34 59  1  0  0  0
 34107  1  0  0  0
 35 44  2  0  0  0
 35 45  1  0  0  0
 35 68  1  0  0  0
 36 56  1  0  0  0
 36108  1  0  0  0
 37 39  1  0  0  0
 37 47  1  0  0  0
 37 66  1  0  0  0
 37109  1  0  0  0
 38 43  2  0  0  0
 38 46  1  0  0  0
 38 47  1  0  0  0
 39 64  1  0  0  0
 39 67  2  0  0  0
 40 52  1  0  0  0
 40 53  2  0  0  0
 40 58  1  0  0  0
 41110  1  0  0  0
 41111  1  0  0  0
 41112  1  0  0  0
 41 48  1  0  0  0
 42 43  1  0  0  0
 42 66  1  0  0  0
 42113  1  0  0  0
 42114  1  0  0  0
 43 44  1  0  0  0
 44115  1  0  0  0
 45 46  2  0  0  0
 45116  1  0  0  0
 46117  1  0  0  0
 47118  1  0  0  0
 47119  1  0  0  0
 48 56  1  0  0  0
 48 65  1  0  0  0
 48120  1  0  0  0
 49 50  1  0  0  0
 49 53  1  0  0  0
 49 64  1  0  0  0
 49121  1  0  0  0
 50 51  1  0  0  0
 50122  1  0  0  0
 50123  1  0  0  0
 51 52  1  0  0  0
 51124  1  0  0  0
 51125  1  0  0  0
 52126  1  0  0  0
 52127  1  0  0  0
 53 54  1  0  0  0
 54 55  2  0  0  0
 54128  1  0  0  0
 55 57  1  0  0  0
 55129  1  0  0  0
 56 69  2  0  0  0
 57 58  2  0  0  0
 57130  1  0  0  0
 58131  1  0  0  0
 59 60  1  0  0  0
 59 61  1  0  0  0
 59 62  1  0  0  0
 60132  1  0  0  0
 60133  1  0  0  0
 60134  1  0  0  0
 61135  1  0  0  0
 61136  1  0  0  0
 61137  1  0  0  0
 62138  1  0  0  0
 62139  1  0  0  0
 62140  1  0  0  0
 63 65  1  0  0  0
 63141  1  0  0  0
 63142  1  0  0  0
 63143  1  0  0  0
 64144  1  0  0  0
 65145  1  0  0  0
 68 83  1  0  0  0
 71 72  2  0  0  0
 71 75  1  0  0  0
 71146  1  0  0  0
 72 76  1  0  0  0
 72147  1  0  0  0
 73 74  1  0  0  0
 73 75  2  0  0  0
 73148  1  0  0  0
 74 76  2  0  0  0
 74 78  1  0  0  0
 75 84  1  0  0  0
 76 85  1  0  0  0
 77 78  2  0  0  0
 77149  1  0  0  0
 77150  1  0  0  0
 78 86  1  0  0  0
 79 84  1  0  0  0
 79151  1  0  0  0
 79152  1  0  0  0
 79153  1  0  0  0
 80 85  1  0  0  0
 80154  1  0  0  0
 80155  1  0  0  0
 80156  1  0  0  0
 81 82  1  0  0  0
 81 83  1  0  0  0
 81157  1  0  0  0
 81158  1  0  0  0
 82 85  1  0  0  0
 82159  1  0  0  0
 82160  1  0  0  0
 83161  1  0  0  0
 83162  1  0  0  0
M  ISO  4   1 100  68 101  83 101  84 100
M  END
> <chiral flag>
0

> <version>
0

> <s_m_source_file>
/data/baiqing/PycharmProjects/Reinvent-master-3.2/result/LINK_invent/BTK/process_docking_weight1_custom_product_contain_oxygen_bond_distance_aromatic_linkinvent_7_9_3/rearranged_h_0017.sdf

> <i_m_source_file_index>
89

> <r_mmod_Potential_Energy-OPLS-2005>
331.736846923828

> <r_mmod_Stretch_Energy-OPLS-2005>
103.464408874512

> <r_mmod_Bend_Energy-OPLS-2005>
175.809951782227

> <r_mmod_Torsional_Energy-OPLS-2005>
307.123413085938

> <r_mmod_Improper_Torsional_Energy-OPLS-2005>
5.1876220703125

> <r_mmod_Van_der_Waal_Energy-OPLS-2005>
173.957153320312

> <r_mmod_Electrostatic_Energy-OPLS-2005>
-284.981140136719

> <r_mmod_Solvation_Energy-OPLS-2005>
-200.526931762695

> <b_mmod_Minimization_Converged-OPLS-2005>
0

> <r_mmod_RMS_Derivative-OPLS-2005>
6.17033624649048

$$$$
90
                    3D
 Structure written by MMmdl.
160168  0  0  1  0            999 V2000
  -30.6966  -14.4859   20.6285 C   0  0  0  0  0  0
  -30.4329  -12.3470   19.3979 C   0  0  0  0  0  0
  -29.4860  -12.5274   18.1928 C   0  0  0  0  0  0
  -28.0100  -12.3666   18.6123 C   0  0  0  0  0  0
  -27.6630  -13.1841   19.8837 C   0  0  2  0  0  0
  -28.7173  -12.9129   20.9845 C   0  0  0  0  0  0
  -25.2604  -13.8100   20.5677 C   0  0  0  0  0  0
  -24.1836  -13.0407   20.9177 C   0  0  0  0  0  0
  -24.6371  -11.6872   20.8753 C   0  0  0  0  0  0
  -23.9032  -10.4272   21.0417 C   0  0  0  0  0  0
  -24.3588   -9.4189   21.9192 C   0  0  0  0  0  0
  -23.6270   -8.2222   22.0759 C   0  0  0  0  0  0
  -22.4255   -8.0263   21.3545 C   0  0  0  0  0  0
  -21.9884   -9.0238   20.4648 C   0  0  0  0  0  0
  -22.7210  -10.2120   20.3062 C   0  0  0  0  0  0
  -21.6844   -6.0722   22.5282 C   0  0  0  0  0  0
  -21.4006   -6.5631   23.8214 C   0  0  0  0  0  0
  -21.3660   -5.6789   24.9175 C   0  0  0  0  0  0
  -21.6045   -4.3052   24.7229 C   0  0  0  0  0  0
  -21.8821   -3.8141   23.4352 C   0  0  0  0  0  0
  -21.9190   -4.6953   22.3404 C   0  0  0  0  0  0
  -22.7866  -13.5230   21.1837 C   0  0  0  0  0  0
  -22.1661   -4.2137   21.0983 F   0  0  0  0  0  0
  -21.5631   -3.4541   25.7743 F   0  0  0  0  0  0
  -30.0261  -13.3066   20.4426 N   0  0  0  0  0  0
  -26.3030  -12.9222   20.3430 N   0  0  0  0  0  0
  -25.9290  -11.6408   20.5805 N   0  0  0  0  0  0
  -22.0496  -12.8239   22.0398 N   0  0  0  0  0  0
  -25.4318  -15.1807   20.4026 N   0  0  0  0  0  0
  -31.8081  -14.6677   20.1164 O   0  0  0  0  0  0
  -21.6630   -6.8856   21.4239 O   0  0  0  0  0  0
  -22.3565  -14.5542   20.6689 O   0  0  0  0  0  0
  -24.6142  -31.8689   23.2117 C   0  0  0  0  0  0
  -25.9041  -32.4825   23.8408 C   0  0  1  0  0  0
  -27.2372  -27.4354   20.0863 C   0  0  0  0  0  0
  -25.5896  -33.8626   24.2332 N   0  0  0  0  0  0
  -23.4020  -30.4939   21.5533 C   0  0  2  0  0  0
  -24.8465  -28.9616   20.1156 C   0  0  0  0  0  0
  -22.7407  -29.4662   22.4997 C   0  0  0  0  0  0
  -18.0276  -28.1372   22.8495 C   0  0  0  0  0  0
  -24.1491  -36.7316   23.2638 C   0  0  0  0  0  0
  -25.9322  -30.8332   21.3669 C   0  0  0  0  0  0
  -26.0080  -29.4692   20.7100 C   0  0  0  0  0  0
  -27.2031  -28.7130   20.6934 C   0  0  0  0  0  0
  -26.0509  -26.9458   19.4863 C   0  0  0  0  0  0
  -24.8626  -27.6984   19.5034 C   0  0  0  0  0  0
  -23.6094  -29.8293   20.1670 C   0  0  0  0  0  0
  -25.4113  -36.3118   24.0339 C   0  0  1  0  0  0
  -20.5860  -28.3658   23.1325 C   0  0  2  0  0  0
  -20.6762  -26.9397   22.5415 C   0  0  0  0  0  0
  -19.5740  -26.6384   21.5210 C   0  0  0  0  0  0
  -18.1921  -26.7920   22.1623 C   0  0  0  0  0  0
  -19.1521  -28.8834   23.2905 C   0  0  0  0  0  0
  -18.9444  -30.1441   23.8915 C   0  0  0  0  0  0
  -17.6445  -30.6578   24.0567 C   0  0  0  0  0  0
  -25.9036  -34.9477   23.5132 C   0  0  0  0  0  0
  -16.5339  -29.9077   23.6322 C   0  0  0  0  0  0
  -16.7261  -28.6494   23.0347 C   0  0  0  0  0  0
  -26.4472  -31.6601   25.0735 C   0  0  0  0  0  0
  -25.3735  -31.3697   26.1478 C   0  0  0  0  0  0
  -27.0304  -30.3045   24.6109 C   0  0  0  0  0  0
  -27.6056  -32.4320   25.7485 C   0  0  0  0  0  0
  -27.5585  -37.1813   24.8463 C   0  0  0  0  0  0
  -21.4133  -29.3030   22.3731 N   0  0  0  0  0  0
  -26.4303  -37.3795   23.9406 N   0  0  0  0  0  0
  -24.6678  -31.0793   22.1019 N   0  0  0  0  0  0
  -23.4180  -28.8203   23.3038 O   0  0  0  0  0  0
  -28.4197  -26.7146   20.1029 O   0  0  0  0  0  0
  -26.5596  -34.8925   22.4692 O   0  0  0  0  0  0
  -23.5338  -32.1442   23.7509 O   0  0  0  0  0  0
  -32.8782  -19.5870   22.4897 C   0  0  0  0  0  0
  -32.1433  -20.3983   21.6066 C   0  0  0  0  0  0
  -32.5131  -18.2420   22.6869 C   0  0  0  0  0  0
  -30.7198  -18.4914   21.0674 C   0  0  0  0  0  0
  -31.0448  -19.8625   20.9020 C   0  0  0  0  0  0
  -31.4274  -17.6709   21.9877 C   0  0  0  0  0  0
  -29.7006  -23.1350   19.5136 C   0  0  0  0  0  0
  -28.8069  -15.9762   21.3602 C   0  0  0  0  0  0
  -30.2159  -20.7383   19.9583 C   0  0  0  0  0  0
  -31.0576  -16.2151   22.3491 C   0  0  0  0  0  0
  -29.6820  -24.5814   20.0457 C   0  0  0  0  0  0
  -28.3729  -25.3337   19.7097 C   0  0  0  0  0  0
  -30.1638  -22.1620   20.3165 N   0  0  0  0  0  0
  -30.1681  -15.4208   21.4747 N   0  0  0  0  0  0
  -29.3035  -22.8955   18.3718 O   0  0  0  0  0  0
  -31.4678  -12.4819   19.0791 H   0  0  0  0  0  0
  -30.3785  -11.3256   19.7779 H   0  0  0  0  0  0
  -29.7311  -11.8087   17.4096 H   0  0  0  0  0  0
  -29.6354  -13.5165   17.7559 H   0  0  0  0  0  0
  -27.8276  -11.3067   18.7943 H   0  0  0  0  0  0
  -27.3513  -12.6510   17.7906 H   0  0  0  0  0  0
  -27.7096  -14.2304   19.5942 H   0  0  0  0  0  0
  -28.7278  -11.8478   21.2196 H   0  0  0  0  0  0
  -28.4923  -13.3700   21.9438 H   0  0  0  0  0  0
  -25.2735   -9.5672   22.4765 H   0  0  0  0  0  0
  -23.9989   -7.4612   22.7476 H   0  0  0  0  0  0
  -21.0815   -8.8749   19.8950 H   0  0  0  0  0  0
  -22.3666  -10.9657   19.6173 H   0  0  0  0  0  0
  -21.1997   -7.6143   23.9709 H   0  0  0  0  0  0
  -21.1482   -6.0523   25.9077 H   0  0  0  0  0  0
  -22.0600   -2.7604   23.2859 H   0  0  0  0  0  0
  -22.4102  -11.9894   22.4789 H   0  0  0  0  0  0
  -21.1118  -13.1281   22.2603 H   0  0  0  0  0  0
  -24.6644  -15.8356   20.5065 H   0  0  0  0  0  0
  -26.2864  -15.6200   20.0877 H   0  0  0  0  0  0
  -26.7109  -32.5534   23.1167 H   0  0  0  0  0  0
  -25.0065  -33.9794   25.0489 H   0  0  0  0  0  0
  -22.6910  -31.3111   21.4163 H   0  0  0  0  0  0
  -23.3750  -35.9650   23.3312 H   0  0  0  0  0  0
  -24.3591  -36.8917   22.2050 H   0  0  0  0  0  0
  -23.7246  -37.6527   23.6643 H   0  0  0  0  0  0
  -26.0503  -31.6034   20.6034 H   0  0  0  0  0  0
  -26.8180  -30.8804   21.9889 H   0  0  0  0  0  0
  -28.0999  -29.1047   21.1528 H   0  0  0  0  0  0
  -26.0152  -25.9852   18.9952 H   0  0  0  0  0  0
  -23.9689  -27.3019   19.0420 H   0  0  0  0  0  0
  -23.7190  -30.6065   19.4097 H   0  0  0  0  0  0
  -22.7324  -29.2513   19.8690 H   0  0  0  0  0  0
  -25.1289  -36.1992   25.0834 H   0  0  0  0  0  0
  -20.9953  -28.3222   24.1444 H   0  0  0  0  0  0
  -20.5679  -26.2261   23.3599 H   0  0  0  0  0  0
  -21.6637  -26.7452   22.1202 H   0  0  0  0  0  0
  -19.6910  -25.6301   21.1228 H   0  0  0  0  0  0
  -19.6687  -27.3207   20.6755 H   0  0  0  0  0  0
  -17.4194  -26.6670   21.4023 H   0  0  0  0  0  0
  -18.0326  -26.0056   22.9016 H   0  0  0  0  0  0
  -19.7922  -30.7249   24.2292 H   0  0  0  0  0  0
  -17.5002  -31.6265   24.5158 H   0  0  0  0  0  0
  -15.5341  -30.2984   23.7638 H   0  0  0  0  0  0
  -15.8660  -28.0819   22.7050 H   0  0  0  0  0  0
  -24.5902  -30.7059   25.7799 H   0  0  0  0  0  0
  -24.8932  -32.2849   26.4951 H   0  0  0  0  0  0
  -25.8086  -30.8837   27.0218 H   0  0  0  0  0  0
  -26.2847  -29.6803   24.1169 H   0  0  0  0  0  0
  -27.4081  -29.7289   25.4569 H   0  0  0  0  0  0
  -27.8681  -30.4365   23.9256 H   0  0  0  0  0  0
  -27.2680  -33.3601   26.2104 H   0  0  0  0  0  0
  -28.3831  -32.6906   25.0286 H   0  0  0  0  0  0
  -28.0757  -31.8418   26.5357 H   0  0  0  0  0  0
  -28.2605  -38.0106   24.7514 H   0  0  0  0  0  0
  -28.1081  -36.2643   24.6290 H   0  0  0  0  0  0
  -27.2303  -37.1460   25.8863 H   0  0  0  0  0  0
  -20.9286  -29.8757   21.6958 H   0  0  0  0  0  0
  -26.0196  -38.2877   24.1398 H   0  0  0  0  0  0
  -33.7180  -20.0014   23.0298 H   0  0  0  0  0  0
  -32.4351  -21.4311   21.4743 H   0  0  0  0  0  0
  -33.0740  -17.6458   23.3938 H   0  0  0  0  0  0
  -29.8953  -18.1020   20.4927 H   0  0  0  0  0  0
  -28.7021  -16.9123   21.9076 H   0  0  0  0  0  0
  -28.0295  -15.3500   21.7838 H   0  0  0  0  0  0
  -28.5606  -16.1823   20.3185 H   0  0  0  0  0  0
  -29.1941  -20.3576   19.9231 H   0  0  0  0  0  0
  -30.6235  -20.6244   18.9523 H   0  0  0  0  0  0
  -30.5850  -16.2459   23.3320 H   0  0  0  0  0  0
  -31.9860  -15.6643   22.5180 H   0  0  0  0  0  0
  -30.5277  -25.1088   19.6040 H   0  0  0  0  0  0
  -29.8401  -24.5837   21.1247 H   0  0  0  0  0  0
  -28.1782  -25.2835   18.6374 H   0  0  0  0  0  0
  -27.5524  -24.8270   20.2217 H   0  0  0  0  0  0
  -30.4690  -22.4137   21.2462 H   0  0  0  0  0  0
  1 25  1  0  0  0
  1 30  2  0  0  0
  1 84  1  0  0  0
  2  3  1  0  0  0
  2 25  1  0  0  0
  2 86  1  0  0  0
  2 87  1  0  0  0
  3  4  1  0  0  0
  3 88  1  0  0  0
  3 89  1  0  0  0
  4  5  1  0  0  0
  4 90  1  0  0  0
  4 91  1  0  0  0
  5  6  1  0  0  0
  5 26  1  0  0  0
  5 92  1  0  0  0
  6 25  1  0  0  0
  6 93  1  0  0  0
  6 94  1  0  0  0
  7  8  2  0  0  0
  7 26  1  0  0  0
  7 29  1  0  0  0
  8  9  1  0  0  0
  8 22  1  0  0  0
  9 10  1  0  0  0
  9 27  2  0  0  0
 10 11  2  0  0  0
 10 15  1  0  0  0
 11 12  1  0  0  0
 11 95  1  0  0  0
 12 13  2  0  0  0
 12 96  1  0  0  0
 13 14  1  0  0  0
 13 31  1  0  0  0
 14 15  2  0  0  0
 14 97  1  0  0  0
 15 98  1  0  0  0
 16 17  2  0  0  0
 16 21  1  0  0  0
 16 31  1  0  0  0
 17 18  1  0  0  0
 17 99  1  0  0  0
 18 19  2  0  0  0
 18100  1  0  0  0
 19 20  1  0  0  0
 19 24  1  0  0  0
 20 21  2  0  0  0
 20101  1  0  0  0
 21 23  1  0  0  0
 22 28  1  0  0  0
 22 32  2  0  0  0
 26 27  1  0  0  0
 28102  1  0  0  0
 28103  1  0  0  0
 29104  1  0  0  0
 29105  1  0  0  0
 33 34  1  0  0  0
 33 66  1  0  0  0
 33 70  2  0  0  0
 34 36  1  0  0  0
 34 59  1  0  0  0
 34106  1  0  0  0
 35 44  2  0  0  0
 35 45  1  0  0  0
 35 68  1  0  0  0
 36 56  1  0  0  0
 36107  1  0  0  0
 37 39  1  0  0  0
 37 47  1  0  0  0
 37 66  1  0  0  0
 37108  1  0  0  0
 38 43  2  0  0  0
 38 46  1  0  0  0
 38 47  1  0  0  0
 39 64  1  0  0  0
 39 67  2  0  0  0
 40 52  1  0  0  0
 40 53  2  0  0  0
 40 58  1  0  0  0
 41109  1  0  0  0
 41110  1  0  0  0
 41111  1  0  0  0
 41 48  1  0  0  0
 42 43  1  0  0  0
 42 66  1  0  0  0
 42112  1  0  0  0
 42113  1  0  0  0
 43 44  1  0  0  0
 44114  1  0  0  0
 45 46  2  0  0  0
 45115  1  0  0  0
 46116  1  0  0  0
 47117  1  0  0  0
 47118  1  0  0  0
 48 56  1  0  0  0
 48 65  1  0  0  0
 48119  1  0  0  0
 49 50  1  0  0  0
 49 53  1  0  0  0
 49 64  1  0  0  0
 49120  1  0  0  0
 50 51  1  0  0  0
 50121  1  0  0  0
 50122  1  0  0  0
 51 52  1  0  0  0
 51123  1  0  0  0
 51124  1  0  0  0
 52125  1  0  0  0
 52126  1  0  0  0
 53 54  1  0  0  0
 54 55  2  0  0  0
 54127  1  0  0  0
 55 57  1  0  0  0
 55128  1  0  0  0
 56 69  2  0  0  0
 57 58  2  0  0  0
 57129  1  0  0  0
 58130  1  0  0  0
 59 60  1  0  0  0
 59 61  1  0  0  0
 59 62  1  0  0  0
 60131  1  0  0  0
 60132  1  0  0  0
 60133  1  0  0  0
 61134  1  0  0  0
 61135  1  0  0  0
 61136  1  0  0  0
 62137  1  0  0  0
 62138  1  0  0  0
 62139  1  0  0  0
 63 65  1  0  0  0
 63140  1  0  0  0
 63141  1  0  0  0
 63142  1  0  0  0
 64143  1  0  0  0
 65144  1  0  0  0
 68 82  1  0  0  0
 71 72  2  0  0  0
 71 73  1  0  0  0
 71145  1  0  0  0
 72 75  1  0  0  0
 72146  1  0  0  0
 73 76  2  0  0  0
 73147  1  0  0  0
 74 75  2  0  0  0
 74 76  1  0  0  0
 74148  1  0  0  0
 75 79  1  0  0  0
 76 80  1  0  0  0
 77 81  1  0  0  0
 77 83  1  0  0  0
 77 85  2  0  0  0
 78 84  1  0  0  0
 78149  1  0  0  0
 78150  1  0  0  0
 78151  1  0  0  0
 79 83  1  0  0  0
 79152  1  0  0  0
 79153  1  0  0  0
 80 84  1  0  0  0
 80154  1  0  0  0
 80155  1  0  0  0
 81 82  1  0  0  0
 81156  1  0  0  0
 81157  1  0  0  0
 82158  1  0  0  0
 82159  1  0  0  0
 83160  1  0  0  0
M  ISO  4   1 100  68 101  82 101  84 100
M  END
> <chiral flag>
0

> <version>
0

> <s_m_source_file>
/data/baiqing/PycharmProjects/Reinvent-master-3.2/result/LINK_invent/BTK/process_docking_weight1_custom_product_contain_oxygen_bond_distance_aromatic_linkinvent_7_9_3/rearranged_h_0017.sdf

> <i_m_source_file_index>
90

> <r_mmod_Potential_Energy-OPLS-2005>
-22.1945724487305

> <r_mmod_Stretch_Energy-OPLS-2005>
42.7064552307129

> <r_mmod_Bend_Energy-OPLS-2005>
114.299949645996

> <r_mmod_Torsional_Energy-OPLS-2005>
241.635848999023

> <r_mmod_Improper_Torsional_Energy-OPLS-2005>
3.172926902771

> <r_mmod_Van_der_Waal_Energy-OPLS-2005>
171.636825561523

> <r_mmod_Electrostatic_Energy-OPLS-2005>
-379.875854492188

> <r_mmod_Solvation_Energy-OPLS-2005>
-229.060928344727

> <b_mmod_Minimization_Converged-OPLS-2005>
0

> <r_mmod_RMS_Derivative-OPLS-2005>
1.35165047645569

$$$$
91
                    3D
 Structure written by MMmdl.
153162  0  0  1  0            999 V2000
  -30.6155  -14.9256   20.4043 C   0  0  0  0  0  0
  -30.4192  -12.5739   19.5156 C   0  0  0  0  0  0
  -29.5138  -12.5084   18.2653 C   0  0  0  0  0  0
  -28.0534  -12.2801   18.6889 C   0  0  0  0  0  0
  -27.6180  -13.2441   19.8188 C   0  0  2  0  0  0
  -28.6537  -13.3399   20.9600 C   0  0  0  0  0  0
  -25.2405  -13.8184   20.5682 C   0  0  0  0  0  0
  -24.1741  -13.0420   20.9250 C   0  0  0  0  0  0
  -24.6360  -11.6913   20.8785 C   0  0  0  0  0  0
  -23.9065  -10.4279   21.0432 C   0  0  0  0  0  0
  -24.3616   -9.4189   21.9199 C   0  0  0  0  0  0
  -23.6279   -8.2227   22.0767 C   0  0  0  0  0  0
  -22.4267   -8.0275   21.3536 C   0  0  0  0  0  0
  -21.9902   -9.0258   20.4651 C   0  0  0  0  0  0
  -22.7243  -10.2135   20.3067 C   0  0  0  0  0  0
  -21.6852   -6.0730   22.5269 C   0  0  0  0  0  0
  -21.4004   -6.5638   23.8200 C   0  0  0  0  0  0
  -21.3653   -5.6791   24.9164 C   0  0  0  0  0  0
  -21.6034   -4.3054   24.7213 C   0  0  0  0  0  0
  -21.8824   -3.8144   23.4340 C   0  0  0  0  0  0
  -21.9190   -4.6960   22.3392 C   0  0  0  0  0  0
  -22.7758  -13.5200   21.1906 C   0  0  0  0  0  0
  -22.1662   -4.2143   21.0974 F   0  0  0  0  0  0
  -21.5624   -3.4536   25.7728 F   0  0  0  0  0  0
  -29.9455  -13.7032   20.3704 N   0  0  0  0  0  0
  -26.2824  -12.9422   20.3176 N   0  0  0  0  0  0
  -25.9277  -11.6555   20.5722 N   0  0  0  0  0  0
  -22.0414  -12.8188   22.0467 N   0  0  0  0  0  0
  -25.3985  -15.1908   20.4042 N   0  0  0  0  0  0
  -31.8230  -14.8733   20.1537 O   0  0  0  0  0  0
  -21.6634   -6.8876   21.4232 O   0  0  0  0  0  0
  -22.3434  -14.5514   20.6769 O   0  0  0  0  0  0
  -24.6387  -31.8463   23.1883 C   0  0  0  0  0  0
  -25.9181  -32.4716   23.8255 C   0  0  1  0  0  0
  -27.2227  -27.1802   20.1671 C   0  0  0  0  0  0
  -25.5962  -33.8519   24.2186 N   0  0  0  0  0  0
  -23.4392  -30.4657   21.5319 C   0  0  2  0  0  0
  -24.8877  -28.8856   20.1198 C   0  0  0  0  0  0
  -22.7547  -29.4591   22.4894 C   0  0  0  0  0  0
  -18.0301  -28.1432   22.8501 C   0  0  0  0  0  0
  -24.1475  -36.7241   23.2656 C   0  0  0  0  0  0
  -25.9891  -30.7395   21.3730 C   0  0  0  0  0  0
  -26.0624  -29.3483   20.7293 C   0  0  0  0  0  0
  -27.2327  -28.5113   20.7320 C   0  0  0  0  0  0
  -26.0232  -26.7931   19.5383 C   0  0  0  0  0  0
  -24.8763  -27.6174   19.5123 C   0  0  0  0  0  0
  -23.6624  -29.7836   20.1537 C   0  0  0  0  0  0
  -25.4099  -36.3035   24.0336 C   0  0  1  0  0  0
  -20.5910  -28.3736   23.1264 C   0  0  2  0  0  0
  -20.6792  -26.9451   22.5409 C   0  0  0  0  0  0
  -19.5753  -26.6398   21.5250 C   0  0  0  0  0  0
  -18.1930  -26.7983   22.1638 C   0  0  0  0  0  0
  -19.1559  -28.8907   23.2872 C   0  0  0  0  0  0
  -18.9481  -30.1515   23.8887 C   0  0  0  0  0  0
  -17.6470  -30.6631   24.0583 C   0  0  0  0  0  0
  -25.9046  -34.9425   23.5047 C   0  0  0  0  0  0
  -16.5364  -29.9125   23.6363 C   0  0  0  0  0  0
  -16.7284  -28.6550   23.0365 C   0  0  0  0  0  0
  -26.4518  -31.6591   25.0692 C   0  0  0  0  0  0
  -25.3725  -31.3755   26.1405 C   0  0  0  0  0  0
  -27.0413  -30.3020   24.6222 C   0  0  0  0  0  0
  -27.6057  -32.4362   25.7467 C   0  0  0  0  0  0
  -27.5554  -37.1754   24.8479 C   0  0  0  0  0  0
  -21.4249  -29.3067   22.3652 N   0  0  0  0  0  0
  -26.4248  -37.3756   23.9453 N   0  0  0  0  0  0
  -24.7091  -31.0375   22.0889 N   0  0  0  0  0  0
  -23.4215  -28.8149   23.3025 O   0  0  0  0  0  0
  -28.3182  -26.2673   20.1473 O   0  0  0  0  0  0
  -26.5612  -34.8941   22.4614 O   0  0  0  0  0  0
  -23.5525  -32.1316   23.7154 O   0  0  0  0  0  0
  -28.6860  -16.8612   20.3130 C   0  0  0  0  0  0
  -30.8882  -17.5581   20.7459 C   0  0  0  0  0  0
  -28.2783  -18.2556   20.2507 C   0  0  0  0  0  0
  -30.4823  -18.9547   20.7002 C   0  0  0  0  0  0
  -30.0269  -16.4177   20.5496 C   0  0  0  0  0  0
  -29.1487  -19.3916   20.4227 C   0  0  0  0  0  0
  -29.2095  -22.0893   20.6022 C   0  0  0  0  0  0
  -27.1668  -22.6840   19.5681 C   0  0  0  0  0  0
  -27.4473  -21.1498   19.5089 C   0  0  0  0  0  0
  -28.4642  -23.3866   19.9854 C   0  0  1  0  0  0
  -28.2499  -24.8548   20.7486 C   0  0  0  0  0  0
  -28.6850  -20.8444   20.2419 N   0  0  0  0  0  0
  -30.1948  -22.2243   21.3337 O   0  0  0  0  0  0
  -31.4582  -12.6826   19.2008 H   0  0  0  0  0  0
  -30.3767  -11.6392   20.0750 H   0  0  0  0  0  0
  -29.8390  -11.7050   17.6037 H   0  0  0  0  0  0
  -29.5926  -13.4335   17.6932 H   0  0  0  0  0  0
  -27.9705  -11.2501   19.0361 H   0  0  0  0  0  0
  -27.3848  -12.3706   17.8312 H   0  0  0  0  0  0
  -27.5582  -14.2135   19.3299 H   0  0  0  0  0  0
  -28.7304  -12.3957   21.4996 H   0  0  0  0  0  0
  -28.3481  -14.0934   21.6870 H   0  0  0  0  0  0
  -25.2760   -9.5648   22.4777 H   0  0  0  0  0  0
  -23.9962   -7.4615   22.7493 H   0  0  0  0  0  0
  -21.0825   -8.8796   19.8950 H   0  0  0  0  0  0
  -22.3714  -10.9682   19.6175 H   0  0  0  0  0  0
  -21.1995   -7.6145   23.9698 H   0  0  0  0  0  0
  -21.1461   -6.0526   25.9067 H   0  0  0  0  0  0
  -22.0606   -2.7601   23.2849 H   0  0  0  0  0  0
  -22.4017  -11.9815   22.4802 H   0  0  0  0  0  0
  -21.1051  -13.1214   22.2739 H   0  0  0  0  0  0
  -24.6220  -15.8338   20.5146 H   0  0  0  0  0  0
  -26.2203  -15.6317   20.0156 H   0  0  0  0  0  0
  -26.7264  -32.5337   23.1004 H   0  0  0  0  0  0
  -25.0188  -33.9639   25.0391 H   0  0  0  0  0  0
  -22.7394  -31.2883   21.3724 H   0  0  0  0  0  0
  -23.3775  -35.9533   23.3291 H   0  0  0  0  0  0
  -24.3572  -36.8889   22.2076 H   0  0  0  0  0  0
  -23.7181  -37.6413   23.6693 H   0  0  0  0  0  0
  -26.1219  -31.4908   20.5927 H   0  0  0  0  0  0
  -26.8690  -30.8011   22.0006 H   0  0  0  0  0  0
  -28.1379  -28.8670   21.2042 H   0  0  0  0  0  0
  -25.9712  -25.8211   19.0682 H   0  0  0  0  0  0
  -23.9758  -27.2548   19.0339 H   0  0  0  0  0  0
  -23.7904  -30.5509   19.3887 H   0  0  0  0  0  0
  -22.7795  -29.2158   19.8509 H   0  0  0  0  0  0
  -25.1278  -36.1838   25.0824 H   0  0  0  0  0  0
  -20.9971  -28.3312   24.1396 H   0  0  0  0  0  0
  -20.5747  -26.2353   23.3621 H   0  0  0  0  0  0
  -21.6646  -26.7503   22.1151 H   0  0  0  0  0  0
  -19.6906  -25.6308   21.1286 H   0  0  0  0  0  0
  -19.6694  -27.3210   20.6793 H   0  0  0  0  0  0
  -17.4203  -26.6800   21.4035 H   0  0  0  0  0  0
  -18.0275  -26.0126   22.9022 H   0  0  0  0  0  0
  -19.7957  -30.7352   24.2225 H   0  0  0  0  0  0
  -17.5033  -31.6320   24.5186 H   0  0  0  0  0  0
  -15.5367  -30.3015   23.7734 H   0  0  0  0  0  0
  -15.8685  -28.0885   22.7050 H   0  0  0  0  0  0
  -24.5912  -30.7099   25.7736 H   0  0  0  0  0  0
  -24.8917  -32.2940   26.4789 H   0  0  0  0  0  0
  -25.8022  -30.8960   27.0217 H   0  0  0  0  0  0
  -26.3037  -29.6718   24.1252 H   0  0  0  0  0  0
  -27.4148  -29.7319   25.4745 H   0  0  0  0  0  0
  -27.8870  -30.4352   23.9469 H   0  0  0  0  0  0
  -27.2676  -33.3740   26.1894 H   0  0  0  0  0  0
  -28.3929  -32.6791   25.0314 H   0  0  0  0  0  0
  -28.0653  -31.8584   26.5497 H   0  0  0  0  0  0
  -28.2522  -38.0096   24.7553 H   0  0  0  0  0  0
  -28.1072  -36.2616   24.6222 H   0  0  0  0  0  0
  -27.2296  -37.1306   25.8889 H   0  0  0  0  0  0
  -20.9465  -29.8767   21.6823 H   0  0  0  0  0  0
  -26.0108  -38.2812   24.1502 H   0  0  0  0  0  0
  -27.9279  -16.1234   20.1357 H   0  0  0  0  0  0
  -31.9408  -17.3654   20.8988 H   0  0  0  0  0  0
  -27.2354  -18.4381   20.0380 H   0  0  0  0  0  0
  -31.2445  -19.7108   20.8363 H   0  0  0  0  0  0
  -26.3880  -22.8797   20.3066 H   0  0  0  0  0  0
  -26.8011  -23.0592   18.6117 H   0  0  0  0  0  0
  -27.5667  -20.8294   18.4735 H   0  0  0  0  0  0
  -26.5994  -20.6043   19.9227 H   0  0  0  0  0  0
  -29.0409  -23.5972   19.0851 H   0  0  0  0  0  0
  -29.0373  -24.8839   21.5031 H   0  0  0  0  0  0
  -27.3378  -24.8002   21.3412 H   0  0  0  0  0  0
  1 25  1  0  0  0
  1 30  2  0  0  0
  1 75  1  0  0  0
  2  3  1  0  0  0
  2 25  1  0  0  0
  2 84  1  0  0  0
  2 85  1  0  0  0
  3  4  1  0  0  0
  3 86  1  0  0  0
  3 87  1  0  0  0
  4  5  1  0  0  0
  4 88  1  0  0  0
  4 89  1  0  0  0
  5  6  1  0  0  0
  5 26  1  0  0  0
  5 90  1  0  0  0
  6 25  1  0  0  0
  6 91  1  0  0  0
  6 92  1  0  0  0
  7  8  2  0  0  0
  7 26  1  0  0  0
  7 29  1  0  0  0
  8  9  1  0  0  0
  8 22  1  0  0  0
  9 10  1  0  0  0
  9 27  2  0  0  0
 10 11  2  0  0  0
 10 15  1  0  0  0
 11 12  1  0  0  0
 11 93  1  0  0  0
 12 13  2  0  0  0
 12 94  1  0  0  0
 13 14  1  0  0  0
 13 31  1  0  0  0
 14 15  2  0  0  0
 14 95  1  0  0  0
 15 96  1  0  0  0
 16 17  2  0  0  0
 16 21  1  0  0  0
 16 31  1  0  0  0
 17 18  1  0  0  0
 17 97  1  0  0  0
 18 19  2  0  0  0
 18 98  1  0  0  0
 19 20  1  0  0  0
 19 24  1  0  0  0
 20 21  2  0  0  0
 20 99  1  0  0  0
 21 23  1  0  0  0
 22 28  1  0  0  0
 22 32  2  0  0  0
 26 27  1  0  0  0
 28100  1  0  0  0
 28101  1  0  0  0
 29102  1  0  0  0
 29103  1  0  0  0
 33 34  1  0  0  0
 33 66  1  0  0  0
 33 70  2  0  0  0
 34 36  1  0  0  0
 34 59  1  0  0  0
 34104  1  0  0  0
 35 44  2  0  0  0
 35 45  1  0  0  0
 35 68  1  0  0  0
 36 56  1  0  0  0
 36105  1  0  0  0
 37 39  1  0  0  0
 37 47  1  0  0  0
 37 66  1  0  0  0
 37106  1  0  0  0
 38 43  2  0  0  0
 38 46  1  0  0  0
 38 47  1  0  0  0
 39 64  1  0  0  0
 39 67  2  0  0  0
 40 52  1  0  0  0
 40 53  2  0  0  0
 40 58  1  0  0  0
 41107  1  0  0  0
 41108  1  0  0  0
 41109  1  0  0  0
 41 48  1  0  0  0
 42 43  1  0  0  0
 42 66  1  0  0  0
 42110  1  0  0  0
 42111  1  0  0  0
 43 44  1  0  0  0
 44112  1  0  0  0
 45 46  2  0  0  0
 45113  1  0  0  0
 46114  1  0  0  0
 47115  1  0  0  0
 47116  1  0  0  0
 48 56  1  0  0  0
 48 65  1  0  0  0
 48117  1  0  0  0
 49 50  1  0  0  0
 49 53  1  0  0  0
 49 64  1  0  0  0
 49118  1  0  0  0
 50 51  1  0  0  0
 50119  1  0  0  0
 50120  1  0  0  0
 51 52  1  0  0  0
 51121  1  0  0  0
 51122  1  0  0  0
 52123  1  0  0  0
 52124  1  0  0  0
 53 54  1  0  0  0
 54 55  2  0  0  0
 54125  1  0  0  0
 55 57  1  0  0  0
 55126  1  0  0  0
 56 69  2  0  0  0
 57 58  2  0  0  0
 57127  1  0  0  0
 58128  1  0  0  0
 59 60  1  0  0  0
 59 61  1  0  0  0
 59 62  1  0  0  0
 60129  1  0  0  0
 60130  1  0  0  0
 60131  1  0  0  0
 61132  1  0  0  0
 61133  1  0  0  0
 61134  1  0  0  0
 62135  1  0  0  0
 62136  1  0  0  0
 62137  1  0  0  0
 63 65  1  0  0  0
 63138  1  0  0  0
 63139  1  0  0  0
 63140  1  0  0  0
 64141  1  0  0  0
 65142  1  0  0  0
 68 81  1  0  0  0
 71 73  2  0  0  0
 71 75  1  0  0  0
 71143  1  0  0  0
 72 74  1  0  0  0
 72 75  2  0  0  0
 72144  1  0  0  0
 73 76  1  0  0  0
 73145  1  0  0  0
 74 76  2  0  0  0
 74146  1  0  0  0
 76 82  1  0  0  0
 77 80  1  0  0  0
 77 82  1  0  0  0
 77 83  2  0  0  0
 78 79  1  0  0  0
 78 80  1  0  0  0
 78147  1  0  0  0
 78148  1  0  0  0
 79 82  1  0  0  0
 79149  1  0  0  0
 79150  1  0  0  0
 80 81  1  0  0  0
 80151  1  0  0  0
 81152  1  0  0  0
 81153  1  0  0  0
M  ISO  4   1 100  68 101  75 100  81 101
M  END
> <chiral flag>
0

> <version>
0

> <s_m_source_file>
/data/baiqing/PycharmProjects/Reinvent-master-3.2/result/LINK_invent/BTK/process_docking_weight1_custom_product_contain_oxygen_bond_distance_aromatic_linkinvent_7_9_3/rearranged_h_0017.sdf

> <i_m_source_file_index>
91

> <r_mmod_Potential_Energy-OPLS-2005>
560.554870605469

> <r_mmod_Stretch_Energy-OPLS-2005>
192.348159790039

> <r_mmod_Bend_Energy-OPLS-2005>
274.556488037109

> <r_mmod_Torsional_Energy-OPLS-2005>
264.509216308594

> <r_mmod_Improper_Torsional_Energy-OPLS-2005>
4.48732995986938

> <r_mmod_Van_der_Waal_Energy-OPLS-2005>
126.352798461914

> <r_mmod_Electrostatic_Energy-OPLS-2005>
-258.844573974609

> <r_mmod_Solvation_Energy-OPLS-2005>
-207.513748168945

> <b_mmod_Minimization_Converged-OPLS-2005>
0

> <r_mmod_RMS_Derivative-OPLS-2005>
3.18998646736145

$$$$
92
                    3D
 Structure written by MMmdl.
155163  0  0  1  0            999 V2000
  -30.6853  -14.6272   20.6264 C   0  0  0  0  0  0
  -30.4352  -12.4234   19.4643 C   0  0  0  0  0  0
  -29.5083  -12.5259   18.2333 C   0  0  0  0  0  0
  -28.0343  -12.3444   18.6395 C   0  0  0  0  0  0
  -27.6514  -13.2190   19.8596 C   0  0  2  0  0  0
  -28.6835  -13.0753   20.9935 C   0  0  0  0  0  0
  -25.2547  -13.8177   20.5662 C   0  0  0  0  0  0
  -24.1816  -13.0446   20.9165 C   0  0  0  0  0  0
  -24.6383  -11.6911   20.8718 C   0  0  0  0  0  0
  -23.9055  -10.4293   21.0407 C   0  0  0  0  0  0
  -24.3609   -9.4215   21.9182 C   0  0  0  0  0  0
  -23.6290   -8.2249   22.0755 C   0  0  0  0  0  0
  -22.4269   -8.0284   21.3546 C   0  0  0  0  0  0
  -21.9902   -9.0251   20.4644 C   0  0  0  0  0  0
  -22.7228  -10.2137   20.3051 C   0  0  0  0  0  0
  -21.6861   -6.0740   22.5278 C   0  0  0  0  0  0
  -21.4017   -6.5641   23.8210 C   0  0  0  0  0  0
  -21.3652   -5.6786   24.9171 C   0  0  0  0  0  0
  -21.6044   -4.3054   24.7220 C   0  0  0  0  0  0
  -21.8818   -3.8149   23.4336 C   0  0  0  0  0  0
  -21.9194   -4.6966   22.3394 C   0  0  0  0  0  0
  -22.7843  -13.5232   21.1870 C   0  0  0  0  0  0
  -22.1667   -4.2153   21.0972 F   0  0  0  0  0  0
  -21.5624   -3.4535   25.7734 F   0  0  0  0  0  0
  -30.0097  -13.4352   20.4598 N   0  0  0  0  0  0
  -26.2968  -12.9361   20.3267 N   0  0  0  0  0  0
  -25.9309  -11.6512   20.5709 N   0  0  0  0  0  0
  -22.0490  -12.8210   22.0420 N   0  0  0  0  0  0
  -25.4304  -15.1900   20.4120 N   0  0  0  0  0  0
  -31.7775  -14.8016   20.0767 O   0  0  0  0  0  0
  -21.6642   -6.8879   21.4235 O   0  0  0  0  0  0
  -22.3522  -14.5554   20.6749 O   0  0  0  0  0  0
  -24.6241  -31.8576   23.2003 C   0  0  0  0  0  0
  -25.9074  -32.4774   23.8347 C   0  0  1  0  0  0
  -27.2406  -27.3199   20.1593 C   0  0  0  0  0  0
  -25.5887  -33.8577   24.2263 N   0  0  0  0  0  0
  -23.4204  -30.4774   21.5398 C   0  0  2  0  0  0
  -24.8754  -28.9248   20.1184 C   0  0  0  0  0  0
  -22.7482  -29.4603   22.4925 C   0  0  0  0  0  0
  -18.0290  -28.1380   22.8490 C   0  0  0  0  0  0
  -24.1479  -36.7294   23.2627 C   0  0  0  0  0  0
  -25.9595  -30.7944   21.3691 C   0  0  0  0  0  0
  -26.0414  -29.4189   20.7203 C   0  0  0  0  0  0
  -27.2287  -28.6305   20.7239 C   0  0  0  0  0  0
  -26.0578  -26.8712   19.5333 C   0  0  0  0  0  0
  -24.8864  -27.6563   19.5143 C   0  0  0  0  0  0
  -23.6379  -29.8000   20.1603 C   0  0  0  0  0  0
  -25.4090  -36.3078   24.0330 C   0  0  1  0  0  0
  -20.5888  -28.3665   23.1289 C   0  0  2  0  0  0
  -20.6765  -26.9380   22.5412 C   0  0  0  0  0  0
  -19.5733  -26.6365   21.5218 C   0  0  0  0  0  0
  -18.1907  -26.7916   22.1622 C   0  0  0  0  0  0
  -19.1548  -28.8841   23.2881 C   0  0  0  0  0  0
  -18.9469  -30.1450   23.8883 C   0  0  0  0  0  0
  -17.6470  -30.6577   24.0567 C   0  0  0  0  0  0
  -25.9039  -34.9452   23.5108 C   0  0  0  0  0  0
  -16.5351  -29.9069   23.6349 C   0  0  0  0  0  0
  -16.7277  -28.6500   23.0353 C   0  0  0  0  0  0
  -26.4460  -31.6602   25.0739 C   0  0  0  0  0  0
  -25.3710  -31.3744   26.1484 C   0  0  0  0  0  0
  -27.0305  -30.3031   24.6183 C   0  0  0  0  0  0
  -27.6025  -32.4353   25.7494 C   0  0  0  0  0  0
  -27.5597  -37.1745   24.8422 C   0  0  0  0  0  0
  -21.4191  -29.3028   22.3690 N   0  0  0  0  0  0
  -26.4247  -37.3795   23.9465 N   0  0  0  0  0  0
  -24.6864  -31.0606   22.0936 N   0  0  0  0  0  0
  -23.4212  -28.8147   23.3001 O   0  0  0  0  0  0
  -28.3632  -26.4822   20.1873 O   0  0  0  0  0  0
  -26.5632  -34.8926   22.4685 O   0  0  0  0  0  0
  -23.5398  -32.1349   23.7335 O   0  0  0  0  0  0
  -29.5817  -19.4457   21.8091 C   0  0  0  0  0  0
  -29.7367  -18.0521   22.0813 C   0  0  0  0  0  0
  -29.6875  -19.9618   20.4957 C   0  0  0  0  0  0
  -29.9922  -17.0649   21.0726 C   0  0  0  0  0  0
  -29.9399  -18.9928   19.4816 C   0  0  0  0  0  0
  -30.0689  -17.5924   19.7501 C   0  0  0  0  0  0
  -30.0513  -15.2835   22.8498 C   0  0  0  0  0  0
  -29.0139  -23.9075   20.1765 C   0  0  0  0  0  0
  -28.9384  -22.4745   20.8915 C   0  0  0  0  0  0
  -28.2208  -25.1413   20.8068 C   0  0  0  0  0  0
  -29.5906  -21.3543   20.1417 N   0  0  0  0  0  0
  -30.1297  -15.6205   21.4162 N   0  0  0  0  0  0
  -30.0573  -19.4185   18.1997 F   0  0  0  0  0  0
  -30.2538  -16.7587   18.6977 F   0  0  0  0  0  0
  -31.4750  -12.5521   19.1583 H   0  0  0  0  0  0
  -30.3838  -11.4254   19.9020 H   0  0  0  0  0  0
  -29.7854  -11.7762   17.4908 H   0  0  0  0  0  0
  -29.6400  -13.4974   17.7537 H   0  0  0  0  0  0
  -27.8846  -11.2918   18.8807 H   0  0  0  0  0  0
  -27.3774  -12.5609   17.7974 H   0  0  0  0  0  0
  -27.6747  -14.2557   19.5238 H   0  0  0  0  0  0
  -28.6998  -12.0519   21.3719 H   0  0  0  0  0  0
  -28.3671  -13.6893   21.8329 H   0  0  0  0  0  0
  -25.2764   -9.5702   22.4751 H   0  0  0  0  0  0
  -24.0010   -7.4647   22.7477 H   0  0  0  0  0  0
  -21.0841   -8.8773   19.8944 H   0  0  0  0  0  0
  -22.3696  -10.9678   19.6157 H   0  0  0  0  0  0
  -21.2009   -7.6151   23.9714 H   0  0  0  0  0  0
  -21.1472   -6.0521   25.9076 H   0  0  0  0  0  0
  -22.0598   -2.7612   23.2837 H   0  0  0  0  0  0
  -22.4108  -11.9846   22.4761 H   0  0  0  0  0  0
  -21.1123  -13.1250   22.2671 H   0  0  0  0  0  0
  -24.6718  -15.8517   20.5319 H   0  0  0  0  0  0
  -26.2937  -15.6256   20.1112 H   0  0  0  0  0  0
  -26.7159  -32.5457   23.1117 H   0  0  0  0  0  0
  -25.0034  -33.9736   25.0409 H   0  0  0  0  0  0
  -22.7128  -31.2955   21.3887 H   0  0  0  0  0  0
  -23.3775  -35.9583   23.3205 H   0  0  0  0  0  0
  -24.3596  -36.8995   22.2061 H   0  0  0  0  0  0
  -23.7184  -37.6445   23.6715 H   0  0  0  0  0  0
  -26.0859  -31.5531   20.5960 H   0  0  0  0  0  0
  -26.8407  -30.8492   21.9969 H   0  0  0  0  0  0
  -28.1252  -29.0053   21.1975 H   0  0  0  0  0  0
  -26.0362  -25.8922   19.0745 H   0  0  0  0  0  0
  -23.9926  -27.2683   19.0459 H   0  0  0  0  0  0
  -23.7481  -30.5683   19.3945 H   0  0  0  0  0  0
  -22.7626  -29.2181   19.8649 H   0  0  0  0  0  0
  -25.1247  -36.1901   25.0805 H   0  0  0  0  0  0
  -20.9983  -28.3225   24.1413 H   0  0  0  0  0  0
  -20.5645  -26.2262   23.3608 H   0  0  0  0  0  0
  -21.6627  -26.7378   22.1206 H   0  0  0  0  0  0
  -19.6881  -25.6279   21.1239 H   0  0  0  0  0  0
  -19.6686  -27.3188   20.6768 H   0  0  0  0  0  0
  -17.4177  -26.6701   21.4017 H   0  0  0  0  0  0
  -18.0291  -26.0037   22.9002 H   0  0  0  0  0  0
  -19.7952  -30.7286   24.2212 H   0  0  0  0  0  0
  -17.5019  -31.6263   24.5155 H   0  0  0  0  0  0
  -15.5353  -30.2965   23.7683 H   0  0  0  0  0  0
  -15.8675  -28.0825   22.7056 H   0  0  0  0  0  0
  -24.5902  -30.7043   25.7852 H   0  0  0  0  0  0
  -24.8884  -32.2908   26.4902 H   0  0  0  0  0  0
  -25.8057  -30.8967   27.0276 H   0  0  0  0  0  0
  -26.2878  -29.6795   24.1189 H   0  0  0  0  0  0
  -27.3984  -29.7264   25.4683 H   0  0  0  0  0  0
  -27.8746  -30.4321   23.9405 H   0  0  0  0  0  0
  -27.2640  -33.3663   26.2048 H   0  0  0  0  0  0
  -28.3844  -32.6889   25.0332 H   0  0  0  0  0  0
  -28.0677  -31.8498   26.5431 H   0  0  0  0  0  0
  -28.2459  -38.0199   24.7709 H   0  0  0  0  0  0
  -28.1257  -36.2756   24.5931 H   0  0  0  0  0  0
  -27.2371  -37.0984   25.8820 H   0  0  0  0  0  0
  -20.9359  -29.8790   21.6942 H   0  0  0  0  0  0
  -26.0122  -38.2824   24.1629 H   0  0  0  0  0  0
  -29.4033  -20.1177   22.6360 H   0  0  0  0  0  0
  -29.6506  -17.7676   23.1191 H   0  0  0  0  0  0
  -30.7799  -15.8556   23.4250 H   0  0  0  0  0  0
  -30.2519  -14.2332   23.0725 H   0  0  0  0  0  0
  -29.0557  -15.5051   23.2368 H   0  0  0  0  0  0
  -28.6636  -23.7900   19.1505 H   0  0  0  0  0  0
  -30.0657  -24.1898   20.0951 H   0  0  0  0  0  0
  -27.8892  -22.2129   21.0402 H   0  0  0  0  0  0
  -29.3745  -22.5440   21.8906 H   0  0  0  0  0  0
  -28.5554  -25.2521   21.8406 H   0  0  0  0  0  0
  -27.1693  -24.8614   20.8896 H   0  0  0  0  0  0
  -29.7929  -21.5492   19.1639 H   0  0  0  0  0  0
  1 25  1  0  0  0
  1 30  2  0  0  0
  1 82  1  0  0  0
  2  3  1  0  0  0
  2 25  1  0  0  0
  2 85  1  0  0  0
  2 86  1  0  0  0
  3  4  1  0  0  0
  3 87  1  0  0  0
  3 88  1  0  0  0
  4  5  1  0  0  0
  4 89  1  0  0  0
  4 90  1  0  0  0
  5  6  1  0  0  0
  5 26  1  0  0  0
  5 91  1  0  0  0
  6 25  1  0  0  0
  6 92  1  0  0  0
  6 93  1  0  0  0
  7  8  2  0  0  0
  7 26  1  0  0  0
  7 29  1  0  0  0
  8  9  1  0  0  0
  8 22  1  0  0  0
  9 10  1  0  0  0
  9 27  2  0  0  0
 10 11  2  0  0  0
 10 15  1  0  0  0
 11 12  1  0  0  0
 11 94  1  0  0  0
 12 13  2  0  0  0
 12 95  1  0  0  0
 13 14  1  0  0  0
 13 31  1  0  0  0
 14 15  2  0  0  0
 14 96  1  0  0  0
 15 97  1  0  0  0
 16 17  2  0  0  0
 16 21  1  0  0  0
 16 31  1  0  0  0
 17 18  1  0  0  0
 17 98  1  0  0  0
 18 19  2  0  0  0
 18 99  1  0  0  0
 19 20  1  0  0  0
 19 24  1  0  0  0
 20 21  2  0  0  0
 20100  1  0  0  0
 21 23  1  0  0  0
 22 28  1  0  0  0
 22 32  2  0  0  0
 26 27  1  0  0  0
 28101  1  0  0  0
 28102  1  0  0  0
 29103  1  0  0  0
 29104  1  0  0  0
 33 34  1  0  0  0
 33 66  1  0  0  0
 33 70  2  0  0  0
 34 36  1  0  0  0
 34 59  1  0  0  0
 34105  1  0  0  0
 35 44  2  0  0  0
 35 45  1  0  0  0
 35 68  1  0  0  0
 36 56  1  0  0  0
 36106  1  0  0  0
 37 39  1  0  0  0
 37 47  1  0  0  0
 37 66  1  0  0  0
 37107  1  0  0  0
 38 43  2  0  0  0
 38 46  1  0  0  0
 38 47  1  0  0  0
 39 64  1  0  0  0
 39 67  2  0  0  0
 40 52  1  0  0  0
 40 53  2  0  0  0
 40 58  1  0  0  0
 41108  1  0  0  0
 41109  1  0  0  0
 41110  1  0  0  0
 41 48  1  0  0  0
 42 43  1  0  0  0
 42 66  1  0  0  0
 42111  1  0  0  0
 42112  1  0  0  0
 43 44  1  0  0  0
 44113  1  0  0  0
 45 46  2  0  0  0
 45114  1  0  0  0
 46115  1  0  0  0
 47116  1  0  0  0
 47117  1  0  0  0
 48 56  1  0  0  0
 48 65  1  0  0  0
 48118  1  0  0  0
 49 50  1  0  0  0
 49 53  1  0  0  0
 49 64  1  0  0  0
 49119  1  0  0  0
 50 51  1  0  0  0
 50120  1  0  0  0
 50121  1  0  0  0
 51 52  1  0  0  0
 51122  1  0  0  0
 51123  1  0  0  0
 52124  1  0  0  0
 52125  1  0  0  0
 53 54  1  0  0  0
 54 55  2  0  0  0
 54126  1  0  0  0
 55 57  1  0  0  0
 55127  1  0  0  0
 56 69  2  0  0  0
 57 58  2  0  0  0
 57128  1  0  0  0
 58129  1  0  0  0
 59 60  1  0  0  0
 59 61  1  0  0  0
 59 62  1  0  0  0
 60130  1  0  0  0
 60131  1  0  0  0
 60132  1  0  0  0
 61133  1  0  0  0
 61134  1  0  0  0
 61135  1  0  0  0
 62136  1  0  0  0
 62137  1  0  0  0
 62138  1  0  0  0
 63 65  1  0  0  0
 63139  1  0  0  0
 63140  1  0  0  0
 63141  1  0  0  0
 64142  1  0  0  0
 65143  1  0  0  0
 68 80  1  0  0  0
 71 72  2  0  0  0
 71 73  1  0  0  0
 71144  1  0  0  0
 72 74  1  0  0  0
 72145  1  0  0  0
 73 75  2  0  0  0
 73 81  1  0  0  0
 74 76  2  0  0  0
 74 82  1  0  0  0
 75 76  1  0  0  0
 75 83  1  0  0  0
 76 84  1  0  0  0
 77 82  1  0  0  0
 77146  1  0  0  0
 77147  1  0  0  0
 77148  1  0  0  0
 78 79  1  0  0  0
 78 80  1  0  0  0
 78149  1  0  0  0
 78150  1  0  0  0
 79 81  1  0  0  0
 79151  1  0  0  0
 79152  1  0  0  0
 80153  1  0  0  0
 80154  1  0  0  0
 81155  1  0  0  0
M  ISO  4   1 100  68 101  80 101  82 100
M  END
> <chiral flag>
0

> <version>
0

> <s_m_source_file>
/data/baiqing/PycharmProjects/Reinvent-master-3.2/result/LINK_invent/BTK/process_docking_weight1_custom_product_contain_oxygen_bond_distance_aromatic_linkinvent_7_9_3/rearranged_h_0017.sdf

> <i_m_source_file_index>
92

> <r_mmod_Potential_Energy-OPLS-2005>
259.958679199219

> <r_mmod_Stretch_Energy-OPLS-2005>
92.23681640625

> <r_mmod_Bend_Energy-OPLS-2005>
153.918228149414

> <r_mmod_Torsional_Energy-OPLS-2005>
278.398529052734

> <r_mmod_Improper_Torsional_Energy-OPLS-2005>
3.15362119674683

> <r_mmod_Van_der_Waal_Energy-OPLS-2005>
151.580459594727

> <r_mmod_Electrostatic_Energy-OPLS-2005>
-270.818206787109

> <r_mmod_Solvation_Energy-OPLS-2005>
-194.35791015625

> <b_mmod_Minimization_Converged-OPLS-2005>
0

> <r_mmod_RMS_Derivative-OPLS-2005>
2.53795623779297

$$$$
93
                    3D
 Structure written by MMmdl.
166174  0  0  1  0            999 V2000
  -30.6822  -14.6092   20.6192 C   0  0  0  0  0  0
  -30.4299  -12.4103   19.4568 C   0  0  0  0  0  0
  -29.5056  -12.5243   18.2261 C   0  0  0  0  0  0
  -28.0304  -12.3528   18.6327 C   0  0  0  0  0  0
  -27.6513  -13.2214   19.8606 C   0  0  2  0  0  0
  -28.6852  -13.0724   20.9941 C   0  0  0  0  0  0
  -25.2561  -13.8189   20.5701 C   0  0  0  0  0  0
  -24.1824  -13.0450   20.9189 C   0  0  0  0  0  0
  -24.6390  -11.6921   20.8717 C   0  0  0  0  0  0
  -23.9052  -10.4313   21.0399 C   0  0  0  0  0  0
  -24.3597   -9.4230   21.9172 C   0  0  0  0  0  0
  -23.6286   -8.2254   22.0740 C   0  0  0  0  0  0
  -22.4274   -8.0282   21.3533 C   0  0  0  0  0  0
  -21.9901   -9.0255   20.4646 C   0  0  0  0  0  0
  -22.7216  -10.2148   20.3055 C   0  0  0  0  0  0
  -21.6863   -6.0732   22.5279 C   0  0  0  0  0  0
  -21.4015   -6.5635   23.8209 C   0  0  0  0  0  0
  -21.3656   -5.6786   24.9171 C   0  0  0  0  0  0
  -21.6045   -4.3049   24.7222 C   0  0  0  0  0  0
  -21.8817   -3.8137   23.4345 C   0  0  0  0  0  0
  -21.9191   -4.6954   22.3398 C   0  0  0  0  0  0
  -22.7843  -13.5235   21.1860 C   0  0  0  0  0  0
  -22.1650   -4.2130   21.0974 F   0  0  0  0  0  0
  -21.5638   -3.4535   25.7745 F   0  0  0  0  0  0
  -30.0079  -13.4208   20.4509 N   0  0  0  0  0  0
  -26.2971  -12.9371   20.3294 N   0  0  0  0  0  0
  -25.9321  -11.6517   20.5724 N   0  0  0  0  0  0
  -22.0467  -12.8256   22.0425 N   0  0  0  0  0  0
  -25.4316  -15.1912   20.4181 N   0  0  0  0  0  0
  -31.7689  -14.7933   20.0609 O   0  0  0  0  0  0
  -21.6625   -6.8883   21.4250 O   0  0  0  0  0  0
  -22.3526  -14.5531   20.6701 O   0  0  0  0  0  0
  -24.6255  -31.8569   23.2003 C   0  0  0  0  0  0
  -25.9099  -32.4761   23.8333 C   0  0  1  0  0  0
  -27.2206  -27.2979   20.1158 C   0  0  0  0  0  0
  -25.5912  -33.8564   24.2246 N   0  0  0  0  0  0
  -23.4201  -30.4803   21.5430 C   0  0  2  0  0  0
  -24.8652  -28.9300   20.1116 C   0  0  0  0  0  0
  -22.7466  -29.4602   22.4922 C   0  0  0  0  0  0
  -18.0275  -28.1379   22.8486 C   0  0  0  0  0  0
  -24.1489  -36.7286   23.2639 C   0  0  0  0  0  0
  -25.9625  -30.7806   21.3745 C   0  0  0  0  0  0
  -26.0337  -29.4072   20.7146 C   0  0  0  0  0  0
  -27.2115  -28.6018   20.7062 C   0  0  0  0  0  0
  -26.0213  -26.8685   19.5023 C   0  0  0  0  0  0
  -24.8615  -27.6675   19.4985 C   0  0  0  0  0  0
  -23.6356  -29.8139   20.1591 C   0  0  0  0  0  0
  -25.4120  -36.3071   24.0326 C   0  0  1  0  0  0
  -20.5873  -28.3676   23.1282 C   0  0  2  0  0  0
  -20.6765  -26.9399   22.5411 C   0  0  0  0  0  0
  -19.5747  -26.6374   21.5208 C   0  0  0  0  0  0
  -18.1925  -26.7920   22.1621 C   0  0  0  0  0  0
  -19.1527  -28.8850   23.2879 C   0  0  0  0  0  0
  -18.9451  -30.1451   23.8890 C   0  0  0  0  0  0
  -17.6455  -30.6588   24.0553 C   0  0  0  0  0  0
  -25.9057  -34.9448   23.5086 C   0  0  0  0  0  0
  -16.5343  -29.9086   23.6329 C   0  0  0  0  0  0
  -16.7266  -28.6502   23.0355 C   0  0  0  0  0  0
  -26.4480  -31.6597   25.0721 C   0  0  0  0  0  0
  -25.3718  -31.3753   26.1459 C   0  0  0  0  0  0
  -27.0304  -30.3007   24.6202 C   0  0  0  0  0  0
  -27.6037  -32.4344   25.7486 C   0  0  0  0  0  0
  -27.5582  -37.1797   24.8460 C   0  0  0  0  0  0
  -21.4180  -29.3023   22.3672 N   0  0  0  0  0  0
  -26.4292  -37.3773   23.9402 N   0  0  0  0  0  0
  -24.6885  -31.0570   22.0956 N   0  0  0  0  0  0
  -23.4191  -28.8141   23.3003 O   0  0  0  0  0  0
  -28.3620  -26.4797   20.1795 O   0  0  0  0  0  0
  -26.5631  -34.8920   22.4656 O   0  0  0  0  0  0
  -23.5423  -32.1369   23.7338 O   0  0  0  0  0  0
  -30.4711  -19.1873   20.0932 C   0  0  0  0  0  0
  -28.5570  -19.0847   21.5345 C   0  0  0  0  0  0
  -30.6516  -17.7739   20.2153 C   0  0  0  0  0  0
  -28.7465  -17.6768   21.6715 C   0  0  0  0  0  0
  -29.4412  -19.8949   20.7779 C   0  0  0  0  0  0
  -29.8284  -16.9759   21.0602 C   0  0  0  0  0  0
  -30.5054  -14.2803   23.5337 C   0  0  0  0  0  0
  -30.2271  -15.4061   22.8443 C   0  0  0  0  0  0
  -27.7983  -20.9004   18.1342 C   0  0  0  0  0  0
  -29.9051  -22.3271   18.0104 C   0  0  0  0  0  0
  -29.4203  -21.4760   20.8826 C   0  0  0  0  0  0
  -28.3183  -23.8211   20.6100 C   0  0  0  0  0  0
  -28.4329  -25.0959   19.6350 C   0  0  0  0  0  0
  -28.4926  -22.1928   18.6074 C   0  0  0  0  0  0
  -30.1310  -15.5784   21.4399 N   0  0  0  0  0  0
  -28.4568  -22.3643   20.0941 N   0  3  1  0  0  0
  -31.4705  -12.5374   19.1565 H   0  0  0  0  0  0
  -30.3711  -11.4118   19.8923 H   0  0  0  0  0  0
  -29.7803  -11.7750   17.4829 H   0  0  0  0  0  0
  -29.6448  -13.4950   17.7492 H   0  0  0  0  0  0
  -27.8772  -11.2984   18.8627 H   0  0  0  0  0  0
  -27.3731  -12.5767   17.7910 H   0  0  0  0  0  0
  -27.6774  -14.2602   19.5277 H   0  0  0  0  0  0
  -28.6957  -12.0512   21.3789 H   0  0  0  0  0  0
  -28.3956  -13.7005   21.8344 H   0  0  0  0  0  0
  -25.2751   -9.5690   22.4735 H   0  0  0  0  0  0
  -23.9985   -7.4648   22.7466 H   0  0  0  0  0  0
  -21.0816   -8.8772   19.8981 H   0  0  0  0  0  0
  -22.3655  -10.9668   19.6153 H   0  0  0  0  0  0
  -21.2001   -7.6141   23.9709 H   0  0  0  0  0  0
  -21.1480   -6.0517   25.9075 H   0  0  0  0  0  0
  -22.0602   -2.7599   23.2843 H   0  0  0  0  0  0
  -22.4066  -11.9928   22.4841 H   0  0  0  0  0  0
  -21.1070  -13.1298   22.2580 H   0  0  0  0  0  0
  -24.6856  -15.8591   20.5812 H   0  0  0  0  0  0
  -26.3003  -15.6266   20.1363 H   0  0  0  0  0  0
  -26.7152  -32.5412   23.1067 H   0  0  0  0  0  0
  -25.0054  -33.9709   25.0386 H   0  0  0  0  0  0
  -22.7144  -31.3009   21.3988 H   0  0  0  0  0  0
  -23.3759  -35.9612   23.3311 H   0  0  0  0  0  0
  -24.3566  -36.8904   22.2051 H   0  0  0  0  0  0
  -23.7253  -37.6496   23.6655 H   0  0  0  0  0  0
  -26.1007  -31.5464   20.6100 H   0  0  0  0  0  0
  -26.8401  -30.8216   22.0084 H   0  0  0  0  0  0
  -28.1119  -28.9658   21.1819 H   0  0  0  0  0  0
  -25.9318  -25.9009   19.0366 H   0  0  0  0  0  0
  -23.9615  -27.2932   19.0309 H   0  0  0  0  0  0
  -23.7576  -30.5890   19.4013 H   0  0  0  0  0  0
  -22.7553  -29.2439   19.8575 H   0  0  0  0  0  0
  -25.1313  -36.1912   25.0825 H   0  0  0  0  0  0
  -20.9966  -28.3242   24.1399 H   0  0  0  0  0  0
  -20.5644  -26.2279   23.3603 H   0  0  0  0  0  0
  -21.6636  -26.7412   22.1208 H   0  0  0  0  0  0
  -19.6901  -25.6281   21.1240 H   0  0  0  0  0  0
  -19.6707  -27.3179   20.6733 H   0  0  0  0  0  0
  -17.4196  -26.6658   21.4023 H   0  0  0  0  0  0
  -18.0334  -26.0058   22.9015 H   0  0  0  0  0  0
  -19.7939  -30.7255   24.2260 H   0  0  0  0  0  0
  -17.5021  -31.6275   24.5145 H   0  0  0  0  0  0
  -15.5346  -30.2987   23.7670 H   0  0  0  0  0  0
  -15.8660  -28.0823   22.7074 H   0  0  0  0  0  0
  -24.5900  -30.7080   25.7808 H   0  0  0  0  0  0
  -24.8902  -32.2926   26.4862 H   0  0  0  0  0  0
  -25.8059  -30.8966   27.0249 H   0  0  0  0  0  0
  -26.2870  -29.6781   24.1205 H   0  0  0  0  0  0
  -27.3944  -29.7250   25.4723 H   0  0  0  0  0  0
  -27.8774  -30.4269   23.9454 H   0  0  0  0  0  0
  -27.2633  -33.3639   26.2067 H   0  0  0  0  0  0
  -28.3844  -32.6926   25.0313 H   0  0  0  0  0  0
  -28.0711  -31.8474   26.5406 H   0  0  0  0  0  0
  -28.2602  -38.0089   24.7499 H   0  0  0  0  0  0
  -28.1071  -36.2621   24.6293 H   0  0  0  0  0  0
  -27.2287  -37.1467   25.8858 H   0  0  0  0  0  0
  -20.9340  -29.8757   21.6904 H   0  0  0  0  0  0
  -26.0173  -38.2839   24.1427 H   0  0  0  0  0  0
  -31.1997  -19.7394   19.5174 H   0  0  0  0  0  0
  -27.7588  -19.5537   22.0921 H   0  0  0  0  0  0
  -31.5035  -17.3291   19.7196 H   0  0  0  0  0  0
  -28.0727  -17.1416   22.3272 H   0  0  0  0  0  0
  -30.5554  -14.3068   24.6132 H   0  0  0  0  0  0
  -30.6864  -13.3203   23.0719 H   0  0  0  0  0  0
  -30.0701  -16.3193   23.4012 H   0  0  0  0  0  0
  -27.7526  -20.8756   17.0450 H   0  0  0  0  0  0
  -26.7716  -20.8393   18.4957 H   0  0  0  0  0  0
  -28.3168  -19.9930   18.4363 H   0  0  0  0  0  0
  -29.8534  -22.3838   16.9233 H   0  0  0  0  0  0
  -30.5320  -21.4715   18.2508 H   0  0  0  0  0  0
  -30.4202  -23.2206   18.3577 H   0  0  0  0  0  0
  -30.4347  -21.8351   20.7049 H   0  0  0  0  0  0
  -29.2408  -21.6807   21.9385 H   0  0  0  0  0  0
  -27.3384  -23.8724   21.0871 H   0  0  0  0  0  0
  -29.0312  -23.9676   21.4216 H   0  0  0  0  0  0
  -27.7719  -24.9993   18.7797 H   0  0  0  0  0  0
  -29.4287  -25.0541   19.1965 H   0  0  0  0  0  0
  -27.8769  -22.9727   18.1680 H   0  0  0  0  0  0
  -27.5583  -21.9752   20.3394 H   0  0  0  0  0  0
  1 25  1  0  0  0
  1 30  2  0  0  0
  1 85  1  0  0  0
  2  3  1  0  0  0
  2 25  1  0  0  0
  2 87  1  0  0  0
  2 88  1  0  0  0
  3  4  1  0  0  0
  3 89  1  0  0  0
  3 90  1  0  0  0
  4  5  1  0  0  0
  4 91  1  0  0  0
  4 92  1  0  0  0
  5  6  1  0  0  0
  5 26  1  0  0  0
  5 93  1  0  0  0
  6 25  1  0  0  0
  6 94  1  0  0  0
  6 95  1  0  0  0
  7  8  2  0  0  0
  7 26  1  0  0  0
  7 29  1  0  0  0
  8  9  1  0  0  0
  8 22  1  0  0  0
  9 10  1  0  0  0
  9 27  2  0  0  0
 10 11  2  0  0  0
 10 15  1  0  0  0
 11 12  1  0  0  0
 11 96  1  0  0  0
 12 13  2  0  0  0
 12 97  1  0  0  0
 13 14  1  0  0  0
 13 31  1  0  0  0
 14 15  2  0  0  0
 14 98  1  0  0  0
 15 99  1  0  0  0
 16 17  2  0  0  0
 16 21  1  0  0  0
 16 31  1  0  0  0
 17 18  1  0  0  0
 17100  1  0  0  0
 18 19  2  0  0  0
 18101  1  0  0  0
 19 20  1  0  0  0
 19 24  1  0  0  0
 20 21  2  0  0  0
 20102  1  0  0  0
 21 23  1  0  0  0
 22 28  1  0  0  0
 22 32  2  0  0  0
 26 27  1  0  0  0
 28103  1  0  0  0
 28104  1  0  0  0
 29105  1  0  0  0
 29106  1  0  0  0
 33 34  1  0  0  0
 33 66  1  0  0  0
 33 70  2  0  0  0
 34 36  1  0  0  0
 34 59  1  0  0  0
 34107  1  0  0  0
 35 44  2  0  0  0
 35 45  1  0  0  0
 35 68  1  0  0  0
 36 56  1  0  0  0
 36108  1  0  0  0
 37 39  1  0  0  0
 37 47  1  0  0  0
 37 66  1  0  0  0
 37109  1  0  0  0
 38 43  2  0  0  0
 38 46  1  0  0  0
 38 47  1  0  0  0
 39 64  1  0  0  0
 39 67  2  0  0  0
 40 52  1  0  0  0
 40 53  2  0  0  0
 40 58  1  0  0  0
 41110  1  0  0  0
 41111  1  0  0  0
 41112  1  0  0  0
 41 48  1  0  0  0
 42 43  1  0  0  0
 42 66  1  0  0  0
 42113  1  0  0  0
 42114  1  0  0  0
 43 44  1  0  0  0
 44115  1  0  0  0
 45 46  2  0  0  0
 45116  1  0  0  0
 46117  1  0  0  0
 47118  1  0  0  0
 47119  1  0  0  0
 48 56  1  0  0  0
 48 65  1  0  0  0
 48120  1  0  0  0
 49 50  1  0  0  0
 49 53  1  0  0  0
 49 64  1  0  0  0
 49121  1  0  0  0
 50 51  1  0  0  0
 50122  1  0  0  0
 50123  1  0  0  0
 51 52  1  0  0  0
 51124  1  0  0  0
 51125  1  0  0  0
 52126  1  0  0  0
 52127  1  0  0  0
 53 54  1  0  0  0
 54 55  2  0  0  0
 54128  1  0  0  0
 55 57  1  0  0  0
 55129  1  0  0  0
 56 69  2  0  0  0
 57 58  2  0  0  0
 57130  1  0  0  0
 58131  1  0  0  0
 59 60  1  0  0  0
 59 61  1  0  0  0
 59 62  1  0  0  0
 60132  1  0  0  0
 60133  1  0  0  0
 60134  1  0  0  0
 61135  1  0  0  0
 61136  1  0  0  0
 61137  1  0  0  0
 62138  1  0  0  0
 62139  1  0  0  0
 62140  1  0  0  0
 63 65  1  0  0  0
 63141  1  0  0  0
 63142  1  0  0  0
 63143  1  0  0  0
 64144  1  0  0  0
 65145  1  0  0  0
 68 83  1  0  0  0
 71 73  2  0  0  0
 71 75  1  0  0  0
 71146  1  0  0  0
 72 74  1  0  0  0
 72 75  2  0  0  0
 72147  1  0  0  0
 73 76  1  0  0  0
 73148  1  0  0  0
 74 76  2  0  0  0
 74149  1  0  0  0
 75 81  1  0  0  0
 76 85  1  0  0  0
 77 78  2  0  0  0
 77150  1  0  0  0
 77151  1  0  0  0
 78 85  1  0  0  0
 78152  1  0  0  0
 79153  1  0  0  0
 79154  1  0  0  0
 79155  1  0  0  0
 79 84  1  0  0  0
 80 84  1  0  0  0
 80156  1  0  0  0
 80157  1  0  0  0
 80158  1  0  0  0
 81159  1  0  0  0
 81160  1  0  0  0
 81 86  1  0  0  0
 82 83  1  0  0  0
 82 86  1  0  0  0
 82161  1  0  0  0
 82162  1  0  0  0
 83163  1  0  0  0
 83164  1  0  0  0
 84 86  1  0  0  0
 84165  1  0  0  0
 86166  1  0  0  0
M  CHG  1  86   1
M  ISO  4   1 100  68 101  83 101  85 100
M  END
> <chiral flag>
0

> <version>
0

> <s_m_source_file>
/data/baiqing/PycharmProjects/Reinvent-master-3.2/result/LINK_invent/BTK/process_docking_weight1_custom_product_contain_oxygen_bond_distance_aromatic_linkinvent_7_9_3/rearranged_h_0017.sdf

> <i_m_source_file_index>
93

> <r_mmod_Potential_Energy-OPLS-2005>
231.854034423828

> <r_mmod_Stretch_Energy-OPLS-2005>
101.990165710449

> <r_mmod_Bend_Energy-OPLS-2005>
185.10188293457

> <r_mmod_Torsional_Energy-OPLS-2005>
304.374328613281

> <r_mmod_Improper_Torsional_Energy-OPLS-2005>
4.61425590515137

> <r_mmod_Van_der_Waal_Energy-OPLS-2005>
156.358062744141

> <r_mmod_Electrostatic_Energy-OPLS-2005>
-157.603759765625

> <r_mmod_Solvation_Energy-OPLS-2005>
-408.727478027344

> <b_mmod_Minimization_Converged-OPLS-2005>
0

> <r_mmod_RMS_Derivative-OPLS-2005>
2.38800191879272

$$$$
94
                    3D
 Structure written by MMmdl.
158166  0  0  1  0            999 V2000
  -30.6962  -14.4084   20.5962 C   0  0  0  0  0  0
  -30.4263  -12.2668   19.4176 C   0  0  0  0  0  0
  -29.4969  -12.5091   18.2082 C   0  0  0  0  0  0
  -28.0153  -12.3785   18.6146 C   0  0  0  0  0  0
  -27.6725  -13.1927   19.8908 C   0  0  2  0  0  0
  -28.7096  -12.9159   21.0067 C   0  0  0  0  0  0
  -25.2631  -13.8142   20.5663 C   0  0  0  0  0  0
  -24.1859  -13.0440   20.9159 C   0  0  0  0  0  0
  -24.6393  -11.6895   20.8728 C   0  0  0  0  0  0
  -23.9052  -10.4290   21.0406 C   0  0  0  0  0  0
  -24.3605   -9.4199   21.9177 C   0  0  0  0  0  0
  -23.6283   -8.2234   22.0745 C   0  0  0  0  0  0
  -22.4268   -8.0273   21.3535 C   0  0  0  0  0  0
  -21.9898   -9.0250   20.4640 C   0  0  0  0  0  0
  -22.7222  -10.2130   20.3056 C   0  0  0  0  0  0
  -21.6850   -6.0730   22.5278 C   0  0  0  0  0  0
  -21.4010   -6.5638   23.8211 C   0  0  0  0  0  0
  -21.3657   -5.6787   24.9168 C   0  0  0  0  0  0
  -21.6043   -4.3052   24.7222 C   0  0  0  0  0  0
  -21.8825   -3.8141   23.4349 C   0  0  0  0  0  0
  -21.9194   -4.6957   22.3403 C   0  0  0  0  0  0
  -22.7885  -13.5243   21.1827 C   0  0  0  0  0  0
  -22.1662   -4.2141   21.0984 F   0  0  0  0  0  0
  -21.5626   -3.4537   25.7738 F   0  0  0  0  0  0
  -30.0545  -13.2162   20.4762 N   0  0  0  0  0  0
  -26.3074  -12.9280   20.3415 N   0  0  0  0  0  0
  -25.9316  -11.6456   20.5778 N   0  0  0  0  0  0
  -22.0522  -12.8242   22.0392 N   0  0  0  0  0  0
  -25.4389  -15.1850   20.4058 N   0  0  0  0  0  0
  -31.7671  -14.6736   20.0423 O   0  0  0  0  0  0
  -21.6629   -6.8866   21.4239 O   0  0  0  0  0  0
  -22.3571  -14.5546   20.6669 O   0  0  0  0  0  0
  -24.6095  -31.8702   23.2106 C   0  0  0  0  0  0
  -25.8993  -32.4851   23.8403 C   0  0  1  0  0  0
  -27.2579  -27.4870   20.0745 C   0  0  0  0  0  0
  -25.5851  -33.8645   24.2331 N   0  0  0  0  0  0
  -23.3988  -30.4894   21.5512 C   0  0  2  0  0  0
  -24.8502  -28.9566   20.1191 C   0  0  0  0  0  0
  -22.7399  -29.4658   22.5024 C   0  0  0  0  0  0
  -18.0271  -28.1375   22.8504 C   0  0  0  0  0  0
  -24.1471  -36.7326   23.2643 C   0  0  0  0  0  0
  -25.9210  -30.8497   21.3567 C   0  0  0  0  0  0
  -26.0054  -29.4851   20.7090 C   0  0  0  0  0  0
  -27.2114  -28.7555   20.6920 C   0  0  0  0  0  0
  -26.0851  -26.9511   19.5057 C   0  0  0  0  0  0
  -24.8816  -27.6842   19.5186 C   0  0  0  0  0  0
  -23.6061  -29.8143   20.1680 C   0  0  0  0  0  0
  -25.4098  -36.3134   24.0341 C   0  0  1  0  0  0
  -20.5860  -28.3647   23.1343 C   0  0  2  0  0  0
  -20.6761  -26.9384   22.5434 C   0  0  0  0  0  0
  -19.5743  -26.6387   21.5221 C   0  0  0  0  0  0
  -18.1920  -26.7922   22.1631 C   0  0  0  0  0  0
  -19.1524  -28.8828   23.2924 C   0  0  0  0  0  0
  -18.9452  -30.1436   23.8935 C   0  0  0  0  0  0
  -17.6457  -30.6583   24.0575 C   0  0  0  0  0  0
  -25.9023  -34.9498   23.5143 C   0  0  0  0  0  0
  -16.5347  -29.9093   23.6328 C   0  0  0  0  0  0
  -16.7260  -28.6509   23.0351 C   0  0  0  0  0  0
  -26.4436  -31.6632   25.0719 C   0  0  0  0  0  0
  -25.3710  -31.3743   26.1480 C   0  0  0  0  0  0
  -27.0256  -30.3080   24.6068 C   0  0  0  0  0  0
  -27.6038  -32.4346   25.7444 C   0  0  0  0  0  0
  -27.5578  -37.1810   24.8462 C   0  0  0  0  0  0
  -21.4134  -29.3006   22.3746 N   0  0  0  0  0  0
  -26.4293  -37.3811   23.9411 N   0  0  0  0  0  0
  -24.6612  -31.0832   22.0991 N   0  0  0  0  0  0
  -23.4181  -28.8225   23.3077 O   0  0  0  0  0  0
  -28.4110  -26.7430   20.0389 O   0  0  0  0  0  0
  -26.5605  -34.8944   22.4716 O   0  0  0  0  0  0
  -23.5295  -32.1424   23.7520 O   0  0  0  0  0  0
  -30.8729  -18.8993   20.8166 C   0  0  0  0  0  0
  -30.3772  -17.7845   20.7735 C   0  0  0  0  0  0
  -31.6203  -20.7968   19.4189 C   0  0  0  0  0  0
  -31.8812  -22.1709   19.2489 C   0  0  0  0  0  0
  -31.2132  -21.1614   21.7951 C   0  0  0  0  0  0
  -31.2696  -20.2920   20.6875 C   0  0  0  0  0  0
  -31.7887  -23.0512   20.3487 C   0  0  0  0  0  0
  -31.4700  -22.5366   21.6260 C   0  0  0  0  0  0
  -29.5823  -16.5773   20.5025 C   0  0  0  0  0  0
  -32.0049  -24.5439   20.1534 C   0  0  0  0  0  0
  -30.8033  -26.6881   19.7513 C   0  0  0  0  0  0
  -29.4790  -27.3075   19.2783 C   0  0  0  0  0  0
  -29.9699  -15.3546   21.2019 N   0  0  0  0  0  0
  -30.7529  -25.2074   19.7342 N   0  3  0  0  0  0
  -31.3763  -23.3698   22.6896 F   0  0  0  0  0  0
  -31.4715  -12.3672   19.1199 H   0  0  0  0  0  0
  -30.3202  -11.2434   19.7807 H   0  0  0  0  0  0
  -29.7264  -11.8002   17.4123 H   0  0  0  0  0  0
  -29.6784  -13.5027   17.7940 H   0  0  0  0  0  0
  -27.8105  -11.3207   18.7829 H   0  0  0  0  0  0
  -27.3709  -12.6826   17.7885 H   0  0  0  0  0  0
  -27.7351  -14.2478   19.6270 H   0  0  0  0  0  0
  -28.6674  -11.8675   21.3062 H   0  0  0  0  0  0
  -28.4702  -13.4765   21.9114 H   0  0  0  0  0  0
  -25.2756   -9.5661   22.4744 H   0  0  0  0  0  0
  -23.9985   -7.4625   22.7467 H   0  0  0  0  0  0
  -21.0821   -8.8775   19.8953 H   0  0  0  0  0  0
  -22.3685  -10.9671   19.6164 H   0  0  0  0  0  0
  -21.2001   -7.6145   23.9715 H   0  0  0  0  0  0
  -21.1474   -6.0513   25.9070 H   0  0  0  0  0  0
  -22.0609   -2.7603   23.2855 H   0  0  0  0  0  0
  -22.4141  -11.9905   22.4786 H   0  0  0  0  0  0
  -21.1144  -13.1267   22.2603 H   0  0  0  0  0  0
  -24.6746  -15.8440   20.5114 H   0  0  0  0  0  0
  -26.2978  -15.6194   20.0934 H   0  0  0  0  0  0
  -26.7074  -32.5589   23.1189 H   0  0  0  0  0  0
  -24.9953  -33.9809   25.0442 H   0  0  0  0  0  0
  -22.6855  -31.3042   21.4098 H   0  0  0  0  0  0
  -23.3728  -35.9667   23.3341 H   0  0  0  0  0  0
  -24.3550  -36.8899   22.2049 H   0  0  0  0  0  0
  -23.7225  -37.6545   23.6628 H   0  0  0  0  0  0
  -26.0217  -31.6150   20.5860 H   0  0  0  0  0  0
  -26.8126  -30.9106   21.9687 H   0  0  0  0  0  0
  -28.1000  -29.1653   21.1517 H   0  0  0  0  0  0
  -26.1091  -25.9757   19.0404 H   0  0  0  0  0  0
  -23.9930  -27.2670   19.0653 H   0  0  0  0  0  0
  -23.7043  -30.5846   19.4022 H   0  0  0  0  0  0
  -22.7348  -29.2239   19.8801 H   0  0  0  0  0  0
  -25.1274  -36.2013   25.0835 H   0  0  0  0  0  0
  -20.9952  -28.3202   24.1465 H   0  0  0  0  0  0
  -20.5653  -26.2250   23.3616 H   0  0  0  0  0  0
  -21.6636  -26.7430   22.1232 H   0  0  0  0  0  0
  -19.6905  -25.6309   21.1216 H   0  0  0  0  0  0
  -19.6687  -27.3234   20.6777 H   0  0  0  0  0  0
  -17.4191  -26.6682   21.4028 H   0  0  0  0  0  0
  -18.0316  -26.0059   22.9026 H   0  0  0  0  0  0
  -19.7930  -30.7237   24.2333 H   0  0  0  0  0  0
  -17.5014  -31.6259   24.5183 H   0  0  0  0  0  0
  -15.5349  -30.3009   23.7638 H   0  0  0  0  0  0
  -15.8662  -28.0839   22.7051 H   0  0  0  0  0  0
  -24.5862  -30.7117   25.7814 H   0  0  0  0  0  0
  -24.8923  -32.2908   26.4947 H   0  0  0  0  0  0
  -25.8056  -30.8888   27.0226 H   0  0  0  0  0  0
  -26.2781  -29.6848   24.1147 H   0  0  0  0  0  0
  -27.4061  -29.7318   25.4511 H   0  0  0  0  0  0
  -27.8599  -30.4419   23.9179 H   0  0  0  0  0  0
  -27.2677  -33.3630   26.2075 H   0  0  0  0  0  0
  -28.3791  -32.6937   25.0221 H   0  0  0  0  0  0
  -28.0770  -31.8441   26.5298 H   0  0  0  0  0  0
  -28.2630  -38.0077   24.7499 H   0  0  0  0  0  0
  -28.1036  -36.2613   24.6300 H   0  0  0  0  0  0
  -27.2295  -37.1481   25.8866 H   0  0  0  0  0  0
  -20.9305  -29.8671   21.6916 H   0  0  0  0  0  0
  -26.0188  -38.2893   24.1420 H   0  0  0  0  0  0
  -31.6575  -20.1366   18.5622 H   0  0  0  0  0  0
  -32.1290  -22.5452   18.2648 H   0  0  0  0  0  0
  -30.9374  -20.7883   22.7706 H   0  0  0  0  0  0
  -29.5893  -16.4226   19.4211 H   0  0  0  0  0  0
  -28.5496  -16.8057   20.7674 H   0  0  0  0  0  0
  -32.7794  -24.7119   19.4035 H   0  0  0  0  0  0
  -32.3714  -24.9840   21.0817 H   0  0  0  0  0  0
  -31.0227  -27.0323   20.7624 H   0  0  0  0  0  0
  -31.6163  -27.0374   19.1131 H   0  0  0  0  0  0
  -29.3149  -27.0959   18.2207 H   0  0  0  0  0  0
  -29.5331  -28.3926   19.3780 H   0  0  0  0  0  0
  -29.2450  -14.9812   21.7971 H   0  0  0  0  0  0
  -30.0138  -24.9184   20.3558 H   0  0  0  0  0  0
  -30.5125  -24.8832   18.8110 H   0  0  0  0  0  0
  1 25  1  0  0  0
  1 30  2  0  0  0
  1 83  1  0  0  0
  2  3  1  0  0  0
  2 25  1  0  0  0
  2 86  1  0  0  0
  2 87  1  0  0  0
  3  4  1  0  0  0
  3 88  1  0  0  0
  3 89  1  0  0  0
  4  5  1  0  0  0
  4 90  1  0  0  0
  4 91  1  0  0  0
  5  6  1  0  0  0
  5 26  1  0  0  0
  5 92  1  0  0  0
  6 25  1  0  0  0
  6 93  1  0  0  0
  6 94  1  0  0  0
  7  8  2  0  0  0
  7 26  1  0  0  0
  7 29  1  0  0  0
  8  9  1  0  0  0
  8 22  1  0  0  0
  9 10  1  0  0  0
  9 27  2  0  0  0
 10 11  2  0  0  0
 10 15  1  0  0  0
 11 12  1  0  0  0
 11 95  1  0  0  0
 12 13  2  0  0  0
 12 96  1  0  0  0
 13 14  1  0  0  0
 13 31  1  0  0  0
 14 15  2  0  0  0
 14 97  1  0  0  0
 15 98  1  0  0  0
 16 17  2  0  0  0
 16 21  1  0  0  0
 16 31  1  0  0  0
 17 18  1  0  0  0
 17 99  1  0  0  0
 18 19  2  0  0  0
 18100  1  0  0  0
 19 20  1  0  0  0
 19 24  1  0  0  0
 20 21  2  0  0  0
 20101  1  0  0  0
 21 23  1  0  0  0
 22 28  1  0  0  0
 22 32  2  0  0  0
 26 27  1  0  0  0
 28102  1  0  0  0
 28103  1  0  0  0
 29104  1  0  0  0
 29105  1  0  0  0
 33 34  1  0  0  0
 33 66  1  0  0  0
 33 70  2  0  0  0
 34 36  1  0  0  0
 34 59  1  0  0  0
 34106  1  0  0  0
 35 44  2  0  0  0
 35 45  1  0  0  0
 35 68  1  0  0  0
 36 56  1  0  0  0
 36107  1  0  0  0
 37 39  1  0  0  0
 37 47  1  0  0  0
 37 66  1  0  0  0
 37108  1  0  0  0
 38 43  2  0  0  0
 38 46  1  0  0  0
 38 47  1  0  0  0
 39 64  1  0  0  0
 39 67  2  0  0  0
 40 52  1  0  0  0
 40 53  2  0  0  0
 40 58  1  0  0  0
 41109  1  0  0  0
 41110  1  0  0  0
 41111  1  0  0  0
 41 48  1  0  0  0
 42 43  1  0  0  0
 42 66  1  0  0  0
 42112  1  0  0  0
 42113  1  0  0  0
 43 44  1  0  0  0
 44114  1  0  0  0
 45 46  2  0  0  0
 45115  1  0  0  0
 46116  1  0  0  0
 47117  1  0  0  0
 47118  1  0  0  0
 48 56  1  0  0  0
 48 65  1  0  0  0
 48119  1  0  0  0
 49 50  1  0  0  0
 49 53  1  0  0  0
 49 64  1  0  0  0
 49120  1  0  0  0
 50 51  1  0  0  0
 50121  1  0  0  0
 50122  1  0  0  0
 51 52  1  0  0  0
 51123  1  0  0  0
 51124  1  0  0  0
 52125  1  0  0  0
 52126  1  0  0  0
 53 54  1  0  0  0
 54 55  2  0  0  0
 54127  1  0  0  0
 55 57  1  0  0  0
 55128  1  0  0  0
 56 69  2  0  0  0
 57 58  2  0  0  0
 57129  1  0  0  0
 58130  1  0  0  0
 59 60  1  0  0  0
 59 61  1  0  0  0
 59 62  1  0  0  0
 60131  1  0  0  0
 60132  1  0  0  0
 60133  1  0  0  0
 61134  1  0  0  0
 61135  1  0  0  0
 61136  1  0  0  0
 62137  1  0  0  0
 62138  1  0  0  0
 62139  1  0  0  0
 63 65  1  0  0  0
 63140  1  0  0  0
 63141  1  0  0  0
 63142  1  0  0  0
 64143  1  0  0  0
 65144  1  0  0  0
 68 82  1  0  0  0
 71 72  3  0  0  0
 71 76  1  0  0  0
 72 79  1  0  0  0
 73 74  2  0  0  0
 73 76  1  0  0  0
 73145  1  0  0  0
 74 77  1  0  0  0
 74146  1  0  0  0
 75 76  2  0  0  0
 75 78  1  0  0  0
 75147  1  0  0  0
 77 78  2  0  0  0
 77 80  1  0  0  0
 78 85  1  0  0  0
 79 83  1  0  0  0
 79148  1  0  0  0
 79149  1  0  0  0
 80 84  1  0  0  0
 80150  1  0  0  0
 80151  1  0  0  0
 81 82  1  0  0  0
 81 84  1  0  0  0
 81152  1  0  0  0
 81153  1  0  0  0
 82154  1  0  0  0
 82155  1  0  0  0
 83156  1  0  0  0
 84157  1  0  0  0
 84158  1  0  0  0
M  CHG  1  84   1
M  ISO  4   1 100  68 101  82 101  83 100
M  END
> <chiral flag>
0

> <version>
0

> <s_m_source_file>
/data/baiqing/PycharmProjects/Reinvent-master-3.2/result/LINK_invent/BTK/process_docking_weight1_custom_product_contain_oxygen_bond_distance_aromatic_linkinvent_7_9_3/rearranged_h_0017.sdf

> <i_m_source_file_index>
94

> <r_mmod_Potential_Energy-OPLS-2005>
-261.145202636719

> <r_mmod_Stretch_Energy-OPLS-2005>
31.2353553771973

> <r_mmod_Bend_Energy-OPLS-2005>
94.5044403076172

> <r_mmod_Torsional_Energy-OPLS-2005>
246.214401245117

> <r_mmod_Improper_Torsional_Energy-OPLS-2005>
8.41440868377686

> <r_mmod_Van_der_Waal_Energy-OPLS-2005>
146.512512207031

> <r_mmod_Electrostatic_Energy-OPLS-2005>
-342.319641113281

> <r_mmod_Solvation_Energy-OPLS-2005>
-453.254547119141

> <b_mmod_Minimization_Converged-OPLS-2005>
0

> <r_mmod_RMS_Derivative-OPLS-2005>
1.43505656719208

$$$$
