0
     RDKit          3D

155163  0  0  0  0  0  0  0  0999 V2000
  -30.7652  -14.3608   20.6636 C   0  0  0  0  0  0  0  0  0100  0  0
  -30.4392  -12.2669   19.3775 C   0  0  0  0  0  0  0  0  0101  0  0
  -29.4791  -12.5281   18.1977 C   0  0  0  0  0  0  0  0  0102  0  0
  -27.9985  -12.3963   18.6038 C   0  0  0  0  0  0  0  0  0103  0  0
  -27.6639  -13.2170   19.8820 C   0  0  2  0  0  0  0  0  0104  0  0
  -28.6795  -12.9602   21.0279 C   0  0  0  0  0  0  0  0  0105  0  0
  -25.2633  -13.8245   20.5754 C   0  0  0  0  0  0  0  0  0106  0  0
  -24.1645  -13.0409   20.9408 C   0  0  0  0  0  0  0  0  0107  0  0
  -24.6400  -11.7009   20.8697 C   0  0  0  0  0  0  0  0  0108  0  0
  -23.9005  -10.4085   21.0420 C   0  0  0  0  0  0  0  0  0109  0  0
  -24.3588   -9.4123   21.9123 C   0  0  0  0  0  0  0  0  0110  0  0
  -23.6296   -8.2350   22.0803 C   0  0  0  0  0  0  0  0  0111  0  0
  -22.4385   -8.0419   21.3657 C   0  0  0  0  0  0  0  0  0112  0  0
  -22.0103   -9.0167   20.4678 C   0  0  0  0  0  0  0  0  0113  0  0
  -22.7317  -10.1925   20.3102 C   0  0  0  0  0  0  0  0  0114  0  0
  -21.6857   -6.0709   22.5391 C   0  0  0  0  0  0  0  0  0115  0  0
  -21.4064   -6.5490   23.8264 C   0  0  0  0  0  0  0  0  0116  0  0
  -21.3635   -5.6677   24.9085 C   0  0  0  0  0  0  0  0  0117  0  0
  -21.5973   -4.3067   24.7088 C   0  0  0  0  0  0  0  0  0118  0  0
  -21.8700   -3.8284   23.4282 C   0  0  0  0  0  0  0  0  0119  0  0
  -21.9144   -4.7056   22.3460 C   0  0  0  0  0  0  0  0  0120  0  0
  -22.8194  -13.5263   21.1763 C   0  0  0  0  0  0  0  0  0121  0  0
  -22.1559   -4.2206   21.1063 F   0  0  0  0  0  0  0  0  0122  0  0
  -21.5628   -3.4510   25.7555 F   0  0  0  0  0  0  0  0  0123  0  0
  -30.0261  -13.1803   20.4553 N   0  0  0  0  0  0  0  0  0124  0  0
  -26.2911  -12.9356   20.3443 N   0  0  0  0  0  0  0  0  0125  0  0
  -25.9236  -11.6675   20.5847 N   0  0  0  0  0  0  0  0  0126  0  0
  -22.0708  -12.7905   22.0005 N   0  0  0  0  0  0  0  0  0127  0  0
  -25.4117  -15.1773   20.4097 N   0  0  0  0  0  0  0  0  0128  0  0
  -31.7916  -14.6724   20.0536 O   0  0  0  0  0  0  0  0  0129  0  0
  -21.6670   -6.9022   21.4423 O   0  0  0  0  0  0  0  0  0130  0  0
  -22.3946  -14.5564   20.6568 O   0  0  0  0  0  0  0  0  0131  0  0
  -24.6048  -31.8614   23.2223 C   0  0  0  0  0  0  0  0  0100  0  0
  -25.8822  -32.4841   23.8616 C   0  0  1  0  0  0  0  0  0101  0  0
  -27.2536  -27.5042   20.1156 C   0  0  0  0  0  0  0  0  0102  0  0
  -25.5726  -33.8762   24.2210 N   0  0  0  0  0  0  0  0  0103  0  0
  -23.4066  -30.4859   21.5461 C   0  0  2  0  0  0  0  0  0104  0  0
  -24.8467  -28.9636   20.1247 C   0  0  0  0  0  0  0  0  0105  0  0
  -22.7412  -29.4652   22.5052 C   0  0  0  0  0  0  0  0  0106  0  0
  -18.0167  -28.1302   22.8626 C   0  0  0  0  0  0  0  0  0107  0  0
  -24.1342  -36.7390   23.2568 C   0  0  0  0  0  0  0  0  0108  0  0
  -25.9141  -30.8882   21.3456 C   0  0  0  0  0  0  0  0  0109  0  0
  -25.9930  -29.5029   20.7208 C   0  0  0  0  0  0  0  0  0110  0  0
  -27.1758  -28.7612   20.7331 C   0  0  0  0  0  0  0  0  0111  0  0
  -26.1032  -26.9836   19.5230 C   0  0  0  0  0  0  0  0  0112  0  0
  -24.9097  -27.7011   19.5331 C   0  0  0  0  0  0  0  0  0113  0  0
  -23.5715  -29.7899   20.1582 C   0  0  0  0  0  0  0  0  0114  0  0
  -25.3990  -36.3212   24.0232 C   0  0  1  0  0  0  0  0  0115  0  0
  -20.5793  -28.3813   23.1004 C   0  0  2  0  0  0  0  0  0116  0  0
  -20.6548  -26.9392   22.5411 C   0  0  0  0  0  0  0  0  0117  0  0
  -19.5615  -26.6407   21.5143 C   0  0  0  0  0  0  0  0  0118  0  0
  -18.1797  -26.7818   22.1673 C   0  0  0  0  0  0  0  0  0119  0  0
  -19.1385  -28.8769   23.2988 C   0  0  0  0  0  0  0  0  0120  0  0
  -18.9183  -30.1286   23.8878 C   0  0  0  0  0  0  0  0  0121  0  0
  -17.6396  -30.6493   24.0352 C   0  0  0  0  0  0  0  0  0122  0  0
  -25.9153  -34.9582   23.4993 C   0  0  0  0  0  0  0  0  0123  0  0
  -16.5415  -29.9068   23.6254 C   0  0  0  0  0  0  0  0  0124  0  0
  -16.7331  -28.6521   23.0586 C   0  0  0  0  0  0  0  0  0125  0  0
  -26.4583  -31.6439   25.0683 C   0  0  0  0  0  0  0  0  0126  0  0
  -25.3807  -31.3179   26.1374 C   0  0  0  0  0  0  0  0  0127  0  0
  -27.0530  -30.3024   24.5680 C   0  0  0  0  0  0  0  0  0128  0  0
  -27.6014  -32.4281   25.7651 C   0  0  0  0  0  0  0  0  0129  0  0
  -27.5629  -37.2220   24.8621 C   0  0  0  0  0  0  0  0  0130  0  0
  -21.4133  -29.3375   22.3735 N   0  0  0  0  0  0  0  0  0131  0  0
  -26.4706  -37.3372   23.9061 N   0  0  0  0  0  0  0  0  0132  0  0
  -24.6674  -31.0544   22.1178 N   0  0  0  0  0  0  0  0  0133  0  0
  -23.4259  -28.8150   23.2971 O   0  0  0  0  0  0  0  0  0134  0  0
  -28.3948  -26.7345   20.0089 O   0  0  0  0  0  0  0  0  0135  0  0
  -26.5870  -34.9065   22.4671 O   0  0  0  0  0  0  0  0  0136  0  0
  -23.5365  -32.1254   23.7833 O   0  0  0  0  0  0  0  0  0137  0  0
  -31.7170  -18.4660   24.0845 C   0  0  0  0  0  0  0  0  0  0  0  0
  -31.9784  -16.5954   22.5781 C   0  0  0  0  0  0  0  0  0  0  0  0
  -30.3412  -18.4584   23.8553 C   0  0  0  0  0  0  0  0  0  0  0  0
  -30.6025  -16.5877   22.3489 C   0  0  0  0  0  0  0  0  0  0  0  0
  -32.5357  -17.5345   23.4459 C   0  0  0  0  0  0  0  0  0  0  0  0
  -29.7839  -17.5192   22.9875 C   0  0  0  0  0  0  0  0  0  0  0  0
  -29.4774  -19.4456   24.5335 C   0  0  0  0  0  0  0  0  0  0  0  0
  -27.8105  -22.4709   23.3933 C   0  0  0  0  0  0  0  0  0  0  0  0
  -27.8547  -21.2962   24.3350 C   0  0  0  0  0  0  0  0  0  0  0  0
  -26.9320  -23.6279   23.8259 C   0  0  0  0  0  0  0  0  0  1  0  0
  -30.0396  -15.6326   21.4665 N   0  0  0  0  0  0  0  0  0  0  0  0
  -28.7525  -20.2951   23.7840 N   0  0  0  0  0  0  0  0  0  0  0  0
  -29.4571  -19.4519   25.8665 N   0  0  0  0  0  0  0  0  0  0  0  0
  -28.4435  -22.4972   22.3387 O   0  0  0  0  0  0  0  0  0  0  0  0
  -33.8567  -17.5418   23.6662 F   0  0  0  0  0  0  0  0  0  0  0  0
  -28.4604  -17.5133   22.7677 F   0  0  0  0  0  0  0  0  0  0  0  0
  -31.4485  -12.4701   19.0860 H   0  0  0  0  0  0  0  0  0  0  0  0
  -30.3970  -11.2460   19.6950 H   0  0  0  0  0  0  0  0  0  0  0  0
  -29.6870  -11.8204   17.4226 H   0  0  0  0  0  0  0  0  0  0  0  0
  -29.6375  -13.5326   17.8649 H   0  0  0  0  0  0  0  0  0  0  0  0
  -27.7830  -11.3650   18.7904 H   0  0  0  0  0  0  0  0  0  0  0  0
  -27.4028  -12.7801   17.8021 H   0  0  0  0  0  0  0  0  0  0  0  0
  -27.7353  -14.2503   19.6136 H   0  0  0  0  0  0  0  0  0  0  0  0
  -28.5890  -11.9550   21.3832 H   0  0  0  0  0  0  0  0  0  0  0  0
  -28.5005  -13.6134   21.8562 H   0  0  0  0  0  0  0  0  0  0  0  0
  -25.2399   -9.5495   22.4318 H   0  0  0  0  0  0  0  0  0  0  0  0
  -23.9663   -7.5070   22.7297 H   0  0  0  0  0  0  0  0  0  0  0  0
  -21.1515   -8.8641   19.9162 H   0  0  0  0  0  0  0  0  0  0  0  0
  -22.4016  -10.9115   19.6476 H   0  0  0  0  0  0  0  0  0  0  0  0
  -21.2319   -7.5552   23.9750 H   0  0  0  0  0  0  0  0  0  0  0  0
  -21.1589   -6.0228   25.8556 H   0  0  0  0  0  0  0  0  0  0  0  0
  -22.0396   -2.8212   23.2809 H   0  0  0  0  0  0  0  0  0  0  0  0
  -22.4401  -11.9703   22.4008 H   0  0  0  0  0  0  0  0  0  0  0  0
  -21.1493  -13.0679   22.2082 H   0  0  0  0  0  0  0  0  0  0  0  0
  -24.6538  -15.7807   20.5848 H   0  0  0  0  0  0  0  0  0  0  0  0
  -26.2762  -15.5453   20.1156 H   0  0  0  0  0  0  0  0  0  0  0  0
  -26.6778  -32.4663   23.1464 H   0  0  0  0  0  0  0  0  0  0  0  0
  -25.0747  -34.0282   25.0566 H   0  0  0  0  0  0  0  0  0  0  0  0
  -22.7881  -31.3489   21.4131 H   0  0  0  0  0  0  0  0  0  0  0  0
  -23.3854  -35.9823   23.3648 H   0  0  0  0  0  0  0  0  0  0  0  0
  -24.3696  -36.8624   22.2204 H   0  0  0  0  0  0  0  0  0  0  0  0
  -23.7669  -37.6632   23.6516 H   0  0  0  0  0  0  0  0  0  0  0  0
  -25.9445  -31.6237   20.5691 H   0  0  0  0  0  0  0  0  0  0  0  0
  -26.7436  -31.0079   22.0108 H   0  0  0  0  0  0  0  0  0  0  0  0
  -28.0090  -29.1452   21.2057 H   0  0  0  0  0  0  0  0  0  0  0  0
  -26.1369  -26.0560   19.0719 H   0  0  0  0  0  0  0  0  0  0  0  0
  -24.0652  -27.2961   19.0997 H   0  0  0  0  0  0  0  0  0  0  0  0
  -23.6156  -30.5365   19.3930 H   0  0  0  0  0  0  0  0  0  0  0  0
  -22.7355  -29.1425   19.9945 H   0  0  0  0  0  0  0  0  0  0  0  0
  -25.1353  -36.2335   25.0565 H   0  0  0  0  0  0  0  0  0  0  0  0
  -21.0070  -28.3206   24.0793 H   0  0  0  0  0  0  0  0  0  0  0  0
  -20.5555  -26.2518   23.3550 H   0  0  0  0  0  0  0  0  0  0  0  0
  -21.5974  -26.8362   22.0454 H   0  0  0  0  0  0  0  0  0  0  0  0
  -19.6810  -25.6422   21.1488 H   0  0  0  0  0  0  0  0  0  0  0  0
  -19.6406  -27.3343   20.7034 H   0  0  0  0  0  0  0  0  0  0  0  0
  -17.4282  -26.6888   21.4113 H   0  0  0  0  0  0  0  0  0  0  0  0
  -18.0803  -26.0130   22.9049 H   0  0  0  0  0  0  0  0  0  0  0  0
  -19.7265  -30.6774   24.2204 H   0  0  0  0  0  0  0  0  0  0  0  0
  -17.5064  -31.5856   24.4483 H   0  0  0  0  0  0  0  0  0  0  0  0
  -15.5878  -30.2839   23.7407 H   0  0  0  0  0  0  0  0  0  0  0  0
  -15.9120  -28.0941   22.7766 H   0  0  0  0  0  0  0  0  0  0  0  0
  -24.5787  -30.7757   25.6817 H   0  0  0  0  0  0  0  0  0  0  0  0
  -25.0041  -32.2289   26.5536 H   0  0  0  0  0  0  0  0  0  0  0  0
  -25.8166  -30.7245   26.9138 H   0  0  0  0  0  0  0  0  0  0  0  0
  -26.2892  -29.7335   24.0803 H   0  0  0  0  0  0  0  0  0  0  0  0
  -27.4336  -29.7484   25.4006 H   0  0  0  0  0  0  0  0  0  0  0  0
  -27.8466  -30.4994   23.8779 H   0  0  0  0  0  0  0  0  0  0  0  0
  -27.2251  -33.3632   26.1242 H   0  0  0  0  0  0  0  0  0  0  0  0
  -28.3902  -32.6065   25.0645 H   0  0  0  0  0  0  0  0  0  0  0  0
  -27.9772  -31.8555   26.5872 H   0  0  0  0  0  0  0  0  0  0  0  0
  -28.2744  -38.0016   24.6863 H   0  0  0  0  0  0  0  0  0  0  0  0
  -28.0396  -36.2711   24.7461 H   0  0  0  0  0  0  0  0  0  0  0  0
  -27.1773  -37.3087   25.8564 H   0  0  0  0  0  0  0  0  0  0  0  0
  -20.9627  -29.9365   21.7352 H   0  0  0  0  0  0  0  0  0  0  0  0
  -26.0447  -38.2561   24.0273 H   0  0  0  0  0  0  0  0  0  0  0  0
  -32.1293  -19.1608   24.7266 H   0  0  0  0  0  0  0  0  0  0  0  0
  -32.5841  -15.9062   22.1056 H   0  0  0  0  0  0  0  0  0  0  0  0
  -26.8739  -20.8818   24.4410 H   0  0  0  0  0  0  0  0  0  0  0  0
  -28.2032  -21.6108   25.2965 H   0  0  0  0  0  0  0  0  0  0  0  0
  -27.1863  -24.0066   24.7938 H   0  0  0  0  0  0  0  0  0  0  0  0
  -25.8849  -23.4419   23.9440 H   0  0  0  0  0  0  0  0  0  0  0  0
  -29.0743  -15.7342   21.3018 H   0  0  0  0  0  0  0  0  0  0  0  0
  -28.8349  -20.2352   22.8048 H   0  0  0  0  0  0  0  0  0  0  0  0
  -30.0066  -18.8088   26.3702 H   0  0  0  0  0  0  0  0  0  0  0  0
  -28.8926  -20.0997   26.3472 H   0  0  0  0  0  0  0  0  0  0  0  0
  1 25  1  0
  1 30  2  0
  1 81  1  0
  2  3  1  0
  2 25  1  0
  2 87  1  0
  2 88  1  0
  3  4  1  0
  3 89  1  0
  3 90  1  0
  4  5  1  0
  4 91  1  0
  4 92  1  0
  5  6  1  0
  5 26  1  0
  5 93  1  6
  6 25  1  0
  6 94  1  0
  6 95  1  0
  7  8  2  0
  7 26  1  0
  7 29  1  0
  8  9  1  0
  8 22  1  0
  9 10  1  0
  9 27  2  0
 10 11  2  0
 10 15  1  0
 11 12  1  0
 11 96  1  0
 12 13  2  0
 12 97  1  0
 13 14  1  0
 13 31  1  0
 14 15  2  0
 14 98  1  0
 15 99  1  0
 16 17  2  0
 16 21  1  0
 16 31  1  0
 17 18  1  0
 17100  1  0
 18 19  2  0
 18101  1  0
 19 20  1  0
 19 24  1  0
 20 21  2  0
 20102  1  0
 21 23  1  0
 22 28  1  0
 22 32  2  0
 26 27  1  0
 28103  1  0
 28104  1  0
 29105  1  0
 29106  1  0
 33 34  1  0
 33 66  1  0
 33 70  2  0
 34 36  1  0
 34 59  1  0
 34107  1  6
 35 44  2  0
 35 45  1  0
 35 68  1  0
 36 56  1  0
 36108  1  0
 37 39  1  0
 37 47  1  0
 37 66  1  0
 37109  1  6
 38 43  2  0
 38 46  1  0
 38 47  1  0
 39 64  1  0
 39 67  2  0
 40 52  1  0
 40 53  2  0
 40 58  1  0
 41110  1  0
 41111  1  0
 41112  1  0
 42 43  1  0
 42 66  1  0
 42113  1  0
 42114  1  0
 43 44  1  0
 44115  1  0
 45 46  2  0
 45116  1  0
 46117  1  0
 47118  1  0
 47119  1  0
 48 41  1  0
 48 56  1  0
 48 65  1  0
 48120  1  1
 49 50  1  0
 49 53  1  0
 49 64  1  0
 49121  1  1
 50 51  1  0
 50122  1  0
 50123  1  0
 51 52  1  0
 51124  1  0
 51125  1  0
 52126  1  0
 52127  1  0
 53 54  1  0
 54 55  2  0
 54128  1  0
 55 57  1  0
 55129  1  0
 56 69  2  0
 57 58  2  0
 57130  1  0
 58131  1  0
 59 60  1  0
 59 61  1  0
 59 62  1  0
 60132  1  0
 60133  1  0
 60134  1  0
 61135  1  0
 61136  1  0
 61137  1  0
 62138  1  0
 62139  1  0
 62140  1  0
 63 65  1  0
 63141  1  0
 63142  1  0
 63143  1  0
 64144  1  0
 65145  1  0
 68 80  1  0
 71 73  2  0
 71 75  1  0
 71146  1  0
 72 74  1  0
 72 75  2  0
 72147  1  0
 73 76  1  0
 73 77  1  0
 74 76  2  0
 74 81  1  0
 75 85  1  0
 76 86  1  0
 77 82  1  0
 77 83  2  0
 78 79  1  0
 78 80  1  0
 78 84  2  0
 79 82  1  0
 79148  1  0
 79149  1  0
 80150  1  0
 80151  1  0
 81152  1  0
 82153  1  0
 83154  1  0
 83155  1  0
M  CHG  1  83   1
M  ISO  4   1 100  68 101  80 101  81 100
M  END
$$$$
1
     RDKit          3D

158166  0  0  0  0  0  0  0  0999 V2000
  -30.7652  -14.3608   20.6636 C   0  0  0  0  0  0  0  0  0100  0  0
  -30.4392  -12.2669   19.3775 C   0  0  0  0  0  0  0  0  0101  0  0
  -29.4791  -12.5281   18.1977 C   0  0  0  0  0  0  0  0  0102  0  0
  -27.9985  -12.3963   18.6038 C   0  0  0  0  0  0  0  0  0103  0  0
  -27.6639  -13.2170   19.8820 C   0  0  2  0  0  0  0  0  0104  0  0
  -28.6795  -12.9602   21.0279 C   0  0  0  0  0  0  0  0  0105  0  0
  -25.2633  -13.8245   20.5754 C   0  0  0  0  0  0  0  0  0106  0  0
  -24.1645  -13.0409   20.9408 C   0  0  0  0  0  0  0  0  0107  0  0
  -24.6400  -11.7009   20.8697 C   0  0  0  0  0  0  0  0  0108  0  0
  -23.9005  -10.4085   21.0420 C   0  0  0  0  0  0  0  0  0109  0  0
  -24.3588   -9.4123   21.9123 C   0  0  0  0  0  0  0  0  0110  0  0
  -23.6296   -8.2350   22.0803 C   0  0  0  0  0  0  0  0  0111  0  0
  -22.4385   -8.0419   21.3657 C   0  0  0  0  0  0  0  0  0112  0  0
  -22.0103   -9.0167   20.4678 C   0  0  0  0  0  0  0  0  0113  0  0
  -22.7317  -10.1925   20.3102 C   0  0  0  0  0  0  0  0  0114  0  0
  -21.6857   -6.0709   22.5391 C   0  0  0  0  0  0  0  0  0115  0  0
  -21.4064   -6.5490   23.8264 C   0  0  0  0  0  0  0  0  0116  0  0
  -21.3635   -5.6677   24.9085 C   0  0  0  0  0  0  0  0  0117  0  0
  -21.5973   -4.3067   24.7088 C   0  0  0  0  0  0  0  0  0118  0  0
  -21.8700   -3.8284   23.4282 C   0  0  0  0  0  0  0  0  0119  0  0
  -21.9144   -4.7056   22.3460 C   0  0  0  0  0  0  0  0  0120  0  0
  -22.8194  -13.5263   21.1763 C   0  0  0  0  0  0  0  0  0121  0  0
  -22.1559   -4.2206   21.1063 F   0  0  0  0  0  0  0  0  0122  0  0
  -21.5628   -3.4510   25.7555 F   0  0  0  0  0  0  0  0  0123  0  0
  -30.0261  -13.1803   20.4553 N   0  0  0  0  0  0  0  0  0124  0  0
  -26.2911  -12.9356   20.3443 N   0  0  0  0  0  0  0  0  0125  0  0
  -25.9236  -11.6675   20.5847 N   0  0  0  0  0  0  0  0  0126  0  0
  -22.0708  -12.7905   22.0005 N   0  0  0  0  0  0  0  0  0127  0  0
  -25.4117  -15.1773   20.4097 N   0  0  0  0  0  0  0  0  0128  0  0
  -31.7916  -14.6724   20.0536 O   0  0  0  0  0  0  0  0  0129  0  0
  -21.6670   -6.9022   21.4423 O   0  0  0  0  0  0  0  0  0130  0  0
  -22.3946  -14.5564   20.6568 O   0  0  0  0  0  0  0  0  0131  0  0
  -24.6048  -31.8614   23.2223 C   0  0  0  0  0  0  0  0  0100  0  0
  -25.8822  -32.4841   23.8616 C   0  0  1  0  0  0  0  0  0101  0  0
  -27.2536  -27.5042   20.1156 C   0  0  0  0  0  0  0  0  0102  0  0
  -25.5726  -33.8762   24.2210 N   0  0  0  0  0  0  0  0  0103  0  0
  -23.4066  -30.4859   21.5461 C   0  0  2  0  0  0  0  0  0104  0  0
  -24.8467  -28.9636   20.1247 C   0  0  0  0  0  0  0  0  0105  0  0
  -22.7412  -29.4652   22.5052 C   0  0  0  0  0  0  0  0  0106  0  0
  -18.0167  -28.1302   22.8626 C   0  0  0  0  0  0  0  0  0107  0  0
  -24.1342  -36.7390   23.2568 C   0  0  0  0  0  0  0  0  0108  0  0
  -25.9141  -30.8882   21.3456 C   0  0  0  0  0  0  0  0  0109  0  0
  -25.9930  -29.5029   20.7208 C   0  0  0  0  0  0  0  0  0110  0  0
  -27.1758  -28.7612   20.7331 C   0  0  0  0  0  0  0  0  0111  0  0
  -26.1032  -26.9836   19.5230 C   0  0  0  0  0  0  0  0  0112  0  0
  -24.9097  -27.7011   19.5331 C   0  0  0  0  0  0  0  0  0113  0  0
  -23.5715  -29.7899   20.1582 C   0  0  0  0  0  0  0  0  0114  0  0
  -25.3990  -36.3212   24.0232 C   0  0  1  0  0  0  0  0  0115  0  0
  -20.5793  -28.3813   23.1004 C   0  0  2  0  0  0  0  0  0116  0  0
  -20.6548  -26.9392   22.5411 C   0  0  0  0  0  0  0  0  0117  0  0
  -19.5615  -26.6407   21.5143 C   0  0  0  0  0  0  0  0  0118  0  0
  -18.1797  -26.7818   22.1673 C   0  0  0  0  0  0  0  0  0119  0  0
  -19.1385  -28.8769   23.2988 C   0  0  0  0  0  0  0  0  0120  0  0
  -18.9183  -30.1286   23.8878 C   0  0  0  0  0  0  0  0  0121  0  0
  -17.6396  -30.6493   24.0352 C   0  0  0  0  0  0  0  0  0122  0  0
  -25.9153  -34.9582   23.4993 C   0  0  0  0  0  0  0  0  0123  0  0
  -16.5415  -29.9068   23.6254 C   0  0  0  0  0  0  0  0  0124  0  0
  -16.7331  -28.6521   23.0586 C   0  0  0  0  0  0  0  0  0125  0  0
  -26.4583  -31.6439   25.0683 C   0  0  0  0  0  0  0  0  0126  0  0
  -25.3807  -31.3179   26.1374 C   0  0  0  0  0  0  0  0  0127  0  0
  -27.0530  -30.3024   24.5680 C   0  0  0  0  0  0  0  0  0128  0  0
  -27.6014  -32.4281   25.7651 C   0  0  0  0  0  0  0  0  0129  0  0
  -27.5629  -37.2220   24.8621 C   0  0  0  0  0  0  0  0  0130  0  0
  -21.4133  -29.3375   22.3735 N   0  0  0  0  0  0  0  0  0131  0  0
  -26.4706  -37.3372   23.9061 N   0  0  0  0  0  0  0  0  0132  0  0
  -24.6674  -31.0544   22.1178 N   0  0  0  0  0  0  0  0  0133  0  0
  -23.4259  -28.8150   23.2971 O   0  0  0  0  0  0  0  0  0134  0  0
  -28.3948  -26.7345   20.0089 O   0  0  0  0  0  0  0  0  0135  0  0
  -26.5870  -34.9065   22.4671 O   0  0  0  0  0  0  0  0  0136  0  0
  -23.5365  -32.1254   23.7833 O   0  0  0  0  0  0  0  0  0137  0  0
  -27.7981  -14.4850   20.3357 C   0  0  0  0  0  0  0  0  0  0  0  0
  -29.1113  -14.9332   20.1943 C   0  0  0  0  0  0  0  0  0  0  0  0
  -27.0219  -16.7725   20.3789 C   0  0  0  0  0  0  0  0  0  0  0  0
  -26.7533  -15.4046   20.4280 C   0  0  0  0  0  0  0  0  0  0  0  0
  -29.3799  -16.3011   20.1453 C   0  0  0  0  0  0  0  0  0  0  0  0
  -28.3352  -17.2208   20.2376 C   0  0  0  0  0  0  0  0  0  0  0  0
  -28.1666  -20.9710   20.1923 C   0  0  0  0  0  0  0  0  0  0  0  0
  -27.5762  -23.3984   19.5509 C   0  0  0  0  0  0  0  0  0  0  0  0
  -27.1882  -22.1270   20.2790 C   0  0  0  0  0  0  0  0  0  0  0  0
  -27.5508  -19.5890   20.2805 C   0  0  0  0  0  0  0  0  0  0  0  0
  -26.6024  -24.5537   19.6807 C   0  0  0  0  0  0  0  0  0  1  0  0
  -30.7174  -16.7332   20.0019 N   0  0  0  0  0  0  0  0  0  0  0  0
  -25.4194  -14.9488   20.5716 N   0  0  0  0  0  0  0  0  0  0  0  0
  -28.5807  -18.5856   20.1910 N   0  0  0  0  0  0  0  0  0  0  0  0
  -29.3808  -21.1446   20.0976 O   0  0  0  0  0  0  0  0  0  0  0  0
  -28.5936  -23.4866   18.8655 O   0  0  0  0  0  0  0  0  0  0  0  0
  -31.4485  -12.4701   19.0860 H   0  0  0  0  0  0  0  0  0  0  0  0
  -30.3970  -11.2460   19.6950 H   0  0  0  0  0  0  0  0  0  0  0  0
  -29.6870  -11.8204   17.4226 H   0  0  0  0  0  0  0  0  0  0  0  0
  -29.6375  -13.5326   17.8649 H   0  0  0  0  0  0  0  0  0  0  0  0
  -27.7830  -11.3650   18.7904 H   0  0  0  0  0  0  0  0  0  0  0  0
  -27.4028  -12.7801   17.8021 H   0  0  0  0  0  0  0  0  0  0  0  0
  -27.7353  -14.2503   19.6136 H   0  0  0  0  0  0  0  0  0  0  0  0
  -28.5890  -11.9550   21.3832 H   0  0  0  0  0  0  0  0  0  0  0  0
  -28.5005  -13.6134   21.8562 H   0  0  0  0  0  0  0  0  0  0  0  0
  -25.2399   -9.5495   22.4318 H   0  0  0  0  0  0  0  0  0  0  0  0
  -23.9663   -7.5070   22.7297 H   0  0  0  0  0  0  0  0  0  0  0  0
  -21.1515   -8.8641   19.9162 H   0  0  0  0  0  0  0  0  0  0  0  0
  -22.4016  -10.9115   19.6476 H   0  0  0  0  0  0  0  0  0  0  0  0
  -21.2319   -7.5552   23.9750 H   0  0  0  0  0  0  0  0  0  0  0  0
  -21.1589   -6.0228   25.8556 H   0  0  0  0  0  0  0  0  0  0  0  0
  -22.0396   -2.8212   23.2809 H   0  0  0  0  0  0  0  0  0  0  0  0
  -22.4401  -11.9703   22.4008 H   0  0  0  0  0  0  0  0  0  0  0  0
  -21.1493  -13.0679   22.2082 H   0  0  0  0  0  0  0  0  0  0  0  0
  -24.6538  -15.7807   20.5848 H   0  0  0  0  0  0  0  0  0  0  0  0
  -26.2762  -15.5453   20.1156 H   0  0  0  0  0  0  0  0  0  0  0  0
  -26.6778  -32.4663   23.1464 H   0  0  0  0  0  0  0  0  0  0  0  0
  -25.0747  -34.0282   25.0566 H   0  0  0  0  0  0  0  0  0  0  0  0
  -22.7881  -31.3489   21.4131 H   0  0  0  0  0  0  0  0  0  0  0  0
  -23.3854  -35.9823   23.3648 H   0  0  0  0  0  0  0  0  0  0  0  0
  -24.3696  -36.8624   22.2204 H   0  0  0  0  0  0  0  0  0  0  0  0
  -23.7669  -37.6632   23.6516 H   0  0  0  0  0  0  0  0  0  0  0  0
  -25.9445  -31.6237   20.5691 H   0  0  0  0  0  0  0  0  0  0  0  0
  -26.7436  -31.0079   22.0108 H   0  0  0  0  0  0  0  0  0  0  0  0
  -28.0090  -29.1452   21.2057 H   0  0  0  0  0  0  0  0  0  0  0  0
  -26.1369  -26.0560   19.0719 H   0  0  0  0  0  0  0  0  0  0  0  0
  -24.0652  -27.2961   19.0997 H   0  0  0  0  0  0  0  0  0  0  0  0
  -23.6156  -30.5365   19.3930 H   0  0  0  0  0  0  0  0  0  0  0  0
  -22.7355  -29.1425   19.9945 H   0  0  0  0  0  0  0  0  0  0  0  0
  -25.1353  -36.2335   25.0565 H   0  0  0  0  0  0  0  0  0  0  0  0
  -21.0070  -28.3206   24.0793 H   0  0  0  0  0  0  0  0  0  0  0  0
  -20.5555  -26.2518   23.3550 H   0  0  0  0  0  0  0  0  0  0  0  0
  -21.5974  -26.8362   22.0454 H   0  0  0  0  0  0  0  0  0  0  0  0
  -19.6810  -25.6422   21.1488 H   0  0  0  0  0  0  0  0  0  0  0  0
  -19.6406  -27.3343   20.7034 H   0  0  0  0  0  0  0  0  0  0  0  0
  -17.4282  -26.6888   21.4113 H   0  0  0  0  0  0  0  0  0  0  0  0
  -18.0803  -26.0130   22.9049 H   0  0  0  0  0  0  0  0  0  0  0  0
  -19.7265  -30.6774   24.2204 H   0  0  0  0  0  0  0  0  0  0  0  0
  -17.5064  -31.5856   24.4483 H   0  0  0  0  0  0  0  0  0  0  0  0
  -15.5878  -30.2839   23.7407 H   0  0  0  0  0  0  0  0  0  0  0  0
  -15.9120  -28.0941   22.7766 H   0  0  0  0  0  0  0  0  0  0  0  0
  -24.5787  -30.7757   25.6817 H   0  0  0  0  0  0  0  0  0  0  0  0
  -25.0041  -32.2289   26.5536 H   0  0  0  0  0  0  0  0  0  0  0  0
  -25.8166  -30.7245   26.9138 H   0  0  0  0  0  0  0  0  0  0  0  0
  -26.2892  -29.7335   24.0803 H   0  0  0  0  0  0  0  0  0  0  0  0
  -27.4336  -29.7484   25.4006 H   0  0  0  0  0  0  0  0  0  0  0  0
  -27.8466  -30.4994   23.8779 H   0  0  0  0  0  0  0  0  0  0  0  0
  -27.2251  -33.3632   26.1242 H   0  0  0  0  0  0  0  0  0  0  0  0
  -28.3902  -32.6065   25.0645 H   0  0  0  0  0  0  0  0  0  0  0  0
  -27.9772  -31.8555   26.5872 H   0  0  0  0  0  0  0  0  0  0  0  0
  -28.2744  -38.0016   24.6863 H   0  0  0  0  0  0  0  0  0  0  0  0
  -28.0396  -36.2711   24.7461 H   0  0  0  0  0  0  0  0  0  0  0  0
  -27.1773  -37.3087   25.8564 H   0  0  0  0  0  0  0  0  0  0  0  0
  -20.9627  -29.9365   21.7352 H   0  0  0  0  0  0  0  0  0  0  0  0
  -26.0447  -38.2561   24.0273 H   0  0  0  0  0  0  0  0  0  0  0  0
  -27.5994  -13.4730   20.3720 H   0  0  0  0  0  0  0  0  0  0  0  0
  -29.8842  -14.2528   20.1259 H   0  0  0  0  0  0  0  0  0  0  0  0
  -26.2490  -17.4529   20.4471 H   0  0  0  0  0  0  0  0  0  0  0  0
  -27.0634  -22.3702   21.3135 H   0  0  0  0  0  0  0  0  0  0  0  0
  -26.2996  -21.7825   19.7926 H   0  0  0  0  0  0  0  0  0  0  0  0
  -26.8572  -19.4579   19.4764 H   0  0  0  0  0  0  0  0  0  0  0  0
  -27.0428  -19.4893   21.2169 H   0  0  0  0  0  0  0  0  0  0  0  0
  -25.9650  -24.4370   20.5321 H   0  0  0  0  0  0  0  0  0  0  0  0
  -25.9271  -24.6569   18.8572 H   0  0  0  0  0  0  0  0  0  0  0  0
  -31.4441  -16.0721   19.9380 H   0  0  0  0  0  0  0  0  0  0  0  0
  -30.9227  -17.6954   19.9658 H   0  0  0  0  0  0  0  0  0  0  0  0
  -24.4417  -14.8415   20.6142 H   0  0  0  0  0  0  0  0  0  0  0  0
  -29.5130  -18.8858   20.0909 H   0  0  0  0  0  0  0  0  0  0  0  0
  1 25  1  0
  1 30  2  0
  1 83  1  0
  2  3  1  0
  2 25  1  0
  2 87  1  0
  2 88  1  0
  3  4  1  0
  3 89  1  0
  3 90  1  0
  4  5  1  0
  4 91  1  0
  4 92  1  0
  5  6  1  0
  5 26  1  0
  5 93  1  6
  6 25  1  0
  6 94  1  0
  6 95  1  0
  7  8  2  0
  7 26  1  0
  7 29  1  0
  8  9  1  0
  8 22  1  0
  9 10  1  0
  9 27  2  0
 10 11  2  0
 10 15  1  0
 11 12  1  0
 11 96  1  0
 12 13  2  0
 12 97  1  0
 13 14  1  0
 13 31  1  0
 14 15  2  0
 14 98  1  0
 15 99  1  0
 16 17  2  0
 16 21  1  0
 16 31  1  0
 17 18  1  0
 17100  1  0
 18 19  2  0
 18101  1  0
 19 20  1  0
 19 24  1  0
 20 21  2  0
 20102  1  0
 21 23  1  0
 22 28  1  0
 22 32  2  0
 26 27  1  0
 28103  1  0
 28104  1  0
 29105  1  0
 29106  1  0
 33 34  1  0
 33 66  1  0
 33 70  2  0
 34 36  1  0
 34 59  1  0
 34107  1  6
 35 44  2  0
 35 45  1  0
 35 68  1  0
 36 56  1  0
 36108  1  0
 37 39  1  0
 37 47  1  0
 37 66  1  0
 37109  1  6
 38 43  2  0
 38 46  1  0
 38 47  1  0
 39 64  1  0
 39 67  2  0
 40 52  1  0
 40 53  2  0
 40 58  1  0
 41110  1  0
 41111  1  0
 41112  1  0
 42 43  1  0
 42 66  1  0
 42113  1  0
 42114  1  0
 43 44  1  0
 44115  1  0
 45 46  2  0
 45116  1  0
 46117  1  0
 47118  1  0
 47119  1  0
 48 41  1  0
 48 56  1  0
 48 65  1  0
 48120  1  1
 49 50  1  0
 49 53  1  0
 49 64  1  0
 49121  1  1
 50 51  1  0
 50122  1  0
 50123  1  0
 51 52  1  0
 51124  1  0
 51125  1  0
 52126  1  0
 52127  1  0
 53 54  1  0
 54 55  2  0
 54128  1  0
 55 57  1  0
 55129  1  0
 56 69  2  0
 57 58  2  0
 57130  1  0
 58131  1  0
 59 60  1  0
 59 61  1  0
 59 62  1  0
 60132  1  0
 60133  1  0
 60134  1  0
 61135  1  0
 61136  1  0
 61137  1  0
 62138  1  0
 62139  1  0
 62140  1  0
 63 65  1  0
 63141  1  0
 63142  1  0
 63143  1  0
 64144  1  0
 65145  1  0
 68 81  1  0
 71 72  2  0
 71 74  1  0
 71146  1  0
 72 75  1  0
 72147  1  0
 73 74  2  0
 73 76  1  0
 73148  1  0
 74 83  1  0
 75 76  2  0
 75 82  1  0
 76 84  1  0
 77 79  1  0
 77 80  1  0
 77 85  2  0
 78 79  1  0
 78 81  1  0
 78 86  2  0
 79149  1  0
 79150  1  0
 80 84  1  0
 80151  1  0
 80152  1  0
 81153  1  0
 81154  1  0
 82155  1  0
 82156  1  0
 83157  1  0
 84158  1  0
M  ISO  4   1 100  68 101  81 101  83 100
M  END
$$$$
2
     RDKit          3D

163171  0  0  0  0  0  0  0  0999 V2000
  -30.7652  -14.3608   20.6636 C   0  0  0  0  0  0  0  0  0100  0  0
  -30.4392  -12.2669   19.3775 C   0  0  0  0  0  0  0  0  0101  0  0
  -29.4791  -12.5281   18.1977 C   0  0  0  0  0  0  0  0  0102  0  0
  -27.9985  -12.3963   18.6038 C   0  0  0  0  0  0  0  0  0103  0  0
  -27.6639  -13.2170   19.8820 C   0  0  2  0  0  0  0  0  0104  0  0
  -28.6795  -12.9602   21.0279 C   0  0  0  0  0  0  0  0  0105  0  0
  -25.2633  -13.8245   20.5754 C   0  0  0  0  0  0  0  0  0106  0  0
  -24.1645  -13.0409   20.9408 C   0  0  0  0  0  0  0  0  0107  0  0
  -24.6400  -11.7009   20.8697 C   0  0  0  0  0  0  0  0  0108  0  0
  -23.9005  -10.4085   21.0420 C   0  0  0  0  0  0  0  0  0109  0  0
  -24.3588   -9.4123   21.9123 C   0  0  0  0  0  0  0  0  0110  0  0
  -23.6296   -8.2350   22.0803 C   0  0  0  0  0  0  0  0  0111  0  0
  -22.4385   -8.0419   21.3657 C   0  0  0  0  0  0  0  0  0112  0  0
  -22.0103   -9.0167   20.4678 C   0  0  0  0  0  0  0  0  0113  0  0
  -22.7317  -10.1925   20.3102 C   0  0  0  0  0  0  0  0  0114  0  0
  -21.6857   -6.0709   22.5391 C   0  0  0  0  0  0  0  0  0115  0  0
  -21.4064   -6.5490   23.8264 C   0  0  0  0  0  0  0  0  0116  0  0
  -21.3635   -5.6677   24.9085 C   0  0  0  0  0  0  0  0  0117  0  0
  -21.5973   -4.3067   24.7088 C   0  0  0  0  0  0  0  0  0118  0  0
  -21.8700   -3.8284   23.4282 C   0  0  0  0  0  0  0  0  0119  0  0
  -21.9144   -4.7056   22.3460 C   0  0  0  0  0  0  0  0  0120  0  0
  -22.8194  -13.5263   21.1763 C   0  0  0  0  0  0  0  0  0121  0  0
  -22.1559   -4.2206   21.1063 F   0  0  0  0  0  0  0  0  0122  0  0
  -21.5628   -3.4510   25.7555 F   0  0  0  0  0  0  0  0  0123  0  0
  -30.0261  -13.1803   20.4553 N   0  0  0  0  0  0  0  0  0124  0  0
  -26.2911  -12.9356   20.3443 N   0  0  0  0  0  0  0  0  0125  0  0
  -25.9236  -11.6675   20.5847 N   0  0  0  0  0  0  0  0  0126  0  0
  -22.0708  -12.7905   22.0005 N   0  0  0  0  0  0  0  0  0127  0  0
  -25.4117  -15.1773   20.4097 N   0  0  0  0  0  0  0  0  0128  0  0
  -31.7916  -14.6724   20.0536 O   0  0  0  0  0  0  0  0  0129  0  0
  -21.6670   -6.9022   21.4423 O   0  0  0  0  0  0  0  0  0130  0  0
  -22.3946  -14.5564   20.6568 O   0  0  0  0  0  0  0  0  0131  0  0
  -24.6048  -31.8614   23.2223 C   0  0  0  0  0  0  0  0  0100  0  0
  -25.8822  -32.4841   23.8616 C   0  0  1  0  0  0  0  0  0101  0  0
  -27.2536  -27.5042   20.1156 C   0  0  0  0  0  0  0  0  0102  0  0
  -25.5726  -33.8762   24.2210 N   0  0  0  0  0  0  0  0  0103  0  0
  -23.4066  -30.4859   21.5461 C   0  0  2  0  0  0  0  0  0104  0  0
  -24.8467  -28.9636   20.1247 C   0  0  0  0  0  0  0  0  0105  0  0
  -22.7412  -29.4652   22.5052 C   0  0  0  0  0  0  0  0  0106  0  0
  -18.0167  -28.1302   22.8626 C   0  0  0  0  0  0  0  0  0107  0  0
  -24.1342  -36.7390   23.2568 C   0  0  0  0  0  0  0  0  0108  0  0
  -25.9141  -30.8882   21.3456 C   0  0  0  0  0  0  0  0  0109  0  0
  -25.9930  -29.5029   20.7208 C   0  0  0  0  0  0  0  0  0110  0  0
  -27.1758  -28.7612   20.7331 C   0  0  0  0  0  0  0  0  0111  0  0
  -26.1032  -26.9836   19.5230 C   0  0  0  0  0  0  0  0  0112  0  0
  -24.9097  -27.7011   19.5331 C   0  0  0  0  0  0  0  0  0113  0  0
  -23.5715  -29.7899   20.1582 C   0  0  0  0  0  0  0  0  0114  0  0
  -25.3990  -36.3212   24.0232 C   0  0  1  0  0  0  0  0  0115  0  0
  -20.5793  -28.3813   23.1004 C   0  0  2  0  0  0  0  0  0116  0  0
  -20.6548  -26.9392   22.5411 C   0  0  0  0  0  0  0  0  0117  0  0
  -19.5615  -26.6407   21.5143 C   0  0  0  0  0  0  0  0  0118  0  0
  -18.1797  -26.7818   22.1673 C   0  0  0  0  0  0  0  0  0119  0  0
  -19.1385  -28.8769   23.2988 C   0  0  0  0  0  0  0  0  0120  0  0
  -18.9183  -30.1286   23.8878 C   0  0  0  0  0  0  0  0  0121  0  0
  -17.6396  -30.6493   24.0352 C   0  0  0  0  0  0  0  0  0122  0  0
  -25.9153  -34.9582   23.4993 C   0  0  0  0  0  0  0  0  0123  0  0
  -16.5415  -29.9068   23.6254 C   0  0  0  0  0  0  0  0  0124  0  0
  -16.7331  -28.6521   23.0586 C   0  0  0  0  0  0  0  0  0125  0  0
  -26.4583  -31.6439   25.0683 C   0  0  0  0  0  0  0  0  0126  0  0
  -25.3807  -31.3179   26.1374 C   0  0  0  0  0  0  0  0  0127  0  0
  -27.0530  -30.3024   24.5680 C   0  0  0  0  0  0  0  0  0128  0  0
  -27.6014  -32.4281   25.7651 C   0  0  0  0  0  0  0  0  0129  0  0
  -27.5629  -37.2220   24.8621 C   0  0  0  0  0  0  0  0  0130  0  0
  -21.4133  -29.3375   22.3735 N   0  0  0  0  0  0  0  0  0131  0  0
  -26.4706  -37.3372   23.9061 N   0  0  0  0  0  0  0  0  0132  0  0
  -24.6674  -31.0544   22.1178 N   0  0  0  0  0  0  0  0  0133  0  0
  -23.4259  -28.8150   23.2971 O   0  0  0  0  0  0  0  0  0134  0  0
  -28.3948  -26.7345   20.0089 O   0  0  0  0  0  0  0  0  0135  0  0
  -26.5870  -34.9065   22.4671 O   0  0  0  0  0  0  0  0  0136  0  0
  -23.5365  -32.1254   23.7833 O   0  0  0  0  0  0  0  0  0137  0  0
  -26.3002  -20.8027   17.1879 C   0  0  0  0  0  0  0  0  0  0  0  0
  -28.4652  -20.6497   16.1266 C   0  0  0  0  0  0  0  0  0  0  0  0
  -27.3088  -18.6405   16.8071 C   0  0  0  0  0  0  0  0  0  0  0  0
  -27.4074  -21.4214   16.6073 C   0  0  0  0  0  0  0  0  0  0  0  0
  -26.2510  -19.4122   17.2878 C   0  0  0  0  0  0  0  0  0  0  0  0
  -28.4159  -19.2592   16.2265 C   0  0  0  0  0  0  0  0  0  0  0  0
  -29.3879  -23.6906   17.8817 C   0  0  0  0  0  0  0  0  0  0  0  0
  -26.8456  -23.4440   15.1982 C   0  0  0  0  0  0  0  0  0  0  0  0
  -30.2151  -27.9427   16.7147 C   0  0  0  0  0  0  0  0  0  0  0  0
  -30.8045  -24.2208   17.7332 C   0  0  0  0  0  0  0  0  0  0  0  0
  -30.8925  -25.5187   16.9266 C   0  0  0  0  0  0  0  0  0  0  0  0
  -27.4611  -22.9300   16.4981 C   0  0  2  0  0  0  0  0  0  0  0  0
  -30.0877  -26.6706   17.5428 C   0  0  0  0  0  0  0  0  0  1  0  0
  -25.1265  -18.7835   17.8778 N   0  0  0  0  0  0  0  0  0  0  0  0
  -28.8126  -23.4189   16.6490 N   0  0  0  0  0  0  0  0  0  0  0  0
  -28.8324  -23.5521   18.9681 O   0  0  0  0  0  0  0  0  0  0  0  0
  -29.4318  -18.5182   15.7649 F   0  0  0  0  0  0  0  0  0  0  0  0
  -31.4485  -12.4701   19.0860 H   0  0  0  0  0  0  0  0  0  0  0  0
  -30.3970  -11.2460   19.6950 H   0  0  0  0  0  0  0  0  0  0  0  0
  -29.6870  -11.8204   17.4226 H   0  0  0  0  0  0  0  0  0  0  0  0
  -29.6375  -13.5326   17.8649 H   0  0  0  0  0  0  0  0  0  0  0  0
  -27.7830  -11.3650   18.7904 H   0  0  0  0  0  0  0  0  0  0  0  0
  -27.4028  -12.7801   17.8021 H   0  0  0  0  0  0  0  0  0  0  0  0
  -27.7353  -14.2503   19.6136 H   0  0  0  0  0  0  0  0  0  0  0  0
  -28.5890  -11.9550   21.3832 H   0  0  0  0  0  0  0  0  0  0  0  0
  -28.5005  -13.6134   21.8562 H   0  0  0  0  0  0  0  0  0  0  0  0
  -25.2399   -9.5495   22.4318 H   0  0  0  0  0  0  0  0  0  0  0  0
  -23.9663   -7.5070   22.7297 H   0  0  0  0  0  0  0  0  0  0  0  0
  -21.1515   -8.8641   19.9162 H   0  0  0  0  0  0  0  0  0  0  0  0
  -22.4016  -10.9115   19.6476 H   0  0  0  0  0  0  0  0  0  0  0  0
  -21.2319   -7.5552   23.9750 H   0  0  0  0  0  0  0  0  0  0  0  0
  -21.1589   -6.0228   25.8556 H   0  0  0  0  0  0  0  0  0  0  0  0
  -22.0396   -2.8212   23.2809 H   0  0  0  0  0  0  0  0  0  0  0  0
  -22.4401  -11.9703   22.4008 H   0  0  0  0  0  0  0  0  0  0  0  0
  -21.1493  -13.0679   22.2082 H   0  0  0  0  0  0  0  0  0  0  0  0
  -24.6538  -15.7807   20.5848 H   0  0  0  0  0  0  0  0  0  0  0  0
  -26.2762  -15.5453   20.1156 H   0  0  0  0  0  0  0  0  0  0  0  0
  -26.6778  -32.4663   23.1464 H   0  0  0  0  0  0  0  0  0  0  0  0
  -25.0747  -34.0282   25.0566 H   0  0  0  0  0  0  0  0  0  0  0  0
  -22.7881  -31.3489   21.4131 H   0  0  0  0  0  0  0  0  0  0  0  0
  -23.3854  -35.9823   23.3648 H   0  0  0  0  0  0  0  0  0  0  0  0
  -24.3696  -36.8624   22.2204 H   0  0  0  0  0  0  0  0  0  0  0  0
  -23.7669  -37.6632   23.6516 H   0  0  0  0  0  0  0  0  0  0  0  0
  -25.9445  -31.6237   20.5691 H   0  0  0  0  0  0  0  0  0  0  0  0
  -26.7436  -31.0079   22.0108 H   0  0  0  0  0  0  0  0  0  0  0  0
  -28.0090  -29.1452   21.2057 H   0  0  0  0  0  0  0  0  0  0  0  0
  -26.1369  -26.0560   19.0719 H   0  0  0  0  0  0  0  0  0  0  0  0
  -24.0652  -27.2961   19.0997 H   0  0  0  0  0  0  0  0  0  0  0  0
  -23.6156  -30.5365   19.3930 H   0  0  0  0  0  0  0  0  0  0  0  0
  -22.7355  -29.1425   19.9945 H   0  0  0  0  0  0  0  0  0  0  0  0
  -25.1353  -36.2335   25.0565 H   0  0  0  0  0  0  0  0  0  0  0  0
  -21.0070  -28.3206   24.0793 H   0  0  0  0  0  0  0  0  0  0  0  0
  -20.5555  -26.2518   23.3550 H   0  0  0  0  0  0  0  0  0  0  0  0
  -21.5974  -26.8362   22.0454 H   0  0  0  0  0  0  0  0  0  0  0  0
  -19.6810  -25.6422   21.1488 H   0  0  0  0  0  0  0  0  0  0  0  0
  -19.6406  -27.3343   20.7034 H   0  0  0  0  0  0  0  0  0  0  0  0
  -17.4282  -26.6888   21.4113 H   0  0  0  0  0  0  0  0  0  0  0  0
  -18.0803  -26.0130   22.9049 H   0  0  0  0  0  0  0  0  0  0  0  0
  -19.7265  -30.6774   24.2204 H   0  0  0  0  0  0  0  0  0  0  0  0
  -17.5064  -31.5856   24.4483 H   0  0  0  0  0  0  0  0  0  0  0  0
  -15.5878  -30.2839   23.7407 H   0  0  0  0  0  0  0  0  0  0  0  0
  -15.9120  -28.0941   22.7766 H   0  0  0  0  0  0  0  0  0  0  0  0
  -24.5787  -30.7757   25.6817 H   0  0  0  0  0  0  0  0  0  0  0  0
  -25.0041  -32.2289   26.5536 H   0  0  0  0  0  0  0  0  0  0  0  0
  -25.8166  -30.7245   26.9138 H   0  0  0  0  0  0  0  0  0  0  0  0
  -26.2892  -29.7335   24.0803 H   0  0  0  0  0  0  0  0  0  0  0  0
  -27.4336  -29.7484   25.4006 H   0  0  0  0  0  0  0  0  0  0  0  0
  -27.8466  -30.4994   23.8779 H   0  0  0  0  0  0  0  0  0  0  0  0
  -27.2251  -33.3632   26.1242 H   0  0  0  0  0  0  0  0  0  0  0  0
  -28.3902  -32.6065   25.0645 H   0  0  0  0  0  0  0  0  0  0  0  0
  -27.9772  -31.8555   26.5872 H   0  0  0  0  0  0  0  0  0  0  0  0
  -28.2744  -38.0016   24.6863 H   0  0  0  0  0  0  0  0  0  0  0  0
  -28.0396  -36.2711   24.7461 H   0  0  0  0  0  0  0  0  0  0  0  0
  -27.1773  -37.3087   25.8564 H   0  0  0  0  0  0  0  0  0  0  0  0
  -20.9627  -29.9365   21.7352 H   0  0  0  0  0  0  0  0  0  0  0  0
  -26.0447  -38.2561   24.0273 H   0  0  0  0  0  0  0  0  0  0  0  0
  -25.5175  -21.3736   17.5435 H   0  0  0  0  0  0  0  0  0  0  0  0
  -29.2843  -21.1074   15.6970 H   0  0  0  0  0  0  0  0  0  0  0  0
  -27.2723  -17.6118   16.8810 H   0  0  0  0  0  0  0  0  0  0  0  0
  -25.8468  -23.0718   15.1049 H   0  0  0  0  0  0  0  0  0  0  0  0
  -27.4310  -23.1065   14.3685 H   0  0  0  0  0  0  0  0  0  0  0  0
  -26.8279  -24.5138   15.2105 H   0  0  0  0  0  0  0  0  0  0  0  0
  -30.8488  -27.7581   15.8725 H   0  0  0  0  0  0  0  0  0  0  0  0
  -30.6391  -28.7191   17.3166 H   0  0  0  0  0  0  0  0  0  0  0  0
  -29.2470  -28.2445   16.3733 H   0  0  0  0  0  0  0  0  0  0  0  0
  -31.3944  -23.4761   17.2409 H   0  0  0  0  0  0  0  0  0  0  0  0
  -31.1624  -24.4388   18.7177 H   0  0  0  0  0  0  0  0  0  0  0  0
  -30.5193  -25.3324   15.9412 H   0  0  0  0  0  0  0  0  0  0  0  0
  -31.9197  -25.8181   16.9181 H   0  0  0  0  0  0  0  0  0  0  0  0
  -26.8688  -23.3138   17.3023 H   0  0  0  0  0  0  0  0  0  0  0  0
  -29.8151  -25.9897   18.3219 H   0  0  0  0  0  0  0  0  0  0  0  0
  -24.1462  -18.8679   17.9125 H   0  0  0  0  0  0  0  0  0  0  0  0
  -29.3509  -23.5662   15.8380 H   0  0  0  0  0  0  0  0  0  0  0  0
  1 25  1  0
  1 30  2  0
  1 84  1  0
  2  3  1  0
  2 25  1  0
  2 88  1  0
  2 89  1  0
  3  4  1  0
  3 90  1  0
  3 91  1  0
  4  5  1  0
  4 92  1  0
  4 93  1  0
  5  6  1  0
  5 26  1  0
  5 94  1  6
  6 25  1  0
  6 95  1  0
  6 96  1  0
  7  8  2  0
  7 26  1  0
  7 29  1  0
  8  9  1  0
  8 22  1  0
  9 10  1  0
  9 27  2  0
 10 11  2  0
 10 15  1  0
 11 12  1  0
 11 97  1  0
 12 13  2  0
 12 98  1  0
 13 14  1  0
 13 31  1  0
 14 15  2  0
 14 99  1  0
 15100  1  0
 16 17  2  0
 16 21  1  0
 16 31  1  0
 17 18  1  0
 17101  1  0
 18 19  2  0
 18102  1  0
 19 20  1  0
 19 24  1  0
 20 21  2  0
 20103  1  0
 21 23  1  0
 22 28  1  0
 22 32  2  0
 26 27  1  0
 28104  1  0
 28105  1  0
 29106  1  0
 29107  1  0
 33 34  1  0
 33 66  1  0
 33 70  2  0
 34 36  1  0
 34 59  1  0
 34108  1  6
 35 44  2  0
 35 45  1  0
 35 68  1  0
 36 56  1  0
 36109  1  0
 37 39  1  0
 37 47  1  0
 37 66  1  0
 37110  1  6
 38 43  2  0
 38 46  1  0
 38 47  1  0
 39 64  1  0
 39 67  2  0
 40 52  1  0
 40 53  2  0
 40 58  1  0
 41111  1  0
 41112  1  0
 41113  1  0
 42 43  1  0
 42 66  1  0
 42114  1  0
 42115  1  0
 43 44  1  0
 44116  1  0
 45 46  2  0
 45117  1  0
 46118  1  0
 47119  1  0
 47120  1  0
 48 41  1  0
 48 56  1  0
 48 65  1  0
 48121  1  1
 49 50  1  0
 49 53  1  0
 49 64  1  0
 49122  1  1
 50 51  1  0
 50123  1  0
 50124  1  0
 51 52  1  0
 51125  1  0
 51126  1  0
 52127  1  0
 52128  1  0
 53 54  1  0
 54 55  2  0
 54129  1  0
 55 57  1  0
 55130  1  0
 56 69  2  0
 57 58  2  0
 57131  1  0
 58132  1  0
 59 60  1  0
 59 61  1  0
 59 62  1  0
 60133  1  0
 60134  1  0
 60135  1  0
 61136  1  0
 61137  1  0
 61138  1  0
 62139  1  0
 62140  1  0
 62141  1  0
 63 65  1  0
 63142  1  0
 63143  1  0
 63144  1  0
 64145  1  0
 65146  1  0
 68 83  1  0
 71 74  2  0
 71 75  1  0
 71147  1  0
 72 74  1  0
 72 76  2  0
 72148  1  0
 73 75  2  0
 73 76  1  0
 73149  1  0
 74 82  1  0
 75 84  1  0
 76 87  1  0
 77 80  1  0
 77 85  1  0
 77 86  2  0
 78150  1  0
 78151  1  0
 78152  1  0
 79153  1  0
 79154  1  0
 79155  1  0
 80 81  1  0
 80156  1  0
 80157  1  0
 81 83  1  0
 81158  1  0
 81159  1  0
 82 78  1  0
 82 85  1  0
 82160  1  1
 83 79  1  0
 83161  1  0
 84162  1  0
 85163  1  0
M  ISO  4   1 100  68 101  83 101  84 100
M  END
$$$$
3
     RDKit          3D

155163  0  0  0  0  0  0  0  0999 V2000
  -30.7652  -14.3608   20.6636 C   0  0  0  0  0  0  0  0  0100  0  0
  -30.4392  -12.2669   19.3775 C   0  0  0  0  0  0  0  0  0101  0  0
  -29.4791  -12.5281   18.1977 C   0  0  0  0  0  0  0  0  0102  0  0
  -27.9985  -12.3963   18.6038 C   0  0  0  0  0  0  0  0  0103  0  0
  -27.6639  -13.2170   19.8820 C   0  0  2  0  0  0  0  0  0104  0  0
  -28.6795  -12.9602   21.0279 C   0  0  0  0  0  0  0  0  0105  0  0
  -25.2633  -13.8245   20.5754 C   0  0  0  0  0  0  0  0  0106  0  0
  -24.1645  -13.0409   20.9408 C   0  0  0  0  0  0  0  0  0107  0  0
  -24.6400  -11.7009   20.8697 C   0  0  0  0  0  0  0  0  0108  0  0
  -23.9005  -10.4085   21.0420 C   0  0  0  0  0  0  0  0  0109  0  0
  -24.3588   -9.4123   21.9123 C   0  0  0  0  0  0  0  0  0110  0  0
  -23.6296   -8.2350   22.0803 C   0  0  0  0  0  0  0  0  0111  0  0
  -22.4385   -8.0419   21.3657 C   0  0  0  0  0  0  0  0  0112  0  0
  -22.0103   -9.0167   20.4678 C   0  0  0  0  0  0  0  0  0113  0  0
  -22.7317  -10.1925   20.3102 C   0  0  0  0  0  0  0  0  0114  0  0
  -21.6857   -6.0709   22.5391 C   0  0  0  0  0  0  0  0  0115  0  0
  -21.4064   -6.5490   23.8264 C   0  0  0  0  0  0  0  0  0116  0  0
  -21.3635   -5.6677   24.9085 C   0  0  0  0  0  0  0  0  0117  0  0
  -21.5973   -4.3067   24.7088 C   0  0  0  0  0  0  0  0  0118  0  0
  -21.8700   -3.8284   23.4282 C   0  0  0  0  0  0  0  0  0119  0  0
  -21.9144   -4.7056   22.3460 C   0  0  0  0  0  0  0  0  0120  0  0
  -22.8194  -13.5263   21.1763 C   0  0  0  0  0  0  0  0  0121  0  0
  -22.1559   -4.2206   21.1063 F   0  0  0  0  0  0  0  0  0122  0  0
  -21.5628   -3.4510   25.7555 F   0  0  0  0  0  0  0  0  0123  0  0
  -30.0261  -13.1803   20.4553 N   0  0  0  0  0  0  0  0  0124  0  0
  -26.2911  -12.9356   20.3443 N   0  0  0  0  0  0  0  0  0125  0  0
  -25.9236  -11.6675   20.5847 N   0  0  0  0  0  0  0  0  0126  0  0
  -22.0708  -12.7905   22.0005 N   0  0  0  0  0  0  0  0  0127  0  0
  -25.4117  -15.1773   20.4097 N   0  0  0  0  0  0  0  0  0128  0  0
  -31.7916  -14.6724   20.0536 O   0  0  0  0  0  0  0  0  0129  0  0
  -21.6670   -6.9022   21.4423 O   0  0  0  0  0  0  0  0  0130  0  0
  -22.3946  -14.5564   20.6568 O   0  0  0  0  0  0  0  0  0131  0  0
  -24.6048  -31.8614   23.2223 C   0  0  0  0  0  0  0  0  0100  0  0
  -25.8822  -32.4841   23.8616 C   0  0  1  0  0  0  0  0  0101  0  0
  -27.2536  -27.5042   20.1156 C   0  0  0  0  0  0  0  0  0102  0  0
  -25.5726  -33.8762   24.2210 N   0  0  0  0  0  0  0  0  0103  0  0
  -23.4066  -30.4859   21.5461 C   0  0  2  0  0  0  0  0  0104  0  0
  -24.8467  -28.9636   20.1247 C   0  0  0  0  0  0  0  0  0105  0  0
  -22.7412  -29.4652   22.5052 C   0  0  0  0  0  0  0  0  0106  0  0
  -18.0167  -28.1302   22.8626 C   0  0  0  0  0  0  0  0  0107  0  0
  -24.1342  -36.7390   23.2568 C   0  0  0  0  0  0  0  0  0108  0  0
  -25.9141  -30.8882   21.3456 C   0  0  0  0  0  0  0  0  0109  0  0
  -25.9930  -29.5029   20.7208 C   0  0  0  0  0  0  0  0  0110  0  0
  -27.1758  -28.7612   20.7331 C   0  0  0  0  0  0  0  0  0111  0  0
  -26.1032  -26.9836   19.5230 C   0  0  0  0  0  0  0  0  0112  0  0
  -24.9097  -27.7011   19.5331 C   0  0  0  0  0  0  0  0  0113  0  0
  -23.5715  -29.7899   20.1582 C   0  0  0  0  0  0  0  0  0114  0  0
  -25.3990  -36.3212   24.0232 C   0  0  1  0  0  0  0  0  0115  0  0
  -20.5793  -28.3813   23.1004 C   0  0  2  0  0  0  0  0  0116  0  0
  -20.6548  -26.9392   22.5411 C   0  0  0  0  0  0  0  0  0117  0  0
  -19.5615  -26.6407   21.5143 C   0  0  0  0  0  0  0  0  0118  0  0
  -18.1797  -26.7818   22.1673 C   0  0  0  0  0  0  0  0  0119  0  0
  -19.1385  -28.8769   23.2988 C   0  0  0  0  0  0  0  0  0120  0  0
  -18.9183  -30.1286   23.8878 C   0  0  0  0  0  0  0  0  0121  0  0
  -17.6396  -30.6493   24.0352 C   0  0  0  0  0  0  0  0  0122  0  0
  -25.9153  -34.9582   23.4993 C   0  0  0  0  0  0  0  0  0123  0  0
  -16.5415  -29.9068   23.6254 C   0  0  0  0  0  0  0  0  0124  0  0
  -16.7331  -28.6521   23.0586 C   0  0  0  0  0  0  0  0  0125  0  0
  -26.4583  -31.6439   25.0683 C   0  0  0  0  0  0  0  0  0126  0  0
  -25.3807  -31.3179   26.1374 C   0  0  0  0  0  0  0  0  0127  0  0
  -27.0530  -30.3024   24.5680 C   0  0  0  0  0  0  0  0  0128  0  0
  -27.6014  -32.4281   25.7651 C   0  0  0  0  0  0  0  0  0129  0  0
  -27.5629  -37.2220   24.8621 C   0  0  0  0  0  0  0  0  0130  0  0
  -21.4133  -29.3375   22.3735 N   0  0  0  0  0  0  0  0  0131  0  0
  -26.4706  -37.3372   23.9061 N   0  0  0  0  0  0  0  0  0132  0  0
  -24.6674  -31.0544   22.1178 N   0  0  0  0  0  0  0  0  0133  0  0
  -23.4259  -28.8150   23.2971 O   0  0  0  0  0  0  0  0  0134  0  0
  -28.3948  -26.7345   20.0089 O   0  0  0  0  0  0  0  0  0135  0  0
  -26.5870  -34.9065   22.4671 O   0  0  0  0  0  0  0  0  0136  0  0
  -23.5365  -32.1254   23.7833 O   0  0  0  0  0  0  0  0  0137  0  0
  -23.9038  -18.1918   16.4358 C   0  0  0  0  0  0  0  0  0  0  0  0
  -24.3799  -17.2018   17.2880 C   0  0  0  0  0  0  0  0  0  0  0  0
  -24.3305  -19.5052   16.5980 C   0  0  0  0  0  0  0  0  0  0  0  0
  -25.2743  -17.5738   18.2787 C   0  0  0  0  0  0  0  0  0  0  0  0
  -25.2270  -19.7742   17.6197 C   0  0  0  0  0  0  0  0  0  0  0  0
  -26.7651  -23.0596   18.5989 C   0  0  0  0  0  0  0  0  0  0  0  0
  -27.5752  -23.7801   19.3915 C   0  0  0  0  0  0  0  0  0  0  0  0
  -26.5580  -21.5847   18.7504 C   0  0  0  0  0  0  0  0  0  0  0  0
  -23.8181  -20.5640   15.6820 C   0  0  0  0  0  0  0  0  0  0  0  0
  -27.7546  -25.2594   19.2188 C   0  0  0  0  0  0  0  0  0  1  0  0
  -25.7116  -18.8391   18.4672 N   0  0  0  0  0  0  0  0  0  0  0  0
  -25.6688  -21.1089   17.7942 N   0  0  0  0  0  0  0  0  0  0  0  0
  -25.7547  -16.5572   19.1409 N   0  0  0  0  0  0  0  0  0  0  0  0
  -27.1281  -20.9415   19.6231 O   0  0  0  0  0  0  0  0  0  0  0  0
  -28.2842  -23.2135   20.4321 O   0  0  0  0  0  0  0  0  0  0  0  0
  -31.4485  -12.4701   19.0860 H   0  0  0  0  0  0  0  0  0  0  0  0
  -30.3970  -11.2460   19.6950 H   0  0  0  0  0  0  0  0  0  0  0  0
  -29.6870  -11.8204   17.4226 H   0  0  0  0  0  0  0  0  0  0  0  0
  -29.6375  -13.5326   17.8649 H   0  0  0  0  0  0  0  0  0  0  0  0
  -27.7830  -11.3650   18.7904 H   0  0  0  0  0  0  0  0  0  0  0  0
  -27.4028  -12.7801   17.8021 H   0  0  0  0  0  0  0  0  0  0  0  0
  -27.7353  -14.2503   19.6136 H   0  0  0  0  0  0  0  0  0  0  0  0
  -28.5890  -11.9550   21.3832 H   0  0  0  0  0  0  0  0  0  0  0  0
  -28.5005  -13.6134   21.8562 H   0  0  0  0  0  0  0  0  0  0  0  0
  -25.2399   -9.5495   22.4318 H   0  0  0  0  0  0  0  0  0  0  0  0
  -23.9663   -7.5070   22.7297 H   0  0  0  0  0  0  0  0  0  0  0  0
  -21.1515   -8.8641   19.9162 H   0  0  0  0  0  0  0  0  0  0  0  0
  -22.4016  -10.9115   19.6476 H   0  0  0  0  0  0  0  0  0  0  0  0
  -21.2319   -7.5552   23.9750 H   0  0  0  0  0  0  0  0  0  0  0  0
  -21.1589   -6.0228   25.8556 H   0  0  0  0  0  0  0  0  0  0  0  0
  -22.0396   -2.8212   23.2809 H   0  0  0  0  0  0  0  0  0  0  0  0
  -22.4401  -11.9703   22.4008 H   0  0  0  0  0  0  0  0  0  0  0  0
  -21.1493  -13.0679   22.2082 H   0  0  0  0  0  0  0  0  0  0  0  0
  -24.6538  -15.7807   20.5848 H   0  0  0  0  0  0  0  0  0  0  0  0
  -26.2762  -15.5453   20.1156 H   0  0  0  0  0  0  0  0  0  0  0  0
  -26.6778  -32.4663   23.1464 H   0  0  0  0  0  0  0  0  0  0  0  0
  -25.0747  -34.0282   25.0566 H   0  0  0  0  0  0  0  0  0  0  0  0
  -22.7881  -31.3489   21.4131 H   0  0  0  0  0  0  0  0  0  0  0  0
  -23.3854  -35.9823   23.3648 H   0  0  0  0  0  0  0  0  0  0  0  0
  -24.3696  -36.8624   22.2204 H   0  0  0  0  0  0  0  0  0  0  0  0
  -23.7669  -37.6632   23.6516 H   0  0  0  0  0  0  0  0  0  0  0  0
  -25.9445  -31.6237   20.5691 H   0  0  0  0  0  0  0  0  0  0  0  0
  -26.7436  -31.0079   22.0108 H   0  0  0  0  0  0  0  0  0  0  0  0
  -28.0090  -29.1452   21.2057 H   0  0  0  0  0  0  0  0  0  0  0  0
  -26.1369  -26.0560   19.0719 H   0  0  0  0  0  0  0  0  0  0  0  0
  -24.0652  -27.2961   19.0997 H   0  0  0  0  0  0  0  0  0  0  0  0
  -23.6156  -30.5365   19.3930 H   0  0  0  0  0  0  0  0  0  0  0  0
  -22.7355  -29.1425   19.9945 H   0  0  0  0  0  0  0  0  0  0  0  0
  -25.1353  -36.2335   25.0565 H   0  0  0  0  0  0  0  0  0  0  0  0
  -21.0070  -28.3206   24.0793 H   0  0  0  0  0  0  0  0  0  0  0  0
  -20.5555  -26.2518   23.3550 H   0  0  0  0  0  0  0  0  0  0  0  0
  -21.5974  -26.8362   22.0454 H   0  0  0  0  0  0  0  0  0  0  0  0
  -19.6810  -25.6422   21.1488 H   0  0  0  0  0  0  0  0  0  0  0  0
  -19.6406  -27.3343   20.7034 H   0  0  0  0  0  0  0  0  0  0  0  0
  -17.4282  -26.6888   21.4113 H   0  0  0  0  0  0  0  0  0  0  0  0
  -18.0803  -26.0130   22.9049 H   0  0  0  0  0  0  0  0  0  0  0  0
  -19.7265  -30.6774   24.2204 H   0  0  0  0  0  0  0  0  0  0  0  0
  -17.5064  -31.5856   24.4483 H   0  0  0  0  0  0  0  0  0  0  0  0
  -15.5878  -30.2839   23.7407 H   0  0  0  0  0  0  0  0  0  0  0  0
  -15.9120  -28.0941   22.7766 H   0  0  0  0  0  0  0  0  0  0  0  0
  -24.5787  -30.7757   25.6817 H   0  0  0  0  0  0  0  0  0  0  0  0
  -25.0041  -32.2289   26.5536 H   0  0  0  0  0  0  0  0  0  0  0  0
  -25.8166  -30.7245   26.9138 H   0  0  0  0  0  0  0  0  0  0  0  0
  -26.2892  -29.7335   24.0803 H   0  0  0  0  0  0  0  0  0  0  0  0
  -27.4336  -29.7484   25.4006 H   0  0  0  0  0  0  0  0  0  0  0  0
  -27.8466  -30.4994   23.8779 H   0  0  0  0  0  0  0  0  0  0  0  0
  -27.2251  -33.3632   26.1242 H   0  0  0  0  0  0  0  0  0  0  0  0
  -28.3902  -32.6065   25.0645 H   0  0  0  0  0  0  0  0  0  0  0  0
  -27.9772  -31.8555   26.5872 H   0  0  0  0  0  0  0  0  0  0  0  0
  -28.2744  -38.0016   24.6863 H   0  0  0  0  0  0  0  0  0  0  0  0
  -28.0396  -36.2711   24.7461 H   0  0  0  0  0  0  0  0  0  0  0  0
  -27.1773  -37.3087   25.8564 H   0  0  0  0  0  0  0  0  0  0  0  0
  -20.9627  -29.9365   21.7352 H   0  0  0  0  0  0  0  0  0  0  0  0
  -26.0447  -38.2561   24.0273 H   0  0  0  0  0  0  0  0  0  0  0  0
  -23.2364  -17.9528   15.6858 H   0  0  0  0  0  0  0  0  0  0  0  0
  -24.0766  -16.2207   17.1859 H   0  0  0  0  0  0  0  0  0  0  0  0
  -26.2581  -23.5490   17.8449 H   0  0  0  0  0  0  0  0  0  0  0  0
  -23.1425  -20.1283   14.9758 H   0  0  0  0  0  0  0  0  0  0  0  0
  -24.6382  -21.0125   15.1612 H   0  0  0  0  0  0  0  0  0  0  0  0
  -23.3059  -21.3111   16.2516 H   0  0  0  0  0  0  0  0  0  0  0  0
  -26.7422  -25.5579   19.0432 H   0  0  0  0  0  0  0  0  0  0  0  0
  -28.6813  -25.1075   18.7060 H   0  0  0  0  0  0  0  0  0  0  0  0
  -25.3047  -21.7748   17.1671 H   0  0  0  0  0  0  0  0  0  0  0  0
  -25.0132  -16.1059   19.6054 H   0  0  0  0  0  0  0  0  0  0  0  0
  -28.2188  -22.2935   20.5974 H   0  0  0  0  0  0  0  0  0  0  0  0
  1 25  1  0
  1 30  2  0
  1 83  1  0
  2  3  1  0
  2 25  1  0
  2 86  1  0
  2 87  1  0
  3  4  1  0
  3 88  1  0
  3 89  1  0
  4  5  1  0
  4 90  1  0
  4 91  1  0
  5  6  1  0
  5 26  1  0
  5 92  1  6
  6 25  1  0
  6 93  1  0
  6 94  1  0
  7  8  2  0
  7 26  1  0
  7 29  1  0
  8  9  1  0
  8 22  1  0
  9 10  1  0
  9 27  2  0
 10 11  2  0
 10 15  1  0
 11 12  1  0
 11 95  1  0
 12 13  2  0
 12 96  1  0
 13 14  1  0
 13 31  1  0
 14 15  2  0
 14 97  1  0
 15 98  1  0
 16 17  2  0
 16 21  1  0
 16 31  1  0
 17 18  1  0
 17 99  1  0
 18 19  2  0
 18100  1  0
 19 20  1  0
 19 24  1  0
 20 21  2  0
 20101  1  0
 21 23  1  0
 22 28  1  0
 22 32  2  0
 26 27  1  0
 28102  1  0
 28103  1  0
 29104  1  0
 29105  1  0
 33 34  1  0
 33 66  1  0
 33 70  2  0
 34 36  1  0
 34 59  1  0
 34106  1  6
 35 44  2  0
 35 45  1  0
 35 68  1  0
 36 56  1  0
 36107  1  0
 37 39  1  0
 37 47  1  0
 37 66  1  0
 37108  1  6
 38 43  2  0
 38 46  1  0
 38 47  1  0
 39 64  1  0
 39 67  2  0
 40 52  1  0
 40 53  2  0
 40 58  1  0
 41109  1  0
 41110  1  0
 41111  1  0
 42 43  1  0
 42 66  1  0
 42112  1  0
 42113  1  0
 43 44  1  0
 44114  1  0
 45 46  2  0
 45115  1  0
 46116  1  0
 47117  1  0
 47118  1  0
 48 41  1  0
 48 56  1  0
 48 65  1  0
 48119  1  1
 49 50  1  0
 49 53  1  0
 49 64  1  0
 49120  1  1
 50 51  1  0
 50121  1  0
 50122  1  0
 51 52  1  0
 51123  1  0
 51124  1  0
 52125  1  0
 52126  1  0
 53 54  1  0
 54 55  2  0
 54127  1  0
 55 57  1  0
 55128  1  0
 56 69  2  0
 57 58  2  0
 57129  1  0
 58130  1  0
 59 60  1  0
 59 61  1  0
 59 62  1  0
 60131  1  0
 60132  1  0
 60133  1  0
 61134  1  0
 61135  1  0
 61136  1  0
 62137  1  0
 62138  1  0
 62139  1  0
 63 65  1  0
 63140  1  0
 63141  1  0
 63142  1  0
 64143  1  0
 65144  1  0
 68 80  1  0
 71 72  2  0
 71 73  1  0
 71145  1  0
 72 74  1  0
 72146  1  0
 73 75  2  0
 73 79  1  0
 74 81  2  0
 74 83  1  0
 75 81  1  0
 75 82  1  0
 76 77  2  0
 76 78  1  0
 76147  1  0
 77 80  1  0
 77 85  1  0
 78 82  1  0
 78 84  2  0
 79148  1  0
 79149  1  0
 79150  1  0
 80151  1  0
 80152  1  0
 82153  1  0
 83154  1  0
 85155  1  0
M  ISO  4   1 100  68 101  80 101  83 100
M  END
$$$$
4
     RDKit          3D

158166  0  0  0  0  0  0  0  0999 V2000
  -30.7652  -14.3608   20.6636 C   0  0  0  0  0  0  0  0  0100  0  0
  -30.4392  -12.2669   19.3775 C   0  0  0  0  0  0  0  0  0101  0  0
  -29.4791  -12.5281   18.1977 C   0  0  0  0  0  0  0  0  0102  0  0
  -27.9985  -12.3963   18.6038 C   0  0  0  0  0  0  0  0  0103  0  0
  -27.6639  -13.2170   19.8820 C   0  0  2  0  0  0  0  0  0104  0  0
  -28.6795  -12.9602   21.0279 C   0  0  0  0  0  0  0  0  0105  0  0
  -25.2633  -13.8245   20.5754 C   0  0  0  0  0  0  0  0  0106  0  0
  -24.1645  -13.0409   20.9408 C   0  0  0  0  0  0  0  0  0107  0  0
  -24.6400  -11.7009   20.8697 C   0  0  0  0  0  0  0  0  0108  0  0
  -23.9005  -10.4085   21.0420 C   0  0  0  0  0  0  0  0  0109  0  0
  -24.3588   -9.4123   21.9123 C   0  0  0  0  0  0  0  0  0110  0  0
  -23.6296   -8.2350   22.0803 C   0  0  0  0  0  0  0  0  0111  0  0
  -22.4385   -8.0419   21.3657 C   0  0  0  0  0  0  0  0  0112  0  0
  -22.0103   -9.0167   20.4678 C   0  0  0  0  0  0  0  0  0113  0  0
  -22.7317  -10.1925   20.3102 C   0  0  0  0  0  0  0  0  0114  0  0
  -21.6857   -6.0709   22.5391 C   0  0  0  0  0  0  0  0  0115  0  0
  -21.4064   -6.5490   23.8264 C   0  0  0  0  0  0  0  0  0116  0  0
  -21.3635   -5.6677   24.9085 C   0  0  0  0  0  0  0  0  0117  0  0
  -21.5973   -4.3067   24.7088 C   0  0  0  0  0  0  0  0  0118  0  0
  -21.8700   -3.8284   23.4282 C   0  0  0  0  0  0  0  0  0119  0  0
  -21.9144   -4.7056   22.3460 C   0  0  0  0  0  0  0  0  0120  0  0
  -22.8194  -13.5263   21.1763 C   0  0  0  0  0  0  0  0  0121  0  0
  -22.1559   -4.2206   21.1063 F   0  0  0  0  0  0  0  0  0122  0  0
  -21.5628   -3.4510   25.7555 F   0  0  0  0  0  0  0  0  0123  0  0
  -30.0261  -13.1803   20.4553 N   0  0  0  0  0  0  0  0  0124  0  0
  -26.2911  -12.9356   20.3443 N   0  0  0  0  0  0  0  0  0125  0  0
  -25.9236  -11.6675   20.5847 N   0  0  0  0  0  0  0  0  0126  0  0
  -22.0708  -12.7905   22.0005 N   0  0  0  0  0  0  0  0  0127  0  0
  -25.4117  -15.1773   20.4097 N   0  0  0  0  0  0  0  0  0128  0  0
  -31.7916  -14.6724   20.0536 O   0  0  0  0  0  0  0  0  0129  0  0
  -21.6670   -6.9022   21.4423 O   0  0  0  0  0  0  0  0  0130  0  0
  -22.3946  -14.5564   20.6568 O   0  0  0  0  0  0  0  0  0131  0  0
  -24.6048  -31.8614   23.2223 C   0  0  0  0  0  0  0  0  0100  0  0
  -25.8822  -32.4841   23.8616 C   0  0  1  0  0  0  0  0  0101  0  0
  -27.2536  -27.5042   20.1156 C   0  0  0  0  0  0  0  0  0102  0  0
  -25.5726  -33.8762   24.2210 N   0  0  0  0  0  0  0  0  0103  0  0
  -23.4066  -30.4859   21.5461 C   0  0  2  0  0  0  0  0  0104  0  0
  -24.8467  -28.9636   20.1247 C   0  0  0  0  0  0  0  0  0105  0  0
  -22.7412  -29.4652   22.5052 C   0  0  0  0  0  0  0  0  0106  0  0
  -18.0167  -28.1302   22.8626 C   0  0  0  0  0  0  0  0  0107  0  0
  -24.1342  -36.7390   23.2568 C   0  0  0  0  0  0  0  0  0108  0  0
  -25.9141  -30.8882   21.3456 C   0  0  0  0  0  0  0  0  0109  0  0
  -25.9930  -29.5029   20.7208 C   0  0  0  0  0  0  0  0  0110  0  0
  -27.1758  -28.7612   20.7331 C   0  0  0  0  0  0  0  0  0111  0  0
  -26.1032  -26.9836   19.5230 C   0  0  0  0  0  0  0  0  0112  0  0
  -24.9097  -27.7011   19.5331 C   0  0  0  0  0  0  0  0  0113  0  0
  -23.5715  -29.7899   20.1582 C   0  0  0  0  0  0  0  0  0114  0  0
  -25.3990  -36.3212   24.0232 C   0  0  1  0  0  0  0  0  0115  0  0
  -20.5793  -28.3813   23.1004 C   0  0  2  0  0  0  0  0  0116  0  0
  -20.6548  -26.9392   22.5411 C   0  0  0  0  0  0  0  0  0117  0  0
  -19.5615  -26.6407   21.5143 C   0  0  0  0  0  0  0  0  0118  0  0
  -18.1797  -26.7818   22.1673 C   0  0  0  0  0  0  0  0  0119  0  0
  -19.1385  -28.8769   23.2988 C   0  0  0  0  0  0  0  0  0120  0  0
  -18.9183  -30.1286   23.8878 C   0  0  0  0  0  0  0  0  0121  0  0
  -17.6396  -30.6493   24.0352 C   0  0  0  0  0  0  0  0  0122  0  0
  -25.9153  -34.9582   23.4993 C   0  0  0  0  0  0  0  0  0123  0  0
  -16.5415  -29.9068   23.6254 C   0  0  0  0  0  0  0  0  0124  0  0
  -16.7331  -28.6521   23.0586 C   0  0  0  0  0  0  0  0  0125  0  0
  -26.4583  -31.6439   25.0683 C   0  0  0  0  0  0  0  0  0126  0  0
  -25.3807  -31.3179   26.1374 C   0  0  0  0  0  0  0  0  0127  0  0
  -27.0530  -30.3024   24.5680 C   0  0  0  0  0  0  0  0  0128  0  0
  -27.6014  -32.4281   25.7651 C   0  0  0  0  0  0  0  0  0129  0  0
  -27.5629  -37.2220   24.8621 C   0  0  0  0  0  0  0  0  0130  0  0
  -21.4133  -29.3375   22.3735 N   0  0  0  0  0  0  0  0  0131  0  0
  -26.4706  -37.3372   23.9061 N   0  0  0  0  0  0  0  0  0132  0  0
  -24.6674  -31.0544   22.1178 N   0  0  0  0  0  0  0  0  0133  0  0
  -23.4259  -28.8150   23.2971 O   0  0  0  0  0  0  0  0  0134  0  0
  -28.3948  -26.7345   20.0089 O   0  0  0  0  0  0  0  0  0135  0  0
  -26.5870  -34.9065   22.4671 O   0  0  0  0  0  0  0  0  0136  0  0
  -23.5365  -32.1254   23.7833 O   0  0  0  0  0  0  0  0  0137  0  0
  -19.7204  -21.8543   23.1535 C   0  0  0  0  0  0  0  0  0  0  0  0
  -20.7280  -20.8597   21.1958 C   0  0  0  0  0  0  0  0  0  0  0  0
  -20.7952  -21.2057   22.5454 C   0  0  0  0  0  0  0  0  0  0  0  0
  -18.5783  -22.1568   22.4120 C   0  0  0  0  0  0  0  0  0  0  0  0
  -19.5859  -21.1622   20.4543 C   0  0  0  0  0  0  0  0  0  0  0  0
  -18.5111  -21.8107   21.0624 C   0  0  0  0  0  0  0  0  0  0  0  0
  -20.2400  -20.2010   16.8992 C   0  0  0  0  0  0  0  0  0  0  0  0
  -21.3078  -19.8791   15.8721 C   0  0  0  0  0  0  0  0  0  0  0  0
  -21.7963  -20.3723   24.6653 C   0  0  0  0  0  0  0  0  0  0  0  0
  -20.6800  -20.5375   18.3006 C   0  0  0  0  0  0  0  0  0  0  0  0
  -22.7518  -19.9166   16.3041 C   0  0  0  0  0  0  0  0  0  1  0  0
  -17.4927  -22.8128   23.0294 N   0  0  0  0  0  0  0  0  0  0  0  0
  -19.5216  -20.8171   19.1129 N   0  0  0  0  0  0  0  0  0  0  0  0
  -21.9765  -20.8932   23.3120 N   0  0  0  0  0  0  0  0  0  0  0  0
  -19.0756  -20.1656   16.5216 O   0  0  0  0  0  0  0  0  0  0  0  0
  -20.9356  -19.6064   14.7380 O   0  0  0  0  0  0  0  0  0  0  0  0
  -17.4121  -22.1013   20.3494 F   0  0  0  0  0  0  0  0  0  0  0  0
  -31.4485  -12.4701   19.0860 H   0  0  0  0  0  0  0  0  0  0  0  0
  -30.3970  -11.2460   19.6950 H   0  0  0  0  0  0  0  0  0  0  0  0
  -29.6870  -11.8204   17.4226 H   0  0  0  0  0  0  0  0  0  0  0  0
  -29.6375  -13.5326   17.8649 H   0  0  0  0  0  0  0  0  0  0  0  0
  -27.7830  -11.3650   18.7904 H   0  0  0  0  0  0  0  0  0  0  0  0
  -27.4028  -12.7801   17.8021 H   0  0  0  0  0  0  0  0  0  0  0  0
  -27.7353  -14.2503   19.6136 H   0  0  0  0  0  0  0  0  0  0  0  0
  -28.5890  -11.9550   21.3832 H   0  0  0  0  0  0  0  0  0  0  0  0
  -28.5005  -13.6134   21.8562 H   0  0  0  0  0  0  0  0  0  0  0  0
  -25.2399   -9.5495   22.4318 H   0  0  0  0  0  0  0  0  0  0  0  0
  -23.9663   -7.5070   22.7297 H   0  0  0  0  0  0  0  0  0  0  0  0
  -21.1515   -8.8641   19.9162 H   0  0  0  0  0  0  0  0  0  0  0  0
  -22.4016  -10.9115   19.6476 H   0  0  0  0  0  0  0  0  0  0  0  0
  -21.2319   -7.5552   23.9750 H   0  0  0  0  0  0  0  0  0  0  0  0
  -21.1589   -6.0228   25.8556 H   0  0  0  0  0  0  0  0  0  0  0  0
  -22.0396   -2.8212   23.2809 H   0  0  0  0  0  0  0  0  0  0  0  0
  -22.4401  -11.9703   22.4008 H   0  0  0  0  0  0  0  0  0  0  0  0
  -21.1493  -13.0679   22.2082 H   0  0  0  0  0  0  0  0  0  0  0  0
  -24.6538  -15.7807   20.5848 H   0  0  0  0  0  0  0  0  0  0  0  0
  -26.2762  -15.5453   20.1156 H   0  0  0  0  0  0  0  0  0  0  0  0
  -26.6778  -32.4663   23.1464 H   0  0  0  0  0  0  0  0  0  0  0  0
  -25.0747  -34.0282   25.0566 H   0  0  0  0  0  0  0  0  0  0  0  0
  -22.7881  -31.3489   21.4131 H   0  0  0  0  0  0  0  0  0  0  0  0
  -23.3854  -35.9823   23.3648 H   0  0  0  0  0  0  0  0  0  0  0  0
  -24.3696  -36.8624   22.2204 H   0  0  0  0  0  0  0  0  0  0  0  0
  -23.7669  -37.6632   23.6516 H   0  0  0  0  0  0  0  0  0  0  0  0
  -25.9445  -31.6237   20.5691 H   0  0  0  0  0  0  0  0  0  0  0  0
  -26.7436  -31.0079   22.0108 H   0  0  0  0  0  0  0  0  0  0  0  0
  -28.0090  -29.1452   21.2057 H   0  0  0  0  0  0  0  0  0  0  0  0
  -26.1369  -26.0560   19.0719 H   0  0  0  0  0  0  0  0  0  0  0  0
  -24.0652  -27.2961   19.0997 H   0  0  0  0  0  0  0  0  0  0  0  0
  -23.6156  -30.5365   19.3930 H   0  0  0  0  0  0  0  0  0  0  0  0
  -22.7355  -29.1425   19.9945 H   0  0  0  0  0  0  0  0  0  0  0  0
  -25.1353  -36.2335   25.0565 H   0  0  0  0  0  0  0  0  0  0  0  0
  -21.0070  -28.3206   24.0793 H   0  0  0  0  0  0  0  0  0  0  0  0
  -20.5555  -26.2518   23.3550 H   0  0  0  0  0  0  0  0  0  0  0  0
  -21.5974  -26.8362   22.0454 H   0  0  0  0  0  0  0  0  0  0  0  0
  -19.6810  -25.6422   21.1488 H   0  0  0  0  0  0  0  0  0  0  0  0
  -19.6406  -27.3343   20.7034 H   0  0  0  0  0  0  0  0  0  0  0  0
  -17.4282  -26.6888   21.4113 H   0  0  0  0  0  0  0  0  0  0  0  0
  -18.0803  -26.0130   22.9049 H   0  0  0  0  0  0  0  0  0  0  0  0
  -19.7265  -30.6774   24.2204 H   0  0  0  0  0  0  0  0  0  0  0  0
  -17.5064  -31.5856   24.4483 H   0  0  0  0  0  0  0  0  0  0  0  0
  -15.5878  -30.2839   23.7407 H   0  0  0  0  0  0  0  0  0  0  0  0
  -15.9120  -28.0941   22.7766 H   0  0  0  0  0  0  0  0  0  0  0  0
  -24.5787  -30.7757   25.6817 H   0  0  0  0  0  0  0  0  0  0  0  0
  -25.0041  -32.2289   26.5536 H   0  0  0  0  0  0  0  0  0  0  0  0
  -25.8166  -30.7245   26.9138 H   0  0  0  0  0  0  0  0  0  0  0  0
  -26.2892  -29.7335   24.0803 H   0  0  0  0  0  0  0  0  0  0  0  0
  -27.4336  -29.7484   25.4006 H   0  0  0  0  0  0  0  0  0  0  0  0
  -27.8466  -30.4994   23.8779 H   0  0  0  0  0  0  0  0  0  0  0  0
  -27.2251  -33.3632   26.1242 H   0  0  0  0  0  0  0  0  0  0  0  0
  -28.3902  -32.6065   25.0645 H   0  0  0  0  0  0  0  0  0  0  0  0
  -27.9772  -31.8555   26.5872 H   0  0  0  0  0  0  0  0  0  0  0  0
  -28.2744  -38.0016   24.6863 H   0  0  0  0  0  0  0  0  0  0  0  0
  -28.0396  -36.2711   24.7461 H   0  0  0  0  0  0  0  0  0  0  0  0
  -27.1773  -37.3087   25.8564 H   0  0  0  0  0  0  0  0  0  0  0  0
  -20.9627  -29.9365   21.7352 H   0  0  0  0  0  0  0  0  0  0  0  0
  -26.0447  -38.2561   24.0273 H   0  0  0  0  0  0  0  0  0  0  0  0
  -19.7702  -22.1104   24.1520 H   0  0  0  0  0  0  0  0  0  0  0  0
  -21.5232  -20.3799   20.7459 H   0  0  0  0  0  0  0  0  0  0  0  0
  -20.9742  -20.8723   25.1334 H   0  0  0  0  0  0  0  0  0  0  0  0
  -22.6869  -20.5410   25.2339 H   0  0  0  0  0  0  0  0  0  0  0  0
  -21.5959  -19.3222   24.6195 H   0  0  0  0  0  0  0  0  0  0  0  0
  -21.3161  -21.3976   18.2781 H   0  0  0  0  0  0  0  0  0  0  0  0
  -21.2156  -19.7092   18.7154 H   0  0  0  0  0  0  0  0  0  0  0  0
  -23.2772  -19.6207   15.4202 H   0  0  0  0  0  0  0  0  0  0  0  0
  -22.5976  -19.3970   17.2267 H   0  0  0  0  0  0  0  0  0  0  0  0
  -17.5420  -23.0563   23.9820 H   0  0  0  0  0  0  0  0  0  0  0  0
  -16.6858  -23.0271   22.5076 H   0  0  0  0  0  0  0  0  0  0  0  0
  -18.6341  -20.7596   18.6907 H   0  0  0  0  0  0  0  0  0  0  0  0
  1 25  1  0
  1 30  2  0
  1 84  1  0
  2  3  1  0
  2 25  1  0
  2 88  1  0
  2 89  1  0
  3  4  1  0
  3 90  1  0
  3 91  1  0
  4  5  1  0
  4 92  1  0
  4 93  1  0
  5  6  1  0
  5 26  1  0
  5 94  1  6
  6 25  1  0
  6 95  1  0
  6 96  1  0
  7  8  2  0
  7 26  1  0
  7 29  1  0
  8  9  1  0
  8 22  1  0
  9 10  1  0
  9 27  2  0
 10 11  2  0
 10 15  1  0
 11 12  1  0
 11 97  1  0
 12 13  2  0
 12 98  1  0
 13 14  1  0
 13 31  1  0
 14 15  2  0
 14 99  1  0
 15100  1  0
 16 17  2  0
 16 21  1  0
 16 31  1  0
 17 18  1  0
 17101  1  0
 18 19  2  0
 18102  1  0
 19 20  1  0
 19 24  1  0
 20 21  2  0
 20103  1  0
 21 23  1  0
 22 28  1  0
 22 32  2  0
 26 27  1  0
 28104  1  0
 28105  1  0
 29106  1  0
 29107  1  0
 33 34  1  0
 33 66  1  0
 33 70  2  0
 34 36  1  0
 34 59  1  0
 34108  1  6
 35 44  2  0
 35 45  1  0
 35 68  1  0
 36 56  1  0
 36109  1  0
 37 39  1  0
 37 47  1  0
 37 66  1  0
 37110  1  6
 38 43  2  0
 38 46  1  0
 38 47  1  0
 39 64  1  0
 39 67  2  0
 40 52  1  0
 40 53  2  0
 40 58  1  0
 41111  1  0
 41112  1  0
 41113  1  0
 42 43  1  0
 42 66  1  0
 42114  1  0
 42115  1  0
 43 44  1  0
 44116  1  0
 45 46  2  0
 45117  1  0
 46118  1  0
 47119  1  0
 47120  1  0
 48 41  1  0
 48 56  1  0
 48 65  1  0
 48121  1  1
 49 50  1  0
 49 53  1  0
 49 64  1  0
 49122  1  1
 50 51  1  0
 50123  1  0
 50124  1  0
 51 52  1  0
 51125  1  0
 51126  1  0
 52127  1  0
 52128  1  0
 53 54  1  0
 54 55  2  0
 54129  1  0
 55 57  1  0
 55130  1  0
 56 69  2  0
 57 58  2  0
 57131  1  0
 58132  1  0
 59 60  1  0
 59 61  1  0
 59 62  1  0
 60133  1  0
 60134  1  0
 60135  1  0
 61136  1  0
 61137  1  0
 61138  1  0
 62139  1  0
 62140  1  0
 62141  1  0
 63 65  1  0
 63142  1  0
 63143  1  0
 63144  1  0
 64145  1  0
 65146  1  0
 68 81  1  0
 71 73  2  0
 71 74  1  0
 71147  1  0
 72 73  1  0
 72 75  2  0
 72148  1  0
 73 84  1  0
 74 76  2  0
 74 82  1  0
 75 76  1  0
 75 83  1  0
 76 87  1  0
 77 78  1  0
 77 80  1  0
 77 85  2  0
 78 81  1  0
 78 86  2  0
 79 84  1  0
 79149  1  0
 79150  1  0
 79151  1  0
 80 83  1  0
 80152  1  0
 80153  1  0
 81154  1  0
 81155  1  0
 82156  1  0
 82157  1  0
 83158  1  0
M  ISO  4   1 100  68 101  81 101  84 100
M  END
$$$$
5
     RDKit          3D

160168  0  0  0  0  0  0  0  0999 V2000
  -30.7652  -14.3608   20.6636 C   0  0  0  0  0  0  0  0  0100  0  0
  -30.4392  -12.2669   19.3775 C   0  0  0  0  0  0  0  0  0101  0  0
  -29.4791  -12.5281   18.1977 C   0  0  0  0  0  0  0  0  0102  0  0
  -27.9985  -12.3963   18.6038 C   0  0  0  0  0  0  0  0  0103  0  0
  -27.6639  -13.2170   19.8820 C   0  0  2  0  0  0  0  0  0104  0  0
  -28.6795  -12.9602   21.0279 C   0  0  0  0  0  0  0  0  0105  0  0
  -25.2633  -13.8245   20.5754 C   0  0  0  0  0  0  0  0  0106  0  0
  -24.1645  -13.0409   20.9408 C   0  0  0  0  0  0  0  0  0107  0  0
  -24.6400  -11.7009   20.8697 C   0  0  0  0  0  0  0  0  0108  0  0
  -23.9005  -10.4085   21.0420 C   0  0  0  0  0  0  0  0  0109  0  0
  -24.3588   -9.4123   21.9123 C   0  0  0  0  0  0  0  0  0110  0  0
  -23.6296   -8.2350   22.0803 C   0  0  0  0  0  0  0  0  0111  0  0
  -22.4385   -8.0419   21.3657 C   0  0  0  0  0  0  0  0  0112  0  0
  -22.0103   -9.0167   20.4678 C   0  0  0  0  0  0  0  0  0113  0  0
  -22.7317  -10.1925   20.3102 C   0  0  0  0  0  0  0  0  0114  0  0
  -21.6857   -6.0709   22.5391 C   0  0  0  0  0  0  0  0  0115  0  0
  -21.4064   -6.5490   23.8264 C   0  0  0  0  0  0  0  0  0116  0  0
  -21.3635   -5.6677   24.9085 C   0  0  0  0  0  0  0  0  0117  0  0
  -21.5973   -4.3067   24.7088 C   0  0  0  0  0  0  0  0  0118  0  0
  -21.8700   -3.8284   23.4282 C   0  0  0  0  0  0  0  0  0119  0  0
  -21.9144   -4.7056   22.3460 C   0  0  0  0  0  0  0  0  0120  0  0
  -22.8194  -13.5263   21.1763 C   0  0  0  0  0  0  0  0  0121  0  0
  -22.1559   -4.2206   21.1063 F   0  0  0  0  0  0  0  0  0122  0  0
  -21.5628   -3.4510   25.7555 F   0  0  0  0  0  0  0  0  0123  0  0
  -30.0261  -13.1803   20.4553 N   0  0  0  0  0  0  0  0  0124  0  0
  -26.2911  -12.9356   20.3443 N   0  0  0  0  0  0  0  0  0125  0  0
  -25.9236  -11.6675   20.5847 N   0  0  0  0  0  0  0  0  0126  0  0
  -22.0708  -12.7905   22.0005 N   0  0  0  0  0  0  0  0  0127  0  0
  -25.4117  -15.1773   20.4097 N   0  0  0  0  0  0  0  0  0128  0  0
  -31.7916  -14.6724   20.0536 O   0  0  0  0  0  0  0  0  0129  0  0
  -21.6670   -6.9022   21.4423 O   0  0  0  0  0  0  0  0  0130  0  0
  -22.3946  -14.5564   20.6568 O   0  0  0  0  0  0  0  0  0131  0  0
  -24.6048  -31.8614   23.2223 C   0  0  0  0  0  0  0  0  0100  0  0
  -25.8822  -32.4841   23.8616 C   0  0  1  0  0  0  0  0  0101  0  0
  -27.2536  -27.5042   20.1156 C   0  0  0  0  0  0  0  0  0102  0  0
  -25.5726  -33.8762   24.2210 N   0  0  0  0  0  0  0  0  0103  0  0
  -23.4066  -30.4859   21.5461 C   0  0  2  0  0  0  0  0  0104  0  0
  -24.8467  -28.9636   20.1247 C   0  0  0  0  0  0  0  0  0105  0  0
  -22.7412  -29.4652   22.5052 C   0  0  0  0  0  0  0  0  0106  0  0
  -18.0167  -28.1302   22.8626 C   0  0  0  0  0  0  0  0  0107  0  0
  -24.1342  -36.7390   23.2568 C   0  0  0  0  0  0  0  0  0108  0  0
  -25.9141  -30.8882   21.3456 C   0  0  0  0  0  0  0  0  0109  0  0
  -25.9930  -29.5029   20.7208 C   0  0  0  0  0  0  0  0  0110  0  0
  -27.1758  -28.7612   20.7331 C   0  0  0  0  0  0  0  0  0111  0  0
  -26.1032  -26.9836   19.5230 C   0  0  0  0  0  0  0  0  0112  0  0
  -24.9097  -27.7011   19.5331 C   0  0  0  0  0  0  0  0  0113  0  0
  -23.5715  -29.7899   20.1582 C   0  0  0  0  0  0  0  0  0114  0  0
  -25.3990  -36.3212   24.0232 C   0  0  1  0  0  0  0  0  0115  0  0
  -20.5793  -28.3813   23.1004 C   0  0  2  0  0  0  0  0  0116  0  0
  -20.6548  -26.9392   22.5411 C   0  0  0  0  0  0  0  0  0117  0  0
  -19.5615  -26.6407   21.5143 C   0  0  0  0  0  0  0  0  0118  0  0
  -18.1797  -26.7818   22.1673 C   0  0  0  0  0  0  0  0  0119  0  0
  -19.1385  -28.8769   23.2988 C   0  0  0  0  0  0  0  0  0120  0  0
  -18.9183  -30.1286   23.8878 C   0  0  0  0  0  0  0  0  0121  0  0
  -17.6396  -30.6493   24.0352 C   0  0  0  0  0  0  0  0  0122  0  0
  -25.9153  -34.9582   23.4993 C   0  0  0  0  0  0  0  0  0123  0  0
  -16.5415  -29.9068   23.6254 C   0  0  0  0  0  0  0  0  0124  0  0
  -16.7331  -28.6521   23.0586 C   0  0  0  0  0  0  0  0  0125  0  0
  -26.4583  -31.6439   25.0683 C   0  0  0  0  0  0  0  0  0126  0  0
  -25.3807  -31.3179   26.1374 C   0  0  0  0  0  0  0  0  0127  0  0
  -27.0530  -30.3024   24.5680 C   0  0  0  0  0  0  0  0  0128  0  0
  -27.6014  -32.4281   25.7651 C   0  0  0  0  0  0  0  0  0129  0  0
  -27.5629  -37.2220   24.8621 C   0  0  0  0  0  0  0  0  0130  0  0
  -21.4133  -29.3375   22.3735 N   0  0  0  0  0  0  0  0  0131  0  0
  -26.4706  -37.3372   23.9061 N   0  0  0  0  0  0  0  0  0132  0  0
  -24.6674  -31.0544   22.1178 N   0  0  0  0  0  0  0  0  0133  0  0
  -23.4259  -28.8150   23.2971 O   0  0  0  0  0  0  0  0  0134  0  0
  -28.3948  -26.7345   20.0089 O   0  0  0  0  0  0  0  0  0135  0  0
  -26.5870  -34.9065   22.4671 O   0  0  0  0  0  0  0  0  0136  0  0
  -23.5365  -32.1254   23.7833 O   0  0  0  0  0  0  0  0  0137  0  0
  -28.7026  -21.5823   20.5741 C   0  0  0  0  0  0  0  0  0  0  0  0
  -28.9549  -20.8093   17.9055 C   0  0  0  0  0  0  0  0  0  0  0  0
  -29.6949  -22.1496   19.7746 C   0  0  0  0  0  0  0  0  0  0  0  0
  -27.9627  -20.2421   18.7051 C   0  0  0  0  0  0  0  0  0  0  0  0
  -27.8366  -20.6285   20.0394 C   0  0  0  0  0  0  0  0  0  0  0  0
  -29.8210  -21.7631   18.4403 C   0  0  0  0  0  0  0  0  0  0  0  0
  -30.6104  -23.1590   20.3433 C   0  0  0  0  0  0  0  0  0  0  0  0
  -32.7896  -25.3152   19.5379 C   0  0  0  0  0  0  0  0  0  0  0  0
  -30.7565  -26.7697   20.0342 C   0  0  0  0  0  0  0  0  0  0  0  0
  -34.0411  -25.7226   20.2729 C   0  0  0  0  0  0  0  0  0  0  0  0
  -29.3904  -26.9028   20.6805 C   0  0  0  0  0  0  0  0  0  1  0  0
  -31.4838  -25.4677   20.2795 C   0  0  1  0  0  0  0  0  0  0  0  0
  -27.0842  -19.2736   18.1593 N   0  0  0  0  0  0  0  0  0  0  0  0
  -30.6386  -24.3861   19.7963 N   0  0  0  0  0  0  0  0  0  0  0  0
  -31.3730  -22.8038   21.3774 N   0  0  0  0  0  0  0  0  0  0  0  0
  -32.8458  -24.8662   18.3932 O   0  0  0  0  0  0  0  0  0  0  0  0
  -31.2396  -27.6751   19.3546 O   0  0  0  0  0  0  0  0  0  0  0  0
  -26.8866  -20.0897   20.8173 F   0  0  0  0  0  0  0  0  0  0  0  0
  -30.7715  -22.3024   17.6640 F   0  0  0  0  0  0  0  0  0  0  0  0
  -31.4485  -12.4701   19.0860 H   0  0  0  0  0  0  0  0  0  0  0  0
  -30.3970  -11.2460   19.6950 H   0  0  0  0  0  0  0  0  0  0  0  0
  -29.6870  -11.8204   17.4226 H   0  0  0  0  0  0  0  0  0  0  0  0
  -29.6375  -13.5326   17.8649 H   0  0  0  0  0  0  0  0  0  0  0  0
  -27.7830  -11.3650   18.7904 H   0  0  0  0  0  0  0  0  0  0  0  0
  -27.4028  -12.7801   17.8021 H   0  0  0  0  0  0  0  0  0  0  0  0
  -27.7353  -14.2503   19.6136 H   0  0  0  0  0  0  0  0  0  0  0  0
  -28.5890  -11.9550   21.3832 H   0  0  0  0  0  0  0  0  0  0  0  0
  -28.5005  -13.6134   21.8562 H   0  0  0  0  0  0  0  0  0  0  0  0
  -25.2399   -9.5495   22.4318 H   0  0  0  0  0  0  0  0  0  0  0  0
  -23.9663   -7.5070   22.7297 H   0  0  0  0  0  0  0  0  0  0  0  0
  -21.1515   -8.8641   19.9162 H   0  0  0  0  0  0  0  0  0  0  0  0
  -22.4016  -10.9115   19.6476 H   0  0  0  0  0  0  0  0  0  0  0  0
  -21.2319   -7.5552   23.9750 H   0  0  0  0  0  0  0  0  0  0  0  0
  -21.1589   -6.0228   25.8556 H   0  0  0  0  0  0  0  0  0  0  0  0
  -22.0396   -2.8212   23.2809 H   0  0  0  0  0  0  0  0  0  0  0  0
  -22.4401  -11.9703   22.4008 H   0  0  0  0  0  0  0  0  0  0  0  0
  -21.1493  -13.0679   22.2082 H   0  0  0  0  0  0  0  0  0  0  0  0
  -24.6538  -15.7807   20.5848 H   0  0  0  0  0  0  0  0  0  0  0  0
  -26.2762  -15.5453   20.1156 H   0  0  0  0  0  0  0  0  0  0  0  0
  -26.6778  -32.4663   23.1464 H   0  0  0  0  0  0  0  0  0  0  0  0
  -25.0747  -34.0282   25.0566 H   0  0  0  0  0  0  0  0  0  0  0  0
  -22.7881  -31.3489   21.4131 H   0  0  0  0  0  0  0  0  0  0  0  0
  -23.3854  -35.9823   23.3648 H   0  0  0  0  0  0  0  0  0  0  0  0
  -24.3696  -36.8624   22.2204 H   0  0  0  0  0  0  0  0  0  0  0  0
  -23.7669  -37.6632   23.6516 H   0  0  0  0  0  0  0  0  0  0  0  0
  -25.9445  -31.6237   20.5691 H   0  0  0  0  0  0  0  0  0  0  0  0
  -26.7436  -31.0079   22.0108 H   0  0  0  0  0  0  0  0  0  0  0  0
  -28.0090  -29.1452   21.2057 H   0  0  0  0  0  0  0  0  0  0  0  0
  -26.1369  -26.0560   19.0719 H   0  0  0  0  0  0  0  0  0  0  0  0
  -24.0652  -27.2961   19.0997 H   0  0  0  0  0  0  0  0  0  0  0  0
  -23.6156  -30.5365   19.3930 H   0  0  0  0  0  0  0  0  0  0  0  0
  -22.7355  -29.1425   19.9945 H   0  0  0  0  0  0  0  0  0  0  0  0
  -25.1353  -36.2335   25.0565 H   0  0  0  0  0  0  0  0  0  0  0  0
  -21.0070  -28.3206   24.0793 H   0  0  0  0  0  0  0  0  0  0  0  0
  -20.5555  -26.2518   23.3550 H   0  0  0  0  0  0  0  0  0  0  0  0
  -21.5974  -26.8362   22.0454 H   0  0  0  0  0  0  0  0  0  0  0  0
  -19.6810  -25.6422   21.1488 H   0  0  0  0  0  0  0  0  0  0  0  0
  -19.6406  -27.3343   20.7034 H   0  0  0  0  0  0  0  0  0  0  0  0
  -17.4282  -26.6888   21.4113 H   0  0  0  0  0  0  0  0  0  0  0  0
  -18.0803  -26.0130   22.9049 H   0  0  0  0  0  0  0  0  0  0  0  0
  -19.7265  -30.6774   24.2204 H   0  0  0  0  0  0  0  0  0  0  0  0
  -17.5064  -31.5856   24.4483 H   0  0  0  0  0  0  0  0  0  0  0  0
  -15.5878  -30.2839   23.7407 H   0  0  0  0  0  0  0  0  0  0  0  0
  -15.9120  -28.0941   22.7766 H   0  0  0  0  0  0  0  0  0  0  0  0
  -24.5787  -30.7757   25.6817 H   0  0  0  0  0  0  0  0  0  0  0  0
  -25.0041  -32.2289   26.5536 H   0  0  0  0  0  0  0  0  0  0  0  0
  -25.8166  -30.7245   26.9138 H   0  0  0  0  0  0  0  0  0  0  0  0
  -26.2892  -29.7335   24.0803 H   0  0  0  0  0  0  0  0  0  0  0  0
  -27.4336  -29.7484   25.4006 H   0  0  0  0  0  0  0  0  0  0  0  0
  -27.8466  -30.4994   23.8779 H   0  0  0  0  0  0  0  0  0  0  0  0
  -27.2251  -33.3632   26.1242 H   0  0  0  0  0  0  0  0  0  0  0  0
  -28.3902  -32.6065   25.0645 H   0  0  0  0  0  0  0  0  0  0  0  0
  -27.9772  -31.8555   26.5872 H   0  0  0  0  0  0  0  0  0  0  0  0
  -28.2744  -38.0016   24.6863 H   0  0  0  0  0  0  0  0  0  0  0  0
  -28.0396  -36.2711   24.7461 H   0  0  0  0  0  0  0  0  0  0  0  0
  -27.1773  -37.3087   25.8564 H   0  0  0  0  0  0  0  0  0  0  0  0
  -20.9627  -29.9365   21.7352 H   0  0  0  0  0  0  0  0  0  0  0  0
  -26.0447  -38.2561   24.0273 H   0  0  0  0  0  0  0  0  0  0  0  0
  -28.6092  -21.8683   21.5613 H   0  0  0  0  0  0  0  0  0  0  0  0
  -29.0482  -20.5233   16.9183 H   0  0  0  0  0  0  0  0  0  0  0  0
  -33.7815  -26.0846   21.2458 H   0  0  0  0  0  0  0  0  0  0  0  0
  -34.5402  -26.4953   19.7263 H   0  0  0  0  0  0  0  0  0  0  0  0
  -34.6899  -24.8771   20.3683 H   0  0  0  0  0  0  0  0  0  0  0  0
  -29.3312  -27.8925   21.0829 H   0  0  0  0  0  0  0  0  0  0  0  0
  -29.3625  -26.0936   21.3800 H   0  0  0  0  0  0  0  0  0  0  0  0
  -31.6934  -25.4494   21.3286 H   0  0  0  0  0  0  0  0  0  0  0  0
  -26.2591  -19.3139   17.6237 H   0  0  0  0  0  0  0  0  0  0  0  0
  -30.0539  -24.5636   19.0244 H   0  0  0  0  0  0  0  0  0  0  0  0
  -31.3145  -21.8910   21.7416 H   0  0  0  0  0  0  0  0  0  0  0  0
  -31.9947  -23.4543   21.7769 H   0  0  0  0  0  0  0  0  0  0  0  0
  1 25  1  0
  1 30  2  0
  1 83  1  0
  2  3  1  0
  2 25  1  0
  2 90  1  0
  2 91  1  0
  3  4  1  0
  3 92  1  0
  3 93  1  0
  4  5  1  0
  4 94  1  0
  4 95  1  0
  5  6  1  0
  5 26  1  0
  5 96  1  6
  6 25  1  0
  6 97  1  0
  6 98  1  0
  7  8  2  0
  7 26  1  0
  7 29  1  0
  8  9  1  0
  8 22  1  0
  9 10  1  0
  9 27  2  0
 10 11  2  0
 10 15  1  0
 11 12  1  0
 11 99  1  0
 12 13  2  0
 12100  1  0
 13 14  1  0
 13 31  1  0
 14 15  2  0
 14101  1  0
 15102  1  0
 16 17  2  0
 16 21  1  0
 16 31  1  0
 17 18  1  0
 17103  1  0
 18 19  2  0
 18104  1  0
 19 20  1  0
 19 24  1  0
 20 21  2  0
 20105  1  0
 21 23  1  0
 22 28  1  0
 22 32  2  0
 26 27  1  0
 28106  1  0
 28107  1  0
 29108  1  0
 29109  1  0
 33 34  1  0
 33 66  1  0
 33 70  2  0
 34 36  1  0
 34 59  1  0
 34110  1  6
 35 44  2  0
 35 45  1  0
 35 68  1  0
 36 56  1  0
 36111  1  0
 37 39  1  0
 37 47  1  0
 37 66  1  0
 37112  1  6
 38 43  2  0
 38 46  1  0
 38 47  1  0
 39 64  1  0
 39 67  2  0
 40 52  1  0
 40 53  2  0
 40 58  1  0
 41113  1  0
 41114  1  0
 41115  1  0
 42 43  1  0
 42 66  1  0
 42116  1  0
 42117  1  0
 43 44  1  0
 44118  1  0
 45 46  2  0
 45119  1  0
 46120  1  0
 47121  1  0
 47122  1  0
 48 41  1  0
 48 56  1  0
 48 65  1  0
 48123  1  1
 49 50  1  0
 49 53  1  0
 49 64  1  0
 49124  1  1
 50 51  1  0
 50125  1  0
 50126  1  0
 51 52  1  0
 51127  1  0
 51128  1  0
 52129  1  0
 52130  1  0
 53 54  1  0
 54 55  2  0
 54131  1  0
 55 57  1  0
 55132  1  0
 56 69  2  0
 57 58  2  0
 57133  1  0
 58134  1  0
 59 60  1  0
 59 61  1  0
 59 62  1  0
 60135  1  0
 60136  1  0
 60137  1  0
 61138  1  0
 61139  1  0
 61140  1  0
 62141  1  0
 62142  1  0
 62143  1  0
 63 65  1  0
 63144  1  0
 63145  1  0
 63146  1  0
 64147  1  0
 65148  1  0
 68 81  1  0
 71 73  2  0
 71 75  1  0
 71149  1  0
 72 74  1  0
 72 76  2  0
 72150  1  0
 73 76  1  0
 73 77  1  0
 74 75  2  0
 74 83  1  0
 75 88  1  0
 76 89  1  0
 77 84  1  0
 77 85  2  0
 78 80  1  0
 78 82  1  0
 78 86  2  0
 79 81  1  0
 79 82  1  0
 79 87  2  0
 80151  1  0
 80152  1  0
 80153  1  0
 81154  1  0
 81155  1  0
 82 84  1  0
 82156  1  1
 83157  1  0
 84158  1  0
 85159  1  0
 85160  1  0
M  CHG  1  85   1
M  ISO  4   1 100  68 101  81 101  83 100
M  END
$$$$
6
     RDKit          3D

158166  0  0  0  0  0  0  0  0999 V2000
  -30.7652  -14.3608   20.6636 C   0  0  0  0  0  0  0  0  0100  0  0
  -30.4392  -12.2669   19.3775 C   0  0  0  0  0  0  0  0  0101  0  0
  -29.4791  -12.5281   18.1977 C   0  0  0  0  0  0  0  0  0102  0  0
  -27.9985  -12.3963   18.6038 C   0  0  0  0  0  0  0  0  0103  0  0
  -27.6639  -13.2170   19.8820 C   0  0  2  0  0  0  0  0  0104  0  0
  -28.6795  -12.9602   21.0279 C   0  0  0  0  0  0  0  0  0105  0  0
  -25.2633  -13.8245   20.5754 C   0  0  0  0  0  0  0  0  0106  0  0
  -24.1645  -13.0409   20.9408 C   0  0  0  0  0  0  0  0  0107  0  0
  -24.6400  -11.7009   20.8697 C   0  0  0  0  0  0  0  0  0108  0  0
  -23.9005  -10.4085   21.0420 C   0  0  0  0  0  0  0  0  0109  0  0
  -24.3588   -9.4123   21.9123 C   0  0  0  0  0  0  0  0  0110  0  0
  -23.6296   -8.2350   22.0803 C   0  0  0  0  0  0  0  0  0111  0  0
  -22.4385   -8.0419   21.3657 C   0  0  0  0  0  0  0  0  0112  0  0
  -22.0103   -9.0167   20.4678 C   0  0  0  0  0  0  0  0  0113  0  0
  -22.7317  -10.1925   20.3102 C   0  0  0  0  0  0  0  0  0114  0  0
  -21.6857   -6.0709   22.5391 C   0  0  0  0  0  0  0  0  0115  0  0
  -21.4064   -6.5490   23.8264 C   0  0  0  0  0  0  0  0  0116  0  0
  -21.3635   -5.6677   24.9085 C   0  0  0  0  0  0  0  0  0117  0  0
  -21.5973   -4.3067   24.7088 C   0  0  0  0  0  0  0  0  0118  0  0
  -21.8700   -3.8284   23.4282 C   0  0  0  0  0  0  0  0  0119  0  0
  -21.9144   -4.7056   22.3460 C   0  0  0  0  0  0  0  0  0120  0  0
  -22.8194  -13.5263   21.1763 C   0  0  0  0  0  0  0  0  0121  0  0
  -22.1559   -4.2206   21.1063 F   0  0  0  0  0  0  0  0  0122  0  0
  -21.5628   -3.4510   25.7555 F   0  0  0  0  0  0  0  0  0123  0  0
  -30.0261  -13.1803   20.4553 N   0  0  0  0  0  0  0  0  0124  0  0
  -26.2911  -12.9356   20.3443 N   0  0  0  0  0  0  0  0  0125  0  0
  -25.9236  -11.6675   20.5847 N   0  0  0  0  0  0  0  0  0126  0  0
  -22.0708  -12.7905   22.0005 N   0  0  0  0  0  0  0  0  0127  0  0
  -25.4117  -15.1773   20.4097 N   0  0  0  0  0  0  0  0  0128  0  0
  -31.7916  -14.6724   20.0536 O   0  0  0  0  0  0  0  0  0129  0  0
  -21.6670   -6.9022   21.4423 O   0  0  0  0  0  0  0  0  0130  0  0
  -22.3946  -14.5564   20.6568 O   0  0  0  0  0  0  0  0  0131  0  0
  -24.6048  -31.8614   23.2223 C   0  0  0  0  0  0  0  0  0100  0  0
  -25.8822  -32.4841   23.8616 C   0  0  1  0  0  0  0  0  0101  0  0
  -27.2536  -27.5042   20.1156 C   0  0  0  0  0  0  0  0  0102  0  0
  -25.5726  -33.8762   24.2210 N   0  0  0  0  0  0  0  0  0103  0  0
  -23.4066  -30.4859   21.5461 C   0  0  2  0  0  0  0  0  0104  0  0
  -24.8467  -28.9636   20.1247 C   0  0  0  0  0  0  0  0  0105  0  0
  -22.7412  -29.4652   22.5052 C   0  0  0  0  0  0  0  0  0106  0  0
  -18.0167  -28.1302   22.8626 C   0  0  0  0  0  0  0  0  0107  0  0
  -24.1342  -36.7390   23.2568 C   0  0  0  0  0  0  0  0  0108  0  0
  -25.9141  -30.8882   21.3456 C   0  0  0  0  0  0  0  0  0109  0  0
  -25.9930  -29.5029   20.7208 C   0  0  0  0  0  0  0  0  0110  0  0
  -27.1758  -28.7612   20.7331 C   0  0  0  0  0  0  0  0  0111  0  0
  -26.1032  -26.9836   19.5230 C   0  0  0  0  0  0  0  0  0112  0  0
  -24.9097  -27.7011   19.5331 C   0  0  0  0  0  0  0  0  0113  0  0
  -23.5715  -29.7899   20.1582 C   0  0  0  0  0  0  0  0  0114  0  0
  -25.3990  -36.3212   24.0232 C   0  0  1  0  0  0  0  0  0115  0  0
  -20.5793  -28.3813   23.1004 C   0  0  2  0  0  0  0  0  0116  0  0
  -20.6548  -26.9392   22.5411 C   0  0  0  0  0  0  0  0  0117  0  0
  -19.5615  -26.6407   21.5143 C   0  0  0  0  0  0  0  0  0118  0  0
  -18.1797  -26.7818   22.1673 C   0  0  0  0  0  0  0  0  0119  0  0
  -19.1385  -28.8769   23.2988 C   0  0  0  0  0  0  0  0  0120  0  0
  -18.9183  -30.1286   23.8878 C   0  0  0  0  0  0  0  0  0121  0  0
  -17.6396  -30.6493   24.0352 C   0  0  0  0  0  0  0  0  0122  0  0
  -25.9153  -34.9582   23.4993 C   0  0  0  0  0  0  0  0  0123  0  0
  -16.5415  -29.9068   23.6254 C   0  0  0  0  0  0  0  0  0124  0  0
  -16.7331  -28.6521   23.0586 C   0  0  0  0  0  0  0  0  0125  0  0
  -26.4583  -31.6439   25.0683 C   0  0  0  0  0  0  0  0  0126  0  0
  -25.3807  -31.3179   26.1374 C   0  0  0  0  0  0  0  0  0127  0  0
  -27.0530  -30.3024   24.5680 C   0  0  0  0  0  0  0  0  0128  0  0
  -27.6014  -32.4281   25.7651 C   0  0  0  0  0  0  0  0  0129  0  0
  -27.5629  -37.2220   24.8621 C   0  0  0  0  0  0  0  0  0130  0  0
  -21.4133  -29.3375   22.3735 N   0  0  0  0  0  0  0  0  0131  0  0
  -26.4706  -37.3372   23.9061 N   0  0  0  0  0  0  0  0  0132  0  0
  -24.6674  -31.0544   22.1178 N   0  0  0  0  0  0  0  0  0133  0  0
  -23.4259  -28.8150   23.2971 O   0  0  0  0  0  0  0  0  0134  0  0
  -28.3948  -26.7345   20.0089 O   0  0  0  0  0  0  0  0  0135  0  0
  -26.5870  -34.9065   22.4671 O   0  0  0  0  0  0  0  0  0136  0  0
  -23.5365  -32.1254   23.7833 O   0  0  0  0  0  0  0  0  0137  0  0
  -27.7256  -18.5748   20.0782 C   0  0  0  0  0  0  0  0  0  0  0  0
  -27.8985  -17.2305   19.7490 C   0  0  0  0  0  0  0  0  0  0  0  0
  -30.0434  -17.2341   20.8611 C   0  0  0  0  0  0  0  0  0  0  0  0
  -28.7115  -19.2488   20.7988 C   0  0  0  0  0  0  0  0  0  0  0  0
  -29.0574  -16.5601   20.1405 C   0  0  0  0  0  0  0  0  0  0  0  0
  -29.8704  -18.5785   21.1903 C   0  0  0  0  0  0  0  0  0  0  0  0
  -28.1235  -22.9359   20.3372 C   0  0  0  0  0  0  0  0  0  0  0  0
  -28.4971  -20.6734   21.1321 C   0  0  0  0  0  0  0  0  0  0  0  0
  -28.3169  -21.6468   20.0100 C   0  0  0  0  0  0  0  0  0  0  0  0
  -27.9424  -24.0354   19.3411 C   0  0  0  0  0  0  0  0  0  0  0  0
  -31.7314  -18.5733   22.8523 C   0  0  0  0  0  0  0  0  0  0  0  0
  -27.7380  -25.4176   19.9262 C   0  0  0  0  0  0  0  0  0  1  0  0
  -29.2324  -15.1944   19.8056 N   0  0  0  0  0  0  0  0  0  0  0  0
  -30.8815  -19.2433   21.9193 N   0  0  0  0  0  0  0  0  0  0  0  0
  -28.4968  -21.0127   22.3110 O   0  0  0  0  0  0  0  0  0  0  0  0
  -27.9588  -23.8322   18.1306 O   0  0  0  0  0  0  0  0  0  0  0  0
  -28.3927  -21.1613   18.7236 O   0  0  0  0  0  0  0  0  0  0  0  0
  -31.4485  -12.4701   19.0860 H   0  0  0  0  0  0  0  0  0  0  0  0
  -30.3970  -11.2460   19.6950 H   0  0  0  0  0  0  0  0  0  0  0  0
  -29.6870  -11.8204   17.4226 H   0  0  0  0  0  0  0  0  0  0  0  0
  -29.6375  -13.5326   17.8649 H   0  0  0  0  0  0  0  0  0  0  0  0
  -27.7830  -11.3650   18.7904 H   0  0  0  0  0  0  0  0  0  0  0  0
  -27.4028  -12.7801   17.8021 H   0  0  0  0  0  0  0  0  0  0  0  0
  -27.7353  -14.2503   19.6136 H   0  0  0  0  0  0  0  0  0  0  0  0
  -28.5890  -11.9550   21.3832 H   0  0  0  0  0  0  0  0  0  0  0  0
  -28.5005  -13.6134   21.8562 H   0  0  0  0  0  0  0  0  0  0  0  0
  -25.2399   -9.5495   22.4318 H   0  0  0  0  0  0  0  0  0  0  0  0
  -23.9663   -7.5070   22.7297 H   0  0  0  0  0  0  0  0  0  0  0  0
  -21.1515   -8.8641   19.9162 H   0  0  0  0  0  0  0  0  0  0  0  0
  -22.4016  -10.9115   19.6476 H   0  0  0  0  0  0  0  0  0  0  0  0
  -21.2319   -7.5552   23.9750 H   0  0  0  0  0  0  0  0  0  0  0  0
  -21.1589   -6.0228   25.8556 H   0  0  0  0  0  0  0  0  0  0  0  0
  -22.0396   -2.8212   23.2809 H   0  0  0  0  0  0  0  0  0  0  0  0
  -22.4401  -11.9703   22.4008 H   0  0  0  0  0  0  0  0  0  0  0  0
  -21.1493  -13.0679   22.2082 H   0  0  0  0  0  0  0  0  0  0  0  0
  -24.6538  -15.7807   20.5848 H   0  0  0  0  0  0  0  0  0  0  0  0
  -26.2762  -15.5453   20.1156 H   0  0  0  0  0  0  0  0  0  0  0  0
  -26.6778  -32.4663   23.1464 H   0  0  0  0  0  0  0  0  0  0  0  0
  -25.0747  -34.0282   25.0566 H   0  0  0  0  0  0  0  0  0  0  0  0
  -22.7881  -31.3489   21.4131 H   0  0  0  0  0  0  0  0  0  0  0  0
  -23.3854  -35.9823   23.3648 H   0  0  0  0  0  0  0  0  0  0  0  0
  -24.3696  -36.8624   22.2204 H   0  0  0  0  0  0  0  0  0  0  0  0
  -23.7669  -37.6632   23.6516 H   0  0  0  0  0  0  0  0  0  0  0  0
  -25.9445  -31.6237   20.5691 H   0  0  0  0  0  0  0  0  0  0  0  0
  -26.7436  -31.0079   22.0108 H   0  0  0  0  0  0  0  0  0  0  0  0
  -28.0090  -29.1452   21.2057 H   0  0  0  0  0  0  0  0  0  0  0  0
  -26.1369  -26.0560   19.0719 H   0  0  0  0  0  0  0  0  0  0  0  0
  -24.0652  -27.2961   19.0997 H   0  0  0  0  0  0  0  0  0  0  0  0
  -23.6156  -30.5365   19.3930 H   0  0  0  0  0  0  0  0  0  0  0  0
  -22.7355  -29.1425   19.9945 H   0  0  0  0  0  0  0  0  0  0  0  0
  -25.1353  -36.2335   25.0565 H   0  0  0  0  0  0  0  0  0  0  0  0
  -21.0070  -28.3206   24.0793 H   0  0  0  0  0  0  0  0  0  0  0  0
  -20.5555  -26.2518   23.3550 H   0  0  0  0  0  0  0  0  0  0  0  0
  -21.5974  -26.8362   22.0454 H   0  0  0  0  0  0  0  0  0  0  0  0
  -19.6810  -25.6422   21.1488 H   0  0  0  0  0  0  0  0  0  0  0  0
  -19.6406  -27.3343   20.7034 H   0  0  0  0  0  0  0  0  0  0  0  0
  -17.4282  -26.6888   21.4113 H   0  0  0  0  0  0  0  0  0  0  0  0
  -18.0803  -26.0130   22.9049 H   0  0  0  0  0  0  0  0  0  0  0  0
  -19.7265  -30.6774   24.2204 H   0  0  0  0  0  0  0  0  0  0  0  0
  -17.5064  -31.5856   24.4483 H   0  0  0  0  0  0  0  0  0  0  0  0
  -15.5878  -30.2839   23.7407 H   0  0  0  0  0  0  0  0  0  0  0  0
  -15.9120  -28.0941   22.7766 H   0  0  0  0  0  0  0  0  0  0  0  0
  -24.5787  -30.7757   25.6817 H   0  0  0  0  0  0  0  0  0  0  0  0
  -25.0041  -32.2289   26.5536 H   0  0  0  0  0  0  0  0  0  0  0  0
  -25.8166  -30.7245   26.9138 H   0  0  0  0  0  0  0  0  0  0  0  0
  -26.2892  -29.7335   24.0803 H   0  0  0  0  0  0  0  0  0  0  0  0
  -27.4336  -29.7484   25.4006 H   0  0  0  0  0  0  0  0  0  0  0  0
  -27.8466  -30.4994   23.8779 H   0  0  0  0  0  0  0  0  0  0  0  0
  -27.2251  -33.3632   26.1242 H   0  0  0  0  0  0  0  0  0  0  0  0
  -28.3902  -32.6065   25.0645 H   0  0  0  0  0  0  0  0  0  0  0  0
  -27.9772  -31.8555   26.5872 H   0  0  0  0  0  0  0  0  0  0  0  0
  -28.2744  -38.0016   24.6863 H   0  0  0  0  0  0  0  0  0  0  0  0
  -28.0396  -36.2711   24.7461 H   0  0  0  0  0  0  0  0  0  0  0  0
  -27.1773  -37.3087   25.8564 H   0  0  0  0  0  0  0  0  0  0  0  0
  -20.9627  -29.9365   21.7352 H   0  0  0  0  0  0  0  0  0  0  0  0
  -26.0447  -38.2561   24.0273 H   0  0  0  0  0  0  0  0  0  0  0  0
  -26.8682  -19.0708   19.7886 H   0  0  0  0  0  0  0  0  0  0  0  0
  -27.1691  -16.7319   19.2158 H   0  0  0  0  0  0  0  0  0  0  0  0
  -30.9008  -16.7381   21.1507 H   0  0  0  0  0  0  0  0  0  0  0  0
  -28.0985  -23.1820   21.3391 H   0  0  0  0  0  0  0  0  0  0  0  0
  -32.4157  -19.2760   23.2798 H   0  0  0  0  0  0  0  0  0  0  0  0
  -32.2784  -17.8043   22.3480 H   0  0  0  0  0  0  0  0  0  0  0  0
  -31.1365  -18.1378   23.6277 H   0  0  0  0  0  0  0  0  0  0  0  0
  -27.6090  -25.1859   20.9628 H   0  0  0  0  0  0  0  0  0  0  0  0
  -27.1389  -25.7244   19.0944 H   0  0  0  0  0  0  0  0  0  0  0  0
  -28.6318  -14.7110   19.1934 H   0  0  0  0  0  0  0  0  0  0  0  0
  -31.0059  -20.2097   21.7785 H   0  0  0  0  0  0  0  0  0  0  0  0
  -28.2847  -21.7423   17.9964 H   0  0  0  0  0  0  0  0  0  0  0  0
  1 25  1  0
  1 30  2  0
  1 83  1  0
  2  3  1  0
  2 25  1  0
  2 88  1  0
  2 89  1  0
  3  4  1  0
  3 90  1  0
  3 91  1  0
  4  5  1  0
  4 92  1  0
  4 93  1  0
  5  6  1  0
  5 26  1  0
  5 94  1  6
  6 25  1  0
  6 95  1  0
  6 96  1  0
  7  8  2  0
  7 26  1  0
  7 29  1  0
  8  9  1  0
  8 22  1  0
  9 10  1  0
  9 27  2  0
 10 11  2  0
 10 15  1  0
 11 12  1  0
 11 97  1  0
 12 13  2  0
 12 98  1  0
 13 14  1  0
 13 31  1  0
 14 15  2  0
 14 99  1  0
 15100  1  0
 16 17  2  0
 16 21  1  0
 16 31  1  0
 17 18  1  0
 17101  1  0
 18 19  2  0
 18102  1  0
 19 20  1  0
 19 24  1  0
 20 21  2  0
 20103  1  0
 21 23  1  0
 22 28  1  0
 22 32  2  0
 26 27  1  0
 28104  1  0
 28105  1  0
 29106  1  0
 29107  1  0
 33 34  1  0
 33 66  1  0
 33 70  2  0
 34 36  1  0
 34 59  1  0
 34108  1  6
 35 44  2  0
 35 45  1  0
 35 68  1  0
 36 56  1  0
 36109  1  0
 37 39  1  0
 37 47  1  0
 37 66  1  0
 37110  1  6
 38 43  2  0
 38 46  1  0
 38 47  1  0
 39 64  1  0
 39 67  2  0
 40 52  1  0
 40 53  2  0
 40 58  1  0
 41111  1  0
 41112  1  0
 41113  1  0
 42 43  1  0
 42 66  1  0
 42114  1  0
 42115  1  0
 43 44  1  0
 44116  1  0
 45 46  2  0
 45117  1  0
 46118  1  0
 47119  1  0
 47120  1  0
 48 41  1  0
 48 56  1  0
 48 65  1  0
 48121  1  1
 49 50  1  0
 49 53  1  0
 49 64  1  0
 49122  1  1
 50 51  1  0
 50123  1  0
 50124  1  0
 51 52  1  0
 51125  1  0
 51126  1  0
 52127  1  0
 52128  1  0
 53 54  1  0
 54 55  2  0
 54129  1  0
 55 57  1  0
 55130  1  0
 56 69  2  0
 57 58  2  0
 57131  1  0
 58132  1  0
 59 60  1  0
 59 61  1  0
 59 62  1  0
 60133  1  0
 60134  1  0
 60135  1  0
 61136  1  0
 61137  1  0
 61138  1  0
 62139  1  0
 62140  1  0
 62141  1  0
 63 65  1  0
 63142  1  0
 63143  1  0
 63144  1  0
 64145  1  0
 65146  1  0
 68 82  1  0
 71 72  2  0
 71 74  1  0
 71147  1  0
 72 75  1  0
 72148  1  0
 73 75  2  0
 73 76  1  0
 73149  1  0
 74 76  2  0
 74 78  1  0
 75 83  1  0
 76 84  1  0
 77 79  2  0
 77 80  1  0
 77150  1  0
 78 79  1  0
 78 85  2  0
 79 87  1  0
 80 82  1  0
 80 86  2  0
 81 84  1  0
 81151  1  0
 81152  1  0
 81153  1  0
 82154  1  0
 82155  1  0
 83156  1  0
 84157  1  0
 87158  1  0
M  ISO  4   1 100  68 101  82 101  83 100
M  END
$$$$
7
     RDKit          3D

170178  0  0  0  0  0  0  0  0999 V2000
  -30.7652  -14.3608   20.6636 C   0  0  0  0  0  0  0  0  0100  0  0
  -30.4392  -12.2669   19.3775 C   0  0  0  0  0  0  0  0  0101  0  0
  -29.4791  -12.5281   18.1977 C   0  0  0  0  0  0  0  0  0102  0  0
  -27.9985  -12.3963   18.6038 C   0  0  0  0  0  0  0  0  0103  0  0
  -27.6639  -13.2170   19.8820 C   0  0  2  0  0  0  0  0  0104  0  0
  -28.6795  -12.9602   21.0279 C   0  0  0  0  0  0  0  0  0105  0  0
  -25.2633  -13.8245   20.5754 C   0  0  0  0  0  0  0  0  0106  0  0
  -24.1645  -13.0409   20.9408 C   0  0  0  0  0  0  0  0  0107  0  0
  -24.6400  -11.7009   20.8697 C   0  0  0  0  0  0  0  0  0108  0  0
  -23.9005  -10.4085   21.0420 C   0  0  0  0  0  0  0  0  0109  0  0
  -24.3588   -9.4123   21.9123 C   0  0  0  0  0  0  0  0  0110  0  0
  -23.6296   -8.2350   22.0803 C   0  0  0  0  0  0  0  0  0111  0  0
  -22.4385   -8.0419   21.3657 C   0  0  0  0  0  0  0  0  0112  0  0
  -22.0103   -9.0167   20.4678 C   0  0  0  0  0  0  0  0  0113  0  0
  -22.7317  -10.1925   20.3102 C   0  0  0  0  0  0  0  0  0114  0  0
  -21.6857   -6.0709   22.5391 C   0  0  0  0  0  0  0  0  0115  0  0
  -21.4064   -6.5490   23.8264 C   0  0  0  0  0  0  0  0  0116  0  0
  -21.3635   -5.6677   24.9085 C   0  0  0  0  0  0  0  0  0117  0  0
  -21.5973   -4.3067   24.7088 C   0  0  0  0  0  0  0  0  0118  0  0
  -21.8700   -3.8284   23.4282 C   0  0  0  0  0  0  0  0  0119  0  0
  -21.9144   -4.7056   22.3460 C   0  0  0  0  0  0  0  0  0120  0  0
  -22.8194  -13.5263   21.1763 C   0  0  0  0  0  0  0  0  0121  0  0
  -22.1559   -4.2206   21.1063 F   0  0  0  0  0  0  0  0  0122  0  0
  -21.5628   -3.4510   25.7555 F   0  0  0  0  0  0  0  0  0123  0  0
  -30.0261  -13.1803   20.4553 N   0  0  0  0  0  0  0  0  0124  0  0
  -26.2911  -12.9356   20.3443 N   0  0  0  0  0  0  0  0  0125  0  0
  -25.9236  -11.6675   20.5847 N   0  0  0  0  0  0  0  0  0126  0  0
  -22.0708  -12.7905   22.0005 N   0  0  0  0  0  0  0  0  0127  0  0
  -25.4117  -15.1773   20.4097 N   0  0  0  0  0  0  0  0  0128  0  0
  -31.7916  -14.6724   20.0536 O   0  0  0  0  0  0  0  0  0129  0  0
  -21.6670   -6.9022   21.4423 O   0  0  0  0  0  0  0  0  0130  0  0
  -22.3946  -14.5564   20.6568 O   0  0  0  0  0  0  0  0  0131  0  0
  -24.6048  -31.8614   23.2223 C   0  0  0  0  0  0  0  0  0100  0  0
  -25.8822  -32.4841   23.8616 C   0  0  1  0  0  0  0  0  0101  0  0
  -27.2536  -27.5042   20.1156 C   0  0  0  0  0  0  0  0  0102  0  0
  -25.5726  -33.8762   24.2210 N   0  0  0  0  0  0  0  0  0103  0  0
  -23.4066  -30.4859   21.5461 C   0  0  2  0  0  0  0  0  0104  0  0
  -24.8467  -28.9636   20.1247 C   0  0  0  0  0  0  0  0  0105  0  0
  -22.7412  -29.4652   22.5052 C   0  0  0  0  0  0  0  0  0106  0  0
  -18.0167  -28.1302   22.8626 C   0  0  0  0  0  0  0  0  0107  0  0
  -24.1342  -36.7390   23.2568 C   0  0  0  0  0  0  0  0  0108  0  0
  -25.9141  -30.8882   21.3456 C   0  0  0  0  0  0  0  0  0109  0  0
  -25.9930  -29.5029   20.7208 C   0  0  0  0  0  0  0  0  0110  0  0
  -27.1758  -28.7612   20.7331 C   0  0  0  0  0  0  0  0  0111  0  0
  -26.1032  -26.9836   19.5230 C   0  0  0  0  0  0  0  0  0112  0  0
  -24.9097  -27.7011   19.5331 C   0  0  0  0  0  0  0  0  0113  0  0
  -23.5715  -29.7899   20.1582 C   0  0  0  0  0  0  0  0  0114  0  0
  -25.3990  -36.3212   24.0232 C   0  0  1  0  0  0  0  0  0115  0  0
  -20.5793  -28.3813   23.1004 C   0  0  2  0  0  0  0  0  0116  0  0
  -20.6548  -26.9392   22.5411 C   0  0  0  0  0  0  0  0  0117  0  0
  -19.5615  -26.6407   21.5143 C   0  0  0  0  0  0  0  0  0118  0  0
  -18.1797  -26.7818   22.1673 C   0  0  0  0  0  0  0  0  0119  0  0
  -19.1385  -28.8769   23.2988 C   0  0  0  0  0  0  0  0  0120  0  0
  -18.9183  -30.1286   23.8878 C   0  0  0  0  0  0  0  0  0121  0  0
  -17.6396  -30.6493   24.0352 C   0  0  0  0  0  0  0  0  0122  0  0
  -25.9153  -34.9582   23.4993 C   0  0  0  0  0  0  0  0  0123  0  0
  -16.5415  -29.9068   23.6254 C   0  0  0  0  0  0  0  0  0124  0  0
  -16.7331  -28.6521   23.0586 C   0  0  0  0  0  0  0  0  0125  0  0
  -26.4583  -31.6439   25.0683 C   0  0  0  0  0  0  0  0  0126  0  0
  -25.3807  -31.3179   26.1374 C   0  0  0  0  0  0  0  0  0127  0  0
  -27.0530  -30.3024   24.5680 C   0  0  0  0  0  0  0  0  0128  0  0
  -27.6014  -32.4281   25.7651 C   0  0  0  0  0  0  0  0  0129  0  0
  -27.5629  -37.2220   24.8621 C   0  0  0  0  0  0  0  0  0130  0  0
  -21.4133  -29.3375   22.3735 N   0  0  0  0  0  0  0  0  0131  0  0
  -26.4706  -37.3372   23.9061 N   0  0  0  0  0  0  0  0  0132  0  0
  -24.6674  -31.0544   22.1178 N   0  0  0  0  0  0  0  0  0133  0  0
  -23.4259  -28.8150   23.2971 O   0  0  0  0  0  0  0  0  0134  0  0
  -28.3948  -26.7345   20.0089 O   0  0  0  0  0  0  0  0  0135  0  0
  -26.5870  -34.9065   22.4671 O   0  0  0  0  0  0  0  0  0136  0  0
  -23.5365  -32.1254   23.7833 O   0  0  0  0  0  0  0  0  0137  0  0
  -29.4197  -18.6169   21.0795 C   0  0  0  0  0  0  0  0  0  0  0  0
  -31.1197  -20.2498   20.5500 C   0  0  0  0  0  0  0  0  0  0  0  0
  -31.5501  -17.8992   20.1946 C   0  0  0  0  0  0  0  0  0  0  0  0
  -29.8429  -19.9447   21.0215 C   0  0  0  0  0  0  0  0  0  0  0  0
  -30.2733  -17.5941   20.6661 C   0  0  0  0  0  0  0  0  0  0  0  0
  -31.9734  -19.2270   20.1365 C   0  0  0  0  0  0  0  0  0  0  0  0
  -28.9338  -21.0343   21.4613 C   0  0  0  0  0  0  0  0  0  0  0  0
  -26.3396  -22.6183   20.5011 C   0  0  0  0  0  0  0  0  0  0  0  0
  -25.8169  -20.9833   24.6372 C   0  0  0  0  0  0  0  0  0  0  0  0
  -23.9878  -19.5580   23.6977 C   0  0  0  0  0  0  0  0  0  0  0  0
  -33.9442  -18.7366   18.6871 C   0  0  0  0  0  0  0  0  0  0  0  0
  -26.0397  -24.0789   20.7790 C   0  0  0  0  0  0  0  0  0  1  0  0
  -25.2532  -21.0804   22.1497 C   0  0  0  0  0  0  0  0  0  0  0  0
  -26.5684  -21.7363   21.7226 C   0  0  1  0  0  0  0  0  0  0  0  0
  -25.3487  -20.1985   23.4110 C   0  0  0  0  0  0  0  0  0  0  0  0
  -29.8435  -16.2452   20.7243 N   0  0  0  0  0  0  0  0  0  0  0  0
  -33.2643  -19.5351   19.6595 N   0  0  0  0  0  0  0  0  0  0  0  0
  -27.5735  -20.7723   21.3593 N   0  0  0  0  0  0  0  0  0  0  0  0
  -29.4140  -22.0911   21.8628 O   0  0  0  0  0  0  0  0  0  0  0  0
  -26.3584  -22.1681   19.3552 O   0  0  0  0  0  0  0  0  0  0  0  0
  -31.4485  -12.4701   19.0860 H   0  0  0  0  0  0  0  0  0  0  0  0
  -30.3970  -11.2460   19.6950 H   0  0  0  0  0  0  0  0  0  0  0  0
  -29.6870  -11.8204   17.4226 H   0  0  0  0  0  0  0  0  0  0  0  0
  -29.6375  -13.5326   17.8649 H   0  0  0  0  0  0  0  0  0  0  0  0
  -27.7830  -11.3650   18.7904 H   0  0  0  0  0  0  0  0  0  0  0  0
  -27.4028  -12.7801   17.8021 H   0  0  0  0  0  0  0  0  0  0  0  0
  -27.7353  -14.2503   19.6136 H   0  0  0  0  0  0  0  0  0  0  0  0
  -28.5890  -11.9550   21.3832 H   0  0  0  0  0  0  0  0  0  0  0  0
  -28.5005  -13.6134   21.8562 H   0  0  0  0  0  0  0  0  0  0  0  0
  -25.2399   -9.5495   22.4318 H   0  0  0  0  0  0  0  0  0  0  0  0
  -23.9663   -7.5070   22.7297 H   0  0  0  0  0  0  0  0  0  0  0  0
  -21.1515   -8.8641   19.9162 H   0  0  0  0  0  0  0  0  0  0  0  0
  -22.4016  -10.9115   19.6476 H   0  0  0  0  0  0  0  0  0  0  0  0
  -21.2319   -7.5552   23.9750 H   0  0  0  0  0  0  0  0  0  0  0  0
  -21.1589   -6.0228   25.8556 H   0  0  0  0  0  0  0  0  0  0  0  0
  -22.0396   -2.8212   23.2809 H   0  0  0  0  0  0  0  0  0  0  0  0
  -22.4401  -11.9703   22.4008 H   0  0  0  0  0  0  0  0  0  0  0  0
  -21.1493  -13.0679   22.2082 H   0  0  0  0  0  0  0  0  0  0  0  0
  -24.6538  -15.7807   20.5848 H   0  0  0  0  0  0  0  0  0  0  0  0
  -26.2762  -15.5453   20.1156 H   0  0  0  0  0  0  0  0  0  0  0  0
  -26.6778  -32.4663   23.1464 H   0  0  0  0  0  0  0  0  0  0  0  0
  -25.0747  -34.0282   25.0566 H   0  0  0  0  0  0  0  0  0  0  0  0
  -22.7881  -31.3489   21.4131 H   0  0  0  0  0  0  0  0  0  0  0  0
  -23.3854  -35.9823   23.3648 H   0  0  0  0  0  0  0  0  0  0  0  0
  -24.3696  -36.8624   22.2204 H   0  0  0  0  0  0  0  0  0  0  0  0
  -23.7669  -37.6632   23.6516 H   0  0  0  0  0  0  0  0  0  0  0  0
  -25.9445  -31.6237   20.5691 H   0  0  0  0  0  0  0  0  0  0  0  0
  -26.7436  -31.0079   22.0108 H   0  0  0  0  0  0  0  0  0  0  0  0
  -28.0090  -29.1452   21.2057 H   0  0  0  0  0  0  0  0  0  0  0  0
  -26.1369  -26.0560   19.0719 H   0  0  0  0  0  0  0  0  0  0  0  0
  -24.0652  -27.2961   19.0997 H   0  0  0  0  0  0  0  0  0  0  0  0
  -23.6156  -30.5365   19.3930 H   0  0  0  0  0  0  0  0  0  0  0  0
  -22.7355  -29.1425   19.9945 H   0  0  0  0  0  0  0  0  0  0  0  0
  -25.1353  -36.2335   25.0565 H   0  0  0  0  0  0  0  0  0  0  0  0
  -21.0070  -28.3206   24.0793 H   0  0  0  0  0  0  0  0  0  0  0  0
  -20.5555  -26.2518   23.3550 H   0  0  0  0  0  0  0  0  0  0  0  0
  -21.5974  -26.8362   22.0454 H   0  0  0  0  0  0  0  0  0  0  0  0
  -19.6810  -25.6422   21.1488 H   0  0  0  0  0  0  0  0  0  0  0  0
  -19.6406  -27.3343   20.7034 H   0  0  0  0  0  0  0  0  0  0  0  0
  -17.4282  -26.6888   21.4113 H   0  0  0  0  0  0  0  0  0  0  0  0
  -18.0803  -26.0130   22.9049 H   0  0  0  0  0  0  0  0  0  0  0  0
  -19.7265  -30.6774   24.2204 H   0  0  0  0  0  0  0  0  0  0  0  0
  -17.5064  -31.5856   24.4483 H   0  0  0  0  0  0  0  0  0  0  0  0
  -15.5878  -30.2839   23.7407 H   0  0  0  0  0  0  0  0  0  0  0  0
  -15.9120  -28.0941   22.7766 H   0  0  0  0  0  0  0  0  0  0  0  0
  -24.5787  -30.7757   25.6817 H   0  0  0  0  0  0  0  0  0  0  0  0
  -25.0041  -32.2289   26.5536 H   0  0  0  0  0  0  0  0  0  0  0  0
  -25.8166  -30.7245   26.9138 H   0  0  0  0  0  0  0  0  0  0  0  0
  -26.2892  -29.7335   24.0803 H   0  0  0  0  0  0  0  0  0  0  0  0
  -27.4336  -29.7484   25.4006 H   0  0  0  0  0  0  0  0  0  0  0  0
  -27.8466  -30.4994   23.8779 H   0  0  0  0  0  0  0  0  0  0  0  0
  -27.2251  -33.3632   26.1242 H   0  0  0  0  0  0  0  0  0  0  0  0
  -28.3902  -32.6065   25.0645 H   0  0  0  0  0  0  0  0  0  0  0  0
  -27.9772  -31.8555   26.5872 H   0  0  0  0  0  0  0  0  0  0  0  0
  -28.2744  -38.0016   24.6863 H   0  0  0  0  0  0  0  0  0  0  0  0
  -28.0396  -36.2711   24.7461 H   0  0  0  0  0  0  0  0  0  0  0  0
  -27.1773  -37.3087   25.8564 H   0  0  0  0  0  0  0  0  0  0  0  0
  -20.9627  -29.9365   21.7352 H   0  0  0  0  0  0  0  0  0  0  0  0
  -26.0447  -38.2561   24.0273 H   0  0  0  0  0  0  0  0  0  0  0  0
  -28.4750  -18.3912   21.4283 H   0  0  0  0  0  0  0  0  0  0  0  0
  -31.4328  -21.2322   20.5071 H   0  0  0  0  0  0  0  0  0  0  0  0
  -32.1816  -17.1425   19.8887 H   0  0  0  0  0  0  0  0  0  0  0  0
  -25.8663  -20.3287   25.4821 H   0  0  0  0  0  0  0  0  0  0  0  0
  -25.1259  -21.7749   24.8392 H   0  0  0  0  0  0  0  0  0  0  0  0
  -26.7861  -21.3954   24.4482 H   0  0  0  0  0  0  0  0  0  0  0  0
  -24.0585  -18.9471   24.5733 H   0  0  0  0  0  0  0  0  0  0  0  0
  -23.6951  -18.9542   22.8643 H   0  0  0  0  0  0  0  0  0  0  0  0
  -23.2588  -20.3251   23.8558 H   0  0  0  0  0  0  0  0  0  0  0  0
  -34.9033  -19.1643   18.4819 H   0  0  0  0  0  0  0  0  0  0  0  0
  -33.3679  -18.7043   17.7861 H   0  0  0  0  0  0  0  0  0  0  0  0
  -34.0700  -17.7438   19.0658 H   0  0  0  0  0  0  0  0  0  0  0  0
  -25.8467  -24.1481   21.8292 H   0  0  0  0  0  0  0  0  0  0  0  0
  -25.2505  -24.2770   20.0841 H   0  0  0  0  0  0  0  0  0  0  0  0
  -24.9085  -20.4693   21.3418 H   0  0  0  0  0  0  0  0  0  0  0  0
  -24.5834  -21.8791   22.3913 H   0  0  0  0  0  0  0  0  0  0  0  0
  -26.9069  -22.3016   22.5657 H   0  0  0  0  0  0  0  0  0  0  0  0
  -26.0800  -19.4419   23.2169 H   0  0  0  0  0  0  0  0  0  0  0  0
  -28.8659  -16.1740   20.8165 H   0  0  0  0  0  0  0  0  0  0  0  0
  -33.7174  -20.3351   20.0114 H   0  0  0  0  0  0  0  0  0  0  0  0
  -27.2854  -19.8922   21.0252 H   0  0  0  0  0  0  0  0  0  0  0  0
  1 25  1  0
  1 30  2  0
  1 86  1  0
  2  3  1  0
  2 25  1  0
  2 91  1  0
  2 92  1  0
  3  4  1  0
  3 93  1  0
  3 94  1  0
  4  5  1  0
  4 95  1  0
  4 96  1  0
  5  6  1  0
  5 26  1  0
  5 97  1  6
  6 25  1  0
  6 98  1  0
  6 99  1  0
  7  8  2  0
  7 26  1  0
  7 29  1  0
  8  9  1  0
  8 22  1  0
  9 10  1  0
  9 27  2  0
 10 11  2  0
 10 15  1  0
 11 12  1  0
 11100  1  0
 12 13  2  0
 12101  1  0
 13 14  1  0
 13 31  1  0
 14 15  2  0
 14102  1  0
 15103  1  0
 16 17  2  0
 16 21  1  0
 16 31  1  0
 17 18  1  0
 17104  1  0
 18 19  2  0
 18105  1  0
 19 20  1  0
 19 24  1  0
 20 21  2  0
 20106  1  0
 21 23  1  0
 22 28  1  0
 22 32  2  0
 26 27  1  0
 28107  1  0
 28108  1  0
 29109  1  0
 29110  1  0
 33 34  1  0
 33 66  1  0
 33 70  2  0
 34 36  1  0
 34 59  1  0
 34111  1  6
 35 44  2  0
 35 45  1  0
 35 68  1  0
 36 56  1  0
 36112  1  0
 37 39  1  0
 37 47  1  0
 37 66  1  0
 37113  1  6
 38 43  2  0
 38 46  1  0
 38 47  1  0
 39 64  1  0
 39 67  2  0
 40 52  1  0
 40 53  2  0
 40 58  1  0
 41114  1  0
 41115  1  0
 41116  1  0
 42 43  1  0
 42 66  1  0
 42117  1  0
 42118  1  0
 43 44  1  0
 44119  1  0
 45 46  2  0
 45120  1  0
 46121  1  0
 47122  1  0
 47123  1  0
 48 41  1  0
 48 56  1  0
 48 65  1  0
 48124  1  1
 49 50  1  0
 49 53  1  0
 49 64  1  0
 49125  1  1
 50 51  1  0
 50126  1  0
 50127  1  0
 51 52  1  0
 51128  1  0
 51129  1  0
 52130  1  0
 52131  1  0
 53 54  1  0
 54 55  2  0
 54132  1  0
 55 57  1  0
 55133  1  0
 56 69  2  0
 57 58  2  0
 57134  1  0
 58135  1  0
 59 60  1  0
 59 61  1  0
 59 62  1  0
 60136  1  0
 60137  1  0
 60138  1  0
 61139  1  0
 61140  1  0
 61141  1  0
 62142  1  0
 62143  1  0
 62144  1  0
 63 65  1  0
 63145  1  0
 63146  1  0
 63147  1  0
 64148  1  0
 65149  1  0
 68 82  1  0
 71 74  2  0
 71 75  1  0
 71150  1  0
 72 74  1  0
 72 76  2  0
 72151  1  0
 73 75  2  0
 73 76  1  0
 73152  1  0
 74 77  1  0
 75 86  1  0
 76 87  1  0
 77 88  1  0
 77 89  2  0
 78 82  1  0
 78 84  1  0
 78 90  2  0
 79153  1  0
 79154  1  0
 79155  1  0
 80 85  1  0
 80156  1  0
 80157  1  0
 80158  1  0
 81 87  1  0
 81159  1  0
 81160  1  0
 81161  1  0
 82162  1  0
 82163  1  0
 83 85  1  0
 83164  1  0
 83165  1  0
 84 83  1  0
 84 88  1  0
 84166  1  1
 85 79  1  0
 85167  1  0
 86168  1  0
 87169  1  0
 88170  1  0
M  ISO  4   1 100  68 101  82 101  86 100
M  END
$$$$
8
     RDKit          3D

147155  0  0  0  0  0  0  0  0999 V2000
  -30.7652  -14.3608   20.6636 C   0  0  0  0  0  0  0  0  0100  0  0
  -30.4392  -12.2669   19.3775 C   0  0  0  0  0  0  0  0  0101  0  0
  -29.4791  -12.5281   18.1977 C   0  0  0  0  0  0  0  0  0102  0  0
  -27.9985  -12.3963   18.6038 C   0  0  0  0  0  0  0  0  0103  0  0
  -27.6639  -13.2170   19.8820 C   0  0  2  0  0  0  0  0  0104  0  0
  -28.6795  -12.9602   21.0279 C   0  0  0  0  0  0  0  0  0105  0  0
  -25.2633  -13.8245   20.5754 C   0  0  0  0  0  0  0  0  0106  0  0
  -24.1645  -13.0409   20.9408 C   0  0  0  0  0  0  0  0  0107  0  0
  -24.6400  -11.7009   20.8697 C   0  0  0  0  0  0  0  0  0108  0  0
  -23.9005  -10.4085   21.0420 C   0  0  0  0  0  0  0  0  0109  0  0
  -24.3588   -9.4123   21.9123 C   0  0  0  0  0  0  0  0  0110  0  0
  -23.6296   -8.2350   22.0803 C   0  0  0  0  0  0  0  0  0111  0  0
  -22.4385   -8.0419   21.3657 C   0  0  0  0  0  0  0  0  0112  0  0
  -22.0103   -9.0167   20.4678 C   0  0  0  0  0  0  0  0  0113  0  0
  -22.7317  -10.1925   20.3102 C   0  0  0  0  0  0  0  0  0114  0  0
  -21.6857   -6.0709   22.5391 C   0  0  0  0  0  0  0  0  0115  0  0
  -21.4064   -6.5490   23.8264 C   0  0  0  0  0  0  0  0  0116  0  0
  -21.3635   -5.6677   24.9085 C   0  0  0  0  0  0  0  0  0117  0  0
  -21.5973   -4.3067   24.7088 C   0  0  0  0  0  0  0  0  0118  0  0
  -21.8700   -3.8284   23.4282 C   0  0  0  0  0  0  0  0  0119  0  0
  -21.9144   -4.7056   22.3460 C   0  0  0  0  0  0  0  0  0120  0  0
  -22.8194  -13.5263   21.1763 C   0  0  0  0  0  0  0  0  0121  0  0
  -22.1559   -4.2206   21.1063 F   0  0  0  0  0  0  0  0  0122  0  0
  -21.5628   -3.4510   25.7555 F   0  0  0  0  0  0  0  0  0123  0  0
  -30.0261  -13.1803   20.4553 N   0  0  0  0  0  0  0  0  0124  0  0
  -26.2911  -12.9356   20.3443 N   0  0  0  0  0  0  0  0  0125  0  0
  -25.9236  -11.6675   20.5847 N   0  0  0  0  0  0  0  0  0126  0  0
  -22.0708  -12.7905   22.0005 N   0  0  0  0  0  0  0  0  0127  0  0
  -25.4117  -15.1773   20.4097 N   0  0  0  0  0  0  0  0  0128  0  0
  -31.7916  -14.6724   20.0536 O   0  0  0  0  0  0  0  0  0129  0  0
  -21.6670   -6.9022   21.4423 O   0  0  0  0  0  0  0  0  0130  0  0
  -22.3946  -14.5564   20.6568 O   0  0  0  0  0  0  0  0  0131  0  0
  -24.6048  -31.8614   23.2223 C   0  0  0  0  0  0  0  0  0100  0  0
  -25.8822  -32.4841   23.8616 C   0  0  1  0  0  0  0  0  0101  0  0
  -27.2536  -27.5042   20.1156 C   0  0  0  0  0  0  0  0  0102  0  0
  -25.5726  -33.8762   24.2210 N   0  0  0  0  0  0  0  0  0103  0  0
  -23.4066  -30.4859   21.5461 C   0  0  2  0  0  0  0  0  0104  0  0
  -24.8467  -28.9636   20.1247 C   0  0  0  0  0  0  0  0  0105  0  0
  -22.7412  -29.4652   22.5052 C   0  0  0  0  0  0  0  0  0106  0  0
  -18.0167  -28.1302   22.8626 C   0  0  0  0  0  0  0  0  0107  0  0
  -24.1342  -36.7390   23.2568 C   0  0  0  0  0  0  0  0  0108  0  0
  -25.9141  -30.8882   21.3456 C   0  0  0  0  0  0  0  0  0109  0  0
  -25.9930  -29.5029   20.7208 C   0  0  0  0  0  0  0  0  0110  0  0
  -27.1758  -28.7612   20.7331 C   0  0  0  0  0  0  0  0  0111  0  0
  -26.1032  -26.9836   19.5230 C   0  0  0  0  0  0  0  0  0112  0  0
  -24.9097  -27.7011   19.5331 C   0  0  0  0  0  0  0  0  0113  0  0
  -23.5715  -29.7899   20.1582 C   0  0  0  0  0  0  0  0  0114  0  0
  -25.3990  -36.3212   24.0232 C   0  0  1  0  0  0  0  0  0115  0  0
  -20.5793  -28.3813   23.1004 C   0  0  2  0  0  0  0  0  0116  0  0
  -20.6548  -26.9392   22.5411 C   0  0  0  0  0  0  0  0  0117  0  0
  -19.5615  -26.6407   21.5143 C   0  0  0  0  0  0  0  0  0118  0  0
  -18.1797  -26.7818   22.1673 C   0  0  0  0  0  0  0  0  0119  0  0
  -19.1385  -28.8769   23.2988 C   0  0  0  0  0  0  0  0  0120  0  0
  -18.9183  -30.1286   23.8878 C   0  0  0  0  0  0  0  0  0121  0  0
  -17.6396  -30.6493   24.0352 C   0  0  0  0  0  0  0  0  0122  0  0
  -25.9153  -34.9582   23.4993 C   0  0  0  0  0  0  0  0  0123  0  0
  -16.5415  -29.9068   23.6254 C   0  0  0  0  0  0  0  0  0124  0  0
  -16.7331  -28.6521   23.0586 C   0  0  0  0  0  0  0  0  0125  0  0
  -26.4583  -31.6439   25.0683 C   0  0  0  0  0  0  0  0  0126  0  0
  -25.3807  -31.3179   26.1374 C   0  0  0  0  0  0  0  0  0127  0  0
  -27.0530  -30.3024   24.5680 C   0  0  0  0  0  0  0  0  0128  0  0
  -27.6014  -32.4281   25.7651 C   0  0  0  0  0  0  0  0  0129  0  0
  -27.5629  -37.2220   24.8621 C   0  0  0  0  0  0  0  0  0130  0  0
  -21.4133  -29.3375   22.3735 N   0  0  0  0  0  0  0  0  0131  0  0
  -26.4706  -37.3372   23.9061 N   0  0  0  0  0  0  0  0  0132  0  0
  -24.6674  -31.0544   22.1178 N   0  0  0  0  0  0  0  0  0133  0  0
  -23.4259  -28.8150   23.2971 O   0  0  0  0  0  0  0  0  0134  0  0
  -28.3948  -26.7345   20.0089 O   0  0  0  0  0  0  0  0  0135  0  0
  -26.5870  -34.9065   22.4671 O   0  0  0  0  0  0  0  0  0136  0  0
  -23.5365  -32.1254   23.7833 O   0  0  0  0  0  0  0  0  0137  0  0
  -30.0408  -19.4443   19.7218 C   0  0  0  0  0  0  0  0  0  0  0  0
  -28.6698  -19.5151   19.7149 C   0  0  0  0  0  0  0  0  0  0  0  0
  -29.3069  -17.4869   19.9522 C   0  0  0  0  0  0  0  0  0  0  0  0
  -26.9274  -22.8159   19.3262 C   0  0  0  0  0  0  0  0  0  0  0  0
  -28.1583  -21.9408   19.4315 C   0  0  0  0  0  0  0  0  0  0  0  0
  -27.1911  -24.2997   19.1586 C   0  0  0  0  0  0  0  0  0  1  0  0
  -30.4431  -18.1421   19.8744 N   0  0  0  0  0  0  0  0  0  0  0  0
  -27.7688  -20.5633   19.5931 N   0  0  0  0  0  0  0  0  0  0  0  0
  -29.1126  -16.0929   20.1164 N   0  0  0  0  0  0  0  0  0  0  0  0
  -25.7839  -22.3641   19.3727 O   0  0  0  0  0  0  0  0  0  0  0  0
  -28.1841  -18.2512   19.8637 O   0  0  0  0  0  0  0  0  0  0  0  0
  -31.4485  -12.4701   19.0860 H   0  0  0  0  0  0  0  0  0  0  0  0
  -30.3970  -11.2460   19.6950 H   0  0  0  0  0  0  0  0  0  0  0  0
  -29.6870  -11.8204   17.4226 H   0  0  0  0  0  0  0  0  0  0  0  0
  -29.6375  -13.5326   17.8649 H   0  0  0  0  0  0  0  0  0  0  0  0
  -27.7830  -11.3650   18.7904 H   0  0  0  0  0  0  0  0  0  0  0  0
  -27.4028  -12.7801   17.8021 H   0  0  0  0  0  0  0  0  0  0  0  0
  -27.7353  -14.2503   19.6136 H   0  0  0  0  0  0  0  0  0  0  0  0
  -28.5890  -11.9550   21.3832 H   0  0  0  0  0  0  0  0  0  0  0  0
  -28.5005  -13.6134   21.8562 H   0  0  0  0  0  0  0  0  0  0  0  0
  -25.2399   -9.5495   22.4318 H   0  0  0  0  0  0  0  0  0  0  0  0
  -23.9663   -7.5070   22.7297 H   0  0  0  0  0  0  0  0  0  0  0  0
  -21.1515   -8.8641   19.9162 H   0  0  0  0  0  0  0  0  0  0  0  0
  -22.4016  -10.9115   19.6476 H   0  0  0  0  0  0  0  0  0  0  0  0
  -21.2319   -7.5552   23.9750 H   0  0  0  0  0  0  0  0  0  0  0  0
  -21.1589   -6.0228   25.8556 H   0  0  0  0  0  0  0  0  0  0  0  0
  -22.0396   -2.8212   23.2809 H   0  0  0  0  0  0  0  0  0  0  0  0
  -22.4401  -11.9703   22.4008 H   0  0  0  0  0  0  0  0  0  0  0  0
  -21.1493  -13.0679   22.2082 H   0  0  0  0  0  0  0  0  0  0  0  0
  -24.6538  -15.7807   20.5848 H   0  0  0  0  0  0  0  0  0  0  0  0
  -26.2762  -15.5453   20.1156 H   0  0  0  0  0  0  0  0  0  0  0  0
  -26.6778  -32.4663   23.1464 H   0  0  0  0  0  0  0  0  0  0  0  0
  -25.0747  -34.0282   25.0566 H   0  0  0  0  0  0  0  0  0  0  0  0
  -22.7881  -31.3489   21.4131 H   0  0  0  0  0  0  0  0  0  0  0  0
  -23.3854  -35.9823   23.3648 H   0  0  0  0  0  0  0  0  0  0  0  0
  -24.3696  -36.8624   22.2204 H   0  0  0  0  0  0  0  0  0  0  0  0
  -23.7669  -37.6632   23.6516 H   0  0  0  0  0  0  0  0  0  0  0  0
  -25.9445  -31.6237   20.5691 H   0  0  0  0  0  0  0  0  0  0  0  0
  -26.7436  -31.0079   22.0108 H   0  0  0  0  0  0  0  0  0  0  0  0
  -28.0090  -29.1452   21.2057 H   0  0  0  0  0  0  0  0  0  0  0  0
  -26.1369  -26.0560   19.0719 H   0  0  0  0  0  0  0  0  0  0  0  0
  -24.0652  -27.2961   19.0997 H   0  0  0  0  0  0  0  0  0  0  0  0
  -23.6156  -30.5365   19.3930 H   0  0  0  0  0  0  0  0  0  0  0  0
  -22.7355  -29.1425   19.9945 H   0  0  0  0  0  0  0  0  0  0  0  0
  -25.1353  -36.2335   25.0565 H   0  0  0  0  0  0  0  0  0  0  0  0
  -21.0070  -28.3206   24.0793 H   0  0  0  0  0  0  0  0  0  0  0  0
  -20.5555  -26.2518   23.3550 H   0  0  0  0  0  0  0  0  0  0  0  0
  -21.5974  -26.8362   22.0454 H   0  0  0  0  0  0  0  0  0  0  0  0
  -19.6810  -25.6422   21.1488 H   0  0  0  0  0  0  0  0  0  0  0  0
  -19.6406  -27.3343   20.7034 H   0  0  0  0  0  0  0  0  0  0  0  0
  -17.4282  -26.6888   21.4113 H   0  0  0  0  0  0  0  0  0  0  0  0
  -18.0803  -26.0130   22.9049 H   0  0  0  0  0  0  0  0  0  0  0  0
  -19.7265  -30.6774   24.2204 H   0  0  0  0  0  0  0  0  0  0  0  0
  -17.5064  -31.5856   24.4483 H   0  0  0  0  0  0  0  0  0  0  0  0
  -15.5878  -30.2839   23.7407 H   0  0  0  0  0  0  0  0  0  0  0  0
  -15.9120  -28.0941   22.7766 H   0  0  0  0  0  0  0  0  0  0  0  0
  -24.5787  -30.7757   25.6817 H   0  0  0  0  0  0  0  0  0  0  0  0
  -25.0041  -32.2289   26.5536 H   0  0  0  0  0  0  0  0  0  0  0  0
  -25.8166  -30.7245   26.9138 H   0  0  0  0  0  0  0  0  0  0  0  0
  -26.2892  -29.7335   24.0803 H   0  0  0  0  0  0  0  0  0  0  0  0
  -27.4336  -29.7484   25.4006 H   0  0  0  0  0  0  0  0  0  0  0  0
  -27.8466  -30.4994   23.8779 H   0  0  0  0  0  0  0  0  0  0  0  0
  -27.2251  -33.3632   26.1242 H   0  0  0  0  0  0  0  0  0  0  0  0
  -28.3902  -32.6065   25.0645 H   0  0  0  0  0  0  0  0  0  0  0  0
  -27.9772  -31.8555   26.5872 H   0  0  0  0  0  0  0  0  0  0  0  0
  -28.2744  -38.0016   24.6863 H   0  0  0  0  0  0  0  0  0  0  0  0
  -28.0396  -36.2711   24.7461 H   0  0  0  0  0  0  0  0  0  0  0  0
  -27.1773  -37.3087   25.8564 H   0  0  0  0  0  0  0  0  0  0  0  0
  -20.9627  -29.9365   21.7352 H   0  0  0  0  0  0  0  0  0  0  0  0
  -26.0447  -38.2561   24.0273 H   0  0  0  0  0  0  0  0  0  0  0  0
  -30.6755  -20.2524   19.6262 H   0  0  0  0  0  0  0  0  0  0  0  0
  -28.7396  -22.2465   20.2762 H   0  0  0  0  0  0  0  0  0  0  0  0
  -28.7384  -22.0401   18.5379 H   0  0  0  0  0  0  0  0  0  0  0  0
  -26.1748  -24.6333   19.1306 H   0  0  0  0  0  0  0  0  0  0  0  0
  -28.1048  -24.0536   18.6590 H   0  0  0  0  0  0  0  0  0  0  0  0
  -26.8073  -20.3534   19.6186 H   0  0  0  0  0  0  0  0  0  0  0  0
  -28.1887  -15.7754   19.9944 H   0  0  0  0  0  0  0  0  0  0  0  0
  1 25  1  0
  1 30  2  0
  1 79  1  0
  2  3  1  0
  2 25  1  0
  2 82  1  0
  2 83  1  0
  3  4  1  0
  3 84  1  0
  3 85  1  0
  4  5  1  0
  4 86  1  0
  4 87  1  0
  5  6  1  0
  5 26  1  0
  5 88  1  6
  6 25  1  0
  6 89  1  0
  6 90  1  0
  7  8  2  0
  7 26  1  0
  7 29  1  0
  8  9  1  0
  8 22  1  0
  9 10  1  0
  9 27  2  0
 10 11  2  0
 10 15  1  0
 11 12  1  0
 11 91  1  0
 12 13  2  0
 12 92  1  0
 13 14  1  0
 13 31  1  0
 14 15  2  0
 14 93  1  0
 15 94  1  0
 16 17  2  0
 16 21  1  0
 16 31  1  0
 17 18  1  0
 17 95  1  0
 18 19  2  0
 18 96  1  0
 19 20  1  0
 19 24  1  0
 20 21  2  0
 20 97  1  0
 21 23  1  0
 22 28  1  0
 22 32  2  0
 26 27  1  0
 28 98  1  0
 28 99  1  0
 29100  1  0
 29101  1  0
 33 34  1  0
 33 66  1  0
 33 70  2  0
 34 36  1  0
 34 59  1  0
 34102  1  6
 35 44  2  0
 35 45  1  0
 35 68  1  0
 36 56  1  0
 36103  1  0
 37 39  1  0
 37 47  1  0
 37 66  1  0
 37104  1  6
 38 43  2  0
 38 46  1  0
 38 47  1  0
 39 64  1  0
 39 67  2  0
 40 52  1  0
 40 53  2  0
 40 58  1  0
 41105  1  0
 41106  1  0
 41107  1  0
 42 43  1  0
 42 66  1  0
 42108  1  0
 42109  1  0
 43 44  1  0
 44110  1  0
 45 46  2  0
 45111  1  0
 46112  1  0
 47113  1  0
 47114  1  0
 48 41  1  0
 48 56  1  0
 48 65  1  0
 48115  1  1
 49 50  1  0
 49 53  1  0
 49 64  1  0
 49116  1  1
 50 51  1  0
 50117  1  0
 50118  1  0
 51 52  1  0
 51119  1  0
 51120  1  0
 52121  1  0
 52122  1  0
 53 54  1  0
 54 55  2  0
 54123  1  0
 55 57  1  0
 55124  1  0
 56 69  2  0
 57 58  2  0
 57125  1  0
 58126  1  0
 59 60  1  0
 59 61  1  0
 59 62  1  0
 60127  1  0
 60128  1  0
 60129  1  0
 61130  1  0
 61131  1  0
 61132  1  0
 62133  1  0
 62134  1  0
 62135  1  0
 63 65  1  0
 63136  1  0
 63137  1  0
 63138  1  0
 64139  1  0
 65140  1  0
 68 76  1  0
 71 72  2  0
 71 77  1  0
 71141  1  0
 72 78  1  0
 72 81  1  0
 73 77  2  0
 73 79  1  0
 73 81  1  0
 74 75  1  0
 74 76  1  0
 74 80  2  0
 75 78  1  0
 75142  1  0
 75143  1  0
 76144  1  0
 76145  1  0
 78146  1  0
 79147  1  0
M  ISO  4   1 100  68 101  76 101  79 100
M  END
$$$$
9
     RDKit          3D

157165  0  0  0  0  0  0  0  0999 V2000
  -30.7652  -14.3608   20.6636 C   0  0  0  0  0  0  0  0  0100  0  0
  -30.4392  -12.2669   19.3775 C   0  0  0  0  0  0  0  0  0101  0  0
  -29.4791  -12.5281   18.1977 C   0  0  0  0  0  0  0  0  0102  0  0
  -27.9985  -12.3963   18.6038 C   0  0  0  0  0  0  0  0  0103  0  0
  -27.6639  -13.2170   19.8820 C   0  0  2  0  0  0  0  0  0104  0  0
  -28.6795  -12.9602   21.0279 C   0  0  0  0  0  0  0  0  0105  0  0
  -25.2633  -13.8245   20.5754 C   0  0  0  0  0  0  0  0  0106  0  0
  -24.1645  -13.0409   20.9408 C   0  0  0  0  0  0  0  0  0107  0  0
  -24.6400  -11.7009   20.8697 C   0  0  0  0  0  0  0  0  0108  0  0
  -23.9005  -10.4085   21.0420 C   0  0  0  0  0  0  0  0  0109  0  0
  -24.3588   -9.4123   21.9123 C   0  0  0  0  0  0  0  0  0110  0  0
  -23.6296   -8.2350   22.0803 C   0  0  0  0  0  0  0  0  0111  0  0
  -22.4385   -8.0419   21.3657 C   0  0  0  0  0  0  0  0  0112  0  0
  -22.0103   -9.0167   20.4678 C   0  0  0  0  0  0  0  0  0113  0  0
  -22.7317  -10.1925   20.3102 C   0  0  0  0  0  0  0  0  0114  0  0
  -21.6857   -6.0709   22.5391 C   0  0  0  0  0  0  0  0  0115  0  0
  -21.4064   -6.5490   23.8264 C   0  0  0  0  0  0  0  0  0116  0  0
  -21.3635   -5.6677   24.9085 C   0  0  0  0  0  0  0  0  0117  0  0
  -21.5973   -4.3067   24.7088 C   0  0  0  0  0  0  0  0  0118  0  0
  -21.8700   -3.8284   23.4282 C   0  0  0  0  0  0  0  0  0119  0  0
  -21.9144   -4.7056   22.3460 C   0  0  0  0  0  0  0  0  0120  0  0
  -22.8194  -13.5263   21.1763 C   0  0  0  0  0  0  0  0  0121  0  0
  -22.1559   -4.2206   21.1063 F   0  0  0  0  0  0  0  0  0122  0  0
  -21.5628   -3.4510   25.7555 F   0  0  0  0  0  0  0  0  0123  0  0
  -30.0261  -13.1803   20.4553 N   0  0  0  0  0  0  0  0  0124  0  0
  -26.2911  -12.9356   20.3443 N   0  0  0  0  0  0  0  0  0125  0  0
  -25.9236  -11.6675   20.5847 N   0  0  0  0  0  0  0  0  0126  0  0
  -22.0708  -12.7905   22.0005 N   0  0  0  0  0  0  0  0  0127  0  0
  -25.4117  -15.1773   20.4097 N   0  0  0  0  0  0  0  0  0128  0  0
  -31.7916  -14.6724   20.0536 O   0  0  0  0  0  0  0  0  0129  0  0
  -21.6670   -6.9022   21.4423 O   0  0  0  0  0  0  0  0  0130  0  0
  -22.3946  -14.5564   20.6568 O   0  0  0  0  0  0  0  0  0131  0  0
  -24.6048  -31.8614   23.2223 C   0  0  0  0  0  0  0  0  0100  0  0
  -25.8822  -32.4841   23.8616 C   0  0  1  0  0  0  0  0  0101  0  0
  -27.2536  -27.5042   20.1156 C   0  0  0  0  0  0  0  0  0102  0  0
  -25.5726  -33.8762   24.2210 N   0  0  0  0  0  0  0  0  0103  0  0
  -23.4066  -30.4859   21.5461 C   0  0  2  0  0  0  0  0  0104  0  0
  -24.8467  -28.9636   20.1247 C   0  0  0  0  0  0  0  0  0105  0  0
  -22.7412  -29.4652   22.5052 C   0  0  0  0  0  0  0  0  0106  0  0
  -18.0167  -28.1302   22.8626 C   0  0  0  0  0  0  0  0  0107  0  0
  -24.1342  -36.7390   23.2568 C   0  0  0  0  0  0  0  0  0108  0  0
  -25.9141  -30.8882   21.3456 C   0  0  0  0  0  0  0  0  0109  0  0
  -25.9930  -29.5029   20.7208 C   0  0  0  0  0  0  0  0  0110  0  0
  -27.1758  -28.7612   20.7331 C   0  0  0  0  0  0  0  0  0111  0  0
  -26.1032  -26.9836   19.5230 C   0  0  0  0  0  0  0  0  0112  0  0
  -24.9097  -27.7011   19.5331 C   0  0  0  0  0  0  0  0  0113  0  0
  -23.5715  -29.7899   20.1582 C   0  0  0  0  0  0  0  0  0114  0  0
  -25.3990  -36.3212   24.0232 C   0  0  1  0  0  0  0  0  0115  0  0
  -20.5793  -28.3813   23.1004 C   0  0  2  0  0  0  0  0  0116  0  0
  -20.6548  -26.9392   22.5411 C   0  0  0  0  0  0  0  0  0117  0  0
  -19.5615  -26.6407   21.5143 C   0  0  0  0  0  0  0  0  0118  0  0
  -18.1797  -26.7818   22.1673 C   0  0  0  0  0  0  0  0  0119  0  0
  -19.1385  -28.8769   23.2988 C   0  0  0  0  0  0  0  0  0120  0  0
  -18.9183  -30.1286   23.8878 C   0  0  0  0  0  0  0  0  0121  0  0
  -17.6396  -30.6493   24.0352 C   0  0  0  0  0  0  0  0  0122  0  0
  -25.9153  -34.9582   23.4993 C   0  0  0  0  0  0  0  0  0123  0  0
  -16.5415  -29.9068   23.6254 C   0  0  0  0  0  0  0  0  0124  0  0
  -16.7331  -28.6521   23.0586 C   0  0  0  0  0  0  0  0  0125  0  0
  -26.4583  -31.6439   25.0683 C   0  0  0  0  0  0  0  0  0126  0  0
  -25.3807  -31.3179   26.1374 C   0  0  0  0  0  0  0  0  0127  0  0
  -27.0530  -30.3024   24.5680 C   0  0  0  0  0  0  0  0  0128  0  0
  -27.6014  -32.4281   25.7651 C   0  0  0  0  0  0  0  0  0129  0  0
  -27.5629  -37.2220   24.8621 C   0  0  0  0  0  0  0  0  0130  0  0
  -21.4133  -29.3375   22.3735 N   0  0  0  0  0  0  0  0  0131  0  0
  -26.4706  -37.3372   23.9061 N   0  0  0  0  0  0  0  0  0132  0  0
  -24.6674  -31.0544   22.1178 N   0  0  0  0  0  0  0  0  0133  0  0
  -23.4259  -28.8150   23.2971 O   0  0  0  0  0  0  0  0  0134  0  0
  -28.3948  -26.7345   20.0089 O   0  0  0  0  0  0  0  0  0135  0  0
  -26.5870  -34.9065   22.4671 O   0  0  0  0  0  0  0  0  0136  0  0
  -23.5365  -32.1254   23.7833 O   0  0  0  0  0  0  0  0  0137  0  0
  -28.3992  -19.5394   17.7695 C   0  0  0  0  0  0  0  0  0  0  0  0
  -29.2099  -19.8413   18.8436 C   0  0  0  0  0  0  0  0  0  0  0  0
  -27.4835  -21.4464   18.3480 C   0  0  0  0  0  0  0  0  0  0  0  0
  -32.1246  -18.4714   20.7212 C   0  0  0  0  0  0  0  0  0  0  0  0
  -31.7882  -17.3443   21.6599 C   0  0  0  0  0  0  0  0  0  0  0  0
  -28.4955  -18.3388   16.9123 C   0  0  0  0  0  0  0  0  0  0  0  0
  -34.8418  -19.4651   18.8537 C   0  0  0  0  0  0  0  0  0  0  0  0
  -31.0614  -19.5088   20.4829 C   0  0  0  0  0  0  0  0  0  0  0  0
  -30.6172  -16.4766   21.2822 C   0  0  0  0  0  0  0  0  0  1  0  0
  -27.4084  -20.4584   17.4840 N   0  0  0  0  0  0  0  0  0  0  0  0
  -33.3176  -18.4494   20.2168 N   0  0  0  0  0  0  0  0  0  0  0  0
  -30.2717  -19.1041   19.3486 N   0  0  0  0  0  0  0  0  0  0  0  0
  -26.6612  -22.5979   18.4223 N   0  0  0  0  0  0  0  0  0  0  0  0
  -32.4679  -17.2238   22.6682 O   0  0  0  0  0  0  0  0  0  0  0  0
  -33.5228  -19.5471   19.3716 O   0  0  0  0  0  0  0  0  0  0  0  0
  -28.7222  -21.3352   19.5305 S   0  0  0  0  0  0  0  0  0  0  0  0
  -31.4485  -12.4701   19.0860 H   0  0  0  0  0  0  0  0  0  0  0  0
  -30.3970  -11.2460   19.6950 H   0  0  0  0  0  0  0  0  0  0  0  0
  -29.6870  -11.8204   17.4226 H   0  0  0  0  0  0  0  0  0  0  0  0
  -29.6375  -13.5326   17.8649 H   0  0  0  0  0  0  0  0  0  0  0  0
  -27.7830  -11.3650   18.7904 H   0  0  0  0  0  0  0  0  0  0  0  0
  -27.4028  -12.7801   17.8021 H   0  0  0  0  0  0  0  0  0  0  0  0
  -27.7353  -14.2503   19.6136 H   0  0  0  0  0  0  0  0  0  0  0  0
  -28.5890  -11.9550   21.3832 H   0  0  0  0  0  0  0  0  0  0  0  0
  -28.5005  -13.6134   21.8562 H   0  0  0  0  0  0  0  0  0  0  0  0
  -25.2399   -9.5495   22.4318 H   0  0  0  0  0  0  0  0  0  0  0  0
  -23.9663   -7.5070   22.7297 H   0  0  0  0  0  0  0  0  0  0  0  0
  -21.1515   -8.8641   19.9162 H   0  0  0  0  0  0  0  0  0  0  0  0
  -22.4016  -10.9115   19.6476 H   0  0  0  0  0  0  0  0  0  0  0  0
  -21.2319   -7.5552   23.9750 H   0  0  0  0  0  0  0  0  0  0  0  0
  -21.1589   -6.0228   25.8556 H   0  0  0  0  0  0  0  0  0  0  0  0
  -22.0396   -2.8212   23.2809 H   0  0  0  0  0  0  0  0  0  0  0  0
  -22.4401  -11.9703   22.4008 H   0  0  0  0  0  0  0  0  0  0  0  0
  -21.1493  -13.0679   22.2082 H   0  0  0  0  0  0  0  0  0  0  0  0
  -24.6538  -15.7807   20.5848 H   0  0  0  0  0  0  0  0  0  0  0  0
  -26.2762  -15.5453   20.1156 H   0  0  0  0  0  0  0  0  0  0  0  0
  -26.6778  -32.4663   23.1464 H   0  0  0  0  0  0  0  0  0  0  0  0
  -25.0747  -34.0282   25.0566 H   0  0  0  0  0  0  0  0  0  0  0  0
  -22.7881  -31.3489   21.4131 H   0  0  0  0  0  0  0  0  0  0  0  0
  -23.3854  -35.9823   23.3648 H   0  0  0  0  0  0  0  0  0  0  0  0
  -24.3696  -36.8624   22.2204 H   0  0  0  0  0  0  0  0  0  0  0  0
  -23.7669  -37.6632   23.6516 H   0  0  0  0  0  0  0  0  0  0  0  0
  -25.9445  -31.6237   20.5691 H   0  0  0  0  0  0  0  0  0  0  0  0
  -26.7436  -31.0079   22.0108 H   0  0  0  0  0  0  0  0  0  0  0  0
  -28.0090  -29.1452   21.2057 H   0  0  0  0  0  0  0  0  0  0  0  0
  -26.1369  -26.0560   19.0719 H   0  0  0  0  0  0  0  0  0  0  0  0
  -24.0652  -27.2961   19.0997 H   0  0  0  0  0  0  0  0  0  0  0  0
  -23.6156  -30.5365   19.3930 H   0  0  0  0  0  0  0  0  0  0  0  0
  -22.7355  -29.1425   19.9945 H   0  0  0  0  0  0  0  0  0  0  0  0
  -25.1353  -36.2335   25.0565 H   0  0  0  0  0  0  0  0  0  0  0  0
  -21.0070  -28.3206   24.0793 H   0  0  0  0  0  0  0  0  0  0  0  0
  -20.5555  -26.2518   23.3550 H   0  0  0  0  0  0  0  0  0  0  0  0
  -21.5974  -26.8362   22.0454 H   0  0  0  0  0  0  0  0  0  0  0  0
  -19.6810  -25.6422   21.1488 H   0  0  0  0  0  0  0  0  0  0  0  0
  -19.6406  -27.3343   20.7034 H   0  0  0  0  0  0  0  0  0  0  0  0
  -17.4282  -26.6888   21.4113 H   0  0  0  0  0  0  0  0  0  0  0  0
  -18.0803  -26.0130   22.9049 H   0  0  0  0  0  0  0  0  0  0  0  0
  -19.7265  -30.6774   24.2204 H   0  0  0  0  0  0  0  0  0  0  0  0
  -17.5064  -31.5856   24.4483 H   0  0  0  0  0  0  0  0  0  0  0  0
  -15.5878  -30.2839   23.7407 H   0  0  0  0  0  0  0  0  0  0  0  0
  -15.9120  -28.0941   22.7766 H   0  0  0  0  0  0  0  0  0  0  0  0
  -24.5787  -30.7757   25.6817 H   0  0  0  0  0  0  0  0  0  0  0  0
  -25.0041  -32.2289   26.5536 H   0  0  0  0  0  0  0  0  0  0  0  0
  -25.8166  -30.7245   26.9138 H   0  0  0  0  0  0  0  0  0  0  0  0
  -26.2892  -29.7335   24.0803 H   0  0  0  0  0  0  0  0  0  0  0  0
  -27.4336  -29.7484   25.4006 H   0  0  0  0  0  0  0  0  0  0  0  0
  -27.8466  -30.4994   23.8779 H   0  0  0  0  0  0  0  0  0  0  0  0
  -27.2251  -33.3632   26.1242 H   0  0  0  0  0  0  0  0  0  0  0  0
  -28.3902  -32.6065   25.0645 H   0  0  0  0  0  0  0  0  0  0  0  0
  -27.9772  -31.8555   26.5872 H   0  0  0  0  0  0  0  0  0  0  0  0
  -28.2744  -38.0016   24.6863 H   0  0  0  0  0  0  0  0  0  0  0  0
  -28.0396  -36.2711   24.7461 H   0  0  0  0  0  0  0  0  0  0  0  0
  -27.1773  -37.3087   25.8564 H   0  0  0  0  0  0  0  0  0  0  0  0
  -20.9627  -29.9365   21.7352 H   0  0  0  0  0  0  0  0  0  0  0  0
  -26.0447  -38.2561   24.0273 H   0  0  0  0  0  0  0  0  0  0  0  0
  -29.3025  -17.7229   17.2505 H   0  0  0  0  0  0  0  0  0  0  0  0
  -28.6740  -18.6366   15.9002 H   0  0  0  0  0  0  0  0  0  0  0  0
  -27.5798  -17.7879   16.9658 H   0  0  0  0  0  0  0  0  0  0  0  0
  -35.0219  -20.2955   18.2034 H   0  0  0  0  0  0  0  0  0  0  0  0
  -34.9540  -18.5526   18.3063 H   0  0  0  0  0  0  0  0  0  0  0  0
  -35.5438  -19.4854   19.6609 H   0  0  0  0  0  0  0  0  0  0  0  0
  -31.5192  -20.4553   20.2843 H   0  0  0  0  0  0  0  0  0  0  0  0
  -30.4388  -19.6001   21.3483 H   0  0  0  0  0  0  0  0  0  0  0  0
  -30.1114  -15.9369   22.0554 H   0  0  0  0  0  0  0  0  0  0  0  0
  -30.5420  -15.6507   20.6061 H   0  0  0  0  0  0  0  0  0  0  0  0
  -30.4984  -18.2547   18.9055 H   0  0  0  0  0  0  0  0  0  0  0  0
  -26.1553  -23.4375   18.3304 H   0  0  0  0  0  0  0  0  0  0  0  0
  1 25  1  0
  1 30  2  0
  1 83  1  0
  2  3  1  0
  2 25  1  0
  2 87  1  0
  2 88  1  0
  3  4  1  0
  3 89  1  0
  3 90  1  0
  4  5  1  0
  4 91  1  0
  4 92  1  0
  5  6  1  0
  5 26  1  0
  5 93  1  6
  6 25  1  0
  6 94  1  0
  6 95  1  0
  7  8  2  0
  7 26  1  0
  7 29  1  0
  8  9  1  0
  8 22  1  0
  9 10  1  0
  9 27  2  0
 10 11  2  0
 10 15  1  0
 11 12  1  0
 11 96  1  0
 12 13  2  0
 12 97  1  0
 13 14  1  0
 13 31  1  0
 14 15  2  0
 14 98  1  0
 15 99  1  0
 16 17  2  0
 16 21  1  0
 16 31  1  0
 17 18  1  0
 17100  1  0
 18 19  2  0
 18101  1  0
 19 20  1  0
 19 24  1  0
 20 21  2  0
 20102  1  0
 21 23  1  0
 22 28  1  0
 22 32  2  0
 26 27  1  0
 28103  1  0
 28104  1  0
 29105  1  0
 29106  1  0
 33 34  1  0
 33 66  1  0
 33 70  2  0
 34 36  1  0
 34 59  1  0
 34107  1  6
 35 44  2  0
 35 45  1  0
 35 68  1  0
 36 56  1  0
 36108  1  0
 37 39  1  0
 37 47  1  0
 37 66  1  0
 37109  1  6
 38 43  2  0
 38 46  1  0
 38 47  1  0
 39 64  1  0
 39 67  2  0
 40 52  1  0
 40 53  2  0
 40 58  1  0
 41110  1  0
 41111  1  0
 41112  1  0
 42 43  1  0
 42 66  1  0
 42113  1  0
 42114  1  0
 43 44  1  0
 44115  1  0
 45 46  2  0
 45116  1  0
 46117  1  0
 47118  1  0
 47119  1  0
 48 41  1  0
 48 56  1  0
 48 65  1  0
 48120  1  1
 49 50  1  0
 49 53  1  0
 49 64  1  0
 49121  1  1
 50 51  1  0
 50122  1  0
 50123  1  0
 51 52  1  0
 51124  1  0
 51125  1  0
 52126  1  0
 52127  1  0
 53 54  1  0
 54 55  2  0
 54128  1  0
 55 57  1  0
 55129  1  0
 56 69  2  0
 57 58  2  0
 57130  1  0
 58131  1  0
 59 60  1  0
 59 61  1  0
 59 62  1  0
 60132  1  0
 60133  1  0
 60134  1  0
 61135  1  0
 61136  1  0
 61137  1  0
 62138  1  0
 62139  1  0
 62140  1  0
 63 65  1  0
 63141  1  0
 63142  1  0
 63143  1  0
 64144  1  0
 65145  1  0
 68 79  1  0
 71 72  2  0
 71 76  1  0
 71 80  1  0
 72 82  1  0
 72 86  1  0
 73 80  2  0
 73 83  1  0
 73 86  1  0
 74 75  1  0
 74 78  1  0
 74 81  2  0
 75 79  1  0
 75 84  2  0
 76146  1  0
 76147  1  0
 76148  1  0
 77 85  1  0
 77149  1  0
 77150  1  0
 77151  1  0
 78 82  1  0
 78152  1  0
 78153  1  0
 79154  1  0
 79155  1  0
 81 85  1  0
 82156  1  0
 83157  1  0
M  ISO  4   1 100  68 101  79 101  83 100
M  END
$$$$
10
     RDKit          3D

163171  0  0  0  0  0  0  0  0999 V2000
  -30.7652  -14.3608   20.6636 C   0  0  0  0  0  0  0  0  0100  0  0
  -30.4392  -12.2669   19.3775 C   0  0  0  0  0  0  0  0  0101  0  0
  -29.4791  -12.5281   18.1977 C   0  0  0  0  0  0  0  0  0102  0  0
  -27.9985  -12.3963   18.6038 C   0  0  0  0  0  0  0  0  0103  0  0
  -27.6639  -13.2170   19.8820 C   0  0  2  0  0  0  0  0  0104  0  0
  -28.6795  -12.9602   21.0279 C   0  0  0  0  0  0  0  0  0105  0  0
  -25.2633  -13.8245   20.5754 C   0  0  0  0  0  0  0  0  0106  0  0
  -24.1645  -13.0409   20.9408 C   0  0  0  0  0  0  0  0  0107  0  0
  -24.6400  -11.7009   20.8697 C   0  0  0  0  0  0  0  0  0108  0  0
  -23.9005  -10.4085   21.0420 C   0  0  0  0  0  0  0  0  0109  0  0
  -24.3588   -9.4123   21.9123 C   0  0  0  0  0  0  0  0  0110  0  0
  -23.6296   -8.2350   22.0803 C   0  0  0  0  0  0  0  0  0111  0  0
  -22.4385   -8.0419   21.3657 C   0  0  0  0  0  0  0  0  0112  0  0
  -22.0103   -9.0167   20.4678 C   0  0  0  0  0  0  0  0  0113  0  0
  -22.7317  -10.1925   20.3102 C   0  0  0  0  0  0  0  0  0114  0  0
  -21.6857   -6.0709   22.5391 C   0  0  0  0  0  0  0  0  0115  0  0
  -21.4064   -6.5490   23.8264 C   0  0  0  0  0  0  0  0  0116  0  0
  -21.3635   -5.6677   24.9085 C   0  0  0  0  0  0  0  0  0117  0  0
  -21.5973   -4.3067   24.7088 C   0  0  0  0  0  0  0  0  0118  0  0
  -21.8700   -3.8284   23.4282 C   0  0  0  0  0  0  0  0  0119  0  0
  -21.9144   -4.7056   22.3460 C   0  0  0  0  0  0  0  0  0120  0  0
  -22.8194  -13.5263   21.1763 C   0  0  0  0  0  0  0  0  0121  0  0
  -22.1559   -4.2206   21.1063 F   0  0  0  0  0  0  0  0  0122  0  0
  -21.5628   -3.4510   25.7555 F   0  0  0  0  0  0  0  0  0123  0  0
  -30.0261  -13.1803   20.4553 N   0  0  0  0  0  0  0  0  0124  0  0
  -26.2911  -12.9356   20.3443 N   0  0  0  0  0  0  0  0  0125  0  0
  -25.9236  -11.6675   20.5847 N   0  0  0  0  0  0  0  0  0126  0  0
  -22.0708  -12.7905   22.0005 N   0  0  0  0  0  0  0  0  0127  0  0
  -25.4117  -15.1773   20.4097 N   0  0  0  0  0  0  0  0  0128  0  0
  -31.7916  -14.6724   20.0536 O   0  0  0  0  0  0  0  0  0129  0  0
  -21.6670   -6.9022   21.4423 O   0  0  0  0  0  0  0  0  0130  0  0
  -22.3946  -14.5564   20.6568 O   0  0  0  0  0  0  0  0  0131  0  0
  -24.6048  -31.8614   23.2223 C   0  0  0  0  0  0  0  0  0100  0  0
  -25.8822  -32.4841   23.8616 C   0  0  1  0  0  0  0  0  0101  0  0
  -27.2536  -27.5042   20.1156 C   0  0  0  0  0  0  0  0  0102  0  0
  -25.5726  -33.8762   24.2210 N   0  0  0  0  0  0  0  0  0103  0  0
  -23.4066  -30.4859   21.5461 C   0  0  2  0  0  0  0  0  0104  0  0
  -24.8467  -28.9636   20.1247 C   0  0  0  0  0  0  0  0  0105  0  0
  -22.7412  -29.4652   22.5052 C   0  0  0  0  0  0  0  0  0106  0  0
  -18.0167  -28.1302   22.8626 C   0  0  0  0  0  0  0  0  0107  0  0
  -24.1342  -36.7390   23.2568 C   0  0  0  0  0  0  0  0  0108  0  0
  -25.9141  -30.8882   21.3456 C   0  0  0  0  0  0  0  0  0109  0  0
  -25.9930  -29.5029   20.7208 C   0  0  0  0  0  0  0  0  0110  0  0
  -27.1758  -28.7612   20.7331 C   0  0  0  0  0  0  0  0  0111  0  0
  -26.1032  -26.9836   19.5230 C   0  0  0  0  0  0  0  0  0112  0  0
  -24.9097  -27.7011   19.5331 C   0  0  0  0  0  0  0  0  0113  0  0
  -23.5715  -29.7899   20.1582 C   0  0  0  0  0  0  0  0  0114  0  0
  -25.3990  -36.3212   24.0232 C   0  0  1  0  0  0  0  0  0115  0  0
  -20.5793  -28.3813   23.1004 C   0  0  2  0  0  0  0  0  0116  0  0
  -20.6548  -26.9392   22.5411 C   0  0  0  0  0  0  0  0  0117  0  0
  -19.5615  -26.6407   21.5143 C   0  0  0  0  0  0  0  0  0118  0  0
  -18.1797  -26.7818   22.1673 C   0  0  0  0  0  0  0  0  0119  0  0
  -19.1385  -28.8769   23.2988 C   0  0  0  0  0  0  0  0  0120  0  0
  -18.9183  -30.1286   23.8878 C   0  0  0  0  0  0  0  0  0121  0  0
  -17.6396  -30.6493   24.0352 C   0  0  0  0  0  0  0  0  0122  0  0
  -25.9153  -34.9582   23.4993 C   0  0  0  0  0  0  0  0  0123  0  0
  -16.5415  -29.9068   23.6254 C   0  0  0  0  0  0  0  0  0124  0  0
  -16.7331  -28.6521   23.0586 C   0  0  0  0  0  0  0  0  0125  0  0
  -26.4583  -31.6439   25.0683 C   0  0  0  0  0  0  0  0  0126  0  0
  -25.3807  -31.3179   26.1374 C   0  0  0  0  0  0  0  0  0127  0  0
  -27.0530  -30.3024   24.5680 C   0  0  0  0  0  0  0  0  0128  0  0
  -27.6014  -32.4281   25.7651 C   0  0  0  0  0  0  0  0  0129  0  0
  -27.5629  -37.2220   24.8621 C   0  0  0  0  0  0  0  0  0130  0  0
  -21.4133  -29.3375   22.3735 N   0  0  0  0  0  0  0  0  0131  0  0
  -26.4706  -37.3372   23.9061 N   0  0  0  0  0  0  0  0  0132  0  0
  -24.6674  -31.0544   22.1178 N   0  0  0  0  0  0  0  0  0133  0  0
  -23.4259  -28.8150   23.2971 O   0  0  0  0  0  0  0  0  0134  0  0
  -28.3948  -26.7345   20.0089 O   0  0  0  0  0  0  0  0  0135  0  0
  -26.5870  -34.9065   22.4671 O   0  0  0  0  0  0  0  0  0136  0  0
  -23.5365  -32.1254   23.7833 O   0  0  0  0  0  0  0  0  0137  0  0
  -30.3016  -20.1854   21.2414 C   0  0  0  0  0  0  0  0  0  0  0  0
  -28.2280  -19.7707   19.4217 C   0  0  0  0  0  0  0  0  0  0  0  0
  -29.6349  -21.2761   20.6833 C   0  0  0  0  0  0  0  0  0  0  0  0
  -29.9315  -18.8873   20.8896 C   0  0  0  0  0  0  0  0  0  0  0  0
  -28.5982  -21.0688   19.7735 C   0  0  0  0  0  0  0  0  0  0  0  0
  -28.8947  -18.6800   19.9798 C   0  0  0  0  0  0  0  0  0  0  0  0
  -31.6551  -17.8083   22.3700 C   0  0  0  0  0  0  0  0  0  0  0  0
  -32.2109  -14.6264   24.4911 C   0  0  0  0  0  0  0  0  0  0  0  0
  -31.0542  -16.7711   25.0334 C   0  0  0  0  0  0  0  0  0  0  0  0
  -32.1228  -16.4084   22.7472 C   0  0  0  0  0  0  0  0  0  0  0  0
  -29.9896  -15.1587   23.4372 C   0  0  0  0  0  0  0  0  0  1  0  0
  -30.0525  -22.6556   21.0780 C   0  0  0  0  0  0  0  0  0  0  0  0
  -31.3327  -15.7561   23.9107 C   0  0  0  0  0  0  0  0  0  0  0  0
  -30.6093  -17.7820   21.4566 N   0  0  0  0  0  0  0  0  0  0  0  0
  -27.9091  -22.1633   19.1947 N   0  0  0  0  0  0  0  0  0  0  0  0
  -32.1974  -18.7965   22.8574 O   0  0  0  0  0  0  0  0  0  0  0  0
  -28.5308  -17.4364   19.6356 F   0  0  0  0  0  0  0  0  0  0  0  0
  -31.0803  -22.6775   21.9757 F   0  0  0  0  0  0  0  0  0  0  0  0
  -30.4773  -23.4165   20.0278 F   0  0  0  0  0  0  0  0  0  0  0  0
  -29.0405  -23.3613   21.6591 F   0  0  0  0  0  0  0  0  0  0  0  0
  -31.4485  -12.4701   19.0860 H   0  0  0  0  0  0  0  0  0  0  0  0
  -30.3970  -11.2460   19.6950 H   0  0  0  0  0  0  0  0  0  0  0  0
  -29.6870  -11.8204   17.4226 H   0  0  0  0  0  0  0  0  0  0  0  0
  -29.6375  -13.5326   17.8649 H   0  0  0  0  0  0  0  0  0  0  0  0
  -27.7830  -11.3650   18.7904 H   0  0  0  0  0  0  0  0  0  0  0  0
  -27.4028  -12.7801   17.8021 H   0  0  0  0  0  0  0  0  0  0  0  0
  -27.7353  -14.2503   19.6136 H   0  0  0  0  0  0  0  0  0  0  0  0
  -28.5890  -11.9550   21.3832 H   0  0  0  0  0  0  0  0  0  0  0  0
  -28.5005  -13.6134   21.8562 H   0  0  0  0  0  0  0  0  0  0  0  0
  -25.2399   -9.5495   22.4318 H   0  0  0  0  0  0  0  0  0  0  0  0
  -23.9663   -7.5070   22.7297 H   0  0  0  0  0  0  0  0  0  0  0  0
  -21.1515   -8.8641   19.9162 H   0  0  0  0  0  0  0  0  0  0  0  0
  -22.4016  -10.9115   19.6476 H   0  0  0  0  0  0  0  0  0  0  0  0
  -21.2319   -7.5552   23.9750 H   0  0  0  0  0  0  0  0  0  0  0  0
  -21.1589   -6.0228   25.8556 H   0  0  0  0  0  0  0  0  0  0  0  0
  -22.0396   -2.8212   23.2809 H   0  0  0  0  0  0  0  0  0  0  0  0
  -22.4401  -11.9703   22.4008 H   0  0  0  0  0  0  0  0  0  0  0  0
  -21.1493  -13.0679   22.2082 H   0  0  0  0  0  0  0  0  0  0  0  0
  -24.6538  -15.7807   20.5848 H   0  0  0  0  0  0  0  0  0  0  0  0
  -26.2762  -15.5453   20.1156 H   0  0  0  0  0  0  0  0  0  0  0  0
  -26.6778  -32.4663   23.1464 H   0  0  0  0  0  0  0  0  0  0  0  0
  -25.0747  -34.0282   25.0566 H   0  0  0  0  0  0  0  0  0  0  0  0
  -22.7881  -31.3489   21.4131 H   0  0  0  0  0  0  0  0  0  0  0  0
  -23.3854  -35.9823   23.3648 H   0  0  0  0  0  0  0  0  0  0  0  0
  -24.3696  -36.8624   22.2204 H   0  0  0  0  0  0  0  0  0  0  0  0
  -23.7669  -37.6632   23.6516 H   0  0  0  0  0  0  0  0  0  0  0  0
  -25.9445  -31.6237   20.5691 H   0  0  0  0  0  0  0  0  0  0  0  0
  -26.7436  -31.0079   22.0108 H   0  0  0  0  0  0  0  0  0  0  0  0
  -28.0090  -29.1452   21.2057 H   0  0  0  0  0  0  0  0  0  0  0  0
  -26.1369  -26.0560   19.0719 H   0  0  0  0  0  0  0  0  0  0  0  0
  -24.0652  -27.2961   19.0997 H   0  0  0  0  0  0  0  0  0  0  0  0
  -23.6156  -30.5365   19.3930 H   0  0  0  0  0  0  0  0  0  0  0  0
  -22.7355  -29.1425   19.9945 H   0  0  0  0  0  0  0  0  0  0  0  0
  -25.1353  -36.2335   25.0565 H   0  0  0  0  0  0  0  0  0  0  0  0
  -21.0070  -28.3206   24.0793 H   0  0  0  0  0  0  0  0  0  0  0  0
  -20.5555  -26.2518   23.3550 H   0  0  0  0  0  0  0  0  0  0  0  0
  -21.5974  -26.8362   22.0454 H   0  0  0  0  0  0  0  0  0  0  0  0
  -19.6810  -25.6422   21.1488 H   0  0  0  0  0  0  0  0  0  0  0  0
  -19.6406  -27.3343   20.7034 H   0  0  0  0  0  0  0  0  0  0  0  0
  -17.4282  -26.6888   21.4113 H   0  0  0  0  0  0  0  0  0  0  0  0
  -18.0803  -26.0130   22.9049 H   0  0  0  0  0  0  0  0  0  0  0  0
  -19.7265  -30.6774   24.2204 H   0  0  0  0  0  0  0  0  0  0  0  0
  -17.5064  -31.5856   24.4483 H   0  0  0  0  0  0  0  0  0  0  0  0
  -15.5878  -30.2839   23.7407 H   0  0  0  0  0  0  0  0  0  0  0  0
  -15.9120  -28.0941   22.7766 H   0  0  0  0  0  0  0  0  0  0  0  0
  -24.5787  -30.7757   25.6817 H   0  0  0  0  0  0  0  0  0  0  0  0
  -25.0041  -32.2289   26.5536 H   0  0  0  0  0  0  0  0  0  0  0  0
  -25.8166  -30.7245   26.9138 H   0  0  0  0  0  0  0  0  0  0  0  0
  -26.2892  -29.7335   24.0803 H   0  0  0  0  0  0  0  0  0  0  0  0
  -27.4336  -29.7484   25.4006 H   0  0  0  0  0  0  0  0  0  0  0  0
  -27.8466  -30.4994   23.8779 H   0  0  0  0  0  0  0  0  0  0  0  0
  -27.2251  -33.3632   26.1242 H   0  0  0  0  0  0  0  0  0  0  0  0
  -28.3902  -32.6065   25.0645 H   0  0  0  0  0  0  0  0  0  0  0  0
  -27.9772  -31.8555   26.5872 H   0  0  0  0  0  0  0  0  0  0  0  0
  -28.2744  -38.0016   24.6863 H   0  0  0  0  0  0  0  0  0  0  0  0
  -28.0396  -36.2711   24.7461 H   0  0  0  0  0  0  0  0  0  0  0  0
  -27.1773  -37.3087   25.8564 H   0  0  0  0  0  0  0  0  0  0  0  0
  -20.9627  -29.9365   21.7352 H   0  0  0  0  0  0  0  0  0  0  0  0
  -26.0447  -38.2561   24.0273 H   0  0  0  0  0  0  0  0  0  0  0  0
  -31.0686  -20.3388   21.9146 H   0  0  0  0  0  0  0  0  0  0  0  0
  -27.4609  -19.6173   18.7486 H   0  0  0  0  0  0  0  0  0  0  0  0
  -33.1437  -15.0336   24.8213 H   0  0  0  0  0  0  0  0  0  0  0  0
  -32.3906  -13.8904   23.7355 H   0  0  0  0  0  0  0  0  0  0  0  0
  -31.7070  -14.1724   25.3187 H   0  0  0  0  0  0  0  0  0  0  0  0
  -31.9781  -17.1926   25.3704 H   0  0  0  0  0  0  0  0  0  0  0  0
  -30.5692  -16.2767   25.8490 H   0  0  0  0  0  0  0  0  0  0  0  0
  -30.4216  -17.5498   24.6614 H   0  0  0  0  0  0  0  0  0  0  0  0
  -33.1521  -16.4662   23.0338 H   0  0  0  0  0  0  0  0  0  0  0  0
  -31.9607  -15.7924   21.8875 H   0  0  0  0  0  0  0  0  0  0  0  0
  -29.3362  -14.7994   24.2046 H   0  0  0  0  0  0  0  0  0  0  0  0
  -29.8803  -14.3035   22.8035 H   0  0  0  0  0  0  0  0  0  0  0  0
  -30.3040  -16.8909   21.1703 H   0  0  0  0  0  0  0  0  0  0  0  0
  -27.4979  -23.0094   18.9043 H   0  0  0  0  0  0  0  0  0  0  0  0
  1 25  1  0
  1 30  2  0
  1 85  1  0
  2  3  1  0
  2 25  1  0
  2 91  1  0
  2 92  1  0
  3  4  1  0
  3 93  1  0
  3 94  1  0
  4  5  1  0
  4 95  1  0
  4 96  1  0
  5  6  1  0
  5 26  1  0
  5 97  1  6
  6 25  1  0
  6 98  1  0
  6 99  1  0
  7  8  2  0
  7 26  1  0
  7 29  1  0
  8  9  1  0
  8 22  1  0
  9 10  1  0
  9 27  2  0
 10 11  2  0
 10 15  1  0
 11 12  1  0
 11100  1  0
 12 13  2  0
 12101  1  0
 13 14  1  0
 13 31  1  0
 14 15  2  0
 14102  1  0
 15103  1  0
 16 17  2  0
 16 21  1  0
 16 31  1  0
 17 18  1  0
 17104  1  0
 18 19  2  0
 18105  1  0
 19 20  1  0
 19 24  1  0
 20 21  2  0
 20106  1  0
 21 23  1  0
 22 28  1  0
 22 32  2  0
 26 27  1  0
 28107  1  0
 28108  1  0
 29109  1  0
 29110  1  0
 33 34  1  0
 33 66  1  0
 33 70  2  0
 34 36  1  0
 34 59  1  0
 34111  1  6
 35 44  2  0
 35 45  1  0
 35 68  1  0
 36 56  1  0
 36112  1  0
 37 39  1  0
 37 47  1  0
 37 66  1  0
 37113  1  6
 38 43  2  0
 38 46  1  0
 38 47  1  0
 39 64  1  0
 39 67  2  0
 40 52  1  0
 40 53  2  0
 40 58  1  0
 41114  1  0
 41115  1  0
 41116  1  0
 42 43  1  0
 42 66  1  0
 42117  1  0
 42118  1  0
 43 44  1  0
 44119  1  0
 45 46  2  0
 45120  1  0
 46121  1  0
 47122  1  0
 47123  1  0
 48 41  1  0
 48 56  1  0
 48 65  1  0
 48124  1  1
 49 50  1  0
 49 53  1  0
 49 64  1  0
 49125  1  1
 50 51  1  0
 50126  1  0
 50127  1  0
 51 52  1  0
 51128  1  0
 51129  1  0
 52130  1  0
 52131  1  0
 53 54  1  0
 54 55  2  0
 54132  1  0
 55 57  1  0
 55133  1  0
 56 69  2  0
 57 58  2  0
 57134  1  0
 58135  1  0
 59 60  1  0
 59 61  1  0
 59 62  1  0
 60136  1  0
 60137  1  0
 60138  1  0
 61139  1  0
 61140  1  0
 61141  1  0
 62142  1  0
 62143  1  0
 62144  1  0
 63 65  1  0
 63145  1  0
 63146  1  0
 63147  1  0
 64148  1  0
 65149  1  0
 68 81  1  0
 71 73  2  0
 71 74  1  0
 71150  1  0
 72 75  2  0
 72 76  1  0
 72151  1  0
 73 75  1  0
 73 82  1  0
 74 76  2  0
 74 84  1  0
 75 85  1  0
 76 87  1  0
 77 80  1  0
 77 84  1  0
 77 86  2  0
 78152  1  0
 78153  1  0
 78154  1  0
 79 83  1  0
 79155  1  0
 79156  1  0
 79157  1  0
 80 83  1  0
 80158  1  0
 80159  1  0
 81 83  1  0
 81160  1  0
 81161  1  0
 82 88  1  0
 82 89  1  0
 82 90  1  0
 83 78  1  0
 84162  1  0
 85163  1  0
M  ISO  4   1 100  68 101  81 101  85 100
M  END
$$$$
11
     RDKit          3D

167175  0  0  0  0  0  0  0  0999 V2000
  -30.7652  -14.3608   20.6636 C   0  0  0  0  0  0  0  0  0100  0  0
  -30.4392  -12.2669   19.3775 C   0  0  0  0  0  0  0  0  0101  0  0
  -29.4791  -12.5281   18.1977 C   0  0  0  0  0  0  0  0  0102  0  0
  -27.9985  -12.3963   18.6038 C   0  0  0  0  0  0  0  0  0103  0  0
  -27.6639  -13.2170   19.8820 C   0  0  2  0  0  0  0  0  0104  0  0
  -28.6795  -12.9602   21.0279 C   0  0  0  0  0  0  0  0  0105  0  0
  -25.2633  -13.8245   20.5754 C   0  0  0  0  0  0  0  0  0106  0  0
  -24.1645  -13.0409   20.9408 C   0  0  0  0  0  0  0  0  0107  0  0
  -24.6400  -11.7009   20.8697 C   0  0  0  0  0  0  0  0  0108  0  0
  -23.9005  -10.4085   21.0420 C   0  0  0  0  0  0  0  0  0109  0  0
  -24.3588   -9.4123   21.9123 C   0  0  0  0  0  0  0  0  0110  0  0
  -23.6296   -8.2350   22.0803 C   0  0  0  0  0  0  0  0  0111  0  0
  -22.4385   -8.0419   21.3657 C   0  0  0  0  0  0  0  0  0112  0  0
  -22.0103   -9.0167   20.4678 C   0  0  0  0  0  0  0  0  0113  0  0
  -22.7317  -10.1925   20.3102 C   0  0  0  0  0  0  0  0  0114  0  0
  -21.6857   -6.0709   22.5391 C   0  0  0  0  0  0  0  0  0115  0  0
  -21.4064   -6.5490   23.8264 C   0  0  0  0  0  0  0  0  0116  0  0
  -21.3635   -5.6677   24.9085 C   0  0  0  0  0  0  0  0  0117  0  0
  -21.5973   -4.3067   24.7088 C   0  0  0  0  0  0  0  0  0118  0  0
  -21.8700   -3.8284   23.4282 C   0  0  0  0  0  0  0  0  0119  0  0
  -21.9144   -4.7056   22.3460 C   0  0  0  0  0  0  0  0  0120  0  0
  -22.8194  -13.5263   21.1763 C   0  0  0  0  0  0  0  0  0121  0  0
  -22.1559   -4.2206   21.1063 F   0  0  0  0  0  0  0  0  0122  0  0
  -21.5628   -3.4510   25.7555 F   0  0  0  0  0  0  0  0  0123  0  0
  -30.0261  -13.1803   20.4553 N   0  0  0  0  0  0  0  0  0124  0  0
  -26.2911  -12.9356   20.3443 N   0  0  0  0  0  0  0  0  0125  0  0
  -25.9236  -11.6675   20.5847 N   0  0  0  0  0  0  0  0  0126  0  0
  -22.0708  -12.7905   22.0005 N   0  0  0  0  0  0  0  0  0127  0  0
  -25.4117  -15.1773   20.4097 N   0  0  0  0  0  0  0  0  0128  0  0
  -31.7916  -14.6724   20.0536 O   0  0  0  0  0  0  0  0  0129  0  0
  -21.6670   -6.9022   21.4423 O   0  0  0  0  0  0  0  0  0130  0  0
  -22.3946  -14.5564   20.6568 O   0  0  0  0  0  0  0  0  0131  0  0
  -24.6048  -31.8614   23.2223 C   0  0  0  0  0  0  0  0  0100  0  0
  -25.8822  -32.4841   23.8616 C   0  0  1  0  0  0  0  0  0101  0  0
  -27.2536  -27.5042   20.1156 C   0  0  0  0  0  0  0  0  0102  0  0
  -25.5726  -33.8762   24.2210 N   0  0  0  0  0  0  0  0  0103  0  0
  -23.4066  -30.4859   21.5461 C   0  0  2  0  0  0  0  0  0104  0  0
  -24.8467  -28.9636   20.1247 C   0  0  0  0  0  0  0  0  0105  0  0
  -22.7412  -29.4652   22.5052 C   0  0  0  0  0  0  0  0  0106  0  0
  -18.0167  -28.1302   22.8626 C   0  0  0  0  0  0  0  0  0107  0  0
  -24.1342  -36.7390   23.2568 C   0  0  0  0  0  0  0  0  0108  0  0
  -25.9141  -30.8882   21.3456 C   0  0  0  0  0  0  0  0  0109  0  0
  -25.9930  -29.5029   20.7208 C   0  0  0  0  0  0  0  0  0110  0  0
  -27.1758  -28.7612   20.7331 C   0  0  0  0  0  0  0  0  0111  0  0
  -26.1032  -26.9836   19.5230 C   0  0  0  0  0  0  0  0  0112  0  0
  -24.9097  -27.7011   19.5331 C   0  0  0  0  0  0  0  0  0113  0  0
  -23.5715  -29.7899   20.1582 C   0  0  0  0  0  0  0  0  0114  0  0
  -25.3990  -36.3212   24.0232 C   0  0  1  0  0  0  0  0  0115  0  0
  -20.5793  -28.3813   23.1004 C   0  0  2  0  0  0  0  0  0116  0  0
  -20.6548  -26.9392   22.5411 C   0  0  0  0  0  0  0  0  0117  0  0
  -19.5615  -26.6407   21.5143 C   0  0  0  0  0  0  0  0  0118  0  0
  -18.1797  -26.7818   22.1673 C   0  0  0  0  0  0  0  0  0119  0  0
  -19.1385  -28.8769   23.2988 C   0  0  0  0  0  0  0  0  0120  0  0
  -18.9183  -30.1286   23.8878 C   0  0  0  0  0  0  0  0  0121  0  0
  -17.6396  -30.6493   24.0352 C   0  0  0  0  0  0  0  0  0122  0  0
  -25.9153  -34.9582   23.4993 C   0  0  0  0  0  0  0  0  0123  0  0
  -16.5415  -29.9068   23.6254 C   0  0  0  0  0  0  0  0  0124  0  0
  -16.7331  -28.6521   23.0586 C   0  0  0  0  0  0  0  0  0125  0  0
  -26.4583  -31.6439   25.0683 C   0  0  0  0  0  0  0  0  0126  0  0
  -25.3807  -31.3179   26.1374 C   0  0  0  0  0  0  0  0  0127  0  0
  -27.0530  -30.3024   24.5680 C   0  0  0  0  0  0  0  0  0128  0  0
  -27.6014  -32.4281   25.7651 C   0  0  0  0  0  0  0  0  0129  0  0
  -27.5629  -37.2220   24.8621 C   0  0  0  0  0  0  0  0  0130  0  0
  -21.4133  -29.3375   22.3735 N   0  0  0  0  0  0  0  0  0131  0  0
  -26.4706  -37.3372   23.9061 N   0  0  0  0  0  0  0  0  0132  0  0
  -24.6674  -31.0544   22.1178 N   0  0  0  0  0  0  0  0  0133  0  0
  -23.4259  -28.8150   23.2971 O   0  0  0  0  0  0  0  0  0134  0  0
  -28.3948  -26.7345   20.0089 O   0  0  0  0  0  0  0  0  0135  0  0
  -26.5870  -34.9065   22.4671 O   0  0  0  0  0  0  0  0  0136  0  0
  -23.5365  -32.1254   23.7833 O   0  0  0  0  0  0  0  0  0137  0  0
  -28.9686  -18.8049   20.1896 C   0  0  0  0  0  0  0  0  0  0  0  0
  -31.2644  -18.1336   19.8495 C   0  0  0  0  0  0  0  0  0  0  0  0
  -29.3914  -20.1009   20.4852 C   0  0  0  0  0  0  0  0  0  0  0  0
  -29.9052  -17.8212   19.8718 C   0  0  0  0  0  0  0  0  0  0  0  0
  -31.6872  -19.4295   20.1450 C   0  0  0  0  0  0  0  0  0  0  0  0
  -30.7507  -20.4132   20.4628 C   0  0  0  0  0  0  0  0  0  0  0  0
  -28.3908  -21.1457   20.8230 C   0  0  0  0  0  0  0  0  0  0  0  0
  -28.5561  -24.4805   21.5209 C   0  0  0  0  0  0  0  0  0  0  0  0
  -27.2067  -21.9158   24.1793 C   0  0  0  0  0  0  0  0  0  0  0  0
  -26.8339  -24.3882   24.1240 C   0  0  0  0  0  0  0  0  0  0  0  0
  -29.1480  -23.4696   24.3444 C   0  0  0  0  0  0  0  0  0  0  0  0
  -27.5665  -25.5219   21.0315 C   0  0  0  0  0  0  0  0  0  1  0  0
  -27.9600  -23.2113   22.1283 C   0  0  2  0  0  0  0  0  0  0  0  0
  -27.7747  -23.2553   23.6712 C   0  0  0  0  0  0  0  0  0  0  0  0
  -33.0625  -19.7428   20.1211 N   0  0  0  0  0  0  0  0  0  0  0  0
  -29.4758  -16.5046   19.5720 N   0  0  0  0  0  0  0  0  0  0  0  0
  -28.8220  -22.1412   21.6870 N   0  0  0  0  0  0  0  0  0  0  0  0
  -27.2593  -21.0677   20.3516 O   0  0  0  0  0  0  0  0  0  0  0  0
  -29.7714  -24.6486   21.4154 O   0  0  0  0  0  0  0  0  0  0  0  0
  -31.1573  -21.6598   20.7475 F   0  0  0  0  0  0  0  0  0  0  0  0
  -31.4485  -12.4701   19.0860 H   0  0  0  0  0  0  0  0  0  0  0  0
  -30.3970  -11.2460   19.6950 H   0  0  0  0  0  0  0  0  0  0  0  0
  -29.6870  -11.8204   17.4226 H   0  0  0  0  0  0  0  0  0  0  0  0
  -29.6375  -13.5326   17.8649 H   0  0  0  0  0  0  0  0  0  0  0  0
  -27.7830  -11.3650   18.7904 H   0  0  0  0  0  0  0  0  0  0  0  0
  -27.4028  -12.7801   17.8021 H   0  0  0  0  0  0  0  0  0  0  0  0
  -27.7353  -14.2503   19.6136 H   0  0  0  0  0  0  0  0  0  0  0  0
  -28.5890  -11.9550   21.3832 H   0  0  0  0  0  0  0  0  0  0  0  0
  -28.5005  -13.6134   21.8562 H   0  0  0  0  0  0  0  0  0  0  0  0
  -25.2399   -9.5495   22.4318 H   0  0  0  0  0  0  0  0  0  0  0  0
  -23.9663   -7.5070   22.7297 H   0  0  0  0  0  0  0  0  0  0  0  0
  -21.1515   -8.8641   19.9162 H   0  0  0  0  0  0  0  0  0  0  0  0
  -22.4016  -10.9115   19.6476 H   0  0  0  0  0  0  0  0  0  0  0  0
  -21.2319   -7.5552   23.9750 H   0  0  0  0  0  0  0  0  0  0  0  0
  -21.1589   -6.0228   25.8556 H   0  0  0  0  0  0  0  0  0  0  0  0
  -22.0396   -2.8212   23.2809 H   0  0  0  0  0  0  0  0  0  0  0  0
  -22.4401  -11.9703   22.4008 H   0  0  0  0  0  0  0  0  0  0  0  0
  -21.1493  -13.0679   22.2082 H   0  0  0  0  0  0  0  0  0  0  0  0
  -24.6538  -15.7807   20.5848 H   0  0  0  0  0  0  0  0  0  0  0  0
  -26.2762  -15.5453   20.1156 H   0  0  0  0  0  0  0  0  0  0  0  0
  -26.6778  -32.4663   23.1464 H   0  0  0  0  0  0  0  0  0  0  0  0
  -25.0747  -34.0282   25.0566 H   0  0  0  0  0  0  0  0  0  0  0  0
  -22.7881  -31.3489   21.4131 H   0  0  0  0  0  0  0  0  0  0  0  0
  -23.3854  -35.9823   23.3648 H   0  0  0  0  0  0  0  0  0  0  0  0
  -24.3696  -36.8624   22.2204 H   0  0  0  0  0  0  0  0  0  0  0  0
  -23.7669  -37.6632   23.6516 H   0  0  0  0  0  0  0  0  0  0  0  0
  -25.9445  -31.6237   20.5691 H   0  0  0  0  0  0  0  0  0  0  0  0
  -26.7436  -31.0079   22.0108 H   0  0  0  0  0  0  0  0  0  0  0  0
  -28.0090  -29.1452   21.2057 H   0  0  0  0  0  0  0  0  0  0  0  0
  -26.1369  -26.0560   19.0719 H   0  0  0  0  0  0  0  0  0  0  0  0
  -24.0652  -27.2961   19.0997 H   0  0  0  0  0  0  0  0  0  0  0  0
  -23.6156  -30.5365   19.3930 H   0  0  0  0  0  0  0  0  0  0  0  0
  -22.7355  -29.1425   19.9945 H   0  0  0  0  0  0  0  0  0  0  0  0
  -25.1353  -36.2335   25.0565 H   0  0  0  0  0  0  0  0  0  0  0  0
  -21.0070  -28.3206   24.0793 H   0  0  0  0  0  0  0  0  0  0  0  0
  -20.5555  -26.2518   23.3550 H   0  0  0  0  0  0  0  0  0  0  0  0
  -21.5974  -26.8362   22.0454 H   0  0  0  0  0  0  0  0  0  0  0  0
  -19.6810  -25.6422   21.1488 H   0  0  0  0  0  0  0  0  0  0  0  0
  -19.6406  -27.3343   20.7034 H   0  0  0  0  0  0  0  0  0  0  0  0
  -17.4282  -26.6888   21.4113 H   0  0  0  0  0  0  0  0  0  0  0  0
  -18.0803  -26.0130   22.9049 H   0  0  0  0  0  0  0  0  0  0  0  0
  -19.7265  -30.6774   24.2204 H   0  0  0  0  0  0  0  0  0  0  0  0
  -17.5064  -31.5856   24.4483 H   0  0  0  0  0  0  0  0  0  0  0  0
  -15.5878  -30.2839   23.7407 H   0  0  0  0  0  0  0  0  0  0  0  0
  -15.9120  -28.0941   22.7766 H   0  0  0  0  0  0  0  0  0  0  0  0
  -24.5787  -30.7757   25.6817 H   0  0  0  0  0  0  0  0  0  0  0  0
  -25.0041  -32.2289   26.5536 H   0  0  0  0  0  0  0  0  0  0  0  0
  -25.8166  -30.7245   26.9138 H   0  0  0  0  0  0  0  0  0  0  0  0
  -26.2892  -29.7335   24.0803 H   0  0  0  0  0  0  0  0  0  0  0  0
  -27.4336  -29.7484   25.4006 H   0  0  0  0  0  0  0  0  0  0  0  0
  -27.8466  -30.4994   23.8779 H   0  0  0  0  0  0  0  0  0  0  0  0
  -27.2251  -33.3632   26.1242 H   0  0  0  0  0  0  0  0  0  0  0  0
  -28.3902  -32.6065   25.0645 H   0  0  0  0  0  0  0  0  0  0  0  0
  -27.9772  -31.8555   26.5872 H   0  0  0  0  0  0  0  0  0  0  0  0
  -28.2744  -38.0016   24.6863 H   0  0  0  0  0  0  0  0  0  0  0  0
  -28.0396  -36.2711   24.7461 H   0  0  0  0  0  0  0  0  0  0  0  0
  -27.1773  -37.3087   25.8564 H   0  0  0  0  0  0  0  0  0  0  0  0
  -20.9627  -29.9365   21.7352 H   0  0  0  0  0  0  0  0  0  0  0  0
  -26.0447  -38.2561   24.0273 H   0  0  0  0  0  0  0  0  0  0  0  0
  -27.9629  -18.5738   20.2060 H   0  0  0  0  0  0  0  0  0  0  0  0
  -31.9573  -17.4058   19.6143 H   0  0  0  0  0  0  0  0  0  0  0  0
  -27.0844  -21.9602   25.2414 H   0  0  0  0  0  0  0  0  0  0  0  0
  -27.8828  -21.1245   23.9309 H   0  0  0  0  0  0  0  0  0  0  0  0
  -26.2586  -21.7327   23.7185 H   0  0  0  0  0  0  0  0  0  0  0  0
  -26.7430  -24.3717   25.1900 H   0  0  0  0  0  0  0  0  0  0  0  0
  -25.8696  -24.2493   23.6816 H   0  0  0  0  0  0  0  0  0  0  0  0
  -27.2357  -25.3305   23.8149 H   0  0  0  0  0  0  0  0  0  0  0  0
  -29.0236  -23.5003   25.4067 H   0  0  0  0  0  0  0  0  0  0  0  0
  -29.5699  -24.3935   24.0079 H   0  0  0  0  0  0  0  0  0  0  0  0
  -29.8020  -22.6634   24.0851 H   0  0  0  0  0  0  0  0  0  0  0  0
  -27.1254  -26.0128   21.8737 H   0  0  0  0  0  0  0  0  0  0  0  0
  -26.8093  -25.0368   20.4516 H   0  0  0  0  0  0  0  0  0  0  0  0
  -26.9531  -23.0751   21.7929 H   0  0  0  0  0  0  0  0  0  0  0  0
  -33.7220  -19.0472   19.8966 H   0  0  0  0  0  0  0  0  0  0  0  0
  -33.3628  -20.6571   20.3289 H   0  0  0  0  0  0  0  0  0  0  0  0
  -28.7108  -16.3628   18.9687 H   0  0  0  0  0  0  0  0  0  0  0  0
  -29.7512  -22.1170   22.0115 H   0  0  0  0  0  0  0  0  0  0  0  0
  1 25  1  0
  1 30  2  0
  1 86  1  0
  2  3  1  0
  2 25  1  0
  2 91  1  0
  2 92  1  0
  3  4  1  0
  3 93  1  0
  3 94  1  0
  4  5  1  0
  4 95  1  0
  4 96  1  0
  5  6  1  0
  5 26  1  0
  5 97  1  6
  6 25  1  0
  6 98  1  0
  6 99  1  0
  7  8  2  0
  7 26  1  0
  7 29  1  0
  8  9  1  0
  8 22  1  0
  9 10  1  0
  9 27  2  0
 10 11  2  0
 10 15  1  0
 11 12  1  0
 11100  1  0
 12 13  2  0
 12101  1  0
 13 14  1  0
 13 31  1  0
 14 15  2  0
 14102  1  0
 15103  1  0
 16 17  2  0
 16 21  1  0
 16 31  1  0
 17 18  1  0
 17104  1  0
 18 19  2  0
 18105  1  0
 19 20  1  0
 19 24  1  0
 20 21  2  0
 20106  1  0
 21 23  1  0
 22 28  1  0
 22 32  2  0
 26 27  1  0
 28107  1  0
 28108  1  0
 29109  1  0
 29110  1  0
 33 34  1  0
 33 66  1  0
 33 70  2  0
 34 36  1  0
 34 59  1  0
 34111  1  6
 35 44  2  0
 35 45  1  0
 35 68  1  0
 36 56  1  0
 36112  1  0
 37 39  1  0
 37 47  1  0
 37 66  1  0
 37113  1  6
 38 43  2  0
 38 46  1  0
 38 47  1  0
 39 64  1  0
 39 67  2  0
 40 52  1  0
 40 53  2  0
 40 58  1  0
 41114  1  0
 41115  1  0
 41116  1  0
 42 43  1  0
 42 66  1  0
 42117  1  0
 42118  1  0
 43 44  1  0
 44119  1  0
 45 46  2  0
 45120  1  0
 46121  1  0
 47122  1  0
 47123  1  0
 48 41  1  0
 48 56  1  0
 48 65  1  0
 48124  1  1
 49 50  1  0
 49 53  1  0
 49 64  1  0
 49125  1  1
 50 51  1  0
 50126  1  0
 50127  1  0
 51 52  1  0
 51128  1  0
 51129  1  0
 52130  1  0
 52131  1  0
 53 54  1  0
 54 55  2  0
 54132  1  0
 55 57  1  0
 55133  1  0
 56 69  2  0
 57 58  2  0
 57134  1  0
 58135  1  0
 59 60  1  0
 59 61  1  0
 59 62  1  0
 60136  1  0
 60137  1  0
 60138  1  0
 61139  1  0
 61140  1  0
 61141  1  0
 62142  1  0
 62143  1  0
 62144  1  0
 63 65  1  0
 63145  1  0
 63146  1  0
 63147  1  0
 64148  1  0
 65149  1  0
 68 82  1  0
 71 73  2  0
 71 74  1  0
 71150  1  0
 72 74  2  0
 72 75  1  0
 72151  1  0
 73 76  1  0
 73 77  1  0
 74 86  1  0
 75 76  2  0
 75 85  1  0
 76 90  1  0
 77 87  1  0
 77 88  2  0
 78 82  1  0
 78 83  1  0
 78 89  2  0
 79152  1  0
 79153  1  0
 79154  1  0
 80 84  1  0
 80155  1  0
 80156  1  0
 80157  1  0
 81 84  1  0
 81158  1  0
 81159  1  0
 81160  1  0
 82161  1  0
 82162  1  0
 83 84  1  0
 83 87  1  0
 83163  1  6
 84 79  1  0
 85164  1  0
 85165  1  0
 86166  1  0
 87167  1  0
M  ISO  4   1 100  68 101  82 101  86 100
M  END
$$$$
12
     RDKit          3D

162170  0  0  0  0  0  0  0  0999 V2000
  -30.7652  -14.3608   20.6636 C   0  0  0  0  0  0  0  0  0100  0  0
  -30.4392  -12.2669   19.3775 C   0  0  0  0  0  0  0  0  0101  0  0
  -29.4791  -12.5281   18.1977 C   0  0  0  0  0  0  0  0  0102  0  0
  -27.9985  -12.3963   18.6038 C   0  0  0  0  0  0  0  0  0103  0  0
  -27.6639  -13.2170   19.8820 C   0  0  2  0  0  0  0  0  0104  0  0
  -28.6795  -12.9602   21.0279 C   0  0  0  0  0  0  0  0  0105  0  0
  -25.2633  -13.8245   20.5754 C   0  0  0  0  0  0  0  0  0106  0  0
  -24.1645  -13.0409   20.9408 C   0  0  0  0  0  0  0  0  0107  0  0
  -24.6400  -11.7009   20.8697 C   0  0  0  0  0  0  0  0  0108  0  0
  -23.9005  -10.4085   21.0420 C   0  0  0  0  0  0  0  0  0109  0  0
  -24.3588   -9.4123   21.9123 C   0  0  0  0  0  0  0  0  0110  0  0
  -23.6296   -8.2350   22.0803 C   0  0  0  0  0  0  0  0  0111  0  0
  -22.4385   -8.0419   21.3657 C   0  0  0  0  0  0  0  0  0112  0  0
  -22.0103   -9.0167   20.4678 C   0  0  0  0  0  0  0  0  0113  0  0
  -22.7317  -10.1925   20.3102 C   0  0  0  0  0  0  0  0  0114  0  0
  -21.6857   -6.0709   22.5391 C   0  0  0  0  0  0  0  0  0115  0  0
  -21.4064   -6.5490   23.8264 C   0  0  0  0  0  0  0  0  0116  0  0
  -21.3635   -5.6677   24.9085 C   0  0  0  0  0  0  0  0  0117  0  0
  -21.5973   -4.3067   24.7088 C   0  0  0  0  0  0  0  0  0118  0  0
  -21.8700   -3.8284   23.4282 C   0  0  0  0  0  0  0  0  0119  0  0
  -21.9144   -4.7056   22.3460 C   0  0  0  0  0  0  0  0  0120  0  0
  -22.8194  -13.5263   21.1763 C   0  0  0  0  0  0  0  0  0121  0  0
  -22.1559   -4.2206   21.1063 F   0  0  0  0  0  0  0  0  0122  0  0
  -21.5628   -3.4510   25.7555 F   0  0  0  0  0  0  0  0  0123  0  0
  -30.0261  -13.1803   20.4553 N   0  0  0  0  0  0  0  0  0124  0  0
  -26.2911  -12.9356   20.3443 N   0  0  0  0  0  0  0  0  0125  0  0
  -25.9236  -11.6675   20.5847 N   0  0  0  0  0  0  0  0  0126  0  0
  -22.0708  -12.7905   22.0005 N   0  0  0  0  0  0  0  0  0127  0  0
  -25.4117  -15.1773   20.4097 N   0  0  0  0  0  0  0  0  0128  0  0
  -31.7916  -14.6724   20.0536 O   0  0  0  0  0  0  0  0  0129  0  0
  -21.6670   -6.9022   21.4423 O   0  0  0  0  0  0  0  0  0130  0  0
  -22.3946  -14.5564   20.6568 O   0  0  0  0  0  0  0  0  0131  0  0
  -24.6048  -31.8614   23.2223 C   0  0  0  0  0  0  0  0  0100  0  0
  -25.8822  -32.4841   23.8616 C   0  0  1  0  0  0  0  0  0101  0  0
  -27.2536  -27.5042   20.1156 C   0  0  0  0  0  0  0  0  0102  0  0
  -25.5726  -33.8762   24.2210 N   0  0  0  0  0  0  0  0  0103  0  0
  -23.4066  -30.4859   21.5461 C   0  0  2  0  0  0  0  0  0104  0  0
  -24.8467  -28.9636   20.1247 C   0  0  0  0  0  0  0  0  0105  0  0
  -22.7412  -29.4652   22.5052 C   0  0  0  0  0  0  0  0  0106  0  0
  -18.0167  -28.1302   22.8626 C   0  0  0  0  0  0  0  0  0107  0  0
  -24.1342  -36.7390   23.2568 C   0  0  0  0  0  0  0  0  0108  0  0
  -25.9141  -30.8882   21.3456 C   0  0  0  0  0  0  0  0  0109  0  0
  -25.9930  -29.5029   20.7208 C   0  0  0  0  0  0  0  0  0110  0  0
  -27.1758  -28.7612   20.7331 C   0  0  0  0  0  0  0  0  0111  0  0
  -26.1032  -26.9836   19.5230 C   0  0  0  0  0  0  0  0  0112  0  0
  -24.9097  -27.7011   19.5331 C   0  0  0  0  0  0  0  0  0113  0  0
  -23.5715  -29.7899   20.1582 C   0  0  0  0  0  0  0  0  0114  0  0
  -25.3990  -36.3212   24.0232 C   0  0  1  0  0  0  0  0  0115  0  0
  -20.5793  -28.3813   23.1004 C   0  0  2  0  0  0  0  0  0116  0  0
  -20.6548  -26.9392   22.5411 C   0  0  0  0  0  0  0  0  0117  0  0
  -19.5615  -26.6407   21.5143 C   0  0  0  0  0  0  0  0  0118  0  0
  -18.1797  -26.7818   22.1673 C   0  0  0  0  0  0  0  0  0119  0  0
  -19.1385  -28.8769   23.2988 C   0  0  0  0  0  0  0  0  0120  0  0
  -18.9183  -30.1286   23.8878 C   0  0  0  0  0  0  0  0  0121  0  0
  -17.6396  -30.6493   24.0352 C   0  0  0  0  0  0  0  0  0122  0  0
  -25.9153  -34.9582   23.4993 C   0  0  0  0  0  0  0  0  0123  0  0
  -16.5415  -29.9068   23.6254 C   0  0  0  0  0  0  0  0  0124  0  0
  -16.7331  -28.6521   23.0586 C   0  0  0  0  0  0  0  0  0125  0  0
  -26.4583  -31.6439   25.0683 C   0  0  0  0  0  0  0  0  0126  0  0
  -25.3807  -31.3179   26.1374 C   0  0  0  0  0  0  0  0  0127  0  0
  -27.0530  -30.3024   24.5680 C   0  0  0  0  0  0  0  0  0128  0  0
  -27.6014  -32.4281   25.7651 C   0  0  0  0  0  0  0  0  0129  0  0
  -27.5629  -37.2220   24.8621 C   0  0  0  0  0  0  0  0  0130  0  0
  -21.4133  -29.3375   22.3735 N   0  0  0  0  0  0  0  0  0131  0  0
  -26.4706  -37.3372   23.9061 N   0  0  0  0  0  0  0  0  0132  0  0
  -24.6674  -31.0544   22.1178 N   0  0  0  0  0  0  0  0  0133  0  0
  -23.4259  -28.8150   23.2971 O   0  0  0  0  0  0  0  0  0134  0  0
  -28.3948  -26.7345   20.0089 O   0  0  0  0  0  0  0  0  0135  0  0
  -26.5870  -34.9065   22.4671 O   0  0  0  0  0  0  0  0  0136  0  0
  -23.5365  -32.1254   23.7833 O   0  0  0  0  0  0  0  0  0137  0  0
  -32.5963  -15.8569   21.4559 C   0  0  0  0  0  0  0  0  0  0  0  0
  -33.2060  -17.0556   21.8087 C   0  0  0  0  0  0  0  0  0  0  0  0
  -32.6447  -18.2609   21.4016 C   0  0  0  0  0  0  0  0  0  0  0  0
  -31.4360  -15.9170   20.7010 C   0  0  0  0  0  0  0  0  0  0  0  0
  -31.4824  -18.2133   20.6489 C   0  0  0  0  0  0  0  0  0  0  0  0
  -29.4044  -21.0267   19.2546 C   0  0  0  0  0  0  0  0  0  0  0  0
  -29.7466  -19.5819   19.4834 C   0  0  0  0  0  0  0  0  0  0  0  0
  -28.1812  -23.1382   20.0408 C   0  0  0  0  0  0  0  0  0  0  0  0
  -35.7031  -17.2800   21.7805 C   0  0  0  0  0  0  0  0  0  0  0  0
  -34.4581  -17.0180   22.6225 C   0  0  0  0  0  0  0  0  0  0  0  0
  -28.5275  -21.6837   20.2902 C   0  0  0  0  0  0  0  0  0  0  0  0
  -27.2753  -23.7838   21.0714 C   0  0  0  0  0  0  0  0  0  1  0  0
  -30.8613  -17.0684   20.2869 N   0  0  0  0  0  0  0  0  0  0  0  0
  -33.2479  -19.4863   21.7493 N   0  0  0  0  0  0  0  0  0  0  0  0
  -30.8979  -19.4299   20.2261 N   0  0  0  0  0  0  0  0  0  0  0  0
  -30.8216  -14.6895   20.3462 N   0  0  0  0  0  0  0  0  0  0  0  0
  -29.8447  -21.5501   18.2422 O   0  0  0  0  0  0  0  0  0  0  0  0
  -28.9738  -18.7584   19.0220 O   0  0  0  0  0  0  0  0  0  0  0  0
  -28.6223  -23.7708   19.0828 O   0  0  0  0  0  0  0  0  0  0  0  0
  -31.4485  -12.4701   19.0860 H   0  0  0  0  0  0  0  0  0  0  0  0
  -30.3970  -11.2460   19.6950 H   0  0  0  0  0  0  0  0  0  0  0  0
  -29.6870  -11.8204   17.4226 H   0  0  0  0  0  0  0  0  0  0  0  0
  -29.6375  -13.5326   17.8649 H   0  0  0  0  0  0  0  0  0  0  0  0
  -27.7830  -11.3650   18.7904 H   0  0  0  0  0  0  0  0  0  0  0  0
  -27.4028  -12.7801   17.8021 H   0  0  0  0  0  0  0  0  0  0  0  0
  -27.7353  -14.2503   19.6136 H   0  0  0  0  0  0  0  0  0  0  0  0
  -28.5890  -11.9550   21.3832 H   0  0  0  0  0  0  0  0  0  0  0  0
  -28.5005  -13.6134   21.8562 H   0  0  0  0  0  0  0  0  0  0  0  0
  -25.2399   -9.5495   22.4318 H   0  0  0  0  0  0  0  0  0  0  0  0
  -23.9663   -7.5070   22.7297 H   0  0  0  0  0  0  0  0  0  0  0  0
  -21.1515   -8.8641   19.9162 H   0  0  0  0  0  0  0  0  0  0  0  0
  -22.4016  -10.9115   19.6476 H   0  0  0  0  0  0  0  0  0  0  0  0
  -21.2319   -7.5552   23.9750 H   0  0  0  0  0  0  0  0  0  0  0  0
  -21.1589   -6.0228   25.8556 H   0  0  0  0  0  0  0  0  0  0  0  0
  -22.0396   -2.8212   23.2809 H   0  0  0  0  0  0  0  0  0  0  0  0
  -22.4401  -11.9703   22.4008 H   0  0  0  0  0  0  0  0  0  0  0  0
  -21.1493  -13.0679   22.2082 H   0  0  0  0  0  0  0  0  0  0  0  0
  -24.6538  -15.7807   20.5848 H   0  0  0  0  0  0  0  0  0  0  0  0
  -26.2762  -15.5453   20.1156 H   0  0  0  0  0  0  0  0  0  0  0  0
  -26.6778  -32.4663   23.1464 H   0  0  0  0  0  0  0  0  0  0  0  0
  -25.0747  -34.0282   25.0566 H   0  0  0  0  0  0  0  0  0  0  0  0
  -22.7881  -31.3489   21.4131 H   0  0  0  0  0  0  0  0  0  0  0  0
  -23.3854  -35.9823   23.3648 H   0  0  0  0  0  0  0  0  0  0  0  0
  -24.3696  -36.8624   22.2204 H   0  0  0  0  0  0  0  0  0  0  0  0
  -23.7669  -37.6632   23.6516 H   0  0  0  0  0  0  0  0  0  0  0  0
  -25.9445  -31.6237   20.5691 H   0  0  0  0  0  0  0  0  0  0  0  0
  -26.7436  -31.0079   22.0108 H   0  0  0  0  0  0  0  0  0  0  0  0
  -28.0090  -29.1452   21.2057 H   0  0  0  0  0  0  0  0  0  0  0  0
  -26.1369  -26.0560   19.0719 H   0  0  0  0  0  0  0  0  0  0  0  0
  -24.0652  -27.2961   19.0997 H   0  0  0  0  0  0  0  0  0  0  0  0
  -23.6156  -30.5365   19.3930 H   0  0  0  0  0  0  0  0  0  0  0  0
  -22.7355  -29.1425   19.9945 H   0  0  0  0  0  0  0  0  0  0  0  0
  -25.1353  -36.2335   25.0565 H   0  0  0  0  0  0  0  0  0  0  0  0
  -21.0070  -28.3206   24.0793 H   0  0  0  0  0  0  0  0  0  0  0  0
  -20.5555  -26.2518   23.3550 H   0  0  0  0  0  0  0  0  0  0  0  0
  -21.5974  -26.8362   22.0454 H   0  0  0  0  0  0  0  0  0  0  0  0
  -19.6810  -25.6422   21.1488 H   0  0  0  0  0  0  0  0  0  0  0  0
  -19.6406  -27.3343   20.7034 H   0  0  0  0  0  0  0  0  0  0  0  0
  -17.4282  -26.6888   21.4113 H   0  0  0  0  0  0  0  0  0  0  0  0
  -18.0803  -26.0130   22.9049 H   0  0  0  0  0  0  0  0  0  0  0  0
  -19.7265  -30.6774   24.2204 H   0  0  0  0  0  0  0  0  0  0  0  0
  -17.5064  -31.5856   24.4483 H   0  0  0  0  0  0  0  0  0  0  0  0
  -15.5878  -30.2839   23.7407 H   0  0  0  0  0  0  0  0  0  0  0  0
  -15.9120  -28.0941   22.7766 H   0  0  0  0  0  0  0  0  0  0  0  0
  -24.5787  -30.7757   25.6817 H   0  0  0  0  0  0  0  0  0  0  0  0
  -25.0041  -32.2289   26.5536 H   0  0  0  0  0  0  0  0  0  0  0  0
  -25.8166  -30.7245   26.9138 H   0  0  0  0  0  0  0  0  0  0  0  0
  -26.2892  -29.7335   24.0803 H   0  0  0  0  0  0  0  0  0  0  0  0
  -27.4336  -29.7484   25.4006 H   0  0  0  0  0  0  0  0  0  0  0  0
  -27.8466  -30.4994   23.8779 H   0  0  0  0  0  0  0  0  0  0  0  0
  -27.2251  -33.3632   26.1242 H   0  0  0  0  0  0  0  0  0  0  0  0
  -28.3902  -32.6065   25.0645 H   0  0  0  0  0  0  0  0  0  0  0  0
  -27.9772  -31.8555   26.5872 H   0  0  0  0  0  0  0  0  0  0  0  0
  -28.2744  -38.0016   24.6863 H   0  0  0  0  0  0  0  0  0  0  0  0
  -28.0396  -36.2711   24.7461 H   0  0  0  0  0  0  0  0  0  0  0  0
  -27.1773  -37.3087   25.8564 H   0  0  0  0  0  0  0  0  0  0  0  0
  -20.9627  -29.9365   21.7352 H   0  0  0  0  0  0  0  0  0  0  0  0
  -26.0447  -38.2561   24.0273 H   0  0  0  0  0  0  0  0  0  0  0  0
  -32.9954  -14.9509   21.7471 H   0  0  0  0  0  0  0  0  0  0  0  0
  -36.5707  -17.2429   22.4056 H   0  0  0  0  0  0  0  0  0  0  0  0
  -35.6307  -18.2469   21.3280 H   0  0  0  0  0  0  0  0  0  0  0  0
  -35.7811  -16.5340   21.0174 H   0  0  0  0  0  0  0  0  0  0  0  0
  -34.5456  -16.0524   23.0751 H   0  0  0  0  0  0  0  0  0  0  0  0
  -34.3928  -17.7904   23.3600 H   0  0  0  0  0  0  0  0  0  0  0  0
  -29.0319  -21.6240   21.2319 H   0  0  0  0  0  0  0  0  0  0  0  0
  -27.5973  -21.1558   20.2578 H   0  0  0  0  0  0  0  0  0  0  0  0
  -27.5208  -23.5535   22.0871 H   0  0  0  0  0  0  0  0  0  0  0  0
  -26.2292  -23.5633   21.1159 H   0  0  0  0  0  0  0  0  0  0  0  0
  -34.0738  -19.4939   22.2851 H   0  0  0  0  0  0  0  0  0  0  0  0
  -32.8434  -20.3347   21.4564 H   0  0  0  0  0  0  0  0  0  0  0  0
  -31.3629  -20.2564   20.4905 H   0  0  0  0  0  0  0  0  0  0  0  0
  -30.5160  -14.5402   19.4223 H   0  0  0  0  0  0  0  0  0  0  0  0
  1 25  1  0
  1 30  2  0
  1 86  1  0
  2  3  1  0
  2 25  1  0
  2 90  1  0
  2 91  1  0
  3  4  1  0
  3 92  1  0
  3 93  1  0
  4  5  1  0
  4 94  1  0
  4 95  1  0
  5  6  1  0
  5 26  1  0
  5 96  1  6
  6 25  1  0
  6 97  1  0
  6 98  1  0
  7  8  2  0
  7 26  1  0
  7 29  1  0
  8  9  1  0
  8 22  1  0
  9 10  1  0
  9 27  2  0
 10 11  2  0
 10 15  1  0
 11 12  1  0
 11 99  1  0
 12 13  2  0
 12100  1  0
 13 14  1  0
 13 31  1  0
 14 15  2  0
 14101  1  0
 15102  1  0
 16 17  2  0
 16 21  1  0
 16 31  1  0
 17 18  1  0
 17103  1  0
 18 19  2  0
 18104  1  0
 19 20  1  0
 19 24  1  0
 20 21  2  0
 20105  1  0
 21 23  1  0
 22 28  1  0
 22 32  2  0
 26 27  1  0
 28106  1  0
 28107  1  0
 29108  1  0
 29109  1  0
 33 34  1  0
 33 66  1  0
 33 70  2  0
 34 36  1  0
 34 59  1  0
 34110  1  6
 35 44  2  0
 35 45  1  0
 35 68  1  0
 36 56  1  0
 36111  1  0
 37 39  1  0
 37 47  1  0
 37 66  1  0
 37112  1  6
 38 43  2  0
 38 46  1  0
 38 47  1  0
 39 64  1  0
 39 67  2  0
 40 52  1  0
 40 53  2  0
 40 58  1  0
 41113  1  0
 41114  1  0
 41115  1  0
 42 43  1  0
 42 66  1  0
 42116  1  0
 42117  1  0
 43 44  1  0
 44118  1  0
 45 46  2  0
 45119  1  0
 46120  1  0
 47121  1  0
 47122  1  0
 48 41  1  0
 48 56  1  0
 48 65  1  0
 48123  1  1
 49 50  1  0
 49 53  1  0
 49 64  1  0
 49124  1  1
 50 51  1  0
 50125  1  0
 50126  1  0
 51 52  1  0
 51127  1  0
 51128  1  0
 52129  1  0
 52130  1  0
 53 54  1  0
 54 55  2  0
 54131  1  0
 55 57  1  0
 55132  1  0
 56 69  2  0
 57 58  2  0
 57133  1  0
 58134  1  0
 59 60  1  0
 59 61  1  0
 59 62  1  0
 60135  1  0
 60136  1  0
 60137  1  0
 61138  1  0
 61139  1  0
 61140  1  0
 62141  1  0
 62142  1  0
 62143  1  0
 63 65  1  0
 63144  1  0
 63145  1  0
 63146  1  0
 64147  1  0
 65148  1  0
 68 82  1  0
 71 72  2  0
 71 74  1  0
 71149  1  0
 72 73  1  0
 72 80  1  0
 73 75  2  0
 73 84  1  0
 74 83  2  0
 74 86  1  0
 75 83  1  0
 75 85  1  0
 76 77  1  0
 76 81  1  0
 76 87  2  0
 77 85  1  0
 77 88  2  0
 78 81  1  0
 78 82  1  0
 78 89  2  0
 79 80  1  0
 79150  1  0
 79151  1  0
 79152  1  0
 80153  1  0
 80154  1  0
 81155  1  0
 81156  1  0
 82157  1  0
 82158  1  0
 84159  1  0
 84160  1  0
 85161  1  0
 86162  1  0
M  ISO  4   1 100  68 101  82 101  86 100
M  END
$$$$
13
     RDKit          3D

158166  0  0  0  0  0  0  0  0999 V2000
  -30.7652  -14.3608   20.6636 C   0  0  0  0  0  0  0  0  0100  0  0
  -30.4392  -12.2669   19.3775 C   0  0  0  0  0  0  0  0  0101  0  0
  -29.4791  -12.5281   18.1977 C   0  0  0  0  0  0  0  0  0102  0  0
  -27.9985  -12.3963   18.6038 C   0  0  0  0  0  0  0  0  0103  0  0
  -27.6639  -13.2170   19.8820 C   0  0  2  0  0  0  0  0  0104  0  0
  -28.6795  -12.9602   21.0279 C   0  0  0  0  0  0  0  0  0105  0  0
  -25.2633  -13.8245   20.5754 C   0  0  0  0  0  0  0  0  0106  0  0
  -24.1645  -13.0409   20.9408 C   0  0  0  0  0  0  0  0  0107  0  0
  -24.6400  -11.7009   20.8697 C   0  0  0  0  0  0  0  0  0108  0  0
  -23.9005  -10.4085   21.0420 C   0  0  0  0  0  0  0  0  0109  0  0
  -24.3588   -9.4123   21.9123 C   0  0  0  0  0  0  0  0  0110  0  0
  -23.6296   -8.2350   22.0803 C   0  0  0  0  0  0  0  0  0111  0  0
  -22.4385   -8.0419   21.3657 C   0  0  0  0  0  0  0  0  0112  0  0
  -22.0103   -9.0167   20.4678 C   0  0  0  0  0  0  0  0  0113  0  0
  -22.7317  -10.1925   20.3102 C   0  0  0  0  0  0  0  0  0114  0  0
  -21.6857   -6.0709   22.5391 C   0  0  0  0  0  0  0  0  0115  0  0
  -21.4064   -6.5490   23.8264 C   0  0  0  0  0  0  0  0  0116  0  0
  -21.3635   -5.6677   24.9085 C   0  0  0  0  0  0  0  0  0117  0  0
  -21.5973   -4.3067   24.7088 C   0  0  0  0  0  0  0  0  0118  0  0
  -21.8700   -3.8284   23.4282 C   0  0  0  0  0  0  0  0  0119  0  0
  -21.9144   -4.7056   22.3460 C   0  0  0  0  0  0  0  0  0120  0  0
  -22.8194  -13.5263   21.1763 C   0  0  0  0  0  0  0  0  0121  0  0
  -22.1559   -4.2206   21.1063 F   0  0  0  0  0  0  0  0  0122  0  0
  -21.5628   -3.4510   25.7555 F   0  0  0  0  0  0  0  0  0123  0  0
  -30.0261  -13.1803   20.4553 N   0  0  0  0  0  0  0  0  0124  0  0
  -26.2911  -12.9356   20.3443 N   0  0  0  0  0  0  0  0  0125  0  0
  -25.9236  -11.6675   20.5847 N   0  0  0  0  0  0  0  0  0126  0  0
  -22.0708  -12.7905   22.0005 N   0  0  0  0  0  0  0  0  0127  0  0
  -25.4117  -15.1773   20.4097 N   0  0  0  0  0  0  0  0  0128  0  0
  -31.7916  -14.6724   20.0536 O   0  0  0  0  0  0  0  0  0129  0  0
  -21.6670   -6.9022   21.4423 O   0  0  0  0  0  0  0  0  0130  0  0
  -22.3946  -14.5564   20.6568 O   0  0  0  0  0  0  0  0  0131  0  0
  -24.6048  -31.8614   23.2223 C   0  0  0  0  0  0  0  0  0100  0  0
  -25.8822  -32.4841   23.8616 C   0  0  1  0  0  0  0  0  0101  0  0
  -27.2536  -27.5042   20.1156 C   0  0  0  0  0  0  0  0  0102  0  0
  -25.5726  -33.8762   24.2210 N   0  0  0  0  0  0  0  0  0103  0  0
  -23.4066  -30.4859   21.5461 C   0  0  2  0  0  0  0  0  0104  0  0
  -24.8467  -28.9636   20.1247 C   0  0  0  0  0  0  0  0  0105  0  0
  -22.7412  -29.4652   22.5052 C   0  0  0  0  0  0  0  0  0106  0  0
  -18.0167  -28.1302   22.8626 C   0  0  0  0  0  0  0  0  0107  0  0
  -24.1342  -36.7390   23.2568 C   0  0  0  0  0  0  0  0  0108  0  0
  -25.9141  -30.8882   21.3456 C   0  0  0  0  0  0  0  0  0109  0  0
  -25.9930  -29.5029   20.7208 C   0  0  0  0  0  0  0  0  0110  0  0
  -27.1758  -28.7612   20.7331 C   0  0  0  0  0  0  0  0  0111  0  0
  -26.1032  -26.9836   19.5230 C   0  0  0  0  0  0  0  0  0112  0  0
  -24.9097  -27.7011   19.5331 C   0  0  0  0  0  0  0  0  0113  0  0
  -23.5715  -29.7899   20.1582 C   0  0  0  0  0  0  0  0  0114  0  0
  -25.3990  -36.3212   24.0232 C   0  0  1  0  0  0  0  0  0115  0  0
  -20.5793  -28.3813   23.1004 C   0  0  2  0  0  0  0  0  0116  0  0
  -20.6548  -26.9392   22.5411 C   0  0  0  0  0  0  0  0  0117  0  0
  -19.5615  -26.6407   21.5143 C   0  0  0  0  0  0  0  0  0118  0  0
  -18.1797  -26.7818   22.1673 C   0  0  0  0  0  0  0  0  0119  0  0
  -19.1385  -28.8769   23.2988 C   0  0  0  0  0  0  0  0  0120  0  0
  -18.9183  -30.1286   23.8878 C   0  0  0  0  0  0  0  0  0121  0  0
  -17.6396  -30.6493   24.0352 C   0  0  0  0  0  0  0  0  0122  0  0
  -25.9153  -34.9582   23.4993 C   0  0  0  0  0  0  0  0  0123  0  0
  -16.5415  -29.9068   23.6254 C   0  0  0  0  0  0  0  0  0124  0  0
  -16.7331  -28.6521   23.0586 C   0  0  0  0  0  0  0  0  0125  0  0
  -26.4583  -31.6439   25.0683 C   0  0  0  0  0  0  0  0  0126  0  0
  -25.3807  -31.3179   26.1374 C   0  0  0  0  0  0  0  0  0127  0  0
  -27.0530  -30.3024   24.5680 C   0  0  0  0  0  0  0  0  0128  0  0
  -27.6014  -32.4281   25.7651 C   0  0  0  0  0  0  0  0  0129  0  0
  -27.5629  -37.2220   24.8621 C   0  0  0  0  0  0  0  0  0130  0  0
  -21.4133  -29.3375   22.3735 N   0  0  0  0  0  0  0  0  0131  0  0
  -26.4706  -37.3372   23.9061 N   0  0  0  0  0  0  0  0  0132  0  0
  -24.6674  -31.0544   22.1178 N   0  0  0  0  0  0  0  0  0133  0  0
  -23.4259  -28.8150   23.2971 O   0  0  0  0  0  0  0  0  0134  0  0
  -28.3948  -26.7345   20.0089 O   0  0  0  0  0  0  0  0  0135  0  0
  -26.5870  -34.9065   22.4671 O   0  0  0  0  0  0  0  0  0136  0  0
  -23.5365  -32.1254   23.7833 O   0  0  0  0  0  0  0  0  0137  0  0
  -20.0811  -27.7093   23.6679 C   0  0  0  0  0  0  0  0  0  0  0  0
  -18.9208  -28.3543   23.2397 C   0  0  0  0  0  0  0  0  0  0  0  0
  -18.6782  -26.7371   21.4612 C   0  0  0  0  0  0  0  0  0  0  0  0
  -19.8385  -26.0921   21.8894 C   0  0  0  0  0  0  0  0  0  0  0  0
  -20.5400  -26.5783   22.9927 C   0  0  0  0  0  0  0  0  0  0  0  0
  -18.2193  -27.8682   22.1364 C   0  0  0  0  0  0  0  0  0  0  0  0
  -21.6764  -25.4975   24.6460 C   0  0  0  0  0  0  0  0  0  0  0  0
  -22.8894  -24.8120   25.1861 C   0  0  0  0  0  0  0  0  0  0  0  0
  -23.6913  -22.3453   28.0243 C   0  0  0  0  0  0  0  0  0  0  0  0
  -20.3102  -24.8831   21.1497 C   0  0  0  0  0  0  0  0  0  0  0  0
  -22.6268  -23.7454   26.2237 C   0  0  0  0  0  0  0  0  0  0  0  0
  -23.9135  -23.0777   26.7077 C   0  0  1  0  0  0  0  0  0  1  0  0
  -21.7107  -25.9418   23.4379 N   0  0  0  0  0  0  0  0  0  0  0  0
  -20.0352  -23.6591   21.8688 N   0  0  0  0  0  0  0  0  0  0  0  0
  -23.9777  -25.1451   24.7444 O   0  0  0  0  0  0  0  0  0  0  0  0
  -17.1049  -28.4874   21.7256 F   0  0  0  0  0  0  0  0  0  0  0  0
  -31.4485  -12.4701   19.0860 H   0  0  0  0  0  0  0  0  0  0  0  0
  -30.3970  -11.2460   19.6950 H   0  0  0  0  0  0  0  0  0  0  0  0
  -29.6870  -11.8204   17.4226 H   0  0  0  0  0  0  0  0  0  0  0  0
  -29.6375  -13.5326   17.8649 H   0  0  0  0  0  0  0  0  0  0  0  0
  -27.7830  -11.3650   18.7904 H   0  0  0  0  0  0  0  0  0  0  0  0
  -27.4028  -12.7801   17.8021 H   0  0  0  0  0  0  0  0  0  0  0  0
  -27.7353  -14.2503   19.6136 H   0  0  0  0  0  0  0  0  0  0  0  0
  -28.5890  -11.9550   21.3832 H   0  0  0  0  0  0  0  0  0  0  0  0
  -28.5005  -13.6134   21.8562 H   0  0  0  0  0  0  0  0  0  0  0  0
  -25.2399   -9.5495   22.4318 H   0  0  0  0  0  0  0  0  0  0  0  0
  -23.9663   -7.5070   22.7297 H   0  0  0  0  0  0  0  0  0  0  0  0
  -21.1515   -8.8641   19.9162 H   0  0  0  0  0  0  0  0  0  0  0  0
  -22.4016  -10.9115   19.6476 H   0  0  0  0  0  0  0  0  0  0  0  0
  -21.2319   -7.5552   23.9750 H   0  0  0  0  0  0  0  0  0  0  0  0
  -21.1589   -6.0228   25.8556 H   0  0  0  0  0  0  0  0  0  0  0  0
  -22.0396   -2.8212   23.2809 H   0  0  0  0  0  0  0  0  0  0  0  0
  -22.4401  -11.9703   22.4008 H   0  0  0  0  0  0  0  0  0  0  0  0
  -21.1493  -13.0679   22.2082 H   0  0  0  0  0  0  0  0  0  0  0  0
  -24.6538  -15.7807   20.5848 H   0  0  0  0  0  0  0  0  0  0  0  0
  -26.2762  -15.5453   20.1156 H   0  0  0  0  0  0  0  0  0  0  0  0
  -26.6778  -32.4663   23.1464 H   0  0  0  0  0  0  0  0  0  0  0  0
  -25.0747  -34.0282   25.0566 H   0  0  0  0  0  0  0  0  0  0  0  0
  -22.7881  -31.3489   21.4131 H   0  0  0  0  0  0  0  0  0  0  0  0
  -23.3854  -35.9823   23.3648 H   0  0  0  0  0  0  0  0  0  0  0  0
  -24.3696  -36.8624   22.2204 H   0  0  0  0  0  0  0  0  0  0  0  0
  -23.7669  -37.6632   23.6516 H   0  0  0  0  0  0  0  0  0  0  0  0
  -25.9445  -31.6237   20.5691 H   0  0  0  0  0  0  0  0  0  0  0  0
  -26.7436  -31.0079   22.0108 H   0  0  0  0  0  0  0  0  0  0  0  0
  -28.0090  -29.1452   21.2057 H   0  0  0  0  0  0  0  0  0  0  0  0
  -26.1369  -26.0560   19.0719 H   0  0  0  0  0  0  0  0  0  0  0  0
  -24.0652  -27.2961   19.0997 H   0  0  0  0  0  0  0  0  0  0  0  0
  -23.6156  -30.5365   19.3930 H   0  0  0  0  0  0  0  0  0  0  0  0
  -22.7355  -29.1425   19.9945 H   0  0  0  0  0  0  0  0  0  0  0  0
  -25.1353  -36.2335   25.0565 H   0  0  0  0  0  0  0  0  0  0  0  0
  -21.0070  -28.3206   24.0793 H   0  0  0  0  0  0  0  0  0  0  0  0
  -20.5555  -26.2518   23.3550 H   0  0  0  0  0  0  0  0  0  0  0  0
  -21.5974  -26.8362   22.0454 H   0  0  0  0  0  0  0  0  0  0  0  0
  -19.6810  -25.6422   21.1488 H   0  0  0  0  0  0  0  0  0  0  0  0
  -19.6406  -27.3343   20.7034 H   0  0  0  0  0  0  0  0  0  0  0  0
  -17.4282  -26.6888   21.4113 H   0  0  0  0  0  0  0  0  0  0  0  0
  -18.0803  -26.0130   22.9049 H   0  0  0  0  0  0  0  0  0  0  0  0
  -19.7265  -30.6774   24.2204 H   0  0  0  0  0  0  0  0  0  0  0  0
  -17.5064  -31.5856   24.4483 H   0  0  0  0  0  0  0  0  0  0  0  0
  -15.5878  -30.2839   23.7407 H   0  0  0  0  0  0  0  0  0  0  0  0
  -15.9120  -28.0941   22.7766 H   0  0  0  0  0  0  0  0  0  0  0  0
  -24.5787  -30.7757   25.6817 H   0  0  0  0  0  0  0  0  0  0  0  0
  -25.0041  -32.2289   26.5536 H   0  0  0  0  0  0  0  0  0  0  0  0
  -25.8166  -30.7245   26.9138 H   0  0  0  0  0  0  0  0  0  0  0  0
  -26.2892  -29.7335   24.0803 H   0  0  0  0  0  0  0  0  0  0  0  0
  -27.4336  -29.7484   25.4006 H   0  0  0  0  0  0  0  0  0  0  0  0
  -27.8466  -30.4994   23.8779 H   0  0  0  0  0  0  0  0  0  0  0  0
  -27.2251  -33.3632   26.1242 H   0  0  0  0  0  0  0  0  0  0  0  0
  -28.3902  -32.6065   25.0645 H   0  0  0  0  0  0  0  0  0  0  0  0
  -27.9772  -31.8555   26.5872 H   0  0  0  0  0  0  0  0  0  0  0  0
  -28.2744  -38.0016   24.6863 H   0  0  0  0  0  0  0  0  0  0  0  0
  -28.0396  -36.2711   24.7461 H   0  0  0  0  0  0  0  0  0  0  0  0
  -27.1773  -37.3087   25.8564 H   0  0  0  0  0  0  0  0  0  0  0  0
  -20.9627  -29.9365   21.7352 H   0  0  0  0  0  0  0  0  0  0  0  0
  -26.0447  -38.2561   24.0273 H   0  0  0  0  0  0  0  0  0  0  0  0
  -20.6000  -28.0689   24.4843 H   0  0  0  0  0  0  0  0  0  0  0  0
  -18.5814  -29.1912   23.7392 H   0  0  0  0  0  0  0  0  0  0  0  0
  -18.1592  -26.3775   20.6449 H   0  0  0  0  0  0  0  0  0  0  0  0
  -20.8314  -25.6121   25.2273 H   0  0  0  0  0  0  0  0  0  0  0  0
  -22.6414  -22.2615   28.2130 H   0  0  0  0  0  0  0  0  0  0  0  0
  -24.1540  -22.8921   28.8191 H   0  0  0  0  0  0  0  0  0  0  0  0
  -24.1223  -21.3677   27.9658 H   0  0  0  0  0  0  0  0  0  0  0  0
  -21.3663  -24.9630   20.9973 H   0  0  0  0  0  0  0  0  0  0  0  0
  -19.7836  -24.8420   20.2192 H   0  0  0  0  0  0  0  0  0  0  0  0
  -21.9913  -22.9983   25.7960 H   0  0  0  0  0  0  0  0  0  0  0  0
  -22.1649  -24.2155   27.0667 H   0  0  0  0  0  0  0  0  0  0  0  0
  -24.7163  -22.4622   27.0563 H   0  0  0  0  0  0  0  0  0  0  0  0
  -19.2099  -23.4894   22.3780 H   0  0  0  0  0  0  0  0  0  0  0  0
  1 25  1  0
  1 30  2  0
  1 84  1  0
  2  3  1  0
  2 25  1  0
  2 87  1  0
  2 88  1  0
  3  4  1  0
  3 89  1  0
  3 90  1  0
  4  5  1  0
  4 91  1  0
  4 92  1  0
  5  6  1  0
  5 26  1  0
  5 93  1  6
  6 25  1  0
  6 94  1  0
  6 95  1  0
  7  8  2  0
  7 26  1  0
  7 29  1  0
  8  9  1  0
  8 22  1  0
  9 10  1  0
  9 27  2  0
 10 11  2  0
 10 15  1  0
 11 12  1  0
 11 96  1  0
 12 13  2  0
 12 97  1  0
 13 14  1  0
 13 31  1  0
 14 15  2  0
 14 98  1  0
 15 99  1  0
 16 17  2  0
 16 21  1  0
 16 31  1  0
 17 18  1  0
 17100  1  0
 18 19  2  0
 18101  1  0
 19 20  1  0
 19 24  1  0
 20 21  2  0
 20102  1  0
 21 23  1  0
 22 28  1  0
 22 32  2  0
 26 27  1  0
 28103  1  0
 28104  1  0
 29105  1  0
 29106  1  0
 33 34  1  0
 33 66  1  0
 33 70  2  0
 34 36  1  0
 34 59  1  0
 34107  1  6
 35 44  2  0
 35 45  1  0
 35 68  1  0
 36 56  1  0
 36108  1  0
 37 39  1  0
 37 47  1  0
 37 66  1  0
 37109  1  6
 38 43  2  0
 38 46  1  0
 38 47  1  0
 39 64  1  0
 39 67  2  0
 40 52  1  0
 40 53  2  0
 40 58  1  0
 41110  1  0
 41111  1  0
 41112  1  0
 42 43  1  0
 42 66  1  0
 42113  1  0
 42114  1  0
 43 44  1  0
 44115  1  0
 45 46  2  0
 45116  1  0
 46117  1  0
 47118  1  0
 47119  1  0
 48 41  1  0
 48 56  1  0
 48 65  1  0
 48120  1  1
 49 50  1  0
 49 53  1  0
 49 64  1  0
 49121  1  1
 50 51  1  0
 50122  1  0
 50123  1  0
 51 52  1  0
 51124  1  0
 51125  1  0
 52126  1  0
 52127  1  0
 53 54  1  0
 54 55  2  0
 54128  1  0
 55 57  1  0
 55129  1  0
 56 69  2  0
 57 58  2  0
 57130  1  0
 58131  1  0
 59 60  1  0
 59 61  1  0
 59 62  1  0
 60132  1  0
 60133  1  0
 60134  1  0
 61135  1  0
 61136  1  0
 61137  1  0
 62138  1  0
 62139  1  0
 62140  1  0
 63 65  1  0
 63141  1  0
 63142  1  0
 63143  1  0
 64144  1  0
 65145  1  0
 68 82  1  0
 71 72  2  0
 71 75  1  0
 71146  1  0
 72 76  1  0
 72147  1  0
 73 74  1  0
 73 76  2  0
 73148  1  0
 74 75  2  0
 74 80  1  0
 75 83  1  0
 76 86  1  0
 77 78  1  0
 77 83  2  0
 77149  1  0
 78 81  1  0
 78 85  2  0
 79150  1  0
 79151  1  0
 79152  1  0
 80 84  1  0
 80153  1  0
 80154  1  0
 81 82  1  0
 81155  1  0
 81156  1  0
 82 79  1  0
 82157  1  6
 84158  1  0
M  ISO  4   1 100  68 101  82 101  84 100
M  END
$$$$
14
     RDKit          3D

156164  0  0  0  0  0  0  0  0999 V2000
  -30.7652  -14.3608   20.6636 C   0  0  0  0  0  0  0  0  0100  0  0
  -30.4392  -12.2669   19.3775 C   0  0  0  0  0  0  0  0  0101  0  0
  -29.4791  -12.5281   18.1977 C   0  0  0  0  0  0  0  0  0102  0  0
  -27.9985  -12.3963   18.6038 C   0  0  0  0  0  0  0  0  0103  0  0
  -27.6639  -13.2170   19.8820 C   0  0  2  0  0  0  0  0  0104  0  0
  -28.6795  -12.9602   21.0279 C   0  0  0  0  0  0  0  0  0105  0  0
  -25.2633  -13.8245   20.5754 C   0  0  0  0  0  0  0  0  0106  0  0
  -24.1645  -13.0409   20.9408 C   0  0  0  0  0  0  0  0  0107  0  0
  -24.6400  -11.7009   20.8697 C   0  0  0  0  0  0  0  0  0108  0  0
  -23.9005  -10.4085   21.0420 C   0  0  0  0  0  0  0  0  0109  0  0
  -24.3588   -9.4123   21.9123 C   0  0  0  0  0  0  0  0  0110  0  0
  -23.6296   -8.2350   22.0803 C   0  0  0  0  0  0  0  0  0111  0  0
  -22.4385   -8.0419   21.3657 C   0  0  0  0  0  0  0  0  0112  0  0
  -22.0103   -9.0167   20.4678 C   0  0  0  0  0  0  0  0  0113  0  0
  -22.7317  -10.1925   20.3102 C   0  0  0  0  0  0  0  0  0114  0  0
  -21.6857   -6.0709   22.5391 C   0  0  0  0  0  0  0  0  0115  0  0
  -21.4064   -6.5490   23.8264 C   0  0  0  0  0  0  0  0  0116  0  0
  -21.3635   -5.6677   24.9085 C   0  0  0  0  0  0  0  0  0117  0  0
  -21.5973   -4.3067   24.7088 C   0  0  0  0  0  0  0  0  0118  0  0
  -21.8700   -3.8284   23.4282 C   0  0  0  0  0  0  0  0  0119  0  0
  -21.9144   -4.7056   22.3460 C   0  0  0  0  0  0  0  0  0120  0  0
  -22.8194  -13.5263   21.1763 C   0  0  0  0  0  0  0  0  0121  0  0
  -22.1559   -4.2206   21.1063 F   0  0  0  0  0  0  0  0  0122  0  0
  -21.5628   -3.4510   25.7555 F   0  0  0  0  0  0  0  0  0123  0  0
  -30.0261  -13.1803   20.4553 N   0  0  0  0  0  0  0  0  0124  0  0
  -26.2911  -12.9356   20.3443 N   0  0  0  0  0  0  0  0  0125  0  0
  -25.9236  -11.6675   20.5847 N   0  0  0  0  0  0  0  0  0126  0  0
  -22.0708  -12.7905   22.0005 N   0  0  0  0  0  0  0  0  0127  0  0
  -25.4117  -15.1773   20.4097 N   0  0  0  0  0  0  0  0  0128  0  0
  -31.7916  -14.6724   20.0536 O   0  0  0  0  0  0  0  0  0129  0  0
  -21.6670   -6.9022   21.4423 O   0  0  0  0  0  0  0  0  0130  0  0
  -22.3946  -14.5564   20.6568 O   0  0  0  0  0  0  0  0  0131  0  0
  -24.6048  -31.8614   23.2223 C   0  0  0  0  0  0  0  0  0100  0  0
  -25.8822  -32.4841   23.8616 C   0  0  1  0  0  0  0  0  0101  0  0
  -27.2536  -27.5042   20.1156 C   0  0  0  0  0  0  0  0  0102  0  0
  -25.5726  -33.8762   24.2210 N   0  0  0  0  0  0  0  0  0103  0  0
  -23.4066  -30.4859   21.5461 C   0  0  2  0  0  0  0  0  0104  0  0
  -24.8467  -28.9636   20.1247 C   0  0  0  0  0  0  0  0  0105  0  0
  -22.7412  -29.4652   22.5052 C   0  0  0  0  0  0  0  0  0106  0  0
  -18.0167  -28.1302   22.8626 C   0  0  0  0  0  0  0  0  0107  0  0
  -24.1342  -36.7390   23.2568 C   0  0  0  0  0  0  0  0  0108  0  0
  -25.9141  -30.8882   21.3456 C   0  0  0  0  0  0  0  0  0109  0  0
  -25.9930  -29.5029   20.7208 C   0  0  0  0  0  0  0  0  0110  0  0
  -27.1758  -28.7612   20.7331 C   0  0  0  0  0  0  0  0  0111  0  0
  -26.1032  -26.9836   19.5230 C   0  0  0  0  0  0  0  0  0112  0  0
  -24.9097  -27.7011   19.5331 C   0  0  0  0  0  0  0  0  0113  0  0
  -23.5715  -29.7899   20.1582 C   0  0  0  0  0  0  0  0  0114  0  0
  -25.3990  -36.3212   24.0232 C   0  0  1  0  0  0  0  0  0115  0  0
  -20.5793  -28.3813   23.1004 C   0  0  2  0  0  0  0  0  0116  0  0
  -20.6548  -26.9392   22.5411 C   0  0  0  0  0  0  0  0  0117  0  0
  -19.5615  -26.6407   21.5143 C   0  0  0  0  0  0  0  0  0118  0  0
  -18.1797  -26.7818   22.1673 C   0  0  0  0  0  0  0  0  0119  0  0
  -19.1385  -28.8769   23.2988 C   0  0  0  0  0  0  0  0  0120  0  0
  -18.9183  -30.1286   23.8878 C   0  0  0  0  0  0  0  0  0121  0  0
  -17.6396  -30.6493   24.0352 C   0  0  0  0  0  0  0  0  0122  0  0
  -25.9153  -34.9582   23.4993 C   0  0  0  0  0  0  0  0  0123  0  0
  -16.5415  -29.9068   23.6254 C   0  0  0  0  0  0  0  0  0124  0  0
  -16.7331  -28.6521   23.0586 C   0  0  0  0  0  0  0  0  0125  0  0
  -26.4583  -31.6439   25.0683 C   0  0  0  0  0  0  0  0  0126  0  0
  -25.3807  -31.3179   26.1374 C   0  0  0  0  0  0  0  0  0127  0  0
  -27.0530  -30.3024   24.5680 C   0  0  0  0  0  0  0  0  0128  0  0
  -27.6014  -32.4281   25.7651 C   0  0  0  0  0  0  0  0  0129  0  0
  -27.5629  -37.2220   24.8621 C   0  0  0  0  0  0  0  0  0130  0  0
  -21.4133  -29.3375   22.3735 N   0  0  0  0  0  0  0  0  0131  0  0
  -26.4706  -37.3372   23.9061 N   0  0  0  0  0  0  0  0  0132  0  0
  -24.6674  -31.0544   22.1178 N   0  0  0  0  0  0  0  0  0133  0  0
  -23.4259  -28.8150   23.2971 O   0  0  0  0  0  0  0  0  0134  0  0
  -28.3948  -26.7345   20.0089 O   0  0  0  0  0  0  0  0  0135  0  0
  -26.5870  -34.9065   22.4671 O   0  0  0  0  0  0  0  0  0136  0  0
  -23.5365  -32.1254   23.7833 O   0  0  0  0  0  0  0  0  0137  0  0
  -31.1922  -17.5902   20.5665 C   0  0  0  0  0  0  0  0  0  0  0  0
  -30.6770  -19.8072   21.3766 C   0  0  0  0  0  0  0  0  0  0  0  0
  -29.5431  -17.8874   22.3068 C   0  0  0  0  0  0  0  0  0  0  0  0
  -30.2645  -17.0493   21.4567 C   0  0  0  0  0  0  0  0  0  0  0  0
  -29.7493  -19.2664   22.2668 C   0  0  0  0  0  0  0  0  0  0  0  0
  -31.3985  -18.9692   20.5264 C   0  0  0  0  0  0  0  0  0  0  0  0
  -28.2846  -22.1503   24.1451 C   0  0  0  0  0  0  0  0  0  0  0  0
  -28.3015  -23.6553   24.3282 C   0  0  0  0  0  0  0  0  0  0  0  0
  -29.2057  -21.5490   23.1151 C   0  0  0  0  0  0  0  0  0  0  0  0
  -29.2404  -24.4701   23.4752 C   0  0  0  0  0  0  0  0  0  1  0  0
  -28.5444  -17.3073   23.2599 C   0  0  0  0  0  0  0  0  0  0  0  0
  -30.0725  -15.6456   21.4808 N   0  0  0  0  0  0  0  0  0  0  0  0
  -29.0423  -20.1162   23.1038 N   0  0  0  0  0  0  0  0  0  0  0  0
  -27.5147  -21.5121   24.8520 O   0  0  0  0  0  0  0  0  0  0  0  0
  -27.5471  -24.1299   25.1676 O   0  0  0  0  0  0  0  0  0  0  0  0
  -32.2895  -19.4882   19.6715 F   0  0  0  0  0  0  0  0  0  0  0  0
  -28.4487  -15.9492   23.1838 F   0  0  0  0  0  0  0  0  0  0  0  0
  -28.8241  -17.5771   24.5668 F   0  0  0  0  0  0  0  0  0  0  0  0
  -27.2851  -17.7809   23.0442 F   0  0  0  0  0  0  0  0  0  0  0  0
  -31.4485  -12.4701   19.0860 H   0  0  0  0  0  0  0  0  0  0  0  0
  -30.3970  -11.2460   19.6950 H   0  0  0  0  0  0  0  0  0  0  0  0
  -29.6870  -11.8204   17.4226 H   0  0  0  0  0  0  0  0  0  0  0  0
  -29.6375  -13.5326   17.8649 H   0  0  0  0  0  0  0  0  0  0  0  0
  -27.7830  -11.3650   18.7904 H   0  0  0  0  0  0  0  0  0  0  0  0
  -27.4028  -12.7801   17.8021 H   0  0  0  0  0  0  0  0  0  0  0  0
  -27.7353  -14.2503   19.6136 H   0  0  0  0  0  0  0  0  0  0  0  0
  -28.5890  -11.9550   21.3832 H   0  0  0  0  0  0  0  0  0  0  0  0
  -28.5005  -13.6134   21.8562 H   0  0  0  0  0  0  0  0  0  0  0  0
  -25.2399   -9.5495   22.4318 H   0  0  0  0  0  0  0  0  0  0  0  0
  -23.9663   -7.5070   22.7297 H   0  0  0  0  0  0  0  0  0  0  0  0
  -21.1515   -8.8641   19.9162 H   0  0  0  0  0  0  0  0  0  0  0  0
  -22.4016  -10.9115   19.6476 H   0  0  0  0  0  0  0  0  0  0  0  0
  -21.2319   -7.5552   23.9750 H   0  0  0  0  0  0  0  0  0  0  0  0
  -21.1589   -6.0228   25.8556 H   0  0  0  0  0  0  0  0  0  0  0  0
  -22.0396   -2.8212   23.2809 H   0  0  0  0  0  0  0  0  0  0  0  0
  -22.4401  -11.9703   22.4008 H   0  0  0  0  0  0  0  0  0  0  0  0
  -21.1493  -13.0679   22.2082 H   0  0  0  0  0  0  0  0  0  0  0  0
  -24.6538  -15.7807   20.5848 H   0  0  0  0  0  0  0  0  0  0  0  0
  -26.2762  -15.5453   20.1156 H   0  0  0  0  0  0  0  0  0  0  0  0
  -26.6778  -32.4663   23.1464 H   0  0  0  0  0  0  0  0  0  0  0  0
  -25.0747  -34.0282   25.0566 H   0  0  0  0  0  0  0  0  0  0  0  0
  -22.7881  -31.3489   21.4131 H   0  0  0  0  0  0  0  0  0  0  0  0
  -23.3854  -35.9823   23.3648 H   0  0  0  0  0  0  0  0  0  0  0  0
  -24.3696  -36.8624   22.2204 H   0  0  0  0  0  0  0  0  0  0  0  0
  -23.7669  -37.6632   23.6516 H   0  0  0  0  0  0  0  0  0  0  0  0
  -25.9445  -31.6237   20.5691 H   0  0  0  0  0  0  0  0  0  0  0  0
  -26.7436  -31.0079   22.0108 H   0  0  0  0  0  0  0  0  0  0  0  0
  -28.0090  -29.1452   21.2057 H   0  0  0  0  0  0  0  0  0  0  0  0
  -26.1369  -26.0560   19.0719 H   0  0  0  0  0  0  0  0  0  0  0  0
  -24.0652  -27.2961   19.0997 H   0  0  0  0  0  0  0  0  0  0  0  0
  -23.6156  -30.5365   19.3930 H   0  0  0  0  0  0  0  0  0  0  0  0
  -22.7355  -29.1425   19.9945 H   0  0  0  0  0  0  0  0  0  0  0  0
  -25.1353  -36.2335   25.0565 H   0  0  0  0  0  0  0  0  0  0  0  0
  -21.0070  -28.3206   24.0793 H   0  0  0  0  0  0  0  0  0  0  0  0
  -20.5555  -26.2518   23.3550 H   0  0  0  0  0  0  0  0  0  0  0  0
  -21.5974  -26.8362   22.0454 H   0  0  0  0  0  0  0  0  0  0  0  0
  -19.6810  -25.6422   21.1488 H   0  0  0  0  0  0  0  0  0  0  0  0
  -19.6406  -27.3343   20.7034 H   0  0  0  0  0  0  0  0  0  0  0  0
  -17.4282  -26.6888   21.4113 H   0  0  0  0  0  0  0  0  0  0  0  0
  -18.0803  -26.0130   22.9049 H   0  0  0  0  0  0  0  0  0  0  0  0
  -19.7265  -30.6774   24.2204 H   0  0  0  0  0  0  0  0  0  0  0  0
  -17.5064  -31.5856   24.4483 H   0  0  0  0  0  0  0  0  0  0  0  0
  -15.5878  -30.2839   23.7407 H   0  0  0  0  0  0  0  0  0  0  0  0
  -15.9120  -28.0941   22.7766 H   0  0  0  0  0  0  0  0  0  0  0  0
  -24.5787  -30.7757   25.6817 H   0  0  0  0  0  0  0  0  0  0  0  0
  -25.0041  -32.2289   26.5536 H   0  0  0  0  0  0  0  0  0  0  0  0
  -25.8166  -30.7245   26.9138 H   0  0  0  0  0  0  0  0  0  0  0  0
  -26.2892  -29.7335   24.0803 H   0  0  0  0  0  0  0  0  0  0  0  0
  -27.4336  -29.7484   25.4006 H   0  0  0  0  0  0  0  0  0  0  0  0
  -27.8466  -30.4994   23.8779 H   0  0  0  0  0  0  0  0  0  0  0  0
  -27.2251  -33.3632   26.1242 H   0  0  0  0  0  0  0  0  0  0  0  0
  -28.3902  -32.6065   25.0645 H   0  0  0  0  0  0  0  0  0  0  0  0
  -27.9772  -31.8555   26.5872 H   0  0  0  0  0  0  0  0  0  0  0  0
  -28.2744  -38.0016   24.6863 H   0  0  0  0  0  0  0  0  0  0  0  0
  -28.0396  -36.2711   24.7461 H   0  0  0  0  0  0  0  0  0  0  0  0
  -27.1773  -37.3087   25.8564 H   0  0  0  0  0  0  0  0  0  0  0  0
  -20.9627  -29.9365   21.7352 H   0  0  0  0  0  0  0  0  0  0  0  0
  -26.0447  -38.2561   24.0273 H   0  0  0  0  0  0  0  0  0  0  0  0
  -31.7260  -16.9701   19.9375 H   0  0  0  0  0  0  0  0  0  0  0  0
  -30.8296  -20.8274   21.3470 H   0  0  0  0  0  0  0  0  0  0  0  0
  -30.2193  -21.7907   23.3583 H   0  0  0  0  0  0  0  0  0  0  0  0
  -28.9675  -21.9433   22.1493 H   0  0  0  0  0  0  0  0  0  0  0  0
  -29.9881  -23.7721   23.1611 H   0  0  0  0  0  0  0  0  0  0  0  0
  -29.3940  -25.2833   24.1535 H   0  0  0  0  0  0  0  0  0  0  0  0
  -29.3781  -15.3644   22.1195 H   0  0  0  0  0  0  0  0  0  0  0  0
  -28.3913  -19.7186   23.7262 H   0  0  0  0  0  0  0  0  0  0  0  0
  1 25  1  0
  1 30  2  0
  1 82  1  0
  2  3  1  0
  2 25  1  0
  2 90  1  0
  2 91  1  0
  3  4  1  0
  3 92  1  0
  3 93  1  0
  4  5  1  0
  4 94  1  0
  4 95  1  0
  5  6  1  0
  5 26  1  0
  5 96  1  6
  6 25  1  0
  6 97  1  0
  6 98  1  0
  7  8  2  0
  7 26  1  0
  7 29  1  0
  8  9  1  0
  8 22  1  0
  9 10  1  0
  9 27  2  0
 10 11  2  0
 10 15  1  0
 11 12  1  0
 11 99  1  0
 12 13  2  0
 12100  1  0
 13 14  1  0
 13 31  1  0
 14 15  2  0
 14101  1  0
 15102  1  0
 16 17  2  0
 16 21  1  0
 16 31  1  0
 17 18  1  0
 17103  1  0
 18 19  2  0
 18104  1  0
 19 20  1  0
 19 24  1  0
 20 21  2  0
 20105  1  0
 21 23  1  0
 22 28  1  0
 22 32  2  0
 26 27  1  0
 28106  1  0
 28107  1  0
 29108  1  0
 29109  1  0
 33 34  1  0
 33 66  1  0
 33 70  2  0
 34 36  1  0
 34 59  1  0
 34110  1  6
 35 44  2  0
 35 45  1  0
 35 68  1  0
 36 56  1  0
 36111  1  0
 37 39  1  0
 37 47  1  0
 37 66  1  0
 37112  1  6
 38 43  2  0
 38 46  1  0
 38 47  1  0
 39 64  1  0
 39 67  2  0
 40 52  1  0
 40 53  2  0
 40 58  1  0
 41113  1  0
 41114  1  0
 41115  1  0
 42 43  1  0
 42 66  1  0
 42116  1  0
 42117  1  0
 43 44  1  0
 44118  1  0
 45 46  2  0
 45119  1  0
 46120  1  0
 47121  1  0
 47122  1  0
 48 41  1  0
 48 56  1  0
 48 65  1  0
 48123  1  1
 49 50  1  0
 49 53  1  0
 49 64  1  0
 49124  1  1
 50 51  1  0
 50125  1  0
 50126  1  0
 51 52  1  0
 51127  1  0
 51128  1  0
 52129  1  0
 52130  1  0
 53 54  1  0
 54 55  2  0
 54131  1  0
 55 57  1  0
 55132  1  0
 56 69  2  0
 57 58  2  0
 57133  1  0
 58134  1  0
 59 60  1  0
 59 61  1  0
 59 62  1  0
 60135  1  0
 60136  1  0
 60137  1  0
 61138  1  0
 61139  1  0
 61140  1  0
 62141  1  0
 62142  1  0
 62143  1  0
 63 65  1  0
 63144  1  0
 63145  1  0
 63146  1  0
 64147  1  0
 65148  1  0
 68 80  1  0
 71 74  2  0
 71 76  1  0
 71149  1  0
 72 75  1  0
 72 76  2  0
 72150  1  0
 73 74  1  0
 73 75  2  0
 73 81  1  0
 74 82  1  0
 75 83  1  0
 76 86  1  0
 77 78  1  0
 77 79  1  0
 77 84  2  0
 78 80  1  0
 78 85  2  0
 79 83  1  0
 79151  1  0
 79152  1  0
 80153  1  0
 80154  1  0
 81 87  1  0
 81 88  1  0
 81 89  1  0
 82155  1  0
 83156  1  0
M  ISO  4   1 100  68 101  80 101  82 100
M  END
$$$$
15
     RDKit          3D

159167  0  0  0  0  0  0  0  0999 V2000
  -30.7652  -14.3608   20.6636 C   0  0  0  0  0  0  0  0  0100  0  0
  -30.4392  -12.2669   19.3775 C   0  0  0  0  0  0  0  0  0101  0  0
  -29.4791  -12.5281   18.1977 C   0  0  0  0  0  0  0  0  0102  0  0
  -27.9985  -12.3963   18.6038 C   0  0  0  0  0  0  0  0  0103  0  0
  -27.6639  -13.2170   19.8820 C   0  0  2  0  0  0  0  0  0104  0  0
  -28.6795  -12.9602   21.0279 C   0  0  0  0  0  0  0  0  0105  0  0
  -25.2633  -13.8245   20.5754 C   0  0  0  0  0  0  0  0  0106  0  0
  -24.1645  -13.0409   20.9408 C   0  0  0  0  0  0  0  0  0107  0  0
  -24.6400  -11.7009   20.8697 C   0  0  0  0  0  0  0  0  0108  0  0
  -23.9005  -10.4085   21.0420 C   0  0  0  0  0  0  0  0  0109  0  0
  -24.3588   -9.4123   21.9123 C   0  0  0  0  0  0  0  0  0110  0  0
  -23.6296   -8.2350   22.0803 C   0  0  0  0  0  0  0  0  0111  0  0
  -22.4385   -8.0419   21.3657 C   0  0  0  0  0  0  0  0  0112  0  0
  -22.0103   -9.0167   20.4678 C   0  0  0  0  0  0  0  0  0113  0  0
  -22.7317  -10.1925   20.3102 C   0  0  0  0  0  0  0  0  0114  0  0
  -21.6857   -6.0709   22.5391 C   0  0  0  0  0  0  0  0  0115  0  0
  -21.4064   -6.5490   23.8264 C   0  0  0  0  0  0  0  0  0116  0  0
  -21.3635   -5.6677   24.9085 C   0  0  0  0  0  0  0  0  0117  0  0
  -21.5973   -4.3067   24.7088 C   0  0  0  0  0  0  0  0  0118  0  0
  -21.8700   -3.8284   23.4282 C   0  0  0  0  0  0  0  0  0119  0  0
  -21.9144   -4.7056   22.3460 C   0  0  0  0  0  0  0  0  0120  0  0
  -22.8194  -13.5263   21.1763 C   0  0  0  0  0  0  0  0  0121  0  0
  -22.1559   -4.2206   21.1063 F   0  0  0  0  0  0  0  0  0122  0  0
  -21.5628   -3.4510   25.7555 F   0  0  0  0  0  0  0  0  0123  0  0
  -30.0261  -13.1803   20.4553 N   0  0  0  0  0  0  0  0  0124  0  0
  -26.2911  -12.9356   20.3443 N   0  0  0  0  0  0  0  0  0125  0  0
  -25.9236  -11.6675   20.5847 N   0  0  0  0  0  0  0  0  0126  0  0
  -22.0708  -12.7905   22.0005 N   0  0  0  0  0  0  0  0  0127  0  0
  -25.4117  -15.1773   20.4097 N   0  0  0  0  0  0  0  0  0128  0  0
  -31.7916  -14.6724   20.0536 O   0  0  0  0  0  0  0  0  0129  0  0
  -21.6670   -6.9022   21.4423 O   0  0  0  0  0  0  0  0  0130  0  0
  -22.3946  -14.5564   20.6568 O   0  0  0  0  0  0  0  0  0131  0  0
  -24.6048  -31.8614   23.2223 C   0  0  0  0  0  0  0  0  0100  0  0
  -25.8822  -32.4841   23.8616 C   0  0  1  0  0  0  0  0  0101  0  0
  -27.2536  -27.5042   20.1156 C   0  0  0  0  0  0  0  0  0102  0  0
  -25.5726  -33.8762   24.2210 N   0  0  0  0  0  0  0  0  0103  0  0
  -23.4066  -30.4859   21.5461 C   0  0  2  0  0  0  0  0  0104  0  0
  -24.8467  -28.9636   20.1247 C   0  0  0  0  0  0  0  0  0105  0  0
  -22.7412  -29.4652   22.5052 C   0  0  0  0  0  0  0  0  0106  0  0
  -18.0167  -28.1302   22.8626 C   0  0  0  0  0  0  0  0  0107  0  0
  -24.1342  -36.7390   23.2568 C   0  0  0  0  0  0  0  0  0108  0  0
  -25.9141  -30.8882   21.3456 C   0  0  0  0  0  0  0  0  0109  0  0
  -25.9930  -29.5029   20.7208 C   0  0  0  0  0  0  0  0  0110  0  0
  -27.1758  -28.7612   20.7331 C   0  0  0  0  0  0  0  0  0111  0  0
  -26.1032  -26.9836   19.5230 C   0  0  0  0  0  0  0  0  0112  0  0
  -24.9097  -27.7011   19.5331 C   0  0  0  0  0  0  0  0  0113  0  0
  -23.5715  -29.7899   20.1582 C   0  0  0  0  0  0  0  0  0114  0  0
  -25.3990  -36.3212   24.0232 C   0  0  1  0  0  0  0  0  0115  0  0
  -20.5793  -28.3813   23.1004 C   0  0  2  0  0  0  0  0  0116  0  0
  -20.6548  -26.9392   22.5411 C   0  0  0  0  0  0  0  0  0117  0  0
  -19.5615  -26.6407   21.5143 C   0  0  0  0  0  0  0  0  0118  0  0
  -18.1797  -26.7818   22.1673 C   0  0  0  0  0  0  0  0  0119  0  0
  -19.1385  -28.8769   23.2988 C   0  0  0  0  0  0  0  0  0120  0  0
  -18.9183  -30.1286   23.8878 C   0  0  0  0  0  0  0  0  0121  0  0
  -17.6396  -30.6493   24.0352 C   0  0  0  0  0  0  0  0  0122  0  0
  -25.9153  -34.9582   23.4993 C   0  0  0  0  0  0  0  0  0123  0  0
  -16.5415  -29.9068   23.6254 C   0  0  0  0  0  0  0  0  0124  0  0
  -16.7331  -28.6521   23.0586 C   0  0  0  0  0  0  0  0  0125  0  0
  -26.4583  -31.6439   25.0683 C   0  0  0  0  0  0  0  0  0126  0  0
  -25.3807  -31.3179   26.1374 C   0  0  0  0  0  0  0  0  0127  0  0
  -27.0530  -30.3024   24.5680 C   0  0  0  0  0  0  0  0  0128  0  0
  -27.6014  -32.4281   25.7651 C   0  0  0  0  0  0  0  0  0129  0  0
  -27.5629  -37.2220   24.8621 C   0  0  0  0  0  0  0  0  0130  0  0
  -21.4133  -29.3375   22.3735 N   0  0  0  0  0  0  0  0  0131  0  0
  -26.4706  -37.3372   23.9061 N   0  0  0  0  0  0  0  0  0132  0  0
  -24.6674  -31.0544   22.1178 N   0  0  0  0  0  0  0  0  0133  0  0
  -23.4259  -28.8150   23.2971 O   0  0  0  0  0  0  0  0  0134  0  0
  -28.3948  -26.7345   20.0089 O   0  0  0  0  0  0  0  0  0135  0  0
  -26.5870  -34.9065   22.4671 O   0  0  0  0  0  0  0  0  0136  0  0
  -23.5365  -32.1254   23.7833 O   0  0  0  0  0  0  0  0  0137  0  0
  -30.6407  -18.8722   23.0302 C   0  0  0  0  0  0  0  0  0  0  0  0
  -32.3809  -17.3045   23.6226 C   0  0  0  0  0  0  0  0  0  0  0  0
  -30.0570  -17.9121   22.2038 C   0  0  0  0  0  0  0  0  0  0  0  0
  -31.8027  -18.5685   23.7396 C   0  0  0  0  0  0  0  0  0  0  0  0
  -30.6352  -16.6481   22.0868 C   0  0  0  0  0  0  0  0  0  0  0  0
  -31.7972  -16.3443   22.7962 C   0  0  0  0  0  0  0  0  0  0  0  0
  -32.7355  -21.6164   25.6966 C   0  0  0  0  0  0  0  0  0  0  0  0
  -32.3631  -23.0495   26.0230 C   0  0  0  0  0  0  0  0  0  0  0  0
  -29.0895  -18.5560   19.9821 C   0  0  0  0  0  0  0  0  0  0  0  0
  -28.8137  -18.2661   21.4541 C   0  0  0  0  0  0  0  0  0  0  0  0
  -31.8546  -20.8529   24.7418 C   0  0  0  0  0  0  0  0  0  0  0  0
  -31.1357  -23.6365   25.3733 C   0  0  0  0  0  0  0  0  0  1  0  0
  -30.0560  -15.6617   21.2506 N   0  0  0  0  0  0  0  0  0  0  0  0
  -32.3828  -19.5232   24.5610 N   0  0  0  0  0  0  0  0  0  0  0  0
  -33.7380  -21.1651   26.2359 O   0  0  0  0  0  0  0  0  0  0  0  0
  -33.0871  -23.6571   26.8012 O   0  0  0  0  0  0  0  0  0  0  0  0
  -32.3629  -15.1332   22.6912 F   0  0  0  0  0  0  0  0  0  0  0  0
  -31.4485  -12.4701   19.0860 H   0  0  0  0  0  0  0  0  0  0  0  0
  -30.3970  -11.2460   19.6950 H   0  0  0  0  0  0  0  0  0  0  0  0
  -29.6870  -11.8204   17.4226 H   0  0  0  0  0  0  0  0  0  0  0  0
  -29.6375  -13.5326   17.8649 H   0  0  0  0  0  0  0  0  0  0  0  0
  -27.7830  -11.3650   18.7904 H   0  0  0  0  0  0  0  0  0  0  0  0
  -27.4028  -12.7801   17.8021 H   0  0  0  0  0  0  0  0  0  0  0  0
  -27.7353  -14.2503   19.6136 H   0  0  0  0  0  0  0  0  0  0  0  0
  -28.5890  -11.9550   21.3832 H   0  0  0  0  0  0  0  0  0  0  0  0
  -28.5005  -13.6134   21.8562 H   0  0  0  0  0  0  0  0  0  0  0  0
  -25.2399   -9.5495   22.4318 H   0  0  0  0  0  0  0  0  0  0  0  0
  -23.9663   -7.5070   22.7297 H   0  0  0  0  0  0  0  0  0  0  0  0
  -21.1515   -8.8641   19.9162 H   0  0  0  0  0  0  0  0  0  0  0  0
  -22.4016  -10.9115   19.6476 H   0  0  0  0  0  0  0  0  0  0  0  0
  -21.2319   -7.5552   23.9750 H   0  0  0  0  0  0  0  0  0  0  0  0
  -21.1589   -6.0228   25.8556 H   0  0  0  0  0  0  0  0  0  0  0  0
  -22.0396   -2.8212   23.2809 H   0  0  0  0  0  0  0  0  0  0  0  0
  -22.4401  -11.9703   22.4008 H   0  0  0  0  0  0  0  0  0  0  0  0
  -21.1493  -13.0679   22.2082 H   0  0  0  0  0  0  0  0  0  0  0  0
  -24.6538  -15.7807   20.5848 H   0  0  0  0  0  0  0  0  0  0  0  0
  -26.2762  -15.5453   20.1156 H   0  0  0  0  0  0  0  0  0  0  0  0
  -26.6778  -32.4663   23.1464 H   0  0  0  0  0  0  0  0  0  0  0  0
  -25.0747  -34.0282   25.0566 H   0  0  0  0  0  0  0  0  0  0  0  0
  -22.7881  -31.3489   21.4131 H   0  0  0  0  0  0  0  0  0  0  0  0
  -23.3854  -35.9823   23.3648 H   0  0  0  0  0  0  0  0  0  0  0  0
  -24.3696  -36.8624   22.2204 H   0  0  0  0  0  0  0  0  0  0  0  0
  -23.7669  -37.6632   23.6516 H   0  0  0  0  0  0  0  0  0  0  0  0
  -25.9445  -31.6237   20.5691 H   0  0  0  0  0  0  0  0  0  0  0  0
  -26.7436  -31.0079   22.0108 H   0  0  0  0  0  0  0  0  0  0  0  0
  -28.0090  -29.1452   21.2057 H   0  0  0  0  0  0  0  0  0  0  0  0
  -26.1369  -26.0560   19.0719 H   0  0  0  0  0  0  0  0  0  0  0  0
  -24.0652  -27.2961   19.0997 H   0  0  0  0  0  0  0  0  0  0  0  0
  -23.6156  -30.5365   19.3930 H   0  0  0  0  0  0  0  0  0  0  0  0
  -22.7355  -29.1425   19.9945 H   0  0  0  0  0  0  0  0  0  0  0  0
  -25.1353  -36.2335   25.0565 H   0  0  0  0  0  0  0  0  0  0  0  0
  -21.0070  -28.3206   24.0793 H   0  0  0  0  0  0  0  0  0  0  0  0
  -20.5555  -26.2518   23.3550 H   0  0  0  0  0  0  0  0  0  0  0  0
  -21.5974  -26.8362   22.0454 H   0  0  0  0  0  0  0  0  0  0  0  0
  -19.6810  -25.6422   21.1488 H   0  0  0  0  0  0  0  0  0  0  0  0
  -19.6406  -27.3343   20.7034 H   0  0  0  0  0  0  0  0  0  0  0  0
  -17.4282  -26.6888   21.4113 H   0  0  0  0  0  0  0  0  0  0  0  0
  -18.0803  -26.0130   22.9049 H   0  0  0  0  0  0  0  0  0  0  0  0
  -19.7265  -30.6774   24.2204 H   0  0  0  0  0  0  0  0  0  0  0  0
  -17.5064  -31.5856   24.4483 H   0  0  0  0  0  0  0  0  0  0  0  0
  -15.5878  -30.2839   23.7407 H   0  0  0  0  0  0  0  0  0  0  0  0
  -15.9120  -28.0941   22.7766 H   0  0  0  0  0  0  0  0  0  0  0  0
  -24.5787  -30.7757   25.6817 H   0  0  0  0  0  0  0  0  0  0  0  0
  -25.0041  -32.2289   26.5536 H   0  0  0  0  0  0  0  0  0  0  0  0
  -25.8166  -30.7245   26.9138 H   0  0  0  0  0  0  0  0  0  0  0  0
  -26.2892  -29.7335   24.0803 H   0  0  0  0  0  0  0  0  0  0  0  0
  -27.4336  -29.7484   25.4006 H   0  0  0  0  0  0  0  0  0  0  0  0
  -27.8466  -30.4994   23.8779 H   0  0  0  0  0  0  0  0  0  0  0  0
  -27.2251  -33.3632   26.1242 H   0  0  0  0  0  0  0  0  0  0  0  0
  -28.3902  -32.6065   25.0645 H   0  0  0  0  0  0  0  0  0  0  0  0
  -27.9772  -31.8555   26.5872 H   0  0  0  0  0  0  0  0  0  0  0  0
  -28.2744  -38.0016   24.6863 H   0  0  0  0  0  0  0  0  0  0  0  0
  -28.0396  -36.2711   24.7461 H   0  0  0  0  0  0  0  0  0  0  0  0
  -27.1773  -37.3087   25.8564 H   0  0  0  0  0  0  0  0  0  0  0  0
  -20.9627  -29.9365   21.7352 H   0  0  0  0  0  0  0  0  0  0  0  0
  -26.0447  -38.2561   24.0273 H   0  0  0  0  0  0  0  0  0  0  0  0
  -30.2129  -19.8073   23.1168 H   0  0  0  0  0  0  0  0  0  0  0  0
  -33.2406  -17.0797   24.1475 H   0  0  0  0  0  0  0  0  0  0  0  0
  -28.1725  -18.8035   19.4894 H   0  0  0  0  0  0  0  0  0  0  0  0
  -29.5189  -17.6904   19.5225 H   0  0  0  0  0  0  0  0  0  0  0  0
  -29.7705  -19.3774   19.9019 H   0  0  0  0  0  0  0  0  0  0  0  0
  -28.3782  -19.1355   21.9005 H   0  0  0  0  0  0  0  0  0  0  0  0
  -28.1506  -17.4279   21.5045 H   0  0  0  0  0  0  0  0  0  0  0  0
  -31.8286  -21.3579   23.7988 H   0  0  0  0  0  0  0  0  0  0  0  0
  -30.8636  -20.7924   25.1408 H   0  0  0  0  0  0  0  0  0  0  0  0
  -30.8596  -24.3371   26.1335 H   0  0  0  0  0  0  0  0  0  0  0  0
  -30.9373  -22.6899   24.9156 H   0  0  0  0  0  0  0  0  0  0  0  0
  -29.1118  -15.7945   21.0053 H   0  0  0  0  0  0  0  0  0  0  0  0
  -33.2024  -19.2793   25.0488 H   0  0  0  0  0  0  0  0  0  0  0  0
  1 25  1  0
  1 30  2  0
  1 83  1  0
  2  3  1  0
  2 25  1  0
  2 88  1  0
  2 89  1  0
  3  4  1  0
  3 90  1  0
  3 91  1  0
  4  5  1  0
  4 92  1  0
  4 93  1  0
  5  6  1  0
  5 26  1  0
  5 94  1  6
  6 25  1  0
  6 95  1  0
  6 96  1  0
  7  8  2  0
  7 26  1  0
  7 29  1  0
  8  9  1  0
  8 22  1  0
  9 10  1  0
  9 27  2  0
 10 11  2  0
 10 15  1  0
 11 12  1  0
 11 97  1  0
 12 13  2  0
 12 98  1  0
 13 14  1  0
 13 31  1  0
 14 15  2  0
 14 99  1  0
 15100  1  0
 16 17  2  0
 16 21  1  0
 16 31  1  0
 17 18  1  0
 17101  1  0
 18 19  2  0
 18102  1  0
 19 20  1  0
 19 24  1  0
 20 21  2  0
 20103  1  0
 21 23  1  0
 22 28  1  0
 22 32  2  0
 26 27  1  0
 28104  1  0
 28105  1  0
 29106  1  0
 29107  1  0
 33 34  1  0
 33 66  1  0
 33 70  2  0
 34 36  1  0
 34 59  1  0
 34108  1  6
 35 44  2  0
 35 45  1  0
 35 68  1  0
 36 56  1  0
 36109  1  0
 37 39  1  0
 37 47  1  0
 37 66  1  0
 37110  1  6
 38 43  2  0
 38 46  1  0
 38 47  1  0
 39 64  1  0
 39 67  2  0
 40 52  1  0
 40 53  2  0
 40 58  1  0
 41111  1  0
 41112  1  0
 41113  1  0
 42 43  1  0
 42 66  1  0
 42114  1  0
 42115  1  0
 43 44  1  0
 44116  1  0
 45 46  2  0
 45117  1  0
 46118  1  0
 47119  1  0
 47120  1  0
 48 41  1  0
 48 56  1  0
 48 65  1  0
 48121  1  1
 49 50  1  0
 49 53  1  0
 49 64  1  0
 49122  1  1
 50 51  1  0
 50123  1  0
 50124  1  0
 51 52  1  0
 51125  1  0
 51126  1  0
 52127  1  0
 52128  1  0
 53 54  1  0
 54 55  2  0
 54129  1  0
 55 57  1  0
 55130  1  0
 56 69  2  0
 57 58  2  0
 57131  1  0
 58132  1  0
 59 60  1  0
 59 61  1  0
 59 62  1  0
 60133  1  0
 60134  1  0
 60135  1  0
 61136  1  0
 61137  1  0
 61138  1  0
 62139  1  0
 62140  1  0
 62141  1  0
 63 65  1  0
 63142  1  0
 63143  1  0
 63144  1  0
 64145  1  0
 65146  1  0
 68 82  1  0
 71 73  2  0
 71 74  1  0
 71147  1  0
 72 74  2  0
 72 76  1  0
 72148  1  0
 73 75  1  0
 73 80  1  0
 74 84  1  0
 75 76  2  0
 75 83  1  0
 76 87  1  0
 77 78  1  0
 77 81  1  0
 77 85  2  0
 78 82  1  0
 78 86  2  0
 79 80  1  0
 79149  1  0
 79150  1  0
 79151  1  0
 80152  1  0
 80153  1  0
 81 84  1  0
 81154  1  0
 81155  1  0
 82156  1  0
 82157  1  0
 83158  1  0
 84159  1  0
M  ISO  4   1 100  68 101  82 101  83 100
M  END
$$$$
16
     RDKit          3D

165173  0  0  0  0  0  0  0  0999 V2000
  -30.7652  -14.3608   20.6636 C   0  0  0  0  0  0  0  0  0100  0  0
  -30.4392  -12.2669   19.3775 C   0  0  0  0  0  0  0  0  0101  0  0
  -29.4791  -12.5281   18.1977 C   0  0  0  0  0  0  0  0  0102  0  0
  -27.9985  -12.3963   18.6038 C   0  0  0  0  0  0  0  0  0103  0  0
  -27.6639  -13.2170   19.8820 C   0  0  2  0  0  0  0  0  0104  0  0
  -28.6795  -12.9602   21.0279 C   0  0  0  0  0  0  0  0  0105  0  0
  -25.2633  -13.8245   20.5754 C   0  0  0  0  0  0  0  0  0106  0  0
  -24.1645  -13.0409   20.9408 C   0  0  0  0  0  0  0  0  0107  0  0
  -24.6400  -11.7009   20.8697 C   0  0  0  0  0  0  0  0  0108  0  0
  -23.9005  -10.4085   21.0420 C   0  0  0  0  0  0  0  0  0109  0  0
  -24.3588   -9.4123   21.9123 C   0  0  0  0  0  0  0  0  0110  0  0
  -23.6296   -8.2350   22.0803 C   0  0  0  0  0  0  0  0  0111  0  0
  -22.4385   -8.0419   21.3657 C   0  0  0  0  0  0  0  0  0112  0  0
  -22.0103   -9.0167   20.4678 C   0  0  0  0  0  0  0  0  0113  0  0
  -22.7317  -10.1925   20.3102 C   0  0  0  0  0  0  0  0  0114  0  0
  -21.6857   -6.0709   22.5391 C   0  0  0  0  0  0  0  0  0115  0  0
  -21.4064   -6.5490   23.8264 C   0  0  0  0  0  0  0  0  0116  0  0
  -21.3635   -5.6677   24.9085 C   0  0  0  0  0  0  0  0  0117  0  0
  -21.5973   -4.3067   24.7088 C   0  0  0  0  0  0  0  0  0118  0  0
  -21.8700   -3.8284   23.4282 C   0  0  0  0  0  0  0  0  0119  0  0
  -21.9144   -4.7056   22.3460 C   0  0  0  0  0  0  0  0  0120  0  0
  -22.8194  -13.5263   21.1763 C   0  0  0  0  0  0  0  0  0121  0  0
  -22.1559   -4.2206   21.1063 F   0  0  0  0  0  0  0  0  0122  0  0
  -21.5628   -3.4510   25.7555 F   0  0  0  0  0  0  0  0  0123  0  0
  -30.0261  -13.1803   20.4553 N   0  0  0  0  0  0  0  0  0124  0  0
  -26.2911  -12.9356   20.3443 N   0  0  0  0  0  0  0  0  0125  0  0
  -25.9236  -11.6675   20.5847 N   0  0  0  0  0  0  0  0  0126  0  0
  -22.0708  -12.7905   22.0005 N   0  0  0  0  0  0  0  0  0127  0  0
  -25.4117  -15.1773   20.4097 N   0  0  0  0  0  0  0  0  0128  0  0
  -31.7916  -14.6724   20.0536 O   0  0  0  0  0  0  0  0  0129  0  0
  -21.6670   -6.9022   21.4423 O   0  0  0  0  0  0  0  0  0130  0  0
  -22.3946  -14.5564   20.6568 O   0  0  0  0  0  0  0  0  0131  0  0
  -24.6048  -31.8614   23.2223 C   0  0  0  0  0  0  0  0  0100  0  0
  -25.8822  -32.4841   23.8616 C   0  0  1  0  0  0  0  0  0101  0  0
  -27.2536  -27.5042   20.1156 C   0  0  0  0  0  0  0  0  0102  0  0
  -25.5726  -33.8762   24.2210 N   0  0  0  0  0  0  0  0  0103  0  0
  -23.4066  -30.4859   21.5461 C   0  0  2  0  0  0  0  0  0104  0  0
  -24.8467  -28.9636   20.1247 C   0  0  0  0  0  0  0  0  0105  0  0
  -22.7412  -29.4652   22.5052 C   0  0  0  0  0  0  0  0  0106  0  0
  -18.0167  -28.1302   22.8626 C   0  0  0  0  0  0  0  0  0107  0  0
  -24.1342  -36.7390   23.2568 C   0  0  0  0  0  0  0  0  0108  0  0
  -25.9141  -30.8882   21.3456 C   0  0  0  0  0  0  0  0  0109  0  0
  -25.9930  -29.5029   20.7208 C   0  0  0  0  0  0  0  0  0110  0  0
  -27.1758  -28.7612   20.7331 C   0  0  0  0  0  0  0  0  0111  0  0
  -26.1032  -26.9836   19.5230 C   0  0  0  0  0  0  0  0  0112  0  0
  -24.9097  -27.7011   19.5331 C   0  0  0  0  0  0  0  0  0113  0  0
  -23.5715  -29.7899   20.1582 C   0  0  0  0  0  0  0  0  0114  0  0
  -25.3990  -36.3212   24.0232 C   0  0  1  0  0  0  0  0  0115  0  0
  -20.5793  -28.3813   23.1004 C   0  0  2  0  0  0  0  0  0116  0  0
  -20.6548  -26.9392   22.5411 C   0  0  0  0  0  0  0  0  0117  0  0
  -19.5615  -26.6407   21.5143 C   0  0  0  0  0  0  0  0  0118  0  0
  -18.1797  -26.7818   22.1673 C   0  0  0  0  0  0  0  0  0119  0  0
  -19.1385  -28.8769   23.2988 C   0  0  0  0  0  0  0  0  0120  0  0
  -18.9183  -30.1286   23.8878 C   0  0  0  0  0  0  0  0  0121  0  0
  -17.6396  -30.6493   24.0352 C   0  0  0  0  0  0  0  0  0122  0  0
  -25.9153  -34.9582   23.4993 C   0  0  0  0  0  0  0  0  0123  0  0
  -16.5415  -29.9068   23.6254 C   0  0  0  0  0  0  0  0  0124  0  0
  -16.7331  -28.6521   23.0586 C   0  0  0  0  0  0  0  0  0125  0  0
  -26.4583  -31.6439   25.0683 C   0  0  0  0  0  0  0  0  0126  0  0
  -25.3807  -31.3179   26.1374 C   0  0  0  0  0  0  0  0  0127  0  0
  -27.0530  -30.3024   24.5680 C   0  0  0  0  0  0  0  0  0128  0  0
  -27.6014  -32.4281   25.7651 C   0  0  0  0  0  0  0  0  0129  0  0
  -27.5629  -37.2220   24.8621 C   0  0  0  0  0  0  0  0  0130  0  0
  -21.4133  -29.3375   22.3735 N   0  0  0  0  0  0  0  0  0131  0  0
  -26.4706  -37.3372   23.9061 N   0  0  0  0  0  0  0  0  0132  0  0
  -24.6674  -31.0544   22.1178 N   0  0  0  0  0  0  0  0  0133  0  0
  -23.4259  -28.8150   23.2971 O   0  0  0  0  0  0  0  0  0134  0  0
  -28.3948  -26.7345   20.0089 O   0  0  0  0  0  0  0  0  0135  0  0
  -26.5870  -34.9065   22.4671 O   0  0  0  0  0  0  0  0  0136  0  0
  -23.5365  -32.1254   23.7833 O   0  0  0  0  0  0  0  0  0137  0  0
  -31.8535  -18.3429   24.1709 C   0  0  0  0  0  0  0  0  0  0  0  0
  -32.0556  -16.5504   22.5637 C   0  0  0  0  0  0  0  0  0  0  0  0
  -30.4699  -18.3452   23.9944 C   0  0  0  0  0  0  0  0  0  0  0  0
  -32.6464  -17.4455   23.4555 C   0  0  0  0  0  0  0  0  0  0  0  0
  -30.6720  -16.5526   22.3873 C   0  0  0  0  0  0  0  0  0  0  0  0
  -29.8791  -17.4500   23.1026 C   0  0  0  0  0  0  0  0  0  0  0  0
  -29.6467  -19.2823   24.7426 C   0  0  0  0  0  0  0  0  0  0  0  0
  -36.2382  -18.2119   24.2325 C   0  0  0  0  0  0  0  0  0  0  0  0
  -30.1353  -19.7062   26.0971 C   0  0  0  0  0  0  0  0  0  0  0  0
  -39.5023  -20.0891   25.1204 C   0  0  0  0  0  0  0  0  0  0  0  0
  -37.1433  -19.3054   24.7867 C   0  0  0  0  0  0  0  0  0  0  0  0
  -34.7626  -18.5520   24.1789 C   0  0  0  0  0  0  0  0  0  0  0  0
  -38.5727  -19.9120   22.7707 C   0  0  0  0  0  0  0  0  0  1  0  0
  -38.5565  -19.3304   24.1884 C   0  0  1  0  0  0  0  0  0  0  0  0
  -30.0747  -15.6422   21.4805 N   0  0  0  0  0  0  0  0  0  0  0  0
  -34.0228  -17.4439   23.6309 N   0  0  0  0  0  0  0  0  0  0  0  0
  -28.5760  -19.7509   24.3506 O   0  0  0  0  0  0  0  0  0  0  0  0
  -36.6718  -17.1098   23.8991 O   0  0  0  0  0  0  0  0  0  0  0  0
  -28.5480  -17.4524   22.9330 F   0  0  0  0  0  0  0  0  0  0  0  0
  -39.0146  -18.0444   24.1228 F   0  0  0  0  0  0  0  0  0  0  0  0
  -31.4485  -12.4701   19.0860 H   0  0  0  0  0  0  0  0  0  0  0  0
  -30.3970  -11.2460   19.6950 H   0  0  0  0  0  0  0  0  0  0  0  0
  -29.6870  -11.8204   17.4226 H   0  0  0  0  0  0  0  0  0  0  0  0
  -29.6375  -13.5326   17.8649 H   0  0  0  0  0  0  0  0  0  0  0  0
  -27.7830  -11.3650   18.7904 H   0  0  0  0  0  0  0  0  0  0  0  0
  -27.4028  -12.7801   17.8021 H   0  0  0  0  0  0  0  0  0  0  0  0
  -27.7353  -14.2503   19.6136 H   0  0  0  0  0  0  0  0  0  0  0  0
  -28.5890  -11.9550   21.3832 H   0  0  0  0  0  0  0  0  0  0  0  0
  -28.5005  -13.6134   21.8562 H   0  0  0  0  0  0  0  0  0  0  0  0
  -25.2399   -9.5495   22.4318 H   0  0  0  0  0  0  0  0  0  0  0  0
  -23.9663   -7.5070   22.7297 H   0  0  0  0  0  0  0  0  0  0  0  0
  -21.1515   -8.8641   19.9162 H   0  0  0  0  0  0  0  0  0  0  0  0
  -22.4016  -10.9115   19.6476 H   0  0  0  0  0  0  0  0  0  0  0  0
  -21.2319   -7.5552   23.9750 H   0  0  0  0  0  0  0  0  0  0  0  0
  -21.1589   -6.0228   25.8556 H   0  0  0  0  0  0  0  0  0  0  0  0
  -22.0396   -2.8212   23.2809 H   0  0  0  0  0  0  0  0  0  0  0  0
  -22.4401  -11.9703   22.4008 H   0  0  0  0  0  0  0  0  0  0  0  0
  -21.1493  -13.0679   22.2082 H   0  0  0  0  0  0  0  0  0  0  0  0
  -24.6538  -15.7807   20.5848 H   0  0  0  0  0  0  0  0  0  0  0  0
  -26.2762  -15.5453   20.1156 H   0  0  0  0  0  0  0  0  0  0  0  0
  -26.6778  -32.4663   23.1464 H   0  0  0  0  0  0  0  0  0  0  0  0
  -25.0747  -34.0282   25.0566 H   0  0  0  0  0  0  0  0  0  0  0  0
  -22.7881  -31.3489   21.4131 H   0  0  0  0  0  0  0  0  0  0  0  0
  -23.3854  -35.9823   23.3648 H   0  0  0  0  0  0  0  0  0  0  0  0
  -24.3696  -36.8624   22.2204 H   0  0  0  0  0  0  0  0  0  0  0  0
  -23.7669  -37.6632   23.6516 H   0  0  0  0  0  0  0  0  0  0  0  0
  -25.9445  -31.6237   20.5691 H   0  0  0  0  0  0  0  0  0  0  0  0
  -26.7436  -31.0079   22.0108 H   0  0  0  0  0  0  0  0  0  0  0  0
  -28.0090  -29.1452   21.2057 H   0  0  0  0  0  0  0  0  0  0  0  0
  -26.1369  -26.0560   19.0719 H   0  0  0  0  0  0  0  0  0  0  0  0
  -24.0652  -27.2961   19.0997 H   0  0  0  0  0  0  0  0  0  0  0  0
  -23.6156  -30.5365   19.3930 H   0  0  0  0  0  0  0  0  0  0  0  0
  -22.7355  -29.1425   19.9945 H   0  0  0  0  0  0  0  0  0  0  0  0
  -25.1353  -36.2335   25.0565 H   0  0  0  0  0  0  0  0  0  0  0  0
  -21.0070  -28.3206   24.0793 H   0  0  0  0  0  0  0  0  0  0  0  0
  -20.5555  -26.2518   23.3550 H   0  0  0  0  0  0  0  0  0  0  0  0
  -21.5974  -26.8362   22.0454 H   0  0  0  0  0  0  0  0  0  0  0  0
  -19.6810  -25.6422   21.1488 H   0  0  0  0  0  0  0  0  0  0  0  0
  -19.6406  -27.3343   20.7034 H   0  0  0  0  0  0  0  0  0  0  0  0
  -17.4282  -26.6888   21.4113 H   0  0  0  0  0  0  0  0  0  0  0  0
  -18.0803  -26.0130   22.9049 H   0  0  0  0  0  0  0  0  0  0  0  0
  -19.7265  -30.6774   24.2204 H   0  0  0  0  0  0  0  0  0  0  0  0
  -17.5064  -31.5856   24.4483 H   0  0  0  0  0  0  0  0  0  0  0  0
  -15.5878  -30.2839   23.7407 H   0  0  0  0  0  0  0  0  0  0  0  0
  -15.9120  -28.0941   22.7766 H   0  0  0  0  0  0  0  0  0  0  0  0
  -24.5787  -30.7757   25.6817 H   0  0  0  0  0  0  0  0  0  0  0  0
  -25.0041  -32.2289   26.5536 H   0  0  0  0  0  0  0  0  0  0  0  0
  -25.8166  -30.7245   26.9138 H   0  0  0  0  0  0  0  0  0  0  0  0
  -26.2892  -29.7335   24.0803 H   0  0  0  0  0  0  0  0  0  0  0  0
  -27.4336  -29.7484   25.4006 H   0  0  0  0  0  0  0  0  0  0  0  0
  -27.8466  -30.4994   23.8779 H   0  0  0  0  0  0  0  0  0  0  0  0
  -27.2251  -33.3632   26.1242 H   0  0  0  0  0  0  0  0  0  0  0  0
  -28.3902  -32.6065   25.0645 H   0  0  0  0  0  0  0  0  0  0  0  0
  -27.9772  -31.8555   26.5872 H   0  0  0  0  0  0  0  0  0  0  0  0
  -28.2744  -38.0016   24.6863 H   0  0  0  0  0  0  0  0  0  0  0  0
  -28.0396  -36.2711   24.7461 H   0  0  0  0  0  0  0  0  0  0  0  0
  -27.1773  -37.3087   25.8564 H   0  0  0  0  0  0  0  0  0  0  0  0
  -20.9627  -29.9365   21.7352 H   0  0  0  0  0  0  0  0  0  0  0  0
  -26.0447  -38.2561   24.0273 H   0  0  0  0  0  0  0  0  0  0  0  0
  -32.2906  -19.0051   24.8308 H   0  0  0  0  0  0  0  0  0  0  0  0
  -32.6422  -15.8865   22.0344 H   0  0  0  0  0  0  0  0  0  0  0  0
  -31.0683  -19.2259   26.3061 H   0  0  0  0  0  0  0  0  0  0  0  0
  -29.4165  -19.4272   26.8390 H   0  0  0  0  0  0  0  0  0  0  0  0
  -30.2694  -20.7677   26.1118 H   0  0  0  0  0  0  0  0  0  0  0  0
  -39.1815  -21.1065   25.2029 H   0  0  0  0  0  0  0  0  0  0  0  0
  -40.4951  -20.0593   24.7224 H   0  0  0  0  0  0  0  0  0  0  0  0
  -39.4920  -19.6323   26.0879 H   0  0  0  0  0  0  0  0  0  0  0  0
  -37.2309  -19.1622   25.8434 H   0  0  0  0  0  0  0  0  0  0  0  0
  -36.6872  -20.2374   24.5254 H   0  0  0  0  0  0  0  0  0  0  0  0
  -34.6195  -19.4140   23.5613 H   0  0  0  0  0  0  0  0  0  0  0  0
  -34.4118  -18.7539   25.1694 H   0  0  0  0  0  0  0  0  0  0  0  0
  -38.6364  -19.1025   22.0739 H   0  0  0  0  0  0  0  0  0  0  0  0
  -39.4156  -20.5684   22.7109 H   0  0  0  0  0  0  0  0  0  0  0  0
  -29.1162  -15.7859   21.3077 H   0  0  0  0  0  0  0  0  0  0  0  0
  -34.5230  -16.6386   23.3654 H   0  0  0  0  0  0  0  0  0  0  0  0
  1 25  1  0
  1 30  2  0
  1 85  1  0
  2  3  1  0
  2 25  1  0
  2 91  1  0
  2 92  1  0
  3  4  1  0
  3 93  1  0
  3 94  1  0
  4  5  1  0
  4 95  1  0
  4 96  1  0
  5  6  1  0
  5 26  1  0
  5 97  1  6
  6 25  1  0
  6 98  1  0
  6 99  1  0
  7  8  2  0
  7 26  1  0
  7 29  1  0
  8  9  1  0
  8 22  1  0
  9 10  1  0
  9 27  2  0
 10 11  2  0
 10 15  1  0
 11 12  1  0
 11100  1  0
 12 13  2  0
 12101  1  0
 13 14  1  0
 13 31  1  0
 14 15  2  0
 14102  1  0
 15103  1  0
 16 17  2  0
 16 21  1  0
 16 31  1  0
 17 18  1  0
 17104  1  0
 18 19  2  0
 18105  1  0
 19 20  1  0
 19 24  1  0
 20 21  2  0
 20106  1  0
 21 23  1  0
 22 28  1  0
 22 32  2  0
 26 27  1  0
 28107  1  0
 28108  1  0
 29109  1  0
 29110  1  0
 33 34  1  0
 33 66  1  0
 33 70  2  0
 34 36  1  0
 34 59  1  0
 34111  1  6
 35 44  2  0
 35 45  1  0
 35 68  1  0
 36 56  1  0
 36112  1  0
 37 39  1  0
 37 47  1  0
 37 66  1  0
 37113  1  6
 38 43  2  0
 38 46  1  0
 38 47  1  0
 39 64  1  0
 39 67  2  0
 40 52  1  0
 40 53  2  0
 40 58  1  0
 41114  1  0
 41115  1  0
 41116  1  0
 42 43  1  0
 42 66  1  0
 42117  1  0
 42118  1  0
 43 44  1  0
 44119  1  0
 45 46  2  0
 45120  1  0
 46121  1  0
 47122  1  0
 47123  1  0
 48 41  1  0
 48 56  1  0
 48 65  1  0
 48124  1  1
 49 50  1  0
 49 53  1  0
 49 64  1  0
 49125  1  1
 50 51  1  0
 50126  1  0
 50127  1  0
 51 52  1  0
 51128  1  0
 51129  1  0
 52130  1  0
 52131  1  0
 53 54  1  0
 54 55  2  0
 54132  1  0
 55 57  1  0
 55133  1  0
 56 69  2  0
 57 58  2  0
 57134  1  0
 58135  1  0
 59 60  1  0
 59 61  1  0
 59 62  1  0
 60136  1  0
 60137  1  0
 60138  1  0
 61139  1  0
 61140  1  0
 61141  1  0
 62142  1  0
 62143  1  0
 62144  1  0
 63 65  1  0
 63145  1  0
 63146  1  0
 63147  1  0
 64148  1  0
 65149  1  0
 68 83  1  0
 71 73  2  0
 71 74  1  0
 71150  1  0
 72 74  2  0
 72 75  1  0
 72151  1  0
 73 76  1  0
 73 77  1  0
 74 86  1  0
 75 76  2  0
 75 85  1  0
 76 89  1  0
 77 79  1  0
 77 87  2  0
 78 81  1  0
 78 82  1  0
 78 88  2  0
 79152  1  0
 79153  1  0
 79154  1  0
 80155  1  0
 80156  1  0
 80157  1  0
 81 84  1  0
 81158  1  0
 81159  1  0
 82 86  1  0
 82160  1  0
 82161  1  0
 83 84  1  0
 83162  1  0
 83163  1  0
 84 80  1  0
 84 90  1  6
 85164  1  0
 86165  1  0
M  ISO  4   1 100  68 101  83 101  85 100
M  END
$$$$
17
     RDKit          3D

160168  0  0  0  0  0  0  0  0999 V2000
  -30.7652  -14.3608   20.6636 C   0  0  0  0  0  0  0  0  0100  0  0
  -30.4392  -12.2669   19.3775 C   0  0  0  0  0  0  0  0  0101  0  0
  -29.4791  -12.5281   18.1977 C   0  0  0  0  0  0  0  0  0102  0  0
  -27.9985  -12.3963   18.6038 C   0  0  0  0  0  0  0  0  0103  0  0
  -27.6639  -13.2170   19.8820 C   0  0  2  0  0  0  0  0  0104  0  0
  -28.6795  -12.9602   21.0279 C   0  0  0  0  0  0  0  0  0105  0  0
  -25.2633  -13.8245   20.5754 C   0  0  0  0  0  0  0  0  0106  0  0
  -24.1645  -13.0409   20.9408 C   0  0  0  0  0  0  0  0  0107  0  0
  -24.6400  -11.7009   20.8697 C   0  0  0  0  0  0  0  0  0108  0  0
  -23.9005  -10.4085   21.0420 C   0  0  0  0  0  0  0  0  0109  0  0
  -24.3588   -9.4123   21.9123 C   0  0  0  0  0  0  0  0  0110  0  0
  -23.6296   -8.2350   22.0803 C   0  0  0  0  0  0  0  0  0111  0  0
  -22.4385   -8.0419   21.3657 C   0  0  0  0  0  0  0  0  0112  0  0
  -22.0103   -9.0167   20.4678 C   0  0  0  0  0  0  0  0  0113  0  0
  -22.7317  -10.1925   20.3102 C   0  0  0  0  0  0  0  0  0114  0  0
  -21.6857   -6.0709   22.5391 C   0  0  0  0  0  0  0  0  0115  0  0
  -21.4064   -6.5490   23.8264 C   0  0  0  0  0  0  0  0  0116  0  0
  -21.3635   -5.6677   24.9085 C   0  0  0  0  0  0  0  0  0117  0  0
  -21.5973   -4.3067   24.7088 C   0  0  0  0  0  0  0  0  0118  0  0
  -21.8700   -3.8284   23.4282 C   0  0  0  0  0  0  0  0  0119  0  0
  -21.9144   -4.7056   22.3460 C   0  0  0  0  0  0  0  0  0120  0  0
  -22.8194  -13.5263   21.1763 C   0  0  0  0  0  0  0  0  0121  0  0
  -22.1559   -4.2206   21.1063 F   0  0  0  0  0  0  0  0  0122  0  0
  -21.5628   -3.4510   25.7555 F   0  0  0  0  0  0  0  0  0123  0  0
  -30.0261  -13.1803   20.4553 N   0  0  0  0  0  0  0  0  0124  0  0
  -26.2911  -12.9356   20.3443 N   0  0  0  0  0  0  0  0  0125  0  0
  -25.9236  -11.6675   20.5847 N   0  0  0  0  0  0  0  0  0126  0  0
  -22.0708  -12.7905   22.0005 N   0  0  0  0  0  0  0  0  0127  0  0
  -25.4117  -15.1773   20.4097 N   0  0  0  0  0  0  0  0  0128  0  0
  -31.7916  -14.6724   20.0536 O   0  0  0  0  0  0  0  0  0129  0  0
  -21.6670   -6.9022   21.4423 O   0  0  0  0  0  0  0  0  0130  0  0
  -22.3946  -14.5564   20.6568 O   0  0  0  0  0  0  0  0  0131  0  0
  -24.6048  -31.8614   23.2223 C   0  0  0  0  0  0  0  0  0100  0  0
  -25.8822  -32.4841   23.8616 C   0  0  1  0  0  0  0  0  0101  0  0
  -27.2536  -27.5042   20.1156 C   0  0  0  0  0  0  0  0  0102  0  0
  -25.5726  -33.8762   24.2210 N   0  0  0  0  0  0  0  0  0103  0  0
  -23.4066  -30.4859   21.5461 C   0  0  2  0  0  0  0  0  0104  0  0
  -24.8467  -28.9636   20.1247 C   0  0  0  0  0  0  0  0  0105  0  0
  -22.7412  -29.4652   22.5052 C   0  0  0  0  0  0  0  0  0106  0  0
  -18.0167  -28.1302   22.8626 C   0  0  0  0  0  0  0  0  0107  0  0
  -24.1342  -36.7390   23.2568 C   0  0  0  0  0  0  0  0  0108  0  0
  -25.9141  -30.8882   21.3456 C   0  0  0  0  0  0  0  0  0109  0  0
  -25.9930  -29.5029   20.7208 C   0  0  0  0  0  0  0  0  0110  0  0
  -27.1758  -28.7612   20.7331 C   0  0  0  0  0  0  0  0  0111  0  0
  -26.1032  -26.9836   19.5230 C   0  0  0  0  0  0  0  0  0112  0  0
  -24.9097  -27.7011   19.5331 C   0  0  0  0  0  0  0  0  0113  0  0
  -23.5715  -29.7899   20.1582 C   0  0  0  0  0  0  0  0  0114  0  0
  -25.3990  -36.3212   24.0232 C   0  0  1  0  0  0  0  0  0115  0  0
  -20.5793  -28.3813   23.1004 C   0  0  2  0  0  0  0  0  0116  0  0
  -20.6548  -26.9392   22.5411 C   0  0  0  0  0  0  0  0  0117  0  0
  -19.5615  -26.6407   21.5143 C   0  0  0  0  0  0  0  0  0118  0  0
  -18.1797  -26.7818   22.1673 C   0  0  0  0  0  0  0  0  0119  0  0
  -19.1385  -28.8769   23.2988 C   0  0  0  0  0  0  0  0  0120  0  0
  -18.9183  -30.1286   23.8878 C   0  0  0  0  0  0  0  0  0121  0  0
  -17.6396  -30.6493   24.0352 C   0  0  0  0  0  0  0  0  0122  0  0
  -25.9153  -34.9582   23.4993 C   0  0  0  0  0  0  0  0  0123  0  0
  -16.5415  -29.9068   23.6254 C   0  0  0  0  0  0  0  0  0124  0  0
  -16.7331  -28.6521   23.0586 C   0  0  0  0  0  0  0  0  0125  0  0
  -26.4583  -31.6439   25.0683 C   0  0  0  0  0  0  0  0  0126  0  0
  -25.3807  -31.3179   26.1374 C   0  0  0  0  0  0  0  0  0127  0  0
  -27.0530  -30.3024   24.5680 C   0  0  0  0  0  0  0  0  0128  0  0
  -27.6014  -32.4281   25.7651 C   0  0  0  0  0  0  0  0  0129  0  0
  -27.5629  -37.2220   24.8621 C   0  0  0  0  0  0  0  0  0130  0  0
  -21.4133  -29.3375   22.3735 N   0  0  0  0  0  0  0  0  0131  0  0
  -26.4706  -37.3372   23.9061 N   0  0  0  0  0  0  0  0  0132  0  0
  -24.6674  -31.0544   22.1178 N   0  0  0  0  0  0  0  0  0133  0  0
  -23.4259  -28.8150   23.2971 O   0  0  0  0  0  0  0  0  0134  0  0
  -28.3948  -26.7345   20.0089 O   0  0  0  0  0  0  0  0  0135  0  0
  -26.5870  -34.9065   22.4671 O   0  0  0  0  0  0  0  0  0136  0  0
  -23.5365  -32.1254   23.7833 O   0  0  0  0  0  0  0  0  0137  0  0
  -31.5776  -19.7113   21.6590 C   0  0  0  0  0  0  0  0  0  0  0  0
  -31.8602  -17.3908   21.0485 C   0  0  0  0  0  0  0  0  0  0  0  0
  -29.6539  -18.3751   21.0666 C   0  0  0  0  0  0  0  0  0  0  0  0
  -30.2009  -19.5940   21.4675 C   0  0  0  0  0  0  0  0  0  0  0  0
  -30.4836  -17.2735   20.8571 C   0  0  0  0  0  0  0  0  0  0  0  0
  -32.4073  -18.6097   21.4494 C   0  0  0  0  0  0  0  0  0  0  0  0
  -27.8976  -23.2028   21.1231 C   0  0  0  0  0  0  0  0  0  0  0  0
  -28.2115  -18.2521   20.8663 C   0  0  0  0  0  0  0  0  0  0  0  0
  -28.6417  -22.9559   22.2161 C   0  0  0  0  0  0  0  0  0  0  0  0
  -29.7850  -21.9941   22.0825 C   0  0  0  0  0  0  0  0  0  0  0  0
  -27.3872  -17.8408   22.0474 C   0  0  0  0  0  0  0  0  0  0  0  0
  -28.4840  -23.5733   23.5708 C   0  0  0  0  0  0  0  0  0  0  0  0
  -26.7416  -24.1468   21.0194 C   0  0  0  0  0  0  0  0  0  1  0  0
  -29.3808  -20.7274   21.6859 N   0  0  0  0  0  0  0  0  0  0  0  0
  -29.9543  -16.0244   20.4479 N   0  0  0  0  0  0  0  0  0  0  0  0
  -27.6333  -18.4569   19.8016 O   0  0  0  0  0  0  0  0  0  0  0  0
  -30.9165  -22.3709   22.3701 O   0  0  0  0  0  0  0  0  0  0  0  0
  -33.7293  -18.7220   21.6333 F   0  0  0  0  0  0  0  0  0  0  0  0
  -31.4485  -12.4701   19.0860 H   0  0  0  0  0  0  0  0  0  0  0  0
  -30.3970  -11.2460   19.6950 H   0  0  0  0  0  0  0  0  0  0  0  0
  -29.6870  -11.8204   17.4226 H   0  0  0  0  0  0  0  0  0  0  0  0
  -29.6375  -13.5326   17.8649 H   0  0  0  0  0  0  0  0  0  0  0  0
  -27.7830  -11.3650   18.7904 H   0  0  0  0  0  0  0  0  0  0  0  0
  -27.4028  -12.7801   17.8021 H   0  0  0  0  0  0  0  0  0  0  0  0
  -27.7353  -14.2503   19.6136 H   0  0  0  0  0  0  0  0  0  0  0  0
  -28.5890  -11.9550   21.3832 H   0  0  0  0  0  0  0  0  0  0  0  0
  -28.5005  -13.6134   21.8562 H   0  0  0  0  0  0  0  0  0  0  0  0
  -25.2399   -9.5495   22.4318 H   0  0  0  0  0  0  0  0  0  0  0  0
  -23.9663   -7.5070   22.7297 H   0  0  0  0  0  0  0  0  0  0  0  0
  -21.1515   -8.8641   19.9162 H   0  0  0  0  0  0  0  0  0  0  0  0
  -22.4016  -10.9115   19.6476 H   0  0  0  0  0  0  0  0  0  0  0  0
  -21.2319   -7.5552   23.9750 H   0  0  0  0  0  0  0  0  0  0  0  0
  -21.1589   -6.0228   25.8556 H   0  0  0  0  0  0  0  0  0  0  0  0
  -22.0396   -2.8212   23.2809 H   0  0  0  0  0  0  0  0  0  0  0  0
  -22.4401  -11.9703   22.4008 H   0  0  0  0  0  0  0  0  0  0  0  0
  -21.1493  -13.0679   22.2082 H   0  0  0  0  0  0  0  0  0  0  0  0
  -24.6538  -15.7807   20.5848 H   0  0  0  0  0  0  0  0  0  0  0  0
  -26.2762  -15.5453   20.1156 H   0  0  0  0  0  0  0  0  0  0  0  0
  -26.6778  -32.4663   23.1464 H   0  0  0  0  0  0  0  0  0  0  0  0
  -25.0747  -34.0282   25.0566 H   0  0  0  0  0  0  0  0  0  0  0  0
  -22.7881  -31.3489   21.4131 H   0  0  0  0  0  0  0  0  0  0  0  0
  -23.3854  -35.9823   23.3648 H   0  0  0  0  0  0  0  0  0  0  0  0
  -24.3696  -36.8624   22.2204 H   0  0  0  0  0  0  0  0  0  0  0  0
  -23.7669  -37.6632   23.6516 H   0  0  0  0  0  0  0  0  0  0  0  0
  -25.9445  -31.6237   20.5691 H   0  0  0  0  0  0  0  0  0  0  0  0
  -26.7436  -31.0079   22.0108 H   0  0  0  0  0  0  0  0  0  0  0  0
  -28.0090  -29.1452   21.2057 H   0  0  0  0  0  0  0  0  0  0  0  0
  -26.1369  -26.0560   19.0719 H   0  0  0  0  0  0  0  0  0  0  0  0
  -24.0652  -27.2961   19.0997 H   0  0  0  0  0  0  0  0  0  0  0  0
  -23.6156  -30.5365   19.3930 H   0  0  0  0  0  0  0  0  0  0  0  0
  -22.7355  -29.1425   19.9945 H   0  0  0  0  0  0  0  0  0  0  0  0
  -25.1353  -36.2335   25.0565 H   0  0  0  0  0  0  0  0  0  0  0  0
  -21.0070  -28.3206   24.0793 H   0  0  0  0  0  0  0  0  0  0  0  0
  -20.5555  -26.2518   23.3550 H   0  0  0  0  0  0  0  0  0  0  0  0
  -21.5974  -26.8362   22.0454 H   0  0  0  0  0  0  0  0  0  0  0  0
  -19.6810  -25.6422   21.1488 H   0  0  0  0  0  0  0  0  0  0  0  0
  -19.6406  -27.3343   20.7034 H   0  0  0  0  0  0  0  0  0  0  0  0
  -17.4282  -26.6888   21.4113 H   0  0  0  0  0  0  0  0  0  0  0  0
  -18.0803  -26.0130   22.9049 H   0  0  0  0  0  0  0  0  0  0  0  0
  -19.7265  -30.6774   24.2204 H   0  0  0  0  0  0  0  0  0  0  0  0
  -17.5064  -31.5856   24.4483 H   0  0  0  0  0  0  0  0  0  0  0  0
  -15.5878  -30.2839   23.7407 H   0  0  0  0  0  0  0  0  0  0  0  0
  -15.9120  -28.0941   22.7766 H   0  0  0  0  0  0  0  0  0  0  0  0
  -24.5787  -30.7757   25.6817 H   0  0  0  0  0  0  0  0  0  0  0  0
  -25.0041  -32.2289   26.5536 H   0  0  0  0  0  0  0  0  0  0  0  0
  -25.8166  -30.7245   26.9138 H   0  0  0  0  0  0  0  0  0  0  0  0
  -26.2892  -29.7335   24.0803 H   0  0  0  0  0  0  0  0  0  0  0  0
  -27.4336  -29.7484   25.4006 H   0  0  0  0  0  0  0  0  0  0  0  0
  -27.8466  -30.4994   23.8779 H   0  0  0  0  0  0  0  0  0  0  0  0
  -27.2251  -33.3632   26.1242 H   0  0  0  0  0  0  0  0  0  0  0  0
  -28.3902  -32.6065   25.0645 H   0  0  0  0  0  0  0  0  0  0  0  0
  -27.9772  -31.8555   26.5872 H   0  0  0  0  0  0  0  0  0  0  0  0
  -28.2744  -38.0016   24.6863 H   0  0  0  0  0  0  0  0  0  0  0  0
  -28.0396  -36.2711   24.7461 H   0  0  0  0  0  0  0  0  0  0  0  0
  -27.1773  -37.3087   25.8564 H   0  0  0  0  0  0  0  0  0  0  0  0
  -20.9627  -29.9365   21.7352 H   0  0  0  0  0  0  0  0  0  0  0  0
  -26.0447  -38.2561   24.0273 H   0  0  0  0  0  0  0  0  0  0  0  0
  -31.9823  -20.6131   21.9557 H   0  0  0  0  0  0  0  0  0  0  0  0
  -32.4740  -16.5758   20.8935 H   0  0  0  0  0  0  0  0  0  0  0  0
  -28.1507  -22.6868   20.2660 H   0  0  0  0  0  0  0  0  0  0  0  0
  -28.0244  -17.6999   22.8954 H   0  0  0  0  0  0  0  0  0  0  0  0
  -26.8796  -16.9251   21.8266 H   0  0  0  0  0  0  0  0  0  0  0  0
  -26.6688  -18.6036   22.2640 H   0  0  0  0  0  0  0  0  0  0  0  0
  -27.6468  -24.2396   23.5638 H   0  0  0  0  0  0  0  0  0  0  0  0
  -29.3709  -24.1175   23.8202 H   0  0  0  0  0  0  0  0  0  0  0  0
  -28.3216  -22.8041   24.2966 H   0  0  0  0  0  0  0  0  0  0  0  0
  -26.2646  -24.3115   21.9629 H   0  0  0  0  0  0  0  0  0  0  0  0
  -25.9279  -23.8329   20.3996 H   0  0  0  0  0  0  0  0  0  0  0  0
  -28.4152  -20.6027   21.5399 H   0  0  0  0  0  0  0  0  0  0  0  0
  -29.0739  -16.0367   20.0075 H   0  0  0  0  0  0  0  0  0  0  0  0
  1 25  1  0
  1 30  2  0
  1 85  1  0
  2  3  1  0
  2 25  1  0
  2 89  1  0
  2 90  1  0
  3  4  1  0
  3 91  1  0
  3 92  1  0
  4  5  1  0
  4 93  1  0
  4 94  1  0
  5  6  1  0
  5 26  1  0
  5 95  1  6
  6 25  1  0
  6 96  1  0
  6 97  1  0
  7  8  2  0
  7 26  1  0
  7 29  1  0
  8  9  1  0
  8 22  1  0
  9 10  1  0
  9 27  2  0
 10 11  2  0
 10 15  1  0
 11 12  1  0
 11 98  1  0
 12 13  2  0
 12 99  1  0
 13 14  1  0
 13 31  1  0
 14 15  2  0
 14100  1  0
 15101  1  0
 16 17  2  0
 16 21  1  0
 16 31  1  0
 17 18  1  0
 17102  1  0
 18 19  2  0
 18103  1  0
 19 20  1  0
 19 24  1  0
 20 21  2  0
 20104  1  0
 21 23  1  0
 22 28  1  0
 22 32  2  0
 26 27  1  0
 28105  1  0
 28106  1  0
 29107  1  0
 29108  1  0
 33 34  1  0
 33 66  1  0
 33 70  2  0
 34 36  1  0
 34 59  1  0
 34109  1  6
 35 44  2  0
 35 45  1  0
 35 68  1  0
 36 56  1  0
 36110  1  0
 37 39  1  0
 37 47  1  0
 37 66  1  0
 37111  1  6
 38 43  2  0
 38 46  1  0
 38 47  1  0
 39 64  1  0
 39 67  2  0
 40 52  1  0
 40 53  2  0
 40 58  1  0
 41112  1  0
 41113  1  0
 41114  1  0
 42 43  1  0
 42 66  1  0
 42115  1  0
 42116  1  0
 43 44  1  0
 44117  1  0
 45 46  2  0
 45118  1  0
 46119  1  0
 47120  1  0
 47121  1  0
 48 41  1  0
 48 56  1  0
 48 65  1  0
 48122  1  1
 49 50  1  0
 49 53  1  0
 49 64  1  0
 49123  1  1
 50 51  1  0
 50124  1  0
 50125  1  0
 51 52  1  0
 51126  1  0
 51127  1  0
 52128  1  0
 52129  1  0
 53 54  1  0
 54 55  2  0
 54130  1  0
 55 57  1  0
 55131  1  0
 56 69  2  0
 57 58  2  0
 57132  1  0
 58133  1  0
 59 60  1  0
 59 61  1  0
 59 62  1  0
 60134  1  0
 60135  1  0
 60136  1  0
 61137  1  0
 61138  1  0
 61139  1  0
 62140  1  0
 62141  1  0
 62142  1  0
 63 65  1  0
 63143  1  0
 63144  1  0
 63145  1  0
 64146  1  0
 65147  1  0
 68 83  1  0
 71 74  2  0
 71 76  1  0
 71148  1  0
 72 75  1  0
 72 76  2  0
 72149  1  0
 73 74  1  0
 73 75  2  0
 73 78  1  0
 74 84  1  0
 75 85  1  0
 76 88  1  0
 77 79  2  0
 77 83  1  0
 77150  1  0
 78 81  1  0
 78 86  2  0
 79 80  1  0
 79 82  1  0
 80 84  1  0
 80 87  2  0
 81151  1  0
 81152  1  0
 81153  1  0
 82154  1  0
 82155  1  0
 82156  1  0
 83157  1  0
 83158  1  0
 84159  1  0
 85160  1  0
M  ISO  4   1 100  68 101  83 101  85 100
M  END
$$$$
18
     RDKit          3D

158166  0  0  0  0  0  0  0  0999 V2000
  -30.7652  -14.3608   20.6636 C   0  0  0  0  0  0  0  0  0100  0  0
  -30.4392  -12.2669   19.3775 C   0  0  0  0  0  0  0  0  0101  0  0
  -29.4791  -12.5281   18.1977 C   0  0  0  0  0  0  0  0  0102  0  0
  -27.9985  -12.3963   18.6038 C   0  0  0  0  0  0  0  0  0103  0  0
  -27.6639  -13.2170   19.8820 C   0  0  2  0  0  0  0  0  0104  0  0
  -28.6795  -12.9602   21.0279 C   0  0  0  0  0  0  0  0  0105  0  0
  -25.2633  -13.8245   20.5754 C   0  0  0  0  0  0  0  0  0106  0  0
  -24.1645  -13.0409   20.9408 C   0  0  0  0  0  0  0  0  0107  0  0
  -24.6400  -11.7009   20.8697 C   0  0  0  0  0  0  0  0  0108  0  0
  -23.9005  -10.4085   21.0420 C   0  0  0  0  0  0  0  0  0109  0  0
  -24.3588   -9.4123   21.9123 C   0  0  0  0  0  0  0  0  0110  0  0
  -23.6296   -8.2350   22.0803 C   0  0  0  0  0  0  0  0  0111  0  0
  -22.4385   -8.0419   21.3657 C   0  0  0  0  0  0  0  0  0112  0  0
  -22.0103   -9.0167   20.4678 C   0  0  0  0  0  0  0  0  0113  0  0
  -22.7317  -10.1925   20.3102 C   0  0  0  0  0  0  0  0  0114  0  0
  -21.6857   -6.0709   22.5391 C   0  0  0  0  0  0  0  0  0115  0  0
  -21.4064   -6.5490   23.8264 C   0  0  0  0  0  0  0  0  0116  0  0
  -21.3635   -5.6677   24.9085 C   0  0  0  0  0  0  0  0  0117  0  0
  -21.5973   -4.3067   24.7088 C   0  0  0  0  0  0  0  0  0118  0  0
  -21.8700   -3.8284   23.4282 C   0  0  0  0  0  0  0  0  0119  0  0
  -21.9144   -4.7056   22.3460 C   0  0  0  0  0  0  0  0  0120  0  0
  -22.8194  -13.5263   21.1763 C   0  0  0  0  0  0  0  0  0121  0  0
  -22.1559   -4.2206   21.1063 F   0  0  0  0  0  0  0  0  0122  0  0
  -21.5628   -3.4510   25.7555 F   0  0  0  0  0  0  0  0  0123  0  0
  -30.0261  -13.1803   20.4553 N   0  0  0  0  0  0  0  0  0124  0  0
  -26.2911  -12.9356   20.3443 N   0  0  0  0  0  0  0  0  0125  0  0
  -25.9236  -11.6675   20.5847 N   0  0  0  0  0  0  0  0  0126  0  0
  -22.0708  -12.7905   22.0005 N   0  0  0  0  0  0  0  0  0127  0  0
  -25.4117  -15.1773   20.4097 N   0  0  0  0  0  0  0  0  0128  0  0
  -31.7916  -14.6724   20.0536 O   0  0  0  0  0  0  0  0  0129  0  0
  -21.6670   -6.9022   21.4423 O   0  0  0  0  0  0  0  0  0130  0  0
  -22.3946  -14.5564   20.6568 O   0  0  0  0  0  0  0  0  0131  0  0
  -24.6048  -31.8614   23.2223 C   0  0  0  0  0  0  0  0  0100  0  0
  -25.8822  -32.4841   23.8616 C   0  0  1  0  0  0  0  0  0101  0  0
  -27.2536  -27.5042   20.1156 C   0  0  0  0  0  0  0  0  0102  0  0
  -25.5726  -33.8762   24.2210 N   0  0  0  0  0  0  0  0  0103  0  0
  -23.4066  -30.4859   21.5461 C   0  0  2  0  0  0  0  0  0104  0  0
  -24.8467  -28.9636   20.1247 C   0  0  0  0  0  0  0  0  0105  0  0
  -22.7412  -29.4652   22.5052 C   0  0  0  0  0  0  0  0  0106  0  0
  -18.0167  -28.1302   22.8626 C   0  0  0  0  0  0  0  0  0107  0  0
  -24.1342  -36.7390   23.2568 C   0  0  0  0  0  0  0  0  0108  0  0
  -25.9141  -30.8882   21.3456 C   0  0  0  0  0  0  0  0  0109  0  0
  -25.9930  -29.5029   20.7208 C   0  0  0  0  0  0  0  0  0110  0  0
  -27.1758  -28.7612   20.7331 C   0  0  0  0  0  0  0  0  0111  0  0
  -26.1032  -26.9836   19.5230 C   0  0  0  0  0  0  0  0  0112  0  0
  -24.9097  -27.7011   19.5331 C   0  0  0  0  0  0  0  0  0113  0  0
  -23.5715  -29.7899   20.1582 C   0  0  0  0  0  0  0  0  0114  0  0
  -25.3990  -36.3212   24.0232 C   0  0  1  0  0  0  0  0  0115  0  0
  -20.5793  -28.3813   23.1004 C   0  0  2  0  0  0  0  0  0116  0  0
  -20.6548  -26.9392   22.5411 C   0  0  0  0  0  0  0  0  0117  0  0
  -19.5615  -26.6407   21.5143 C   0  0  0  0  0  0  0  0  0118  0  0
  -18.1797  -26.7818   22.1673 C   0  0  0  0  0  0  0  0  0119  0  0
  -19.1385  -28.8769   23.2988 C   0  0  0  0  0  0  0  0  0120  0  0
  -18.9183  -30.1286   23.8878 C   0  0  0  0  0  0  0  0  0121  0  0
  -17.6396  -30.6493   24.0352 C   0  0  0  0  0  0  0  0  0122  0  0
  -25.9153  -34.9582   23.4993 C   0  0  0  0  0  0  0  0  0123  0  0
  -16.5415  -29.9068   23.6254 C   0  0  0  0  0  0  0  0  0124  0  0
  -16.7331  -28.6521   23.0586 C   0  0  0  0  0  0  0  0  0125  0  0
  -26.4583  -31.6439   25.0683 C   0  0  0  0  0  0  0  0  0126  0  0
  -25.3807  -31.3179   26.1374 C   0  0  0  0  0  0  0  0  0127  0  0
  -27.0530  -30.3024   24.5680 C   0  0  0  0  0  0  0  0  0128  0  0
  -27.6014  -32.4281   25.7651 C   0  0  0  0  0  0  0  0  0129  0  0
  -27.5629  -37.2220   24.8621 C   0  0  0  0  0  0  0  0  0130  0  0
  -21.4133  -29.3375   22.3735 N   0  0  0  0  0  0  0  0  0131  0  0
  -26.4706  -37.3372   23.9061 N   0  0  0  0  0  0  0  0  0132  0  0
  -24.6674  -31.0544   22.1178 N   0  0  0  0  0  0  0  0  0133  0  0
  -23.4259  -28.8150   23.2971 O   0  0  0  0  0  0  0  0  0134  0  0
  -28.3948  -26.7345   20.0089 O   0  0  0  0  0  0  0  0  0135  0  0
  -26.5870  -34.9065   22.4671 O   0  0  0  0  0  0  0  0  0136  0  0
  -23.5365  -32.1254   23.7833 O   0  0  0  0  0  0  0  0  0137  0  0
  -29.2846  -17.9956   24.7331 C   0  0  0  0  0  0  0  0  0  0  0  0
  -29.1485  -18.6754   22.0308 C   0  0  0  0  0  0  0  0  0  0  0  0
  -29.3114  -19.3362   24.3490 C   0  0  0  0  0  0  0  0  0  0  0  0
  -29.2433  -19.6761   22.9979 C   0  0  0  0  0  0  0  0  0  0  0  0
  -29.1218  -17.3347   22.4149 C   0  0  0  0  0  0  0  0  0  0  0  0
  -29.1899  -16.9948   23.7660 C   0  0  0  0  0  0  0  0  0  0  0  0
  -29.4144  -20.3566   25.3847 C   0  0  0  0  0  0  0  0  0  0  0  0
  -27.9034  -23.7000   21.2580 C   0  0  0  0  0  0  0  0  0  0  0  0
  -29.2050  -21.5183   21.2867 C   0  0  0  0  0  0  0  0  0  0  0  0
  -28.8185  -20.0426   26.7246 C   0  0  0  0  0  0  0  0  0  0  0  0
  -29.2633  -23.0331   21.2432 C   0  0  0  0  0  0  0  0  0  0  0  0
  -27.9061  -25.2095   21.1242 C   0  0  0  0  0  0  0  0  0  1  0  0
  -29.2707  -21.0298   22.5849 N   0  0  0  0  0  0  0  0  0  0  0  0
  -29.0252  -16.3203   21.4304 N   0  0  0  0  0  0  0  0  0  0  0  0
  -29.9492  -21.4556   25.2384 O   0  0  0  0  0  0  0  0  0  0  0  0
  -26.8603  -23.0592   21.3785 O   0  0  0  0  0  0  0  0  0  0  0  0
  -29.0835  -20.8741   20.2481 O   0  0  0  0  0  0  0  0  0  0  0  0
  -29.1651  -15.7094   24.1468 F   0  0  0  0  0  0  0  0  0  0  0  0
  -31.4485  -12.4701   19.0860 H   0  0  0  0  0  0  0  0  0  0  0  0
  -30.3970  -11.2460   19.6950 H   0  0  0  0  0  0  0  0  0  0  0  0
  -29.6870  -11.8204   17.4226 H   0  0  0  0  0  0  0  0  0  0  0  0
  -29.6375  -13.5326   17.8649 H   0  0  0  0  0  0  0  0  0  0  0  0
  -27.7830  -11.3650   18.7904 H   0  0  0  0  0  0  0  0  0  0  0  0
  -27.4028  -12.7801   17.8021 H   0  0  0  0  0  0  0  0  0  0  0  0
  -27.7353  -14.2503   19.6136 H   0  0  0  0  0  0  0  0  0  0  0  0
  -28.5890  -11.9550   21.3832 H   0  0  0  0  0  0  0  0  0  0  0  0
  -28.5005  -13.6134   21.8562 H   0  0  0  0  0  0  0  0  0  0  0  0
  -25.2399   -9.5495   22.4318 H   0  0  0  0  0  0  0  0  0  0  0  0
  -23.9663   -7.5070   22.7297 H   0  0  0  0  0  0  0  0  0  0  0  0
  -21.1515   -8.8641   19.9162 H   0  0  0  0  0  0  0  0  0  0  0  0
  -22.4016  -10.9115   19.6476 H   0  0  0  0  0  0  0  0  0  0  0  0
  -21.2319   -7.5552   23.9750 H   0  0  0  0  0  0  0  0  0  0  0  0
  -21.1589   -6.0228   25.8556 H   0  0  0  0  0  0  0  0  0  0  0  0
  -22.0396   -2.8212   23.2809 H   0  0  0  0  0  0  0  0  0  0  0  0
  -22.4401  -11.9703   22.4008 H   0  0  0  0  0  0  0  0  0  0  0  0
  -21.1493  -13.0679   22.2082 H   0  0  0  0  0  0  0  0  0  0  0  0
  -24.6538  -15.7807   20.5848 H   0  0  0  0  0  0  0  0  0  0  0  0
  -26.2762  -15.5453   20.1156 H   0  0  0  0  0  0  0  0  0  0  0  0
  -26.6778  -32.4663   23.1464 H   0  0  0  0  0  0  0  0  0  0  0  0
  -25.0747  -34.0282   25.0566 H   0  0  0  0  0  0  0  0  0  0  0  0
  -22.7881  -31.3489   21.4131 H   0  0  0  0  0  0  0  0  0  0  0  0
  -23.3854  -35.9823   23.3648 H   0  0  0  0  0  0  0  0  0  0  0  0
  -24.3696  -36.8624   22.2204 H   0  0  0  0  0  0  0  0  0  0  0  0
  -23.7669  -37.6632   23.6516 H   0  0  0  0  0  0  0  0  0  0  0  0
  -25.9445  -31.6237   20.5691 H   0  0  0  0  0  0  0  0  0  0  0  0
  -26.7436  -31.0079   22.0108 H   0  0  0  0  0  0  0  0  0  0  0  0
  -28.0090  -29.1452   21.2057 H   0  0  0  0  0  0  0  0  0  0  0  0
  -26.1369  -26.0560   19.0719 H   0  0  0  0  0  0  0  0  0  0  0  0
  -24.0652  -27.2961   19.0997 H   0  0  0  0  0  0  0  0  0  0  0  0
  -23.6156  -30.5365   19.3930 H   0  0  0  0  0  0  0  0  0  0  0  0
  -22.7355  -29.1425   19.9945 H   0  0  0  0  0  0  0  0  0  0  0  0
  -25.1353  -36.2335   25.0565 H   0  0  0  0  0  0  0  0  0  0  0  0
  -21.0070  -28.3206   24.0793 H   0  0  0  0  0  0  0  0  0  0  0  0
  -20.5555  -26.2518   23.3550 H   0  0  0  0  0  0  0  0  0  0  0  0
  -21.5974  -26.8362   22.0454 H   0  0  0  0  0  0  0  0  0  0  0  0
  -19.6810  -25.6422   21.1488 H   0  0  0  0  0  0  0  0  0  0  0  0
  -19.6406  -27.3343   20.7034 H   0  0  0  0  0  0  0  0  0  0  0  0
  -17.4282  -26.6888   21.4113 H   0  0  0  0  0  0  0  0  0  0  0  0
  -18.0803  -26.0130   22.9049 H   0  0  0  0  0  0  0  0  0  0  0  0
  -19.7265  -30.6774   24.2204 H   0  0  0  0  0  0  0  0  0  0  0  0
  -17.5064  -31.5856   24.4483 H   0  0  0  0  0  0  0  0  0  0  0  0
  -15.5878  -30.2839   23.7407 H   0  0  0  0  0  0  0  0  0  0  0  0
  -15.9120  -28.0941   22.7766 H   0  0  0  0  0  0  0  0  0  0  0  0
  -24.5787  -30.7757   25.6817 H   0  0  0  0  0  0  0  0  0  0  0  0
  -25.0041  -32.2289   26.5536 H   0  0  0  0  0  0  0  0  0  0  0  0
  -25.8166  -30.7245   26.9138 H   0  0  0  0  0  0  0  0  0  0  0  0
  -26.2892  -29.7335   24.0803 H   0  0  0  0  0  0  0  0  0  0  0  0
  -27.4336  -29.7484   25.4006 H   0  0  0  0  0  0  0  0  0  0  0  0
  -27.8466  -30.4994   23.8779 H   0  0  0  0  0  0  0  0  0  0  0  0
  -27.2251  -33.3632   26.1242 H   0  0  0  0  0  0  0  0  0  0  0  0
  -28.3902  -32.6065   25.0645 H   0  0  0  0  0  0  0  0  0  0  0  0
  -27.9772  -31.8555   26.5872 H   0  0  0  0  0  0  0  0  0  0  0  0
  -28.2744  -38.0016   24.6863 H   0  0  0  0  0  0  0  0  0  0  0  0
  -28.0396  -36.2711   24.7461 H   0  0  0  0  0  0  0  0  0  0  0  0
  -27.1773  -37.3087   25.8564 H   0  0  0  0  0  0  0  0  0  0  0  0
  -20.9627  -29.9365   21.7352 H   0  0  0  0  0  0  0  0  0  0  0  0
  -26.0447  -38.2561   24.0273 H   0  0  0  0  0  0  0  0  0  0  0  0
  -29.3348  -17.7441   25.7327 H   0  0  0  0  0  0  0  0  0  0  0  0
  -29.0981  -18.9269   21.0312 H   0  0  0  0  0  0  0  0  0  0  0  0
  -28.3925  -19.0613   26.7044 H   0  0  0  0  0  0  0  0  0  0  0  0
  -28.0560  -20.7579   26.9523 H   0  0  0  0  0  0  0  0  0  0  0  0
  -29.5819  -20.0846   27.4732 H   0  0  0  0  0  0  0  0  0  0  0  0
  -29.8149  -23.3737   22.0945 H   0  0  0  0  0  0  0  0  0  0  0  0
  -29.7300  -23.2996   20.3180 H   0  0  0  0  0  0  0  0  0  0  0  0
  -28.4254  -25.4694   22.0229 H   0  0  0  0  0  0  0  0  0  0  0  0
  -26.9443  -25.1725   20.6568 H   0  0  0  0  0  0  0  0  0  0  0  0
  -29.3449  -21.7022   23.3002 H   0  0  0  0  0  0  0  0  0  0  0  0
  -28.1761  -16.3224   20.9321 H   0  0  0  0  0  0  0  0  0  0  0  0
  1 25  1  0
  1 30  2  0
  1 84  1  0
  2  3  1  0
  2 25  1  0
  2 89  1  0
  2 90  1  0
  3  4  1  0
  3 91  1  0
  3 92  1  0
  4  5  1  0
  4 93  1  0
  4 94  1  0
  5  6  1  0
  5 26  1  0
  5 95  1  6
  6 25  1  0
  6 96  1  0
  6 97  1  0
  7  8  2  0
  7 26  1  0
  7 29  1  0
  8  9  1  0
  8 22  1  0
  9 10  1  0
  9 27  2  0
 10 11  2  0
 10 15  1  0
 11 12  1  0
 11 98  1  0
 12 13  2  0
 12 99  1  0
 13 14  1  0
 13 31  1  0
 14 15  2  0
 14100  1  0
 15101  1  0
 16 17  2  0
 16 21  1  0
 16 31  1  0
 17 18  1  0
 17102  1  0
 18 19  2  0
 18103  1  0
 19 20  1  0
 19 24  1  0
 20 21  2  0
 20104  1  0
 21 23  1  0
 22 28  1  0
 22 32  2  0
 26 27  1  0
 28105  1  0
 28106  1  0
 29107  1  0
 29108  1  0
 33 34  1  0
 33 66  1  0
 33 70  2  0
 34 36  1  0
 34 59  1  0
 34109  1  6
 35 44  2  0
 35 45  1  0
 35 68  1  0
 36 56  1  0
 36110  1  0
 37 39  1  0
 37 47  1  0
 37 66  1  0
 37111  1  6
 38 43  2  0
 38 46  1  0
 38 47  1  0
 39 64  1  0
 39 67  2  0
 40 52  1  0
 40 53  2  0
 40 58  1  0
 41112  1  0
 41113  1  0
 41114  1  0
 42 43  1  0
 42 66  1  0
 42115  1  0
 42116  1  0
 43 44  1  0
 44117  1  0
 45 46  2  0
 45118  1  0
 46119  1  0
 47120  1  0
 47121  1  0
 48 41  1  0
 48 56  1  0
 48 65  1  0
 48122  1  1
 49 50  1  0
 49 53  1  0
 49 64  1  0
 49123  1  1
 50 51  1  0
 50124  1  0
 50125  1  0
 51 52  1  0
 51126  1  0
 51127  1  0
 52128  1  0
 52129  1  0
 53 54  1  0
 54 55  2  0
 54130  1  0
 55 57  1  0
 55131  1  0
 56 69  2  0
 57 58  2  0
 57132  1  0
 58133  1  0
 59 60  1  0
 59 61  1  0
 59 62  1  0
 60134  1  0
 60135  1  0
 60136  1  0
 61137  1  0
 61138  1  0
 61139  1  0
 62140  1  0
 62141  1  0
 62142  1  0
 63 65  1  0
 63143  1  0
 63144  1  0
 63145  1  0
 64146  1  0
 65147  1  0
 68 82  1  0
 71 73  2  0
 71 76  1  0
 71148  1  0
 72 74  2  0
 72 75  1  0
 72149  1  0
 73 74  1  0
 73 77  1  0
 74 83  1  0
 75 76  2  0
 75 84  1  0
 76 88  1  0
 77 80  1  0
 77 85  2  0
 78 81  1  0
 78 82  1  0
 78 86  2  0
 79 81  1  0
 79 83  1  0
 79 87  2  0
 80150  1  0
 80151  1  0
 80152  1  0
 81153  1  0
 81154  1  0
 82155  1  0
 82156  1  0
 83157  1  0
 84158  1  0
M  ISO  4   1 100  68 101  82 101  84 100
M  END
$$$$
19
     RDKit          3D

155163  0  0  0  0  0  0  0  0999 V2000
  -30.7652  -14.3608   20.6636 C   0  0  0  0  0  0  0  0  0100  0  0
  -30.4392  -12.2669   19.3775 C   0  0  0  0  0  0  0  0  0101  0  0
  -29.4791  -12.5281   18.1977 C   0  0  0  0  0  0  0  0  0102  0  0
  -27.9985  -12.3963   18.6038 C   0  0  0  0  0  0  0  0  0103  0  0
  -27.6639  -13.2170   19.8820 C   0  0  2  0  0  0  0  0  0104  0  0
  -28.6795  -12.9602   21.0279 C   0  0  0  0  0  0  0  0  0105  0  0
  -25.2633  -13.8245   20.5754 C   0  0  0  0  0  0  0  0  0106  0  0
  -24.1645  -13.0409   20.9408 C   0  0  0  0  0  0  0  0  0107  0  0
  -24.6400  -11.7009   20.8697 C   0  0  0  0  0  0  0  0  0108  0  0
  -23.9005  -10.4085   21.0420 C   0  0  0  0  0  0  0  0  0109  0  0
  -24.3588   -9.4123   21.9123 C   0  0  0  0  0  0  0  0  0110  0  0
  -23.6296   -8.2350   22.0803 C   0  0  0  0  0  0  0  0  0111  0  0
  -22.4385   -8.0419   21.3657 C   0  0  0  0  0  0  0  0  0112  0  0
  -22.0103   -9.0167   20.4678 C   0  0  0  0  0  0  0  0  0113  0  0
  -22.7317  -10.1925   20.3102 C   0  0  0  0  0  0  0  0  0114  0  0
  -21.6857   -6.0709   22.5391 C   0  0  0  0  0  0  0  0  0115  0  0
  -21.4064   -6.5490   23.8264 C   0  0  0  0  0  0  0  0  0116  0  0
  -21.3635   -5.6677   24.9085 C   0  0  0  0  0  0  0  0  0117  0  0
  -21.5973   -4.3067   24.7088 C   0  0  0  0  0  0  0  0  0118  0  0
  -21.8700   -3.8284   23.4282 C   0  0  0  0  0  0  0  0  0119  0  0
  -21.9144   -4.7056   22.3460 C   0  0  0  0  0  0  0  0  0120  0  0
  -22.8194  -13.5263   21.1763 C   0  0  0  0  0  0  0  0  0121  0  0
  -22.1559   -4.2206   21.1063 F   0  0  0  0  0  0  0  0  0122  0  0
  -21.5628   -3.4510   25.7555 F   0  0  0  0  0  0  0  0  0123  0  0
  -30.0261  -13.1803   20.4553 N   0  0  0  0  0  0  0  0  0124  0  0
  -26.2911  -12.9356   20.3443 N   0  0  0  0  0  0  0  0  0125  0  0
  -25.9236  -11.6675   20.5847 N   0  0  0  0  0  0  0  0  0126  0  0
  -22.0708  -12.7905   22.0005 N   0  0  0  0  0  0  0  0  0127  0  0
  -25.4117  -15.1773   20.4097 N   0  0  0  0  0  0  0  0  0128  0  0
  -31.7916  -14.6724   20.0536 O   0  0  0  0  0  0  0  0  0129  0  0
  -21.6670   -6.9022   21.4423 O   0  0  0  0  0  0  0  0  0130  0  0
  -22.3946  -14.5564   20.6568 O   0  0  0  0  0  0  0  0  0131  0  0
  -24.6048  -31.8614   23.2223 C   0  0  0  0  0  0  0  0  0100  0  0
  -25.8822  -32.4841   23.8616 C   0  0  1  0  0  0  0  0  0101  0  0
  -27.2536  -27.5042   20.1156 C   0  0  0  0  0  0  0  0  0102  0  0
  -25.5726  -33.8762   24.2210 N   0  0  0  0  0  0  0  0  0103  0  0
  -23.4066  -30.4859   21.5461 C   0  0  2  0  0  0  0  0  0104  0  0
  -24.8467  -28.9636   20.1247 C   0  0  0  0  0  0  0  0  0105  0  0
  -22.7412  -29.4652   22.5052 C   0  0  0  0  0  0  0  0  0106  0  0
  -18.0167  -28.1302   22.8626 C   0  0  0  0  0  0  0  0  0107  0  0
  -24.1342  -36.7390   23.2568 C   0  0  0  0  0  0  0  0  0108  0  0
  -25.9141  -30.8882   21.3456 C   0  0  0  0  0  0  0  0  0109  0  0
  -25.9930  -29.5029   20.7208 C   0  0  0  0  0  0  0  0  0110  0  0
  -27.1758  -28.7612   20.7331 C   0  0  0  0  0  0  0  0  0111  0  0
  -26.1032  -26.9836   19.5230 C   0  0  0  0  0  0  0  0  0112  0  0
  -24.9097  -27.7011   19.5331 C   0  0  0  0  0  0  0  0  0113  0  0
  -23.5715  -29.7899   20.1582 C   0  0  0  0  0  0  0  0  0114  0  0
  -25.3990  -36.3212   24.0232 C   0  0  1  0  0  0  0  0  0115  0  0
  -20.5793  -28.3813   23.1004 C   0  0  2  0  0  0  0  0  0116  0  0
  -20.6548  -26.9392   22.5411 C   0  0  0  0  0  0  0  0  0117  0  0
  -19.5615  -26.6407   21.5143 C   0  0  0  0  0  0  0  0  0118  0  0
  -18.1797  -26.7818   22.1673 C   0  0  0  0  0  0  0  0  0119  0  0
  -19.1385  -28.8769   23.2988 C   0  0  0  0  0  0  0  0  0120  0  0
  -18.9183  -30.1286   23.8878 C   0  0  0  0  0  0  0  0  0121  0  0
  -17.6396  -30.6493   24.0352 C   0  0  0  0  0  0  0  0  0122  0  0
  -25.9153  -34.9582   23.4993 C   0  0  0  0  0  0  0  0  0123  0  0
  -16.5415  -29.9068   23.6254 C   0  0  0  0  0  0  0  0  0124  0  0
  -16.7331  -28.6521   23.0586 C   0  0  0  0  0  0  0  0  0125  0  0
  -26.4583  -31.6439   25.0683 C   0  0  0  0  0  0  0  0  0126  0  0
  -25.3807  -31.3179   26.1374 C   0  0  0  0  0  0  0  0  0127  0  0
  -27.0530  -30.3024   24.5680 C   0  0  0  0  0  0  0  0  0128  0  0
  -27.6014  -32.4281   25.7651 C   0  0  0  0  0  0  0  0  0129  0  0
  -27.5629  -37.2220   24.8621 C   0  0  0  0  0  0  0  0  0130  0  0
  -21.4133  -29.3375   22.3735 N   0  0  0  0  0  0  0  0  0131  0  0
  -26.4706  -37.3372   23.9061 N   0  0  0  0  0  0  0  0  0132  0  0
  -24.6674  -31.0544   22.1178 N   0  0  0  0  0  0  0  0  0133  0  0
  -23.4259  -28.8150   23.2971 O   0  0  0  0  0  0  0  0  0134  0  0
  -28.3948  -26.7345   20.0089 O   0  0  0  0  0  0  0  0  0135  0  0
  -26.5870  -34.9065   22.4671 O   0  0  0  0  0  0  0  0  0136  0  0
  -23.5365  -32.1254   23.7833 O   0  0  0  0  0  0  0  0  0137  0  0
  -29.7174  -17.5043   23.3026 C   0  0  0  0  0  0  0  0  0  0  0  0
  -31.9298  -16.7149   22.7377 C   0  0  0  0  0  0  0  0  0  0  0  0
  -30.2692  -18.3861   24.2318 C   0  0  0  0  0  0  0  0  0  0  0  0
  -30.5477  -16.6686   22.5556 C   0  0  0  0  0  0  0  0  0  0  0  0
  -31.6513  -18.4324   24.4140 C   0  0  0  0  0  0  0  0  0  0  0  0
  -32.4817  -17.5968   23.6669 C   0  0  0  0  0  0  0  0  0  0  0  0
  -29.3617  -19.2533   25.0014 C   0  0  0  0  0  0  0  0  0  0  0  0
  -28.5402  -20.1752   24.4750 C   0  0  0  0  0  0  0  0  0  0  0  0
  -27.9508  -22.5162   25.0971 C   0  0  0  0  0  0  0  0  0  0  0  0
  -27.6378  -21.0404   25.3004 C   0  0  0  0  0  0  0  0  0  0  0  0
  -27.0879  -23.4807   25.8881 C   0  0  0  0  0  0  0  0  0  1  0  0
  -32.2347  -19.3172   25.3497 N   0  0  0  0  0  0  0  0  0  0  0  0
  -29.9879  -15.7721   21.6118 N   0  0  0  0  0  0  0  0  0  0  0  0
  -28.8497  -22.9136   24.3569 O   0  0  0  0  0  0  0  0  0  0  0  0
  -33.8116  -17.6311   23.8330 F   0  0  0  0  0  0  0  0  0  0  0  0
  -31.4485  -12.4701   19.0860 H   0  0  0  0  0  0  0  0  0  0  0  0
  -30.3970  -11.2460   19.6950 H   0  0  0  0  0  0  0  0  0  0  0  0
  -29.6870  -11.8204   17.4226 H   0  0  0  0  0  0  0  0  0  0  0  0
  -29.6375  -13.5326   17.8649 H   0  0  0  0  0  0  0  0  0  0  0  0
  -27.7830  -11.3650   18.7904 H   0  0  0  0  0  0  0  0  0  0  0  0
  -27.4028  -12.7801   17.8021 H   0  0  0  0  0  0  0  0  0  0  0  0
  -27.7353  -14.2503   19.6136 H   0  0  0  0  0  0  0  0  0  0  0  0
  -28.5890  -11.9550   21.3832 H   0  0  0  0  0  0  0  0  0  0  0  0
  -28.5005  -13.6134   21.8562 H   0  0  0  0  0  0  0  0  0  0  0  0
  -25.2399   -9.5495   22.4318 H   0  0  0  0  0  0  0  0  0  0  0  0
  -23.9663   -7.5070   22.7297 H   0  0  0  0  0  0  0  0  0  0  0  0
  -21.1515   -8.8641   19.9162 H   0  0  0  0  0  0  0  0  0  0  0  0
  -22.4016  -10.9115   19.6476 H   0  0  0  0  0  0  0  0  0  0  0  0
  -21.2319   -7.5552   23.9750 H   0  0  0  0  0  0  0  0  0  0  0  0
  -21.1589   -6.0228   25.8556 H   0  0  0  0  0  0  0  0  0  0  0  0
  -22.0396   -2.8212   23.2809 H   0  0  0  0  0  0  0  0  0  0  0  0
  -22.4401  -11.9703   22.4008 H   0  0  0  0  0  0  0  0  0  0  0  0
  -21.1493  -13.0679   22.2082 H   0  0  0  0  0  0  0  0  0  0  0  0
  -24.6538  -15.7807   20.5848 H   0  0  0  0  0  0  0  0  0  0  0  0
  -26.2762  -15.5453   20.1156 H   0  0  0  0  0  0  0  0  0  0  0  0
  -26.6778  -32.4663   23.1464 H   0  0  0  0  0  0  0  0  0  0  0  0
  -25.0747  -34.0282   25.0566 H   0  0  0  0  0  0  0  0  0  0  0  0
  -22.7881  -31.3489   21.4131 H   0  0  0  0  0  0  0  0  0  0  0  0
  -23.3854  -35.9823   23.3648 H   0  0  0  0  0  0  0  0  0  0  0  0
  -24.3696  -36.8624   22.2204 H   0  0  0  0  0  0  0  0  0  0  0  0
  -23.7669  -37.6632   23.6516 H   0  0  0  0  0  0  0  0  0  0  0  0
  -25.9445  -31.6237   20.5691 H   0  0  0  0  0  0  0  0  0  0  0  0
  -26.7436  -31.0079   22.0108 H   0  0  0  0  0  0  0  0  0  0  0  0
  -28.0090  -29.1452   21.2057 H   0  0  0  0  0  0  0  0  0  0  0  0
  -26.1369  -26.0560   19.0719 H   0  0  0  0  0  0  0  0  0  0  0  0
  -24.0652  -27.2961   19.0997 H   0  0  0  0  0  0  0  0  0  0  0  0
  -23.6156  -30.5365   19.3930 H   0  0  0  0  0  0  0  0  0  0  0  0
  -22.7355  -29.1425   19.9945 H   0  0  0  0  0  0  0  0  0  0  0  0
  -25.1353  -36.2335   25.0565 H   0  0  0  0  0  0  0  0  0  0  0  0
  -21.0070  -28.3206   24.0793 H   0  0  0  0  0  0  0  0  0  0  0  0
  -20.5555  -26.2518   23.3550 H   0  0  0  0  0  0  0  0  0  0  0  0
  -21.5974  -26.8362   22.0454 H   0  0  0  0  0  0  0  0  0  0  0  0
  -19.6810  -25.6422   21.1488 H   0  0  0  0  0  0  0  0  0  0  0  0
  -19.6406  -27.3343   20.7034 H   0  0  0  0  0  0  0  0  0  0  0  0
  -17.4282  -26.6888   21.4113 H   0  0  0  0  0  0  0  0  0  0  0  0
  -18.0803  -26.0130   22.9049 H   0  0  0  0  0  0  0  0  0  0  0  0
  -19.7265  -30.6774   24.2204 H   0  0  0  0  0  0  0  0  0  0  0  0
  -17.5064  -31.5856   24.4483 H   0  0  0  0  0  0  0  0  0  0  0  0
  -15.5878  -30.2839   23.7407 H   0  0  0  0  0  0  0  0  0  0  0  0
  -15.9120  -28.0941   22.7766 H   0  0  0  0  0  0  0  0  0  0  0  0
  -24.5787  -30.7757   25.6817 H   0  0  0  0  0  0  0  0  0  0  0  0
  -25.0041  -32.2289   26.5536 H   0  0  0  0  0  0  0  0  0  0  0  0
  -25.8166  -30.7245   26.9138 H   0  0  0  0  0  0  0  0  0  0  0  0
  -26.2892  -29.7335   24.0803 H   0  0  0  0  0  0  0  0  0  0  0  0
  -27.4336  -29.7484   25.4006 H   0  0  0  0  0  0  0  0  0  0  0  0
  -27.8466  -30.4994   23.8779 H   0  0  0  0  0  0  0  0  0  0  0  0
  -27.2251  -33.3632   26.1242 H   0  0  0  0  0  0  0  0  0  0  0  0
  -28.3902  -32.6065   25.0645 H   0  0  0  0  0  0  0  0  0  0  0  0
  -27.9772  -31.8555   26.5872 H   0  0  0  0  0  0  0  0  0  0  0  0
  -28.2744  -38.0016   24.6863 H   0  0  0  0  0  0  0  0  0  0  0  0
  -28.0396  -36.2711   24.7461 H   0  0  0  0  0  0  0  0  0  0  0  0
  -27.1773  -37.3087   25.8564 H   0  0  0  0  0  0  0  0  0  0  0  0
  -20.9627  -29.9365   21.7352 H   0  0  0  0  0  0  0  0  0  0  0  0
  -26.0447  -38.2561   24.0273 H   0  0  0  0  0  0  0  0  0  0  0  0
  -28.6948  -17.4701   23.1677 H   0  0  0  0  0  0  0  0  0  0  0  0
  -32.5441  -16.0967   22.1850 H   0  0  0  0  0  0  0  0  0  0  0  0
  -29.3568  -19.1436   26.0275 H   0  0  0  0  0  0  0  0  0  0  0  0
  -28.5297  -20.2939   23.4499 H   0  0  0  0  0  0  0  0  0  0  0  0
  -27.7688  -20.7952   26.3337 H   0  0  0  0  0  0  0  0  0  0  0  0
  -26.6276  -20.8637   24.9952 H   0  0  0  0  0  0  0  0  0  0  0  0
  -27.5088  -23.8948   26.7804 H   0  0  0  0  0  0  0  0  0  0  0  0
  -26.1358  -23.2938   26.3392 H   0  0  0  0  0  0  0  0  0  0  0  0
  -31.6635  -19.9139   25.8854 H   0  0  0  0  0  0  0  0  0  0  0  0
  -33.2122  -19.3366   25.4656 H   0  0  0  0  0  0  0  0  0  0  0  0
  -29.0322  -15.9162   21.4245 H   0  0  0  0  0  0  0  0  0  0  0  0
  1 25  1  0
  1 30  2  0
  1 83  1  0
  2  3  1  0
  2 25  1  0
  2 86  1  0
  2 87  1  0
  3  4  1  0
  3 88  1  0
  3 89  1  0
  4  5  1  0
  4 90  1  0
  4 91  1  0
  5  6  1  0
  5 26  1  0
  5 92  1  6
  6 25  1  0
  6 93  1  0
  6 94  1  0
  7  8  2  0
  7 26  1  0
  7 29  1  0
  8  9  1  0
  8 22  1  0
  9 10  1  0
  9 27  2  0
 10 11  2  0
 10 15  1  0
 11 12  1  0
 11 95  1  0
 12 13  2  0
 12 96  1  0
 13 14  1  0
 13 31  1  0
 14 15  2  0
 14 97  1  0
 15 98  1  0
 16 17  2  0
 16 21  1  0
 16 31  1  0
 17 18  1  0
 17 99  1  0
 18 19  2  0
 18100  1  0
 19 20  1  0
 19 24  1  0
 20 21  2  0
 20101  1  0
 21 23  1  0
 22 28  1  0
 22 32  2  0
 26 27  1  0
 28102  1  0
 28103  1  0
 29104  1  0
 29105  1  0
 33 34  1  0
 33 66  1  0
 33 70  2  0
 34 36  1  0
 34 59  1  0
 34106  1  6
 35 44  2  0
 35 45  1  0
 35 68  1  0
 36 56  1  0
 36107  1  0
 37 39  1  0
 37 47  1  0
 37 66  1  0
 37108  1  6
 38 43  2  0
 38 46  1  0
 38 47  1  0
 39 64  1  0
 39 67  2  0
 40 52  1  0
 40 53  2  0
 40 58  1  0
 41109  1  0
 41110  1  0
 41111  1  0
 42 43  1  0
 42 66  1  0
 42112  1  0
 42113  1  0
 43 44  1  0
 44114  1  0
 45 46  2  0
 45115  1  0
 46116  1  0
 47117  1  0
 47118  1  0
 48 41  1  0
 48 56  1  0
 48 65  1  0
 48119  1  1
 49 50  1  0
 49 53  1  0
 49 64  1  0
 49120  1  1
 50 51  1  0
 50121  1  0
 50122  1  0
 51 52  1  0
 51123  1  0
 51124  1  0
 52125  1  0
 52126  1  0
 53 54  1  0
 54 55  2  0
 54127  1  0
 55 57  1  0
 55128  1  0
 56 69  2  0
 57 58  2  0
 57129  1  0
 58130  1  0
 59 60  1  0
 59 61  1  0
 59 62  1  0
 60131  1  0
 60132  1  0
 60133  1  0
 61134  1  0
 61135  1  0
 61136  1  0
 62137  1  0
 62138  1  0
 62139  1  0
 63 65  1  0
 63140  1  0
 63141  1  0
 63142  1  0
 64143  1  0
 65144  1  0
 68 81  1  0
 71 73  2  0
 71 74  1  0
 71145  1  0
 72 74  2  0
 72 76  1  0
 72146  1  0
 73 75  1  0
 73 77  1  0
 74 83  1  0
 75 76  2  0
 75 82  1  0
 76 85  1  0
 77 78  2  0
 77147  1  0
 78 80  1  0
 78148  1  0
 79 80  1  0
 79 81  1  0
 79 84  2  0
 80149  1  0
 80150  1  0
 81151  1  0
 81152  1  0
 82153  1  0
 82154  1  0
 83155  1  0
M  ISO  4   1 100  68 101  81 101  83 100
M  END
$$$$
20
     RDKit          3D

154162  0  0  0  0  0  0  0  0999 V2000
  -30.7652  -14.3608   20.6636 C   0  0  0  0  0  0  0  0  0100  0  0
  -30.4392  -12.2669   19.3775 C   0  0  0  0  0  0  0  0  0101  0  0
  -29.4791  -12.5281   18.1977 C   0  0  0  0  0  0  0  0  0102  0  0
  -27.9985  -12.3963   18.6038 C   0  0  0  0  0  0  0  0  0103  0  0
  -27.6639  -13.2170   19.8820 C   0  0  2  0  0  0  0  0  0104  0  0
  -28.6795  -12.9602   21.0279 C   0  0  0  0  0  0  0  0  0105  0  0
  -25.2633  -13.8245   20.5754 C   0  0  0  0  0  0  0  0  0106  0  0
  -24.1645  -13.0409   20.9408 C   0  0  0  0  0  0  0  0  0107  0  0
  -24.6400  -11.7009   20.8697 C   0  0  0  0  0  0  0  0  0108  0  0
  -23.9005  -10.4085   21.0420 C   0  0  0  0  0  0  0  0  0109  0  0
  -24.3588   -9.4123   21.9123 C   0  0  0  0  0  0  0  0  0110  0  0
  -23.6296   -8.2350   22.0803 C   0  0  0  0  0  0  0  0  0111  0  0
  -22.4385   -8.0419   21.3657 C   0  0  0  0  0  0  0  0  0112  0  0
  -22.0103   -9.0167   20.4678 C   0  0  0  0  0  0  0  0  0113  0  0
  -22.7317  -10.1925   20.3102 C   0  0  0  0  0  0  0  0  0114  0  0
  -21.6857   -6.0709   22.5391 C   0  0  0  0  0  0  0  0  0115  0  0
  -21.4064   -6.5490   23.8264 C   0  0  0  0  0  0  0  0  0116  0  0
  -21.3635   -5.6677   24.9085 C   0  0  0  0  0  0  0  0  0117  0  0
  -21.5973   -4.3067   24.7088 C   0  0  0  0  0  0  0  0  0118  0  0
  -21.8700   -3.8284   23.4282 C   0  0  0  0  0  0  0  0  0119  0  0
  -21.9144   -4.7056   22.3460 C   0  0  0  0  0  0  0  0  0120  0  0
  -22.8194  -13.5263   21.1763 C   0  0  0  0  0  0  0  0  0121  0  0
  -22.1559   -4.2206   21.1063 F   0  0  0  0  0  0  0  0  0122  0  0
  -21.5628   -3.4510   25.7555 F   0  0  0  0  0  0  0  0  0123  0  0
  -30.0261  -13.1803   20.4553 N   0  0  0  0  0  0  0  0  0124  0  0
  -26.2911  -12.9356   20.3443 N   0  0  0  0  0  0  0  0  0125  0  0
  -25.9236  -11.6675   20.5847 N   0  0  0  0  0  0  0  0  0126  0  0
  -22.0708  -12.7905   22.0005 N   0  0  0  0  0  0  0  0  0127  0  0
  -25.4117  -15.1773   20.4097 N   0  0  0  0  0  0  0  0  0128  0  0
  -31.7916  -14.6724   20.0536 O   0  0  0  0  0  0  0  0  0129  0  0
  -21.6670   -6.9022   21.4423 O   0  0  0  0  0  0  0  0  0130  0  0
  -22.3946  -14.5564   20.6568 O   0  0  0  0  0  0  0  0  0131  0  0
  -24.6048  -31.8614   23.2223 C   0  0  0  0  0  0  0  0  0100  0  0
  -25.8822  -32.4841   23.8616 C   0  0  1  0  0  0  0  0  0101  0  0
  -27.2536  -27.5042   20.1156 C   0  0  0  0  0  0  0  0  0102  0  0
  -25.5726  -33.8762   24.2210 N   0  0  0  0  0  0  0  0  0103  0  0
  -23.4066  -30.4859   21.5461 C   0  0  2  0  0  0  0  0  0104  0  0
  -24.8467  -28.9636   20.1247 C   0  0  0  0  0  0  0  0  0105  0  0
  -22.7412  -29.4652   22.5052 C   0  0  0  0  0  0  0  0  0106  0  0
  -18.0167  -28.1302   22.8626 C   0  0  0  0  0  0  0  0  0107  0  0
  -24.1342  -36.7390   23.2568 C   0  0  0  0  0  0  0  0  0108  0  0
  -25.9141  -30.8882   21.3456 C   0  0  0  0  0  0  0  0  0109  0  0
  -25.9930  -29.5029   20.7208 C   0  0  0  0  0  0  0  0  0110  0  0
  -27.1758  -28.7612   20.7331 C   0  0  0  0  0  0  0  0  0111  0  0
  -26.1032  -26.9836   19.5230 C   0  0  0  0  0  0  0  0  0112  0  0
  -24.9097  -27.7011   19.5331 C   0  0  0  0  0  0  0  0  0113  0  0
  -23.5715  -29.7899   20.1582 C   0  0  0  0  0  0  0  0  0114  0  0
  -25.3990  -36.3212   24.0232 C   0  0  1  0  0  0  0  0  0115  0  0
  -20.5793  -28.3813   23.1004 C   0  0  2  0  0  0  0  0  0116  0  0
  -20.6548  -26.9392   22.5411 C   0  0  0  0  0  0  0  0  0117  0  0
  -19.5615  -26.6407   21.5143 C   0  0  0  0  0  0  0  0  0118  0  0
  -18.1797  -26.7818   22.1673 C   0  0  0  0  0  0  0  0  0119  0  0
  -19.1385  -28.8769   23.2988 C   0  0  0  0  0  0  0  0  0120  0  0
  -18.9183  -30.1286   23.8878 C   0  0  0  0  0  0  0  0  0121  0  0
  -17.6396  -30.6493   24.0352 C   0  0  0  0  0  0  0  0  0122  0  0
  -25.9153  -34.9582   23.4993 C   0  0  0  0  0  0  0  0  0123  0  0
  -16.5415  -29.9068   23.6254 C   0  0  0  0  0  0  0  0  0124  0  0
  -16.7331  -28.6521   23.0586 C   0  0  0  0  0  0  0  0  0125  0  0
  -26.4583  -31.6439   25.0683 C   0  0  0  0  0  0  0  0  0126  0  0
  -25.3807  -31.3179   26.1374 C   0  0  0  0  0  0  0  0  0127  0  0
  -27.0530  -30.3024   24.5680 C   0  0  0  0  0  0  0  0  0128  0  0
  -27.6014  -32.4281   25.7651 C   0  0  0  0  0  0  0  0  0129  0  0
  -27.5629  -37.2220   24.8621 C   0  0  0  0  0  0  0  0  0130  0  0
  -21.4133  -29.3375   22.3735 N   0  0  0  0  0  0  0  0  0131  0  0
  -26.4706  -37.3372   23.9061 N   0  0  0  0  0  0  0  0  0132  0  0
  -24.6674  -31.0544   22.1178 N   0  0  0  0  0  0  0  0  0133  0  0
  -23.4259  -28.8150   23.2971 O   0  0  0  0  0  0  0  0  0134  0  0
  -28.3948  -26.7345   20.0089 O   0  0  0  0  0  0  0  0  0135  0  0
  -26.5870  -34.9065   22.4671 O   0  0  0  0  0  0  0  0  0136  0  0
  -23.5365  -32.1254   23.7833 O   0  0  0  0  0  0  0  0  0137  0  0
  -30.2161  -18.3070   20.9208 C   0  0  0  0  0  0  0  0  0  0  0  0
  -32.0656  -17.3862   20.0257 C   0  0  0  0  0  0  0  0  0  0  0  0
  -30.8072  -17.0899   20.5010 C   0  0  0  0  0  0  0  0  0  0  0  0
  -31.1312  -19.3101   20.6891 C   0  0  0  0  0  0  0  0  0  0  0  0
  -30.9738  -20.7616   20.9641 C   0  0  0  0  0  0  0  0  0  0  0  0
  -28.6566  -22.9457   21.6619 C   0  0  0  0  0  0  0  0  0  0  0  0
  -33.4536  -19.4402   19.7507 C   0  0  0  0  0  0  0  0  0  0  0  0
  -29.8799  -22.4571   22.4078 C   0  0  0  0  0  0  0  0  0  0  0  0
  -28.6380  -24.4216   21.3177 C   0  0  0  0  0  0  0  0  0  1  0  0
  -32.2516  -18.7388   20.1446 N   0  0  0  0  0  0  0  0  0  0  0  0
  -30.2353  -15.7944   20.5490 N   0  0  0  0  0  0  0  0  0  0  0  0
  -30.1493  -21.1007   22.0340 N   0  0  0  0  0  0  0  0  0  0  0  0
  -31.5456  -21.5745   20.2424 O   0  0  0  0  0  0  0  0  0  0  0  0
  -27.7095  -22.2061   21.3960 O   0  0  0  0  0  0  0  0  0  0  0  0
  -31.4485  -12.4701   19.0860 H   0  0  0  0  0  0  0  0  0  0  0  0
  -30.3970  -11.2460   19.6950 H   0  0  0  0  0  0  0  0  0  0  0  0
  -29.6870  -11.8204   17.4226 H   0  0  0  0  0  0  0  0  0  0  0  0
  -29.6375  -13.5326   17.8649 H   0  0  0  0  0  0  0  0  0  0  0  0
  -27.7830  -11.3650   18.7904 H   0  0  0  0  0  0  0  0  0  0  0  0
  -27.4028  -12.7801   17.8021 H   0  0  0  0  0  0  0  0  0  0  0  0
  -27.7353  -14.2503   19.6136 H   0  0  0  0  0  0  0  0  0  0  0  0
  -28.5890  -11.9550   21.3832 H   0  0  0  0  0  0  0  0  0  0  0  0
  -28.5005  -13.6134   21.8562 H   0  0  0  0  0  0  0  0  0  0  0  0
  -25.2399   -9.5495   22.4318 H   0  0  0  0  0  0  0  0  0  0  0  0
  -23.9663   -7.5070   22.7297 H   0  0  0  0  0  0  0  0  0  0  0  0
  -21.1515   -8.8641   19.9162 H   0  0  0  0  0  0  0  0  0  0  0  0
  -22.4016  -10.9115   19.6476 H   0  0  0  0  0  0  0  0  0  0  0  0
  -21.2319   -7.5552   23.9750 H   0  0  0  0  0  0  0  0  0  0  0  0
  -21.1589   -6.0228   25.8556 H   0  0  0  0  0  0  0  0  0  0  0  0
  -22.0396   -2.8212   23.2809 H   0  0  0  0  0  0  0  0  0  0  0  0
  -22.4401  -11.9703   22.4008 H   0  0  0  0  0  0  0  0  0  0  0  0
  -21.1493  -13.0679   22.2082 H   0  0  0  0  0  0  0  0  0  0  0  0
  -24.6538  -15.7807   20.5848 H   0  0  0  0  0  0  0  0  0  0  0  0
  -26.2762  -15.5453   20.1156 H   0  0  0  0  0  0  0  0  0  0  0  0
  -26.6778  -32.4663   23.1464 H   0  0  0  0  0  0  0  0  0  0  0  0
  -25.0747  -34.0282   25.0566 H   0  0  0  0  0  0  0  0  0  0  0  0
  -22.7881  -31.3489   21.4131 H   0  0  0  0  0  0  0  0  0  0  0  0
  -23.3854  -35.9823   23.3648 H   0  0  0  0  0  0  0  0  0  0  0  0
  -24.3696  -36.8624   22.2204 H   0  0  0  0  0  0  0  0  0  0  0  0
  -23.7669  -37.6632   23.6516 H   0  0  0  0  0  0  0  0  0  0  0  0
  -25.9445  -31.6237   20.5691 H   0  0  0  0  0  0  0  0  0  0  0  0
  -26.7436  -31.0079   22.0108 H   0  0  0  0  0  0  0  0  0  0  0  0
  -28.0090  -29.1452   21.2057 H   0  0  0  0  0  0  0  0  0  0  0  0
  -26.1369  -26.0560   19.0719 H   0  0  0  0  0  0  0  0  0  0  0  0
  -24.0652  -27.2961   19.0997 H   0  0  0  0  0  0  0  0  0  0  0  0
  -23.6156  -30.5365   19.3930 H   0  0  0  0  0  0  0  0  0  0  0  0
  -22.7355  -29.1425   19.9945 H   0  0  0  0  0  0  0  0  0  0  0  0
  -25.1353  -36.2335   25.0565 H   0  0  0  0  0  0  0  0  0  0  0  0
  -21.0070  -28.3206   24.0793 H   0  0  0  0  0  0  0  0  0  0  0  0
  -20.5555  -26.2518   23.3550 H   0  0  0  0  0  0  0  0  0  0  0  0
  -21.5974  -26.8362   22.0454 H   0  0  0  0  0  0  0  0  0  0  0  0
  -19.6810  -25.6422   21.1488 H   0  0  0  0  0  0  0  0  0  0  0  0
  -19.6406  -27.3343   20.7034 H   0  0  0  0  0  0  0  0  0  0  0  0
  -17.4282  -26.6888   21.4113 H   0  0  0  0  0  0  0  0  0  0  0  0
  -18.0803  -26.0130   22.9049 H   0  0  0  0  0  0  0  0  0  0  0  0
  -19.7265  -30.6774   24.2204 H   0  0  0  0  0  0  0  0  0  0  0  0
  -17.5064  -31.5856   24.4483 H   0  0  0  0  0  0  0  0  0  0  0  0
  -15.5878  -30.2839   23.7407 H   0  0  0  0  0  0  0  0  0  0  0  0
  -15.9120  -28.0941   22.7766 H   0  0  0  0  0  0  0  0  0  0  0  0
  -24.5787  -30.7757   25.6817 H   0  0  0  0  0  0  0  0  0  0  0  0
  -25.0041  -32.2289   26.5536 H   0  0  0  0  0  0  0  0  0  0  0  0
  -25.8166  -30.7245   26.9138 H   0  0  0  0  0  0  0  0  0  0  0  0
  -26.2892  -29.7335   24.0803 H   0  0  0  0  0  0  0  0  0  0  0  0
  -27.4336  -29.7484   25.4006 H   0  0  0  0  0  0  0  0  0  0  0  0
  -27.8466  -30.4994   23.8779 H   0  0  0  0  0  0  0  0  0  0  0  0
  -27.2251  -33.3632   26.1242 H   0  0  0  0  0  0  0  0  0  0  0  0
  -28.3902  -32.6065   25.0645 H   0  0  0  0  0  0  0  0  0  0  0  0
  -27.9772  -31.8555   26.5872 H   0  0  0  0  0  0  0  0  0  0  0  0
  -28.2744  -38.0016   24.6863 H   0  0  0  0  0  0  0  0  0  0  0  0
  -28.0396  -36.2711   24.7461 H   0  0  0  0  0  0  0  0  0  0  0  0
  -27.1773  -37.3087   25.8564 H   0  0  0  0  0  0  0  0  0  0  0  0
  -20.9627  -29.9365   21.7352 H   0  0  0  0  0  0  0  0  0  0  0  0
  -26.0447  -38.2561   24.0273 H   0  0  0  0  0  0  0  0  0  0  0  0
  -29.2737  -18.4210   21.3256 H   0  0  0  0  0  0  0  0  0  0  0  0
  -32.7472  -16.7099   19.6473 H   0  0  0  0  0  0  0  0  0  0  0  0
  -34.1619  -18.7411   19.3576 H   0  0  0  0  0  0  0  0  0  0  0  0
  -33.8741  -19.9333   20.6022 H   0  0  0  0  0  0  0  0  0  0  0  0
  -33.2141  -20.1651   19.0010 H   0  0  0  0  0  0  0  0  0  0  0  0
  -29.7010  -22.5091   23.4615 H   0  0  0  0  0  0  0  0  0  0  0  0
  -30.7204  -23.0716   22.1611 H   0  0  0  0  0  0  0  0  0  0  0  0
  -29.6438  -24.6019   21.6353 H   0  0  0  0  0  0  0  0  0  0  0  0
  -27.5715  -24.3455   21.2763 H   0  0  0  0  0  0  0  0  0  0  0  0
  -29.2526  -15.8220   20.4954 H   0  0  0  0  0  0  0  0  0  0  0  0
  -29.7336  -20.3769   22.5560 H   0  0  0  0  0  0  0  0  0  0  0  0
  1 25  1  0
  1 30  2  0
  1 81  1  0
  2  3  1  0
  2 25  1  0
  2 85  1  0
  2 86  1  0
  3  4  1  0
  3 87  1  0
  3 88  1  0
  4  5  1  0
  4 89  1  0
  4 90  1  0
  5  6  1  0
  5 26  1  0
  5 91  1  6
  6 25  1  0
  6 92  1  0
  6 93  1  0
  7  8  2  0
  7 26  1  0
  7 29  1  0
  8  9  1  0
  8 22  1  0
  9 10  1  0
  9 27  2  0
 10 11  2  0
 10 15  1  0
 11 12  1  0
 11 94  1  0
 12 13  2  0
 12 95  1  0
 13 14  1  0
 13 31  1  0
 14 15  2  0
 14 96  1  0
 15 97  1  0
 16 17  2  0
 16 21  1  0
 16 31  1  0
 17 18  1  0
 17 98  1  0
 18 19  2  0
 18 99  1  0
 19 20  1  0
 19 24  1  0
 20 21  2  0
 20100  1  0
 21 23  1  0
 22 28  1  0
 22 32  2  0
 26 27  1  0
 28101  1  0
 28102  1  0
 29103  1  0
 29104  1  0
 33 34  1  0
 33 66  1  0
 33 70  2  0
 34 36  1  0
 34 59  1  0
 34105  1  6
 35 44  2  0
 35 45  1  0
 35 68  1  0
 36 56  1  0
 36106  1  0
 37 39  1  0
 37 47  1  0
 37 66  1  0
 37107  1  6
 38 43  2  0
 38 46  1  0
 38 47  1  0
 39 64  1  0
 39 67  2  0
 40 52  1  0
 40 53  2  0
 40 58  1  0
 41108  1  0
 41109  1  0
 41110  1  0
 42 43  1  0
 42 66  1  0
 42111  1  0
 42112  1  0
 43 44  1  0
 44113  1  0
 45 46  2  0
 45114  1  0
 46115  1  0
 47116  1  0
 47117  1  0
 48 41  1  0
 48 56  1  0
 48 65  1  0
 48118  1  1
 49 50  1  0
 49 53  1  0
 49 64  1  0
 49119  1  1
 50 51  1  0
 50120  1  0
 50121  1  0
 51 52  1  0
 51122  1  0
 51123  1  0
 52124  1  0
 52125  1  0
 53 54  1  0
 54 55  2  0
 54126  1  0
 55 57  1  0
 55127  1  0
 56 69  2  0
 57 58  2  0
 57128  1  0
 58129  1  0
 59 60  1  0
 59 61  1  0
 59 62  1  0
 60130  1  0
 60131  1  0
 60132  1  0
 61133  1  0
 61134  1  0
 61135  1  0
 62136  1  0
 62137  1  0
 62138  1  0
 63 65  1  0
 63139  1  0
 63140  1  0
 63141  1  0
 64142  1  0
 65143  1  0
 68 79  1  0
 71 73  1  0
 71 74  2  0
 71144  1  0
 72 73  2  0
 72 80  1  0
 72145  1  0
 73 81  1  0
 74 75  1  0
 74 80  1  0
 75 82  1  0
 75 83  2  0
 76 78  1  0
 76 79  1  0
 76 84  2  0
 77 80  1  0
 77146  1  0
 77147  1  0
 77148  1  0
 78 82  1  0
 78149  1  0
 78150  1  0
 79151  1  0
 79152  1  0
 81153  1  0
 82154  1  0
M  ISO  4   1 100  68 101  79 101  81 100
M  END
$$$$
21
     RDKit          3D

157165  0  0  0  0  0  0  0  0999 V2000
  -30.7652  -14.3608   20.6636 C   0  0  0  0  0  0  0  0  0100  0  0
  -30.4392  -12.2669   19.3775 C   0  0  0  0  0  0  0  0  0101  0  0
  -29.4791  -12.5281   18.1977 C   0  0  0  0  0  0  0  0  0102  0  0
  -27.9985  -12.3963   18.6038 C   0  0  0  0  0  0  0  0  0103  0  0
  -27.6639  -13.2170   19.8820 C   0  0  2  0  0  0  0  0  0104  0  0
  -28.6795  -12.9602   21.0279 C   0  0  0  0  0  0  0  0  0105  0  0
  -25.2633  -13.8245   20.5754 C   0  0  0  0  0  0  0  0  0106  0  0
  -24.1645  -13.0409   20.9408 C   0  0  0  0  0  0  0  0  0107  0  0
  -24.6400  -11.7009   20.8697 C   0  0  0  0  0  0  0  0  0108  0  0
  -23.9005  -10.4085   21.0420 C   0  0  0  0  0  0  0  0  0109  0  0
  -24.3588   -9.4123   21.9123 C   0  0  0  0  0  0  0  0  0110  0  0
  -23.6296   -8.2350   22.0803 C   0  0  0  0  0  0  0  0  0111  0  0
  -22.4385   -8.0419   21.3657 C   0  0  0  0  0  0  0  0  0112  0  0
  -22.0103   -9.0167   20.4678 C   0  0  0  0  0  0  0  0  0113  0  0
  -22.7317  -10.1925   20.3102 C   0  0  0  0  0  0  0  0  0114  0  0
  -21.6857   -6.0709   22.5391 C   0  0  0  0  0  0  0  0  0115  0  0
  -21.4064   -6.5490   23.8264 C   0  0  0  0  0  0  0  0  0116  0  0
  -21.3635   -5.6677   24.9085 C   0  0  0  0  0  0  0  0  0117  0  0
  -21.5973   -4.3067   24.7088 C   0  0  0  0  0  0  0  0  0118  0  0
  -21.8700   -3.8284   23.4282 C   0  0  0  0  0  0  0  0  0119  0  0
  -21.9144   -4.7056   22.3460 C   0  0  0  0  0  0  0  0  0120  0  0
  -22.8194  -13.5263   21.1763 C   0  0  0  0  0  0  0  0  0121  0  0
  -22.1559   -4.2206   21.1063 F   0  0  0  0  0  0  0  0  0122  0  0
  -21.5628   -3.4510   25.7555 F   0  0  0  0  0  0  0  0  0123  0  0
  -30.0261  -13.1803   20.4553 N   0  0  0  0  0  0  0  0  0124  0  0
  -26.2911  -12.9356   20.3443 N   0  0  0  0  0  0  0  0  0125  0  0
  -25.9236  -11.6675   20.5847 N   0  0  0  0  0  0  0  0  0126  0  0
  -22.0708  -12.7905   22.0005 N   0  0  0  0  0  0  0  0  0127  0  0
  -25.4117  -15.1773   20.4097 N   0  0  0  0  0  0  0  0  0128  0  0
  -31.7916  -14.6724   20.0536 O   0  0  0  0  0  0  0  0  0129  0  0
  -21.6670   -6.9022   21.4423 O   0  0  0  0  0  0  0  0  0130  0  0
  -22.3946  -14.5564   20.6568 O   0  0  0  0  0  0  0  0  0131  0  0
  -24.6048  -31.8614   23.2223 C   0  0  0  0  0  0  0  0  0100  0  0
  -25.8822  -32.4841   23.8616 C   0  0  1  0  0  0  0  0  0101  0  0
  -27.2536  -27.5042   20.1156 C   0  0  0  0  0  0  0  0  0102  0  0
  -25.5726  -33.8762   24.2210 N   0  0  0  0  0  0  0  0  0103  0  0
  -23.4066  -30.4859   21.5461 C   0  0  2  0  0  0  0  0  0104  0  0
  -24.8467  -28.9636   20.1247 C   0  0  0  0  0  0  0  0  0105  0  0
  -22.7412  -29.4652   22.5052 C   0  0  0  0  0  0  0  0  0106  0  0
  -18.0167  -28.1302   22.8626 C   0  0  0  0  0  0  0  0  0107  0  0
  -24.1342  -36.7390   23.2568 C   0  0  0  0  0  0  0  0  0108  0  0
  -25.9141  -30.8882   21.3456 C   0  0  0  0  0  0  0  0  0109  0  0
  -25.9930  -29.5029   20.7208 C   0  0  0  0  0  0  0  0  0110  0  0
  -27.1758  -28.7612   20.7331 C   0  0  0  0  0  0  0  0  0111  0  0
  -26.1032  -26.9836   19.5230 C   0  0  0  0  0  0  0  0  0112  0  0
  -24.9097  -27.7011   19.5331 C   0  0  0  0  0  0  0  0  0113  0  0
  -23.5715  -29.7899   20.1582 C   0  0  0  0  0  0  0  0  0114  0  0
  -25.3990  -36.3212   24.0232 C   0  0  1  0  0  0  0  0  0115  0  0
  -20.5793  -28.3813   23.1004 C   0  0  2  0  0  0  0  0  0116  0  0
  -20.6548  -26.9392   22.5411 C   0  0  0  0  0  0  0  0  0117  0  0
  -19.5615  -26.6407   21.5143 C   0  0  0  0  0  0  0  0  0118  0  0
  -18.1797  -26.7818   22.1673 C   0  0  0  0  0  0  0  0  0119  0  0
  -19.1385  -28.8769   23.2988 C   0  0  0  0  0  0  0  0  0120  0  0
  -18.9183  -30.1286   23.8878 C   0  0  0  0  0  0  0  0  0121  0  0
  -17.6396  -30.6493   24.0352 C   0  0  0  0  0  0  0  0  0122  0  0
  -25.9153  -34.9582   23.4993 C   0  0  0  0  0  0  0  0  0123  0  0
  -16.5415  -29.9068   23.6254 C   0  0  0  0  0  0  0  0  0124  0  0
  -16.7331  -28.6521   23.0586 C   0  0  0  0  0  0  0  0  0125  0  0
  -26.4583  -31.6439   25.0683 C   0  0  0  0  0  0  0  0  0126  0  0
  -25.3807  -31.3179   26.1374 C   0  0  0  0  0  0  0  0  0127  0  0
  -27.0530  -30.3024   24.5680 C   0  0  0  0  0  0  0  0  0128  0  0
  -27.6014  -32.4281   25.7651 C   0  0  0  0  0  0  0  0  0129  0  0
  -27.5629  -37.2220   24.8621 C   0  0  0  0  0  0  0  0  0130  0  0
  -21.4133  -29.3375   22.3735 N   0  0  0  0  0  0  0  0  0131  0  0
  -26.4706  -37.3372   23.9061 N   0  0  0  0  0  0  0  0  0132  0  0
  -24.6674  -31.0544   22.1178 N   0  0  0  0  0  0  0  0  0133  0  0
  -23.4259  -28.8150   23.2971 O   0  0  0  0  0  0  0  0  0134  0  0
  -28.3948  -26.7345   20.0089 O   0  0  0  0  0  0  0  0  0135  0  0
  -26.5870  -34.9065   22.4671 O   0  0  0  0  0  0  0  0  0136  0  0
  -23.5365  -32.1254   23.7833 O   0  0  0  0  0  0  0  0  0137  0  0
  -31.2374  -19.0176   20.3480 C   0  0  0  0  0  0  0  0  0  0  0  0
  -31.0715  -17.6359   20.4418 C   0  0  0  0  0  0  0  0  0  0  0  0
  -30.4614  -19.8683   21.1353 C   0  0  0  0  0  0  0  0  0  0  0  0
  -30.1294  -17.1048   21.3228 C   0  0  0  0  0  0  0  0  0  0  0  0
  -29.5194  -19.3372   22.0163 C   0  0  0  0  0  0  0  0  0  0  0  0
  -29.3534  -17.9555   22.1101 C   0  0  0  0  0  0  0  0  0  0  0  0
  -30.6638  -21.3388   21.0105 C   0  0  0  0  0  0  0  0  0  0  0  0
  -28.5196  -24.1184   20.1107 C   0  0  0  0  0  0  0  0  0  0  0  0
  -32.0385  -21.8937   21.3254 C   0  0  0  0  0  0  0  0  0  0  0  0
  -29.8316  -23.5087   20.5532 C   0  0  0  0  0  0  0  0  0  0  0  0
  -28.5184  -25.6261   19.9582 C   0  0  0  0  0  0  0  0  0  1  0  0
  -29.6594  -22.0619   20.6519 N   0  0  0  0  0  0  0  0  0  0  0  0
  -28.7248  -20.1840   22.8212 N   0  0  0  0  0  0  0  0  0  0  0  0
  -29.9633  -15.7006   21.4155 N   0  0  0  0  0  0  0  0  0  0  0  0
  -27.5159  -23.4427   19.8875 O   0  0  0  0  0  0  0  0  0  0  0  0
  -28.4474  -17.4440   22.9577 F   0  0  0  0  0  0  0  0  0  0  0  0
  -31.4485  -12.4701   19.0860 H   0  0  0  0  0  0  0  0  0  0  0  0
  -30.3970  -11.2460   19.6950 H   0  0  0  0  0  0  0  0  0  0  0  0
  -29.6870  -11.8204   17.4226 H   0  0  0  0  0  0  0  0  0  0  0  0
  -29.6375  -13.5326   17.8649 H   0  0  0  0  0  0  0  0  0  0  0  0
  -27.7830  -11.3650   18.7904 H   0  0  0  0  0  0  0  0  0  0  0  0
  -27.4028  -12.7801   17.8021 H   0  0  0  0  0  0  0  0  0  0  0  0
  -27.7353  -14.2503   19.6136 H   0  0  0  0  0  0  0  0  0  0  0  0
  -28.5890  -11.9550   21.3832 H   0  0  0  0  0  0  0  0  0  0  0  0
  -28.5005  -13.6134   21.8562 H   0  0  0  0  0  0  0  0  0  0  0  0
  -25.2399   -9.5495   22.4318 H   0  0  0  0  0  0  0  0  0  0  0  0
  -23.9663   -7.5070   22.7297 H   0  0  0  0  0  0  0  0  0  0  0  0
  -21.1515   -8.8641   19.9162 H   0  0  0  0  0  0  0  0  0  0  0  0
  -22.4016  -10.9115   19.6476 H   0  0  0  0  0  0  0  0  0  0  0  0
  -21.2319   -7.5552   23.9750 H   0  0  0  0  0  0  0  0  0  0  0  0
  -21.1589   -6.0228   25.8556 H   0  0  0  0  0  0  0  0  0  0  0  0
  -22.0396   -2.8212   23.2809 H   0  0  0  0  0  0  0  0  0  0  0  0
  -22.4401  -11.9703   22.4008 H   0  0  0  0  0  0  0  0  0  0  0  0
  -21.1493  -13.0679   22.2082 H   0  0  0  0  0  0  0  0  0  0  0  0
  -24.6538  -15.7807   20.5848 H   0  0  0  0  0  0  0  0  0  0  0  0
  -26.2762  -15.5453   20.1156 H   0  0  0  0  0  0  0  0  0  0  0  0
  -26.6778  -32.4663   23.1464 H   0  0  0  0  0  0  0  0  0  0  0  0
  -25.0747  -34.0282   25.0566 H   0  0  0  0  0  0  0  0  0  0  0  0
  -22.7881  -31.3489   21.4131 H   0  0  0  0  0  0  0  0  0  0  0  0
  -23.3854  -35.9823   23.3648 H   0  0  0  0  0  0  0  0  0  0  0  0
  -24.3696  -36.8624   22.2204 H   0  0  0  0  0  0  0  0  0  0  0  0
  -23.7669  -37.6632   23.6516 H   0  0  0  0  0  0  0  0  0  0  0  0
  -25.9445  -31.6237   20.5691 H   0  0  0  0  0  0  0  0  0  0  0  0
  -26.7436  -31.0079   22.0108 H   0  0  0  0  0  0  0  0  0  0  0  0
  -28.0090  -29.1452   21.2057 H   0  0  0  0  0  0  0  0  0  0  0  0
  -26.1369  -26.0560   19.0719 H   0  0  0  0  0  0  0  0  0  0  0  0
  -24.0652  -27.2961   19.0997 H   0  0  0  0  0  0  0  0  0  0  0  0
  -23.6156  -30.5365   19.3930 H   0  0  0  0  0  0  0  0  0  0  0  0
  -22.7355  -29.1425   19.9945 H   0  0  0  0  0  0  0  0  0  0  0  0
  -25.1353  -36.2335   25.0565 H   0  0  0  0  0  0  0  0  0  0  0  0
  -21.0070  -28.3206   24.0793 H   0  0  0  0  0  0  0  0  0  0  0  0
  -20.5555  -26.2518   23.3550 H   0  0  0  0  0  0  0  0  0  0  0  0
  -21.5974  -26.8362   22.0454 H   0  0  0  0  0  0  0  0  0  0  0  0
  -19.6810  -25.6422   21.1488 H   0  0  0  0  0  0  0  0  0  0  0  0
  -19.6406  -27.3343   20.7034 H   0  0  0  0  0  0  0  0  0  0  0  0
  -17.4282  -26.6888   21.4113 H   0  0  0  0  0  0  0  0  0  0  0  0
  -18.0803  -26.0130   22.9049 H   0  0  0  0  0  0  0  0  0  0  0  0
  -19.7265  -30.6774   24.2204 H   0  0  0  0  0  0  0  0  0  0  0  0
  -17.5064  -31.5856   24.4483 H   0  0  0  0  0  0  0  0  0  0  0  0
  -15.5878  -30.2839   23.7407 H   0  0  0  0  0  0  0  0  0  0  0  0
  -15.9120  -28.0941   22.7766 H   0  0  0  0  0  0  0  0  0  0  0  0
  -24.5787  -30.7757   25.6817 H   0  0  0  0  0  0  0  0  0  0  0  0
  -25.0041  -32.2289   26.5536 H   0  0  0  0  0  0  0  0  0  0  0  0
  -25.8166  -30.7245   26.9138 H   0  0  0  0  0  0  0  0  0  0  0  0
  -26.2892  -29.7335   24.0803 H   0  0  0  0  0  0  0  0  0  0  0  0
  -27.4336  -29.7484   25.4006 H   0  0  0  0  0  0  0  0  0  0  0  0
  -27.8466  -30.4994   23.8779 H   0  0  0  0  0  0  0  0  0  0  0  0
  -27.2251  -33.3632   26.1242 H   0  0  0  0  0  0  0  0  0  0  0  0
  -28.3902  -32.6065   25.0645 H   0  0  0  0  0  0  0  0  0  0  0  0
  -27.9772  -31.8555   26.5872 H   0  0  0  0  0  0  0  0  0  0  0  0
  -28.2744  -38.0016   24.6863 H   0  0  0  0  0  0  0  0  0  0  0  0
  -28.0396  -36.2711   24.7461 H   0  0  0  0  0  0  0  0  0  0  0  0
  -27.1773  -37.3087   25.8564 H   0  0  0  0  0  0  0  0  0  0  0  0
  -20.9627  -29.9365   21.7352 H   0  0  0  0  0  0  0  0  0  0  0  0
  -26.0447  -38.2561   24.0273 H   0  0  0  0  0  0  0  0  0  0  0  0
  -31.9343  -19.4105   19.6961 H   0  0  0  0  0  0  0  0  0  0  0  0
  -31.6457  -17.0065   19.8594 H   0  0  0  0  0  0  0  0  0  0  0  0
  -32.6931  -21.0920   21.5968 H   0  0  0  0  0  0  0  0  0  0  0  0
  -31.9662  -22.5858   22.1382 H   0  0  0  0  0  0  0  0  0  0  0  0
  -32.4268  -22.3951   20.4635 H   0  0  0  0  0  0  0  0  0  0  0  0
  -30.1104  -23.9050   21.5072 H   0  0  0  0  0  0  0  0  0  0  0  0
  -30.6005  -23.7393   19.8457 H   0  0  0  0  0  0  0  0  0  0  0  0
  -28.1935  -25.5796   18.9398 H   0  0  0  0  0  0  0  0  0  0  0  0
  -29.0064  -25.6799   20.9089 H   0  0  0  0  0  0  0  0  0  0  0  0
  -28.8327  -21.1609   22.7640 H   0  0  0  0  0  0  0  0  0  0  0  0
  -28.0633  -19.7971   23.4392 H   0  0  0  0  0  0  0  0  0  0  0  0
  -29.2457  -15.4310   22.0333 H   0  0  0  0  0  0  0  0  0  0  0  0
  1 25  1  0
  1 30  2  0
  1 84  1  0
  2  3  1  0
  2 25  1  0
  2 87  1  0
  2 88  1  0
  3  4  1  0
  3 89  1  0
  3 90  1  0
  4  5  1  0
  4 91  1  0
  4 92  1  0
  5  6  1  0
  5 26  1  0
  5 93  1  6
  6 25  1  0
  6 94  1  0
  6 95  1  0
  7  8  2  0
  7 26  1  0
  7 29  1  0
  8  9  1  0
  8 22  1  0
  9 10  1  0
  9 27  2  0
 10 11  2  0
 10 15  1  0
 11 12  1  0
 11 96  1  0
 12 13  2  0
 12 97  1  0
 13 14  1  0
 13 31  1  0
 14 15  2  0
 14 98  1  0
 15 99  1  0
 16 17  2  0
 16 21  1  0
 16 31  1  0
 17 18  1  0
 17100  1  0
 18 19  2  0
 18101  1  0
 19 20  1  0
 19 24  1  0
 20 21  2  0
 20102  1  0
 21 23  1  0
 22 28  1  0
 22 32  2  0
 26 27  1  0
 28103  1  0
 28104  1  0
 29105  1  0
 29106  1  0
 33 34  1  0
 33 66  1  0
 33 70  2  0
 34 36  1  0
 34 59  1  0
 34107  1  6
 35 44  2  0
 35 45  1  0
 35 68  1  0
 36 56  1  0
 36108  1  0
 37 39  1  0
 37 47  1  0
 37 66  1  0
 37109  1  6
 38 43  2  0
 38 46  1  0
 38 47  1  0
 39 64  1  0
 39 67  2  0
 40 52  1  0
 40 53  2  0
 40 58  1  0
 41110  1  0
 41111  1  0
 41112  1  0
 42 43  1  0
 42 66  1  0
 42113  1  0
 42114  1  0
 43 44  1  0
 44115  1  0
 45 46  2  0
 45116  1  0
 46117  1  0
 47118  1  0
 47119  1  0
 48 41  1  0
 48 56  1  0
 48 65  1  0
 48120  1  1
 49 50  1  0
 49 53  1  0
 49 64  1  0
 49121  1  1
 50 51  1  0
 50122  1  0
 50123  1  0
 51 52  1  0
 51124  1  0
 51125  1  0
 52126  1  0
 52127  1  0
 53 54  1  0
 54 55  2  0
 54128  1  0
 55 57  1  0
 55129  1  0
 56 69  2  0
 57 58  2  0
 57130  1  0
 58131  1  0
 59 60  1  0
 59 61  1  0
 59 62  1  0
 60132  1  0
 60133  1  0
 60134  1  0
 61135  1  0
 61136  1  0
 61137  1  0
 62138  1  0
 62139  1  0
 62140  1  0
 63 65  1  0
 63141  1  0
 63142  1  0
 63143  1  0
 64144  1  0
 65145  1  0
 68 81  1  0
 71 72  2  0
 71 73  1  0
 71146  1  0
 72 74  1  0
 72147  1  0
 73 75  2  0
 73 77  1  0
 74 76  2  0
 74 84  1  0
 75 76  1  0
 75 83  1  0
 76 86  1  0
 77 79  1  0
 77 82  2  0
 78 80  1  0
 78 81  1  0
 78 85  2  0
 79148  1  0
 79149  1  0
 79150  1  0
 80 82  1  0
 80151  1  0
 80152  1  0
 81153  1  0
 81154  1  0
 83155  1  0
 83156  1  0
 84157  1  0
M  ISO  4   1 100  68 101  81 101  84 100
M  END
$$$$
22
     RDKit          3D

159167  0  0  0  0  0  0  0  0999 V2000
  -30.7652  -14.3608   20.6636 C   0  0  0  0  0  0  0  0  0100  0  0
  -30.4392  -12.2669   19.3775 C   0  0  0  0  0  0  0  0  0101  0  0
  -29.4791  -12.5281   18.1977 C   0  0  0  0  0  0  0  0  0102  0  0
  -27.9985  -12.3963   18.6038 C   0  0  0  0  0  0  0  0  0103  0  0
  -27.6639  -13.2170   19.8820 C   0  0  2  0  0  0  0  0  0104  0  0
  -28.6795  -12.9602   21.0279 C   0  0  0  0  0  0  0  0  0105  0  0
  -25.2633  -13.8245   20.5754 C   0  0  0  0  0  0  0  0  0106  0  0
  -24.1645  -13.0409   20.9408 C   0  0  0  0  0  0  0  0  0107  0  0
  -24.6400  -11.7009   20.8697 C   0  0  0  0  0  0  0  0  0108  0  0
  -23.9005  -10.4085   21.0420 C   0  0  0  0  0  0  0  0  0109  0  0
  -24.3588   -9.4123   21.9123 C   0  0  0  0  0  0  0  0  0110  0  0
  -23.6296   -8.2350   22.0803 C   0  0  0  0  0  0  0  0  0111  0  0
  -22.4385   -8.0419   21.3657 C   0  0  0  0  0  0  0  0  0112  0  0
  -22.0103   -9.0167   20.4678 C   0  0  0  0  0  0  0  0  0113  0  0
  -22.7317  -10.1925   20.3102 C   0  0  0  0  0  0  0  0  0114  0  0
  -21.6857   -6.0709   22.5391 C   0  0  0  0  0  0  0  0  0115  0  0
  -21.4064   -6.5490   23.8264 C   0  0  0  0  0  0  0  0  0116  0  0
  -21.3635   -5.6677   24.9085 C   0  0  0  0  0  0  0  0  0117  0  0
  -21.5973   -4.3067   24.7088 C   0  0  0  0  0  0  0  0  0118  0  0
  -21.8700   -3.8284   23.4282 C   0  0  0  0  0  0  0  0  0119  0  0
  -21.9144   -4.7056   22.3460 C   0  0  0  0  0  0  0  0  0120  0  0
  -22.8194  -13.5263   21.1763 C   0  0  0  0  0  0  0  0  0121  0  0
  -22.1559   -4.2206   21.1063 F   0  0  0  0  0  0  0  0  0122  0  0
  -21.5628   -3.4510   25.7555 F   0  0  0  0  0  0  0  0  0123  0  0
  -30.0261  -13.1803   20.4553 N   0  0  0  0  0  0  0  0  0124  0  0
  -26.2911  -12.9356   20.3443 N   0  0  0  0  0  0  0  0  0125  0  0
  -25.9236  -11.6675   20.5847 N   0  0  0  0  0  0  0  0  0126  0  0
  -22.0708  -12.7905   22.0005 N   0  0  0  0  0  0  0  0  0127  0  0
  -25.4117  -15.1773   20.4097 N   0  0  0  0  0  0  0  0  0128  0  0
  -31.7916  -14.6724   20.0536 O   0  0  0  0  0  0  0  0  0129  0  0
  -21.6670   -6.9022   21.4423 O   0  0  0  0  0  0  0  0  0130  0  0
  -22.3946  -14.5564   20.6568 O   0  0  0  0  0  0  0  0  0131  0  0
  -24.6048  -31.8614   23.2223 C   0  0  0  0  0  0  0  0  0100  0  0
  -25.8822  -32.4841   23.8616 C   0  0  1  0  0  0  0  0  0101  0  0
  -27.2536  -27.5042   20.1156 C   0  0  0  0  0  0  0  0  0102  0  0
  -25.5726  -33.8762   24.2210 N   0  0  0  0  0  0  0  0  0103  0  0
  -23.4066  -30.4859   21.5461 C   0  0  2  0  0  0  0  0  0104  0  0
  -24.8467  -28.9636   20.1247 C   0  0  0  0  0  0  0  0  0105  0  0
  -22.7412  -29.4652   22.5052 C   0  0  0  0  0  0  0  0  0106  0  0
  -18.0167  -28.1302   22.8626 C   0  0  0  0  0  0  0  0  0107  0  0
  -24.1342  -36.7390   23.2568 C   0  0  0  0  0  0  0  0  0108  0  0
  -25.9141  -30.8882   21.3456 C   0  0  0  0  0  0  0  0  0109  0  0
  -25.9930  -29.5029   20.7208 C   0  0  0  0  0  0  0  0  0110  0  0
  -27.1758  -28.7612   20.7331 C   0  0  0  0  0  0  0  0  0111  0  0
  -26.1032  -26.9836   19.5230 C   0  0  0  0  0  0  0  0  0112  0  0
  -24.9097  -27.7011   19.5331 C   0  0  0  0  0  0  0  0  0113  0  0
  -23.5715  -29.7899   20.1582 C   0  0  0  0  0  0  0  0  0114  0  0
  -25.3990  -36.3212   24.0232 C   0  0  1  0  0  0  0  0  0115  0  0
  -20.5793  -28.3813   23.1004 C   0  0  2  0  0  0  0  0  0116  0  0
  -20.6548  -26.9392   22.5411 C   0  0  0  0  0  0  0  0  0117  0  0
  -19.5615  -26.6407   21.5143 C   0  0  0  0  0  0  0  0  0118  0  0
  -18.1797  -26.7818   22.1673 C   0  0  0  0  0  0  0  0  0119  0  0
  -19.1385  -28.8769   23.2988 C   0  0  0  0  0  0  0  0  0120  0  0
  -18.9183  -30.1286   23.8878 C   0  0  0  0  0  0  0  0  0121  0  0
  -17.6396  -30.6493   24.0352 C   0  0  0  0  0  0  0  0  0122  0  0
  -25.9153  -34.9582   23.4993 C   0  0  0  0  0  0  0  0  0123  0  0
  -16.5415  -29.9068   23.6254 C   0  0  0  0  0  0  0  0  0124  0  0
  -16.7331  -28.6521   23.0586 C   0  0  0  0  0  0  0  0  0125  0  0
  -26.4583  -31.6439   25.0683 C   0  0  0  0  0  0  0  0  0126  0  0
  -25.3807  -31.3179   26.1374 C   0  0  0  0  0  0  0  0  0127  0  0
  -27.0530  -30.3024   24.5680 C   0  0  0  0  0  0  0  0  0128  0  0
  -27.6014  -32.4281   25.7651 C   0  0  0  0  0  0  0  0  0129  0  0
  -27.5629  -37.2220   24.8621 C   0  0  0  0  0  0  0  0  0130  0  0
  -21.4133  -29.3375   22.3735 N   0  0  0  0  0  0  0  0  0131  0  0
  -26.4706  -37.3372   23.9061 N   0  0  0  0  0  0  0  0  0132  0  0
  -24.6674  -31.0544   22.1178 N   0  0  0  0  0  0  0  0  0133  0  0
  -23.4259  -28.8150   23.2971 O   0  0  0  0  0  0  0  0  0134  0  0
  -28.3948  -26.7345   20.0089 O   0  0  0  0  0  0  0  0  0135  0  0
  -26.5870  -34.9065   22.4671 O   0  0  0  0  0  0  0  0  0136  0  0
  -23.5365  -32.1254   23.7833 O   0  0  0  0  0  0  0  0  0137  0  0
  -32.2071  -18.0419   23.2972 C   0  0  0  0  0  0  0  0  0  0  0  0
  -31.7039  -17.0538   22.4511 C   0  0  0  0  0  0  0  0  0  0  0  0
  -29.4599  -17.8565   22.8482 C   0  0  0  0  0  0  0  0  0  0  0  0
  -31.3367  -18.9373   23.9189 C   0  0  0  0  0  0  0  0  0  0  0  0
  -30.3303  -16.9611   22.2265 C   0  0  0  0  0  0  0  0  0  0  0  0
  -29.9632  -18.8446   23.6944 C   0  0  0  0  0  0  0  0  0  0  0  0
  -31.8741  -19.9851   24.8173 C   0  0  0  0  0  0  0  0  0  0  0  0
  -32.7292  -21.9514   26.9563 C   0  0  0  0  0  0  0  0  0  0  0  0
  -31.7576  -20.8422   27.1940 C   0  0  0  0  0  0  0  0  0  0  0  0
  -30.3240  -19.7283   28.9033 C   0  0  0  0  0  0  0  0  0  0  0  0
  -32.1402  -23.2624   26.5054 C   0  0  0  0  0  0  0  0  0  1  0  0
  -32.7316  -20.8476   24.2697 N   0  0  0  0  0  0  0  0  0  0  0  0
  -29.8198  -15.9572   21.3667 N   0  0  0  0  0  0  0  0  0  0  0  0
  -31.4359  -19.9749   26.0868 N   0  0  0  0  0  0  0  0  0  0  0  0
  -31.2864  -20.7162   28.3871 N   0  0  0  0  0  0  0  0  0  0  0  0
  -33.9145  -21.7207   27.1401 O   0  0  0  0  0  0  0  0  0  0  0  0
  -29.1188  -19.6993   24.2887 F   0  0  0  0  0  0  0  0  0  0  0  0
  -31.4485  -12.4701   19.0860 H   0  0  0  0  0  0  0  0  0  0  0  0
  -30.3970  -11.2460   19.6950 H   0  0  0  0  0  0  0  0  0  0  0  0
  -29.6870  -11.8204   17.4226 H   0  0  0  0  0  0  0  0  0  0  0  0
  -29.6375  -13.5326   17.8649 H   0  0  0  0  0  0  0  0  0  0  0  0
  -27.7830  -11.3650   18.7904 H   0  0  0  0  0  0  0  0  0  0  0  0
  -27.4028  -12.7801   17.8021 H   0  0  0  0  0  0  0  0  0  0  0  0
  -27.7353  -14.2503   19.6136 H   0  0  0  0  0  0  0  0  0  0  0  0
  -28.5890  -11.9550   21.3832 H   0  0  0  0  0  0  0  0  0  0  0  0
  -28.5005  -13.6134   21.8562 H   0  0  0  0  0  0  0  0  0  0  0  0
  -25.2399   -9.5495   22.4318 H   0  0  0  0  0  0  0  0  0  0  0  0
  -23.9663   -7.5070   22.7297 H   0  0  0  0  0  0  0  0  0  0  0  0
  -21.1515   -8.8641   19.9162 H   0  0  0  0  0  0  0  0  0  0  0  0
  -22.4016  -10.9115   19.6476 H   0  0  0  0  0  0  0  0  0  0  0  0
  -21.2319   -7.5552   23.9750 H   0  0  0  0  0  0  0  0  0  0  0  0
  -21.1589   -6.0228   25.8556 H   0  0  0  0  0  0  0  0  0  0  0  0
  -22.0396   -2.8212   23.2809 H   0  0  0  0  0  0  0  0  0  0  0  0
  -22.4401  -11.9703   22.4008 H   0  0  0  0  0  0  0  0  0  0  0  0
  -21.1493  -13.0679   22.2082 H   0  0  0  0  0  0  0  0  0  0  0  0
  -24.6538  -15.7807   20.5848 H   0  0  0  0  0  0  0  0  0  0  0  0
  -26.2762  -15.5453   20.1156 H   0  0  0  0  0  0  0  0  0  0  0  0
  -26.6778  -32.4663   23.1464 H   0  0  0  0  0  0  0  0  0  0  0  0
  -25.0747  -34.0282   25.0566 H   0  0  0  0  0  0  0  0  0  0  0  0
  -22.7881  -31.3489   21.4131 H   0  0  0  0  0  0  0  0  0  0  0  0
  -23.3854  -35.9823   23.3648 H   0  0  0  0  0  0  0  0  0  0  0  0
  -24.3696  -36.8624   22.2204 H   0  0  0  0  0  0  0  0  0  0  0  0
  -23.7669  -37.6632   23.6516 H   0  0  0  0  0  0  0  0  0  0  0  0
  -25.9445  -31.6237   20.5691 H   0  0  0  0  0  0  0  0  0  0  0  0
  -26.7436  -31.0079   22.0108 H   0  0  0  0  0  0  0  0  0  0  0  0
  -28.0090  -29.1452   21.2057 H   0  0  0  0  0  0  0  0  0  0  0  0
  -26.1369  -26.0560   19.0719 H   0  0  0  0  0  0  0  0  0  0  0  0
  -24.0652  -27.2961   19.0997 H   0  0  0  0  0  0  0  0  0  0  0  0
  -23.6156  -30.5365   19.3930 H   0  0  0  0  0  0  0  0  0  0  0  0
  -22.7355  -29.1425   19.9945 H   0  0  0  0  0  0  0  0  0  0  0  0
  -25.1353  -36.2335   25.0565 H   0  0  0  0  0  0  0  0  0  0  0  0
  -21.0070  -28.3206   24.0793 H   0  0  0  0  0  0  0  0  0  0  0  0
  -20.5555  -26.2518   23.3550 H   0  0  0  0  0  0  0  0  0  0  0  0
  -21.5974  -26.8362   22.0454 H   0  0  0  0  0  0  0  0  0  0  0  0
  -19.6810  -25.6422   21.1488 H   0  0  0  0  0  0  0  0  0  0  0  0
  -19.6406  -27.3343   20.7034 H   0  0  0  0  0  0  0  0  0  0  0  0
  -17.4282  -26.6888   21.4113 H   0  0  0  0  0  0  0  0  0  0  0  0
  -18.0803  -26.0130   22.9049 H   0  0  0  0  0  0  0  0  0  0  0  0
  -19.7265  -30.6774   24.2204 H   0  0  0  0  0  0  0  0  0  0  0  0
  -17.5064  -31.5856   24.4483 H   0  0  0  0  0  0  0  0  0  0  0  0
  -15.5878  -30.2839   23.7407 H   0  0  0  0  0  0  0  0  0  0  0  0
  -15.9120  -28.0941   22.7766 H   0  0  0  0  0  0  0  0  0  0  0  0
  -24.5787  -30.7757   25.6817 H   0  0  0  0  0  0  0  0  0  0  0  0
  -25.0041  -32.2289   26.5536 H   0  0  0  0  0  0  0  0  0  0  0  0
  -25.8166  -30.7245   26.9138 H   0  0  0  0  0  0  0  0  0  0  0  0
  -26.2892  -29.7335   24.0803 H   0  0  0  0  0  0  0  0  0  0  0  0
  -27.4336  -29.7484   25.4006 H   0  0  0  0  0  0  0  0  0  0  0  0
  -27.8466  -30.4994   23.8779 H   0  0  0  0  0  0  0  0  0  0  0  0
  -27.2251  -33.3632   26.1242 H   0  0  0  0  0  0  0  0  0  0  0  0
  -28.3902  -32.6065   25.0645 H   0  0  0  0  0  0  0  0  0  0  0  0
  -27.9772  -31.8555   26.5872 H   0  0  0  0  0  0  0  0  0  0  0  0
  -28.2744  -38.0016   24.6863 H   0  0  0  0  0  0  0  0  0  0  0  0
  -28.0396  -36.2711   24.7461 H   0  0  0  0  0  0  0  0  0  0  0  0
  -27.1773  -37.3087   25.8564 H   0  0  0  0  0  0  0  0  0  0  0  0
  -20.9627  -29.9365   21.7352 H   0  0  0  0  0  0  0  0  0  0  0  0
  -26.0447  -38.2561   24.0273 H   0  0  0  0  0  0  0  0  0  0  0  0
  -33.2233  -18.1106   23.4633 H   0  0  0  0  0  0  0  0  0  0  0  0
  -32.3478  -16.3913   21.9912 H   0  0  0  0  0  0  0  0  0  0  0  0
  -28.4437  -17.7879   22.6821 H   0  0  0  0  0  0  0  0  0  0  0  0
  -30.1499  -19.9097   29.9433 H   0  0  0  0  0  0  0  0  0  0  0  0
  -30.7207  -18.7429   28.7746 H   0  0  0  0  0  0  0  0  0  0  0  0
  -29.4021  -19.8145   28.3670 H   0  0  0  0  0  0  0  0  0  0  0  0
  -32.9749  -23.9189   26.6367 H   0  0  0  0  0  0  0  0  0  0  0  0
  -31.2050  -23.0495   26.9797 H   0  0  0  0  0  0  0  0  0  0  0  0
  -32.9826  -20.7576   23.3220 H   0  0  0  0  0  0  0  0  0  0  0  0
  -33.1135  -21.5742   24.8132 H   0  0  0  0  0  0  0  0  0  0  0  0
  -28.8829  -16.0648   21.0841 H   0  0  0  0  0  0  0  0  0  0  0  0
  -30.7914  -19.2606   26.2955 H   0  0  0  0  0  0  0  0  0  0  0  0
  -31.6155  -21.3711   29.0444 H   0  0  0  0  0  0  0  0  0  0  0  0
  1 25  1  0
  1 30  2  0
  1 83  1  0
  2  3  1  0
  2 25  1  0
  2 88  1  0
  2 89  1  0
  3  4  1  0
  3 90  1  0
  3 91  1  0
  4  5  1  0
  4 92  1  0
  4 93  1  0
  5  6  1  0
  5 26  1  0
  5 94  1  6
  6 25  1  0
  6 95  1  0
  6 96  1  0
  7  8  2  0
  7 26  1  0
  7 29  1  0
  8  9  1  0
  8 22  1  0
  9 10  1  0
  9 27  2  0
 10 11  2  0
 10 15  1  0
 11 12  1  0
 11 97  1  0
 12 13  2  0
 12 98  1  0
 13 14  1  0
 13 31  1  0
 14 15  2  0
 14 99  1  0
 15100  1  0
 16 17  2  0
 16 21  1  0
 16 31  1  0
 17 18  1  0
 17101  1  0
 18 19  2  0
 18102  1  0
 19 20  1  0
 19 24  1  0
 20 21  2  0
 20103  1  0
 21 23  1  0
 22 28  1  0
 22 32  2  0
 26 27  1  0
 28104  1  0
 28105  1  0
 29106  1  0
 29107  1  0
 33 34  1  0
 33 66  1  0
 33 70  2  0
 34 36  1  0
 34 59  1  0
 34108  1  6
 35 44  2  0
 35 45  1  0
 35 68  1  0
 36 56  1  0
 36109  1  0
 37 39  1  0
 37 47  1  0
 37 66  1  0
 37110  1  6
 38 43  2  0
 38 46  1  0
 38 47  1  0
 39 64  1  0
 39 67  2  0
 40 52  1  0
 40 53  2  0
 40 58  1  0
 41111  1  0
 41112  1  0
 41113  1  0
 42 43  1  0
 42 66  1  0
 42114  1  0
 42115  1  0
 43 44  1  0
 44116  1  0
 45 46  2  0
 45117  1  0
 46118  1  0
 47119  1  0
 47120  1  0
 48 41  1  0
 48 56  1  0
 48 65  1  0
 48121  1  1
 49 50  1  0
 49 53  1  0
 49 64  1  0
 49122  1  1
 50 51  1  0
 50123  1  0
 50124  1  0
 51 52  1  0
 51125  1  0
 51126  1  0
 52127  1  0
 52128  1  0
 53 54  1  0
 54 55  2  0
 54129  1  0
 55 57  1  0
 55130  1  0
 56 69  2  0
 57 58  2  0
 57131  1  0
 58132  1  0
 59 60  1  0
 59 61  1  0
 59 62  1  0
 60133  1  0
 60134  1  0
 60135  1  0
 61136  1  0
 61137  1  0
 61138  1  0
 62139  1  0
 62140  1  0
 62141  1  0
 63 65  1  0
 63142  1  0
 63143  1  0
 63144  1  0
 64145  1  0
 65146  1  0
 68 81  1  0
 71 72  2  0
 71 74  1  0
 71147  1  0
 72 75  1  0
 72148  1  0
 73 75  2  0
 73 76  1  0
 73149  1  0
 74 76  2  0
 74 77  1  0
 75 83  1  0
 76 87  1  0
 77 82  1  0
 77 84  2  0
 78 79  1  0
 78 81  1  0
 78 86  2  0
 79 84  1  0
 79 85  2  0
 80 85  1  0
 80150  1  0
 80151  1  0
 80152  1  0
 81153  1  0
 81154  1  0
 82155  1  0
 82156  1  0
 83157  1  0
 84158  1  0
 85159  1  0
M  CHG  2  84   1  85   1
M  ISO  4   1 100  68 101  81 101  83 100
M  END
$$$$
23
     RDKit          3D

152160  0  0  0  0  0  0  0  0999 V2000
  -30.7652  -14.3608   20.6636 C   0  0  0  0  0  0  0  0  0100  0  0
  -30.4392  -12.2669   19.3775 C   0  0  0  0  0  0  0  0  0101  0  0
  -29.4791  -12.5281   18.1977 C   0  0  0  0  0  0  0  0  0102  0  0
  -27.9985  -12.3963   18.6038 C   0  0  0  0  0  0  0  0  0103  0  0
  -27.6639  -13.2170   19.8820 C   0  0  2  0  0  0  0  0  0104  0  0
  -28.6795  -12.9602   21.0279 C   0  0  0  0  0  0  0  0  0105  0  0
  -25.2633  -13.8245   20.5754 C   0  0  0  0  0  0  0  0  0106  0  0
  -24.1645  -13.0409   20.9408 C   0  0  0  0  0  0  0  0  0107  0  0
  -24.6400  -11.7009   20.8697 C   0  0  0  0  0  0  0  0  0108  0  0
  -23.9005  -10.4085   21.0420 C   0  0  0  0  0  0  0  0  0109  0  0
  -24.3588   -9.4123   21.9123 C   0  0  0  0  0  0  0  0  0110  0  0
  -23.6296   -8.2350   22.0803 C   0  0  0  0  0  0  0  0  0111  0  0
  -22.4385   -8.0419   21.3657 C   0  0  0  0  0  0  0  0  0112  0  0
  -22.0103   -9.0167   20.4678 C   0  0  0  0  0  0  0  0  0113  0  0
  -22.7317  -10.1925   20.3102 C   0  0  0  0  0  0  0  0  0114  0  0
  -21.6857   -6.0709   22.5391 C   0  0  0  0  0  0  0  0  0115  0  0
  -21.4064   -6.5490   23.8264 C   0  0  0  0  0  0  0  0  0116  0  0
  -21.3635   -5.6677   24.9085 C   0  0  0  0  0  0  0  0  0117  0  0
  -21.5973   -4.3067   24.7088 C   0  0  0  0  0  0  0  0  0118  0  0
  -21.8700   -3.8284   23.4282 C   0  0  0  0  0  0  0  0  0119  0  0
  -21.9144   -4.7056   22.3460 C   0  0  0  0  0  0  0  0  0120  0  0
  -22.8194  -13.5263   21.1763 C   0  0  0  0  0  0  0  0  0121  0  0
  -22.1559   -4.2206   21.1063 F   0  0  0  0  0  0  0  0  0122  0  0
  -21.5628   -3.4510   25.7555 F   0  0  0  0  0  0  0  0  0123  0  0
  -30.0261  -13.1803   20.4553 N   0  0  0  0  0  0  0  0  0124  0  0
  -26.2911  -12.9356   20.3443 N   0  0  0  0  0  0  0  0  0125  0  0
  -25.9236  -11.6675   20.5847 N   0  0  0  0  0  0  0  0  0126  0  0
  -22.0708  -12.7905   22.0005 N   0  0  0  0  0  0  0  0  0127  0  0
  -25.4117  -15.1773   20.4097 N   0  0  0  0  0  0  0  0  0128  0  0
  -31.7916  -14.6724   20.0536 O   0  0  0  0  0  0  0  0  0129  0  0
  -21.6670   -6.9022   21.4423 O   0  0  0  0  0  0  0  0  0130  0  0
  -22.3946  -14.5564   20.6568 O   0  0  0  0  0  0  0  0  0131  0  0
  -24.6048  -31.8614   23.2223 C   0  0  0  0  0  0  0  0  0100  0  0
  -25.8822  -32.4841   23.8616 C   0  0  1  0  0  0  0  0  0101  0  0
  -27.2536  -27.5042   20.1156 C   0  0  0  0  0  0  0  0  0102  0  0
  -25.5726  -33.8762   24.2210 N   0  0  0  0  0  0  0  0  0103  0  0
  -23.4066  -30.4859   21.5461 C   0  0  2  0  0  0  0  0  0104  0  0
  -24.8467  -28.9636   20.1247 C   0  0  0  0  0  0  0  0  0105  0  0
  -22.7412  -29.4652   22.5052 C   0  0  0  0  0  0  0  0  0106  0  0
  -18.0167  -28.1302   22.8626 C   0  0  0  0  0  0  0  0  0107  0  0
  -24.1342  -36.7390   23.2568 C   0  0  0  0  0  0  0  0  0108  0  0
  -25.9141  -30.8882   21.3456 C   0  0  0  0  0  0  0  0  0109  0  0
  -25.9930  -29.5029   20.7208 C   0  0  0  0  0  0  0  0  0110  0  0
  -27.1758  -28.7612   20.7331 C   0  0  0  0  0  0  0  0  0111  0  0
  -26.1032  -26.9836   19.5230 C   0  0  0  0  0  0  0  0  0112  0  0
  -24.9097  -27.7011   19.5331 C   0  0  0  0  0  0  0  0  0113  0  0
  -23.5715  -29.7899   20.1582 C   0  0  0  0  0  0  0  0  0114  0  0
  -25.3990  -36.3212   24.0232 C   0  0  1  0  0  0  0  0  0115  0  0
  -20.5793  -28.3813   23.1004 C   0  0  2  0  0  0  0  0  0116  0  0
  -20.6548  -26.9392   22.5411 C   0  0  0  0  0  0  0  0  0117  0  0
  -19.5615  -26.6407   21.5143 C   0  0  0  0  0  0  0  0  0118  0  0
  -18.1797  -26.7818   22.1673 C   0  0  0  0  0  0  0  0  0119  0  0
  -19.1385  -28.8769   23.2988 C   0  0  0  0  0  0  0  0  0120  0  0
  -18.9183  -30.1286   23.8878 C   0  0  0  0  0  0  0  0  0121  0  0
  -17.6396  -30.6493   24.0352 C   0  0  0  0  0  0  0  0  0122  0  0
  -25.9153  -34.9582   23.4993 C   0  0  0  0  0  0  0  0  0123  0  0
  -16.5415  -29.9068   23.6254 C   0  0  0  0  0  0  0  0  0124  0  0
  -16.7331  -28.6521   23.0586 C   0  0  0  0  0  0  0  0  0125  0  0
  -26.4583  -31.6439   25.0683 C   0  0  0  0  0  0  0  0  0126  0  0
  -25.3807  -31.3179   26.1374 C   0  0  0  0  0  0  0  0  0127  0  0
  -27.0530  -30.3024   24.5680 C   0  0  0  0  0  0  0  0  0128  0  0
  -27.6014  -32.4281   25.7651 C   0  0  0  0  0  0  0  0  0129  0  0
  -27.5629  -37.2220   24.8621 C   0  0  0  0  0  0  0  0  0130  0  0
  -21.4133  -29.3375   22.3735 N   0  0  0  0  0  0  0  0  0131  0  0
  -26.4706  -37.3372   23.9061 N   0  0  0  0  0  0  0  0  0132  0  0
  -24.6674  -31.0544   22.1178 N   0  0  0  0  0  0  0  0  0133  0  0
  -23.4259  -28.8150   23.2971 O   0  0  0  0  0  0  0  0  0134  0  0
  -28.3948  -26.7345   20.0089 O   0  0  0  0  0  0  0  0  0135  0  0
  -26.5870  -34.9065   22.4671 O   0  0  0  0  0  0  0  0  0136  0  0
  -23.5365  -32.1254   23.7833 O   0  0  0  0  0  0  0  0  0137  0  0
  -23.7838  -12.9392   19.8724 C   0  0  0  0  0  0  0  0  0  0  0  0
  -24.5321  -11.9515   20.4797 C   0  0  0  0  0  0  0  0  0  0  0  0
  -24.3774  -14.1833   19.8077 C   0  0  0  0  0  0  0  0  0  0  0  0
  -26.2351  -13.4075   20.8632 C   0  0  0  0  0  0  0  0  0  0  0  0
  -27.5800  -13.6648   21.4080 C   0  0  0  0  0  0  0  0  0  0  0  0
  -23.1077  -17.4026   18.3565 C   0  0  0  0  0  0  0  0  0  0  0  0
  -24.1431  -16.5529   19.0622 C   0  0  0  0  0  0  0  0  0  0  0  0
  -23.0968  -18.8708   18.7354 C   0  0  0  0  0  0  0  0  0  1  0  0
  -25.7658  -12.1515   20.9880 N   0  0  0  0  0  0  0  0  0  0  0  0
  -25.6062  -14.4539   20.2948 N   0  0  0  0  0  0  0  0  0  0  0  0
  -28.1295  -14.8330   21.3403 N   0  0  0  0  0  0  0  0  0  0  0  0
  -23.9588  -10.6594   20.5668 N   0  0  0  0  0  0  0  0  0  0  0  0
  -23.6572  -15.2042   19.2042 N   0  0  0  0  0  0  0  0  0  0  0  0
  -22.3217  -16.9431   17.5290 O   0  0  0  0  0  0  0  0  0  0  0  0
  -31.4485  -12.4701   19.0860 H   0  0  0  0  0  0  0  0  0  0  0  0
  -30.3970  -11.2460   19.6950 H   0  0  0  0  0  0  0  0  0  0  0  0
  -29.6870  -11.8204   17.4226 H   0  0  0  0  0  0  0  0  0  0  0  0
  -29.6375  -13.5326   17.8649 H   0  0  0  0  0  0  0  0  0  0  0  0
  -27.7830  -11.3650   18.7904 H   0  0  0  0  0  0  0  0  0  0  0  0
  -27.4028  -12.7801   17.8021 H   0  0  0  0  0  0  0  0  0  0  0  0
  -27.7353  -14.2503   19.6136 H   0  0  0  0  0  0  0  0  0  0  0  0
  -28.5890  -11.9550   21.3832 H   0  0  0  0  0  0  0  0  0  0  0  0
  -28.5005  -13.6134   21.8562 H   0  0  0  0  0  0  0  0  0  0  0  0
  -25.2399   -9.5495   22.4318 H   0  0  0  0  0  0  0  0  0  0  0  0
  -23.9663   -7.5070   22.7297 H   0  0  0  0  0  0  0  0  0  0  0  0
  -21.1515   -8.8641   19.9162 H   0  0  0  0  0  0  0  0  0  0  0  0
  -22.4016  -10.9115   19.6476 H   0  0  0  0  0  0  0  0  0  0  0  0
  -21.2319   -7.5552   23.9750 H   0  0  0  0  0  0  0  0  0  0  0  0
  -21.1589   -6.0228   25.8556 H   0  0  0  0  0  0  0  0  0  0  0  0
  -22.0396   -2.8212   23.2809 H   0  0  0  0  0  0  0  0  0  0  0  0
  -22.4401  -11.9703   22.4008 H   0  0  0  0  0  0  0  0  0  0  0  0
  -21.1493  -13.0679   22.2082 H   0  0  0  0  0  0  0  0  0  0  0  0
  -24.6538  -15.7807   20.5848 H   0  0  0  0  0  0  0  0  0  0  0  0
  -26.2762  -15.5453   20.1156 H   0  0  0  0  0  0  0  0  0  0  0  0
  -26.6778  -32.4663   23.1464 H   0  0  0  0  0  0  0  0  0  0  0  0
  -25.0747  -34.0282   25.0566 H   0  0  0  0  0  0  0  0  0  0  0  0
  -22.7881  -31.3489   21.4131 H   0  0  0  0  0  0  0  0  0  0  0  0
  -23.3854  -35.9823   23.3648 H   0  0  0  0  0  0  0  0  0  0  0  0
  -24.3696  -36.8624   22.2204 H   0  0  0  0  0  0  0  0  0  0  0  0
  -23.7669  -37.6632   23.6516 H   0  0  0  0  0  0  0  0  0  0  0  0
  -25.9445  -31.6237   20.5691 H   0  0  0  0  0  0  0  0  0  0  0  0
  -26.7436  -31.0079   22.0108 H   0  0  0  0  0  0  0  0  0  0  0  0
  -28.0090  -29.1452   21.2057 H   0  0  0  0  0  0  0  0  0  0  0  0
  -26.1369  -26.0560   19.0719 H   0  0  0  0  0  0  0  0  0  0  0  0
  -24.0652  -27.2961   19.0997 H   0  0  0  0  0  0  0  0  0  0  0  0
  -23.6156  -30.5365   19.3930 H   0  0  0  0  0  0  0  0  0  0  0  0
  -22.7355  -29.1425   19.9945 H   0  0  0  0  0  0  0  0  0  0  0  0
  -25.1353  -36.2335   25.0565 H   0  0  0  0  0  0  0  0  0  0  0  0
  -21.0070  -28.3206   24.0793 H   0  0  0  0  0  0  0  0  0  0  0  0
  -20.5555  -26.2518   23.3550 H   0  0  0  0  0  0  0  0  0  0  0  0
  -21.5974  -26.8362   22.0454 H   0  0  0  0  0  0  0  0  0  0  0  0
  -19.6810  -25.6422   21.1488 H   0  0  0  0  0  0  0  0  0  0  0  0
  -19.6406  -27.3343   20.7034 H   0  0  0  0  0  0  0  0  0  0  0  0
  -17.4282  -26.6888   21.4113 H   0  0  0  0  0  0  0  0  0  0  0  0
  -18.0803  -26.0130   22.9049 H   0  0  0  0  0  0  0  0  0  0  0  0
  -19.7265  -30.6774   24.2204 H   0  0  0  0  0  0  0  0  0  0  0  0
  -17.5064  -31.5856   24.4483 H   0  0  0  0  0  0  0  0  0  0  0  0
  -15.5878  -30.2839   23.7407 H   0  0  0  0  0  0  0  0  0  0  0  0
  -15.9120  -28.0941   22.7766 H   0  0  0  0  0  0  0  0  0  0  0  0
  -24.5787  -30.7757   25.6817 H   0  0  0  0  0  0  0  0  0  0  0  0
  -25.0041  -32.2289   26.5536 H   0  0  0  0  0  0  0  0  0  0  0  0
  -25.8166  -30.7245   26.9138 H   0  0  0  0  0  0  0  0  0  0  0  0
  -26.2892  -29.7335   24.0803 H   0  0  0  0  0  0  0  0  0  0  0  0
  -27.4336  -29.7484   25.4006 H   0  0  0  0  0  0  0  0  0  0  0  0
  -27.8466  -30.4994   23.8779 H   0  0  0  0  0  0  0  0  0  0  0  0
  -27.2251  -33.3632   26.1242 H   0  0  0  0  0  0  0  0  0  0  0  0
  -28.3902  -32.6065   25.0645 H   0  0  0  0  0  0  0  0  0  0  0  0
  -27.9772  -31.8555   26.5872 H   0  0  0  0  0  0  0  0  0  0  0  0
  -28.2744  -38.0016   24.6863 H   0  0  0  0  0  0  0  0  0  0  0  0
  -28.0396  -36.2711   24.7461 H   0  0  0  0  0  0  0  0  0  0  0  0
  -27.1773  -37.3087   25.8564 H   0  0  0  0  0  0  0  0  0  0  0  0
  -20.9627  -29.9365   21.7352 H   0  0  0  0  0  0  0  0  0  0  0  0
  -26.0447  -38.2561   24.0273 H   0  0  0  0  0  0  0  0  0  0  0  0
  -22.8417  -12.7592   19.4915 H   0  0  0  0  0  0  0  0  0  0  0  0
  -28.0969  -12.8918   21.8555 H   0  0  0  0  0  0  0  0  0  0  0  0
  -24.3384  -16.9634   20.0308 H   0  0  0  0  0  0  0  0  0  0  0  0
  -25.0438  -16.5436   18.4847 H   0  0  0  0  0  0  0  0  0  0  0  0
  -22.6291  -18.8081   19.6957 H   0  0  0  0  0  0  0  0  0  0  0  0
  -22.9345  -19.1392   17.7124 H   0  0  0  0  0  0  0  0  0  0  0  0
  -23.0596  -10.4942   20.2016 H   0  0  0  0  0  0  0  0  0  0  0  0
  -24.4595   -9.9264   20.9926 H   0  0  0  0  0  0  0  0  0  0  0  0
  -22.7619  -14.9946   18.8525 H   0  0  0  0  0  0  0  0  0  0  0  0
  1 25  1  0
  1 30  2  0
  1 81  1  0
  2  3  1  0
  2 25  1  0
  2 85  1  0
  2 86  1  0
  3  4  1  0
  3 87  1  0
  3 88  1  0
  4  5  1  0
  4 89  1  0
  4 90  1  0
  5  6  1  0
  5 26  1  0
  5 91  1  6
  6 25  1  0
  6 92  1  0
  6 93  1  0
  7  8  2  0
  7 26  1  0
  7 29  1  0
  8  9  1  0
  8 22  1  0
  9 10  1  0
  9 27  2  0
 10 11  2  0
 10 15  1  0
 11 12  1  0
 11 94  1  0
 12 13  2  0
 12 95  1  0
 13 14  1  0
 13 31  1  0
 14 15  2  0
 14 96  1  0
 15 97  1  0
 16 17  2  0
 16 21  1  0
 16 31  1  0
 17 18  1  0
 17 98  1  0
 18 19  2  0
 18 99  1  0
 19 20  1  0
 19 24  1  0
 20 21  2  0
 20100  1  0
 21 23  1  0
 22 28  1  0
 22 32  2  0
 26 27  1  0
 28101  1  0
 28102  1  0
 29103  1  0
 29104  1  0
 33 34  1  0
 33 66  1  0
 33 70  2  0
 34 36  1  0
 34 59  1  0
 34105  1  6
 35 44  2  0
 35 45  1  0
 35 68  1  0
 36 56  1  0
 36106  1  0
 37 39  1  0
 37 47  1  0
 37 66  1  0
 37107  1  6
 38 43  2  0
 38 46  1  0
 38 47  1  0
 39 64  1  0
 39 67  2  0
 40 52  1  0
 40 53  2  0
 40 58  1  0
 41108  1  0
 41109  1  0
 41110  1  0
 42 43  1  0
 42 66  1  0
 42111  1  0
 42112  1  0
 43 44  1  0
 44113  1  0
 45 46  2  0
 45114  1  0
 46115  1  0
 47116  1  0
 47117  1  0
 48 41  1  0
 48 56  1  0
 48 65  1  0
 48118  1  1
 49 50  1  0
 49 53  1  0
 49 64  1  0
 49119  1  1
 50 51  1  0
 50120  1  0
 50121  1  0
 51 52  1  0
 51122  1  0
 51123  1  0
 52124  1  0
 52125  1  0
 53 54  1  0
 54 55  2  0
 54126  1  0
 55 57  1  0
 55127  1  0
 56 69  2  0
 57 58  2  0
 57128  1  0
 58129  1  0
 59 60  1  0
 59 61  1  0
 59 62  1  0
 60130  1  0
 60131  1  0
 60132  1  0
 61133  1  0
 61134  1  0
 61135  1  0
 62136  1  0
 62137  1  0
 62138  1  0
 63 65  1  0
 63139  1  0
 63140  1  0
 63141  1  0
 64142  1  0
 65143  1  0
 68 78  1  0
 71 72  2  0
 71 73  1  0
 71144  1  0
 72 79  1  0
 72 82  1  0
 73 80  2  0
 73 83  1  0
 74 75  1  0
 74 79  2  0
 74 80  1  0
 75 81  2  0
 75145  1  0
 76 77  1  0
 76 78  1  0
 76 84  2  0
 77 83  1  0
 77146  1  0
 77147  1  0
 78148  1  0
 78149  1  0
 82150  1  0
 82151  1  0
 83152  1  0
M  ISO  4   1 100  68 101  78 101  81 100
M  END
$$$$
24
     RDKit          3D

160168  0  0  0  0  0  0  0  0999 V2000
  -30.7652  -14.3608   20.6636 C   0  0  0  0  0  0  0  0  0100  0  0
  -30.4392  -12.2669   19.3775 C   0  0  0  0  0  0  0  0  0101  0  0
  -29.4791  -12.5281   18.1977 C   0  0  0  0  0  0  0  0  0102  0  0
  -27.9985  -12.3963   18.6038 C   0  0  0  0  0  0  0  0  0103  0  0
  -27.6639  -13.2170   19.8820 C   0  0  2  0  0  0  0  0  0104  0  0
  -28.6795  -12.9602   21.0279 C   0  0  0  0  0  0  0  0  0105  0  0
  -25.2633  -13.8245   20.5754 C   0  0  0  0  0  0  0  0  0106  0  0
  -24.1645  -13.0409   20.9408 C   0  0  0  0  0  0  0  0  0107  0  0
  -24.6400  -11.7009   20.8697 C   0  0  0  0  0  0  0  0  0108  0  0
  -23.9005  -10.4085   21.0420 C   0  0  0  0  0  0  0  0  0109  0  0
  -24.3588   -9.4123   21.9123 C   0  0  0  0  0  0  0  0  0110  0  0
  -23.6296   -8.2350   22.0803 C   0  0  0  0  0  0  0  0  0111  0  0
  -22.4385   -8.0419   21.3657 C   0  0  0  0  0  0  0  0  0112  0  0
  -22.0103   -9.0167   20.4678 C   0  0  0  0  0  0  0  0  0113  0  0
  -22.7317  -10.1925   20.3102 C   0  0  0  0  0  0  0  0  0114  0  0
  -21.6857   -6.0709   22.5391 C   0  0  0  0  0  0  0  0  0115  0  0
  -21.4064   -6.5490   23.8264 C   0  0  0  0  0  0  0  0  0116  0  0
  -21.3635   -5.6677   24.9085 C   0  0  0  0  0  0  0  0  0117  0  0
  -21.5973   -4.3067   24.7088 C   0  0  0  0  0  0  0  0  0118  0  0
  -21.8700   -3.8284   23.4282 C   0  0  0  0  0  0  0  0  0119  0  0
  -21.9144   -4.7056   22.3460 C   0  0  0  0  0  0  0  0  0120  0  0
  -22.8194  -13.5263   21.1763 C   0  0  0  0  0  0  0  0  0121  0  0
  -22.1559   -4.2206   21.1063 F   0  0  0  0  0  0  0  0  0122  0  0
  -21.5628   -3.4510   25.7555 F   0  0  0  0  0  0  0  0  0123  0  0
  -30.0261  -13.1803   20.4553 N   0  0  0  0  0  0  0  0  0124  0  0
  -26.2911  -12.9356   20.3443 N   0  0  0  0  0  0  0  0  0125  0  0
  -25.9236  -11.6675   20.5847 N   0  0  0  0  0  0  0  0  0126  0  0
  -22.0708  -12.7905   22.0005 N   0  0  0  0  0  0  0  0  0127  0  0
  -25.4117  -15.1773   20.4097 N   0  0  0  0  0  0  0  0  0128  0  0
  -31.7916  -14.6724   20.0536 O   0  0  0  0  0  0  0  0  0129  0  0
  -21.6670   -6.9022   21.4423 O   0  0  0  0  0  0  0  0  0130  0  0
  -22.3946  -14.5564   20.6568 O   0  0  0  0  0  0  0  0  0131  0  0
  -24.6048  -31.8614   23.2223 C   0  0  0  0  0  0  0  0  0100  0  0
  -25.8822  -32.4841   23.8616 C   0  0  1  0  0  0  0  0  0101  0  0
  -27.2536  -27.5042   20.1156 C   0  0  0  0  0  0  0  0  0102  0  0
  -25.5726  -33.8762   24.2210 N   0  0  0  0  0  0  0  0  0103  0  0
  -23.4066  -30.4859   21.5461 C   0  0  2  0  0  0  0  0  0104  0  0
  -24.8467  -28.9636   20.1247 C   0  0  0  0  0  0  0  0  0105  0  0
  -22.7412  -29.4652   22.5052 C   0  0  0  0  0  0  0  0  0106  0  0
  -18.0167  -28.1302   22.8626 C   0  0  0  0  0  0  0  0  0107  0  0
  -24.1342  -36.7390   23.2568 C   0  0  0  0  0  0  0  0  0108  0  0
  -25.9141  -30.8882   21.3456 C   0  0  0  0  0  0  0  0  0109  0  0
  -25.9930  -29.5029   20.7208 C   0  0  0  0  0  0  0  0  0110  0  0
  -27.1758  -28.7612   20.7331 C   0  0  0  0  0  0  0  0  0111  0  0
  -26.1032  -26.9836   19.5230 C   0  0  0  0  0  0  0  0  0112  0  0
  -24.9097  -27.7011   19.5331 C   0  0  0  0  0  0  0  0  0113  0  0
  -23.5715  -29.7899   20.1582 C   0  0  0  0  0  0  0  0  0114  0  0
  -25.3990  -36.3212   24.0232 C   0  0  1  0  0  0  0  0  0115  0  0
  -20.5793  -28.3813   23.1004 C   0  0  2  0  0  0  0  0  0116  0  0
  -20.6548  -26.9392   22.5411 C   0  0  0  0  0  0  0  0  0117  0  0
  -19.5615  -26.6407   21.5143 C   0  0  0  0  0  0  0  0  0118  0  0
  -18.1797  -26.7818   22.1673 C   0  0  0  0  0  0  0  0  0119  0  0
  -19.1385  -28.8769   23.2988 C   0  0  0  0  0  0  0  0  0120  0  0
  -18.9183  -30.1286   23.8878 C   0  0  0  0  0  0  0  0  0121  0  0
  -17.6396  -30.6493   24.0352 C   0  0  0  0  0  0  0  0  0122  0  0
  -25.9153  -34.9582   23.4993 C   0  0  0  0  0  0  0  0  0123  0  0
  -16.5415  -29.9068   23.6254 C   0  0  0  0  0  0  0  0  0124  0  0
  -16.7331  -28.6521   23.0586 C   0  0  0  0  0  0  0  0  0125  0  0
  -26.4583  -31.6439   25.0683 C   0  0  0  0  0  0  0  0  0126  0  0
  -25.3807  -31.3179   26.1374 C   0  0  0  0  0  0  0  0  0127  0  0
  -27.0530  -30.3024   24.5680 C   0  0  0  0  0  0  0  0  0128  0  0
  -27.6014  -32.4281   25.7651 C   0  0  0  0  0  0  0  0  0129  0  0
  -27.5629  -37.2220   24.8621 C   0  0  0  0  0  0  0  0  0130  0  0
  -21.4133  -29.3375   22.3735 N   0  0  0  0  0  0  0  0  0131  0  0
  -26.4706  -37.3372   23.9061 N   0  0  0  0  0  0  0  0  0132  0  0
  -24.6674  -31.0544   22.1178 N   0  0  0  0  0  0  0  0  0133  0  0
  -23.4259  -28.8150   23.2971 O   0  0  0  0  0  0  0  0  0134  0  0
  -28.3948  -26.7345   20.0089 O   0  0  0  0  0  0  0  0  0135  0  0
  -26.5870  -34.9065   22.4671 O   0  0  0  0  0  0  0  0  0136  0  0
  -23.5365  -32.1254   23.7833 O   0  0  0  0  0  0  0  0  0137  0  0
  -29.5201  -17.8860   22.3683 C   0  0  0  0  0  0  0  0  0  0  0  0
  -31.1529  -17.6943   20.5979 C   0  0  0  0  0  0  0  0  0  0  0  0
  -29.6886  -19.2706   22.3739 C   0  0  0  0  0  0  0  0  0  0  0  0
  -30.2523  -17.0978   21.4804 C   0  0  0  0  0  0  0  0  0  0  0  0
  -31.3214  -19.0789   20.6034 C   0  0  0  0  0  0  0  0  0  0  0  0
  -30.5893  -19.8671   21.4914 C   0  0  0  0  0  0  0  0  0  0  0  0
  -25.9867  -21.4143   21.2340 C   0  0  0  0  0  0  0  0  0  0  0  0
  -29.7817  -20.9419   24.2688 C   0  0  0  0  0  0  0  0  0  0  0  0
  -26.9092  -20.3920   21.8439 C   0  0  0  0  0  0  0  0  0  0  0  0
  -24.8529  -20.8872   20.3783 C   0  0  0  0  0  0  0  0  0  1  0  0
  -28.8934  -20.1216   23.3368 C   0  0  1  0  0  0  0  0  0  0  0  0
  -32.2327  -19.6798   19.7097 N   0  0  0  0  0  0  0  0  0  0  0  0
  -30.0807  -15.6913   21.4744 N   0  0  0  0  0  0  0  0  0  0  0  0
  -27.9617  -21.0558   22.6443 N   0  0  0  0  0  0  0  0  0  0  0  0
  -26.1686  -22.6186   21.4116 O   0  0  0  0  0  0  0  0  0  0  0  0
  -30.7501  -21.1990   21.4974 F   0  0  0  0  0  0  0  0  0  0  0  0
  -31.4485  -12.4701   19.0860 H   0  0  0  0  0  0  0  0  0  0  0  0
  -30.3970  -11.2460   19.6950 H   0  0  0  0  0  0  0  0  0  0  0  0
  -29.6870  -11.8204   17.4226 H   0  0  0  0  0  0  0  0  0  0  0  0
  -29.6375  -13.5326   17.8649 H   0  0  0  0  0  0  0  0  0  0  0  0
  -27.7830  -11.3650   18.7904 H   0  0  0  0  0  0  0  0  0  0  0  0
  -27.4028  -12.7801   17.8021 H   0  0  0  0  0  0  0  0  0  0  0  0
  -27.7353  -14.2503   19.6136 H   0  0  0  0  0  0  0  0  0  0  0  0
  -28.5890  -11.9550   21.3832 H   0  0  0  0  0  0  0  0  0  0  0  0
  -28.5005  -13.6134   21.8562 H   0  0  0  0  0  0  0  0  0  0  0  0
  -25.2399   -9.5495   22.4318 H   0  0  0  0  0  0  0  0  0  0  0  0
  -23.9663   -7.5070   22.7297 H   0  0  0  0  0  0  0  0  0  0  0  0
  -21.1515   -8.8641   19.9162 H   0  0  0  0  0  0  0  0  0  0  0  0
  -22.4016  -10.9115   19.6476 H   0  0  0  0  0  0  0  0  0  0  0  0
  -21.2319   -7.5552   23.9750 H   0  0  0  0  0  0  0  0  0  0  0  0
  -21.1589   -6.0228   25.8556 H   0  0  0  0  0  0  0  0  0  0  0  0
  -22.0396   -2.8212   23.2809 H   0  0  0  0  0  0  0  0  0  0  0  0
  -22.4401  -11.9703   22.4008 H   0  0  0  0  0  0  0  0  0  0  0  0
  -21.1493  -13.0679   22.2082 H   0  0  0  0  0  0  0  0  0  0  0  0
  -24.6538  -15.7807   20.5848 H   0  0  0  0  0  0  0  0  0  0  0  0
  -26.2762  -15.5453   20.1156 H   0  0  0  0  0  0  0  0  0  0  0  0
  -26.6778  -32.4663   23.1464 H   0  0  0  0  0  0  0  0  0  0  0  0
  -25.0747  -34.0282   25.0566 H   0  0  0  0  0  0  0  0  0  0  0  0
  -22.7881  -31.3489   21.4131 H   0  0  0  0  0  0  0  0  0  0  0  0
  -23.3854  -35.9823   23.3648 H   0  0  0  0  0  0  0  0  0  0  0  0
  -24.3696  -36.8624   22.2204 H   0  0  0  0  0  0  0  0  0  0  0  0
  -23.7669  -37.6632   23.6516 H   0  0  0  0  0  0  0  0  0  0  0  0
  -25.9445  -31.6237   20.5691 H   0  0  0  0  0  0  0  0  0  0  0  0
  -26.7436  -31.0079   22.0108 H   0  0  0  0  0  0  0  0  0  0  0  0
  -28.0090  -29.1452   21.2057 H   0  0  0  0  0  0  0  0  0  0  0  0
  -26.1369  -26.0560   19.0719 H   0  0  0  0  0  0  0  0  0  0  0  0
  -24.0652  -27.2961   19.0997 H   0  0  0  0  0  0  0  0  0  0  0  0
  -23.6156  -30.5365   19.3930 H   0  0  0  0  0  0  0  0  0  0  0  0
  -22.7355  -29.1425   19.9945 H   0  0  0  0  0  0  0  0  0  0  0  0
  -25.1353  -36.2335   25.0565 H   0  0  0  0  0  0  0  0  0  0  0  0
  -21.0070  -28.3206   24.0793 H   0  0  0  0  0  0  0  0  0  0  0  0
  -20.5555  -26.2518   23.3550 H   0  0  0  0  0  0  0  0  0  0  0  0
  -21.5974  -26.8362   22.0454 H   0  0  0  0  0  0  0  0  0  0  0  0
  -19.6810  -25.6422   21.1488 H   0  0  0  0  0  0  0  0  0  0  0  0
  -19.6406  -27.3343   20.7034 H   0  0  0  0  0  0  0  0  0  0  0  0
  -17.4282  -26.6888   21.4113 H   0  0  0  0  0  0  0  0  0  0  0  0
  -18.0803  -26.0130   22.9049 H   0  0  0  0  0  0  0  0  0  0  0  0
  -19.7265  -30.6774   24.2204 H   0  0  0  0  0  0  0  0  0  0  0  0
  -17.5064  -31.5856   24.4483 H   0  0  0  0  0  0  0  0  0  0  0  0
  -15.5878  -30.2839   23.7407 H   0  0  0  0  0  0  0  0  0  0  0  0
  -15.9120  -28.0941   22.7766 H   0  0  0  0  0  0  0  0  0  0  0  0
  -24.5787  -30.7757   25.6817 H   0  0  0  0  0  0  0  0  0  0  0  0
  -25.0041  -32.2289   26.5536 H   0  0  0  0  0  0  0  0  0  0  0  0
  -25.8166  -30.7245   26.9138 H   0  0  0  0  0  0  0  0  0  0  0  0
  -26.2892  -29.7335   24.0803 H   0  0  0  0  0  0  0  0  0  0  0  0
  -27.4336  -29.7484   25.4006 H   0  0  0  0  0  0  0  0  0  0  0  0
  -27.8466  -30.4994   23.8779 H   0  0  0  0  0  0  0  0  0  0  0  0
  -27.2251  -33.3632   26.1242 H   0  0  0  0  0  0  0  0  0  0  0  0
  -28.3902  -32.6065   25.0645 H   0  0  0  0  0  0  0  0  0  0  0  0
  -27.9772  -31.8555   26.5872 H   0  0  0  0  0  0  0  0  0  0  0  0
  -28.2744  -38.0016   24.6863 H   0  0  0  0  0  0  0  0  0  0  0  0
  -28.0396  -36.2711   24.7461 H   0  0  0  0  0  0  0  0  0  0  0  0
  -27.1773  -37.3087   25.8564 H   0  0  0  0  0  0  0  0  0  0  0  0
  -20.9627  -29.9365   21.7352 H   0  0  0  0  0  0  0  0  0  0  0  0
  -26.0447  -38.2561   24.0273 H   0  0  0  0  0  0  0  0  0  0  0  0
  -28.8537  -17.4447   23.0211 H   0  0  0  0  0  0  0  0  0  0  0  0
  -31.6945  -17.1112   19.9409 H   0  0  0  0  0  0  0  0  0  0  0  0
  -30.4610  -20.2910   24.7785 H   0  0  0  0  0  0  0  0  0  0  0  0
  -29.1720  -21.4525   24.9847 H   0  0  0  0  0  0  0  0  0  0  0  0
  -30.3347  -21.6571   23.6965 H   0  0  0  0  0  0  0  0  0  0  0  0
  -27.3676  -19.8214   21.0634 H   0  0  0  0  0  0  0  0  0  0  0  0
  -26.3402  -19.7508   22.4842 H   0  0  0  0  0  0  0  0  0  0  0  0
  -23.8444  -20.8629   20.7349 H   0  0  0  0  0  0  0  0  0  0  0  0
  -24.6202  -20.0380   19.7704 H   0  0  0  0  0  0  0  0  0  0  0  0
  -28.3284  -19.4181   23.9119 H   0  0  0  0  0  0  0  0  0  0  0  0
  -32.7486  -19.1220   19.0836 H   0  0  0  0  0  0  0  0  0  0  0  0
  -32.3528  -20.6569   19.7121 H   0  0  0  0  0  0  0  0  0  0  0  0
  -29.3804  -15.4092   22.1063 H   0  0  0  0  0  0  0  0  0  0  0  0
  -27.5073  -21.6344   23.3508 H   0  0  0  0  0  0  0  0  0  0  0  0
  -28.5267  -21.5961   21.9892 H   0  0  0  0  0  0  0  0  0  0  0  0
  1 25  1  0
  1 30  2  0
  1 83  1  0
  2  3  1  0
  2 25  1  0
  2 87  1  0
  2 88  1  0
  3  4  1  0
  3 89  1  0
  3 90  1  0
  4  5  1  0
  4 91  1  0
  4 92  1  0
  5  6  1  0
  5 26  1  0
  5 93  1  6
  6 25  1  0
  6 94  1  0
  6 95  1  0
  7  8  2  0
  7 26  1  0
  7 29  1  0
  8  9  1  0
  8 22  1  0
  9 10  1  0
  9 27  2  0
 10 11  2  0
 10 15  1  0
 11 12  1  0
 11 96  1  0
 12 13  2  0
 12 97  1  0
 13 14  1  0
 13 31  1  0
 14 15  2  0
 14 98  1  0
 15 99  1  0
 16 17  2  0
 16 21  1  0
 16 31  1  0
 17 18  1  0
 17100  1  0
 18 19  2  0
 18101  1  0
 19 20  1  0
 19 24  1  0
 20 21  2  0
 20102  1  0
 21 23  1  0
 22 28  1  0
 22 32  2  0
 26 27  1  0
 28103  1  0
 28104  1  0
 29105  1  0
 29106  1  0
 33 34  1  0
 33 66  1  0
 33 70  2  0
 34 36  1  0
 34 59  1  0
 34107  1  6
 35 44  2  0
 35 45  1  0
 35 68  1  0
 36 56  1  0
 36108  1  0
 37 39  1  0
 37 47  1  0
 37 66  1  0
 37109  1  6
 38 43  2  0
 38 46  1  0
 38 47  1  0
 39 64  1  0
 39 67  2  0
 40 52  1  0
 40 53  2  0
 40 58  1  0
 41110  1  0
 41111  1  0
 41112  1  0
 42 43  1  0
 42 66  1  0
 42113  1  0
 42114  1  0
 43 44  1  0
 44115  1  0
 45 46  2  0
 45116  1  0
 46117  1  0
 47118  1  0
 47119  1  0
 48 41  1  0
 48 56  1  0
 48 65  1  0
 48120  1  1
 49 50  1  0
 49 53  1  0
 49 64  1  0
 49121  1  1
 50 51  1  0
 50122  1  0
 50123  1  0
 51 52  1  0
 51124  1  0
 51125  1  0
 52126  1  0
 52127  1  0
 53 54  1  0
 54 55  2  0
 54128  1  0
 55 57  1  0
 55129  1  0
 56 69  2  0
 57 58  2  0
 57130  1  0
 58131  1  0
 59 60  1  0
 59 61  1  0
 59 62  1  0
 60132  1  0
 60133  1  0
 60134  1  0
 61135  1  0
 61136  1  0
 61137  1  0
 62138  1  0
 62139  1  0
 62140  1  0
 63 65  1  0
 63141  1  0
 63142  1  0
 63143  1  0
 64144  1  0
 65145  1  0
 68 80  1  0
 71 73  2  0
 71 74  1  0
 71146  1  0
 72 74  2  0
 72 75  1  0
 72147  1  0
 73 76  1  0
 73 81  1  0
 74 83  1  0
 75 76  2  0
 75 82  1  0
 76 86  1  0
 77 79  1  0
 77 80  1  0
 77 85  2  0
 78148  1  0
 78149  1  0
 78150  1  0
 79 84  1  0
 79151  1  0
 79152  1  0
 80153  1  0
 80154  1  0
 81 78  1  0
 81 84  1  0
 81155  1  1
 82156  1  0
 82157  1  0
 83158  1  0
 84159  1  0
 84160  1  0
M  CHG  1  84   1
M  ISO  4   1 100  68 101  80 101  83 100
M  END
$$$$
25
     RDKit          3D

165174  0  0  0  0  0  0  0  0999 V2000
  -30.7652  -14.3608   20.6636 C   0  0  0  0  0  0  0  0  0100  0  0
  -30.4392  -12.2669   19.3775 C   0  0  0  0  0  0  0  0  0101  0  0
  -29.4791  -12.5281   18.1977 C   0  0  0  0  0  0  0  0  0102  0  0
  -27.9985  -12.3963   18.6038 C   0  0  0  0  0  0  0  0  0103  0  0
  -27.6639  -13.2170   19.8820 C   0  0  2  0  0  0  0  0  0104  0  0
  -28.6795  -12.9602   21.0279 C   0  0  0  0  0  0  0  0  0105  0  0
  -25.2633  -13.8245   20.5754 C   0  0  0  0  0  0  0  0  0106  0  0
  -24.1645  -13.0409   20.9408 C   0  0  0  0  0  0  0  0  0107  0  0
  -24.6400  -11.7009   20.8697 C   0  0  0  0  0  0  0  0  0108  0  0
  -23.9005  -10.4085   21.0420 C   0  0  0  0  0  0  0  0  0109  0  0
  -24.3588   -9.4123   21.9123 C   0  0  0  0  0  0  0  0  0110  0  0
  -23.6296   -8.2350   22.0803 C   0  0  0  0  0  0  0  0  0111  0  0
  -22.4385   -8.0419   21.3657 C   0  0  0  0  0  0  0  0  0112  0  0
  -22.0103   -9.0167   20.4678 C   0  0  0  0  0  0  0  0  0113  0  0
  -22.7317  -10.1925   20.3102 C   0  0  0  0  0  0  0  0  0114  0  0
  -21.6857   -6.0709   22.5391 C   0  0  0  0  0  0  0  0  0115  0  0
  -21.4064   -6.5490   23.8264 C   0  0  0  0  0  0  0  0  0116  0  0
  -21.3635   -5.6677   24.9085 C   0  0  0  0  0  0  0  0  0117  0  0
  -21.5973   -4.3067   24.7088 C   0  0  0  0  0  0  0  0  0118  0  0
  -21.8700   -3.8284   23.4282 C   0  0  0  0  0  0  0  0  0119  0  0
  -21.9144   -4.7056   22.3460 C   0  0  0  0  0  0  0  0  0120  0  0
  -22.8194  -13.5263   21.1763 C   0  0  0  0  0  0  0  0  0121  0  0
  -22.1559   -4.2206   21.1063 F   0  0  0  0  0  0  0  0  0122  0  0
  -21.5628   -3.4510   25.7555 F   0  0  0  0  0  0  0  0  0123  0  0
  -30.0261  -13.1803   20.4553 N   0  0  0  0  0  0  0  0  0124  0  0
  -26.2911  -12.9356   20.3443 N   0  0  0  0  0  0  0  0  0125  0  0
  -25.9236  -11.6675   20.5847 N   0  0  0  0  0  0  0  0  0126  0  0
  -22.0708  -12.7905   22.0005 N   0  0  0  0  0  0  0  0  0127  0  0
  -25.4117  -15.1773   20.4097 N   0  0  0  0  0  0  0  0  0128  0  0
  -31.7916  -14.6724   20.0536 O   0  0  0  0  0  0  0  0  0129  0  0
  -21.6670   -6.9022   21.4423 O   0  0  0  0  0  0  0  0  0130  0  0
  -22.3946  -14.5564   20.6568 O   0  0  0  0  0  0  0  0  0131  0  0
  -24.6048  -31.8614   23.2223 C   0  0  0  0  0  0  0  0  0100  0  0
  -25.8822  -32.4841   23.8616 C   0  0  1  0  0  0  0  0  0101  0  0
  -27.2536  -27.5042   20.1156 C   0  0  0  0  0  0  0  0  0102  0  0
  -25.5726  -33.8762   24.2210 N   0  0  0  0  0  0  0  0  0103  0  0
  -23.4066  -30.4859   21.5461 C   0  0  2  0  0  0  0  0  0104  0  0
  -24.8467  -28.9636   20.1247 C   0  0  0  0  0  0  0  0  0105  0  0
  -22.7412  -29.4652   22.5052 C   0  0  0  0  0  0  0  0  0106  0  0
  -18.0167  -28.1302   22.8626 C   0  0  0  0  0  0  0  0  0107  0  0
  -24.1342  -36.7390   23.2568 C   0  0  0  0  0  0  0  0  0108  0  0
  -25.9141  -30.8882   21.3456 C   0  0  0  0  0  0  0  0  0109  0  0
  -25.9930  -29.5029   20.7208 C   0  0  0  0  0  0  0  0  0110  0  0
  -27.1758  -28.7612   20.7331 C   0  0  0  0  0  0  0  0  0111  0  0
  -26.1032  -26.9836   19.5230 C   0  0  0  0  0  0  0  0  0112  0  0
  -24.9097  -27.7011   19.5331 C   0  0  0  0  0  0  0  0  0113  0  0
  -23.5715  -29.7899   20.1582 C   0  0  0  0  0  0  0  0  0114  0  0
  -25.3990  -36.3212   24.0232 C   0  0  1  0  0  0  0  0  0115  0  0
  -20.5793  -28.3813   23.1004 C   0  0  2  0  0  0  0  0  0116  0  0
  -20.6548  -26.9392   22.5411 C   0  0  0  0  0  0  0  0  0117  0  0
  -19.5615  -26.6407   21.5143 C   0  0  0  0  0  0  0  0  0118  0  0
  -18.1797  -26.7818   22.1673 C   0  0  0  0  0  0  0  0  0119  0  0
  -19.1385  -28.8769   23.2988 C   0  0  0  0  0  0  0  0  0120  0  0
  -18.9183  -30.1286   23.8878 C   0  0  0  0  0  0  0  0  0121  0  0
  -17.6396  -30.6493   24.0352 C   0  0  0  0  0  0  0  0  0122  0  0
  -25.9153  -34.9582   23.4993 C   0  0  0  0  0  0  0  0  0123  0  0
  -16.5415  -29.9068   23.6254 C   0  0  0  0  0  0  0  0  0124  0  0
  -16.7331  -28.6521   23.0586 C   0  0  0  0  0  0  0  0  0125  0  0
  -26.4583  -31.6439   25.0683 C   0  0  0  0  0  0  0  0  0126  0  0
  -25.3807  -31.3179   26.1374 C   0  0  0  0  0  0  0  0  0127  0  0
  -27.0530  -30.3024   24.5680 C   0  0  0  0  0  0  0  0  0128  0  0
  -27.6014  -32.4281   25.7651 C   0  0  0  0  0  0  0  0  0129  0  0
  -27.5629  -37.2220   24.8621 C   0  0  0  0  0  0  0  0  0130  0  0
  -21.4133  -29.3375   22.3735 N   0  0  0  0  0  0  0  0  0131  0  0
  -26.4706  -37.3372   23.9061 N   0  0  0  0  0  0  0  0  0132  0  0
  -24.6674  -31.0544   22.1178 N   0  0  0  0  0  0  0  0  0133  0  0
  -23.4259  -28.8150   23.2971 O   0  0  0  0  0  0  0  0  0134  0  0
  -28.3948  -26.7345   20.0089 O   0  0  0  0  0  0  0  0  0135  0  0
  -26.5870  -34.9065   22.4671 O   0  0  0  0  0  0  0  0  0136  0  0
  -23.5365  -32.1254   23.7833 O   0  0  0  0  0  0  0  0  0137  0  0
  -28.7545  -20.0358   20.0346 C   0  0  0  0  0  0  0  0  0  0  0  0
  -28.8808  -18.7212   20.4833 C   0  0  0  0  0  0  0  0  0  0  0  0
  -28.2834  -20.2910   18.7467 C   0  0  0  0  0  0  0  0  0  0  0  0
  -28.5361  -17.6617   19.6441 C   0  0  0  0  0  0  0  0  0  0  0  0
  -27.9386  -19.2315   17.9075 C   0  0  0  0  0  0  0  0  0  0  0  0
  -28.0650  -17.9168   18.3562 C   0  0  0  0  0  0  0  0  0  0  0  0
  -29.5274  -23.9223   18.3474 C   0  0  0  0  0  0  0  0  0  0  0  0
  -28.4054  -24.6278   18.5616 C   0  0  0  0  0  0  0  0  0  0  0  0
  -29.5024  -22.4422   18.2189 C   0  0  0  0  0  0  0  0  0  0  0  0
  -27.1777  -22.5138   19.1712 C   0  0  0  0  0  0  0  0  0  0  0  0
  -28.1556  -21.7319   18.2849 C   0  0  2  0  0  0  0  0  0  0  0  0
  -27.0451  -23.9839   18.7401 C   0  0  2  0  0  0  0  0  0  0  0  0
  -26.1968  -24.1253   17.4726 C   0  0  0  0  0  0  0  0  0  0  0  0
  -26.1726  -19.0453   16.1548 C   0  0  0  0  0  0  0  0  0  0  0  0
  -28.4523  -26.1272   18.6671 C   0  0  0  0  0  0  0  0  0  1  0  0
  -28.6676  -16.3274   20.1025 N   0  0  0  0  0  0  0  0  0  0  0  0
  -27.4606  -19.4745   16.6009 N   0  0  0  0  0  0  0  0  0  0  0  0
  -30.5578  -21.8476   18.0025 O   0  0  0  0  0  0  0  0  0  0  0  0
  -27.7341  -16.8966   17.5496 F   0  0  0  0  0  0  0  0  0  0  0  0
  -31.4485  -12.4701   19.0860 H   0  0  0  0  0  0  0  0  0  0  0  0
  -30.3970  -11.2460   19.6950 H   0  0  0  0  0  0  0  0  0  0  0  0
  -29.6870  -11.8204   17.4226 H   0  0  0  0  0  0  0  0  0  0  0  0
  -29.6375  -13.5326   17.8649 H   0  0  0  0  0  0  0  0  0  0  0  0
  -27.7830  -11.3650   18.7904 H   0  0  0  0  0  0  0  0  0  0  0  0
  -27.4028  -12.7801   17.8021 H   0  0  0  0  0  0  0  0  0  0  0  0
  -27.7353  -14.2503   19.6136 H   0  0  0  0  0  0  0  0  0  0  0  0
  -28.5890  -11.9550   21.3832 H   0  0  0  0  0  0  0  0  0  0  0  0
  -28.5005  -13.6134   21.8562 H   0  0  0  0  0  0  0  0  0  0  0  0
  -25.2399   -9.5495   22.4318 H   0  0  0  0  0  0  0  0  0  0  0  0
  -23.9663   -7.5070   22.7297 H   0  0  0  0  0  0  0  0  0  0  0  0
  -21.1515   -8.8641   19.9162 H   0  0  0  0  0  0  0  0  0  0  0  0
  -22.4016  -10.9115   19.6476 H   0  0  0  0  0  0  0  0  0  0  0  0
  -21.2319   -7.5552   23.9750 H   0  0  0  0  0  0  0  0  0  0  0  0
  -21.1589   -6.0228   25.8556 H   0  0  0  0  0  0  0  0  0  0  0  0
  -22.0396   -2.8212   23.2809 H   0  0  0  0  0  0  0  0  0  0  0  0
  -22.4401  -11.9703   22.4008 H   0  0  0  0  0  0  0  0  0  0  0  0
  -21.1493  -13.0679   22.2082 H   0  0  0  0  0  0  0  0  0  0  0  0
  -24.6538  -15.7807   20.5848 H   0  0  0  0  0  0  0  0  0  0  0  0
  -26.2762  -15.5453   20.1156 H   0  0  0  0  0  0  0  0  0  0  0  0
  -26.6778  -32.4663   23.1464 H   0  0  0  0  0  0  0  0  0  0  0  0
  -25.0747  -34.0282   25.0566 H   0  0  0  0  0  0  0  0  0  0  0  0
  -22.7881  -31.3489   21.4131 H   0  0  0  0  0  0  0  0  0  0  0  0
  -23.3854  -35.9823   23.3648 H   0  0  0  0  0  0  0  0  0  0  0  0
  -24.3696  -36.8624   22.2204 H   0  0  0  0  0  0  0  0  0  0  0  0
  -23.7669  -37.6632   23.6516 H   0  0  0  0  0  0  0  0  0  0  0  0
  -25.9445  -31.6237   20.5691 H   0  0  0  0  0  0  0  0  0  0  0  0
  -26.7436  -31.0079   22.0108 H   0  0  0  0  0  0  0  0  0  0  0  0
  -28.0090  -29.1452   21.2057 H   0  0  0  0  0  0  0  0  0  0  0  0
  -26.1369  -26.0560   19.0719 H   0  0  0  0  0  0  0  0  0  0  0  0
  -24.0652  -27.2961   19.0997 H   0  0  0  0  0  0  0  0  0  0  0  0
  -23.6156  -30.5365   19.3930 H   0  0  0  0  0  0  0  0  0  0  0  0
  -22.7355  -29.1425   19.9945 H   0  0  0  0  0  0  0  0  0  0  0  0
  -25.1353  -36.2335   25.0565 H   0  0  0  0  0  0  0  0  0  0  0  0
  -21.0070  -28.3206   24.0793 H   0  0  0  0  0  0  0  0  0  0  0  0
  -20.5555  -26.2518   23.3550 H   0  0  0  0  0  0  0  0  0  0  0  0
  -21.5974  -26.8362   22.0454 H   0  0  0  0  0  0  0  0  0  0  0  0
  -19.6810  -25.6422   21.1488 H   0  0  0  0  0  0  0  0  0  0  0  0
  -19.6406  -27.3343   20.7034 H   0  0  0  0  0  0  0  0  0  0  0  0
  -17.4282  -26.6888   21.4113 H   0  0  0  0  0  0  0  0  0  0  0  0
  -18.0803  -26.0130   22.9049 H   0  0  0  0  0  0  0  0  0  0  0  0
  -19.7265  -30.6774   24.2204 H   0  0  0  0  0  0  0  0  0  0  0  0
  -17.5064  -31.5856   24.4483 H   0  0  0  0  0  0  0  0  0  0  0  0
  -15.5878  -30.2839   23.7407 H   0  0  0  0  0  0  0  0  0  0  0  0
  -15.9120  -28.0941   22.7766 H   0  0  0  0  0  0  0  0  0  0  0  0
  -24.5787  -30.7757   25.6817 H   0  0  0  0  0  0  0  0  0  0  0  0
  -25.0041  -32.2289   26.5536 H   0  0  0  0  0  0  0  0  0  0  0  0
  -25.8166  -30.7245   26.9138 H   0  0  0  0  0  0  0  0  0  0  0  0
  -26.2892  -29.7335   24.0803 H   0  0  0  0  0  0  0  0  0  0  0  0
  -27.4336  -29.7484   25.4006 H   0  0  0  0  0  0  0  0  0  0  0  0
  -27.8466  -30.4994   23.8779 H   0  0  0  0  0  0  0  0  0  0  0  0
  -27.2251  -33.3632   26.1242 H   0  0  0  0  0  0  0  0  0  0  0  0
  -28.3902  -32.6065   25.0645 H   0  0  0  0  0  0  0  0  0  0  0  0
  -27.9772  -31.8555   26.5872 H   0  0  0  0  0  0  0  0  0  0  0  0
  -28.2744  -38.0016   24.6863 H   0  0  0  0  0  0  0  0  0  0  0  0
  -28.0396  -36.2711   24.7461 H   0  0  0  0  0  0  0  0  0  0  0  0
  -27.1773  -37.3087   25.8564 H   0  0  0  0  0  0  0  0  0  0  0  0
  -20.9627  -29.9365   21.7352 H   0  0  0  0  0  0  0  0  0  0  0  0
  -26.0447  -38.2561   24.0273 H   0  0  0  0  0  0  0  0  0  0  0  0
  -29.0096  -20.8197   20.6555 H   0  0  0  0  0  0  0  0  0  0  0  0
  -29.2293  -18.5324   21.4362 H   0  0  0  0  0  0  0  0  0  0  0  0
  -30.4283  -24.4197   18.2702 H   0  0  0  0  0  0  0  0  0  0  0  0
  -27.5286  -22.4820   20.1815 H   0  0  0  0  0  0  0  0  0  0  0  0
  -26.2145  -22.0574   19.0768 H   0  0  0  0  0  0  0  0  0  0  0  0
  -27.7636  -21.7000   17.2898 H   0  0  0  0  0  0  0  0  0  0  0  0
  -26.5369  -24.5026   19.5260 H   0  0  0  0  0  0  0  0  0  0  0  0
  -26.6772  -23.6163   16.6633 H   0  0  0  0  0  0  0  0  0  0  0  0
  -26.0897  -25.1617   17.2288 H   0  0  0  0  0  0  0  0  0  0  0  0
  -25.2308  -23.6967   17.6403 H   0  0  0  0  0  0  0  0  0  0  0  0
  -26.0315  -19.3402   15.1360 H   0  0  0  0  0  0  0  0  0  0  0  0
  -25.4162  -19.4942   16.7641 H   0  0  0  0  0  0  0  0  0  0  0  0
  -26.1057  -17.9801   16.2303 H   0  0  0  0  0  0  0  0  0  0  0  0
  -27.6230  -26.5103   18.1100 H   0  0  0  0  0  0  0  0  0  0  0  0
  -29.4230  -26.3879   18.3002 H   0  0  0  0  0  0  0  0  0  0  0  0
  -27.7810  -15.9428   20.2903 H   0  0  0  0  0  0  0  0  0  0  0  0
  -28.0397  -19.9605   15.9703 H   0  0  0  0  0  0  0  0  0  0  0  0
  1 25  1  0
  1 30  2  0
  1 86  1  0
  2  3  1  0
  2 25  1  0
  2 90  1  0
  2 91  1  0
  3  4  1  0
  3 92  1  0
  3 93  1  0
  4  5  1  0
  4 94  1  0
  4 95  1  0
  5  6  1  0
  5 26  1  0
  5 96  1  6
  6 25  1  0
  6 97  1  0
  6 98  1  0
  7  8  2  0
  7 26  1  0
  7 29  1  0
  8  9  1  0
  8 22  1  0
  9 10  1  0
  9 27  2  0
 10 11  2  0
 10 15  1  0
 11 12  1  0
 11 99  1  0
 12 13  2  0
 12100  1  0
 13 14  1  0
 13 31  1  0
 14 15  2  0
 14101  1  0
 15102  1  0
 16 17  2  0
 16 21  1  0
 16 31  1  0
 17 18  1  0
 17103  1  0
 18 19  2  0
 18104  1  0
 19 20  1  0
 19 24  1  0
 20 21  2  0
 20105  1  0
 21 23  1  0
 22 28  1  0
 22 32  2  0
 26 27  1  0
 28106  1  0
 28107  1  0
 29108  1  0
 29109  1  0
 33 34  1  0
 33 66  1  0
 33 70  2  0
 34 36  1  0
 34 59  1  0
 34110  1  6
 35 44  2  0
 35 45  1  0
 35 68  1  0
 36 56  1  0
 36111  1  0
 37 39  1  0
 37 47  1  0
 37 66  1  0
 37112  1  6
 38 43  2  0
 38 46  1  0
 38 47  1  0
 39 64  1  0
 39 67  2  0
 40 52  1  0
 40 53  2  0
 40 58  1  0
 41113  1  0
 41114  1  0
 41115  1  0
 42 43  1  0
 42 66  1  0
 42116  1  0
 42117  1  0
 43 44  1  0
 44118  1  0
 45 46  2  0
 45119  1  0
 46120  1  0
 47121  1  0
 47122  1  0
 48 41  1  0
 48 56  1  0
 48 65  1  0
 48123  1  1
 49 50  1  0
 49 53  1  0
 49 64  1  0
 49124  1  1
 50 51  1  0
 50125  1  0
 50126  1  0
 51 52  1  0
 51127  1  0
 51128  1  0
 52129  1  0
 52130  1  0
 53 54  1  0
 54 55  2  0
 54131  1  0
 55 57  1  0
 55132  1  0
 56 69  2  0
 57 58  2  0
 57133  1  0
 58134  1  0
 59 60  1  0
 59 61  1  0
 59 62  1  0
 60135  1  0
 60136  1  0
 60137  1  0
 61138  1  0
 61139  1  0
 61140  1  0
 62141  1  0
 62142  1  0
 62143  1  0
 63 65  1  0
 63144  1  0
 63145  1  0
 63146  1  0
 64147  1  0
 65148  1  0
 68 85  1  0
 71 72  2  0
 71 73  1  0
 71149  1  0
 72 74  1  0
 72150  1  0
 73 75  2  0
 74 76  2  0
 74 86  1  0
 75 76  1  0
 75 87  1  0
 76 89  1  0
 77 78  2  0
 77 79  1  0
 77151  1  0
 78 82  1  0
 78 85  1  0
 79 81  1  0
 79 88  2  0
 80 81  1  0
 80 82  1  0
 80152  1  0
 80153  1  0
 81 73  1  0
 81154  1  6
 82 83  1  0
 82155  1  1
 83156  1  0
 83157  1  0
 83158  1  0
 84 87  1  0
 84159  1  0
 84160  1  0
 84161  1  0
 85162  1  0
 85163  1  0
 86164  1  0
 87165  1  0
M  ISO  4   1 100  68 101  85 101  86 100
M  END
$$$$
26
     RDKit          3D

158166  0  0  0  0  0  0  0  0999 V2000
  -30.7652  -14.3608   20.6636 C   0  0  0  0  0  0  0  0  0100  0  0
  -30.4392  -12.2669   19.3775 C   0  0  0  0  0  0  0  0  0101  0  0
  -29.4791  -12.5281   18.1977 C   0  0  0  0  0  0  0  0  0102  0  0
  -27.9985  -12.3963   18.6038 C   0  0  0  0  0  0  0  0  0103  0  0
  -27.6639  -13.2170   19.8820 C   0  0  2  0  0  0  0  0  0104  0  0
  -28.6795  -12.9602   21.0279 C   0  0  0  0  0  0  0  0  0105  0  0
  -25.2633  -13.8245   20.5754 C   0  0  0  0  0  0  0  0  0106  0  0
  -24.1645  -13.0409   20.9408 C   0  0  0  0  0  0  0  0  0107  0  0
  -24.6400  -11.7009   20.8697 C   0  0  0  0  0  0  0  0  0108  0  0
  -23.9005  -10.4085   21.0420 C   0  0  0  0  0  0  0  0  0109  0  0
  -24.3588   -9.4123   21.9123 C   0  0  0  0  0  0  0  0  0110  0  0
  -23.6296   -8.2350   22.0803 C   0  0  0  0  0  0  0  0  0111  0  0
  -22.4385   -8.0419   21.3657 C   0  0  0  0  0  0  0  0  0112  0  0
  -22.0103   -9.0167   20.4678 C   0  0  0  0  0  0  0  0  0113  0  0
  -22.7317  -10.1925   20.3102 C   0  0  0  0  0  0  0  0  0114  0  0
  -21.6857   -6.0709   22.5391 C   0  0  0  0  0  0  0  0  0115  0  0
  -21.4064   -6.5490   23.8264 C   0  0  0  0  0  0  0  0  0116  0  0
  -21.3635   -5.6677   24.9085 C   0  0  0  0  0  0  0  0  0117  0  0
  -21.5973   -4.3067   24.7088 C   0  0  0  0  0  0  0  0  0118  0  0
  -21.8700   -3.8284   23.4282 C   0  0  0  0  0  0  0  0  0119  0  0
  -21.9144   -4.7056   22.3460 C   0  0  0  0  0  0  0  0  0120  0  0
  -22.8194  -13.5263   21.1763 C   0  0  0  0  0  0  0  0  0121  0  0
  -22.1559   -4.2206   21.1063 F   0  0  0  0  0  0  0  0  0122  0  0
  -21.5628   -3.4510   25.7555 F   0  0  0  0  0  0  0  0  0123  0  0
  -30.0261  -13.1803   20.4553 N   0  0  0  0  0  0  0  0  0124  0  0
  -26.2911  -12.9356   20.3443 N   0  0  0  0  0  0  0  0  0125  0  0
  -25.9236  -11.6675   20.5847 N   0  0  0  0  0  0  0  0  0126  0  0
  -22.0708  -12.7905   22.0005 N   0  0  0  0  0  0  0  0  0127  0  0
  -25.4117  -15.1773   20.4097 N   0  0  0  0  0  0  0  0  0128  0  0
  -31.7916  -14.6724   20.0536 O   0  0  0  0  0  0  0  0  0129  0  0
  -21.6670   -6.9022   21.4423 O   0  0  0  0  0  0  0  0  0130  0  0
  -22.3946  -14.5564   20.6568 O   0  0  0  0  0  0  0  0  0131  0  0
  -24.6048  -31.8614   23.2223 C   0  0  0  0  0  0  0  0  0100  0  0
  -25.8822  -32.4841   23.8616 C   0  0  1  0  0  0  0  0  0101  0  0
  -27.2536  -27.5042   20.1156 C   0  0  0  0  0  0  0  0  0102  0  0
  -25.5726  -33.8762   24.2210 N   0  0  0  0  0  0  0  0  0103  0  0
  -23.4066  -30.4859   21.5461 C   0  0  2  0  0  0  0  0  0104  0  0
  -24.8467  -28.9636   20.1247 C   0  0  0  0  0  0  0  0  0105  0  0
  -22.7412  -29.4652   22.5052 C   0  0  0  0  0  0  0  0  0106  0  0
  -18.0167  -28.1302   22.8626 C   0  0  0  0  0  0  0  0  0107  0  0
  -24.1342  -36.7390   23.2568 C   0  0  0  0  0  0  0  0  0108  0  0
  -25.9141  -30.8882   21.3456 C   0  0  0  0  0  0  0  0  0109  0  0
  -25.9930  -29.5029   20.7208 C   0  0  0  0  0  0  0  0  0110  0  0
  -27.1758  -28.7612   20.7331 C   0  0  0  0  0  0  0  0  0111  0  0
  -26.1032  -26.9836   19.5230 C   0  0  0  0  0  0  0  0  0112  0  0
  -24.9097  -27.7011   19.5331 C   0  0  0  0  0  0  0  0  0113  0  0
  -23.5715  -29.7899   20.1582 C   0  0  0  0  0  0  0  0  0114  0  0
  -25.3990  -36.3212   24.0232 C   0  0  1  0  0  0  0  0  0115  0  0
  -20.5793  -28.3813   23.1004 C   0  0  2  0  0  0  0  0  0116  0  0
  -20.6548  -26.9392   22.5411 C   0  0  0  0  0  0  0  0  0117  0  0
  -19.5615  -26.6407   21.5143 C   0  0  0  0  0  0  0  0  0118  0  0
  -18.1797  -26.7818   22.1673 C   0  0  0  0  0  0  0  0  0119  0  0
  -19.1385  -28.8769   23.2988 C   0  0  0  0  0  0  0  0  0120  0  0
  -18.9183  -30.1286   23.8878 C   0  0  0  0  0  0  0  0  0121  0  0
  -17.6396  -30.6493   24.0352 C   0  0  0  0  0  0  0  0  0122  0  0
  -25.9153  -34.9582   23.4993 C   0  0  0  0  0  0  0  0  0123  0  0
  -16.5415  -29.9068   23.6254 C   0  0  0  0  0  0  0  0  0124  0  0
  -16.7331  -28.6521   23.0586 C   0  0  0  0  0  0  0  0  0125  0  0
  -26.4583  -31.6439   25.0683 C   0  0  0  0  0  0  0  0  0126  0  0
  -25.3807  -31.3179   26.1374 C   0  0  0  0  0  0  0  0  0127  0  0
  -27.0530  -30.3024   24.5680 C   0  0  0  0  0  0  0  0  0128  0  0
  -27.6014  -32.4281   25.7651 C   0  0  0  0  0  0  0  0  0129  0  0
  -27.5629  -37.2220   24.8621 C   0  0  0  0  0  0  0  0  0130  0  0
  -21.4133  -29.3375   22.3735 N   0  0  0  0  0  0  0  0  0131  0  0
  -26.4706  -37.3372   23.9061 N   0  0  0  0  0  0  0  0  0132  0  0
  -24.6674  -31.0544   22.1178 N   0  0  0  0  0  0  0  0  0133  0  0
  -23.4259  -28.8150   23.2971 O   0  0  0  0  0  0  0  0  0134  0  0
  -28.3948  -26.7345   20.0089 O   0  0  0  0  0  0  0  0  0135  0  0
  -26.5870  -34.9065   22.4671 O   0  0  0  0  0  0  0  0  0136  0  0
  -23.5365  -32.1254   23.7833 O   0  0  0  0  0  0  0  0  0137  0  0
  -33.0667  -16.9509   23.2793 C   0  0  0  0  0  0  0  0  0  0  0  0
  -32.3624  -17.9628   23.9316 C   0  0  0  0  0  0  0  0  0  0  0  0
  -32.3952  -16.0662   22.4353 C   0  0  0  0  0  0  0  0  0  0  0  0
  -30.9866  -18.0900   23.7402 C   0  0  0  0  0  0  0  0  0  0  0  0
  -30.3151  -17.2054   22.8962 C   0  0  0  0  0  0  0  0  0  0  0  0
  -31.0194  -16.1935   22.2438 C   0  0  0  0  0  0  0  0  0  0  0  0
  -30.2630  -19.1692   24.4419 C   0  0  0  0  0  0  0  0  0  0  0  0
  -28.2689  -22.0095   23.1675 C   0  0  0  0  0  0  0  0  0  0  0  0
  -28.8382  -17.3432   22.6954 C   0  0  0  0  0  0  0  0  0  0  0  0
  -28.8481  -21.1870   24.2885 C   0  0  0  0  0  0  0  0  0  0  0  0
  -27.4568  -23.2177   23.5898 C   0  0  0  0  0  0  0  0  0  1  0  0
  -30.3576  -15.2836   21.3825 N   0  0  0  0  0  0  0  0  0  0  0  0
  -29.6088  -20.0908   23.7129 N   0  0  0  0  0  0  0  0  0  0  0  0
  -30.2932  -19.1827   25.7746 N   0  0  0  0  0  0  0  0  0  0  0  0
  -28.4391  -21.7254   21.9827 O   0  0  0  0  0  0  0  0  0  0  0  0
  -31.4485  -12.4701   19.0860 H   0  0  0  0  0  0  0  0  0  0  0  0
  -30.3970  -11.2460   19.6950 H   0  0  0  0  0  0  0  0  0  0  0  0
  -29.6870  -11.8204   17.4226 H   0  0  0  0  0  0  0  0  0  0  0  0
  -29.6375  -13.5326   17.8649 H   0  0  0  0  0  0  0  0  0  0  0  0
  -27.7830  -11.3650   18.7904 H   0  0  0  0  0  0  0  0  0  0  0  0
  -27.4028  -12.7801   17.8021 H   0  0  0  0  0  0  0  0  0  0  0  0
  -27.7353  -14.2503   19.6136 H   0  0  0  0  0  0  0  0  0  0  0  0
  -28.5890  -11.9550   21.3832 H   0  0  0  0  0  0  0  0  0  0  0  0
  -28.5005  -13.6134   21.8562 H   0  0  0  0  0  0  0  0  0  0  0  0
  -25.2399   -9.5495   22.4318 H   0  0  0  0  0  0  0  0  0  0  0  0
  -23.9663   -7.5070   22.7297 H   0  0  0  0  0  0  0  0  0  0  0  0
  -21.1515   -8.8641   19.9162 H   0  0  0  0  0  0  0  0  0  0  0  0
  -22.4016  -10.9115   19.6476 H   0  0  0  0  0  0  0  0  0  0  0  0
  -21.2319   -7.5552   23.9750 H   0  0  0  0  0  0  0  0  0  0  0  0
  -21.1589   -6.0228   25.8556 H   0  0  0  0  0  0  0  0  0  0  0  0
  -22.0396   -2.8212   23.2809 H   0  0  0  0  0  0  0  0  0  0  0  0
  -22.4401  -11.9703   22.4008 H   0  0  0  0  0  0  0  0  0  0  0  0
  -21.1493  -13.0679   22.2082 H   0  0  0  0  0  0  0  0  0  0  0  0
  -24.6538  -15.7807   20.5848 H   0  0  0  0  0  0  0  0  0  0  0  0
  -26.2762  -15.5453   20.1156 H   0  0  0  0  0  0  0  0  0  0  0  0
  -26.6778  -32.4663   23.1464 H   0  0  0  0  0  0  0  0  0  0  0  0
  -25.0747  -34.0282   25.0566 H   0  0  0  0  0  0  0  0  0  0  0  0
  -22.7881  -31.3489   21.4131 H   0  0  0  0  0  0  0  0  0  0  0  0
  -23.3854  -35.9823   23.3648 H   0  0  0  0  0  0  0  0  0  0  0  0
  -24.3696  -36.8624   22.2204 H   0  0  0  0  0  0  0  0  0  0  0  0
  -23.7669  -37.6632   23.6516 H   0  0  0  0  0  0  0  0  0  0  0  0
  -25.9445  -31.6237   20.5691 H   0  0  0  0  0  0  0  0  0  0  0  0
  -26.7436  -31.0079   22.0108 H   0  0  0  0  0  0  0  0  0  0  0  0
  -28.0090  -29.1452   21.2057 H   0  0  0  0  0  0  0  0  0  0  0  0
  -26.1369  -26.0560   19.0719 H   0  0  0  0  0  0  0  0  0  0  0  0
  -24.0652  -27.2961   19.0997 H   0  0  0  0  0  0  0  0  0  0  0  0
  -23.6156  -30.5365   19.3930 H   0  0  0  0  0  0  0  0  0  0  0  0
  -22.7355  -29.1425   19.9945 H   0  0  0  0  0  0  0  0  0  0  0  0
  -25.1353  -36.2335   25.0565 H   0  0  0  0  0  0  0  0  0  0  0  0
  -21.0070  -28.3206   24.0793 H   0  0  0  0  0  0  0  0  0  0  0  0
  -20.5555  -26.2518   23.3550 H   0  0  0  0  0  0  0  0  0  0  0  0
  -21.5974  -26.8362   22.0454 H   0  0  0  0  0  0  0  0  0  0  0  0
  -19.6810  -25.6422   21.1488 H   0  0  0  0  0  0  0  0  0  0  0  0
  -19.6406  -27.3343   20.7034 H   0  0  0  0  0  0  0  0  0  0  0  0
  -17.4282  -26.6888   21.4113 H   0  0  0  0  0  0  0  0  0  0  0  0
  -18.0803  -26.0130   22.9049 H   0  0  0  0  0  0  0  0  0  0  0  0
  -19.7265  -30.6774   24.2204 H   0  0  0  0  0  0  0  0  0  0  0  0
  -17.5064  -31.5856   24.4483 H   0  0  0  0  0  0  0  0  0  0  0  0
  -15.5878  -30.2839   23.7407 H   0  0  0  0  0  0  0  0  0  0  0  0
  -15.9120  -28.0941   22.7766 H   0  0  0  0  0  0  0  0  0  0  0  0
  -24.5787  -30.7757   25.6817 H   0  0  0  0  0  0  0  0  0  0  0  0
  -25.0041  -32.2289   26.5536 H   0  0  0  0  0  0  0  0  0  0  0  0
  -25.8166  -30.7245   26.9138 H   0  0  0  0  0  0  0  0  0  0  0  0
  -26.2892  -29.7335   24.0803 H   0  0  0  0  0  0  0  0  0  0  0  0
  -27.4336  -29.7484   25.4006 H   0  0  0  0  0  0  0  0  0  0  0  0
  -27.8466  -30.4994   23.8779 H   0  0  0  0  0  0  0  0  0  0  0  0
  -27.2251  -33.3632   26.1242 H   0  0  0  0  0  0  0  0  0  0  0  0
  -28.3902  -32.6065   25.0645 H   0  0  0  0  0  0  0  0  0  0  0  0
  -27.9772  -31.8555   26.5872 H   0  0  0  0  0  0  0  0  0  0  0  0
  -28.2744  -38.0016   24.6863 H   0  0  0  0  0  0  0  0  0  0  0  0
  -28.0396  -36.2711   24.7461 H   0  0  0  0  0  0  0  0  0  0  0  0
  -27.1773  -37.3087   25.8564 H   0  0  0  0  0  0  0  0  0  0  0  0
  -20.9627  -29.9365   21.7352 H   0  0  0  0  0  0  0  0  0  0  0  0
  -26.0447  -38.2561   24.0273 H   0  0  0  0  0  0  0  0  0  0  0  0
  -34.0846  -16.8567   23.4211 H   0  0  0  0  0  0  0  0  0  0  0  0
  -32.8592  -18.6174   24.5559 H   0  0  0  0  0  0  0  0  0  0  0  0
  -32.9163  -15.3175   21.9526 H   0  0  0  0  0  0  0  0  0  0  0  0
  -28.4753  -18.1684   23.2718 H   0  0  0  0  0  0  0  0  0  0  0  0
  -28.3499  -16.4452   23.0116 H   0  0  0  0  0  0  0  0  0  0  0  0
  -28.6336  -17.5145   21.6592 H   0  0  0  0  0  0  0  0  0  0  0  0
  -28.0578  -20.7978   24.8958 H   0  0  0  0  0  0  0  0  0  0  0  0
  -29.4850  -21.7946   24.8969 H   0  0  0  0  0  0  0  0  0  0  0  0
  -27.7711  -23.5658   24.5515 H   0  0  0  0  0  0  0  0  0  0  0  0
  -26.4137  -22.9943   23.6733 H   0  0  0  0  0  0  0  0  0  0  0  0
  -29.3818  -15.4096   21.3488 H   0  0  0  0  0  0  0  0  0  0  0  0
  -29.6476  -20.0185   22.7318 H   0  0  0  0  0  0  0  0  0  0  0  0
  -30.7868  -18.4847   26.2629 H   0  0  0  0  0  0  0  0  0  0  0  0
  -29.8219  -19.8907   26.2705 H   0  0  0  0  0  0  0  0  0  0  0  0
  1 25  1  0
  1 30  2  0
  1 82  1  0
  2  3  1  0
  2 25  1  0
  2 86  1  0
  2 87  1  0
  3  4  1  0
  3 88  1  0
  3 89  1  0
  4  5  1  0
  4 90  1  0
  4 91  1  0
  5  6  1  0
  5 26  1  0
  5 92  1  6
  6 25  1  0
  6 93  1  0
  6 94  1  0
  7  8  2  0
  7 26  1  0
  7 29  1  0
  8  9  1  0
  8 22  1  0
  9 10  1  0
  9 27  2  0
 10 11  2  0
 10 15  1  0
 11 12  1  0
 11 95  1  0
 12 13  2  0
 12 96  1  0
 13 14  1  0
 13 31  1  0
 14 15  2  0
 14 97  1  0
 15 98  1  0
 16 17  2  0
 16 21  1  0
 16 31  1  0
 17 18  1  0
 17 99  1  0
 18 19  2  0
 18100  1  0
 19 20  1  0
 19 24  1  0
 20 21  2  0
 20101  1  0
 21 23  1  0
 22 28  1  0
 22 32  2  0
 26 27  1  0
 28102  1  0
 28103  1  0
 29104  1  0
 29105  1  0
 33 34  1  0
 33 66  1  0
 33 70  2  0
 34 36  1  0
 34 59  1  0
 34106  1  6
 35 44  2  0
 35 45  1  0
 35 68  1  0
 36 56  1  0
 36107  1  0
 37 39  1  0
 37 47  1  0
 37 66  1  0
 37108  1  6
 38 43  2  0
 38 46  1  0
 38 47  1  0
 39 64  1  0
 39 67  2  0
 40 52  1  0
 40 53  2  0
 40 58  1  0
 41109  1  0
 41110  1  0
 41111  1  0
 42 43  1  0
 42 66  1  0
 42112  1  0
 42113  1  0
 43 44  1  0
 44114  1  0
 45 46  2  0
 45115  1  0
 46116  1  0
 47117  1  0
 47118  1  0
 48 41  1  0
 48 56  1  0
 48 65  1  0
 48119  1  1
 49 50  1  0
 49 53  1  0
 49 64  1  0
 49120  1  1
 50 51  1  0
 50121  1  0
 50122  1  0
 51 52  1  0
 51123  1  0
 51124  1  0
 52125  1  0
 52126  1  0
 53 54  1  0
 54 55  2  0
 54127  1  0
 55 57  1  0
 55128  1  0
 56 69  2  0
 57 58  2  0
 57129  1  0
 58130  1  0
 59 60  1  0
 59 61  1  0
 59 62  1  0
 60131  1  0
 60132  1  0
 60133  1  0
 61134  1  0
 61135  1  0
 61136  1  0
 62137  1  0
 62138  1  0
 62139  1  0
 63 65  1  0
 63140  1  0
 63141  1  0
 63142  1  0
 64143  1  0
 65144  1  0
 68 81  1  0
 71 72  2  0
 71 73  1  0
 71145  1  0
 72 74  1  0
 72146  1  0
 73 76  2  0
 73147  1  0
 74 75  2  0
 74 77  1  0
 75 76  1  0
 75 79  1  0
 76 82  1  0
 77 83  1  0
 77 84  2  0
 78 80  1  0
 78 81  1  0
 78 85  2  0
 79148  1  0
 79149  1  0
 79150  1  0
 80 83  1  0
 80151  1  0
 80152  1  0
 81153  1  0
 81154  1  0
 82155  1  0
 83156  1  0
 84157  1  0
 84158  1  0
M  CHG  1  84   1
M  ISO  4   1 100  68 101  81 101  82 100
M  END
$$$$
27
     RDKit          3D

151159  0  0  0  0  0  0  0  0999 V2000
  -30.7652  -14.3608   20.6636 C   0  0  0  0  0  0  0  0  0100  0  0
  -30.4392  -12.2669   19.3775 C   0  0  0  0  0  0  0  0  0101  0  0
  -29.4791  -12.5281   18.1977 C   0  0  0  0  0  0  0  0  0102  0  0
  -27.9985  -12.3963   18.6038 C   0  0  0  0  0  0  0  0  0103  0  0
  -27.6639  -13.2170   19.8820 C   0  0  2  0  0  0  0  0  0104  0  0
  -28.6795  -12.9602   21.0279 C   0  0  0  0  0  0  0  0  0105  0  0
  -25.2633  -13.8245   20.5754 C   0  0  0  0  0  0  0  0  0106  0  0
  -24.1645  -13.0409   20.9408 C   0  0  0  0  0  0  0  0  0107  0  0
  -24.6400  -11.7009   20.8697 C   0  0  0  0  0  0  0  0  0108  0  0
  -23.9005  -10.4085   21.0420 C   0  0  0  0  0  0  0  0  0109  0  0
  -24.3588   -9.4123   21.9123 C   0  0  0  0  0  0  0  0  0110  0  0
  -23.6296   -8.2350   22.0803 C   0  0  0  0  0  0  0  0  0111  0  0
  -22.4385   -8.0419   21.3657 C   0  0  0  0  0  0  0  0  0112  0  0
  -22.0103   -9.0167   20.4678 C   0  0  0  0  0  0  0  0  0113  0  0
  -22.7317  -10.1925   20.3102 C   0  0  0  0  0  0  0  0  0114  0  0
  -21.6857   -6.0709   22.5391 C   0  0  0  0  0  0  0  0  0115  0  0
  -21.4064   -6.5490   23.8264 C   0  0  0  0  0  0  0  0  0116  0  0
  -21.3635   -5.6677   24.9085 C   0  0  0  0  0  0  0  0  0117  0  0
  -21.5973   -4.3067   24.7088 C   0  0  0  0  0  0  0  0  0118  0  0
  -21.8700   -3.8284   23.4282 C   0  0  0  0  0  0  0  0  0119  0  0
  -21.9144   -4.7056   22.3460 C   0  0  0  0  0  0  0  0  0120  0  0
  -22.8194  -13.5263   21.1763 C   0  0  0  0  0  0  0  0  0121  0  0
  -22.1559   -4.2206   21.1063 F   0  0  0  0  0  0  0  0  0122  0  0
  -21.5628   -3.4510   25.7555 F   0  0  0  0  0  0  0  0  0123  0  0
  -30.0261  -13.1803   20.4553 N   0  0  0  0  0  0  0  0  0124  0  0
  -26.2911  -12.9356   20.3443 N   0  0  0  0  0  0  0  0  0125  0  0
  -25.9236  -11.6675   20.5847 N   0  0  0  0  0  0  0  0  0126  0  0
  -22.0708  -12.7905   22.0005 N   0  0  0  0  0  0  0  0  0127  0  0
  -25.4117  -15.1773   20.4097 N   0  0  0  0  0  0  0  0  0128  0  0
  -31.7916  -14.6724   20.0536 O   0  0  0  0  0  0  0  0  0129  0  0
  -21.6670   -6.9022   21.4423 O   0  0  0  0  0  0  0  0  0130  0  0
  -22.3946  -14.5564   20.6568 O   0  0  0  0  0  0  0  0  0131  0  0
  -24.6048  -31.8614   23.2223 C   0  0  0  0  0  0  0  0  0100  0  0
  -25.8822  -32.4841   23.8616 C   0  0  1  0  0  0  0  0  0101  0  0
  -27.2536  -27.5042   20.1156 C   0  0  0  0  0  0  0  0  0102  0  0
  -25.5726  -33.8762   24.2210 N   0  0  0  0  0  0  0  0  0103  0  0
  -23.4066  -30.4859   21.5461 C   0  0  2  0  0  0  0  0  0104  0  0
  -24.8467  -28.9636   20.1247 C   0  0  0  0  0  0  0  0  0105  0  0
  -22.7412  -29.4652   22.5052 C   0  0  0  0  0  0  0  0  0106  0  0
  -18.0167  -28.1302   22.8626 C   0  0  0  0  0  0  0  0  0107  0  0
  -24.1342  -36.7390   23.2568 C   0  0  0  0  0  0  0  0  0108  0  0
  -25.9141  -30.8882   21.3456 C   0  0  0  0  0  0  0  0  0109  0  0
  -25.9930  -29.5029   20.7208 C   0  0  0  0  0  0  0  0  0110  0  0
  -27.1758  -28.7612   20.7331 C   0  0  0  0  0  0  0  0  0111  0  0
  -26.1032  -26.9836   19.5230 C   0  0  0  0  0  0  0  0  0112  0  0
  -24.9097  -27.7011   19.5331 C   0  0  0  0  0  0  0  0  0113  0  0
  -23.5715  -29.7899   20.1582 C   0  0  0  0  0  0  0  0  0114  0  0
  -25.3990  -36.3212   24.0232 C   0  0  1  0  0  0  0  0  0115  0  0
  -20.5793  -28.3813   23.1004 C   0  0  2  0  0  0  0  0  0116  0  0
  -20.6548  -26.9392   22.5411 C   0  0  0  0  0  0  0  0  0117  0  0
  -19.5615  -26.6407   21.5143 C   0  0  0  0  0  0  0  0  0118  0  0
  -18.1797  -26.7818   22.1673 C   0  0  0  0  0  0  0  0  0119  0  0
  -19.1385  -28.8769   23.2988 C   0  0  0  0  0  0  0  0  0120  0  0
  -18.9183  -30.1286   23.8878 C   0  0  0  0  0  0  0  0  0121  0  0
  -17.6396  -30.6493   24.0352 C   0  0  0  0  0  0  0  0  0122  0  0
  -25.9153  -34.9582   23.4993 C   0  0  0  0  0  0  0  0  0123  0  0
  -16.5415  -29.9068   23.6254 C   0  0  0  0  0  0  0  0  0124  0  0
  -16.7331  -28.6521   23.0586 C   0  0  0  0  0  0  0  0  0125  0  0
  -26.4583  -31.6439   25.0683 C   0  0  0  0  0  0  0  0  0126  0  0
  -25.3807  -31.3179   26.1374 C   0  0  0  0  0  0  0  0  0127  0  0
  -27.0530  -30.3024   24.5680 C   0  0  0  0  0  0  0  0  0128  0  0
  -27.6014  -32.4281   25.7651 C   0  0  0  0  0  0  0  0  0129  0  0
  -27.5629  -37.2220   24.8621 C   0  0  0  0  0  0  0  0  0130  0  0
  -21.4133  -29.3375   22.3735 N   0  0  0  0  0  0  0  0  0131  0  0
  -26.4706  -37.3372   23.9061 N   0  0  0  0  0  0  0  0  0132  0  0
  -24.6674  -31.0544   22.1178 N   0  0  0  0  0  0  0  0  0133  0  0
  -23.4259  -28.8150   23.2971 O   0  0  0  0  0  0  0  0  0134  0  0
  -28.3948  -26.7345   20.0089 O   0  0  0  0  0  0  0  0  0135  0  0
  -26.5870  -34.9065   22.4671 O   0  0  0  0  0  0  0  0  0136  0  0
  -23.5365  -32.1254   23.7833 O   0  0  0  0  0  0  0  0  0137  0  0
  -22.9705  -23.5418   27.3784 C   0  0  0  0  0  0  0  0  0  0  0  0
  -22.4688  -22.8154   25.3645 C   0  0  0  0  0  0  0  0  0  0  0  0
  -23.4664  -22.7740   26.3077 C   0  0  0  0  0  0  0  0  0  0  0  0
  -20.1611  -26.8619   22.0350 C   0  0  0  0  0  0  0  0  0  1  0  0
  -18.9830  -26.3461   22.4043 C   0  0  0  0  0  0  0  0  0  0  0  0
  -18.9398  -25.3546   23.5242 C   0  0  0  0  0  0  0  0  0  0  0  0
  -20.2700  -24.9975   24.1760 C   0  0  0  0  0  0  0  0  0  0  0  0
  -20.1550  -23.9196   25.2582 C   0  0  0  0  0  0  0  0  0  0  0  0
  -21.7526  -24.0350   27.1386 N   0  0  0  0  0  0  0  0  0  0  0  0
  -21.4749  -23.5761   25.9064 N   0  0  0  0  0  0  0  0  0  0  0  0
  -24.7068  -22.0982   26.1959 N   0  0  0  0  0  0  0  0  0  0  0  0
  -17.8798  -24.8377   23.8721 O   0  0  0  0  0  0  0  0  0  0  0  0
  -17.7953  -26.6859   21.7937 O   0  0  0  0  0  0  0  0  0  0  0  0
  -31.4485  -12.4701   19.0860 H   0  0  0  0  0  0  0  0  0  0  0  0
  -30.3970  -11.2460   19.6950 H   0  0  0  0  0  0  0  0  0  0  0  0
  -29.6870  -11.8204   17.4226 H   0  0  0  0  0  0  0  0  0  0  0  0
  -29.6375  -13.5326   17.8649 H   0  0  0  0  0  0  0  0  0  0  0  0
  -27.7830  -11.3650   18.7904 H   0  0  0  0  0  0  0  0  0  0  0  0
  -27.4028  -12.7801   17.8021 H   0  0  0  0  0  0  0  0  0  0  0  0
  -27.7353  -14.2503   19.6136 H   0  0  0  0  0  0  0  0  0  0  0  0
  -28.5890  -11.9550   21.3832 H   0  0  0  0  0  0  0  0  0  0  0  0
  -28.5005  -13.6134   21.8562 H   0  0  0  0  0  0  0  0  0  0  0  0
  -25.2399   -9.5495   22.4318 H   0  0  0  0  0  0  0  0  0  0  0  0
  -23.9663   -7.5070   22.7297 H   0  0  0  0  0  0  0  0  0  0  0  0
  -21.1515   -8.8641   19.9162 H   0  0  0  0  0  0  0  0  0  0  0  0
  -22.4016  -10.9115   19.6476 H   0  0  0  0  0  0  0  0  0  0  0  0
  -21.2319   -7.5552   23.9750 H   0  0  0  0  0  0  0  0  0  0  0  0
  -21.1589   -6.0228   25.8556 H   0  0  0  0  0  0  0  0  0  0  0  0
  -22.0396   -2.8212   23.2809 H   0  0  0  0  0  0  0  0  0  0  0  0
  -22.4401  -11.9703   22.4008 H   0  0  0  0  0  0  0  0  0  0  0  0
  -21.1493  -13.0679   22.2082 H   0  0  0  0  0  0  0  0  0  0  0  0
  -24.6538  -15.7807   20.5848 H   0  0  0  0  0  0  0  0  0  0  0  0
  -26.2762  -15.5453   20.1156 H   0  0  0  0  0  0  0  0  0  0  0  0
  -26.6778  -32.4663   23.1464 H   0  0  0  0  0  0  0  0  0  0  0  0
  -25.0747  -34.0282   25.0566 H   0  0  0  0  0  0  0  0  0  0  0  0
  -22.7881  -31.3489   21.4131 H   0  0  0  0  0  0  0  0  0  0  0  0
  -23.3854  -35.9823   23.3648 H   0  0  0  0  0  0  0  0  0  0  0  0
  -24.3696  -36.8624   22.2204 H   0  0  0  0  0  0  0  0  0  0  0  0
  -23.7669  -37.6632   23.6516 H   0  0  0  0  0  0  0  0  0  0  0  0
  -25.9445  -31.6237   20.5691 H   0  0  0  0  0  0  0  0  0  0  0  0
  -26.7436  -31.0079   22.0108 H   0  0  0  0  0  0  0  0  0  0  0  0
  -28.0090  -29.1452   21.2057 H   0  0  0  0  0  0  0  0  0  0  0  0
  -26.1369  -26.0560   19.0719 H   0  0  0  0  0  0  0  0  0  0  0  0
  -24.0652  -27.2961   19.0997 H   0  0  0  0  0  0  0  0  0  0  0  0
  -23.6156  -30.5365   19.3930 H   0  0  0  0  0  0  0  0  0  0  0  0
  -22.7355  -29.1425   19.9945 H   0  0  0  0  0  0  0  0  0  0  0  0
  -25.1353  -36.2335   25.0565 H   0  0  0  0  0  0  0  0  0  0  0  0
  -21.0070  -28.3206   24.0793 H   0  0  0  0  0  0  0  0  0  0  0  0
  -20.5555  -26.2518   23.3550 H   0  0  0  0  0  0  0  0  0  0  0  0
  -21.5974  -26.8362   22.0454 H   0  0  0  0  0  0  0  0  0  0  0  0
  -19.6810  -25.6422   21.1488 H   0  0  0  0  0  0  0  0  0  0  0  0
  -19.6406  -27.3343   20.7034 H   0  0  0  0  0  0  0  0  0  0  0  0
  -17.4282  -26.6888   21.4113 H   0  0  0  0  0  0  0  0  0  0  0  0
  -18.0803  -26.0130   22.9049 H   0  0  0  0  0  0  0  0  0  0  0  0
  -19.7265  -30.6774   24.2204 H   0  0  0  0  0  0  0  0  0  0  0  0
  -17.5064  -31.5856   24.4483 H   0  0  0  0  0  0  0  0  0  0  0  0
  -15.5878  -30.2839   23.7407 H   0  0  0  0  0  0  0  0  0  0  0  0
  -15.9120  -28.0941   22.7766 H   0  0  0  0  0  0  0  0  0  0  0  0
  -24.5787  -30.7757   25.6817 H   0  0  0  0  0  0  0  0  0  0  0  0
  -25.0041  -32.2289   26.5536 H   0  0  0  0  0  0  0  0  0  0  0  0
  -25.8166  -30.7245   26.9138 H   0  0  0  0  0  0  0  0  0  0  0  0
  -26.2892  -29.7335   24.0803 H   0  0  0  0  0  0  0  0  0  0  0  0
  -27.4336  -29.7484   25.4006 H   0  0  0  0  0  0  0  0  0  0  0  0
  -27.8466  -30.4994   23.8779 H   0  0  0  0  0  0  0  0  0  0  0  0
  -27.2251  -33.3632   26.1242 H   0  0  0  0  0  0  0  0  0  0  0  0
  -28.3902  -32.6065   25.0645 H   0  0  0  0  0  0  0  0  0  0  0  0
  -27.9772  -31.8555   26.5872 H   0  0  0  0  0  0  0  0  0  0  0  0
  -28.2744  -38.0016   24.6863 H   0  0  0  0  0  0  0  0  0  0  0  0
  -28.0396  -36.2711   24.7461 H   0  0  0  0  0  0  0  0  0  0  0  0
  -27.1773  -37.3087   25.8564 H   0  0  0  0  0  0  0  0  0  0  0  0
  -20.9627  -29.9365   21.7352 H   0  0  0  0  0  0  0  0  0  0  0  0
  -26.0447  -38.2561   24.0273 H   0  0  0  0  0  0  0  0  0  0  0  0
  -23.4916  -23.7058   28.2539 H   0  0  0  0  0  0  0  0  0  0  0  0
  -22.4709  -22.3638   24.4366 H   0  0  0  0  0  0  0  0  0  0  0  0
  -19.9347  -27.8645   21.9422 H   0  0  0  0  0  0  0  0  0  0  0  0
  -20.6762  -25.8816   24.6214 H   0  0  0  0  0  0  0  0  0  0  0  0
  -20.8995  -24.6023   23.4063 H   0  0  0  0  0  0  0  0  0  0  0  0
  -19.7553  -23.0328   24.8123 H   0  0  0  0  0  0  0  0  0  0  0  0
  -19.5188  -24.3092   26.0252 H   0  0  0  0  0  0  0  0  0  0  0  0
  -25.2885  -22.4580   26.9040 H   0  0  0  0  0  0  0  0  0  0  0  0
  -17.7906  -27.3040   21.0895 H   0  0  0  0  0  0  0  0  0  0  0  0
  1 25  1  0
  1 30  2  0
  1 81  1  0
  2  3  1  0
  2 25  1  0
  2 84  1  0
  2 85  1  0
  3  4  1  0
  3 86  1  0
  3 87  1  0
  4  5  1  0
  4 88  1  0
  4 89  1  0
  5  6  1  0
  5 26  1  0
  5 90  1  6
  6 25  1  0
  6 91  1  0
  6 92  1  0
  7  8  2  0
  7 26  1  0
  7 29  1  0
  8  9  1  0
  8 22  1  0
  9 10  1  0
  9 27  2  0
 10 11  2  0
 10 15  1  0
 11 12  1  0
 11 93  1  0
 12 13  2  0
 12 94  1  0
 13 14  1  0
 13 31  1  0
 14 15  2  0
 14 95  1  0
 15 96  1  0
 16 17  2  0
 16 21  1  0
 16 31  1  0
 17 18  1  0
 17 97  1  0
 18 19  2  0
 18 98  1  0
 19 20  1  0
 19 24  1  0
 20 21  2  0
 20 99  1  0
 21 23  1  0
 22 28  1  0
 22 32  2  0
 26 27  1  0
 28100  1  0
 28101  1  0
 29102  1  0
 29103  1  0
 33 34  1  0
 33 66  1  0
 33 70  2  0
 34 36  1  0
 34 59  1  0
 34104  1  6
 35 44  2  0
 35 45  1  0
 35 68  1  0
 36 56  1  0
 36105  1  0
 37 39  1  0
 37 47  1  0
 37 66  1  0
 37106  1  6
 38 43  2  0
 38 46  1  0
 38 47  1  0
 39 64  1  0
 39 67  2  0
 40 52  1  0
 40 53  2  0
 40 58  1  0
 41107  1  0
 41108  1  0
 41109  1  0
 42 43  1  0
 42 66  1  0
 42110  1  0
 42111  1  0
 43 44  1  0
 44112  1  0
 45 46  2  0
 45113  1  0
 46114  1  0
 47115  1  0
 47116  1  0
 48 41  1  0
 48 56  1  0
 48 65  1  0
 48117  1  1
 49 50  1  0
 49 53  1  0
 49 64  1  0
 49118  1  1
 50 51  1  0
 50119  1  0
 50120  1  0
 51 52  1  0
 51121  1  0
 51122  1  0
 52123  1  0
 52124  1  0
 53 54  1  0
 54 55  2  0
 54125  1  0
 55 57  1  0
 55126  1  0
 56 69  2  0
 57 58  2  0
 57127  1  0
 58128  1  0
 59 60  1  0
 59 61  1  0
 59 62  1  0
 60129  1  0
 60130  1  0
 60131  1  0
 61132  1  0
 61133  1  0
 61134  1  0
 62135  1  0
 62136  1  0
 62137  1  0
 63 65  1  0
 63138  1  0
 63139  1  0
 63140  1  0
 64141  1  0
 65142  1  0
 68 74  1  0
 71 73  1  0
 71 79  2  0
 71143  1  0
 72 73  2  0
 72 80  1  0
 72144  1  0
 73 81  1  0
 74 75  2  0
 74145  1  0
 75 76  1  0
 75 83  1  0
 76 77  1  0
 76 82  2  0
 77 78  1  0
 77146  1  0
 77147  1  0
 78 80  1  0
 78148  1  0
 78149  1  0
 79 80  1  0
 81150  1  0
 83151  1  0
M  ISO  4   1 100  68 101  74 101  81 100
M  END
$$$$
28
     RDKit          3D

158166  0  0  0  0  0  0  0  0999 V2000
  -30.7652  -14.3608   20.6636 C   0  0  0  0  0  0  0  0  0100  0  0
  -30.4392  -12.2669   19.3775 C   0  0  0  0  0  0  0  0  0101  0  0
  -29.4791  -12.5281   18.1977 C   0  0  0  0  0  0  0  0  0102  0  0
  -27.9985  -12.3963   18.6038 C   0  0  0  0  0  0  0  0  0103  0  0
  -27.6639  -13.2170   19.8820 C   0  0  2  0  0  0  0  0  0104  0  0
  -28.6795  -12.9602   21.0279 C   0  0  0  0  0  0  0  0  0105  0  0
  -25.2633  -13.8245   20.5754 C   0  0  0  0  0  0  0  0  0106  0  0
  -24.1645  -13.0409   20.9408 C   0  0  0  0  0  0  0  0  0107  0  0
  -24.6400  -11.7009   20.8697 C   0  0  0  0  0  0  0  0  0108  0  0
  -23.9005  -10.4085   21.0420 C   0  0  0  0  0  0  0  0  0109  0  0
  -24.3588   -9.4123   21.9123 C   0  0  0  0  0  0  0  0  0110  0  0
  -23.6296   -8.2350   22.0803 C   0  0  0  0  0  0  0  0  0111  0  0
  -22.4385   -8.0419   21.3657 C   0  0  0  0  0  0  0  0  0112  0  0
  -22.0103   -9.0167   20.4678 C   0  0  0  0  0  0  0  0  0113  0  0
  -22.7317  -10.1925   20.3102 C   0  0  0  0  0  0  0  0  0114  0  0
  -21.6857   -6.0709   22.5391 C   0  0  0  0  0  0  0  0  0115  0  0
  -21.4064   -6.5490   23.8264 C   0  0  0  0  0  0  0  0  0116  0  0
  -21.3635   -5.6677   24.9085 C   0  0  0  0  0  0  0  0  0117  0  0
  -21.5973   -4.3067   24.7088 C   0  0  0  0  0  0  0  0  0118  0  0
  -21.8700   -3.8284   23.4282 C   0  0  0  0  0  0  0  0  0119  0  0
  -21.9144   -4.7056   22.3460 C   0  0  0  0  0  0  0  0  0120  0  0
  -22.8194  -13.5263   21.1763 C   0  0  0  0  0  0  0  0  0121  0  0
  -22.1559   -4.2206   21.1063 F   0  0  0  0  0  0  0  0  0122  0  0
  -21.5628   -3.4510   25.7555 F   0  0  0  0  0  0  0  0  0123  0  0
  -30.0261  -13.1803   20.4553 N   0  0  0  0  0  0  0  0  0124  0  0
  -26.2911  -12.9356   20.3443 N   0  0  0  0  0  0  0  0  0125  0  0
  -25.9236  -11.6675   20.5847 N   0  0  0  0  0  0  0  0  0126  0  0
  -22.0708  -12.7905   22.0005 N   0  0  0  0  0  0  0  0  0127  0  0
  -25.4117  -15.1773   20.4097 N   0  0  0  0  0  0  0  0  0128  0  0
  -31.7916  -14.6724   20.0536 O   0  0  0  0  0  0  0  0  0129  0  0
  -21.6670   -6.9022   21.4423 O   0  0  0  0  0  0  0  0  0130  0  0
  -22.3946  -14.5564   20.6568 O   0  0  0  0  0  0  0  0  0131  0  0
  -24.6048  -31.8614   23.2223 C   0  0  0  0  0  0  0  0  0100  0  0
  -25.8822  -32.4841   23.8616 C   0  0  1  0  0  0  0  0  0101  0  0
  -27.2536  -27.5042   20.1156 C   0  0  0  0  0  0  0  0  0102  0  0
  -25.5726  -33.8762   24.2210 N   0  0  0  0  0  0  0  0  0103  0  0
  -23.4066  -30.4859   21.5461 C   0  0  2  0  0  0  0  0  0104  0  0
  -24.8467  -28.9636   20.1247 C   0  0  0  0  0  0  0  0  0105  0  0
  -22.7412  -29.4652   22.5052 C   0  0  0  0  0  0  0  0  0106  0  0
  -18.0167  -28.1302   22.8626 C   0  0  0  0  0  0  0  0  0107  0  0
  -24.1342  -36.7390   23.2568 C   0  0  0  0  0  0  0  0  0108  0  0
  -25.9141  -30.8882   21.3456 C   0  0  0  0  0  0  0  0  0109  0  0
  -25.9930  -29.5029   20.7208 C   0  0  0  0  0  0  0  0  0110  0  0
  -27.1758  -28.7612   20.7331 C   0  0  0  0  0  0  0  0  0111  0  0
  -26.1032  -26.9836   19.5230 C   0  0  0  0  0  0  0  0  0112  0  0
  -24.9097  -27.7011   19.5331 C   0  0  0  0  0  0  0  0  0113  0  0
  -23.5715  -29.7899   20.1582 C   0  0  0  0  0  0  0  0  0114  0  0
  -25.3990  -36.3212   24.0232 C   0  0  1  0  0  0  0  0  0115  0  0
  -20.5793  -28.3813   23.1004 C   0  0  2  0  0  0  0  0  0116  0  0
  -20.6548  -26.9392   22.5411 C   0  0  0  0  0  0  0  0  0117  0  0
  -19.5615  -26.6407   21.5143 C   0  0  0  0  0  0  0  0  0118  0  0
  -18.1797  -26.7818   22.1673 C   0  0  0  0  0  0  0  0  0119  0  0
  -19.1385  -28.8769   23.2988 C   0  0  0  0  0  0  0  0  0120  0  0
  -18.9183  -30.1286   23.8878 C   0  0  0  0  0  0  0  0  0121  0  0
  -17.6396  -30.6493   24.0352 C   0  0  0  0  0  0  0  0  0122  0  0
  -25.9153  -34.9582   23.4993 C   0  0  0  0  0  0  0  0  0123  0  0
  -16.5415  -29.9068   23.6254 C   0  0  0  0  0  0  0  0  0124  0  0
  -16.7331  -28.6521   23.0586 C   0  0  0  0  0  0  0  0  0125  0  0
  -26.4583  -31.6439   25.0683 C   0  0  0  0  0  0  0  0  0126  0  0
  -25.3807  -31.3179   26.1374 C   0  0  0  0  0  0  0  0  0127  0  0
  -27.0530  -30.3024   24.5680 C   0  0  0  0  0  0  0  0  0128  0  0
  -27.6014  -32.4281   25.7651 C   0  0  0  0  0  0  0  0  0129  0  0
  -27.5629  -37.2220   24.8621 C   0  0  0  0  0  0  0  0  0130  0  0
  -21.4133  -29.3375   22.3735 N   0  0  0  0  0  0  0  0  0131  0  0
  -26.4706  -37.3372   23.9061 N   0  0  0  0  0  0  0  0  0132  0  0
  -24.6674  -31.0544   22.1178 N   0  0  0  0  0  0  0  0  0133  0  0
  -23.4259  -28.8150   23.2971 O   0  0  0  0  0  0  0  0  0134  0  0
  -28.3948  -26.7345   20.0089 O   0  0  0  0  0  0  0  0  0135  0  0
  -26.5870  -34.9065   22.4671 O   0  0  0  0  0  0  0  0  0136  0  0
  -23.5365  -32.1254   23.7833 O   0  0  0  0  0  0  0  0  0137  0  0
  -29.5921  -20.6583   17.3596 C   0  0  0  0  0  0  0  0  0  0  0  0
  -29.4292  -21.4635   16.2324 C   0  0  0  0  0  0  0  0  0  0  0  0
  -29.1864  -22.5681   18.7827 C   0  0  0  0  0  0  0  0  0  0  0  0
  -29.0236  -23.3734   17.6555 C   0  0  0  0  0  0  0  0  0  0  0  0
  -29.4706  -21.2105   18.6348 C   0  0  0  0  0  0  0  0  0  0  0  0
  -29.1450  -22.8211   16.3803 C   0  0  0  0  0  0  0  0  0  0  0  0
  -29.9507  -25.6049   18.1975 C   0  0  0  0  0  0  0  0  0  0  0  0
  -31.4064  -26.4839   19.7093 C   0  0  0  0  0  0  0  0  0  0  0  0
  -28.7158  -24.8374   17.8174 C   0  0  0  0  0  0  0  0  0  0  0  0
  -31.6618  -26.6672   21.1936 C   0  0  0  0  0  0  0  0  0  0  0  0
  -31.7490  -28.1332   21.6077 C   0  0  0  0  0  0  0  0  0  0  0  0
  -30.4482  -28.8919   21.3749 C   0  0  0  0  0  0  0  0  0  1  0  0
  -30.2399  -25.8019   19.4406 N   0  0  0  0  0  0  0  0  0  0  0  0
  -29.6353  -20.3919   19.7796 N   0  0  0  0  0  0  0  0  0  0  0  0
  -32.1784  -26.9580   18.8773 O   0  0  0  0  0  0  0  0  0  0  0  0
  -28.9914  -23.5870   15.2913 F   0  0  0  0  0  0  0  0  0  0  0  0
  -31.4485  -12.4701   19.0860 H   0  0  0  0  0  0  0  0  0  0  0  0
  -30.3970  -11.2460   19.6950 H   0  0  0  0  0  0  0  0  0  0  0  0
  -29.6870  -11.8204   17.4226 H   0  0  0  0  0  0  0  0  0  0  0  0
  -29.6375  -13.5326   17.8649 H   0  0  0  0  0  0  0  0  0  0  0  0
  -27.7830  -11.3650   18.7904 H   0  0  0  0  0  0  0  0  0  0  0  0
  -27.4028  -12.7801   17.8021 H   0  0  0  0  0  0  0  0  0  0  0  0
  -27.7353  -14.2503   19.6136 H   0  0  0  0  0  0  0  0  0  0  0  0
  -28.5890  -11.9550   21.3832 H   0  0  0  0  0  0  0  0  0  0  0  0
  -28.5005  -13.6134   21.8562 H   0  0  0  0  0  0  0  0  0  0  0  0
  -25.2399   -9.5495   22.4318 H   0  0  0  0  0  0  0  0  0  0  0  0
  -23.9663   -7.5070   22.7297 H   0  0  0  0  0  0  0  0  0  0  0  0
  -21.1515   -8.8641   19.9162 H   0  0  0  0  0  0  0  0  0  0  0  0
  -22.4016  -10.9115   19.6476 H   0  0  0  0  0  0  0  0  0  0  0  0
  -21.2319   -7.5552   23.9750 H   0  0  0  0  0  0  0  0  0  0  0  0
  -21.1589   -6.0228   25.8556 H   0  0  0  0  0  0  0  0  0  0  0  0
  -22.0396   -2.8212   23.2809 H   0  0  0  0  0  0  0  0  0  0  0  0
  -22.4401  -11.9703   22.4008 H   0  0  0  0  0  0  0  0  0  0  0  0
  -21.1493  -13.0679   22.2082 H   0  0  0  0  0  0  0  0  0  0  0  0
  -24.6538  -15.7807   20.5848 H   0  0  0  0  0  0  0  0  0  0  0  0
  -26.2762  -15.5453   20.1156 H   0  0  0  0  0  0  0  0  0  0  0  0
  -26.6778  -32.4663   23.1464 H   0  0  0  0  0  0  0  0  0  0  0  0
  -25.0747  -34.0282   25.0566 H   0  0  0  0  0  0  0  0  0  0  0  0
  -22.7881  -31.3489   21.4131 H   0  0  0  0  0  0  0  0  0  0  0  0
  -23.3854  -35.9823   23.3648 H   0  0  0  0  0  0  0  0  0  0  0  0
  -24.3696  -36.8624   22.2204 H   0  0  0  0  0  0  0  0  0  0  0  0
  -23.7669  -37.6632   23.6516 H   0  0  0  0  0  0  0  0  0  0  0  0
  -25.9445  -31.6237   20.5691 H   0  0  0  0  0  0  0  0  0  0  0  0
  -26.7436  -31.0079   22.0108 H   0  0  0  0  0  0  0  0  0  0  0  0
  -28.0090  -29.1452   21.2057 H   0  0  0  0  0  0  0  0  0  0  0  0
  -26.1369  -26.0560   19.0719 H   0  0  0  0  0  0  0  0  0  0  0  0
  -24.0652  -27.2961   19.0997 H   0  0  0  0  0  0  0  0  0  0  0  0
  -23.6156  -30.5365   19.3930 H   0  0  0  0  0  0  0  0  0  0  0  0
  -22.7355  -29.1425   19.9945 H   0  0  0  0  0  0  0  0  0  0  0  0
  -25.1353  -36.2335   25.0565 H   0  0  0  0  0  0  0  0  0  0  0  0
  -21.0070  -28.3206   24.0793 H   0  0  0  0  0  0  0  0  0  0  0  0
  -20.5555  -26.2518   23.3550 H   0  0  0  0  0  0  0  0  0  0  0  0
  -21.5974  -26.8362   22.0454 H   0  0  0  0  0  0  0  0  0  0  0  0
  -19.6810  -25.6422   21.1488 H   0  0  0  0  0  0  0  0  0  0  0  0
  -19.6406  -27.3343   20.7034 H   0  0  0  0  0  0  0  0  0  0  0  0
  -17.4282  -26.6888   21.4113 H   0  0  0  0  0  0  0  0  0  0  0  0
  -18.0803  -26.0130   22.9049 H   0  0  0  0  0  0  0  0  0  0  0  0
  -19.7265  -30.6774   24.2204 H   0  0  0  0  0  0  0  0  0  0  0  0
  -17.5064  -31.5856   24.4483 H   0  0  0  0  0  0  0  0  0  0  0  0
  -15.5878  -30.2839   23.7407 H   0  0  0  0  0  0  0  0  0  0  0  0
  -15.9120  -28.0941   22.7766 H   0  0  0  0  0  0  0  0  0  0  0  0
  -24.5787  -30.7757   25.6817 H   0  0  0  0  0  0  0  0  0  0  0  0
  -25.0041  -32.2289   26.5536 H   0  0  0  0  0  0  0  0  0  0  0  0
  -25.8166  -30.7245   26.9138 H   0  0  0  0  0  0  0  0  0  0  0  0
  -26.2892  -29.7335   24.0803 H   0  0  0  0  0  0  0  0  0  0  0  0
  -27.4336  -29.7484   25.4006 H   0  0  0  0  0  0  0  0  0  0  0  0
  -27.8466  -30.4994   23.8779 H   0  0  0  0  0  0  0  0  0  0  0  0
  -27.2251  -33.3632   26.1242 H   0  0  0  0  0  0  0  0  0  0  0  0
  -28.3902  -32.6065   25.0645 H   0  0  0  0  0  0  0  0  0  0  0  0
  -27.9772  -31.8555   26.5872 H   0  0  0  0  0  0  0  0  0  0  0  0
  -28.2744  -38.0016   24.6863 H   0  0  0  0  0  0  0  0  0  0  0  0
  -28.0396  -36.2711   24.7461 H   0  0  0  0  0  0  0  0  0  0  0  0
  -27.1773  -37.3087   25.8564 H   0  0  0  0  0  0  0  0  0  0  0  0
  -20.9627  -29.9365   21.7352 H   0  0  0  0  0  0  0  0  0  0  0  0
  -26.0447  -38.2561   24.0273 H   0  0  0  0  0  0  0  0  0  0  0  0
  -29.8025  -19.6539   17.2502 H   0  0  0  0  0  0  0  0  0  0  0  0
  -29.5189  -21.0549   15.2890 H   0  0  0  0  0  0  0  0  0  0  0  0
  -29.0966  -22.9767   19.7261 H   0  0  0  0  0  0  0  0  0  0  0  0
  -30.5709  -25.9765   17.4611 H   0  0  0  0  0  0  0  0  0  0  0  0
  -27.9785  -24.9580   18.5834 H   0  0  0  0  0  0  0  0  0  0  0  0
  -28.3509  -25.2157   16.8854 H   0  0  0  0  0  0  0  0  0  0  0  0
  -32.5852  -26.1872   21.4424 H   0  0  0  0  0  0  0  0  0  0  0  0
  -30.8336  -26.2360   21.7162 H   0  0  0  0  0  0  0  0  0  0  0  0
  -32.5249  -28.6030   21.0401 H   0  0  0  0  0  0  0  0  0  0  0  0
  -31.9532  -28.1593   22.6577 H   0  0  0  0  0  0  0  0  0  0  0  0
  -30.6118  -29.7195   20.7167 H   0  0  0  0  0  0  0  0  0  0  0  0
  -30.0542  -29.2890   22.2870 H   0  0  0  0  0  0  0  0  0  0  0  0
  -29.5516  -20.8928   20.6230 H   0  0  0  0  0  0  0  0  0  0  0  0
  1 25  1  0
  1 30  2  0
  1 84  1  0
  2  3  1  0
  2 25  1  0
  2 87  1  0
  2 88  1  0
  3  4  1  0
  3 89  1  0
  3 90  1  0
  4  5  1  0
  4 91  1  0
  4 92  1  0
  5  6  1  0
  5 26  1  0
  5 93  1  6
  6 25  1  0
  6 94  1  0
  6 95  1  0
  7  8  2  0
  7 26  1  0
  7 29  1  0
  8  9  1  0
  8 22  1  0
  9 10  1  0
  9 27  2  0
 10 11  2  0
 10 15  1  0
 11 12  1  0
 11 96  1  0
 12 13  2  0
 12 97  1  0
 13 14  1  0
 13 31  1  0
 14 15  2  0
 14 98  1  0
 15 99  1  0
 16 17  2  0
 16 21  1  0
 16 31  1  0
 17 18  1  0
 17100  1  0
 18 19  2  0
 18101  1  0
 19 20  1  0
 19 24  1  0
 20 21  2  0
 20102  1  0
 21 23  1  0
 22 28  1  0
 22 32  2  0
 26 27  1  0
 28103  1  0
 28104  1  0
 29105  1  0
 29106  1  0
 33 34  1  0
 33 66  1  0
 33 70  2  0
 34 36  1  0
 34 59  1  0
 34107  1  6
 35 44  2  0
 35 45  1  0
 35 68  1  0
 36 56  1  0
 36108  1  0
 37 39  1  0
 37 47  1  0
 37 66  1  0
 37109  1  6
 38 43  2  0
 38 46  1  0
 38 47  1  0
 39 64  1  0
 39 67  2  0
 40 52  1  0
 40 53  2  0
 40 58  1  0
 41110  1  0
 41111  1  0
 41112  1  0
 42 43  1  0
 42 66  1  0
 42113  1  0
 42114  1  0
 43 44  1  0
 44115  1  0
 45 46  2  0
 45116  1  0
 46117  1  0
 47118  1  0
 47119  1  0
 48 41  1  0
 48 56  1  0
 48 65  1  0
 48120  1  1
 49 50  1  0
 49 53  1  0
 49 64  1  0
 49121  1  1
 50 51  1  0
 50122  1  0
 50123  1  0
 51 52  1  0
 51124  1  0
 51125  1  0
 52126  1  0
 52127  1  0
 53 54  1  0
 54 55  2  0
 54128  1  0
 55 57  1  0
 55129  1  0
 56 69  2  0
 57 58  2  0
 57130  1  0
 58131  1  0
 59 60  1  0
 59 61  1  0
 59 62  1  0
 60132  1  0
 60133  1  0
 60134  1  0
 61135  1  0
 61136  1  0
 61137  1  0
 62138  1  0
 62139  1  0
 62140  1  0
 63 65  1  0
 63141  1  0
 63142  1  0
 63143  1  0
 64144  1  0
 65145  1  0
 68 82  1  0
 71 72  2  0
 71 75  1  0
 71146  1  0
 72 76  1  0
 72147  1  0
 73 74  1  0
 73 75  2  0
 73148  1  0
 74 76  2  0
 74 79  1  0
 75 84  1  0
 76 86  1  0
 77 79  1  0
 77 83  2  0
 77149  1  0
 78 80  1  0
 78 83  1  0
 78 85  2  0
 79150  1  0
 79151  1  0
 80 81  1  0
 80152  1  0
 80153  1  0
 81 82  1  0
 81154  1  0
 81155  1  0
 82156  1  0
 82157  1  0
 84158  1  0
M  ISO  4   1 100  68 101  82 101  84 100
M  END
$$$$
29
     RDKit          3D

154162  0  0  0  0  0  0  0  0999 V2000
  -30.7652  -14.3608   20.6636 C   0  0  0  0  0  0  0  0  0100  0  0
  -30.4392  -12.2669   19.3775 C   0  0  0  0  0  0  0  0  0101  0  0
  -29.4791  -12.5281   18.1977 C   0  0  0  0  0  0  0  0  0102  0  0
  -27.9985  -12.3963   18.6038 C   0  0  0  0  0  0  0  0  0103  0  0
  -27.6639  -13.2170   19.8820 C   0  0  2  0  0  0  0  0  0104  0  0
  -28.6795  -12.9602   21.0279 C   0  0  0  0  0  0  0  0  0105  0  0
  -25.2633  -13.8245   20.5754 C   0  0  0  0  0  0  0  0  0106  0  0
  -24.1645  -13.0409   20.9408 C   0  0  0  0  0  0  0  0  0107  0  0
  -24.6400  -11.7009   20.8697 C   0  0  0  0  0  0  0  0  0108  0  0
  -23.9005  -10.4085   21.0420 C   0  0  0  0  0  0  0  0  0109  0  0
  -24.3588   -9.4123   21.9123 C   0  0  0  0  0  0  0  0  0110  0  0
  -23.6296   -8.2350   22.0803 C   0  0  0  0  0  0  0  0  0111  0  0
  -22.4385   -8.0419   21.3657 C   0  0  0  0  0  0  0  0  0112  0  0
  -22.0103   -9.0167   20.4678 C   0  0  0  0  0  0  0  0  0113  0  0
  -22.7317  -10.1925   20.3102 C   0  0  0  0  0  0  0  0  0114  0  0
  -21.6857   -6.0709   22.5391 C   0  0  0  0  0  0  0  0  0115  0  0
  -21.4064   -6.5490   23.8264 C   0  0  0  0  0  0  0  0  0116  0  0
  -21.3635   -5.6677   24.9085 C   0  0  0  0  0  0  0  0  0117  0  0
  -21.5973   -4.3067   24.7088 C   0  0  0  0  0  0  0  0  0118  0  0
  -21.8700   -3.8284   23.4282 C   0  0  0  0  0  0  0  0  0119  0  0
  -21.9144   -4.7056   22.3460 C   0  0  0  0  0  0  0  0  0120  0  0
  -22.8194  -13.5263   21.1763 C   0  0  0  0  0  0  0  0  0121  0  0
  -22.1559   -4.2206   21.1063 F   0  0  0  0  0  0  0  0  0122  0  0
  -21.5628   -3.4510   25.7555 F   0  0  0  0  0  0  0  0  0123  0  0
  -30.0261  -13.1803   20.4553 N   0  0  0  0  0  0  0  0  0124  0  0
  -26.2911  -12.9356   20.3443 N   0  0  0  0  0  0  0  0  0125  0  0
  -25.9236  -11.6675   20.5847 N   0  0  0  0  0  0  0  0  0126  0  0
  -22.0708  -12.7905   22.0005 N   0  0  0  0  0  0  0  0  0127  0  0
  -25.4117  -15.1773   20.4097 N   0  0  0  0  0  0  0  0  0128  0  0
  -31.7916  -14.6724   20.0536 O   0  0  0  0  0  0  0  0  0129  0  0
  -21.6670   -6.9022   21.4423 O   0  0  0  0  0  0  0  0  0130  0  0
  -22.3946  -14.5564   20.6568 O   0  0  0  0  0  0  0  0  0131  0  0
  -24.6048  -31.8614   23.2223 C   0  0  0  0  0  0  0  0  0100  0  0
  -25.8822  -32.4841   23.8616 C   0  0  1  0  0  0  0  0  0101  0  0
  -27.2536  -27.5042   20.1156 C   0  0  0  0  0  0  0  0  0102  0  0
  -25.5726  -33.8762   24.2210 N   0  0  0  0  0  0  0  0  0103  0  0
  -23.4066  -30.4859   21.5461 C   0  0  2  0  0  0  0  0  0104  0  0
  -24.8467  -28.9636   20.1247 C   0  0  0  0  0  0  0  0  0105  0  0
  -22.7412  -29.4652   22.5052 C   0  0  0  0  0  0  0  0  0106  0  0
  -18.0167  -28.1302   22.8626 C   0  0  0  0  0  0  0  0  0107  0  0
  -24.1342  -36.7390   23.2568 C   0  0  0  0  0  0  0  0  0108  0  0
  -25.9141  -30.8882   21.3456 C   0  0  0  0  0  0  0  0  0109  0  0
  -25.9930  -29.5029   20.7208 C   0  0  0  0  0  0  0  0  0110  0  0
  -27.1758  -28.7612   20.7331 C   0  0  0  0  0  0  0  0  0111  0  0
  -26.1032  -26.9836   19.5230 C   0  0  0  0  0  0  0  0  0112  0  0
  -24.9097  -27.7011   19.5331 C   0  0  0  0  0  0  0  0  0113  0  0
  -23.5715  -29.7899   20.1582 C   0  0  0  0  0  0  0  0  0114  0  0
  -25.3990  -36.3212   24.0232 C   0  0  1  0  0  0  0  0  0115  0  0
  -20.5793  -28.3813   23.1004 C   0  0  2  0  0  0  0  0  0116  0  0
  -20.6548  -26.9392   22.5411 C   0  0  0  0  0  0  0  0  0117  0  0
  -19.5615  -26.6407   21.5143 C   0  0  0  0  0  0  0  0  0118  0  0
  -18.1797  -26.7818   22.1673 C   0  0  0  0  0  0  0  0  0119  0  0
  -19.1385  -28.8769   23.2988 C   0  0  0  0  0  0  0  0  0120  0  0
  -18.9183  -30.1286   23.8878 C   0  0  0  0  0  0  0  0  0121  0  0
  -17.6396  -30.6493   24.0352 C   0  0  0  0  0  0  0  0  0122  0  0
  -25.9153  -34.9582   23.4993 C   0  0  0  0  0  0  0  0  0123  0  0
  -16.5415  -29.9068   23.6254 C   0  0  0  0  0  0  0  0  0124  0  0
  -16.7331  -28.6521   23.0586 C   0  0  0  0  0  0  0  0  0125  0  0
  -26.4583  -31.6439   25.0683 C   0  0  0  0  0  0  0  0  0126  0  0
  -25.3807  -31.3179   26.1374 C   0  0  0  0  0  0  0  0  0127  0  0
  -27.0530  -30.3024   24.5680 C   0  0  0  0  0  0  0  0  0128  0  0
  -27.6014  -32.4281   25.7651 C   0  0  0  0  0  0  0  0  0129  0  0
  -27.5629  -37.2220   24.8621 C   0  0  0  0  0  0  0  0  0130  0  0
  -21.4133  -29.3375   22.3735 N   0  0  0  0  0  0  0  0  0131  0  0
  -26.4706  -37.3372   23.9061 N   0  0  0  0  0  0  0  0  0132  0  0
  -24.6674  -31.0544   22.1178 N   0  0  0  0  0  0  0  0  0133  0  0
  -23.4259  -28.8150   23.2971 O   0  0  0  0  0  0  0  0  0134  0  0
  -28.3948  -26.7345   20.0089 O   0  0  0  0  0  0  0  0  0135  0  0
  -26.5870  -34.9065   22.4671 O   0  0  0  0  0  0  0  0  0136  0  0
  -23.5365  -32.1254   23.7833 O   0  0  0  0  0  0  0  0  0137  0  0
  -30.3278  -18.7083   23.5203 C   0  0  0  0  0  0  0  0  0  0  0  0
  -29.8316  -17.5089   23.0216 C   0  0  0  0  0  0  0  0  0  0  0  0
  -31.5859  -19.1509   23.1270 C   0  0  0  0  0  0  0  0  0  0  0  0
  -30.6264  -16.7951   22.1393 C   0  0  0  0  0  0  0  0  0  0  0  0
  -32.3022  -18.3634   22.2401 C   0  0  0  0  0  0  0  0  0  0  0  0
  -36.7693  -17.8143   20.1406 C   0  0  0  0  0  0  0  0  0  0  0  0
  -34.3962  -18.0524   20.9193 C   0  0  0  0  0  0  0  0  0  0  0  0
  -35.5393  -19.9960   19.7373 C   0  0  0  0  0  0  0  0  0  1  0  0
  -35.7165  -18.7898   20.6661 C   0  0  2  0  0  0  0  0  0  0  0  0
  -31.8533  -17.1928   21.7342 N   0  0  0  0  0  0  0  0  0  0  0  0
  -30.1148  -15.5736   21.6352 N   0  0  0  0  0  0  0  0  0  0  0  0
  -33.5581  -18.7877   21.8382 N   0  0  0  0  0  0  0  0  0  0  0  0
  -28.6221  -17.0703   23.3930 F   0  0  0  0  0  0  0  0  0  0  0  0
  -36.1705  -19.2561   21.8696 F   0  0  0  0  0  0  0  0  0  0  0  0
  -32.1855  -20.6396   23.7547 Cl  0  0  0  0  0  0  0  0  0  0  0  0
  -31.4485  -12.4701   19.0860 H   0  0  0  0  0  0  0  0  0  0  0  0
  -30.3970  -11.2460   19.6950 H   0  0  0  0  0  0  0  0  0  0  0  0
  -29.6870  -11.8204   17.4226 H   0  0  0  0  0  0  0  0  0  0  0  0
  -29.6375  -13.5326   17.8649 H   0  0  0  0  0  0  0  0  0  0  0  0
  -27.7830  -11.3650   18.7904 H   0  0  0  0  0  0  0  0  0  0  0  0
  -27.4028  -12.7801   17.8021 H   0  0  0  0  0  0  0  0  0  0  0  0
  -27.7353  -14.2503   19.6136 H   0  0  0  0  0  0  0  0  0  0  0  0
  -28.5890  -11.9550   21.3832 H   0  0  0  0  0  0  0  0  0  0  0  0
  -28.5005  -13.6134   21.8562 H   0  0  0  0  0  0  0  0  0  0  0  0
  -25.2399   -9.5495   22.4318 H   0  0  0  0  0  0  0  0  0  0  0  0
  -23.9663   -7.5070   22.7297 H   0  0  0  0  0  0  0  0  0  0  0  0
  -21.1515   -8.8641   19.9162 H   0  0  0  0  0  0  0  0  0  0  0  0
  -22.4016  -10.9115   19.6476 H   0  0  0  0  0  0  0  0  0  0  0  0
  -21.2319   -7.5552   23.9750 H   0  0  0  0  0  0  0  0  0  0  0  0
  -21.1589   -6.0228   25.8556 H   0  0  0  0  0  0  0  0  0  0  0  0
  -22.0396   -2.8212   23.2809 H   0  0  0  0  0  0  0  0  0  0  0  0
  -22.4401  -11.9703   22.4008 H   0  0  0  0  0  0  0  0  0  0  0  0
  -21.1493  -13.0679   22.2082 H   0  0  0  0  0  0  0  0  0  0  0  0
  -24.6538  -15.7807   20.5848 H   0  0  0  0  0  0  0  0  0  0  0  0
  -26.2762  -15.5453   20.1156 H   0  0  0  0  0  0  0  0  0  0  0  0
  -26.6778  -32.4663   23.1464 H   0  0  0  0  0  0  0  0  0  0  0  0
  -25.0747  -34.0282   25.0566 H   0  0  0  0  0  0  0  0  0  0  0  0
  -22.7881  -31.3489   21.4131 H   0  0  0  0  0  0  0  0  0  0  0  0
  -23.3854  -35.9823   23.3648 H   0  0  0  0  0  0  0  0  0  0  0  0
  -24.3696  -36.8624   22.2204 H   0  0  0  0  0  0  0  0  0  0  0  0
  -23.7669  -37.6632   23.6516 H   0  0  0  0  0  0  0  0  0  0  0  0
  -25.9445  -31.6237   20.5691 H   0  0  0  0  0  0  0  0  0  0  0  0
  -26.7436  -31.0079   22.0108 H   0  0  0  0  0  0  0  0  0  0  0  0
  -28.0090  -29.1452   21.2057 H   0  0  0  0  0  0  0  0  0  0  0  0
  -26.1369  -26.0560   19.0719 H   0  0  0  0  0  0  0  0  0  0  0  0
  -24.0652  -27.2961   19.0997 H   0  0  0  0  0  0  0  0  0  0  0  0
  -23.6156  -30.5365   19.3930 H   0  0  0  0  0  0  0  0  0  0  0  0
  -22.7355  -29.1425   19.9945 H   0  0  0  0  0  0  0  0  0  0  0  0
  -25.1353  -36.2335   25.0565 H   0  0  0  0  0  0  0  0  0  0  0  0
  -21.0070  -28.3206   24.0793 H   0  0  0  0  0  0  0  0  0  0  0  0
  -20.5555  -26.2518   23.3550 H   0  0  0  0  0  0  0  0  0  0  0  0
  -21.5974  -26.8362   22.0454 H   0  0  0  0  0  0  0  0  0  0  0  0
  -19.6810  -25.6422   21.1488 H   0  0  0  0  0  0  0  0  0  0  0  0
  -19.6406  -27.3343   20.7034 H   0  0  0  0  0  0  0  0  0  0  0  0
  -17.4282  -26.6888   21.4113 H   0  0  0  0  0  0  0  0  0  0  0  0
  -18.0803  -26.0130   22.9049 H   0  0  0  0  0  0  0  0  0  0  0  0
  -19.7265  -30.6774   24.2204 H   0  0  0  0  0  0  0  0  0  0  0  0
  -17.5064  -31.5856   24.4483 H   0  0  0  0  0  0  0  0  0  0  0  0
  -15.5878  -30.2839   23.7407 H   0  0  0  0  0  0  0  0  0  0  0  0
  -15.9120  -28.0941   22.7766 H   0  0  0  0  0  0  0  0  0  0  0  0
  -24.5787  -30.7757   25.6817 H   0  0  0  0  0  0  0  0  0  0  0  0
  -25.0041  -32.2289   26.5536 H   0  0  0  0  0  0  0  0  0  0  0  0
  -25.8166  -30.7245   26.9138 H   0  0  0  0  0  0  0  0  0  0  0  0
  -26.2892  -29.7335   24.0803 H   0  0  0  0  0  0  0  0  0  0  0  0
  -27.4336  -29.7484   25.4006 H   0  0  0  0  0  0  0  0  0  0  0  0
  -27.8466  -30.4994   23.8779 H   0  0  0  0  0  0  0  0  0  0  0  0
  -27.2251  -33.3632   26.1242 H   0  0  0  0  0  0  0  0  0  0  0  0
  -28.3902  -32.6065   25.0645 H   0  0  0  0  0  0  0  0  0  0  0  0
  -27.9772  -31.8555   26.5872 H   0  0  0  0  0  0  0  0  0  0  0  0
  -28.2744  -38.0016   24.6863 H   0  0  0  0  0  0  0  0  0  0  0  0
  -28.0396  -36.2711   24.7461 H   0  0  0  0  0  0  0  0  0  0  0  0
  -27.1773  -37.3087   25.8564 H   0  0  0  0  0  0  0  0  0  0  0  0
  -20.9627  -29.9365   21.7352 H   0  0  0  0  0  0  0  0  0  0  0  0
  -26.0447  -38.2561   24.0273 H   0  0  0  0  0  0  0  0  0  0  0  0
  -29.7646  -19.2677   24.1797 H   0  0  0  0  0  0  0  0  0  0  0  0
  -36.4534  -17.4234   19.1960 H   0  0  0  0  0  0  0  0  0  0  0  0
  -36.8901  -17.0108   20.8368 H   0  0  0  0  0  0  0  0  0  0  0  0
  -37.7015  -18.3258   20.0211 H   0  0  0  0  0  0  0  0  0  0  0  0
  -34.6079  -17.0889   21.3338 H   0  0  0  0  0  0  0  0  0  0  0  0
  -33.8770  -17.9555   19.9887 H   0  0  0  0  0  0  0  0  0  0  0  0
  -35.4846  -19.5784   18.7537 H   0  0  0  0  0  0  0  0  0  0  0  0
  -36.3515  -20.5982   20.0874 H   0  0  0  0  0  0  0  0  0  0  0  0
  -29.1861  -15.3970   21.9099 H   0  0  0  0  0  0  0  0  0  0  0  0
  -33.8987  -19.6380   22.1990 H   0  0  0  0  0  0  0  0  0  0  0  0
  1 25  1  0
  1 30  2  0
  1 81  1  0
  2  3  1  0
  2 25  1  0
  2 86  1  0
  2 87  1  0
  3  4  1  0
  3 88  1  0
  3 89  1  0
  4  5  1  0
  4 90  1  0
  4 91  1  0
  5  6  1  0
  5 26  1  0
  5 92  1  6
  6 25  1  0
  6 93  1  0
  6 94  1  0
  7  8  2  0
  7 26  1  0
  7 29  1  0
  8  9  1  0
  8 22  1  0
  9 10  1  0
  9 27  2  0
 10 11  2  0
 10 15  1  0
 11 12  1  0
 11 95  1  0
 12 13  2  0
 12 96  1  0
 13 14  1  0
 13 31  1  0
 14 15  2  0
 14 97  1  0
 15 98  1  0
 16 17  2  0
 16 21  1  0
 16 31  1  0
 17 18  1  0
 17 99  1  0
 18 19  2  0
 18100  1  0
 19 20  1  0
 19 24  1  0
 20 21  2  0
 20101  1  0
 21 23  1  0
 22 28  1  0
 22 32  2  0
 26 27  1  0
 28102  1  0
 28103  1  0
 29104  1  0
 29105  1  0
 33 34  1  0
 33 66  1  0
 33 70  2  0
 34 36  1  0
 34 59  1  0
 34106  1  6
 35 44  2  0
 35 45  1  0
 35 68  1  0
 36 56  1  0
 36107  1  0
 37 39  1  0
 37 47  1  0
 37 66  1  0
 37108  1  6
 38 43  2  0
 38 46  1  0
 38 47  1  0
 39 64  1  0
 39 67  2  0
 40 52  1  0
 40 53  2  0
 40 58  1  0
 41109  1  0
 41110  1  0
 41111  1  0
 42 43  1  0
 42 66  1  0
 42112  1  0
 42113  1  0
 43 44  1  0
 44114  1  0
 45 46  2  0
 45115  1  0
 46116  1  0
 47117  1  0
 47118  1  0
 48 41  1  0
 48 56  1  0
 48 65  1  0
 48119  1  1
 49 50  1  0
 49 53  1  0
 49 64  1  0
 49120  1  1
 50 51  1  0
 50121  1  0
 50122  1  0
 51 52  1  0
 51123  1  0
 51124  1  0
 52125  1  0
 52126  1  0
 53 54  1  0
 54 55  2  0
 54127  1  0
 55 57  1  0
 55128  1  0
 56 69  2  0
 57 58  2  0
 57129  1  0
 58130  1  0
 59 60  1  0
 59 61  1  0
 59 62  1  0
 60131  1  0
 60132  1  0
 60133  1  0
 61134  1  0
 61135  1  0
 61136  1  0
 62137  1  0
 62138  1  0
 62139  1  0
 63 65  1  0
 63140  1  0
 63141  1  0
 63142  1  0
 64143  1  0
 65144  1  0
 68 78  1  0
 71 72  2  0
 71 73  1  0
 71145  1  0
 72 74  1  0
 72 83  1  0
 73 75  2  0
 73 85  1  0
 74 80  2  0
 74 81  1  0
 75 80  1  0
 75 82  1  0
 76146  1  0
 76147  1  0
 76148  1  0
 77 79  1  0
 77 82  1  0
 77149  1  0
 77150  1  0
 78 79  1  0
 78151  1  0
 78152  1  0
 79 76  1  0
 79 84  1  1
 81153  1  0
 82154  1  0
M  ISO  4   1 100  68 101  78 101  81 100
M  END
$$$$
30
     RDKit          3D

161169  0  0  0  0  0  0  0  0999 V2000
  -30.7652  -14.3608   20.6636 C   0  0  0  0  0  0  0  0  0100  0  0
  -30.4392  -12.2669   19.3775 C   0  0  0  0  0  0  0  0  0101  0  0
  -29.4791  -12.5281   18.1977 C   0  0  0  0  0  0  0  0  0102  0  0
  -27.9985  -12.3963   18.6038 C   0  0  0  0  0  0  0  0  0103  0  0
  -27.6639  -13.2170   19.8820 C   0  0  2  0  0  0  0  0  0104  0  0
  -28.6795  -12.9602   21.0279 C   0  0  0  0  0  0  0  0  0105  0  0
  -25.2633  -13.8245   20.5754 C   0  0  0  0  0  0  0  0  0106  0  0
  -24.1645  -13.0409   20.9408 C   0  0  0  0  0  0  0  0  0107  0  0
  -24.6400  -11.7009   20.8697 C   0  0  0  0  0  0  0  0  0108  0  0
  -23.9005  -10.4085   21.0420 C   0  0  0  0  0  0  0  0  0109  0  0
  -24.3588   -9.4123   21.9123 C   0  0  0  0  0  0  0  0  0110  0  0
  -23.6296   -8.2350   22.0803 C   0  0  0  0  0  0  0  0  0111  0  0
  -22.4385   -8.0419   21.3657 C   0  0  0  0  0  0  0  0  0112  0  0
  -22.0103   -9.0167   20.4678 C   0  0  0  0  0  0  0  0  0113  0  0
  -22.7317  -10.1925   20.3102 C   0  0  0  0  0  0  0  0  0114  0  0
  -21.6857   -6.0709   22.5391 C   0  0  0  0  0  0  0  0  0115  0  0
  -21.4064   -6.5490   23.8264 C   0  0  0  0  0  0  0  0  0116  0  0
  -21.3635   -5.6677   24.9085 C   0  0  0  0  0  0  0  0  0117  0  0
  -21.5973   -4.3067   24.7088 C   0  0  0  0  0  0  0  0  0118  0  0
  -21.8700   -3.8284   23.4282 C   0  0  0  0  0  0  0  0  0119  0  0
  -21.9144   -4.7056   22.3460 C   0  0  0  0  0  0  0  0  0120  0  0
  -22.8194  -13.5263   21.1763 C   0  0  0  0  0  0  0  0  0121  0  0
  -22.1559   -4.2206   21.1063 F   0  0  0  0  0  0  0  0  0122  0  0
  -21.5628   -3.4510   25.7555 F   0  0  0  0  0  0  0  0  0123  0  0
  -30.0261  -13.1803   20.4553 N   0  0  0  0  0  0  0  0  0124  0  0
  -26.2911  -12.9356   20.3443 N   0  0  0  0  0  0  0  0  0125  0  0
  -25.9236  -11.6675   20.5847 N   0  0  0  0  0  0  0  0  0126  0  0
  -22.0708  -12.7905   22.0005 N   0  0  0  0  0  0  0  0  0127  0  0
  -25.4117  -15.1773   20.4097 N   0  0  0  0  0  0  0  0  0128  0  0
  -31.7916  -14.6724   20.0536 O   0  0  0  0  0  0  0  0  0129  0  0
  -21.6670   -6.9022   21.4423 O   0  0  0  0  0  0  0  0  0130  0  0
  -22.3946  -14.5564   20.6568 O   0  0  0  0  0  0  0  0  0131  0  0
  -24.6048  -31.8614   23.2223 C   0  0  0  0  0  0  0  0  0100  0  0
  -25.8822  -32.4841   23.8616 C   0  0  1  0  0  0  0  0  0101  0  0
  -27.2536  -27.5042   20.1156 C   0  0  0  0  0  0  0  0  0102  0  0
  -25.5726  -33.8762   24.2210 N   0  0  0  0  0  0  0  0  0103  0  0
  -23.4066  -30.4859   21.5461 C   0  0  2  0  0  0  0  0  0104  0  0
  -24.8467  -28.9636   20.1247 C   0  0  0  0  0  0  0  0  0105  0  0
  -22.7412  -29.4652   22.5052 C   0  0  0  0  0  0  0  0  0106  0  0
  -18.0167  -28.1302   22.8626 C   0  0  0  0  0  0  0  0  0107  0  0
  -24.1342  -36.7390   23.2568 C   0  0  0  0  0  0  0  0  0108  0  0
  -25.9141  -30.8882   21.3456 C   0  0  0  0  0  0  0  0  0109  0  0
  -25.9930  -29.5029   20.7208 C   0  0  0  0  0  0  0  0  0110  0  0
  -27.1758  -28.7612   20.7331 C   0  0  0  0  0  0  0  0  0111  0  0
  -26.1032  -26.9836   19.5230 C   0  0  0  0  0  0  0  0  0112  0  0
  -24.9097  -27.7011   19.5331 C   0  0  0  0  0  0  0  0  0113  0  0
  -23.5715  -29.7899   20.1582 C   0  0  0  0  0  0  0  0  0114  0  0
  -25.3990  -36.3212   24.0232 C   0  0  1  0  0  0  0  0  0115  0  0
  -20.5793  -28.3813   23.1004 C   0  0  2  0  0  0  0  0  0116  0  0
  -20.6548  -26.9392   22.5411 C   0  0  0  0  0  0  0  0  0117  0  0
  -19.5615  -26.6407   21.5143 C   0  0  0  0  0  0  0  0  0118  0  0
  -18.1797  -26.7818   22.1673 C   0  0  0  0  0  0  0  0  0119  0  0
  -19.1385  -28.8769   23.2988 C   0  0  0  0  0  0  0  0  0120  0  0
  -18.9183  -30.1286   23.8878 C   0  0  0  0  0  0  0  0  0121  0  0
  -17.6396  -30.6493   24.0352 C   0  0  0  0  0  0  0  0  0122  0  0
  -25.9153  -34.9582   23.4993 C   0  0  0  0  0  0  0  0  0123  0  0
  -16.5415  -29.9068   23.6254 C   0  0  0  0  0  0  0  0  0124  0  0
  -16.7331  -28.6521   23.0586 C   0  0  0  0  0  0  0  0  0125  0  0
  -26.4583  -31.6439   25.0683 C   0  0  0  0  0  0  0  0  0126  0  0
  -25.3807  -31.3179   26.1374 C   0  0  0  0  0  0  0  0  0127  0  0
  -27.0530  -30.3024   24.5680 C   0  0  0  0  0  0  0  0  0128  0  0
  -27.6014  -32.4281   25.7651 C   0  0  0  0  0  0  0  0  0129  0  0
  -27.5629  -37.2220   24.8621 C   0  0  0  0  0  0  0  0  0130  0  0
  -21.4133  -29.3375   22.3735 N   0  0  0  0  0  0  0  0  0131  0  0
  -26.4706  -37.3372   23.9061 N   0  0  0  0  0  0  0  0  0132  0  0
  -24.6674  -31.0544   22.1178 N   0  0  0  0  0  0  0  0  0133  0  0
  -23.4259  -28.8150   23.2971 O   0  0  0  0  0  0  0  0  0134  0  0
  -28.3948  -26.7345   20.0089 O   0  0  0  0  0  0  0  0  0135  0  0
  -26.5870  -34.9065   22.4671 O   0  0  0  0  0  0  0  0  0136  0  0
  -23.5365  -32.1254   23.7833 O   0  0  0  0  0  0  0  0  0137  0  0
  -29.8423  -15.0817   21.3155 C   0  0  0  0  0  0  0  0  0  0  0  0
  -28.6836  -17.1780   20.9993 C   0  0  0  0  0  0  0  0  0  0  0  0
  -31.0277  -15.6704   20.8753 C   0  0  0  0  0  0  0  0  0  0  0  0
  -28.6702  -15.8355   21.3775 C   0  0  0  0  0  0  0  0  0  0  0  0
  -29.8691  -17.7668   20.5590 C   0  0  0  0  0  0  0  0  0  0  0  0
  -31.0411  -17.0129   20.4970 C   0  0  0  0  0  0  0  0  0  0  0  0
  -29.0286  -21.3360   19.7535 C   0  0  0  0  0  0  0  0  0  0  0  0
  -28.1974  -23.7347   19.2975 C   0  0  0  0  0  0  0  0  0  0  0  0
  -32.2673  -14.8376   20.8196 C   0  0  0  0  0  0  0  0  0  0  0  0
  -27.8776  -22.3241   19.7504 C   0  0  0  0  0  0  0  0  0  0  0  0
  -28.6854  -19.9381   20.2277 C   0  0  0  0  0  0  0  0  0  0  0  0
  -27.0417  -24.7157   19.3369 C   0  0  0  0  0  0  0  0  0  1  0  0
  -32.2454  -17.6068   20.0510 N   0  0  0  0  0  0  0  0  0  0  0  0
  -27.4661  -15.2373   21.8247 N   0  0  0  0  0  0  0  0  0  0  0  0
  -29.8591  -19.1036   20.1878 N   0  0  0  0  0  0  0  0  0  0  0  0
  -30.1713  -21.6586   19.4317 O   0  0  0  0  0  0  0  0  0  0  0  0
  -29.3090  -24.0640   18.8872 O   0  0  0  0  0  0  0  0  0  0  0  0
  -31.4485  -12.4701   19.0860 H   0  0  0  0  0  0  0  0  0  0  0  0
  -30.3970  -11.2460   19.6950 H   0  0  0  0  0  0  0  0  0  0  0  0
  -29.6870  -11.8204   17.4226 H   0  0  0  0  0  0  0  0  0  0  0  0
  -29.6375  -13.5326   17.8649 H   0  0  0  0  0  0  0  0  0  0  0  0
  -27.7830  -11.3650   18.7904 H   0  0  0  0  0  0  0  0  0  0  0  0
  -27.4028  -12.7801   17.8021 H   0  0  0  0  0  0  0  0  0  0  0  0
  -27.7353  -14.2503   19.6136 H   0  0  0  0  0  0  0  0  0  0  0  0
  -28.5890  -11.9550   21.3832 H   0  0  0  0  0  0  0  0  0  0  0  0
  -28.5005  -13.6134   21.8562 H   0  0  0  0  0  0  0  0  0  0  0  0
  -25.2399   -9.5495   22.4318 H   0  0  0  0  0  0  0  0  0  0  0  0
  -23.9663   -7.5070   22.7297 H   0  0  0  0  0  0  0  0  0  0  0  0
  -21.1515   -8.8641   19.9162 H   0  0  0  0  0  0  0  0  0  0  0  0
  -22.4016  -10.9115   19.6476 H   0  0  0  0  0  0  0  0  0  0  0  0
  -21.2319   -7.5552   23.9750 H   0  0  0  0  0  0  0  0  0  0  0  0
  -21.1589   -6.0228   25.8556 H   0  0  0  0  0  0  0  0  0  0  0  0
  -22.0396   -2.8212   23.2809 H   0  0  0  0  0  0  0  0  0  0  0  0
  -22.4401  -11.9703   22.4008 H   0  0  0  0  0  0  0  0  0  0  0  0
  -21.1493  -13.0679   22.2082 H   0  0  0  0  0  0  0  0  0  0  0  0
  -24.6538  -15.7807   20.5848 H   0  0  0  0  0  0  0  0  0  0  0  0
  -26.2762  -15.5453   20.1156 H   0  0  0  0  0  0  0  0  0  0  0  0
  -26.6778  -32.4663   23.1464 H   0  0  0  0  0  0  0  0  0  0  0  0
  -25.0747  -34.0282   25.0566 H   0  0  0  0  0  0  0  0  0  0  0  0
  -22.7881  -31.3489   21.4131 H   0  0  0  0  0  0  0  0  0  0  0  0
  -23.3854  -35.9823   23.3648 H   0  0  0  0  0  0  0  0  0  0  0  0
  -24.3696  -36.8624   22.2204 H   0  0  0  0  0  0  0  0  0  0  0  0
  -23.7669  -37.6632   23.6516 H   0  0  0  0  0  0  0  0  0  0  0  0
  -25.9445  -31.6237   20.5691 H   0  0  0  0  0  0  0  0  0  0  0  0
  -26.7436  -31.0079   22.0108 H   0  0  0  0  0  0  0  0  0  0  0  0
  -28.0090  -29.1452   21.2057 H   0  0  0  0  0  0  0  0  0  0  0  0
  -26.1369  -26.0560   19.0719 H   0  0  0  0  0  0  0  0  0  0  0  0
  -24.0652  -27.2961   19.0997 H   0  0  0  0  0  0  0  0  0  0  0  0
  -23.6156  -30.5365   19.3930 H   0  0  0  0  0  0  0  0  0  0  0  0
  -22.7355  -29.1425   19.9945 H   0  0  0  0  0  0  0  0  0  0  0  0
  -25.1353  -36.2335   25.0565 H   0  0  0  0  0  0  0  0  0  0  0  0
  -21.0070  -28.3206   24.0793 H   0  0  0  0  0  0  0  0  0  0  0  0
  -20.5555  -26.2518   23.3550 H   0  0  0  0  0  0  0  0  0  0  0  0
  -21.5974  -26.8362   22.0454 H   0  0  0  0  0  0  0  0  0  0  0  0
  -19.6810  -25.6422   21.1488 H   0  0  0  0  0  0  0  0  0  0  0  0
  -19.6406  -27.3343   20.7034 H   0  0  0  0  0  0  0  0  0  0  0  0
  -17.4282  -26.6888   21.4113 H   0  0  0  0  0  0  0  0  0  0  0  0
  -18.0803  -26.0130   22.9049 H   0  0  0  0  0  0  0  0  0  0  0  0
  -19.7265  -30.6774   24.2204 H   0  0  0  0  0  0  0  0  0  0  0  0
  -17.5064  -31.5856   24.4483 H   0  0  0  0  0  0  0  0  0  0  0  0
  -15.5878  -30.2839   23.7407 H   0  0  0  0  0  0  0  0  0  0  0  0
  -15.9120  -28.0941   22.7766 H   0  0  0  0  0  0  0  0  0  0  0  0
  -24.5787  -30.7757   25.6817 H   0  0  0  0  0  0  0  0  0  0  0  0
  -25.0041  -32.2289   26.5536 H   0  0  0  0  0  0  0  0  0  0  0  0
  -25.8166  -30.7245   26.9138 H   0  0  0  0  0  0  0  0  0  0  0  0
  -26.2892  -29.7335   24.0803 H   0  0  0  0  0  0  0  0  0  0  0  0
  -27.4336  -29.7484   25.4006 H   0  0  0  0  0  0  0  0  0  0  0  0
  -27.8466  -30.4994   23.8779 H   0  0  0  0  0  0  0  0  0  0  0  0
  -27.2251  -33.3632   26.1242 H   0  0  0  0  0  0  0  0  0  0  0  0
  -28.3902  -32.6065   25.0645 H   0  0  0  0  0  0  0  0  0  0  0  0
  -27.9772  -31.8555   26.5872 H   0  0  0  0  0  0  0  0  0  0  0  0
  -28.2744  -38.0016   24.6863 H   0  0  0  0  0  0  0  0  0  0  0  0
  -28.0396  -36.2711   24.7461 H   0  0  0  0  0  0  0  0  0  0  0  0
  -27.1773  -37.3087   25.8564 H   0  0  0  0  0  0  0  0  0  0  0  0
  -20.9627  -29.9365   21.7352 H   0  0  0  0  0  0  0  0  0  0  0  0
  -26.0447  -38.2561   24.0273 H   0  0  0  0  0  0  0  0  0  0  0  0
  -29.8324  -14.0884   21.5953 H   0  0  0  0  0  0  0  0  0  0  0  0
  -27.8165  -17.7357   21.0452 H   0  0  0  0  0  0  0  0  0  0  0  0
  -32.0447  -13.8442   21.1490 H   0  0  0  0  0  0  0  0  0  0  0  0
  -33.0134  -15.2656   21.4560 H   0  0  0  0  0  0  0  0  0  0  0  0
  -32.6313  -14.8067   19.8139 H   0  0  0  0  0  0  0  0  0  0  0  0
  -27.4963  -22.3819   20.7485 H   0  0  0  0  0  0  0  0  0  0  0  0
  -27.1826  -21.9464   19.0298 H   0  0  0  0  0  0  0  0  0  0  0  0
  -27.9329  -19.5223   19.5907 H   0  0  0  0  0  0  0  0  0  0  0  0
  -28.3225  -19.9869   21.2331 H   0  0  0  0  0  0  0  0  0  0  0  0
  -26.3050  -24.4534   20.0672 H   0  0  0  0  0  0  0  0  0  0  0  0
  -26.4536  -24.8038   18.4474 H   0  0  0  0  0  0  0  0  0  0  0  0
  -33.0713  -17.0726   20.0081 H   0  0  0  0  0  0  0  0  0  0  0  0
  -32.2575  -18.5542   19.7835 H   0  0  0  0  0  0  0  0  0  0  0  0
  -26.5444  -15.1438   22.1577 H   0  0  0  0  0  0  0  0  0  0  0  0
  -30.7032  -19.5053   19.8791 H   0  0  0  0  0  0  0  0  0  0  0  0
  1 25  1  0
  1 30  2  0
  1 84  1  0
  2  3  1  0
  2 25  1  0
  2 88  1  0
  2 89  1  0
  3  4  1  0
  3 90  1  0
  3 91  1  0
  4  5  1  0
  4 92  1  0
  4 93  1  0
  5  6  1  0
  5 26  1  0
  5 94  1  6
  6 25  1  0
  6 95  1  0
  6 96  1  0
  7  8  2  0
  7 26  1  0
  7 29  1  0
  8  9  1  0
  8 22  1  0
  9 10  1  0
  9 27  2  0
 10 11  2  0
 10 15  1  0
 11 12  1  0
 11 97  1  0
 12 13  2  0
 12 98  1  0
 13 14  1  0
 13 31  1  0
 14 15  2  0
 14 99  1  0
 15100  1  0
 16 17  2  0
 16 21  1  0
 16 31  1  0
 17 18  1  0
 17101  1  0
 18 19  2  0
 18102  1  0
 19 20  1  0
 19 24  1  0
 20 21  2  0
 20103  1  0
 21 23  1  0
 22 28  1  0
 22 32  2  0
 26 27  1  0
 28104  1  0
 28105  1  0
 29106  1  0
 29107  1  0
 33 34  1  0
 33 66  1  0
 33 70  2  0
 34 36  1  0
 34 59  1  0
 34108  1  6
 35 44  2  0
 35 45  1  0
 35 68  1  0
 36 56  1  0
 36109  1  0
 37 39  1  0
 37 47  1  0
 37 66  1  0
 37110  1  6
 38 43  2  0
 38 46  1  0
 38 47  1  0
 39 64  1  0
 39 67  2  0
 40 52  1  0
 40 53  2  0
 40 58  1  0
 41111  1  0
 41112  1  0
 41113  1  0
 42 43  1  0
 42 66  1  0
 42114  1  0
 42115  1  0
 43 44  1  0
 44116  1  0
 45 46  2  0
 45117  1  0
 46118  1  0
 47119  1  0
 47120  1  0
 48 41  1  0
 48 56  1  0
 48 65  1  0
 48121  1  1
 49 50  1  0
 49 53  1  0
 49 64  1  0
 49122  1  1
 50 51  1  0
 50123  1  0
 50124  1  0
 51 52  1  0
 51125  1  0
 51126  1  0
 52127  1  0
 52128  1  0
 53 54  1  0
 54 55  2  0
 54129  1  0
 55 57  1  0
 55130  1  0
 56 69  2  0
 57 58  2  0
 57131  1  0
 58132  1  0
 59 60  1  0
 59 61  1  0
 59 62  1  0
 60133  1  0
 60134  1  0
 60135  1  0
 61136  1  0
 61137  1  0
 61138  1  0
 62139  1  0
 62140  1  0
 62141  1  0
 63 65  1  0
 63142  1  0
 63143  1  0
 63144  1  0
 64145  1  0
 65146  1  0
 68 82  1  0
 71 73  2  0
 71 74  1  0
 71147  1  0
 72 74  2  0
 72 75  1  0
 72148  1  0
 73 76  1  0
 73 79  1  0
 74 84  1  0
 75 76  2  0
 75 85  1  0
 76 83  1  0
 77 80  1  0
 77 81  1  0
 77 86  2  0
 78 80  1  0
 78 82  1  0
 78 87  2  0
 79149  1  0
 79150  1  0
 79151  1  0
 80152  1  0
 80153  1  0
 81 85  1  0
 81154  1  0
 81155  1  0
 82156  1  0
 82157  1  0
 83158  1  0
 83159  1  0
 84160  1  0
 85161  1  0
M  ISO  4   1 100  68 101  82 101  84 100
M  END
$$$$
31
     RDKit          3D

153161  0  0  0  0  0  0  0  0999 V2000
  -30.7652  -14.3608   20.6636 C   0  0  0  0  0  0  0  0  0100  0  0
  -30.4392  -12.2669   19.3775 C   0  0  0  0  0  0  0  0  0101  0  0
  -29.4791  -12.5281   18.1977 C   0  0  0  0  0  0  0  0  0102  0  0
  -27.9985  -12.3963   18.6038 C   0  0  0  0  0  0  0  0  0103  0  0
  -27.6639  -13.2170   19.8820 C   0  0  2  0  0  0  0  0  0104  0  0
  -28.6795  -12.9602   21.0279 C   0  0  0  0  0  0  0  0  0105  0  0
  -25.2633  -13.8245   20.5754 C   0  0  0  0  0  0  0  0  0106  0  0
  -24.1645  -13.0409   20.9408 C   0  0  0  0  0  0  0  0  0107  0  0
  -24.6400  -11.7009   20.8697 C   0  0  0  0  0  0  0  0  0108  0  0
  -23.9005  -10.4085   21.0420 C   0  0  0  0  0  0  0  0  0109  0  0
  -24.3588   -9.4123   21.9123 C   0  0  0  0  0  0  0  0  0110  0  0
  -23.6296   -8.2350   22.0803 C   0  0  0  0  0  0  0  0  0111  0  0
  -22.4385   -8.0419   21.3657 C   0  0  0  0  0  0  0  0  0112  0  0
  -22.0103   -9.0167   20.4678 C   0  0  0  0  0  0  0  0  0113  0  0
  -22.7317  -10.1925   20.3102 C   0  0  0  0  0  0  0  0  0114  0  0
  -21.6857   -6.0709   22.5391 C   0  0  0  0  0  0  0  0  0115  0  0
  -21.4064   -6.5490   23.8264 C   0  0  0  0  0  0  0  0  0116  0  0
  -21.3635   -5.6677   24.9085 C   0  0  0  0  0  0  0  0  0117  0  0
  -21.5973   -4.3067   24.7088 C   0  0  0  0  0  0  0  0  0118  0  0
  -21.8700   -3.8284   23.4282 C   0  0  0  0  0  0  0  0  0119  0  0
  -21.9144   -4.7056   22.3460 C   0  0  0  0  0  0  0  0  0120  0  0
  -22.8194  -13.5263   21.1763 C   0  0  0  0  0  0  0  0  0121  0  0
  -22.1559   -4.2206   21.1063 F   0  0  0  0  0  0  0  0  0122  0  0
  -21.5628   -3.4510   25.7555 F   0  0  0  0  0  0  0  0  0123  0  0
  -30.0261  -13.1803   20.4553 N   0  0  0  0  0  0  0  0  0124  0  0
  -26.2911  -12.9356   20.3443 N   0  0  0  0  0  0  0  0  0125  0  0
  -25.9236  -11.6675   20.5847 N   0  0  0  0  0  0  0  0  0126  0  0
  -22.0708  -12.7905   22.0005 N   0  0  0  0  0  0  0  0  0127  0  0
  -25.4117  -15.1773   20.4097 N   0  0  0  0  0  0  0  0  0128  0  0
  -31.7916  -14.6724   20.0536 O   0  0  0  0  0  0  0  0  0129  0  0
  -21.6670   -6.9022   21.4423 O   0  0  0  0  0  0  0  0  0130  0  0
  -22.3946  -14.5564   20.6568 O   0  0  0  0  0  0  0  0  0131  0  0
  -24.6048  -31.8614   23.2223 C   0  0  0  0  0  0  0  0  0100  0  0
  -25.8822  -32.4841   23.8616 C   0  0  1  0  0  0  0  0  0101  0  0
  -27.2536  -27.5042   20.1156 C   0  0  0  0  0  0  0  0  0102  0  0
  -25.5726  -33.8762   24.2210 N   0  0  0  0  0  0  0  0  0103  0  0
  -23.4066  -30.4859   21.5461 C   0  0  2  0  0  0  0  0  0104  0  0
  -24.8467  -28.9636   20.1247 C   0  0  0  0  0  0  0  0  0105  0  0
  -22.7412  -29.4652   22.5052 C   0  0  0  0  0  0  0  0  0106  0  0
  -18.0167  -28.1302   22.8626 C   0  0  0  0  0  0  0  0  0107  0  0
  -24.1342  -36.7390   23.2568 C   0  0  0  0  0  0  0  0  0108  0  0
  -25.9141  -30.8882   21.3456 C   0  0  0  0  0  0  0  0  0109  0  0
  -25.9930  -29.5029   20.7208 C   0  0  0  0  0  0  0  0  0110  0  0
  -27.1758  -28.7612   20.7331 C   0  0  0  0  0  0  0  0  0111  0  0
  -26.1032  -26.9836   19.5230 C   0  0  0  0  0  0  0  0  0112  0  0
  -24.9097  -27.7011   19.5331 C   0  0  0  0  0  0  0  0  0113  0  0
  -23.5715  -29.7899   20.1582 C   0  0  0  0  0  0  0  0  0114  0  0
  -25.3990  -36.3212   24.0232 C   0  0  1  0  0  0  0  0  0115  0  0
  -20.5793  -28.3813   23.1004 C   0  0  2  0  0  0  0  0  0116  0  0
  -20.6548  -26.9392   22.5411 C   0  0  0  0  0  0  0  0  0117  0  0
  -19.5615  -26.6407   21.5143 C   0  0  0  0  0  0  0  0  0118  0  0
  -18.1797  -26.7818   22.1673 C   0  0  0  0  0  0  0  0  0119  0  0
  -19.1385  -28.8769   23.2988 C   0  0  0  0  0  0  0  0  0120  0  0
  -18.9183  -30.1286   23.8878 C   0  0  0  0  0  0  0  0  0121  0  0
  -17.6396  -30.6493   24.0352 C   0  0  0  0  0  0  0  0  0122  0  0
  -25.9153  -34.9582   23.4993 C   0  0  0  0  0  0  0  0  0123  0  0
  -16.5415  -29.9068   23.6254 C   0  0  0  0  0  0  0  0  0124  0  0
  -16.7331  -28.6521   23.0586 C   0  0  0  0  0  0  0  0  0125  0  0
  -26.4583  -31.6439   25.0683 C   0  0  0  0  0  0  0  0  0126  0  0
  -25.3807  -31.3179   26.1374 C   0  0  0  0  0  0  0  0  0127  0  0
  -27.0530  -30.3024   24.5680 C   0  0  0  0  0  0  0  0  0128  0  0
  -27.6014  -32.4281   25.7651 C   0  0  0  0  0  0  0  0  0129  0  0
  -27.5629  -37.2220   24.8621 C   0  0  0  0  0  0  0  0  0130  0  0
  -21.4133  -29.3375   22.3735 N   0  0  0  0  0  0  0  0  0131  0  0
  -26.4706  -37.3372   23.9061 N   0  0  0  0  0  0  0  0  0132  0  0
  -24.6674  -31.0544   22.1178 N   0  0  0  0  0  0  0  0  0133  0  0
  -23.4259  -28.8150   23.2971 O   0  0  0  0  0  0  0  0  0134  0  0
  -28.3948  -26.7345   20.0089 O   0  0  0  0  0  0  0  0  0135  0  0
  -26.5870  -34.9065   22.4671 O   0  0  0  0  0  0  0  0  0136  0  0
  -23.5365  -32.1254   23.7833 O   0  0  0  0  0  0  0  0  0137  0  0
  -31.2599  -18.0020   21.5710 C   0  0  0  0  0  0  0  0  0  0  0  0
  -31.1995  -19.3316   22.0798 C   0  0  0  0  0  0  0  0  0  0  0  0
  -29.9728  -19.6169   22.6377 C   0  0  0  0  0  0  0  0  0  0  0  0
  -30.0769  -17.3217   21.7597 C   0  0  0  0  0  0  0  0  0  0  0  0
  -29.4918  -20.8774   23.2767 C   0  0  0  0  0  0  0  0  0  0  0  0
  -26.2649  -22.3596   24.9075 C   0  0  0  0  0  0  0  0  0  0  0  0
  -28.0694  -20.9251   23.8200 C   0  0  0  0  0  0  0  0  0  0  0  0
  -27.7039  -22.2831   24.4179 C   0  0  0  0  0  0  0  0  0  0  0  0
  -25.8191  -23.7142   25.4225 C   0  0  0  0  0  0  0  0  0  1  0  0
  -32.2328  -20.2047   22.0179 N   0  0  0  0  0  0  0  0  0  0  0  0
  -29.7033  -15.9992   21.4145 N   0  0  0  0  0  0  0  0  0  0  0  0
  -30.2532  -21.8391   23.3508 O   0  0  0  0  0  0  0  0  0  0  0  0
  -25.5072  -21.3909   24.8953 O   0  0  0  0  0  0  0  0  0  0  0  0
  -28.9003  -18.2850   22.5470 S   0  0  0  0  0  0  0  0  0  0  0  0
  -31.4485  -12.4701   19.0860 H   0  0  0  0  0  0  0  0  0  0  0  0
  -30.3970  -11.2460   19.6950 H   0  0  0  0  0  0  0  0  0  0  0  0
  -29.6870  -11.8204   17.4226 H   0  0  0  0  0  0  0  0  0  0  0  0
  -29.6375  -13.5326   17.8649 H   0  0  0  0  0  0  0  0  0  0  0  0
  -27.7830  -11.3650   18.7904 H   0  0  0  0  0  0  0  0  0  0  0  0
  -27.4028  -12.7801   17.8021 H   0  0  0  0  0  0  0  0  0  0  0  0
  -27.7353  -14.2503   19.6136 H   0  0  0  0  0  0  0  0  0  0  0  0
  -28.5890  -11.9550   21.3832 H   0  0  0  0  0  0  0  0  0  0  0  0
  -28.5005  -13.6134   21.8562 H   0  0  0  0  0  0  0  0  0  0  0  0
  -25.2399   -9.5495   22.4318 H   0  0  0  0  0  0  0  0  0  0  0  0
  -23.9663   -7.5070   22.7297 H   0  0  0  0  0  0  0  0  0  0  0  0
  -21.1515   -8.8641   19.9162 H   0  0  0  0  0  0  0  0  0  0  0  0
  -22.4016  -10.9115   19.6476 H   0  0  0  0  0  0  0  0  0  0  0  0
  -21.2319   -7.5552   23.9750 H   0  0  0  0  0  0  0  0  0  0  0  0
  -21.1589   -6.0228   25.8556 H   0  0  0  0  0  0  0  0  0  0  0  0
  -22.0396   -2.8212   23.2809 H   0  0  0  0  0  0  0  0  0  0  0  0
  -22.4401  -11.9703   22.4008 H   0  0  0  0  0  0  0  0  0  0  0  0
  -21.1493  -13.0679   22.2082 H   0  0  0  0  0  0  0  0  0  0  0  0
  -24.6538  -15.7807   20.5848 H   0  0  0  0  0  0  0  0  0  0  0  0
  -26.2762  -15.5453   20.1156 H   0  0  0  0  0  0  0  0  0  0  0  0
  -26.6778  -32.4663   23.1464 H   0  0  0  0  0  0  0  0  0  0  0  0
  -25.0747  -34.0282   25.0566 H   0  0  0  0  0  0  0  0  0  0  0  0
  -22.7881  -31.3489   21.4131 H   0  0  0  0  0  0  0  0  0  0  0  0
  -23.3854  -35.9823   23.3648 H   0  0  0  0  0  0  0  0  0  0  0  0
  -24.3696  -36.8624   22.2204 H   0  0  0  0  0  0  0  0  0  0  0  0
  -23.7669  -37.6632   23.6516 H   0  0  0  0  0  0  0  0  0  0  0  0
  -25.9445  -31.6237   20.5691 H   0  0  0  0  0  0  0  0  0  0  0  0
  -26.7436  -31.0079   22.0108 H   0  0  0  0  0  0  0  0  0  0  0  0
  -28.0090  -29.1452   21.2057 H   0  0  0  0  0  0  0  0  0  0  0  0
  -26.1369  -26.0560   19.0719 H   0  0  0  0  0  0  0  0  0  0  0  0
  -24.0652  -27.2961   19.0997 H   0  0  0  0  0  0  0  0  0  0  0  0
  -23.6156  -30.5365   19.3930 H   0  0  0  0  0  0  0  0  0  0  0  0
  -22.7355  -29.1425   19.9945 H   0  0  0  0  0  0  0  0  0  0  0  0
  -25.1353  -36.2335   25.0565 H   0  0  0  0  0  0  0  0  0  0  0  0
  -21.0070  -28.3206   24.0793 H   0  0  0  0  0  0  0  0  0  0  0  0
  -20.5555  -26.2518   23.3550 H   0  0  0  0  0  0  0  0  0  0  0  0
  -21.5974  -26.8362   22.0454 H   0  0  0  0  0  0  0  0  0  0  0  0
  -19.6810  -25.6422   21.1488 H   0  0  0  0  0  0  0  0  0  0  0  0
  -19.6406  -27.3343   20.7034 H   0  0  0  0  0  0  0  0  0  0  0  0
  -17.4282  -26.6888   21.4113 H   0  0  0  0  0  0  0  0  0  0  0  0
  -18.0803  -26.0130   22.9049 H   0  0  0  0  0  0  0  0  0  0  0  0
  -19.7265  -30.6774   24.2204 H   0  0  0  0  0  0  0  0  0  0  0  0
  -17.5064  -31.5856   24.4483 H   0  0  0  0  0  0  0  0  0  0  0  0
  -15.5878  -30.2839   23.7407 H   0  0  0  0  0  0  0  0  0  0  0  0
  -15.9120  -28.0941   22.7766 H   0  0  0  0  0  0  0  0  0  0  0  0
  -24.5787  -30.7757   25.6817 H   0  0  0  0  0  0  0  0  0  0  0  0
  -25.0041  -32.2289   26.5536 H   0  0  0  0  0  0  0  0  0  0  0  0
  -25.8166  -30.7245   26.9138 H   0  0  0  0  0  0  0  0  0  0  0  0
  -26.2892  -29.7335   24.0803 H   0  0  0  0  0  0  0  0  0  0  0  0
  -27.4336  -29.7484   25.4006 H   0  0  0  0  0  0  0  0  0  0  0  0
  -27.8466  -30.4994   23.8779 H   0  0  0  0  0  0  0  0  0  0  0  0
  -27.2251  -33.3632   26.1242 H   0  0  0  0  0  0  0  0  0  0  0  0
  -28.3902  -32.6065   25.0645 H   0  0  0  0  0  0  0  0  0  0  0  0
  -27.9772  -31.8555   26.5872 H   0  0  0  0  0  0  0  0  0  0  0  0
  -28.2744  -38.0016   24.6863 H   0  0  0  0  0  0  0  0  0  0  0  0
  -28.0396  -36.2711   24.7461 H   0  0  0  0  0  0  0  0  0  0  0  0
  -27.1773  -37.3087   25.8564 H   0  0  0  0  0  0  0  0  0  0  0  0
  -20.9627  -29.9365   21.7352 H   0  0  0  0  0  0  0  0  0  0  0  0
  -26.0447  -38.2561   24.0273 H   0  0  0  0  0  0  0  0  0  0  0  0
  -32.0920  -17.5964   21.1148 H   0  0  0  0  0  0  0  0  0  0  0  0
  -27.9699  -20.1796   24.5810 H   0  0  0  0  0  0  0  0  0  0  0  0
  -27.4069  -20.7483   22.9986 H   0  0  0  0  0  0  0  0  0  0  0  0
  -28.3545  -22.4757   25.2453 H   0  0  0  0  0  0  0  0  0  0  0  0
  -27.8125  -23.0104   23.6406 H   0  0  0  0  0  0  0  0  0  0  0  0
  -26.2838  -24.0027   26.3421 H   0  0  0  0  0  0  0  0  0  0  0  0
  -24.7946  -23.8743   25.6866 H   0  0  0  0  0  0  0  0  0  0  0  0
  -33.0833  -19.9322   21.6037 H   0  0  0  0  0  0  0  0  0  0  0  0
  -32.1335  -21.1119   22.3871 H   0  0  0  0  0  0  0  0  0  0  0  0
  -28.7472  -15.8131   21.5575 H   0  0  0  0  0  0  0  0  0  0  0  0
  1 25  1  0
  1 30  2  0
  1 81  1  0
  2  3  1  0
  2 25  1  0
  2 85  1  0
  2 86  1  0
  3  4  1  0
  3 87  1  0
  3 88  1  0
  4  5  1  0
  4 89  1  0
  4 90  1  0
  5  6  1  0
  5 26  1  0
  5 91  1  6
  6 25  1  0
  6 92  1  0
  6 93  1  0
  7  8  2  0
  7 26  1  0
  7 29  1  0
  8  9  1  0
  8 22  1  0
  9 10  1  0
  9 27  2  0
 10 11  2  0
 10 15  1  0
 11 12  1  0
 11 94  1  0
 12 13  2  0
 12 95  1  0
 13 14  1  0
 13 31  1  0
 14 15  2  0
 14 96  1  0
 15 97  1  0
 16 17  2  0
 16 21  1  0
 16 31  1  0
 17 18  1  0
 17 98  1  0
 18 19  2  0
 18 99  1  0
 19 20  1  0
 19 24  1  0
 20 21  2  0
 20100  1  0
 21 23  1  0
 22 28  1  0
 22 32  2  0
 26 27  1  0
 28101  1  0
 28102  1  0
 29103  1  0
 29104  1  0
 33 34  1  0
 33 66  1  0
 33 70  2  0
 34 36  1  0
 34 59  1  0
 34105  1  6
 35 44  2  0
 35 45  1  0
 35 68  1  0
 36 56  1  0
 36106  1  0
 37 39  1  0
 37 47  1  0
 37 66  1  0
 37107  1  6
 38 43  2  0
 38 46  1  0
 38 47  1  0
 39 64  1  0
 39 67  2  0
 40 52  1  0
 40 53  2  0
 40 58  1  0
 41108  1  0
 41109  1  0
 41110  1  0
 42 43  1  0
 42 66  1  0
 42111  1  0
 42112  1  0
 43 44  1  0
 44113  1  0
 45 46  2  0
 45114  1  0
 46115  1  0
 47116  1  0
 47117  1  0
 48 41  1  0
 48 56  1  0
 48 65  1  0
 48118  1  1
 49 50  1  0
 49 53  1  0
 49 64  1  0
 49119  1  1
 50 51  1  0
 50120  1  0
 50121  1  0
 51 52  1  0
 51122  1  0
 51123  1  0
 52124  1  0
 52125  1  0
 53 54  1  0
 54 55  2  0
 54126  1  0
 55 57  1  0
 55127  1  0
 56 69  2  0
 57 58  2  0
 57128  1  0
 58129  1  0
 59 60  1  0
 59 61  1  0
 59 62  1  0
 60130  1  0
 60131  1  0
 60132  1  0
 61133  1  0
 61134  1  0
 61135  1  0
 62136  1  0
 62137  1  0
 62138  1  0
 63 65  1  0
 63139  1  0
 63140  1  0
 63141  1  0
 64142  1  0
 65143  1  0
 68 79  1  0
 71 72  1  0
 71 74  2  0
 71144  1  0
 72 73  2  0
 72 80  1  0
 73 75  1  0
 73 84  1  0
 74 81  1  0
 74 84  1  0
 75 77  1  0
 75 82  2  0
 76 78  1  0
 76 79  1  0
 76 83  2  0
 77 78  1  0
 77145  1  0
 77146  1  0
 78147  1  0
 78148  1  0
 79149  1  0
 79150  1  0
 80151  1  0
 80152  1  0
 81153  1  0
M  ISO  4   1 100  68 101  79 101  81 100
M  END
$$$$
32
     RDKit          3D

156164  0  0  0  0  0  0  0  0999 V2000
  -30.7652  -14.3608   20.6636 C   0  0  0  0  0  0  0  0  0100  0  0
  -30.4392  -12.2669   19.3775 C   0  0  0  0  0  0  0  0  0101  0  0
  -29.4791  -12.5281   18.1977 C   0  0  0  0  0  0  0  0  0102  0  0
  -27.9985  -12.3963   18.6038 C   0  0  0  0  0  0  0  0  0103  0  0
  -27.6639  -13.2170   19.8820 C   0  0  2  0  0  0  0  0  0104  0  0
  -28.6795  -12.9602   21.0279 C   0  0  0  0  0  0  0  0  0105  0  0
  -25.2633  -13.8245   20.5754 C   0  0  0  0  0  0  0  0  0106  0  0
  -24.1645  -13.0409   20.9408 C   0  0  0  0  0  0  0  0  0107  0  0
  -24.6400  -11.7009   20.8697 C   0  0  0  0  0  0  0  0  0108  0  0
  -23.9005  -10.4085   21.0420 C   0  0  0  0  0  0  0  0  0109  0  0
  -24.3588   -9.4123   21.9123 C   0  0  0  0  0  0  0  0  0110  0  0
  -23.6296   -8.2350   22.0803 C   0  0  0  0  0  0  0  0  0111  0  0
  -22.4385   -8.0419   21.3657 C   0  0  0  0  0  0  0  0  0112  0  0
  -22.0103   -9.0167   20.4678 C   0  0  0  0  0  0  0  0  0113  0  0
  -22.7317  -10.1925   20.3102 C   0  0  0  0  0  0  0  0  0114  0  0
  -21.6857   -6.0709   22.5391 C   0  0  0  0  0  0  0  0  0115  0  0
  -21.4064   -6.5490   23.8264 C   0  0  0  0  0  0  0  0  0116  0  0
  -21.3635   -5.6677   24.9085 C   0  0  0  0  0  0  0  0  0117  0  0
  -21.5973   -4.3067   24.7088 C   0  0  0  0  0  0  0  0  0118  0  0
  -21.8700   -3.8284   23.4282 C   0  0  0  0  0  0  0  0  0119  0  0
  -21.9144   -4.7056   22.3460 C   0  0  0  0  0  0  0  0  0120  0  0
  -22.8194  -13.5263   21.1763 C   0  0  0  0  0  0  0  0  0121  0  0
  -22.1559   -4.2206   21.1063 F   0  0  0  0  0  0  0  0  0122  0  0
  -21.5628   -3.4510   25.7555 F   0  0  0  0  0  0  0  0  0123  0  0
  -30.0261  -13.1803   20.4553 N   0  0  0  0  0  0  0  0  0124  0  0
  -26.2911  -12.9356   20.3443 N   0  0  0  0  0  0  0  0  0125  0  0
  -25.9236  -11.6675   20.5847 N   0  0  0  0  0  0  0  0  0126  0  0
  -22.0708  -12.7905   22.0005 N   0  0  0  0  0  0  0  0  0127  0  0
  -25.4117  -15.1773   20.4097 N   0  0  0  0  0  0  0  0  0128  0  0
  -31.7916  -14.6724   20.0536 O   0  0  0  0  0  0  0  0  0129  0  0
  -21.6670   -6.9022   21.4423 O   0  0  0  0  0  0  0  0  0130  0  0
  -22.3946  -14.5564   20.6568 O   0  0  0  0  0  0  0  0  0131  0  0
  -24.6048  -31.8614   23.2223 C   0  0  0  0  0  0  0  0  0100  0  0
  -25.8822  -32.4841   23.8616 C   0  0  1  0  0  0  0  0  0101  0  0
  -27.2536  -27.5042   20.1156 C   0  0  0  0  0  0  0  0  0102  0  0
  -25.5726  -33.8762   24.2210 N   0  0  0  0  0  0  0  0  0103  0  0
  -23.4066  -30.4859   21.5461 C   0  0  2  0  0  0  0  0  0104  0  0
  -24.8467  -28.9636   20.1247 C   0  0  0  0  0  0  0  0  0105  0  0
  -22.7412  -29.4652   22.5052 C   0  0  0  0  0  0  0  0  0106  0  0
  -18.0167  -28.1302   22.8626 C   0  0  0  0  0  0  0  0  0107  0  0
  -24.1342  -36.7390   23.2568 C   0  0  0  0  0  0  0  0  0108  0  0
  -25.9141  -30.8882   21.3456 C   0  0  0  0  0  0  0  0  0109  0  0
  -25.9930  -29.5029   20.7208 C   0  0  0  0  0  0  0  0  0110  0  0
  -27.1758  -28.7612   20.7331 C   0  0  0  0  0  0  0  0  0111  0  0
  -26.1032  -26.9836   19.5230 C   0  0  0  0  0  0  0  0  0112  0  0
  -24.9097  -27.7011   19.5331 C   0  0  0  0  0  0  0  0  0113  0  0
  -23.5715  -29.7899   20.1582 C   0  0  0  0  0  0  0  0  0114  0  0
  -25.3990  -36.3212   24.0232 C   0  0  1  0  0  0  0  0  0115  0  0
  -20.5793  -28.3813   23.1004 C   0  0  2  0  0  0  0  0  0116  0  0
  -20.6548  -26.9392   22.5411 C   0  0  0  0  0  0  0  0  0117  0  0
  -19.5615  -26.6407   21.5143 C   0  0  0  0  0  0  0  0  0118  0  0
  -18.1797  -26.7818   22.1673 C   0  0  0  0  0  0  0  0  0119  0  0
  -19.1385  -28.8769   23.2988 C   0  0  0  0  0  0  0  0  0120  0  0
  -18.9183  -30.1286   23.8878 C   0  0  0  0  0  0  0  0  0121  0  0
  -17.6396  -30.6493   24.0352 C   0  0  0  0  0  0  0  0  0122  0  0
  -25.9153  -34.9582   23.4993 C   0  0  0  0  0  0  0  0  0123  0  0
  -16.5415  -29.9068   23.6254 C   0  0  0  0  0  0  0  0  0124  0  0
  -16.7331  -28.6521   23.0586 C   0  0  0  0  0  0  0  0  0125  0  0
  -26.4583  -31.6439   25.0683 C   0  0  0  0  0  0  0  0  0126  0  0
  -25.3807  -31.3179   26.1374 C   0  0  0  0  0  0  0  0  0127  0  0
  -27.0530  -30.3024   24.5680 C   0  0  0  0  0  0  0  0  0128  0  0
  -27.6014  -32.4281   25.7651 C   0  0  0  0  0  0  0  0  0129  0  0
  -27.5629  -37.2220   24.8621 C   0  0  0  0  0  0  0  0  0130  0  0
  -21.4133  -29.3375   22.3735 N   0  0  0  0  0  0  0  0  0131  0  0
  -26.4706  -37.3372   23.9061 N   0  0  0  0  0  0  0  0  0132  0  0
  -24.6674  -31.0544   22.1178 N   0  0  0  0  0  0  0  0  0133  0  0
  -23.4259  -28.8150   23.2971 O   0  0  0  0  0  0  0  0  0134  0  0
  -28.3948  -26.7345   20.0089 O   0  0  0  0  0  0  0  0  0135  0  0
  -26.5870  -34.9065   22.4671 O   0  0  0  0  0  0  0  0  0136  0  0
  -23.5365  -32.1254   23.7833 O   0  0  0  0  0  0  0  0  0137  0  0
  -20.3147  -27.1740   22.2127 C   0  0  0  0  0  0  0  0  0  0  0  0
  -17.9621  -27.0900   22.7240 C   0  0  0  0  0  0  0  0  0  0  0  0
  -19.1324  -26.4494   22.3281 C   0  0  0  0  0  0  0  0  0  0  0  0
  -20.2970  -28.5318   22.4984 C   0  0  0  0  0  0  0  0  0  0  0  0
  -18.0040  -28.4499   22.9969 C   0  0  0  0  0  0  0  0  0  0  0  0
  -19.9769  -22.8486   21.6933 C   0  0  0  0  0  0  0  0  0  0  0  0
  -20.3302  -24.2801   22.0369 C   0  0  0  0  0  0  0  0  0  0  0  0
  -21.1427  -21.8802   21.6428 C   0  0  0  0  0  0  0  0  0  1  0  0
  -16.6825  -26.3290   22.8536 C   0  0  0  0  0  0  0  0  0  0  0  0
  -19.1562  -29.1236   22.8776 N   0  0  0  0  0  0  0  0  0  0  0  0
  -16.8682  -29.1657   23.4008 N   0  0  0  0  0  0  0  0  0  0  0  0
  -19.1398  -25.0911   22.0447 N   0  0  0  0  0  0  0  0  0  0  0  0
  -21.4981  -29.2747   22.3824 N   0  0  0  0  0  0  0  0  0  0  0  0
  -18.8238  -22.4837   21.4677 O   0  0  0  0  0  0  0  0  0  0  0  0
  -16.8043  -25.0037   22.5513 F   0  0  0  0  0  0  0  0  0  0  0  0
  -16.1548  -26.3628   24.1117 F   0  0  0  0  0  0  0  0  0  0  0  0
  -15.7054  -26.8065   22.0309 F   0  0  0  0  0  0  0  0  0  0  0  0
  -31.4485  -12.4701   19.0860 H   0  0  0  0  0  0  0  0  0  0  0  0
  -30.3970  -11.2460   19.6950 H   0  0  0  0  0  0  0  0  0  0  0  0
  -29.6870  -11.8204   17.4226 H   0  0  0  0  0  0  0  0  0  0  0  0
  -29.6375  -13.5326   17.8649 H   0  0  0  0  0  0  0  0  0  0  0  0
  -27.7830  -11.3650   18.7904 H   0  0  0  0  0  0  0  0  0  0  0  0
  -27.4028  -12.7801   17.8021 H   0  0  0  0  0  0  0  0  0  0  0  0
  -27.7353  -14.2503   19.6136 H   0  0  0  0  0  0  0  0  0  0  0  0
  -28.5890  -11.9550   21.3832 H   0  0  0  0  0  0  0  0  0  0  0  0
  -28.5005  -13.6134   21.8562 H   0  0  0  0  0  0  0  0  0  0  0  0
  -25.2399   -9.5495   22.4318 H   0  0  0  0  0  0  0  0  0  0  0  0
  -23.9663   -7.5070   22.7297 H   0  0  0  0  0  0  0  0  0  0  0  0
  -21.1515   -8.8641   19.9162 H   0  0  0  0  0  0  0  0  0  0  0  0
  -22.4016  -10.9115   19.6476 H   0  0  0  0  0  0  0  0  0  0  0  0
  -21.2319   -7.5552   23.9750 H   0  0  0  0  0  0  0  0  0  0  0  0
  -21.1589   -6.0228   25.8556 H   0  0  0  0  0  0  0  0  0  0  0  0
  -22.0396   -2.8212   23.2809 H   0  0  0  0  0  0  0  0  0  0  0  0
  -22.4401  -11.9703   22.4008 H   0  0  0  0  0  0  0  0  0  0  0  0
  -21.1493  -13.0679   22.2082 H   0  0  0  0  0  0  0  0  0  0  0  0
  -24.6538  -15.7807   20.5848 H   0  0  0  0  0  0  0  0  0  0  0  0
  -26.2762  -15.5453   20.1156 H   0  0  0  0  0  0  0  0  0  0  0  0
  -26.6778  -32.4663   23.1464 H   0  0  0  0  0  0  0  0  0  0  0  0
  -25.0747  -34.0282   25.0566 H   0  0  0  0  0  0  0  0  0  0  0  0
  -22.7881  -31.3489   21.4131 H   0  0  0  0  0  0  0  0  0  0  0  0
  -23.3854  -35.9823   23.3648 H   0  0  0  0  0  0  0  0  0  0  0  0
  -24.3696  -36.8624   22.2204 H   0  0  0  0  0  0  0  0  0  0  0  0
  -23.7669  -37.6632   23.6516 H   0  0  0  0  0  0  0  0  0  0  0  0
  -25.9445  -31.6237   20.5691 H   0  0  0  0  0  0  0  0  0  0  0  0
  -26.7436  -31.0079   22.0108 H   0  0  0  0  0  0  0  0  0  0  0  0
  -28.0090  -29.1452   21.2057 H   0  0  0  0  0  0  0  0  0  0  0  0
  -26.1369  -26.0560   19.0719 H   0  0  0  0  0  0  0  0  0  0  0  0
  -24.0652  -27.2961   19.0997 H   0  0  0  0  0  0  0  0  0  0  0  0
  -23.6156  -30.5365   19.3930 H   0  0  0  0  0  0  0  0  0  0  0  0
  -22.7355  -29.1425   19.9945 H   0  0  0  0  0  0  0  0  0  0  0  0
  -25.1353  -36.2335   25.0565 H   0  0  0  0  0  0  0  0  0  0  0  0
  -21.0070  -28.3206   24.0793 H   0  0  0  0  0  0  0  0  0  0  0  0
  -20.5555  -26.2518   23.3550 H   0  0  0  0  0  0  0  0  0  0  0  0
  -21.5974  -26.8362   22.0454 H   0  0  0  0  0  0  0  0  0  0  0  0
  -19.6810  -25.6422   21.1488 H   0  0  0  0  0  0  0  0  0  0  0  0
  -19.6406  -27.3343   20.7034 H   0  0  0  0  0  0  0  0  0  0  0  0
  -17.4282  -26.6888   21.4113 H   0  0  0  0  0  0  0  0  0  0  0  0
  -18.0803  -26.0130   22.9049 H   0  0  0  0  0  0  0  0  0  0  0  0
  -19.7265  -30.6774   24.2204 H   0  0  0  0  0  0  0  0  0  0  0  0
  -17.5064  -31.5856   24.4483 H   0  0  0  0  0  0  0  0  0  0  0  0
  -15.5878  -30.2839   23.7407 H   0  0  0  0  0  0  0  0  0  0  0  0
  -15.9120  -28.0941   22.7766 H   0  0  0  0  0  0  0  0  0  0  0  0
  -24.5787  -30.7757   25.6817 H   0  0  0  0  0  0  0  0  0  0  0  0
  -25.0041  -32.2289   26.5536 H   0  0  0  0  0  0  0  0  0  0  0  0
  -25.8166  -30.7245   26.9138 H   0  0  0  0  0  0  0  0  0  0  0  0
  -26.2892  -29.7335   24.0803 H   0  0  0  0  0  0  0  0  0  0  0  0
  -27.4336  -29.7484   25.4006 H   0  0  0  0  0  0  0  0  0  0  0  0
  -27.8466  -30.4994   23.8779 H   0  0  0  0  0  0  0  0  0  0  0  0
  -27.2251  -33.3632   26.1242 H   0  0  0  0  0  0  0  0  0  0  0  0
  -28.3902  -32.6065   25.0645 H   0  0  0  0  0  0  0  0  0  0  0  0
  -27.9772  -31.8555   26.5872 H   0  0  0  0  0  0  0  0  0  0  0  0
  -28.2744  -38.0016   24.6863 H   0  0  0  0  0  0  0  0  0  0  0  0
  -28.0396  -36.2711   24.7461 H   0  0  0  0  0  0  0  0  0  0  0  0
  -27.1773  -37.3087   25.8564 H   0  0  0  0  0  0  0  0  0  0  0  0
  -20.9627  -29.9365   21.7352 H   0  0  0  0  0  0  0  0  0  0  0  0
  -26.0447  -38.2561   24.0273 H   0  0  0  0  0  0  0  0  0  0  0  0
  -21.1888  -26.7100   21.9200 H   0  0  0  0  0  0  0  0  0  0  0  0
  -21.0143  -24.6614   21.3079 H   0  0  0  0  0  0  0  0  0  0  0  0
  -20.7817  -24.3082   23.0066 H   0  0  0  0  0  0  0  0  0  0  0  0
  -20.9942  -21.1637   20.8621 H   0  0  0  0  0  0  0  0  0  0  0  0
  -21.2375  -21.3415   22.5624 H   0  0  0  0  0  0  0  0  0  0  0  0
  -19.1648  -30.0879   23.0757 H   0  0  0  0  0  0  0  0  0  0  0  0
  -16.0044  -28.7037   23.4992 H   0  0  0  0  0  0  0  0  0  0  0  0
  -16.9344  -30.1303   23.5861 H   0  0  0  0  0  0  0  0  0  0  0  0
  -18.2813  -24.6563   21.8368 H   0  0  0  0  0  0  0  0  0  0  0  0
  -21.7236  -30.2330   22.3933 H   0  0  0  0  0  0  0  0  0  0  0  0
  1 25  1  0
  1 30  2  0
  1 83  1  0
  2  3  1  0
  2 25  1  0
  2 88  1  0
  2 89  1  0
  3  4  1  0
  3 90  1  0
  3 91  1  0
  4  5  1  0
  4 92  1  0
  4 93  1  0
  5  6  1  0
  5 26  1  0
  5 94  1  6
  6 25  1  0
  6 95  1  0
  6 96  1  0
  7  8  2  0
  7 26  1  0
  7 29  1  0
  8  9  1  0
  8 22  1  0
  9 10  1  0
  9 27  2  0
 10 11  2  0
 10 15  1  0
 11 12  1  0
 11 97  1  0
 12 13  2  0
 12 98  1  0
 13 14  1  0
 13 31  1  0
 14 15  2  0
 14 99  1  0
 15100  1  0
 16 17  2  0
 16 21  1  0
 16 31  1  0
 17 18  1  0
 17101  1  0
 18 19  2  0
 18102  1  0
 19 20  1  0
 19 24  1  0
 20 21  2  0
 20103  1  0
 21 23  1  0
 22 28  1  0
 22 32  2  0
 26 27  1  0
 28104  1  0
 28105  1  0
 29106  1  0
 29107  1  0
 33 34  1  0
 33 66  1  0
 33 70  2  0
 34 36  1  0
 34 59  1  0
 34108  1  6
 35 44  2  0
 35 45  1  0
 35 68  1  0
 36 56  1  0
 36109  1  0
 37 39  1  0
 37 47  1  0
 37 66  1  0
 37110  1  6
 38 43  2  0
 38 46  1  0
 38 47  1  0
 39 64  1  0
 39 67  2  0
 40 52  1  0
 40 53  2  0
 40 58  1  0
 41111  1  0
 41112  1  0
 41113  1  0
 42 43  1  0
 42 66  1  0
 42114  1  0
 42115  1  0
 43 44  1  0
 44116  1  0
 45 46  2  0
 45117  1  0
 46118  1  0
 47119  1  0
 47120  1  0
 48 41  1  0
 48 56  1  0
 48 65  1  0
 48121  1  1
 49 50  1  0
 49 53  1  0
 49 64  1  0
 49122  1  1
 50 51  1  0
 50123  1  0
 50124  1  0
 51 52  1  0
 51125  1  0
 51126  1  0
 52127  1  0
 52128  1  0
 53 54  1  0
 54 55  2  0
 54129  1  0
 55 57  1  0
 55130  1  0
 56 69  2  0
 57 58  2  0
 57131  1  0
 58132  1  0
 59 60  1  0
 59 61  1  0
 59 62  1  0
 60133  1  0
 60134  1  0
 60135  1  0
 61136  1  0
 61137  1  0
 61138  1  0
 62139  1  0
 62140  1  0
 62141  1  0
 63 65  1  0
 63142  1  0
 63143  1  0
 63144  1  0
 64145  1  0
 65146  1  0
 68 78  1  0
 71 73  2  0
 71 74  1  0
 71147  1  0
 72 73  1  0
 72 75  2  0
 72 79  1  0
 73 82  1  0
 74 80  2  0
 74 83  1  0
 75 80  1  0
 75 81  1  0
 76 77  1  0
 76 78  1  0
 76 84  2  0
 77 82  1  0
 77148  1  0
 77149  1  0
 78150  1  0
 78151  1  0
 79 85  1  0
 79 86  1  0
 79 87  1  0
 80152  1  0
 81153  1  0
 81154  1  0
 82155  1  0
 83156  1  0
M  CHG  1  80   1
M  ISO  4   1 100  68 101  78 101  83 100
M  END
$$$$
33
     RDKit          3D

167175  0  0  0  0  0  0  0  0999 V2000
  -30.7652  -14.3608   20.6636 C   0  0  0  0  0  0  0  0  0100  0  0
  -30.4392  -12.2669   19.3775 C   0  0  0  0  0  0  0  0  0101  0  0
  -29.4791  -12.5281   18.1977 C   0  0  0  0  0  0  0  0  0102  0  0
  -27.9985  -12.3963   18.6038 C   0  0  0  0  0  0  0  0  0103  0  0
  -27.6639  -13.2170   19.8820 C   0  0  2  0  0  0  0  0  0104  0  0
  -28.6795  -12.9602   21.0279 C   0  0  0  0  0  0  0  0  0105  0  0
  -25.2633  -13.8245   20.5754 C   0  0  0  0  0  0  0  0  0106  0  0
  -24.1645  -13.0409   20.9408 C   0  0  0  0  0  0  0  0  0107  0  0
  -24.6400  -11.7009   20.8697 C   0  0  0  0  0  0  0  0  0108  0  0
  -23.9005  -10.4085   21.0420 C   0  0  0  0  0  0  0  0  0109  0  0
  -24.3588   -9.4123   21.9123 C   0  0  0  0  0  0  0  0  0110  0  0
  -23.6296   -8.2350   22.0803 C   0  0  0  0  0  0  0  0  0111  0  0
  -22.4385   -8.0419   21.3657 C   0  0  0  0  0  0  0  0  0112  0  0
  -22.0103   -9.0167   20.4678 C   0  0  0  0  0  0  0  0  0113  0  0
  -22.7317  -10.1925   20.3102 C   0  0  0  0  0  0  0  0  0114  0  0
  -21.6857   -6.0709   22.5391 C   0  0  0  0  0  0  0  0  0115  0  0
  -21.4064   -6.5490   23.8264 C   0  0  0  0  0  0  0  0  0116  0  0
  -21.3635   -5.6677   24.9085 C   0  0  0  0  0  0  0  0  0117  0  0
  -21.5973   -4.3067   24.7088 C   0  0  0  0  0  0  0  0  0118  0  0
  -21.8700   -3.8284   23.4282 C   0  0  0  0  0  0  0  0  0119  0  0
  -21.9144   -4.7056   22.3460 C   0  0  0  0  0  0  0  0  0120  0  0
  -22.8194  -13.5263   21.1763 C   0  0  0  0  0  0  0  0  0121  0  0
  -22.1559   -4.2206   21.1063 F   0  0  0  0  0  0  0  0  0122  0  0
  -21.5628   -3.4510   25.7555 F   0  0  0  0  0  0  0  0  0123  0  0
  -30.0261  -13.1803   20.4553 N   0  0  0  0  0  0  0  0  0124  0  0
  -26.2911  -12.9356   20.3443 N   0  0  0  0  0  0  0  0  0125  0  0
  -25.9236  -11.6675   20.5847 N   0  0  0  0  0  0  0  0  0126  0  0
  -22.0708  -12.7905   22.0005 N   0  0  0  0  0  0  0  0  0127  0  0
  -25.4117  -15.1773   20.4097 N   0  0  0  0  0  0  0  0  0128  0  0
  -31.7916  -14.6724   20.0536 O   0  0  0  0  0  0  0  0  0129  0  0
  -21.6670   -6.9022   21.4423 O   0  0  0  0  0  0  0  0  0130  0  0
  -22.3946  -14.5564   20.6568 O   0  0  0  0  0  0  0  0  0131  0  0
  -24.6048  -31.8614   23.2223 C   0  0  0  0  0  0  0  0  0100  0  0
  -25.8822  -32.4841   23.8616 C   0  0  1  0  0  0  0  0  0101  0  0
  -27.2536  -27.5042   20.1156 C   0  0  0  0  0  0  0  0  0102  0  0
  -25.5726  -33.8762   24.2210 N   0  0  0  0  0  0  0  0  0103  0  0
  -23.4066  -30.4859   21.5461 C   0  0  2  0  0  0  0  0  0104  0  0
  -24.8467  -28.9636   20.1247 C   0  0  0  0  0  0  0  0  0105  0  0
  -22.7412  -29.4652   22.5052 C   0  0  0  0  0  0  0  0  0106  0  0
  -18.0167  -28.1302   22.8626 C   0  0  0  0  0  0  0  0  0107  0  0
  -24.1342  -36.7390   23.2568 C   0  0  0  0  0  0  0  0  0108  0  0
  -25.9141  -30.8882   21.3456 C   0  0  0  0  0  0  0  0  0109  0  0
  -25.9930  -29.5029   20.7208 C   0  0  0  0  0  0  0  0  0110  0  0
  -27.1758  -28.7612   20.7331 C   0  0  0  0  0  0  0  0  0111  0  0
  -26.1032  -26.9836   19.5230 C   0  0  0  0  0  0  0  0  0112  0  0
  -24.9097  -27.7011   19.5331 C   0  0  0  0  0  0  0  0  0113  0  0
  -23.5715  -29.7899   20.1582 C   0  0  0  0  0  0  0  0  0114  0  0
  -25.3990  -36.3212   24.0232 C   0  0  1  0  0  0  0  0  0115  0  0
  -20.5793  -28.3813   23.1004 C   0  0  2  0  0  0  0  0  0116  0  0
  -20.6548  -26.9392   22.5411 C   0  0  0  0  0  0  0  0  0117  0  0
  -19.5615  -26.6407   21.5143 C   0  0  0  0  0  0  0  0  0118  0  0
  -18.1797  -26.7818   22.1673 C   0  0  0  0  0  0  0  0  0119  0  0
  -19.1385  -28.8769   23.2988 C   0  0  0  0  0  0  0  0  0120  0  0
  -18.9183  -30.1286   23.8878 C   0  0  0  0  0  0  0  0  0121  0  0
  -17.6396  -30.6493   24.0352 C   0  0  0  0  0  0  0  0  0122  0  0
  -25.9153  -34.9582   23.4993 C   0  0  0  0  0  0  0  0  0123  0  0
  -16.5415  -29.9068   23.6254 C   0  0  0  0  0  0  0  0  0124  0  0
  -16.7331  -28.6521   23.0586 C   0  0  0  0  0  0  0  0  0125  0  0
  -26.4583  -31.6439   25.0683 C   0  0  0  0  0  0  0  0  0126  0  0
  -25.3807  -31.3179   26.1374 C   0  0  0  0  0  0  0  0  0127  0  0
  -27.0530  -30.3024   24.5680 C   0  0  0  0  0  0  0  0  0128  0  0
  -27.6014  -32.4281   25.7651 C   0  0  0  0  0  0  0  0  0129  0  0
  -27.5629  -37.2220   24.8621 C   0  0  0  0  0  0  0  0  0130  0  0
  -21.4133  -29.3375   22.3735 N   0  0  0  0  0  0  0  0  0131  0  0
  -26.4706  -37.3372   23.9061 N   0  0  0  0  0  0  0  0  0132  0  0
  -24.6674  -31.0544   22.1178 N   0  0  0  0  0  0  0  0  0133  0  0
  -23.4259  -28.8150   23.2971 O   0  0  0  0  0  0  0  0  0134  0  0
  -28.3948  -26.7345   20.0089 O   0  0  0  0  0  0  0  0  0135  0  0
  -26.5870  -34.9065   22.4671 O   0  0  0  0  0  0  0  0  0136  0  0
  -23.5365  -32.1254   23.7833 O   0  0  0  0  0  0  0  0  0137  0  0
  -28.1615  -22.7144   17.2108 C   0  0  0  0  0  0  0  0  0  0  0  0
  -26.7960  -22.8719   17.3329 C   0  0  0  0  0  0  0  0  0  0  0  0
  -28.8611  -23.8420   16.8323 C   0  0  0  0  0  0  0  0  0  0  0  0
  -26.9452  -25.0620   16.7428 C   0  0  0  0  0  0  0  0  0  0  0  0
  -33.1074  -24.1974   17.3502 C   0  0  0  0  0  0  0  0  0  0  0  0
  -26.2696  -26.3651   16.4809 C   0  0  0  0  0  0  0  0  0  0  0  0
  -32.6727  -22.8207   15.2807 C   0  0  0  0  0  0  0  0  0  0  0  0
  -33.3326  -25.2079   15.0532 C   0  0  0  0  0  0  0  0  0  0  0  0
  -33.0801  -25.4946   18.1532 C   0  0  0  0  0  0  0  0  0  0  0  0
  -32.9554  -25.2740   19.6586 C   0  0  0  0  0  0  0  0  0  0  0  0
  -31.0460  -24.6450   15.9339 C   0  0  0  0  0  0  0  0  0  0  0  0
  -31.6450  -24.5998   20.0475 C   0  0  0  0  0  0  0  0  0  1  0  0
  -32.5290  -24.2190   15.9155 C   0  0  0  0  0  0  0  0  0  0  0  0
  -26.1524  -24.0358   17.1058 N   0  0  0  0  0  0  0  0  0  0  0  0
  -28.2829  -25.0365   16.5891 N   0  0  0  0  0  0  0  0  0  0  0  0
  -26.0361  -21.7413   17.7230 N   0  0  0  0  0  0  0  0  0  0  0  0
  -30.2343  -23.7255   16.6996 N   0  0  0  0  0  0  0  0  0  0  0  0
  -33.5904  -23.1687   17.8294 O   0  0  0  0  0  0  0  0  0  0  0  0
  -31.4485  -12.4701   19.0860 H   0  0  0  0  0  0  0  0  0  0  0  0
  -30.3970  -11.2460   19.6950 H   0  0  0  0  0  0  0  0  0  0  0  0
  -29.6870  -11.8204   17.4226 H   0  0  0  0  0  0  0  0  0  0  0  0
  -29.6375  -13.5326   17.8649 H   0  0  0  0  0  0  0  0  0  0  0  0
  -27.7830  -11.3650   18.7904 H   0  0  0  0  0  0  0  0  0  0  0  0
  -27.4028  -12.7801   17.8021 H   0  0  0  0  0  0  0  0  0  0  0  0
  -27.7353  -14.2503   19.6136 H   0  0  0  0  0  0  0  0  0  0  0  0
  -28.5890  -11.9550   21.3832 H   0  0  0  0  0  0  0  0  0  0  0  0
  -28.5005  -13.6134   21.8562 H   0  0  0  0  0  0  0  0  0  0  0  0
  -25.2399   -9.5495   22.4318 H   0  0  0  0  0  0  0  0  0  0  0  0
  -23.9663   -7.5070   22.7297 H   0  0  0  0  0  0  0  0  0  0  0  0
  -21.1515   -8.8641   19.9162 H   0  0  0  0  0  0  0  0  0  0  0  0
  -22.4016  -10.9115   19.6476 H   0  0  0  0  0  0  0  0  0  0  0  0
  -21.2319   -7.5552   23.9750 H   0  0  0  0  0  0  0  0  0  0  0  0
  -21.1589   -6.0228   25.8556 H   0  0  0  0  0  0  0  0  0  0  0  0
  -22.0396   -2.8212   23.2809 H   0  0  0  0  0  0  0  0  0  0  0  0
  -22.4401  -11.9703   22.4008 H   0  0  0  0  0  0  0  0  0  0  0  0
  -21.1493  -13.0679   22.2082 H   0  0  0  0  0  0  0  0  0  0  0  0
  -24.6538  -15.7807   20.5848 H   0  0  0  0  0  0  0  0  0  0  0  0
  -26.2762  -15.5453   20.1156 H   0  0  0  0  0  0  0  0  0  0  0  0
  -26.6778  -32.4663   23.1464 H   0  0  0  0  0  0  0  0  0  0  0  0
  -25.0747  -34.0282   25.0566 H   0  0  0  0  0  0  0  0  0  0  0  0
  -22.7881  -31.3489   21.4131 H   0  0  0  0  0  0  0  0  0  0  0  0
  -23.3854  -35.9823   23.3648 H   0  0  0  0  0  0  0  0  0  0  0  0
  -24.3696  -36.8624   22.2204 H   0  0  0  0  0  0  0  0  0  0  0  0
  -23.7669  -37.6632   23.6516 H   0  0  0  0  0  0  0  0  0  0  0  0
  -25.9445  -31.6237   20.5691 H   0  0  0  0  0  0  0  0  0  0  0  0
  -26.7436  -31.0079   22.0108 H   0  0  0  0  0  0  0  0  0  0  0  0
  -28.0090  -29.1452   21.2057 H   0  0  0  0  0  0  0  0  0  0  0  0
  -26.1369  -26.0560   19.0719 H   0  0  0  0  0  0  0  0  0  0  0  0
  -24.0652  -27.2961   19.0997 H   0  0  0  0  0  0  0  0  0  0  0  0
  -23.6156  -30.5365   19.3930 H   0  0  0  0  0  0  0  0  0  0  0  0
  -22.7355  -29.1425   19.9945 H   0  0  0  0  0  0  0  0  0  0  0  0
  -25.1353  -36.2335   25.0565 H   0  0  0  0  0  0  0  0  0  0  0  0
  -21.0070  -28.3206   24.0793 H   0  0  0  0  0  0  0  0  0  0  0  0
  -20.5555  -26.2518   23.3550 H   0  0  0  0  0  0  0  0  0  0  0  0
  -21.5974  -26.8362   22.0454 H   0  0  0  0  0  0  0  0  0  0  0  0
  -19.6810  -25.6422   21.1488 H   0  0  0  0  0  0  0  0  0  0  0  0
  -19.6406  -27.3343   20.7034 H   0  0  0  0  0  0  0  0  0  0  0  0
  -17.4282  -26.6888   21.4113 H   0  0  0  0  0  0  0  0  0  0  0  0
  -18.0803  -26.0130   22.9049 H   0  0  0  0  0  0  0  0  0  0  0  0
  -19.7265  -30.6774   24.2204 H   0  0  0  0  0  0  0  0  0  0  0  0
  -17.5064  -31.5856   24.4483 H   0  0  0  0  0  0  0  0  0  0  0  0
  -15.5878  -30.2839   23.7407 H   0  0  0  0  0  0  0  0  0  0  0  0
  -15.9120  -28.0941   22.7766 H   0  0  0  0  0  0  0  0  0  0  0  0
  -24.5787  -30.7757   25.6817 H   0  0  0  0  0  0  0  0  0  0  0  0
  -25.0041  -32.2289   26.5536 H   0  0  0  0  0  0  0  0  0  0  0  0
  -25.8166  -30.7245   26.9138 H   0  0  0  0  0  0  0  0  0  0  0  0
  -26.2892  -29.7335   24.0803 H   0  0  0  0  0  0  0  0  0  0  0  0
  -27.4336  -29.7484   25.4006 H   0  0  0  0  0  0  0  0  0  0  0  0
  -27.8466  -30.4994   23.8779 H   0  0  0  0  0  0  0  0  0  0  0  0
  -27.2251  -33.3632   26.1242 H   0  0  0  0  0  0  0  0  0  0  0  0
  -28.3902  -32.6065   25.0645 H   0  0  0  0  0  0  0  0  0  0  0  0
  -27.9772  -31.8555   26.5872 H   0  0  0  0  0  0  0  0  0  0  0  0
  -28.2744  -38.0016   24.6863 H   0  0  0  0  0  0  0  0  0  0  0  0
  -28.0396  -36.2711   24.7461 H   0  0  0  0  0  0  0  0  0  0  0  0
  -27.1773  -37.3087   25.8564 H   0  0  0  0  0  0  0  0  0  0  0  0
  -20.9627  -29.9365   21.7352 H   0  0  0  0  0  0  0  0  0  0  0  0
  -26.0447  -38.2561   24.0273 H   0  0  0  0  0  0  0  0  0  0  0  0
  -28.6290  -21.8121   17.3908 H   0  0  0  0  0  0  0  0  0  0  0  0
  -25.2162  -26.2581   16.6354 H   0  0  0  0  0  0  0  0  0  0  0  0
  -26.4532  -26.6653   15.4704 H   0  0  0  0  0  0  0  0  0  0  0  0
  -26.6545  -27.1070   17.1490 H   0  0  0  0  0  0  0  0  0  0  0  0
  -33.7043  -22.5365   15.2736 H   0  0  0  0  0  0  0  0  0  0  0  0
  -32.3025  -22.8449   14.2771 H   0  0  0  0  0  0  0  0  0  0  0  0
  -32.1111  -22.1106   15.8511 H   0  0  0  0  0  0  0  0  0  0  0  0
  -34.3615  -24.9144   15.0390 H   0  0  0  0  0  0  0  0  0  0  0  0
  -33.2480  -26.1915   15.4659 H   0  0  0  0  0  0  0  0  0  0  0  0
  -32.9472  -25.2056   14.0550 H   0  0  0  0  0  0  0  0  0  0  0  0
  -32.2454  -26.0785   17.8258 H   0  0  0  0  0  0  0  0  0  0  0  0
  -34.0127  -25.9907   17.9831 H   0  0  0  0  0  0  0  0  0  0  0  0
  -33.0109  -26.2231   20.1495 H   0  0  0  0  0  0  0  0  0  0  0  0
  -33.7532  -24.6267   19.9577 H   0  0  0  0  0  0  0  0  0  0  0  0
  -30.6814  -24.6747   14.9284 H   0  0  0  0  0  0  0  0  0  0  0  0
  -30.9818  -25.6089   16.3940 H   0  0  0  0  0  0  0  0  0  0  0  0
  -31.7651  -24.2231   21.0418 H   0  0  0  0  0  0  0  0  0  0  0  0
  -31.4886  -23.8657   19.2849 H   0  0  0  0  0  0  0  0  0  0  0  0
  -25.0524  -21.7417   17.6829 H   0  0  0  0  0  0  0  0  0  0  0  0
  -30.6830  -22.9749   17.1517 H   0  0  0  0  0  0  0  0  0  0  0  0
  1 25  1  0
  1 30  2  0
  1 86  1  0
  2  3  1  0
  2 25  1  0
  2 89  1  0
  2 90  1  0
  3  4  1  0
  3 91  1  0
  3 92  1  0
  4  5  1  0
  4 93  1  0
  4 94  1  0
  5  6  1  0
  5 26  1  0
  5 95  1  6
  6 25  1  0
  6 96  1  0
  6 97  1  0
  7  8  2  0
  7 26  1  0
  7 29  1  0
  8  9  1  0
  8 22  1  0
  9 10  1  0
  9 27  2  0
 10 11  2  0
 10 15  1  0
 11 12  1  0
 11 98  1  0
 12 13  2  0
 12 99  1  0
 13 14  1  0
 13 31  1  0
 14 15  2  0
 14100  1  0
 15101  1  0
 16 17  2  0
 16 21  1  0
 16 31  1  0
 17 18  1  0
 17102  1  0
 18 19  2  0
 18103  1  0
 19 20  1  0
 19 24  1  0
 20 21  2  0
 20104  1  0
 21 23  1  0
 22 28  1  0
 22 32  2  0
 26 27  1  0
 28105  1  0
 28106  1  0
 29107  1  0
 29108  1  0
 33 34  1  0
 33 66  1  0
 33 70  2  0
 34 36  1  0
 34 59  1  0
 34109  1  6
 35 44  2  0
 35 45  1  0
 35 68  1  0
 36 56  1  0
 36110  1  0
 37 39  1  0
 37 47  1  0
 37 66  1  0
 37111  1  6
 38 43  2  0
 38 46  1  0
 38 47  1  0
 39 64  1  0
 39 67  2  0
 40 52  1  0
 40 53  2  0
 40 58  1  0
 41112  1  0
 41113  1  0
 41114  1  0
 42 43  1  0
 42 66  1  0
 42115  1  0
 42116  1  0
 43 44  1  0
 44117  1  0
 45 46  2  0
 45118  1  0
 46119  1  0
 47120  1  0
 47121  1  0
 48 41  1  0
 48 56  1  0
 48 65  1  0
 48122  1  1
 49 50  1  0
 49 53  1  0
 49 64  1  0
 49123  1  1
 50 51  1  0
 50124  1  0
 50125  1  0
 51 52  1  0
 51126  1  0
 51127  1  0
 52128  1  0
 52129  1  0
 53 54  1  0
 54 55  2  0
 54130  1  0
 55 57  1  0
 55131  1  0
 56 69  2  0
 57 58  2  0
 57132  1  0
 58133  1  0
 59 60  1  0
 59 61  1  0
 59 62  1  0
 60134  1  0
 60135  1  0
 60136  1  0
 61137  1  0
 61138  1  0
 61139  1  0
 62140  1  0
 62141  1  0
 62142  1  0
 63 65  1  0
 63143  1  0
 63144  1  0
 63145  1  0
 64146  1  0
 65147  1  0
 68 82  1  0
 71 72  2  0
 71 73  1  0
 71148  1  0
 72 84  1  0
 72 86  1  0
 73 85  2  0
 73 87  1  0
 74 76  1  0
 74 84  2  0
 74 85  1  0
 75 79  1  0
 75 83  1  0
 75 88  2  0
 76149  1  0
 76150  1  0
 76151  1  0
 77152  1  0
 77153  1  0
 77154  1  0
 78 83  1  0
 78155  1  0
 78156  1  0
 78157  1  0
 79 80  1  0
 79158  1  0
 79159  1  0
 80 82  1  0
 80160  1  0
 80161  1  0
 81 83  1  0
 81 87  1  0
 81162  1  0
 81163  1  0
 82164  1  0
 82165  1  0
 83 77  1  0
 86166  1  0
 87167  1  0
M  ISO  4   1 100  68 101  82 101  86 100
M  END
$$$$
34
     RDKit          3D

155163  0  0  0  0  0  0  0  0999 V2000
  -30.7652  -14.3608   20.6636 C   0  0  0  0  0  0  0  0  0100  0  0
  -30.4392  -12.2669   19.3775 C   0  0  0  0  0  0  0  0  0101  0  0
  -29.4791  -12.5281   18.1977 C   0  0  0  0  0  0  0  0  0102  0  0
  -27.9985  -12.3963   18.6038 C   0  0  0  0  0  0  0  0  0103  0  0
  -27.6639  -13.2170   19.8820 C   0  0  2  0  0  0  0  0  0104  0  0
  -28.6795  -12.9602   21.0279 C   0  0  0  0  0  0  0  0  0105  0  0
  -25.2633  -13.8245   20.5754 C   0  0  0  0  0  0  0  0  0106  0  0
  -24.1645  -13.0409   20.9408 C   0  0  0  0  0  0  0  0  0107  0  0
  -24.6400  -11.7009   20.8697 C   0  0  0  0  0  0  0  0  0108  0  0
  -23.9005  -10.4085   21.0420 C   0  0  0  0  0  0  0  0  0109  0  0
  -24.3588   -9.4123   21.9123 C   0  0  0  0  0  0  0  0  0110  0  0
  -23.6296   -8.2350   22.0803 C   0  0  0  0  0  0  0  0  0111  0  0
  -22.4385   -8.0419   21.3657 C   0  0  0  0  0  0  0  0  0112  0  0
  -22.0103   -9.0167   20.4678 C   0  0  0  0  0  0  0  0  0113  0  0
  -22.7317  -10.1925   20.3102 C   0  0  0  0  0  0  0  0  0114  0  0
  -21.6857   -6.0709   22.5391 C   0  0  0  0  0  0  0  0  0115  0  0
  -21.4064   -6.5490   23.8264 C   0  0  0  0  0  0  0  0  0116  0  0
  -21.3635   -5.6677   24.9085 C   0  0  0  0  0  0  0  0  0117  0  0
  -21.5973   -4.3067   24.7088 C   0  0  0  0  0  0  0  0  0118  0  0
  -21.8700   -3.8284   23.4282 C   0  0  0  0  0  0  0  0  0119  0  0
  -21.9144   -4.7056   22.3460 C   0  0  0  0  0  0  0  0  0120  0  0
  -22.8194  -13.5263   21.1763 C   0  0  0  0  0  0  0  0  0121  0  0
  -22.1559   -4.2206   21.1063 F   0  0  0  0  0  0  0  0  0122  0  0
  -21.5628   -3.4510   25.7555 F   0  0  0  0  0  0  0  0  0123  0  0
  -30.0261  -13.1803   20.4553 N   0  0  0  0  0  0  0  0  0124  0  0
  -26.2911  -12.9356   20.3443 N   0  0  0  0  0  0  0  0  0125  0  0
  -25.9236  -11.6675   20.5847 N   0  0  0  0  0  0  0  0  0126  0  0
  -22.0708  -12.7905   22.0005 N   0  0  0  0  0  0  0  0  0127  0  0
  -25.4117  -15.1773   20.4097 N   0  0  0  0  0  0  0  0  0128  0  0
  -31.7916  -14.6724   20.0536 O   0  0  0  0  0  0  0  0  0129  0  0
  -21.6670   -6.9022   21.4423 O   0  0  0  0  0  0  0  0  0130  0  0
  -22.3946  -14.5564   20.6568 O   0  0  0  0  0  0  0  0  0131  0  0
  -24.6048  -31.8614   23.2223 C   0  0  0  0  0  0  0  0  0100  0  0
  -25.8822  -32.4841   23.8616 C   0  0  1  0  0  0  0  0  0101  0  0
  -27.2536  -27.5042   20.1156 C   0  0  0  0  0  0  0  0  0102  0  0
  -25.5726  -33.8762   24.2210 N   0  0  0  0  0  0  0  0  0103  0  0
  -23.4066  -30.4859   21.5461 C   0  0  2  0  0  0  0  0  0104  0  0
  -24.8467  -28.9636   20.1247 C   0  0  0  0  0  0  0  0  0105  0  0
  -22.7412  -29.4652   22.5052 C   0  0  0  0  0  0  0  0  0106  0  0
  -18.0167  -28.1302   22.8626 C   0  0  0  0  0  0  0  0  0107  0  0
  -24.1342  -36.7390   23.2568 C   0  0  0  0  0  0  0  0  0108  0  0
  -25.9141  -30.8882   21.3456 C   0  0  0  0  0  0  0  0  0109  0  0
  -25.9930  -29.5029   20.7208 C   0  0  0  0  0  0  0  0  0110  0  0
  -27.1758  -28.7612   20.7331 C   0  0  0  0  0  0  0  0  0111  0  0
  -26.1032  -26.9836   19.5230 C   0  0  0  0  0  0  0  0  0112  0  0
  -24.9097  -27.7011   19.5331 C   0  0  0  0  0  0  0  0  0113  0  0
  -23.5715  -29.7899   20.1582 C   0  0  0  0  0  0  0  0  0114  0  0
  -25.3990  -36.3212   24.0232 C   0  0  1  0  0  0  0  0  0115  0  0
  -20.5793  -28.3813   23.1004 C   0  0  2  0  0  0  0  0  0116  0  0
  -20.6548  -26.9392   22.5411 C   0  0  0  0  0  0  0  0  0117  0  0
  -19.5615  -26.6407   21.5143 C   0  0  0  0  0  0  0  0  0118  0  0
  -18.1797  -26.7818   22.1673 C   0  0  0  0  0  0  0  0  0119  0  0
  -19.1385  -28.8769   23.2988 C   0  0  0  0  0  0  0  0  0120  0  0
  -18.9183  -30.1286   23.8878 C   0  0  0  0  0  0  0  0  0121  0  0
  -17.6396  -30.6493   24.0352 C   0  0  0  0  0  0  0  0  0122  0  0
  -25.9153  -34.9582   23.4993 C   0  0  0  0  0  0  0  0  0123  0  0
  -16.5415  -29.9068   23.6254 C   0  0  0  0  0  0  0  0  0124  0  0
  -16.7331  -28.6521   23.0586 C   0  0  0  0  0  0  0  0  0125  0  0
  -26.4583  -31.6439   25.0683 C   0  0  0  0  0  0  0  0  0126  0  0
  -25.3807  -31.3179   26.1374 C   0  0  0  0  0  0  0  0  0127  0  0
  -27.0530  -30.3024   24.5680 C   0  0  0  0  0  0  0  0  0128  0  0
  -27.6014  -32.4281   25.7651 C   0  0  0  0  0  0  0  0  0129  0  0
  -27.5629  -37.2220   24.8621 C   0  0  0  0  0  0  0  0  0130  0  0
  -21.4133  -29.3375   22.3735 N   0  0  0  0  0  0  0  0  0131  0  0
  -26.4706  -37.3372   23.9061 N   0  0  0  0  0  0  0  0  0132  0  0
  -24.6674  -31.0544   22.1178 N   0  0  0  0  0  0  0  0  0133  0  0
  -23.4259  -28.8150   23.2971 O   0  0  0  0  0  0  0  0  0134  0  0
  -28.3948  -26.7345   20.0089 O   0  0  0  0  0  0  0  0  0135  0  0
  -26.5870  -34.9065   22.4671 O   0  0  0  0  0  0  0  0  0136  0  0
  -23.5365  -32.1254   23.7833 O   0  0  0  0  0  0  0  0  0137  0  0
  -24.3461  -23.0691   22.1052 C   0  0  0  0  0  0  0  0  0  0  0  0
  -22.7184  -21.4208   21.5665 C   0  0  0  0  0  0  0  0  0  0  0  0
  -23.3129  -23.9722   22.3299 C   0  0  0  0  0  0  0  0  0  0  0  0
  -24.0517  -21.7672   21.7160 C   0  0  0  0  0  0  0  0  0  0  0  0
  -22.0128  -23.5271   22.1528 C   0  0  0  0  0  0  0  0  0  0  0  0
  -18.7714  -25.3795   22.6197 C   0  0  0  0  0  0  0  0  0  0  0  0
  -19.6043  -24.1821   22.2634 C   0  0  0  0  0  0  0  0  0  0  0  0
  -23.6321  -25.3680   22.7456 C   0  0  0  0  0  0  0  0  0  0  0  0
  -18.3941  -26.2987   21.4788 C   0  0  0  0  0  0  0  0  0  0  0  0
  -19.6136  -26.8820   20.7813 C   0  0  0  0  0  0  0  0  0  1  0  0
  -21.6877  -22.2702   21.7756 N   0  0  0  0  0  0  0  0  0  0  0  0
  -25.0833  -20.8250   21.4800 N   0  0  0  0  0  0  0  0  0  0  0  0
  -20.9538  -24.4368   22.3790 N   0  0  0  0  0  0  0  0  0  0  0  0
  -18.4554  -25.5124   23.7924 O   0  0  0  0  0  0  0  0  0  0  0  0
  -18.9998  -23.1686   21.9548 O   0  0  0  0  0  0  0  0  0  0  0  0
  -31.4485  -12.4701   19.0860 H   0  0  0  0  0  0  0  0  0  0  0  0
  -30.3970  -11.2460   19.6950 H   0  0  0  0  0  0  0  0  0  0  0  0
  -29.6870  -11.8204   17.4226 H   0  0  0  0  0  0  0  0  0  0  0  0
  -29.6375  -13.5326   17.8649 H   0  0  0  0  0  0  0  0  0  0  0  0
  -27.7830  -11.3650   18.7904 H   0  0  0  0  0  0  0  0  0  0  0  0
  -27.4028  -12.7801   17.8021 H   0  0  0  0  0  0  0  0  0  0  0  0
  -27.7353  -14.2503   19.6136 H   0  0  0  0  0  0  0  0  0  0  0  0
  -28.5890  -11.9550   21.3832 H   0  0  0  0  0  0  0  0  0  0  0  0
  -28.5005  -13.6134   21.8562 H   0  0  0  0  0  0  0  0  0  0  0  0
  -25.2399   -9.5495   22.4318 H   0  0  0  0  0  0  0  0  0  0  0  0
  -23.9663   -7.5070   22.7297 H   0  0  0  0  0  0  0  0  0  0  0  0
  -21.1515   -8.8641   19.9162 H   0  0  0  0  0  0  0  0  0  0  0  0
  -22.4016  -10.9115   19.6476 H   0  0  0  0  0  0  0  0  0  0  0  0
  -21.2319   -7.5552   23.9750 H   0  0  0  0  0  0  0  0  0  0  0  0
  -21.1589   -6.0228   25.8556 H   0  0  0  0  0  0  0  0  0  0  0  0
  -22.0396   -2.8212   23.2809 H   0  0  0  0  0  0  0  0  0  0  0  0
  -22.4401  -11.9703   22.4008 H   0  0  0  0  0  0  0  0  0  0  0  0
  -21.1493  -13.0679   22.2082 H   0  0  0  0  0  0  0  0  0  0  0  0
  -24.6538  -15.7807   20.5848 H   0  0  0  0  0  0  0  0  0  0  0  0
  -26.2762  -15.5453   20.1156 H   0  0  0  0  0  0  0  0  0  0  0  0
  -26.6778  -32.4663   23.1464 H   0  0  0  0  0  0  0  0  0  0  0  0
  -25.0747  -34.0282   25.0566 H   0  0  0  0  0  0  0  0  0  0  0  0
  -22.7881  -31.3489   21.4131 H   0  0  0  0  0  0  0  0  0  0  0  0
  -23.3854  -35.9823   23.3648 H   0  0  0  0  0  0  0  0  0  0  0  0
  -24.3696  -36.8624   22.2204 H   0  0  0  0  0  0  0  0  0  0  0  0
  -23.7669  -37.6632   23.6516 H   0  0  0  0  0  0  0  0  0  0  0  0
  -25.9445  -31.6237   20.5691 H   0  0  0  0  0  0  0  0  0  0  0  0
  -26.7436  -31.0079   22.0108 H   0  0  0  0  0  0  0  0  0  0  0  0
  -28.0090  -29.1452   21.2057 H   0  0  0  0  0  0  0  0  0  0  0  0
  -26.1369  -26.0560   19.0719 H   0  0  0  0  0  0  0  0  0  0  0  0
  -24.0652  -27.2961   19.0997 H   0  0  0  0  0  0  0  0  0  0  0  0
  -23.6156  -30.5365   19.3930 H   0  0  0  0  0  0  0  0  0  0  0  0
  -22.7355  -29.1425   19.9945 H   0  0  0  0  0  0  0  0  0  0  0  0
  -25.1353  -36.2335   25.0565 H   0  0  0  0  0  0  0  0  0  0  0  0
  -21.0070  -28.3206   24.0793 H   0  0  0  0  0  0  0  0  0  0  0  0
  -20.5555  -26.2518   23.3550 H   0  0  0  0  0  0  0  0  0  0  0  0
  -21.5974  -26.8362   22.0454 H   0  0  0  0  0  0  0  0  0  0  0  0
  -19.6810  -25.6422   21.1488 H   0  0  0  0  0  0  0  0  0  0  0  0
  -19.6406  -27.3343   20.7034 H   0  0  0  0  0  0  0  0  0  0  0  0
  -17.4282  -26.6888   21.4113 H   0  0  0  0  0  0  0  0  0  0  0  0
  -18.0803  -26.0130   22.9049 H   0  0  0  0  0  0  0  0  0  0  0  0
  -19.7265  -30.6774   24.2204 H   0  0  0  0  0  0  0  0  0  0  0  0
  -17.5064  -31.5856   24.4483 H   0  0  0  0  0  0  0  0  0  0  0  0
  -15.5878  -30.2839   23.7407 H   0  0  0  0  0  0  0  0  0  0  0  0
  -15.9120  -28.0941   22.7766 H   0  0  0  0  0  0  0  0  0  0  0  0
  -24.5787  -30.7757   25.6817 H   0  0  0  0  0  0  0  0  0  0  0  0
  -25.0041  -32.2289   26.5536 H   0  0  0  0  0  0  0  0  0  0  0  0
  -25.8166  -30.7245   26.9138 H   0  0  0  0  0  0  0  0  0  0  0  0
  -26.2892  -29.7335   24.0803 H   0  0  0  0  0  0  0  0  0  0  0  0
  -27.4336  -29.7484   25.4006 H   0  0  0  0  0  0  0  0  0  0  0  0
  -27.8466  -30.4994   23.8779 H   0  0  0  0  0  0  0  0  0  0  0  0
  -27.2251  -33.3632   26.1242 H   0  0  0  0  0  0  0  0  0  0  0  0
  -28.3902  -32.6065   25.0645 H   0  0  0  0  0  0  0  0  0  0  0  0
  -27.9772  -31.8555   26.5872 H   0  0  0  0  0  0  0  0  0  0  0  0
  -28.2744  -38.0016   24.6863 H   0  0  0  0  0  0  0  0  0  0  0  0
  -28.0396  -36.2711   24.7461 H   0  0  0  0  0  0  0  0  0  0  0  0
  -27.1773  -37.3087   25.8564 H   0  0  0  0  0  0  0  0  0  0  0  0
  -20.9627  -29.9365   21.7352 H   0  0  0  0  0  0  0  0  0  0  0  0
  -26.0447  -38.2561   24.0273 H   0  0  0  0  0  0  0  0  0  0  0  0
  -25.3275  -23.3640   22.2268 H   0  0  0  0  0  0  0  0  0  0  0  0
  -22.4986  -20.4547   21.2777 H   0  0  0  0  0  0  0  0  0  0  0  0
  -24.6932  -25.4845   22.8188 H   0  0  0  0  0  0  0  0  0  0  0  0
  -23.1849  -25.5679   23.6969 H   0  0  0  0  0  0  0  0  0  0  0  0
  -23.2473  -26.0532   22.0195 H   0  0  0  0  0  0  0  0  0  0  0  0
  -17.8016  -27.1016   21.8651 H   0  0  0  0  0  0  0  0  0  0  0  0
  -17.8497  -25.7226   20.7600 H   0  0  0  0  0  0  0  0  0  0  0  0
  -19.4714  -27.9178   21.0087 H   0  0  0  0  0  0  0  0  0  0  0  0
  -19.5331  -26.1378   20.0167 H   0  0  0  0  0  0  0  0  0  0  0  0
  -25.6170  -21.4487   20.9365 H   0  0  0  0  0  0  0  0  0  0  0  0
  -21.2077  -25.3493   22.6477 H   0  0  0  0  0  0  0  0  0  0  0  0
  1 25  1  0
  1 30  2  0
  1 82  1  0
  2  3  1  0
  2 25  1  0
  2 86  1  0
  2 87  1  0
  3  4  1  0
  3 88  1  0
  3 89  1  0
  4  5  1  0
  4 90  1  0
  4 91  1  0
  5  6  1  0
  5 26  1  0
  5 92  1  6
  6 25  1  0
  6 93  1  0
  6 94  1  0
  7  8  2  0
  7 26  1  0
  7 29  1  0
  8  9  1  0
  8 22  1  0
  9 10  1  0
  9 27  2  0
 10 11  2  0
 10 15  1  0
 11 12  1  0
 11 95  1  0
 12 13  2  0
 12 96  1  0
 13 14  1  0
 13 31  1  0
 14 15  2  0
 14 97  1  0
 15 98  1  0
 16 17  2  0
 16 21  1  0
 16 31  1  0
 17 18  1  0
 17 99  1  0
 18 19  2  0
 18100  1  0
 19 20  1  0
 19 24  1  0
 20 21  2  0
 20101  1  0
 21 23  1  0
 22 28  1  0
 22 32  2  0
 26 27  1  0
 28102  1  0
 28103  1  0
 29104  1  0
 29105  1  0
 33 34  1  0
 33 66  1  0
 33 70  2  0
 34 36  1  0
 34 59  1  0
 34106  1  6
 35 44  2  0
 35 45  1  0
 35 68  1  0
 36 56  1  0
 36107  1  0
 37 39  1  0
 37 47  1  0
 37 66  1  0
 37108  1  6
 38 43  2  0
 38 46  1  0
 38 47  1  0
 39 64  1  0
 39 67  2  0
 40 52  1  0
 40 53  2  0
 40 58  1  0
 41109  1  0
 41110  1  0
 41111  1  0
 42 43  1  0
 42 66  1  0
 42112  1  0
 42113  1  0
 43 44  1  0
 44114  1  0
 45 46  2  0
 45115  1  0
 46116  1  0
 47117  1  0
 47118  1  0
 48 41  1  0
 48 56  1  0
 48 65  1  0
 48119  1  1
 49 50  1  0
 49 53  1  0
 49 64  1  0
 49120  1  1
 50 51  1  0
 50121  1  0
 50122  1  0
 51 52  1  0
 51123  1  0
 51124  1  0
 52125  1  0
 52126  1  0
 53 54  1  0
 54 55  2  0
 54127  1  0
 55 57  1  0
 55128  1  0
 56 69  2  0
 57 58  2  0
 57129  1  0
 58130  1  0
 59 60  1  0
 59 61  1  0
 59 62  1  0
 60131  1  0
 60132  1  0
 60133  1  0
 61134  1  0
 61135  1  0
 61136  1  0
 62137  1  0
 62138  1  0
 62139  1  0
 63 65  1  0
 63140  1  0
 63141  1  0
 63142  1  0
 64143  1  0
 65144  1  0
 68 80  1  0
 71 73  2  0
 71 74  1  0
 71145  1  0
 72 74  2  0
 72 81  1  0
 72146  1  0
 73 75  1  0
 73 78  1  0
 74 82  1  0
 75 81  2  0
 75 83  1  0
 76 77  1  0
 76 79  1  0
 76 84  2  0
 77 83  1  0
 77 85  2  0
 78147  1  0
 78148  1  0
 78149  1  0
 79 80  1  0
 79150  1  0
 79151  1  0
 80152  1  0
 80153  1  0
 82154  1  0
 83155  1  0
M  ISO  4   1 100  68 101  80 101  82 100
M  END
$$$$
35
     RDKit          3D

158166  0  0  0  0  0  0  0  0999 V2000
  -30.7652  -14.3608   20.6636 C   0  0  0  0  0  0  0  0  0100  0  0
  -30.4392  -12.2669   19.3775 C   0  0  0  0  0  0  0  0  0101  0  0
  -29.4791  -12.5281   18.1977 C   0  0  0  0  0  0  0  0  0102  0  0
  -27.9985  -12.3963   18.6038 C   0  0  0  0  0  0  0  0  0103  0  0
  -27.6639  -13.2170   19.8820 C   0  0  2  0  0  0  0  0  0104  0  0
  -28.6795  -12.9602   21.0279 C   0  0  0  0  0  0  0  0  0105  0  0
  -25.2633  -13.8245   20.5754 C   0  0  0  0  0  0  0  0  0106  0  0
  -24.1645  -13.0409   20.9408 C   0  0  0  0  0  0  0  0  0107  0  0
  -24.6400  -11.7009   20.8697 C   0  0  0  0  0  0  0  0  0108  0  0
  -23.9005  -10.4085   21.0420 C   0  0  0  0  0  0  0  0  0109  0  0
  -24.3588   -9.4123   21.9123 C   0  0  0  0  0  0  0  0  0110  0  0
  -23.6296   -8.2350   22.0803 C   0  0  0  0  0  0  0  0  0111  0  0
  -22.4385   -8.0419   21.3657 C   0  0  0  0  0  0  0  0  0112  0  0
  -22.0103   -9.0167   20.4678 C   0  0  0  0  0  0  0  0  0113  0  0
  -22.7317  -10.1925   20.3102 C   0  0  0  0  0  0  0  0  0114  0  0
  -21.6857   -6.0709   22.5391 C   0  0  0  0  0  0  0  0  0115  0  0
  -21.4064   -6.5490   23.8264 C   0  0  0  0  0  0  0  0  0116  0  0
  -21.3635   -5.6677   24.9085 C   0  0  0  0  0  0  0  0  0117  0  0
  -21.5973   -4.3067   24.7088 C   0  0  0  0  0  0  0  0  0118  0  0
  -21.8700   -3.8284   23.4282 C   0  0  0  0  0  0  0  0  0119  0  0
  -21.9144   -4.7056   22.3460 C   0  0  0  0  0  0  0  0  0120  0  0
  -22.8194  -13.5263   21.1763 C   0  0  0  0  0  0  0  0  0121  0  0
  -22.1559   -4.2206   21.1063 F   0  0  0  0  0  0  0  0  0122  0  0
  -21.5628   -3.4510   25.7555 F   0  0  0  0  0  0  0  0  0123  0  0
  -30.0261  -13.1803   20.4553 N   0  0  0  0  0  0  0  0  0124  0  0
  -26.2911  -12.9356   20.3443 N   0  0  0  0  0  0  0  0  0125  0  0
  -25.9236  -11.6675   20.5847 N   0  0  0  0  0  0  0  0  0126  0  0
  -22.0708  -12.7905   22.0005 N   0  0  0  0  0  0  0  0  0127  0  0
  -25.4117  -15.1773   20.4097 N   0  0  0  0  0  0  0  0  0128  0  0
  -31.7916  -14.6724   20.0536 O   0  0  0  0  0  0  0  0  0129  0  0
  -21.6670   -6.9022   21.4423 O   0  0  0  0  0  0  0  0  0130  0  0
  -22.3946  -14.5564   20.6568 O   0  0  0  0  0  0  0  0  0131  0  0
  -24.6048  -31.8614   23.2223 C   0  0  0  0  0  0  0  0  0100  0  0
  -25.8822  -32.4841   23.8616 C   0  0  1  0  0  0  0  0  0101  0  0
  -27.2536  -27.5042   20.1156 C   0  0  0  0  0  0  0  0  0102  0  0
  -25.5726  -33.8762   24.2210 N   0  0  0  0  0  0  0  0  0103  0  0
  -23.4066  -30.4859   21.5461 C   0  0  2  0  0  0  0  0  0104  0  0
  -24.8467  -28.9636   20.1247 C   0  0  0  0  0  0  0  0  0105  0  0
  -22.7412  -29.4652   22.5052 C   0  0  0  0  0  0  0  0  0106  0  0
  -18.0167  -28.1302   22.8626 C   0  0  0  0  0  0  0  0  0107  0  0
  -24.1342  -36.7390   23.2568 C   0  0  0  0  0  0  0  0  0108  0  0
  -25.9141  -30.8882   21.3456 C   0  0  0  0  0  0  0  0  0109  0  0
  -25.9930  -29.5029   20.7208 C   0  0  0  0  0  0  0  0  0110  0  0
  -27.1758  -28.7612   20.7331 C   0  0  0  0  0  0  0  0  0111  0  0
  -26.1032  -26.9836   19.5230 C   0  0  0  0  0  0  0  0  0112  0  0
  -24.9097  -27.7011   19.5331 C   0  0  0  0  0  0  0  0  0113  0  0
  -23.5715  -29.7899   20.1582 C   0  0  0  0  0  0  0  0  0114  0  0
  -25.3990  -36.3212   24.0232 C   0  0  1  0  0  0  0  0  0115  0  0
  -20.5793  -28.3813   23.1004 C   0  0  2  0  0  0  0  0  0116  0  0
  -20.6548  -26.9392   22.5411 C   0  0  0  0  0  0  0  0  0117  0  0
  -19.5615  -26.6407   21.5143 C   0  0  0  0  0  0  0  0  0118  0  0
  -18.1797  -26.7818   22.1673 C   0  0  0  0  0  0  0  0  0119  0  0
  -19.1385  -28.8769   23.2988 C   0  0  0  0  0  0  0  0  0120  0  0
  -18.9183  -30.1286   23.8878 C   0  0  0  0  0  0  0  0  0121  0  0
  -17.6396  -30.6493   24.0352 C   0  0  0  0  0  0  0  0  0122  0  0
  -25.9153  -34.9582   23.4993 C   0  0  0  0  0  0  0  0  0123  0  0
  -16.5415  -29.9068   23.6254 C   0  0  0  0  0  0  0  0  0124  0  0
  -16.7331  -28.6521   23.0586 C   0  0  0  0  0  0  0  0  0125  0  0
  -26.4583  -31.6439   25.0683 C   0  0  0  0  0  0  0  0  0126  0  0
  -25.3807  -31.3179   26.1374 C   0  0  0  0  0  0  0  0  0127  0  0
  -27.0530  -30.3024   24.5680 C   0  0  0  0  0  0  0  0  0128  0  0
  -27.6014  -32.4281   25.7651 C   0  0  0  0  0  0  0  0  0129  0  0
  -27.5629  -37.2220   24.8621 C   0  0  0  0  0  0  0  0  0130  0  0
  -21.4133  -29.3375   22.3735 N   0  0  0  0  0  0  0  0  0131  0  0
  -26.4706  -37.3372   23.9061 N   0  0  0  0  0  0  0  0  0132  0  0
  -24.6674  -31.0544   22.1178 N   0  0  0  0  0  0  0  0  0133  0  0
  -23.4259  -28.8150   23.2971 O   0  0  0  0  0  0  0  0  0134  0  0
  -28.3948  -26.7345   20.0089 O   0  0  0  0  0  0  0  0  0135  0  0
  -26.5870  -34.9065   22.4671 O   0  0  0  0  0  0  0  0  0136  0  0
  -23.5365  -32.1254   23.7833 O   0  0  0  0  0  0  0  0  0137  0  0
  -26.2603  -21.0121   19.3085 C   0  0  0  0  0  0  0  0  0  0  0  0
  -27.8543  -19.2054   19.4884 C   0  0  0  0  0  0  0  0  0  0  0  0
  -25.2486  -20.0921   19.0334 C   0  0  0  0  0  0  0  0  0  0  0  0
  -27.5632  -20.5687   19.5359 C   0  0  0  0  0  0  0  0  0  0  0  0
  -26.8425  -18.2854   19.2133 C   0  0  0  0  0  0  0  0  0  0  0  0
  -25.5397  -18.7288   18.9859 C   0  0  0  0  0  0  0  0  0  0  0  0
  -23.8912  -20.5585   18.7972 C   0  0  0  0  0  0  0  0  0  0  0  0
  -29.6764  -23.6182   19.6973 C   0  0  0  0  0  0  0  0  0  0  0  0
  -29.6824  -25.1341   19.7277 C   0  0  0  0  0  0  0  0  0  0  0  0
  -23.4608  -21.8185   19.4901 C   0  0  0  0  0  0  0  0  0  0  0  0
  -28.3591  -22.9088   19.8769 C   0  0  0  0  0  0  0  0  0  0  0  0
  -28.3722  -25.8517   19.9312 C   0  0  0  0  0  0  0  0  0  1  0  0
  -27.1413  -16.9011   19.1655 N   0  0  0  0  0  0  0  0  0  0  0  0
  -28.5688  -21.4836   19.8087 N   0  0  0  0  0  0  0  0  0  0  0  0
  -23.0664  -19.9949   18.0750 O   0  0  0  0  0  0  0  0  0  0  0  0
  -30.7535  -23.0605   19.5282 O   0  0  0  0  0  0  0  0  0  0  0  0
  -30.7599  -25.6969   19.5816 O   0  0  0  0  0  0  0  0  0  0  0  0
  -24.5662  -17.8440   18.7212 F   0  0  0  0  0  0  0  0  0  0  0  0
  -31.4485  -12.4701   19.0860 H   0  0  0  0  0  0  0  0  0  0  0  0
  -30.3970  -11.2460   19.6950 H   0  0  0  0  0  0  0  0  0  0  0  0
  -29.6870  -11.8204   17.4226 H   0  0  0  0  0  0  0  0  0  0  0  0
  -29.6375  -13.5326   17.8649 H   0  0  0  0  0  0  0  0  0  0  0  0
  -27.7830  -11.3650   18.7904 H   0  0  0  0  0  0  0  0  0  0  0  0
  -27.4028  -12.7801   17.8021 H   0  0  0  0  0  0  0  0  0  0  0  0
  -27.7353  -14.2503   19.6136 H   0  0  0  0  0  0  0  0  0  0  0  0
  -28.5890  -11.9550   21.3832 H   0  0  0  0  0  0  0  0  0  0  0  0
  -28.5005  -13.6134   21.8562 H   0  0  0  0  0  0  0  0  0  0  0  0
  -25.2399   -9.5495   22.4318 H   0  0  0  0  0  0  0  0  0  0  0  0
  -23.9663   -7.5070   22.7297 H   0  0  0  0  0  0  0  0  0  0  0  0
  -21.1515   -8.8641   19.9162 H   0  0  0  0  0  0  0  0  0  0  0  0
  -22.4016  -10.9115   19.6476 H   0  0  0  0  0  0  0  0  0  0  0  0
  -21.2319   -7.5552   23.9750 H   0  0  0  0  0  0  0  0  0  0  0  0
  -21.1589   -6.0228   25.8556 H   0  0  0  0  0  0  0  0  0  0  0  0
  -22.0396   -2.8212   23.2809 H   0  0  0  0  0  0  0  0  0  0  0  0
  -22.4401  -11.9703   22.4008 H   0  0  0  0  0  0  0  0  0  0  0  0
  -21.1493  -13.0679   22.2082 H   0  0  0  0  0  0  0  0  0  0  0  0
  -24.6538  -15.7807   20.5848 H   0  0  0  0  0  0  0  0  0  0  0  0
  -26.2762  -15.5453   20.1156 H   0  0  0  0  0  0  0  0  0  0  0  0
  -26.6778  -32.4663   23.1464 H   0  0  0  0  0  0  0  0  0  0  0  0
  -25.0747  -34.0282   25.0566 H   0  0  0  0  0  0  0  0  0  0  0  0
  -22.7881  -31.3489   21.4131 H   0  0  0  0  0  0  0  0  0  0  0  0
  -23.3854  -35.9823   23.3648 H   0  0  0  0  0  0  0  0  0  0  0  0
  -24.3696  -36.8624   22.2204 H   0  0  0  0  0  0  0  0  0  0  0  0
  -23.7669  -37.6632   23.6516 H   0  0  0  0  0  0  0  0  0  0  0  0
  -25.9445  -31.6237   20.5691 H   0  0  0  0  0  0  0  0  0  0  0  0
  -26.7436  -31.0079   22.0108 H   0  0  0  0  0  0  0  0  0  0  0  0
  -28.0090  -29.1452   21.2057 H   0  0  0  0  0  0  0  0  0  0  0  0
  -26.1369  -26.0560   19.0719 H   0  0  0  0  0  0  0  0  0  0  0  0
  -24.0652  -27.2961   19.0997 H   0  0  0  0  0  0  0  0  0  0  0  0
  -23.6156  -30.5365   19.3930 H   0  0  0  0  0  0  0  0  0  0  0  0
  -22.7355  -29.1425   19.9945 H   0  0  0  0  0  0  0  0  0  0  0  0
  -25.1353  -36.2335   25.0565 H   0  0  0  0  0  0  0  0  0  0  0  0
  -21.0070  -28.3206   24.0793 H   0  0  0  0  0  0  0  0  0  0  0  0
  -20.5555  -26.2518   23.3550 H   0  0  0  0  0  0  0  0  0  0  0  0
  -21.5974  -26.8362   22.0454 H   0  0  0  0  0  0  0  0  0  0  0  0
  -19.6810  -25.6422   21.1488 H   0  0  0  0  0  0  0  0  0  0  0  0
  -19.6406  -27.3343   20.7034 H   0  0  0  0  0  0  0  0  0  0  0  0
  -17.4282  -26.6888   21.4113 H   0  0  0  0  0  0  0  0  0  0  0  0
  -18.0803  -26.0130   22.9049 H   0  0  0  0  0  0  0  0  0  0  0  0
  -19.7265  -30.6774   24.2204 H   0  0  0  0  0  0  0  0  0  0  0  0
  -17.5064  -31.5856   24.4483 H   0  0  0  0  0  0  0  0  0  0  0  0
  -15.5878  -30.2839   23.7407 H   0  0  0  0  0  0  0  0  0  0  0  0
  -15.9120  -28.0941   22.7766 H   0  0  0  0  0  0  0  0  0  0  0  0
  -24.5787  -30.7757   25.6817 H   0  0  0  0  0  0  0  0  0  0  0  0
  -25.0041  -32.2289   26.5536 H   0  0  0  0  0  0  0  0  0  0  0  0
  -25.8166  -30.7245   26.9138 H   0  0  0  0  0  0  0  0  0  0  0  0
  -26.2892  -29.7335   24.0803 H   0  0  0  0  0  0  0  0  0  0  0  0
  -27.4336  -29.7484   25.4006 H   0  0  0  0  0  0  0  0  0  0  0  0
  -27.8466  -30.4994   23.8779 H   0  0  0  0  0  0  0  0  0  0  0  0
  -27.2251  -33.3632   26.1242 H   0  0  0  0  0  0  0  0  0  0  0  0
  -28.3902  -32.6065   25.0645 H   0  0  0  0  0  0  0  0  0  0  0  0
  -27.9772  -31.8555   26.5872 H   0  0  0  0  0  0  0  0  0  0  0  0
  -28.2744  -38.0016   24.6863 H   0  0  0  0  0  0  0  0  0  0  0  0
  -28.0396  -36.2711   24.7461 H   0  0  0  0  0  0  0  0  0  0  0  0
  -27.1773  -37.3087   25.8564 H   0  0  0  0  0  0  0  0  0  0  0  0
  -20.9627  -29.9365   21.7352 H   0  0  0  0  0  0  0  0  0  0  0  0
  -26.0447  -38.2561   24.0273 H   0  0  0  0  0  0  0  0  0  0  0  0
  -26.0449  -22.0208   19.3438 H   0  0  0  0  0  0  0  0  0  0  0  0
  -28.8182  -18.8774   19.6568 H   0  0  0  0  0  0  0  0  0  0  0  0
  -24.2707  -22.1965   20.0785 H   0  0  0  0  0  0  0  0  0  0  0  0
  -22.6258  -21.6087   20.1255 H   0  0  0  0  0  0  0  0  0  0  0  0
  -23.1791  -22.5485   18.7603 H   0  0  0  0  0  0  0  0  0  0  0  0
  -27.6842  -23.2077   19.1022 H   0  0  0  0  0  0  0  0  0  0  0  0
  -27.9432  -23.1635   20.8293 H   0  0  0  0  0  0  0  0  0  0  0  0
  -27.9300  -25.4631   20.8247 H   0  0  0  0  0  0  0  0  0  0  0  0
  -27.8222  -25.6726   19.0310 H   0  0  0  0  0  0  0  0  0  0  0  0
  -26.4420  -16.3647   18.7267 H   0  0  0  0  0  0  0  0  0  0  0  0
  -29.4783  -21.1405   19.9648 H   0  0  0  0  0  0  0  0  0  0  0  0
  1 25  1  0
  1 30  2  0
  1 83  1  0
  2  3  1  0
  2 25  1  0
  2 89  1  0
  2 90  1  0
  3  4  1  0
  3 91  1  0
  3 92  1  0
  4  5  1  0
  4 93  1  0
  4 94  1  0
  5  6  1  0
  5 26  1  0
  5 95  1  6
  6 25  1  0
  6 96  1  0
  6 97  1  0
  7  8  2  0
  7 26  1  0
  7 29  1  0
  8  9  1  0
  8 22  1  0
  9 10  1  0
  9 27  2  0
 10 11  2  0
 10 15  1  0
 11 12  1  0
 11 98  1  0
 12 13  2  0
 12 99  1  0
 13 14  1  0
 13 31  1  0
 14 15  2  0
 14100  1  0
 15101  1  0
 16 17  2  0
 16 21  1  0
 16 31  1  0
 17 18  1  0
 17102  1  0
 18 19  2  0
 18103  1  0
 19 20  1  0
 19 24  1  0
 20 21  2  0
 20104  1  0
 21 23  1  0
 22 28  1  0
 22 32  2  0
 26 27  1  0
 28105  1  0
 28106  1  0
 29107  1  0
 29108  1  0
 33 34  1  0
 33 66  1  0
 33 70  2  0
 34 36  1  0
 34 59  1  0
 34109  1  6
 35 44  2  0
 35 45  1  0
 35 68  1  0
 36 56  1  0
 36110  1  0
 37 39  1  0
 37 47  1  0
 37 66  1  0
 37111  1  6
 38 43  2  0
 38 46  1  0
 38 47  1  0
 39 64  1  0
 39 67  2  0
 40 52  1  0
 40 53  2  0
 40 58  1  0
 41112  1  0
 41113  1  0
 41114  1  0
 42 43  1  0
 42 66  1  0
 42115  1  0
 42116  1  0
 43 44  1  0
 44117  1  0
 45 46  2  0
 45118  1  0
 46119  1  0
 47120  1  0
 47121  1  0
 48 41  1  0
 48 56  1  0
 48 65  1  0
 48122  1  1
 49 50  1  0
 49 53  1  0
 49 64  1  0
 49123  1  1
 50 51  1  0
 50124  1  0
 50125  1  0
 51 52  1  0
 51126  1  0
 51127  1  0
 52128  1  0
 52129  1  0
 53 54  1  0
 54 55  2  0
 54130  1  0
 55 57  1  0
 55131  1  0
 56 69  2  0
 57 58  2  0
 57132  1  0
 58133  1  0
 59 60  1  0
 59 61  1  0
 59 62  1  0
 60134  1  0
 60135  1  0
 60136  1  0
 61137  1  0
 61138  1  0
 61139  1  0
 62140  1  0
 62141  1  0
 62142  1  0
 63 65  1  0
 63143  1  0
 63144  1  0
 63145  1  0
 64146  1  0
 65147  1  0
 68 82  1  0
 71 73  2  0
 71 74  1  0
 71148  1  0
 72 74  2  0
 72 75  1  0
 72149  1  0
 73 76  1  0
 73 77  1  0
 74 84  1  0
 75 76  2  0
 75 83  1  0
 76 88  1  0
 77 80  1  0
 77 85  2  0
 78 79  1  0
 78 81  1  0
 78 86  2  0
 79 82  1  0
 79 87  2  0
 80150  1  0
 80151  1  0
 80152  1  0
 81 84  1  0
 81153  1  0
 81154  1  0
 82155  1  0
 82156  1  0
 83157  1  0
 84158  1  0
M  ISO  4   1 100  68 101  82 101  83 100
M  END
$$$$
36
     RDKit          3D

157165  0  0  0  0  0  0  0  0999 V2000
  -30.7652  -14.3608   20.6636 C   0  0  0  0  0  0  0  0  0100  0  0
  -30.4392  -12.2669   19.3775 C   0  0  0  0  0  0  0  0  0101  0  0
  -29.4791  -12.5281   18.1977 C   0  0  0  0  0  0  0  0  0102  0  0
  -27.9985  -12.3963   18.6038 C   0  0  0  0  0  0  0  0  0103  0  0
  -27.6639  -13.2170   19.8820 C   0  0  2  0  0  0  0  0  0104  0  0
  -28.6795  -12.9602   21.0279 C   0  0  0  0  0  0  0  0  0105  0  0
  -25.2633  -13.8245   20.5754 C   0  0  0  0  0  0  0  0  0106  0  0
  -24.1645  -13.0409   20.9408 C   0  0  0  0  0  0  0  0  0107  0  0
  -24.6400  -11.7009   20.8697 C   0  0  0  0  0  0  0  0  0108  0  0
  -23.9005  -10.4085   21.0420 C   0  0  0  0  0  0  0  0  0109  0  0
  -24.3588   -9.4123   21.9123 C   0  0  0  0  0  0  0  0  0110  0  0
  -23.6296   -8.2350   22.0803 C   0  0  0  0  0  0  0  0  0111  0  0
  -22.4385   -8.0419   21.3657 C   0  0  0  0  0  0  0  0  0112  0  0
  -22.0103   -9.0167   20.4678 C   0  0  0  0  0  0  0  0  0113  0  0
  -22.7317  -10.1925   20.3102 C   0  0  0  0  0  0  0  0  0114  0  0
  -21.6857   -6.0709   22.5391 C   0  0  0  0  0  0  0  0  0115  0  0
  -21.4064   -6.5490   23.8264 C   0  0  0  0  0  0  0  0  0116  0  0
  -21.3635   -5.6677   24.9085 C   0  0  0  0  0  0  0  0  0117  0  0
  -21.5973   -4.3067   24.7088 C   0  0  0  0  0  0  0  0  0118  0  0
  -21.8700   -3.8284   23.4282 C   0  0  0  0  0  0  0  0  0119  0  0
  -21.9144   -4.7056   22.3460 C   0  0  0  0  0  0  0  0  0120  0  0
  -22.8194  -13.5263   21.1763 C   0  0  0  0  0  0  0  0  0121  0  0
  -22.1559   -4.2206   21.1063 F   0  0  0  0  0  0  0  0  0122  0  0
  -21.5628   -3.4510   25.7555 F   0  0  0  0  0  0  0  0  0123  0  0
  -30.0261  -13.1803   20.4553 N   0  0  0  0  0  0  0  0  0124  0  0
  -26.2911  -12.9356   20.3443 N   0  0  0  0  0  0  0  0  0125  0  0
  -25.9236  -11.6675   20.5847 N   0  0  0  0  0  0  0  0  0126  0  0
  -22.0708  -12.7905   22.0005 N   0  0  0  0  0  0  0  0  0127  0  0
  -25.4117  -15.1773   20.4097 N   0  0  0  0  0  0  0  0  0128  0  0
  -31.7916  -14.6724   20.0536 O   0  0  0  0  0  0  0  0  0129  0  0
  -21.6670   -6.9022   21.4423 O   0  0  0  0  0  0  0  0  0130  0  0
  -22.3946  -14.5564   20.6568 O   0  0  0  0  0  0  0  0  0131  0  0
  -24.6048  -31.8614   23.2223 C   0  0  0  0  0  0  0  0  0100  0  0
  -25.8822  -32.4841   23.8616 C   0  0  1  0  0  0  0  0  0101  0  0
  -27.2536  -27.5042   20.1156 C   0  0  0  0  0  0  0  0  0102  0  0
  -25.5726  -33.8762   24.2210 N   0  0  0  0  0  0  0  0  0103  0  0
  -23.4066  -30.4859   21.5461 C   0  0  2  0  0  0  0  0  0104  0  0
  -24.8467  -28.9636   20.1247 C   0  0  0  0  0  0  0  0  0105  0  0
  -22.7412  -29.4652   22.5052 C   0  0  0  0  0  0  0  0  0106  0  0
  -18.0167  -28.1302   22.8626 C   0  0  0  0  0  0  0  0  0107  0  0
  -24.1342  -36.7390   23.2568 C   0  0  0  0  0  0  0  0  0108  0  0
  -25.9141  -30.8882   21.3456 C   0  0  0  0  0  0  0  0  0109  0  0
  -25.9930  -29.5029   20.7208 C   0  0  0  0  0  0  0  0  0110  0  0
  -27.1758  -28.7612   20.7331 C   0  0  0  0  0  0  0  0  0111  0  0
  -26.1032  -26.9836   19.5230 C   0  0  0  0  0  0  0  0  0112  0  0
  -24.9097  -27.7011   19.5331 C   0  0  0  0  0  0  0  0  0113  0  0
  -23.5715  -29.7899   20.1582 C   0  0  0  0  0  0  0  0  0114  0  0
  -25.3990  -36.3212   24.0232 C   0  0  1  0  0  0  0  0  0115  0  0
  -20.5793  -28.3813   23.1004 C   0  0  2  0  0  0  0  0  0116  0  0
  -20.6548  -26.9392   22.5411 C   0  0  0  0  0  0  0  0  0117  0  0
  -19.5615  -26.6407   21.5143 C   0  0  0  0  0  0  0  0  0118  0  0
  -18.1797  -26.7818   22.1673 C   0  0  0  0  0  0  0  0  0119  0  0
  -19.1385  -28.8769   23.2988 C   0  0  0  0  0  0  0  0  0120  0  0
  -18.9183  -30.1286   23.8878 C   0  0  0  0  0  0  0  0  0121  0  0
  -17.6396  -30.6493   24.0352 C   0  0  0  0  0  0  0  0  0122  0  0
  -25.9153  -34.9582   23.4993 C   0  0  0  0  0  0  0  0  0123  0  0
  -16.5415  -29.9068   23.6254 C   0  0  0  0  0  0  0  0  0124  0  0
  -16.7331  -28.6521   23.0586 C   0  0  0  0  0  0  0  0  0125  0  0
  -26.4583  -31.6439   25.0683 C   0  0  0  0  0  0  0  0  0126  0  0
  -25.3807  -31.3179   26.1374 C   0  0  0  0  0  0  0  0  0127  0  0
  -27.0530  -30.3024   24.5680 C   0  0  0  0  0  0  0  0  0128  0  0
  -27.6014  -32.4281   25.7651 C   0  0  0  0  0  0  0  0  0129  0  0
  -27.5629  -37.2220   24.8621 C   0  0  0  0  0  0  0  0  0130  0  0
  -21.4133  -29.3375   22.3735 N   0  0  0  0  0  0  0  0  0131  0  0
  -26.4706  -37.3372   23.9061 N   0  0  0  0  0  0  0  0  0132  0  0
  -24.6674  -31.0544   22.1178 N   0  0  0  0  0  0  0  0  0133  0  0
  -23.4259  -28.8150   23.2971 O   0  0  0  0  0  0  0  0  0134  0  0
  -28.3948  -26.7345   20.0089 O   0  0  0  0  0  0  0  0  0135  0  0
  -26.5870  -34.9065   22.4671 O   0  0  0  0  0  0  0  0  0136  0  0
  -23.5365  -32.1254   23.7833 O   0  0  0  0  0  0  0  0  0137  0  0
  -31.3181  -18.1928   20.3125 C   0  0  0  0  0  0  0  0  0  0  0  0
  -31.2596  -19.6095   20.4532 C   0  0  0  0  0  0  0  0  0  0  0  0
  -30.0388  -20.0320   20.9313 C   0  0  0  0  0  0  0  0  0  0  0  0
  -30.1396  -17.5865   20.6888 C   0  0  0  0  0  0  0  0  0  0  0  0
  -29.6693  -21.4391   21.1847 C   0  0  0  0  0  0  0  0  0  0  0  0
  -27.8390  -23.8015   20.0624 C   0  0  0  0  0  0  0  0  0  0  0  0
  -27.1046  -24.8723   20.8463 C   0  0  0  0  0  0  0  0  0  1  0  0
  -29.3358  -23.7130   20.2818 C   0  0  2  0  0  0  0  0  0  0  0  0
  -30.1060  -24.5044   19.2525 C   0  0  0  0  0  0  0  0  0  0  0  0
  -32.2921  -20.4318   20.1488 N   0  0  0  0  0  0  0  0  0  0  0  0
  -29.7661  -16.2198   20.7108 N   0  0  0  0  0  0  0  0  0  0  0  0
  -29.6966  -22.3039   20.1598 N   0  0  0  0  0  0  0  0  0  0  0  0
  -29.3271  -21.7850   22.4259 N   0  0  0  0  0  0  0  0  0  0  0  0
  -27.2480  -23.0559   19.2808 O   0  0  0  0  0  0  0  0  0  0  0  0
  -31.4387  -24.3601   19.4166 F   0  0  0  0  0  0  0  0  0  0  0  0
  -29.8209  -25.8225   19.3186 F   0  0  0  0  0  0  0  0  0  0  0  0
  -29.8083  -24.0817   18.0030 F   0  0  0  0  0  0  0  0  0  0  0  0
  -28.9695  -18.7236   21.2087 S   0  0  0  0  0  0  0  0  0  0  0  0
  -31.4485  -12.4701   19.0860 H   0  0  0  0  0  0  0  0  0  0  0  0
  -30.3970  -11.2460   19.6950 H   0  0  0  0  0  0  0  0  0  0  0  0
  -29.6870  -11.8204   17.4226 H   0  0  0  0  0  0  0  0  0  0  0  0
  -29.6375  -13.5326   17.8649 H   0  0  0  0  0  0  0  0  0  0  0  0
  -27.7830  -11.3650   18.7904 H   0  0  0  0  0  0  0  0  0  0  0  0
  -27.4028  -12.7801   17.8021 H   0  0  0  0  0  0  0  0  0  0  0  0
  -27.7353  -14.2503   19.6136 H   0  0  0  0  0  0  0  0  0  0  0  0
  -28.5890  -11.9550   21.3832 H   0  0  0  0  0  0  0  0  0  0  0  0
  -28.5005  -13.6134   21.8562 H   0  0  0  0  0  0  0  0  0  0  0  0
  -25.2399   -9.5495   22.4318 H   0  0  0  0  0  0  0  0  0  0  0  0
  -23.9663   -7.5070   22.7297 H   0  0  0  0  0  0  0  0  0  0  0  0
  -21.1515   -8.8641   19.9162 H   0  0  0  0  0  0  0  0  0  0  0  0
  -22.4016  -10.9115   19.6476 H   0  0  0  0  0  0  0  0  0  0  0  0
  -21.2319   -7.5552   23.9750 H   0  0  0  0  0  0  0  0  0  0  0  0
  -21.1589   -6.0228   25.8556 H   0  0  0  0  0  0  0  0  0  0  0  0
  -22.0396   -2.8212   23.2809 H   0  0  0  0  0  0  0  0  0  0  0  0
  -22.4401  -11.9703   22.4008 H   0  0  0  0  0  0  0  0  0  0  0  0
  -21.1493  -13.0679   22.2082 H   0  0  0  0  0  0  0  0  0  0  0  0
  -24.6538  -15.7807   20.5848 H   0  0  0  0  0  0  0  0  0  0  0  0
  -26.2762  -15.5453   20.1156 H   0  0  0  0  0  0  0  0  0  0  0  0
  -26.6778  -32.4663   23.1464 H   0  0  0  0  0  0  0  0  0  0  0  0
  -25.0747  -34.0282   25.0566 H   0  0  0  0  0  0  0  0  0  0  0  0
  -22.7881  -31.3489   21.4131 H   0  0  0  0  0  0  0  0  0  0  0  0
  -23.3854  -35.9823   23.3648 H   0  0  0  0  0  0  0  0  0  0  0  0
  -24.3696  -36.8624   22.2204 H   0  0  0  0  0  0  0  0  0  0  0  0
  -23.7669  -37.6632   23.6516 H   0  0  0  0  0  0  0  0  0  0  0  0
  -25.9445  -31.6237   20.5691 H   0  0  0  0  0  0  0  0  0  0  0  0
  -26.7436  -31.0079   22.0108 H   0  0  0  0  0  0  0  0  0  0  0  0
  -28.0090  -29.1452   21.2057 H   0  0  0  0  0  0  0  0  0  0  0  0
  -26.1369  -26.0560   19.0719 H   0  0  0  0  0  0  0  0  0  0  0  0
  -24.0652  -27.2961   19.0997 H   0  0  0  0  0  0  0  0  0  0  0  0
  -23.6156  -30.5365   19.3930 H   0  0  0  0  0  0  0  0  0  0  0  0
  -22.7355  -29.1425   19.9945 H   0  0  0  0  0  0  0  0  0  0  0  0
  -25.1353  -36.2335   25.0565 H   0  0  0  0  0  0  0  0  0  0  0  0
  -21.0070  -28.3206   24.0793 H   0  0  0  0  0  0  0  0  0  0  0  0
  -20.5555  -26.2518   23.3550 H   0  0  0  0  0  0  0  0  0  0  0  0
  -21.5974  -26.8362   22.0454 H   0  0  0  0  0  0  0  0  0  0  0  0
  -19.6810  -25.6422   21.1488 H   0  0  0  0  0  0  0  0  0  0  0  0
  -19.6406  -27.3343   20.7034 H   0  0  0  0  0  0  0  0  0  0  0  0
  -17.4282  -26.6888   21.4113 H   0  0  0  0  0  0  0  0  0  0  0  0
  -18.0803  -26.0130   22.9049 H   0  0  0  0  0  0  0  0  0  0  0  0
  -19.7265  -30.6774   24.2204 H   0  0  0  0  0  0  0  0  0  0  0  0
  -17.5064  -31.5856   24.4483 H   0  0  0  0  0  0  0  0  0  0  0  0
  -15.5878  -30.2839   23.7407 H   0  0  0  0  0  0  0  0  0  0  0  0
  -15.9120  -28.0941   22.7766 H   0  0  0  0  0  0  0  0  0  0  0  0
  -24.5787  -30.7757   25.6817 H   0  0  0  0  0  0  0  0  0  0  0  0
  -25.0041  -32.2289   26.5536 H   0  0  0  0  0  0  0  0  0  0  0  0
  -25.8166  -30.7245   26.9138 H   0  0  0  0  0  0  0  0  0  0  0  0
  -26.2892  -29.7335   24.0803 H   0  0  0  0  0  0  0  0  0  0  0  0
  -27.4336  -29.7484   25.4006 H   0  0  0  0  0  0  0  0  0  0  0  0
  -27.8466  -30.4994   23.8779 H   0  0  0  0  0  0  0  0  0  0  0  0
  -27.2251  -33.3632   26.1242 H   0  0  0  0  0  0  0  0  0  0  0  0
  -28.3902  -32.6065   25.0645 H   0  0  0  0  0  0  0  0  0  0  0  0
  -27.9772  -31.8555   26.5872 H   0  0  0  0  0  0  0  0  0  0  0  0
  -28.2744  -38.0016   24.6863 H   0  0  0  0  0  0  0  0  0  0  0  0
  -28.0396  -36.2711   24.7461 H   0  0  0  0  0  0  0  0  0  0  0  0
  -27.1773  -37.3087   25.8564 H   0  0  0  0  0  0  0  0  0  0  0  0
  -20.9627  -29.9365   21.7352 H   0  0  0  0  0  0  0  0  0  0  0  0
  -26.0447  -38.2561   24.0273 H   0  0  0  0  0  0  0  0  0  0  0  0
  -32.1459  -17.6811   19.9691 H   0  0  0  0  0  0  0  0  0  0  0  0
  -27.1992  -24.7472   21.9047 H   0  0  0  0  0  0  0  0  0  0  0  0
  -26.0426  -24.9221   20.7257 H   0  0  0  0  0  0  0  0  0  0  0  0
  -29.5789  -24.1169   21.2424 H   0  0  0  0  0  0  0  0  0  0  0  0
  -33.1372  -20.0565   19.8108 H   0  0  0  0  0  0  0  0  0  0  0  0
  -32.1974  -21.4048   20.2655 H   0  0  0  0  0  0  0  0  0  0  0  0
  -28.7892  -16.1086   20.7610 H   0  0  0  0  0  0  0  0  0  0  0  0
  -29.9753  -21.9699   19.2766 H   0  0  0  0  0  0  0  0  0  0  0  0
  -29.3239  -21.1094   23.1420 H   0  0  0  0  0  0  0  0  0  0  0  0
  -29.0776  -22.7160   22.6264 H   0  0  0  0  0  0  0  0  0  0  0  0
  1 25  1  0
  1 30  2  0
  1 81  1  0
  2  3  1  0
  2 25  1  0
  2 89  1  0
  2 90  1  0
  3  4  1  0
  3 91  1  0
  3 92  1  0
  4  5  1  0
  4 93  1  0
  4 94  1  0
  5  6  1  0
  5 26  1  0
  5 95  1  6
  6 25  1  0
  6 96  1  0
  6 97  1  0
  7  8  2  0
  7 26  1  0
  7 29  1  0
  8  9  1  0
  8 22  1  0
  9 10  1  0
  9 27  2  0
 10 11  2  0
 10 15  1  0
 11 12  1  0
 11 98  1  0
 12 13  2  0
 12 99  1  0
 13 14  1  0
 13 31  1  0
 14 15  2  0
 14100  1  0
 15101  1  0
 16 17  2  0
 16 21  1  0
 16 31  1  0
 17 18  1  0
 17102  1  0
 18 19  2  0
 18103  1  0
 19 20  1  0
 19 24  1  0
 20 21  2  0
 20104  1  0
 21 23  1  0
 22 28  1  0
 22 32  2  0
 26 27  1  0
 28105  1  0
 28106  1  0
 29107  1  0
 29108  1  0
 33 34  1  0
 33 66  1  0
 33 70  2  0
 34 36  1  0
 34 59  1  0
 34109  1  6
 35 44  2  0
 35 45  1  0
 35 68  1  0
 36 56  1  0
 36110  1  0
 37 39  1  0
 37 47  1  0
 37 66  1  0
 37111  1  6
 38 43  2  0
 38 46  1  0
 38 47  1  0
 39 64  1  0
 39 67  2  0
 40 52  1  0
 40 53  2  0
 40 58  1  0
 41112  1  0
 41113  1  0
 41114  1  0
 42 43  1  0
 42 66  1  0
 42115  1  0
 42116  1  0
 43 44  1  0
 44117  1  0
 45 46  2  0
 45118  1  0
 46119  1  0
 47120  1  0
 47121  1  0
 48 41  1  0
 48 56  1  0
 48 65  1  0
 48122  1  1
 49 50  1  0
 49 53  1  0
 49 64  1  0
 49123  1  1
 50 51  1  0
 50124  1  0
 50125  1  0
 51 52  1  0
 51126  1  0
 51127  1  0
 52128  1  0
 52129  1  0
 53 54  1  0
 54 55  2  0
 54130  1  0
 55 57  1  0
 55131  1  0
 56 69  2  0
 57 58  2  0
 57132  1  0
 58133  1  0
 59 60  1  0
 59 61  1  0
 59 62  1  0
 60134  1  0
 60135  1  0
 60136  1  0
 61137  1  0
 61138  1  0
 61139  1  0
 62140  1  0
 62141  1  0
 62142  1  0
 63 65  1  0
 63143  1  0
 63144  1  0
 63145  1  0
 64146  1  0
 65147  1  0
 68 77  1  0
 71 72  1  0
 71 74  2  0
 71148  1  0
 72 73  2  0
 72 80  1  0
 73 75  1  0
 73 88  1  0
 74 81  1  0
 74 88  1  0
 75 82  1  0
 75 83  2  0
 76 77  1  0
 76 78  1  0
 76 84  2  0
 77149  1  0
 77150  1  0
 78 79  1  0
 78 82  1  0
 78151  1  1
 79 85  1  0
 79 86  1  0
 79 87  1  0
 80152  1  0
 80153  1  0
 81154  1  0
 82155  1  0
 83156  1  0
 83157  1  0
M  CHG  1  83   1
M  ISO  4   1 100  68 101  77 101  81 100
M  END
$$$$
37
     RDKit          3D

157165  0  0  0  0  0  0  0  0999 V2000
  -30.7652  -14.3608   20.6636 C   0  0  0  0  0  0  0  0  0100  0  0
  -30.4392  -12.2669   19.3775 C   0  0  0  0  0  0  0  0  0101  0  0
  -29.4791  -12.5281   18.1977 C   0  0  0  0  0  0  0  0  0102  0  0
  -27.9985  -12.3963   18.6038 C   0  0  0  0  0  0  0  0  0103  0  0
  -27.6639  -13.2170   19.8820 C   0  0  2  0  0  0  0  0  0104  0  0
  -28.6795  -12.9602   21.0279 C   0  0  0  0  0  0  0  0  0105  0  0
  -25.2633  -13.8245   20.5754 C   0  0  0  0  0  0  0  0  0106  0  0
  -24.1645  -13.0409   20.9408 C   0  0  0  0  0  0  0  0  0107  0  0
  -24.6400  -11.7009   20.8697 C   0  0  0  0  0  0  0  0  0108  0  0
  -23.9005  -10.4085   21.0420 C   0  0  0  0  0  0  0  0  0109  0  0
  -24.3588   -9.4123   21.9123 C   0  0  0  0  0  0  0  0  0110  0  0
  -23.6296   -8.2350   22.0803 C   0  0  0  0  0  0  0  0  0111  0  0
  -22.4385   -8.0419   21.3657 C   0  0  0  0  0  0  0  0  0112  0  0
  -22.0103   -9.0167   20.4678 C   0  0  0  0  0  0  0  0  0113  0  0
  -22.7317  -10.1925   20.3102 C   0  0  0  0  0  0  0  0  0114  0  0
  -21.6857   -6.0709   22.5391 C   0  0  0  0  0  0  0  0  0115  0  0
  -21.4064   -6.5490   23.8264 C   0  0  0  0  0  0  0  0  0116  0  0
  -21.3635   -5.6677   24.9085 C   0  0  0  0  0  0  0  0  0117  0  0
  -21.5973   -4.3067   24.7088 C   0  0  0  0  0  0  0  0  0118  0  0
  -21.8700   -3.8284   23.4282 C   0  0  0  0  0  0  0  0  0119  0  0
  -21.9144   -4.7056   22.3460 C   0  0  0  0  0  0  0  0  0120  0  0
  -22.8194  -13.5263   21.1763 C   0  0  0  0  0  0  0  0  0121  0  0
  -22.1559   -4.2206   21.1063 F   0  0  0  0  0  0  0  0  0122  0  0
  -21.5628   -3.4510   25.7555 F   0  0  0  0  0  0  0  0  0123  0  0
  -30.0261  -13.1803   20.4553 N   0  0  0  0  0  0  0  0  0124  0  0
  -26.2911  -12.9356   20.3443 N   0  0  0  0  0  0  0  0  0125  0  0
  -25.9236  -11.6675   20.5847 N   0  0  0  0  0  0  0  0  0126  0  0
  -22.0708  -12.7905   22.0005 N   0  0  0  0  0  0  0  0  0127  0  0
  -25.4117  -15.1773   20.4097 N   0  0  0  0  0  0  0  0  0128  0  0
  -31.7916  -14.6724   20.0536 O   0  0  0  0  0  0  0  0  0129  0  0
  -21.6670   -6.9022   21.4423 O   0  0  0  0  0  0  0  0  0130  0  0
  -22.3946  -14.5564   20.6568 O   0  0  0  0  0  0  0  0  0131  0  0
  -24.6048  -31.8614   23.2223 C   0  0  0  0  0  0  0  0  0100  0  0
  -25.8822  -32.4841   23.8616 C   0  0  1  0  0  0  0  0  0101  0  0
  -27.2536  -27.5042   20.1156 C   0  0  0  0  0  0  0  0  0102  0  0
  -25.5726  -33.8762   24.2210 N   0  0  0  0  0  0  0  0  0103  0  0
  -23.4066  -30.4859   21.5461 C   0  0  2  0  0  0  0  0  0104  0  0
  -24.8467  -28.9636   20.1247 C   0  0  0  0  0  0  0  0  0105  0  0
  -22.7412  -29.4652   22.5052 C   0  0  0  0  0  0  0  0  0106  0  0
  -18.0167  -28.1302   22.8626 C   0  0  0  0  0  0  0  0  0107  0  0
  -24.1342  -36.7390   23.2568 C   0  0  0  0  0  0  0  0  0108  0  0
  -25.9141  -30.8882   21.3456 C   0  0  0  0  0  0  0  0  0109  0  0
  -25.9930  -29.5029   20.7208 C   0  0  0  0  0  0  0  0  0110  0  0
  -27.1758  -28.7612   20.7331 C   0  0  0  0  0  0  0  0  0111  0  0
  -26.1032  -26.9836   19.5230 C   0  0  0  0  0  0  0  0  0112  0  0
  -24.9097  -27.7011   19.5331 C   0  0  0  0  0  0  0  0  0113  0  0
  -23.5715  -29.7899   20.1582 C   0  0  0  0  0  0  0  0  0114  0  0
  -25.3990  -36.3212   24.0232 C   0  0  1  0  0  0  0  0  0115  0  0
  -20.5793  -28.3813   23.1004 C   0  0  2  0  0  0  0  0  0116  0  0
  -20.6548  -26.9392   22.5411 C   0  0  0  0  0  0  0  0  0117  0  0
  -19.5615  -26.6407   21.5143 C   0  0  0  0  0  0  0  0  0118  0  0
  -18.1797  -26.7818   22.1673 C   0  0  0  0  0  0  0  0  0119  0  0
  -19.1385  -28.8769   23.2988 C   0  0  0  0  0  0  0  0  0120  0  0
  -18.9183  -30.1286   23.8878 C   0  0  0  0  0  0  0  0  0121  0  0
  -17.6396  -30.6493   24.0352 C   0  0  0  0  0  0  0  0  0122  0  0
  -25.9153  -34.9582   23.4993 C   0  0  0  0  0  0  0  0  0123  0  0
  -16.5415  -29.9068   23.6254 C   0  0  0  0  0  0  0  0  0124  0  0
  -16.7331  -28.6521   23.0586 C   0  0  0  0  0  0  0  0  0125  0  0
  -26.4583  -31.6439   25.0683 C   0  0  0  0  0  0  0  0  0126  0  0
  -25.3807  -31.3179   26.1374 C   0  0  0  0  0  0  0  0  0127  0  0
  -27.0530  -30.3024   24.5680 C   0  0  0  0  0  0  0  0  0128  0  0
  -27.6014  -32.4281   25.7651 C   0  0  0  0  0  0  0  0  0129  0  0
  -27.5629  -37.2220   24.8621 C   0  0  0  0  0  0  0  0  0130  0  0
  -21.4133  -29.3375   22.3735 N   0  0  0  0  0  0  0  0  0131  0  0
  -26.4706  -37.3372   23.9061 N   0  0  0  0  0  0  0  0  0132  0  0
  -24.6674  -31.0544   22.1178 N   0  0  0  0  0  0  0  0  0133  0  0
  -23.4259  -28.8150   23.2971 O   0  0  0  0  0  0  0  0  0134  0  0
  -28.3948  -26.7345   20.0089 O   0  0  0  0  0  0  0  0  0135  0  0
  -26.5870  -34.9065   22.4671 O   0  0  0  0  0  0  0  0  0136  0  0
  -23.5365  -32.1254   23.7833 O   0  0  0  0  0  0  0  0  0137  0  0
  -23.5464  -15.4463   21.6760 C   0  0  0  0  0  0  0  0  0  0  0  0
  -21.6184  -14.0573   22.0720 C   0  0  0  0  0  0  0  0  0  0  0  0
  -22.2274  -15.3083   22.0976 C   0  0  0  0  0  0  0  0  0  0  0  0
  -24.2285  -14.3209   21.2359 C   0  0  0  0  0  0  0  0  0  0  0  0
  -22.3492  -12.9671   21.6218 C   0  0  0  0  0  0  0  0  0  0  0  0
  -19.6455  -17.8297   23.1308 C   0  0  0  0  0  0  0  0  0  0  0  0
  -18.1412  -18.0286   23.2506 C   0  0  0  0  0  0  0  0  0  0  0  0
  -20.0824  -16.4782   22.6032 C   0  0  0  0  0  0  0  0  0  0  0  0
  -17.7425  -19.3729   23.8516 C   0  0  0  0  0  0  0  0  0  0  0  0
  -18.1705  -20.5544   22.9891 C   0  0  0  0  0  0  0  0  0  1  0  0
  -23.6179  -13.1282   21.2216 N   0  0  0  0  0  0  0  0  0  0  0  0
  -21.5204  -16.4160   22.5430 N   0  0  0  0  0  0  0  0  0  0  0  0
  -25.5718  -14.4555   20.8056 N   0  0  0  0  0  0  0  0  0  0  0  0
  -20.4502  -18.6977   23.4663 O   0  0  0  0  0  0  0  0  0  0  0  0
  -21.7817  -11.7538   21.5885 F   0  0  0  0  0  0  0  0  0  0  0  0
  -31.4485  -12.4701   19.0860 H   0  0  0  0  0  0  0  0  0  0  0  0
  -30.3970  -11.2460   19.6950 H   0  0  0  0  0  0  0  0  0  0  0  0
  -29.6870  -11.8204   17.4226 H   0  0  0  0  0  0  0  0  0  0  0  0
  -29.6375  -13.5326   17.8649 H   0  0  0  0  0  0  0  0  0  0  0  0
  -27.7830  -11.3650   18.7904 H   0  0  0  0  0  0  0  0  0  0  0  0
  -27.4028  -12.7801   17.8021 H   0  0  0  0  0  0  0  0  0  0  0  0
  -27.7353  -14.2503   19.6136 H   0  0  0  0  0  0  0  0  0  0  0  0
  -28.5890  -11.9550   21.3832 H   0  0  0  0  0  0  0  0  0  0  0  0
  -28.5005  -13.6134   21.8562 H   0  0  0  0  0  0  0  0  0  0  0  0
  -25.2399   -9.5495   22.4318 H   0  0  0  0  0  0  0  0  0  0  0  0
  -23.9663   -7.5070   22.7297 H   0  0  0  0  0  0  0  0  0  0  0  0
  -21.1515   -8.8641   19.9162 H   0  0  0  0  0  0  0  0  0  0  0  0
  -22.4016  -10.9115   19.6476 H   0  0  0  0  0  0  0  0  0  0  0  0
  -21.2319   -7.5552   23.9750 H   0  0  0  0  0  0  0  0  0  0  0  0
  -21.1589   -6.0228   25.8556 H   0  0  0  0  0  0  0  0  0  0  0  0
  -22.0396   -2.8212   23.2809 H   0  0  0  0  0  0  0  0  0  0  0  0
  -22.4401  -11.9703   22.4008 H   0  0  0  0  0  0  0  0  0  0  0  0
  -21.1493  -13.0679   22.2082 H   0  0  0  0  0  0  0  0  0  0  0  0
  -24.6538  -15.7807   20.5848 H   0  0  0  0  0  0  0  0  0  0  0  0
  -26.2762  -15.5453   20.1156 H   0  0  0  0  0  0  0  0  0  0  0  0
  -26.6778  -32.4663   23.1464 H   0  0  0  0  0  0  0  0  0  0  0  0
  -25.0747  -34.0282   25.0566 H   0  0  0  0  0  0  0  0  0  0  0  0
  -22.7881  -31.3489   21.4131 H   0  0  0  0  0  0  0  0  0  0  0  0
  -23.3854  -35.9823   23.3648 H   0  0  0  0  0  0  0  0  0  0  0  0
  -24.3696  -36.8624   22.2204 H   0  0  0  0  0  0  0  0  0  0  0  0
  -23.7669  -37.6632   23.6516 H   0  0  0  0  0  0  0  0  0  0  0  0
  -25.9445  -31.6237   20.5691 H   0  0  0  0  0  0  0  0  0  0  0  0
  -26.7436  -31.0079   22.0108 H   0  0  0  0  0  0  0  0  0  0  0  0
  -28.0090  -29.1452   21.2057 H   0  0  0  0  0  0  0  0  0  0  0  0
  -26.1369  -26.0560   19.0719 H   0  0  0  0  0  0  0  0  0  0  0  0
  -24.0652  -27.2961   19.0997 H   0  0  0  0  0  0  0  0  0  0  0  0
  -23.6156  -30.5365   19.3930 H   0  0  0  0  0  0  0  0  0  0  0  0
  -22.7355  -29.1425   19.9945 H   0  0  0  0  0  0  0  0  0  0  0  0
  -25.1353  -36.2335   25.0565 H   0  0  0  0  0  0  0  0  0  0  0  0
  -21.0070  -28.3206   24.0793 H   0  0  0  0  0  0  0  0  0  0  0  0
  -20.5555  -26.2518   23.3550 H   0  0  0  0  0  0  0  0  0  0  0  0
  -21.5974  -26.8362   22.0454 H   0  0  0  0  0  0  0  0  0  0  0  0
  -19.6810  -25.6422   21.1488 H   0  0  0  0  0  0  0  0  0  0  0  0
  -19.6406  -27.3343   20.7034 H   0  0  0  0  0  0  0  0  0  0  0  0
  -17.4282  -26.6888   21.4113 H   0  0  0  0  0  0  0  0  0  0  0  0
  -18.0803  -26.0130   22.9049 H   0  0  0  0  0  0  0  0  0  0  0  0
  -19.7265  -30.6774   24.2204 H   0  0  0  0  0  0  0  0  0  0  0  0
  -17.5064  -31.5856   24.4483 H   0  0  0  0  0  0  0  0  0  0  0  0
  -15.5878  -30.2839   23.7407 H   0  0  0  0  0  0  0  0  0  0  0  0
  -15.9120  -28.0941   22.7766 H   0  0  0  0  0  0  0  0  0  0  0  0
  -24.5787  -30.7757   25.6817 H   0  0  0  0  0  0  0  0  0  0  0  0
  -25.0041  -32.2289   26.5536 H   0  0  0  0  0  0  0  0  0  0  0  0
  -25.8166  -30.7245   26.9138 H   0  0  0  0  0  0  0  0  0  0  0  0
  -26.2892  -29.7335   24.0803 H   0  0  0  0  0  0  0  0  0  0  0  0
  -27.4336  -29.7484   25.4006 H   0  0  0  0  0  0  0  0  0  0  0  0
  -27.8466  -30.4994   23.8779 H   0  0  0  0  0  0  0  0  0  0  0  0
  -27.2251  -33.3632   26.1242 H   0  0  0  0  0  0  0  0  0  0  0  0
  -28.3902  -32.6065   25.0645 H   0  0  0  0  0  0  0  0  0  0  0  0
  -27.9772  -31.8555   26.5872 H   0  0  0  0  0  0  0  0  0  0  0  0
  -28.2744  -38.0016   24.6863 H   0  0  0  0  0  0  0  0  0  0  0  0
  -28.0396  -36.2711   24.7461 H   0  0  0  0  0  0  0  0  0  0  0  0
  -27.1773  -37.3087   25.8564 H   0  0  0  0  0  0  0  0  0  0  0  0
  -20.9627  -29.9365   21.7352 H   0  0  0  0  0  0  0  0  0  0  0  0
  -26.0447  -38.2561   24.0273 H   0  0  0  0  0  0  0  0  0  0  0  0
  -24.0088  -16.3688   21.6904 H   0  0  0  0  0  0  0  0  0  0  0  0
  -20.6409  -13.9425   22.3823 H   0  0  0  0  0  0  0  0  0  0  0  0
  -17.7468  -17.2515   23.8715 H   0  0  0  0  0  0  0  0  0  0  0  0
  -17.7438  -18.0017   22.2575 H   0  0  0  0  0  0  0  0  0  0  0  0
  -19.6798  -16.3333   21.6225 H   0  0  0  0  0  0  0  0  0  0  0  0
  -19.7241  -15.7120   23.2585 H   0  0  0  0  0  0  0  0  0  0  0  0
  -18.2018  -19.4673   24.8134 H   0  0  0  0  0  0  0  0  0  0  0  0
  -16.6748  -19.3924   23.9186 H   0  0  0  0  0  0  0  0  0  0  0  0
  -17.5519  -21.3372   23.3757 H   0  0  0  0  0  0  0  0  0  0  0  0
  -18.2076  -19.9598   22.1003 H   0  0  0  0  0  0  0  0  0  0  0  0
  -24.1194  -12.3421   20.9057 H   0  0  0  0  0  0  0  0  0  0  0  0
  -22.0312  -17.2054   22.8349 H   0  0  0  0  0  0  0  0  0  0  0  0
  -25.4047  -14.8233   19.9078 H   0  0  0  0  0  0  0  0  0  0  0  0
  1 25  1  0
  1 30  2  0
  1 83  1  0
  2  3  1  0
  2 25  1  0
  2 86  1  0
  2 87  1  0
  3  4  1  0
  3 88  1  0
  3 89  1  0
  4  5  1  0
  4 90  1  0
  4 91  1  0
  5  6  1  0
  5 26  1  0
  5 92  1  6
  6 25  1  0
  6 93  1  0
  6 94  1  0
  7  8  2  0
  7 26  1  0
  7 29  1  0
  8  9  1  0
  8 22  1  0
  9 10  1  0
  9 27  2  0
 10 11  2  0
 10 15  1  0
 11 12  1  0
 11 95  1  0
 12 13  2  0
 12 96  1  0
 13 14  1  0
 13 31  1  0
 14 15  2  0
 14 97  1  0
 15 98  1  0
 16 17  2  0
 16 21  1  0
 16 31  1  0
 17 18  1  0
 17 99  1  0
 18 19  2  0
 18100  1  0
 19 20  1  0
 19 24  1  0
 20 21  2  0
 20101  1  0
 21 23  1  0
 22 28  1  0
 22 32  2  0
 26 27  1  0
 28102  1  0
 28103  1  0
 29104  1  0
 29105  1  0
 33 34  1  0
 33 66  1  0
 33 70  2  0
 34 36  1  0
 34 59  1  0
 34106  1  6
 35 44  2  0
 35 45  1  0
 35 68  1  0
 36 56  1  0
 36107  1  0
 37 39  1  0
 37 47  1  0
 37 66  1  0
 37108  1  6
 38 43  2  0
 38 46  1  0
 38 47  1  0
 39 64  1  0
 39 67  2  0
 40 52  1  0
 40 53  2  0
 40 58  1  0
 41109  1  0
 41110  1  0
 41111  1  0
 42 43  1  0
 42 66  1  0
 42112  1  0
 42113  1  0
 43 44  1  0
 44114  1  0
 45 46  2  0
 45115  1  0
 46116  1  0
 47117  1  0
 47118  1  0
 48 41  1  0
 48 56  1  0
 48 65  1  0
 48119  1  1
 49 50  1  0
 49 53  1  0
 49 64  1  0
 49120  1  1
 50 51  1  0
 50121  1  0
 50122  1  0
 51 52  1  0
 51123  1  0
 51124  1  0
 52125  1  0
 52126  1  0
 53 54  1  0
 54 55  2  0
 54127  1  0
 55 57  1  0
 55128  1  0
 56 69  2  0
 57 58  2  0
 57129  1  0
 58130  1  0
 59 60  1  0
 59 61  1  0
 59 62  1  0
 60131  1  0
 60132  1  0
 60133  1  0
 61134  1  0
 61135  1  0
 61136  1  0
 62137  1  0
 62138  1  0
 62139  1  0
 63 65  1  0
 63140  1  0
 63141  1  0
 63142  1  0
 64143  1  0
 65144  1  0
 68 80  1  0
 71 73  2  0
 71 74  1  0
 71145  1  0
 72 73  1  0
 72 75  2  0
 72146  1  0
 73 82  1  0
 74 81  2  0
 74 83  1  0
 75 81  1  0
 75 85  1  0
 76 77  1  0
 76 78  1  0
 76 84  2  0
 77 79  1  0
 77147  1  0
 77148  1  0
 78 82  1  0
 78149  1  0
 78150  1  0
 79 80  1  0
 79151  1  0
 79152  1  0
 80153  1  0
 80154  1  0
 81155  1  0
 82156  1  0
 83157  1  0
M  CHG  1  81   1
M  ISO  4   1 100  68 101  80 101  83 100
M  END
$$$$
38
     RDKit          3D

159167  0  0  0  0  0  0  0  0999 V2000
  -30.7652  -14.3608   20.6636 C   0  0  0  0  0  0  0  0  0100  0  0
  -30.4392  -12.2669   19.3775 C   0  0  0  0  0  0  0  0  0101  0  0
  -29.4791  -12.5281   18.1977 C   0  0  0  0  0  0  0  0  0102  0  0
  -27.9985  -12.3963   18.6038 C   0  0  0  0  0  0  0  0  0103  0  0
  -27.6639  -13.2170   19.8820 C   0  0  2  0  0  0  0  0  0104  0  0
  -28.6795  -12.9602   21.0279 C   0  0  0  0  0  0  0  0  0105  0  0
  -25.2633  -13.8245   20.5754 C   0  0  0  0  0  0  0  0  0106  0  0
  -24.1645  -13.0409   20.9408 C   0  0  0  0  0  0  0  0  0107  0  0
  -24.6400  -11.7009   20.8697 C   0  0  0  0  0  0  0  0  0108  0  0
  -23.9005  -10.4085   21.0420 C   0  0  0  0  0  0  0  0  0109  0  0
  -24.3588   -9.4123   21.9123 C   0  0  0  0  0  0  0  0  0110  0  0
  -23.6296   -8.2350   22.0803 C   0  0  0  0  0  0  0  0  0111  0  0
  -22.4385   -8.0419   21.3657 C   0  0  0  0  0  0  0  0  0112  0  0
  -22.0103   -9.0167   20.4678 C   0  0  0  0  0  0  0  0  0113  0  0
  -22.7317  -10.1925   20.3102 C   0  0  0  0  0  0  0  0  0114  0  0
  -21.6857   -6.0709   22.5391 C   0  0  0  0  0  0  0  0  0115  0  0
  -21.4064   -6.5490   23.8264 C   0  0  0  0  0  0  0  0  0116  0  0
  -21.3635   -5.6677   24.9085 C   0  0  0  0  0  0  0  0  0117  0  0
  -21.5973   -4.3067   24.7088 C   0  0  0  0  0  0  0  0  0118  0  0
  -21.8700   -3.8284   23.4282 C   0  0  0  0  0  0  0  0  0119  0  0
  -21.9144   -4.7056   22.3460 C   0  0  0  0  0  0  0  0  0120  0  0
  -22.8194  -13.5263   21.1763 C   0  0  0  0  0  0  0  0  0121  0  0
  -22.1559   -4.2206   21.1063 F   0  0  0  0  0  0  0  0  0122  0  0
  -21.5628   -3.4510   25.7555 F   0  0  0  0  0  0  0  0  0123  0  0
  -30.0261  -13.1803   20.4553 N   0  0  0  0  0  0  0  0  0124  0  0
  -26.2911  -12.9356   20.3443 N   0  0  0  0  0  0  0  0  0125  0  0
  -25.9236  -11.6675   20.5847 N   0  0  0  0  0  0  0  0  0126  0  0
  -22.0708  -12.7905   22.0005 N   0  0  0  0  0  0  0  0  0127  0  0
  -25.4117  -15.1773   20.4097 N   0  0  0  0  0  0  0  0  0128  0  0
  -31.7916  -14.6724   20.0536 O   0  0  0  0  0  0  0  0  0129  0  0
  -21.6670   -6.9022   21.4423 O   0  0  0  0  0  0  0  0  0130  0  0
  -22.3946  -14.5564   20.6568 O   0  0  0  0  0  0  0  0  0131  0  0
  -24.6048  -31.8614   23.2223 C   0  0  0  0  0  0  0  0  0100  0  0
  -25.8822  -32.4841   23.8616 C   0  0  1  0  0  0  0  0  0101  0  0
  -27.2536  -27.5042   20.1156 C   0  0  0  0  0  0  0  0  0102  0  0
  -25.5726  -33.8762   24.2210 N   0  0  0  0  0  0  0  0  0103  0  0
  -23.4066  -30.4859   21.5461 C   0  0  2  0  0  0  0  0  0104  0  0
  -24.8467  -28.9636   20.1247 C   0  0  0  0  0  0  0  0  0105  0  0
  -22.7412  -29.4652   22.5052 C   0  0  0  0  0  0  0  0  0106  0  0
  -18.0167  -28.1302   22.8626 C   0  0  0  0  0  0  0  0  0107  0  0
  -24.1342  -36.7390   23.2568 C   0  0  0  0  0  0  0  0  0108  0  0
  -25.9141  -30.8882   21.3456 C   0  0  0  0  0  0  0  0  0109  0  0
  -25.9930  -29.5029   20.7208 C   0  0  0  0  0  0  0  0  0110  0  0
  -27.1758  -28.7612   20.7331 C   0  0  0  0  0  0  0  0  0111  0  0
  -26.1032  -26.9836   19.5230 C   0  0  0  0  0  0  0  0  0112  0  0
  -24.9097  -27.7011   19.5331 C   0  0  0  0  0  0  0  0  0113  0  0
  -23.5715  -29.7899   20.1582 C   0  0  0  0  0  0  0  0  0114  0  0
  -25.3990  -36.3212   24.0232 C   0  0  1  0  0  0  0  0  0115  0  0
  -20.5793  -28.3813   23.1004 C   0  0  2  0  0  0  0  0  0116  0  0
  -20.6548  -26.9392   22.5411 C   0  0  0  0  0  0  0  0  0117  0  0
  -19.5615  -26.6407   21.5143 C   0  0  0  0  0  0  0  0  0118  0  0
  -18.1797  -26.7818   22.1673 C   0  0  0  0  0  0  0  0  0119  0  0
  -19.1385  -28.8769   23.2988 C   0  0  0  0  0  0  0  0  0120  0  0
  -18.9183  -30.1286   23.8878 C   0  0  0  0  0  0  0  0  0121  0  0
  -17.6396  -30.6493   24.0352 C   0  0  0  0  0  0  0  0  0122  0  0
  -25.9153  -34.9582   23.4993 C   0  0  0  0  0  0  0  0  0123  0  0
  -16.5415  -29.9068   23.6254 C   0  0  0  0  0  0  0  0  0124  0  0
  -16.7331  -28.6521   23.0586 C   0  0  0  0  0  0  0  0  0125  0  0
  -26.4583  -31.6439   25.0683 C   0  0  0  0  0  0  0  0  0126  0  0
  -25.3807  -31.3179   26.1374 C   0  0  0  0  0  0  0  0  0127  0  0
  -27.0530  -30.3024   24.5680 C   0  0  0  0  0  0  0  0  0128  0  0
  -27.6014  -32.4281   25.7651 C   0  0  0  0  0  0  0  0  0129  0  0
  -27.5629  -37.2220   24.8621 C   0  0  0  0  0  0  0  0  0130  0  0
  -21.4133  -29.3375   22.3735 N   0  0  0  0  0  0  0  0  0131  0  0
  -26.4706  -37.3372   23.9061 N   0  0  0  0  0  0  0  0  0132  0  0
  -24.6674  -31.0544   22.1178 N   0  0  0  0  0  0  0  0  0133  0  0
  -23.4259  -28.8150   23.2971 O   0  0  0  0  0  0  0  0  0134  0  0
  -28.3948  -26.7345   20.0089 O   0  0  0  0  0  0  0  0  0135  0  0
  -26.5870  -34.9065   22.4671 O   0  0  0  0  0  0  0  0  0136  0  0
  -23.5365  -32.1254   23.7833 O   0  0  0  0  0  0  0  0  0137  0  0
  -28.7745  -23.7932   18.4136 C   0  0  0  0  0  0  0  0  0  0  0  0
  -30.8716  -23.1740   16.6811 C   0  0  0  0  0  0  0  0  0  0  0  0
  -29.2096  -24.7346   17.4809 C   0  0  0  0  0  0  0  0  0  0  0  0
  -29.3879  -22.5421   18.4801 C   0  0  0  0  0  0  0  0  0  0  0  0
  -30.2582  -24.4250   16.6146 C   0  0  0  0  0  0  0  0  0  0  0  0
  -30.4364  -22.2326   17.6139 C   0  0  0  0  0  0  0  0  0  0  0  0
  -29.3069  -27.4208   19.3783 C   0  0  0  0  0  0  0  0  0  0  0  0
  -31.4614  -29.7470   21.5809 C   0  0  0  0  0  0  0  0  0  0  0  0
  -28.5317  -26.0732   17.4312 C   0  0  0  0  0  0  0  0  0  0  0  0
  -30.2632  -28.5556   19.7151 C   0  0  0  0  0  0  0  0  0  0  0  0
  -30.2249  -28.9473   21.1920 C   0  0  1  0  0  0  0  0  0  1  0  0
  -30.7121  -25.3656   15.6641 N   0  0  0  0  0  0  0  0  0  0  0  0
  -28.9441  -21.5875   19.4286 N   0  0  0  0  0  0  0  0  0  0  0  0
  -29.3415  -27.1119   18.0259 N   0  0  0  0  0  0  0  0  0  0  0  0
  -28.6014  -26.8630   20.2141 O   0  0  0  0  0  0  0  0  0  0  0  0
  -31.0334  -21.0334   17.6689 F   0  0  0  0  0  0  0  0  0  0  0  0
  -31.4485  -12.4701   19.0860 H   0  0  0  0  0  0  0  0  0  0  0  0
  -30.3970  -11.2460   19.6950 H   0  0  0  0  0  0  0  0  0  0  0  0
  -29.6870  -11.8204   17.4226 H   0  0  0  0  0  0  0  0  0  0  0  0
  -29.6375  -13.5326   17.8649 H   0  0  0  0  0  0  0  0  0  0  0  0
  -27.7830  -11.3650   18.7904 H   0  0  0  0  0  0  0  0  0  0  0  0
  -27.4028  -12.7801   17.8021 H   0  0  0  0  0  0  0  0  0  0  0  0
  -27.7353  -14.2503   19.6136 H   0  0  0  0  0  0  0  0  0  0  0  0
  -28.5890  -11.9550   21.3832 H   0  0  0  0  0  0  0  0  0  0  0  0
  -28.5005  -13.6134   21.8562 H   0  0  0  0  0  0  0  0  0  0  0  0
  -25.2399   -9.5495   22.4318 H   0  0  0  0  0  0  0  0  0  0  0  0
  -23.9663   -7.5070   22.7297 H   0  0  0  0  0  0  0  0  0  0  0  0
  -21.1515   -8.8641   19.9162 H   0  0  0  0  0  0  0  0  0  0  0  0
  -22.4016  -10.9115   19.6476 H   0  0  0  0  0  0  0  0  0  0  0  0
  -21.2319   -7.5552   23.9750 H   0  0  0  0  0  0  0  0  0  0  0  0
  -21.1589   -6.0228   25.8556 H   0  0  0  0  0  0  0  0  0  0  0  0
  -22.0396   -2.8212   23.2809 H   0  0  0  0  0  0  0  0  0  0  0  0
  -22.4401  -11.9703   22.4008 H   0  0  0  0  0  0  0  0  0  0  0  0
  -21.1493  -13.0679   22.2082 H   0  0  0  0  0  0  0  0  0  0  0  0
  -24.6538  -15.7807   20.5848 H   0  0  0  0  0  0  0  0  0  0  0  0
  -26.2762  -15.5453   20.1156 H   0  0  0  0  0  0  0  0  0  0  0  0
  -26.6778  -32.4663   23.1464 H   0  0  0  0  0  0  0  0  0  0  0  0
  -25.0747  -34.0282   25.0566 H   0  0  0  0  0  0  0  0  0  0  0  0
  -22.7881  -31.3489   21.4131 H   0  0  0  0  0  0  0  0  0  0  0  0
  -23.3854  -35.9823   23.3648 H   0  0  0  0  0  0  0  0  0  0  0  0
  -24.3696  -36.8624   22.2204 H   0  0  0  0  0  0  0  0  0  0  0  0
  -23.7669  -37.6632   23.6516 H   0  0  0  0  0  0  0  0  0  0  0  0
  -25.9445  -31.6237   20.5691 H   0  0  0  0  0  0  0  0  0  0  0  0
  -26.7436  -31.0079   22.0108 H   0  0  0  0  0  0  0  0  0  0  0  0
  -28.0090  -29.1452   21.2057 H   0  0  0  0  0  0  0  0  0  0  0  0
  -26.1369  -26.0560   19.0719 H   0  0  0  0  0  0  0  0  0  0  0  0
  -24.0652  -27.2961   19.0997 H   0  0  0  0  0  0  0  0  0  0  0  0
  -23.6156  -30.5365   19.3930 H   0  0  0  0  0  0  0  0  0  0  0  0
  -22.7355  -29.1425   19.9945 H   0  0  0  0  0  0  0  0  0  0  0  0
  -25.1353  -36.2335   25.0565 H   0  0  0  0  0  0  0  0  0  0  0  0
  -21.0070  -28.3206   24.0793 H   0  0  0  0  0  0  0  0  0  0  0  0
  -20.5555  -26.2518   23.3550 H   0  0  0  0  0  0  0  0  0  0  0  0
  -21.5974  -26.8362   22.0454 H   0  0  0  0  0  0  0  0  0  0  0  0
  -19.6810  -25.6422   21.1488 H   0  0  0  0  0  0  0  0  0  0  0  0
  -19.6406  -27.3343   20.7034 H   0  0  0  0  0  0  0  0  0  0  0  0
  -17.4282  -26.6888   21.4113 H   0  0  0  0  0  0  0  0  0  0  0  0
  -18.0803  -26.0130   22.9049 H   0  0  0  0  0  0  0  0  0  0  0  0
  -19.7265  -30.6774   24.2204 H   0  0  0  0  0  0  0  0  0  0  0  0
  -17.5064  -31.5856   24.4483 H   0  0  0  0  0  0  0  0  0  0  0  0
  -15.5878  -30.2839   23.7407 H   0  0  0  0  0  0  0  0  0  0  0  0
  -15.9120  -28.0941   22.7766 H   0  0  0  0  0  0  0  0  0  0  0  0
  -24.5787  -30.7757   25.6817 H   0  0  0  0  0  0  0  0  0  0  0  0
  -25.0041  -32.2289   26.5536 H   0  0  0  0  0  0  0  0  0  0  0  0
  -25.8166  -30.7245   26.9138 H   0  0  0  0  0  0  0  0  0  0  0  0
  -26.2892  -29.7335   24.0803 H   0  0  0  0  0  0  0  0  0  0  0  0
  -27.4336  -29.7484   25.4006 H   0  0  0  0  0  0  0  0  0  0  0  0
  -27.8466  -30.4994   23.8779 H   0  0  0  0  0  0  0  0  0  0  0  0
  -27.2251  -33.3632   26.1242 H   0  0  0  0  0  0  0  0  0  0  0  0
  -28.3902  -32.6065   25.0645 H   0  0  0  0  0  0  0  0  0  0  0  0
  -27.9772  -31.8555   26.5872 H   0  0  0  0  0  0  0  0  0  0  0  0
  -28.2744  -38.0016   24.6863 H   0  0  0  0  0  0  0  0  0  0  0  0
  -28.0396  -36.2711   24.7461 H   0  0  0  0  0  0  0  0  0  0  0  0
  -27.1773  -37.3087   25.8564 H   0  0  0  0  0  0  0  0  0  0  0  0
  -20.9627  -29.9365   21.7352 H   0  0  0  0  0  0  0  0  0  0  0  0
  -26.0447  -38.2561   24.0273 H   0  0  0  0  0  0  0  0  0  0  0  0
  -27.9988  -24.0222   19.0545 H   0  0  0  0  0  0  0  0  0  0  0  0
  -31.6474  -22.9449   16.0402 H   0  0  0  0  0  0  0  0  0  0  0  0
  -31.1649  -30.6235   22.1182 H   0  0  0  0  0  0  0  0  0  0  0  0
  -31.9935  -30.0330   20.6978 H   0  0  0  0  0  0  0  0  0  0  0  0
  -32.0945  -29.1463   22.2000 H   0  0  0  0  0  0  0  0  0  0  0  0
  -27.6048  -26.0111   17.9622 H   0  0  0  0  0  0  0  0  0  0  0  0
  -28.3726  -26.3254   16.4036 H   0  0  0  0  0  0  0  0  0  0  0  0
  -29.9988  -29.4104   19.1282 H   0  0  0  0  0  0  0  0  0  0  0  0
  -31.2543  -28.2151   19.4989 H   0  0  0  0  0  0  0  0  0  0  0  0
  -30.0049  -29.3415   22.1621 H   0  0  0  0  0  0  0  0  0  0  0  0
  -31.4531  -25.1349   15.0583 H   0  0  0  0  0  0  0  0  0  0  0  0
  -30.2876  -26.2520   15.6072 H   0  0  0  0  0  0  0  0  0  0  0  0
  -28.2637  -21.9348   20.0496 H   0  0  0  0  0  0  0  0  0  0  0  0
  -29.9470  -27.6251   17.4435 H   0  0  0  0  0  0  0  0  0  0  0  0
  1 25  1  0
  1 30  2  0
  1 83  1  0
  2  3  1  0
  2 25  1  0
  2 87  1  0
  2 88  1  0
  3  4  1  0
  3 89  1  0
  3 90  1  0
  4  5  1  0
  4 91  1  0
  4 92  1  0
  5  6  1  0
  5 26  1  0
  5 93  1  6
  6 25  1  0
  6 94  1  0
  6 95  1  0
  7  8  2  0
  7 26  1  0
  7 29  1  0
  8  9  1  0
  8 22  1  0
  9 10  1  0
  9 27  2  0
 10 11  2  0
 10 15  1  0
 11 12  1  0
 11 96  1  0
 12 13  2  0
 12 97  1  0
 13 14  1  0
 13 31  1  0
 14 15  2  0
 14 98  1  0
 15 99  1  0
 16 17  2  0
 16 21  1  0
 16 31  1  0
 17 18  1  0
 17100  1  0
 18 19  2  0
 18101  1  0
 19 20  1  0
 19 24  1  0
 20 21  2  0
 20102  1  0
 21 23  1  0
 22 28  1  0
 22 32  2  0
 26 27  1  0
 28103  1  0
 28104  1  0
 29105  1  0
 29106  1  0
 33 34  1  0
 33 66  1  0
 33 70  2  0
 34 36  1  0
 34 59  1  0
 34107  1  6
 35 44  2  0
 35 45  1  0
 35 68  1  0
 36 56  1  0
 36108  1  0
 37 39  1  0
 37 47  1  0
 37 66  1  0
 37109  1  6
 38 43  2  0
 38 46  1  0
 38 47  1  0
 39 64  1  0
 39 67  2  0
 40 52  1  0
 40 53  2  0
 40 58  1  0
 41110  1  0
 41111  1  0
 41112  1  0
 42 43  1  0
 42 66  1  0
 42113  1  0
 42114  1  0
 43 44  1  0
 44115  1  0
 45 46  2  0
 45116  1  0
 46117  1  0
 47118  1  0
 47119  1  0
 48 41  1  0
 48 56  1  0
 48 65  1  0
 48120  1  1
 49 50  1  0
 49 53  1  0
 49 64  1  0
 49121  1  1
 50 51  1  0
 50122  1  0
 50123  1  0
 51 52  1  0
 51124  1  0
 51125  1  0
 52126  1  0
 52127  1  0
 53 54  1  0
 54 55  2  0
 54128  1  0
 55 57  1  0
 55129  1  0
 56 69  2  0
 57 58  2  0
 57130  1  0
 58131  1  0
 59 60  1  0
 59 61  1  0
 59 62  1  0
 60132  1  0
 60133  1  0
 60134  1  0
 61135  1  0
 61136  1  0
 61137  1  0
 62138  1  0
 62139  1  0
 62140  1  0
 63 65  1  0
 63141  1  0
 63142  1  0
 63143  1  0
 64144  1  0
 65145  1  0
 68 81  1  0
 71 73  2  0
 71 74  1  0
 71146  1  0
 72 75  2  0
 72 76  1  0
 72147  1  0
 73 75  1  0
 73 79  1  0
 74 76  2  0
 74 83  1  0
 75 82  1  0
 76 86  1  0
 77 80  1  0
 77 84  1  0
 77 85  2  0
 78148  1  0
 78149  1  0
 78150  1  0
 79 84  1  0
 79151  1  0
 79152  1  0
 80 81  1  0
 80153  1  0
 80154  1  0
 81 78  1  0
 81155  1  6
 82156  1  0
 82157  1  0
 83158  1  0
 84159  1  0
M  ISO  4   1 100  68 101  81 101  83 100
M  END
$$$$
39
     RDKit          3D

158166  0  0  0  0  0  0  0  0999 V2000
  -30.7652  -14.3608   20.6636 C   0  0  0  0  0  0  0  0  0100  0  0
  -30.4392  -12.2669   19.3775 C   0  0  0  0  0  0  0  0  0101  0  0
  -29.4791  -12.5281   18.1977 C   0  0  0  0  0  0  0  0  0102  0  0
  -27.9985  -12.3963   18.6038 C   0  0  0  0  0  0  0  0  0103  0  0
  -27.6639  -13.2170   19.8820 C   0  0  2  0  0  0  0  0  0104  0  0
  -28.6795  -12.9602   21.0279 C   0  0  0  0  0  0  0  0  0105  0  0
  -25.2633  -13.8245   20.5754 C   0  0  0  0  0  0  0  0  0106  0  0
  -24.1645  -13.0409   20.9408 C   0  0  0  0  0  0  0  0  0107  0  0
  -24.6400  -11.7009   20.8697 C   0  0  0  0  0  0  0  0  0108  0  0
  -23.9005  -10.4085   21.0420 C   0  0  0  0  0  0  0  0  0109  0  0
  -24.3588   -9.4123   21.9123 C   0  0  0  0  0  0  0  0  0110  0  0
  -23.6296   -8.2350   22.0803 C   0  0  0  0  0  0  0  0  0111  0  0
  -22.4385   -8.0419   21.3657 C   0  0  0  0  0  0  0  0  0112  0  0
  -22.0103   -9.0167   20.4678 C   0  0  0  0  0  0  0  0  0113  0  0
  -22.7317  -10.1925   20.3102 C   0  0  0  0  0  0  0  0  0114  0  0
  -21.6857   -6.0709   22.5391 C   0  0  0  0  0  0  0  0  0115  0  0
  -21.4064   -6.5490   23.8264 C   0  0  0  0  0  0  0  0  0116  0  0
  -21.3635   -5.6677   24.9085 C   0  0  0  0  0  0  0  0  0117  0  0
  -21.5973   -4.3067   24.7088 C   0  0  0  0  0  0  0  0  0118  0  0
  -21.8700   -3.8284   23.4282 C   0  0  0  0  0  0  0  0  0119  0  0
  -21.9144   -4.7056   22.3460 C   0  0  0  0  0  0  0  0  0120  0  0
  -22.8194  -13.5263   21.1763 C   0  0  0  0  0  0  0  0  0121  0  0
  -22.1559   -4.2206   21.1063 F   0  0  0  0  0  0  0  0  0122  0  0
  -21.5628   -3.4510   25.7555 F   0  0  0  0  0  0  0  0  0123  0  0
  -30.0261  -13.1803   20.4553 N   0  0  0  0  0  0  0  0  0124  0  0
  -26.2911  -12.9356   20.3443 N   0  0  0  0  0  0  0  0  0125  0  0
  -25.9236  -11.6675   20.5847 N   0  0  0  0  0  0  0  0  0126  0  0
  -22.0708  -12.7905   22.0005 N   0  0  0  0  0  0  0  0  0127  0  0
  -25.4117  -15.1773   20.4097 N   0  0  0  0  0  0  0  0  0128  0  0
  -31.7916  -14.6724   20.0536 O   0  0  0  0  0  0  0  0  0129  0  0
  -21.6670   -6.9022   21.4423 O   0  0  0  0  0  0  0  0  0130  0  0
  -22.3946  -14.5564   20.6568 O   0  0  0  0  0  0  0  0  0131  0  0
  -24.6048  -31.8614   23.2223 C   0  0  0  0  0  0  0  0  0100  0  0
  -25.8822  -32.4841   23.8616 C   0  0  1  0  0  0  0  0  0101  0  0
  -27.2536  -27.5042   20.1156 C   0  0  0  0  0  0  0  0  0102  0  0
  -25.5726  -33.8762   24.2210 N   0  0  0  0  0  0  0  0  0103  0  0
  -23.4066  -30.4859   21.5461 C   0  0  2  0  0  0  0  0  0104  0  0
  -24.8467  -28.9636   20.1247 C   0  0  0  0  0  0  0  0  0105  0  0
  -22.7412  -29.4652   22.5052 C   0  0  0  0  0  0  0  0  0106  0  0
  -18.0167  -28.1302   22.8626 C   0  0  0  0  0  0  0  0  0107  0  0
  -24.1342  -36.7390   23.2568 C   0  0  0  0  0  0  0  0  0108  0  0
  -25.9141  -30.8882   21.3456 C   0  0  0  0  0  0  0  0  0109  0  0
  -25.9930  -29.5029   20.7208 C   0  0  0  0  0  0  0  0  0110  0  0
  -27.1758  -28.7612   20.7331 C   0  0  0  0  0  0  0  0  0111  0  0
  -26.1032  -26.9836   19.5230 C   0  0  0  0  0  0  0  0  0112  0  0
  -24.9097  -27.7011   19.5331 C   0  0  0  0  0  0  0  0  0113  0  0
  -23.5715  -29.7899   20.1582 C   0  0  0  0  0  0  0  0  0114  0  0
  -25.3990  -36.3212   24.0232 C   0  0  1  0  0  0  0  0  0115  0  0
  -20.5793  -28.3813   23.1004 C   0  0  2  0  0  0  0  0  0116  0  0
  -20.6548  -26.9392   22.5411 C   0  0  0  0  0  0  0  0  0117  0  0
  -19.5615  -26.6407   21.5143 C   0  0  0  0  0  0  0  0  0118  0  0
  -18.1797  -26.7818   22.1673 C   0  0  0  0  0  0  0  0  0119  0  0
  -19.1385  -28.8769   23.2988 C   0  0  0  0  0  0  0  0  0120  0  0
  -18.9183  -30.1286   23.8878 C   0  0  0  0  0  0  0  0  0121  0  0
  -17.6396  -30.6493   24.0352 C   0  0  0  0  0  0  0  0  0122  0  0
  -25.9153  -34.9582   23.4993 C   0  0  0  0  0  0  0  0  0123  0  0
  -16.5415  -29.9068   23.6254 C   0  0  0  0  0  0  0  0  0124  0  0
  -16.7331  -28.6521   23.0586 C   0  0  0  0  0  0  0  0  0125  0  0
  -26.4583  -31.6439   25.0683 C   0  0  0  0  0  0  0  0  0126  0  0
  -25.3807  -31.3179   26.1374 C   0  0  0  0  0  0  0  0  0127  0  0
  -27.0530  -30.3024   24.5680 C   0  0  0  0  0  0  0  0  0128  0  0
  -27.6014  -32.4281   25.7651 C   0  0  0  0  0  0  0  0  0129  0  0
  -27.5629  -37.2220   24.8621 C   0  0  0  0  0  0  0  0  0130  0  0
  -21.4133  -29.3375   22.3735 N   0  0  0  0  0  0  0  0  0131  0  0
  -26.4706  -37.3372   23.9061 N   0  0  0  0  0  0  0  0  0132  0  0
  -24.6674  -31.0544   22.1178 N   0  0  0  0  0  0  0  0  0133  0  0
  -23.4259  -28.8150   23.2971 O   0  0  0  0  0  0  0  0  0134  0  0
  -28.3948  -26.7345   20.0089 O   0  0  0  0  0  0  0  0  0135  0  0
  -26.5870  -34.9065   22.4671 O   0  0  0  0  0  0  0  0  0136  0  0
  -23.5365  -32.1254   23.7833 O   0  0  0  0  0  0  0  0  0137  0  0
  -24.5502  -28.6958   21.5157 C   0  0  0  0  0  0  0  0  0  0  0  0
  -25.7498  -30.5673   20.5697 C   0  0  0  0  0  0  0  0  0  0  0  0
  -23.4116  -30.7923   21.1344 C   0  0  0  0  0  0  0  0  0  0  0  0
  -25.7294  -29.2446   21.0121 C   0  0  0  0  0  0  0  0  0  0  0  0
  -23.3912  -29.4696   21.5768 C   0  0  0  0  0  0  0  0  0  0  0  0
  -24.5909  -31.3412   20.6308 C   0  0  0  0  0  0  0  0  0  0  0  0
  -22.2160  -31.6242   21.1884 C   0  0  0  0  0  0  0  0  0  0  0  0
  -20.7333  -27.2733   23.0268 C   0  0  0  0  0  0  0  0  0  0  0  0
  -20.4145  -25.8910   23.5620 C   0  0  0  0  0  0  0  0  0  0  0  0
  -22.2826  -32.8759   22.0116 C   0  0  0  0  0  0  0  0  0  0  0  0
  -22.1381  -27.5463   22.5548 C   0  0  0  0  0  0  0  0  0  0  0  0
  -21.5161  -24.8621   23.5901 C   0  0  0  0  0  0  0  0  0  1  0  0
  -26.9065  -28.4583   20.9487 N   0  0  0  0  0  0  0  0  0  0  0  0
  -22.2292  -28.9053   22.0809 N   0  0  0  0  0  0  0  0  0  0  0  0
  -21.1574  -31.3723   20.6129 O   0  0  0  0  0  0  0  0  0  0  0  0
  -19.8202  -28.0892   23.0129 O   0  0  0  0  0  0  0  0  0  0  0  0
  -19.2695  -25.6840   23.9430 O   0  0  0  0  0  0  0  0  0  0  0  0
  -24.6235  -32.6116   20.2037 F   0  0  0  0  0  0  0  0  0  0  0  0
  -31.4485  -12.4701   19.0860 H   0  0  0  0  0  0  0  0  0  0  0  0
  -30.3970  -11.2460   19.6950 H   0  0  0  0  0  0  0  0  0  0  0  0
  -29.6870  -11.8204   17.4226 H   0  0  0  0  0  0  0  0  0  0  0  0
  -29.6375  -13.5326   17.8649 H   0  0  0  0  0  0  0  0  0  0  0  0
  -27.7830  -11.3650   18.7904 H   0  0  0  0  0  0  0  0  0  0  0  0
  -27.4028  -12.7801   17.8021 H   0  0  0  0  0  0  0  0  0  0  0  0
  -27.7353  -14.2503   19.6136 H   0  0  0  0  0  0  0  0  0  0  0  0
  -28.5890  -11.9550   21.3832 H   0  0  0  0  0  0  0  0  0  0  0  0
  -28.5005  -13.6134   21.8562 H   0  0  0  0  0  0  0  0  0  0  0  0
  -25.2399   -9.5495   22.4318 H   0  0  0  0  0  0  0  0  0  0  0  0
  -23.9663   -7.5070   22.7297 H   0  0  0  0  0  0  0  0  0  0  0  0
  -21.1515   -8.8641   19.9162 H   0  0  0  0  0  0  0  0  0  0  0  0
  -22.4016  -10.9115   19.6476 H   0  0  0  0  0  0  0  0  0  0  0  0
  -21.2319   -7.5552   23.9750 H   0  0  0  0  0  0  0  0  0  0  0  0
  -21.1589   -6.0228   25.8556 H   0  0  0  0  0  0  0  0  0  0  0  0
  -22.0396   -2.8212   23.2809 H   0  0  0  0  0  0  0  0  0  0  0  0
  -22.4401  -11.9703   22.4008 H   0  0  0  0  0  0  0  0  0  0  0  0
  -21.1493  -13.0679   22.2082 H   0  0  0  0  0  0  0  0  0  0  0  0
  -24.6538  -15.7807   20.5848 H   0  0  0  0  0  0  0  0  0  0  0  0
  -26.2762  -15.5453   20.1156 H   0  0  0  0  0  0  0  0  0  0  0  0
  -26.6778  -32.4663   23.1464 H   0  0  0  0  0  0  0  0  0  0  0  0
  -25.0747  -34.0282   25.0566 H   0  0  0  0  0  0  0  0  0  0  0  0
  -22.7881  -31.3489   21.4131 H   0  0  0  0  0  0  0  0  0  0  0  0
  -23.3854  -35.9823   23.3648 H   0  0  0  0  0  0  0  0  0  0  0  0
  -24.3696  -36.8624   22.2204 H   0  0  0  0  0  0  0  0  0  0  0  0
  -23.7669  -37.6632   23.6516 H   0  0  0  0  0  0  0  0  0  0  0  0
  -25.9445  -31.6237   20.5691 H   0  0  0  0  0  0  0  0  0  0  0  0
  -26.7436  -31.0079   22.0108 H   0  0  0  0  0  0  0  0  0  0  0  0
  -28.0090  -29.1452   21.2057 H   0  0  0  0  0  0  0  0  0  0  0  0
  -26.1369  -26.0560   19.0719 H   0  0  0  0  0  0  0  0  0  0  0  0
  -24.0652  -27.2961   19.0997 H   0  0  0  0  0  0  0  0  0  0  0  0
  -23.6156  -30.5365   19.3930 H   0  0  0  0  0  0  0  0  0  0  0  0
  -22.7355  -29.1425   19.9945 H   0  0  0  0  0  0  0  0  0  0  0  0
  -25.1353  -36.2335   25.0565 H   0  0  0  0  0  0  0  0  0  0  0  0
  -21.0070  -28.3206   24.0793 H   0  0  0  0  0  0  0  0  0  0  0  0
  -20.5555  -26.2518   23.3550 H   0  0  0  0  0  0  0  0  0  0  0  0
  -21.5974  -26.8362   22.0454 H   0  0  0  0  0  0  0  0  0  0  0  0
  -19.6810  -25.6422   21.1488 H   0  0  0  0  0  0  0  0  0  0  0  0
  -19.6406  -27.3343   20.7034 H   0  0  0  0  0  0  0  0  0  0  0  0
  -17.4282  -26.6888   21.4113 H   0  0  0  0  0  0  0  0  0  0  0  0
  -18.0803  -26.0130   22.9049 H   0  0  0  0  0  0  0  0  0  0  0  0
  -19.7265  -30.6774   24.2204 H   0  0  0  0  0  0  0  0  0  0  0  0
  -17.5064  -31.5856   24.4483 H   0  0  0  0  0  0  0  0  0  0  0  0
  -15.5878  -30.2839   23.7407 H   0  0  0  0  0  0  0  0  0  0  0  0
  -15.9120  -28.0941   22.7766 H   0  0  0  0  0  0  0  0  0  0  0  0
  -24.5787  -30.7757   25.6817 H   0  0  0  0  0  0  0  0  0  0  0  0
  -25.0041  -32.2289   26.5536 H   0  0  0  0  0  0  0  0  0  0  0  0
  -25.8166  -30.7245   26.9138 H   0  0  0  0  0  0  0  0  0  0  0  0
  -26.2892  -29.7335   24.0803 H   0  0  0  0  0  0  0  0  0  0  0  0
  -27.4336  -29.7484   25.4006 H   0  0  0  0  0  0  0  0  0  0  0  0
  -27.8466  -30.4994   23.8779 H   0  0  0  0  0  0  0  0  0  0  0  0
  -27.2251  -33.3632   26.1242 H   0  0  0  0  0  0  0  0  0  0  0  0
  -28.3902  -32.6065   25.0645 H   0  0  0  0  0  0  0  0  0  0  0  0
  -27.9772  -31.8555   26.5872 H   0  0  0  0  0  0  0  0  0  0  0  0
  -28.2744  -38.0016   24.6863 H   0  0  0  0  0  0  0  0  0  0  0  0
  -28.0396  -36.2711   24.7461 H   0  0  0  0  0  0  0  0  0  0  0  0
  -27.1773  -37.3087   25.8564 H   0  0  0  0  0  0  0  0  0  0  0  0
  -20.9627  -29.9365   21.7352 H   0  0  0  0  0  0  0  0  0  0  0  0
  -26.0447  -38.2561   24.0273 H   0  0  0  0  0  0  0  0  0  0  0  0
  -24.5351  -27.7172   21.8431 H   0  0  0  0  0  0  0  0  0  0  0  0
  -26.6224  -30.9734   20.1972 H   0  0  0  0  0  0  0  0  0  0  0  0
  -23.2552  -32.9638   22.4489 H   0  0  0  0  0  0  0  0  0  0  0  0
  -21.5457  -32.8330   22.7863 H   0  0  0  0  0  0  0  0  0  0  0  0
  -22.0944  -33.7240   21.3870 H   0  0  0  0  0  0  0  0  0  0  0  0
  -22.3845  -26.8739   21.7598 H   0  0  0  0  0  0  0  0  0  0  0  0
  -22.8213  -27.4043   23.3659 H   0  0  0  0  0  0  0  0  0  0  0  0
  -21.1404  -23.9773   23.1200 H   0  0  0  0  0  0  0  0  0  0  0  0
  -21.7667  -24.7591   24.6252 H   0  0  0  0  0  0  0  0  0  0  0  0
  -27.7040  -29.0344   20.9132 H   0  0  0  0  0  0  0  0  0  0  0  0
  -21.4198  -29.4646   22.1174 H   0  0  0  0  0  0  0  0  0  0  0  0
  1 25  1  0
  1 30  2  0
  1 83  1  0
  2  3  1  0
  2 25  1  0
  2 89  1  0
  2 90  1  0
  3  4  1  0
  3 91  1  0
  3 92  1  0
  4  5  1  0
  4 93  1  0
  4 94  1  0
  5  6  1  0
  5 26  1  0
  5 95  1  6
  6 25  1  0
  6 96  1  0
  6 97  1  0
  7  8  2  0
  7 26  1  0
  7 29  1  0
  8  9  1  0
  8 22  1  0
  9 10  1  0
  9 27  2  0
 10 11  2  0
 10 15  1  0
 11 12  1  0
 11 98  1  0
 12 13  2  0
 12 99  1  0
 13 14  1  0
 13 31  1  0
 14 15  2  0
 14100  1  0
 15101  1  0
 16 17  2  0
 16 21  1  0
 16 31  1  0
 17 18  1  0
 17102  1  0
 18 19  2  0
 18103  1  0
 19 20  1  0
 19 24  1  0
 20 21  2  0
 20104  1  0
 21 23  1  0
 22 28  1  0
 22 32  2  0
 26 27  1  0
 28105  1  0
 28106  1  0
 29107  1  0
 29108  1  0
 33 34  1  0
 33 66  1  0
 33 70  2  0
 34 36  1  0
 34 59  1  0
 34109  1  6
 35 44  2  0
 35 45  1  0
 35 68  1  0
 36 56  1  0
 36110  1  0
 37 39  1  0
 37 47  1  0
 37 66  1  0
 37111  1  6
 38 43  2  0
 38 46  1  0
 38 47  1  0
 39 64  1  0
 39 67  2  0
 40 52  1  0
 40 53  2  0
 40 58  1  0
 41112  1  0
 41113  1  0
 41114  1  0
 42 43  1  0
 42 66  1  0
 42115  1  0
 42116  1  0
 43 44  1  0
 44117  1  0
 45 46  2  0
 45118  1  0
 46119  1  0
 47120  1  0
 47121  1  0
 48 41  1  0
 48 56  1  0
 48 65  1  0
 48122  1  1
 49 50  1  0
 49 53  1  0
 49 64  1  0
 49123  1  1
 50 51  1  0
 50124  1  0
 50125  1  0
 51 52  1  0
 51126  1  0
 51127  1  0
 52128  1  0
 52129  1  0
 53 54  1  0
 54 55  2  0
 54130  1  0
 55 57  1  0
 55131  1  0
 56 69  2  0
 57 58  2  0
 57132  1  0
 58133  1  0
 59 60  1  0
 59 61  1  0
 59 62  1  0
 60134  1  0
 60135  1  0
 60136  1  0
 61137  1  0
 61138  1  0
 61139  1  0
 62140  1  0
 62141  1  0
 62142  1  0
 63 65  1  0
 63143  1  0
 63144  1  0
 63145  1  0
 64146  1  0
 65147  1  0
 68 82  1  0
 71 74  2  0
 71 75  1  0
 71148  1  0
 72 74  1  0
 72 76  2  0
 72149  1  0
 73 75  2  0
 73 76  1  0
 73 77  1  0
 74 83  1  0
 75 84  1  0
 76 88  1  0
 77 80  1  0
 77 85  2  0
 78 79  1  0
 78 81  1  0
 78 86  2  0
 79 82  1  0
 79 87  2  0
 80150  1  0
 80151  1  0
 80152  1  0
 81 84  1  0
 81153  1  0
 81154  1  0
 82155  1  0
 82156  1  0
 83157  1  0
 84158  1  0
M  ISO  4   1 100  68 101  82 101  83 100
M  END
$$$$
40
     RDKit          3D

155163  0  0  0  0  0  0  0  0999 V2000
  -30.7652  -14.3608   20.6636 C   0  0  0  0  0  0  0  0  0100  0  0
  -30.4392  -12.2669   19.3775 C   0  0  0  0  0  0  0  0  0101  0  0
  -29.4791  -12.5281   18.1977 C   0  0  0  0  0  0  0  0  0102  0  0
  -27.9985  -12.3963   18.6038 C   0  0  0  0  0  0  0  0  0103  0  0
  -27.6639  -13.2170   19.8820 C   0  0  2  0  0  0  0  0  0104  0  0
  -28.6795  -12.9602   21.0279 C   0  0  0  0  0  0  0  0  0105  0  0
  -25.2633  -13.8245   20.5754 C   0  0  0  0  0  0  0  0  0106  0  0
  -24.1645  -13.0409   20.9408 C   0  0  0  0  0  0  0  0  0107  0  0
  -24.6400  -11.7009   20.8697 C   0  0  0  0  0  0  0  0  0108  0  0
  -23.9005  -10.4085   21.0420 C   0  0  0  0  0  0  0  0  0109  0  0
  -24.3588   -9.4123   21.9123 C   0  0  0  0  0  0  0  0  0110  0  0
  -23.6296   -8.2350   22.0803 C   0  0  0  0  0  0  0  0  0111  0  0
  -22.4385   -8.0419   21.3657 C   0  0  0  0  0  0  0  0  0112  0  0
  -22.0103   -9.0167   20.4678 C   0  0  0  0  0  0  0  0  0113  0  0
  -22.7317  -10.1925   20.3102 C   0  0  0  0  0  0  0  0  0114  0  0
  -21.6857   -6.0709   22.5391 C   0  0  0  0  0  0  0  0  0115  0  0
  -21.4064   -6.5490   23.8264 C   0  0  0  0  0  0  0  0  0116  0  0
  -21.3635   -5.6677   24.9085 C   0  0  0  0  0  0  0  0  0117  0  0
  -21.5973   -4.3067   24.7088 C   0  0  0  0  0  0  0  0  0118  0  0
  -21.8700   -3.8284   23.4282 C   0  0  0  0  0  0  0  0  0119  0  0
  -21.9144   -4.7056   22.3460 C   0  0  0  0  0  0  0  0  0120  0  0
  -22.8194  -13.5263   21.1763 C   0  0  0  0  0  0  0  0  0121  0  0
  -22.1559   -4.2206   21.1063 F   0  0  0  0  0  0  0  0  0122  0  0
  -21.5628   -3.4510   25.7555 F   0  0  0  0  0  0  0  0  0123  0  0
  -30.0261  -13.1803   20.4553 N   0  0  0  0  0  0  0  0  0124  0  0
  -26.2911  -12.9356   20.3443 N   0  0  0  0  0  0  0  0  0125  0  0
  -25.9236  -11.6675   20.5847 N   0  0  0  0  0  0  0  0  0126  0  0
  -22.0708  -12.7905   22.0005 N   0  0  0  0  0  0  0  0  0127  0  0
  -25.4117  -15.1773   20.4097 N   0  0  0  0  0  0  0  0  0128  0  0
  -31.7916  -14.6724   20.0536 O   0  0  0  0  0  0  0  0  0129  0  0
  -21.6670   -6.9022   21.4423 O   0  0  0  0  0  0  0  0  0130  0  0
  -22.3946  -14.5564   20.6568 O   0  0  0  0  0  0  0  0  0131  0  0
  -24.6048  -31.8614   23.2223 C   0  0  0  0  0  0  0  0  0100  0  0
  -25.8822  -32.4841   23.8616 C   0  0  1  0  0  0  0  0  0101  0  0
  -27.2536  -27.5042   20.1156 C   0  0  0  0  0  0  0  0  0102  0  0
  -25.5726  -33.8762   24.2210 N   0  0  0  0  0  0  0  0  0103  0  0
  -23.4066  -30.4859   21.5461 C   0  0  2  0  0  0  0  0  0104  0  0
  -24.8467  -28.9636   20.1247 C   0  0  0  0  0  0  0  0  0105  0  0
  -22.7412  -29.4652   22.5052 C   0  0  0  0  0  0  0  0  0106  0  0
  -18.0167  -28.1302   22.8626 C   0  0  0  0  0  0  0  0  0107  0  0
  -24.1342  -36.7390   23.2568 C   0  0  0  0  0  0  0  0  0108  0  0
  -25.9141  -30.8882   21.3456 C   0  0  0  0  0  0  0  0  0109  0  0
  -25.9930  -29.5029   20.7208 C   0  0  0  0  0  0  0  0  0110  0  0
  -27.1758  -28.7612   20.7331 C   0  0  0  0  0  0  0  0  0111  0  0
  -26.1032  -26.9836   19.5230 C   0  0  0  0  0  0  0  0  0112  0  0
  -24.9097  -27.7011   19.5331 C   0  0  0  0  0  0  0  0  0113  0  0
  -23.5715  -29.7899   20.1582 C   0  0  0  0  0  0  0  0  0114  0  0
  -25.3990  -36.3212   24.0232 C   0  0  1  0  0  0  0  0  0115  0  0
  -20.5793  -28.3813   23.1004 C   0  0  2  0  0  0  0  0  0116  0  0
  -20.6548  -26.9392   22.5411 C   0  0  0  0  0  0  0  0  0117  0  0
  -19.5615  -26.6407   21.5143 C   0  0  0  0  0  0  0  0  0118  0  0
  -18.1797  -26.7818   22.1673 C   0  0  0  0  0  0  0  0  0119  0  0
  -19.1385  -28.8769   23.2988 C   0  0  0  0  0  0  0  0  0120  0  0
  -18.9183  -30.1286   23.8878 C   0  0  0  0  0  0  0  0  0121  0  0
  -17.6396  -30.6493   24.0352 C   0  0  0  0  0  0  0  0  0122  0  0
  -25.9153  -34.9582   23.4993 C   0  0  0  0  0  0  0  0  0123  0  0
  -16.5415  -29.9068   23.6254 C   0  0  0  0  0  0  0  0  0124  0  0
  -16.7331  -28.6521   23.0586 C   0  0  0  0  0  0  0  0  0125  0  0
  -26.4583  -31.6439   25.0683 C   0  0  0  0  0  0  0  0  0126  0  0
  -25.3807  -31.3179   26.1374 C   0  0  0  0  0  0  0  0  0127  0  0
  -27.0530  -30.3024   24.5680 C   0  0  0  0  0  0  0  0  0128  0  0
  -27.6014  -32.4281   25.7651 C   0  0  0  0  0  0  0  0  0129  0  0
  -27.5629  -37.2220   24.8621 C   0  0  0  0  0  0  0  0  0130  0  0
  -21.4133  -29.3375   22.3735 N   0  0  0  0  0  0  0  0  0131  0  0
  -26.4706  -37.3372   23.9061 N   0  0  0  0  0  0  0  0  0132  0  0
  -24.6674  -31.0544   22.1178 N   0  0  0  0  0  0  0  0  0133  0  0
  -23.4259  -28.8150   23.2971 O   0  0  0  0  0  0  0  0  0134  0  0
  -28.3948  -26.7345   20.0089 O   0  0  0  0  0  0  0  0  0135  0  0
  -26.5870  -34.9065   22.4671 O   0  0  0  0  0  0  0  0  0136  0  0
  -23.5365  -32.1254   23.7833 O   0  0  0  0  0  0  0  0  0137  0  0
  -29.4861  -22.9300   21.6305 C   0  0  0  0  0  0  0  0  0  0  0  0
  -28.6654  -24.0662   19.7090 C   0  0  0  0  0  0  0  0  0  0  0  0
  -29.0343  -24.1069   21.0439 C   0  0  0  0  0  0  0  0  0  0  0  0
  -29.5541  -21.7648   20.8749 C   0  0  0  0  0  0  0  0  0  0  0  0
  -29.1616  -21.8289   19.5476 C   0  0  0  0  0  0  0  0  0  0  0  0
  -29.0758  -26.9032   23.5619 C   0  0  0  0  0  0  0  0  0  0  0  0
  -29.2931  -25.4877   23.1101 C   0  0  0  0  0  0  0  0  0  0  0  0
  -30.8887  -30.2880   23.3378 C   0  0  0  0  0  0  0  0  0  0  0  0
  -30.2328  -27.8582   23.3602 C   0  0  0  0  0  0  0  0  0  0  0  0
  -29.7624  -29.2900   23.1043 C   0  0  2  0  0  0  0  0  0  1  0  0
  -28.7176  -22.9535   18.9430 N   0  0  0  0  0  0  0  0  0  0  0  0
  -28.9540  -25.3080   21.7864 N   0  0  0  0  0  0  0  0  0  0  0  0
  -30.0105  -20.5528   21.4498 N   0  0  0  0  0  0  0  0  0  0  0  0
  -27.9880  -27.1748   24.0470 O   0  0  0  0  0  0  0  0  0  0  0  0
  -29.7492  -24.7148   23.9363 O   0  0  0  0  0  0  0  0  0  0  0  0
  -29.2177  -20.7163   18.7972 F   0  0  0  0  0  0  0  0  0  0  0  0
  -31.4485  -12.4701   19.0860 H   0  0  0  0  0  0  0  0  0  0  0  0
  -30.3970  -11.2460   19.6950 H   0  0  0  0  0  0  0  0  0  0  0  0
  -29.6870  -11.8204   17.4226 H   0  0  0  0  0  0  0  0  0  0  0  0
  -29.6375  -13.5326   17.8649 H   0  0  0  0  0  0  0  0  0  0  0  0
  -27.7830  -11.3650   18.7904 H   0  0  0  0  0  0  0  0  0  0  0  0
  -27.4028  -12.7801   17.8021 H   0  0  0  0  0  0  0  0  0  0  0  0
  -27.7353  -14.2503   19.6136 H   0  0  0  0  0  0  0  0  0  0  0  0
  -28.5890  -11.9550   21.3832 H   0  0  0  0  0  0  0  0  0  0  0  0
  -28.5005  -13.6134   21.8562 H   0  0  0  0  0  0  0  0  0  0  0  0
  -25.2399   -9.5495   22.4318 H   0  0  0  0  0  0  0  0  0  0  0  0
  -23.9663   -7.5070   22.7297 H   0  0  0  0  0  0  0  0  0  0  0  0
  -21.1515   -8.8641   19.9162 H   0  0  0  0  0  0  0  0  0  0  0  0
  -22.4016  -10.9115   19.6476 H   0  0  0  0  0  0  0  0  0  0  0  0
  -21.2319   -7.5552   23.9750 H   0  0  0  0  0  0  0  0  0  0  0  0
  -21.1589   -6.0228   25.8556 H   0  0  0  0  0  0  0  0  0  0  0  0
  -22.0396   -2.8212   23.2809 H   0  0  0  0  0  0  0  0  0  0  0  0
  -22.4401  -11.9703   22.4008 H   0  0  0  0  0  0  0  0  0  0  0  0
  -21.1493  -13.0679   22.2082 H   0  0  0  0  0  0  0  0  0  0  0  0
  -24.6538  -15.7807   20.5848 H   0  0  0  0  0  0  0  0  0  0  0  0
  -26.2762  -15.5453   20.1156 H   0  0  0  0  0  0  0  0  0  0  0  0
  -26.6778  -32.4663   23.1464 H   0  0  0  0  0  0  0  0  0  0  0  0
  -25.0747  -34.0282   25.0566 H   0  0  0  0  0  0  0  0  0  0  0  0
  -22.7881  -31.3489   21.4131 H   0  0  0  0  0  0  0  0  0  0  0  0
  -23.3854  -35.9823   23.3648 H   0  0  0  0  0  0  0  0  0  0  0  0
  -24.3696  -36.8624   22.2204 H   0  0  0  0  0  0  0  0  0  0  0  0
  -23.7669  -37.6632   23.6516 H   0  0  0  0  0  0  0  0  0  0  0  0
  -25.9445  -31.6237   20.5691 H   0  0  0  0  0  0  0  0  0  0  0  0
  -26.7436  -31.0079   22.0108 H   0  0  0  0  0  0  0  0  0  0  0  0
  -28.0090  -29.1452   21.2057 H   0  0  0  0  0  0  0  0  0  0  0  0
  -26.1369  -26.0560   19.0719 H   0  0  0  0  0  0  0  0  0  0  0  0
  -24.0652  -27.2961   19.0997 H   0  0  0  0  0  0  0  0  0  0  0  0
  -23.6156  -30.5365   19.3930 H   0  0  0  0  0  0  0  0  0  0  0  0
  -22.7355  -29.1425   19.9945 H   0  0  0  0  0  0  0  0  0  0  0  0
  -25.1353  -36.2335   25.0565 H   0  0  0  0  0  0  0  0  0  0  0  0
  -21.0070  -28.3206   24.0793 H   0  0  0  0  0  0  0  0  0  0  0  0
  -20.5555  -26.2518   23.3550 H   0  0  0  0  0  0  0  0  0  0  0  0
  -21.5974  -26.8362   22.0454 H   0  0  0  0  0  0  0  0  0  0  0  0
  -19.6810  -25.6422   21.1488 H   0  0  0  0  0  0  0  0  0  0  0  0
  -19.6406  -27.3343   20.7034 H   0  0  0  0  0  0  0  0  0  0  0  0
  -17.4282  -26.6888   21.4113 H   0  0  0  0  0  0  0  0  0  0  0  0
  -18.0803  -26.0130   22.9049 H   0  0  0  0  0  0  0  0  0  0  0  0
  -19.7265  -30.6774   24.2204 H   0  0  0  0  0  0  0  0  0  0  0  0
  -17.5064  -31.5856   24.4483 H   0  0  0  0  0  0  0  0  0  0  0  0
  -15.5878  -30.2839   23.7407 H   0  0  0  0  0  0  0  0  0  0  0  0
  -15.9120  -28.0941   22.7766 H   0  0  0  0  0  0  0  0  0  0  0  0
  -24.5787  -30.7757   25.6817 H   0  0  0  0  0  0  0  0  0  0  0  0
  -25.0041  -32.2289   26.5536 H   0  0  0  0  0  0  0  0  0  0  0  0
  -25.8166  -30.7245   26.9138 H   0  0  0  0  0  0  0  0  0  0  0  0
  -26.2892  -29.7335   24.0803 H   0  0  0  0  0  0  0  0  0  0  0  0
  -27.4336  -29.7484   25.4006 H   0  0  0  0  0  0  0  0  0  0  0  0
  -27.8466  -30.4994   23.8779 H   0  0  0  0  0  0  0  0  0  0  0  0
  -27.2251  -33.3632   26.1242 H   0  0  0  0  0  0  0  0  0  0  0  0
  -28.3902  -32.6065   25.0645 H   0  0  0  0  0  0  0  0  0  0  0  0
  -27.9772  -31.8555   26.5872 H   0  0  0  0  0  0  0  0  0  0  0  0
  -28.2744  -38.0016   24.6863 H   0  0  0  0  0  0  0  0  0  0  0  0
  -28.0396  -36.2711   24.7461 H   0  0  0  0  0  0  0  0  0  0  0  0
  -27.1773  -37.3087   25.8564 H   0  0  0  0  0  0  0  0  0  0  0  0
  -20.9627  -29.9365   21.7352 H   0  0  0  0  0  0  0  0  0  0  0  0
  -26.0447  -38.2561   24.0273 H   0  0  0  0  0  0  0  0  0  0  0  0
  -29.7698  -22.9214   22.6227 H   0  0  0  0  0  0  0  0  0  0  0  0
  -28.3301  -24.9392   19.2725 H   0  0  0  0  0  0  0  0  0  0  0  0
  -30.8063  -30.6945   24.3242 H   0  0  0  0  0  0  0  0  0  0  0  0
  -30.8198  -31.0781   22.6195 H   0  0  0  0  0  0  0  0  0  0  0  0
  -31.8314  -29.7927   23.2338 H   0  0  0  0  0  0  0  0  0  0  0  0
  -30.8085  -27.5294   22.5203 H   0  0  0  0  0  0  0  0  0  0  0  0
  -30.8172  -27.8599   24.2565 H   0  0  0  0  0  0  0  0  0  0  0  0
  -29.1236  -30.0690   23.4649 H   0  0  0  0  0  0  0  0  0  0  0  0
  -28.6203  -26.1002   21.3065 H   0  0  0  0  0  0  0  0  0  0  0  0
  -30.3520  -20.7717   22.3469 H   0  0  0  0  0  0  0  0  0  0  0  0
  1 25  1  0
  1 30  2  0
  1 83  1  0
  2  3  1  0
  2 25  1  0
  2 87  1  0
  2 88  1  0
  3  4  1  0
  3 89  1  0
  3 90  1  0
  4  5  1  0
  4 91  1  0
  4 92  1  0
  5  6  1  0
  5 26  1  0
  5 93  1  6
  6 25  1  0
  6 94  1  0
  6 95  1  0
  7  8  2  0
  7 26  1  0
  7 29  1  0
  8  9  1  0
  8 22  1  0
  9 10  1  0
  9 27  2  0
 10 11  2  0
 10 15  1  0
 11 12  1  0
 11 96  1  0
 12 13  2  0
 12 97  1  0
 13 14  1  0
 13 31  1  0
 14 15  2  0
 14 98  1  0
 15 99  1  0
 16 17  2  0
 16 21  1  0
 16 31  1  0
 17 18  1  0
 17100  1  0
 18 19  2  0
 18101  1  0
 19 20  1  0
 19 24  1  0
 20 21  2  0
 20102  1  0
 21 23  1  0
 22 28  1  0
 22 32  2  0
 26 27  1  0
 28103  1  0
 28104  1  0
 29105  1  0
 29106  1  0
 33 34  1  0
 33 66  1  0
 33 70  2  0
 34 36  1  0
 34 59  1  0
 34107  1  6
 35 44  2  0
 35 45  1  0
 35 68  1  0
 36 56  1  0
 36108  1  0
 37 39  1  0
 37 47  1  0
 37 66  1  0
 37109  1  6
 38 43  2  0
 38 46  1  0
 38 47  1  0
 39 64  1  0
 39 67  2  0
 40 52  1  0
 40 53  2  0
 40 58  1  0
 41110  1  0
 41111  1  0
 41112  1  0
 42 43  1  0
 42 66  1  0
 42113  1  0
 42114  1  0
 43 44  1  0
 44115  1  0
 45 46  2  0
 45116  1  0
 46117  1  0
 47118  1  0
 47119  1  0
 48 41  1  0
 48 56  1  0
 48 65  1  0
 48120  1  1
 49 50  1  0
 49 53  1  0
 49 64  1  0
 49121  1  1
 50 51  1  0
 50122  1  0
 50123  1  0
 51 52  1  0
 51124  1  0
 51125  1  0
 52126  1  0
 52127  1  0
 53 54  1  0
 54 55  2  0
 54128  1  0
 55 57  1  0
 55129  1  0
 56 69  2  0
 57 58  2  0
 57130  1  0
 58131  1  0
 59 60  1  0
 59 61  1  0
 59 62  1  0
 60132  1  0
 60133  1  0
 60134  1  0
 61135  1  0
 61136  1  0
 61137  1  0
 62138  1  0
 62139  1  0
 62140  1  0
 63 65  1  0
 63141  1  0
 63142  1  0
 63143  1  0
 64144  1  0
 65145  1  0
 68 80  1  0
 71 73  2  0
 71 74  1  0
 71146  1  0
 72 73  1  0
 72 81  2  0
 72147  1  0
 73 82  1  0
 74 75  2  0
 74 83  1  0
 75 81  1  0
 75 86  1  0
 76 77  1  0
 76 79  1  0
 76 84  2  0
 77 82  1  0
 77 85  2  0
 78148  1  0
 78149  1  0
 78150  1  0
 79 80  1  0
 79151  1  0
 79152  1  0
 80 78  1  0
 80153  1  1
 82154  1  0
 83155  1  0
M  ISO  4   1 100  68 101  80 101  83 100
M  END
$$$$
41
     RDKit          3D

157165  0  0  0  0  0  0  0  0999 V2000
  -30.7652  -14.3608   20.6636 C   0  0  0  0  0  0  0  0  0100  0  0
  -30.4392  -12.2669   19.3775 C   0  0  0  0  0  0  0  0  0101  0  0
  -29.4791  -12.5281   18.1977 C   0  0  0  0  0  0  0  0  0102  0  0
  -27.9985  -12.3963   18.6038 C   0  0  0  0  0  0  0  0  0103  0  0
  -27.6639  -13.2170   19.8820 C   0  0  2  0  0  0  0  0  0104  0  0
  -28.6795  -12.9602   21.0279 C   0  0  0  0  0  0  0  0  0105  0  0
  -25.2633  -13.8245   20.5754 C   0  0  0  0  0  0  0  0  0106  0  0
  -24.1645  -13.0409   20.9408 C   0  0  0  0  0  0  0  0  0107  0  0
  -24.6400  -11.7009   20.8697 C   0  0  0  0  0  0  0  0  0108  0  0
  -23.9005  -10.4085   21.0420 C   0  0  0  0  0  0  0  0  0109  0  0
  -24.3588   -9.4123   21.9123 C   0  0  0  0  0  0  0  0  0110  0  0
  -23.6296   -8.2350   22.0803 C   0  0  0  0  0  0  0  0  0111  0  0
  -22.4385   -8.0419   21.3657 C   0  0  0  0  0  0  0  0  0112  0  0
  -22.0103   -9.0167   20.4678 C   0  0  0  0  0  0  0  0  0113  0  0
  -22.7317  -10.1925   20.3102 C   0  0  0  0  0  0  0  0  0114  0  0
  -21.6857   -6.0709   22.5391 C   0  0  0  0  0  0  0  0  0115  0  0
  -21.4064   -6.5490   23.8264 C   0  0  0  0  0  0  0  0  0116  0  0
  -21.3635   -5.6677   24.9085 C   0  0  0  0  0  0  0  0  0117  0  0
  -21.5973   -4.3067   24.7088 C   0  0  0  0  0  0  0  0  0118  0  0
  -21.8700   -3.8284   23.4282 C   0  0  0  0  0  0  0  0  0119  0  0
  -21.9144   -4.7056   22.3460 C   0  0  0  0  0  0  0  0  0120  0  0
  -22.8194  -13.5263   21.1763 C   0  0  0  0  0  0  0  0  0121  0  0
  -22.1559   -4.2206   21.1063 F   0  0  0  0  0  0  0  0  0122  0  0
  -21.5628   -3.4510   25.7555 F   0  0  0  0  0  0  0  0  0123  0  0
  -30.0261  -13.1803   20.4553 N   0  0  0  0  0  0  0  0  0124  0  0
  -26.2911  -12.9356   20.3443 N   0  0  0  0  0  0  0  0  0125  0  0
  -25.9236  -11.6675   20.5847 N   0  0  0  0  0  0  0  0  0126  0  0
  -22.0708  -12.7905   22.0005 N   0  0  0  0  0  0  0  0  0127  0  0
  -25.4117  -15.1773   20.4097 N   0  0  0  0  0  0  0  0  0128  0  0
  -31.7916  -14.6724   20.0536 O   0  0  0  0  0  0  0  0  0129  0  0
  -21.6670   -6.9022   21.4423 O   0  0  0  0  0  0  0  0  0130  0  0
  -22.3946  -14.5564   20.6568 O   0  0  0  0  0  0  0  0  0131  0  0
  -24.6048  -31.8614   23.2223 C   0  0  0  0  0  0  0  0  0100  0  0
  -25.8822  -32.4841   23.8616 C   0  0  1  0  0  0  0  0  0101  0  0
  -27.2536  -27.5042   20.1156 C   0  0  0  0  0  0  0  0  0102  0  0
  -25.5726  -33.8762   24.2210 N   0  0  0  0  0  0  0  0  0103  0  0
  -23.4066  -30.4859   21.5461 C   0  0  2  0  0  0  0  0  0104  0  0
  -24.8467  -28.9636   20.1247 C   0  0  0  0  0  0  0  0  0105  0  0
  -22.7412  -29.4652   22.5052 C   0  0  0  0  0  0  0  0  0106  0  0
  -18.0167  -28.1302   22.8626 C   0  0  0  0  0  0  0  0  0107  0  0
  -24.1342  -36.7390   23.2568 C   0  0  0  0  0  0  0  0  0108  0  0
  -25.9141  -30.8882   21.3456 C   0  0  0  0  0  0  0  0  0109  0  0
  -25.9930  -29.5029   20.7208 C   0  0  0  0  0  0  0  0  0110  0  0
  -27.1758  -28.7612   20.7331 C   0  0  0  0  0  0  0  0  0111  0  0
  -26.1032  -26.9836   19.5230 C   0  0  0  0  0  0  0  0  0112  0  0
  -24.9097  -27.7011   19.5331 C   0  0  0  0  0  0  0  0  0113  0  0
  -23.5715  -29.7899   20.1582 C   0  0  0  0  0  0  0  0  0114  0  0
  -25.3990  -36.3212   24.0232 C   0  0  1  0  0  0  0  0  0115  0  0
  -20.5793  -28.3813   23.1004 C   0  0  2  0  0  0  0  0  0116  0  0
  -20.6548  -26.9392   22.5411 C   0  0  0  0  0  0  0  0  0117  0  0
  -19.5615  -26.6407   21.5143 C   0  0  0  0  0  0  0  0  0118  0  0
  -18.1797  -26.7818   22.1673 C   0  0  0  0  0  0  0  0  0119  0  0
  -19.1385  -28.8769   23.2988 C   0  0  0  0  0  0  0  0  0120  0  0
  -18.9183  -30.1286   23.8878 C   0  0  0  0  0  0  0  0  0121  0  0
  -17.6396  -30.6493   24.0352 C   0  0  0  0  0  0  0  0  0122  0  0
  -25.9153  -34.9582   23.4993 C   0  0  0  0  0  0  0  0  0123  0  0
  -16.5415  -29.9068   23.6254 C   0  0  0  0  0  0  0  0  0124  0  0
  -16.7331  -28.6521   23.0586 C   0  0  0  0  0  0  0  0  0125  0  0
  -26.4583  -31.6439   25.0683 C   0  0  0  0  0  0  0  0  0126  0  0
  -25.3807  -31.3179   26.1374 C   0  0  0  0  0  0  0  0  0127  0  0
  -27.0530  -30.3024   24.5680 C   0  0  0  0  0  0  0  0  0128  0  0
  -27.6014  -32.4281   25.7651 C   0  0  0  0  0  0  0  0  0129  0  0
  -27.5629  -37.2220   24.8621 C   0  0  0  0  0  0  0  0  0130  0  0
  -21.4133  -29.3375   22.3735 N   0  0  0  0  0  0  0  0  0131  0  0
  -26.4706  -37.3372   23.9061 N   0  0  0  0  0  0  0  0  0132  0  0
  -24.6674  -31.0544   22.1178 N   0  0  0  0  0  0  0  0  0133  0  0
  -23.4259  -28.8150   23.2971 O   0  0  0  0  0  0  0  0  0134  0  0
  -28.3948  -26.7345   20.0089 O   0  0  0  0  0  0  0  0  0135  0  0
  -26.5870  -34.9065   22.4671 O   0  0  0  0  0  0  0  0  0136  0  0
  -23.5365  -32.1254   23.7833 O   0  0  0  0  0  0  0  0  0137  0  0
  -27.2741  -16.6617   19.1380 C   0  0  0  0  0  0  0  0  0  0  0  0
  -29.2127  -16.9603   20.4832 C   0  0  0  0  0  0  0  0  0  0  0  0
  -26.8692  -17.9444   19.4905 C   0  0  0  0  0  0  0  0  0  0  0  0
  -28.4669  -16.1529   19.6395 C   0  0  0  0  0  0  0  0  0  0  0  0
  -27.6864  -18.6715   20.3410 C   0  0  0  0  0  0  0  0  0  0  0  0
  -25.6178  -18.4687   18.9605 C   0  0  0  0  0  0  0  0  0  0  0  0
  -27.6797  -23.2350   20.6573 C   0  0  0  0  0  0  0  0  0  0  0  0
  -27.9605  -20.8674   21.5351 C   0  0  0  0  0  0  0  0  0  0  0  0
  -25.1785  -17.9778   17.6128 C   0  0  0  0  0  0  0  0  0  0  0  0
  -27.2340  -22.1926   21.6618 C   0  0  0  0  0  0  0  0  0  0  0  0
  -27.0478  -24.6048   20.8019 C   0  0  0  0  0  0  0  0  0  1  0  0
  -28.8519  -18.2109   20.8481 N   0  0  0  0  0  0  0  0  0  0  0  0
  -28.9064  -14.8497   19.2982 N   0  0  0  0  0  0  0  0  0  0  0  0
  -27.2863  -19.9788   20.7080 N   0  0  0  0  0  0  0  0  0  0  0  0
  -24.8980  -19.2869   19.5341 O   0  0  0  0  0  0  0  0  0  0  0  0
  -28.4980  -22.9858   19.7733 O   0  0  0  0  0  0  0  0  0  0  0  0
  -29.0327  -20.6928   22.1082 O   0  0  0  0  0  0  0  0  0  0  0  0
  -31.4485  -12.4701   19.0860 H   0  0  0  0  0  0  0  0  0  0  0  0
  -30.3970  -11.2460   19.6950 H   0  0  0  0  0  0  0  0  0  0  0  0
  -29.6870  -11.8204   17.4226 H   0  0  0  0  0  0  0  0  0  0  0  0
  -29.6375  -13.5326   17.8649 H   0  0  0  0  0  0  0  0  0  0  0  0
  -27.7830  -11.3650   18.7904 H   0  0  0  0  0  0  0  0  0  0  0  0
  -27.4028  -12.7801   17.8021 H   0  0  0  0  0  0  0  0  0  0  0  0
  -27.7353  -14.2503   19.6136 H   0  0  0  0  0  0  0  0  0  0  0  0
  -28.5890  -11.9550   21.3832 H   0  0  0  0  0  0  0  0  0  0  0  0
  -28.5005  -13.6134   21.8562 H   0  0  0  0  0  0  0  0  0  0  0  0
  -25.2399   -9.5495   22.4318 H   0  0  0  0  0  0  0  0  0  0  0  0
  -23.9663   -7.5070   22.7297 H   0  0  0  0  0  0  0  0  0  0  0  0
  -21.1515   -8.8641   19.9162 H   0  0  0  0  0  0  0  0  0  0  0  0
  -22.4016  -10.9115   19.6476 H   0  0  0  0  0  0  0  0  0  0  0  0
  -21.2319   -7.5552   23.9750 H   0  0  0  0  0  0  0  0  0  0  0  0
  -21.1589   -6.0228   25.8556 H   0  0  0  0  0  0  0  0  0  0  0  0
  -22.0396   -2.8212   23.2809 H   0  0  0  0  0  0  0  0  0  0  0  0
  -22.4401  -11.9703   22.4008 H   0  0  0  0  0  0  0  0  0  0  0  0
  -21.1493  -13.0679   22.2082 H   0  0  0  0  0  0  0  0  0  0  0  0
  -24.6538  -15.7807   20.5848 H   0  0  0  0  0  0  0  0  0  0  0  0
  -26.2762  -15.5453   20.1156 H   0  0  0  0  0  0  0  0  0  0  0  0
  -26.6778  -32.4663   23.1464 H   0  0  0  0  0  0  0  0  0  0  0  0
  -25.0747  -34.0282   25.0566 H   0  0  0  0  0  0  0  0  0  0  0  0
  -22.7881  -31.3489   21.4131 H   0  0  0  0  0  0  0  0  0  0  0  0
  -23.3854  -35.9823   23.3648 H   0  0  0  0  0  0  0  0  0  0  0  0
  -24.3696  -36.8624   22.2204 H   0  0  0  0  0  0  0  0  0  0  0  0
  -23.7669  -37.6632   23.6516 H   0  0  0  0  0  0  0  0  0  0  0  0
  -25.9445  -31.6237   20.5691 H   0  0  0  0  0  0  0  0  0  0  0  0
  -26.7436  -31.0079   22.0108 H   0  0  0  0  0  0  0  0  0  0  0  0
  -28.0090  -29.1452   21.2057 H   0  0  0  0  0  0  0  0  0  0  0  0
  -26.1369  -26.0560   19.0719 H   0  0  0  0  0  0  0  0  0  0  0  0
  -24.0652  -27.2961   19.0997 H   0  0  0  0  0  0  0  0  0  0  0  0
  -23.6156  -30.5365   19.3930 H   0  0  0  0  0  0  0  0  0  0  0  0
  -22.7355  -29.1425   19.9945 H   0  0  0  0  0  0  0  0  0  0  0  0
  -25.1353  -36.2335   25.0565 H   0  0  0  0  0  0  0  0  0  0  0  0
  -21.0070  -28.3206   24.0793 H   0  0  0  0  0  0  0  0  0  0  0  0
  -20.5555  -26.2518   23.3550 H   0  0  0  0  0  0  0  0  0  0  0  0
  -21.5974  -26.8362   22.0454 H   0  0  0  0  0  0  0  0  0  0  0  0
  -19.6810  -25.6422   21.1488 H   0  0  0  0  0  0  0  0  0  0  0  0
  -19.6406  -27.3343   20.7034 H   0  0  0  0  0  0  0  0  0  0  0  0
  -17.4282  -26.6888   21.4113 H   0  0  0  0  0  0  0  0  0  0  0  0
  -18.0803  -26.0130   22.9049 H   0  0  0  0  0  0  0  0  0  0  0  0
  -19.7265  -30.6774   24.2204 H   0  0  0  0  0  0  0  0  0  0  0  0
  -17.5064  -31.5856   24.4483 H   0  0  0  0  0  0  0  0  0  0  0  0
  -15.5878  -30.2839   23.7407 H   0  0  0  0  0  0  0  0  0  0  0  0
  -15.9120  -28.0941   22.7766 H   0  0  0  0  0  0  0  0  0  0  0  0
  -24.5787  -30.7757   25.6817 H   0  0  0  0  0  0  0  0  0  0  0  0
  -25.0041  -32.2289   26.5536 H   0  0  0  0  0  0  0  0  0  0  0  0
  -25.8166  -30.7245   26.9138 H   0  0  0  0  0  0  0  0  0  0  0  0
  -26.2892  -29.7335   24.0803 H   0  0  0  0  0  0  0  0  0  0  0  0
  -27.4336  -29.7484   25.4006 H   0  0  0  0  0  0  0  0  0  0  0  0
  -27.8466  -30.4994   23.8779 H   0  0  0  0  0  0  0  0  0  0  0  0
  -27.2251  -33.3632   26.1242 H   0  0  0  0  0  0  0  0  0  0  0  0
  -28.3902  -32.6065   25.0645 H   0  0  0  0  0  0  0  0  0  0  0  0
  -27.9772  -31.8555   26.5872 H   0  0  0  0  0  0  0  0  0  0  0  0
  -28.2744  -38.0016   24.6863 H   0  0  0  0  0  0  0  0  0  0  0  0
  -28.0396  -36.2711   24.7461 H   0  0  0  0  0  0  0  0  0  0  0  0
  -27.1773  -37.3087   25.8564 H   0  0  0  0  0  0  0  0  0  0  0  0
  -20.9627  -29.9365   21.7352 H   0  0  0  0  0  0  0  0  0  0  0  0
  -26.0447  -38.2561   24.0273 H   0  0  0  0  0  0  0  0  0  0  0  0
  -26.6916  -16.0897   18.5067 H   0  0  0  0  0  0  0  0  0  0  0  0
  -30.0982  -16.5837   20.8560 H   0  0  0  0  0  0  0  0  0  0  0  0
  -25.8950  -17.2774   17.2374 H   0  0  0  0  0  0  0  0  0  0  0  0
  -25.1021  -18.8056   16.9392 H   0  0  0  0  0  0  0  0  0  0  0  0
  -24.2250  -17.5002   17.7006 H   0  0  0  0  0  0  0  0  0  0  0  0
  -26.1874  -22.0176   21.5240 H   0  0  0  0  0  0  0  0  0  0  0  0
  -27.4612  -22.5799   22.6330 H   0  0  0  0  0  0  0  0  0  0  0  0
  -26.8307  -24.7410   21.8408 H   0  0  0  0  0  0  0  0  0  0  0  0
  -26.2105  -24.5706   20.1366 H   0  0  0  0  0  0  0  0  0  0  0  0
  -28.5097  -14.2588   18.6180 H   0  0  0  0  0  0  0  0  0  0  0  0
  -26.4320  -20.2942   20.3339 H   0  0  0  0  0  0  0  0  0  0  0  0
  1 25  1  0
  1 30  2  0
  1 83  1  0
  2  3  1  0
  2 25  1  0
  2 88  1  0
  2 89  1  0
  3  4  1  0
  3 90  1  0
  3 91  1  0
  4  5  1  0
  4 92  1  0
  4 93  1  0
  5  6  1  0
  5 26  1  0
  5 94  1  6
  6 25  1  0
  6 95  1  0
  6 96  1  0
  7  8  2  0
  7 26  1  0
  7 29  1  0
  8  9  1  0
  8 22  1  0
  9 10  1  0
  9 27  2  0
 10 11  2  0
 10 15  1  0
 11 12  1  0
 11 97  1  0
 12 13  2  0
 12 98  1  0
 13 14  1  0
 13 31  1  0
 14 15  2  0
 14 99  1  0
 15100  1  0
 16 17  2  0
 16 21  1  0
 16 31  1  0
 17 18  1  0
 17101  1  0
 18 19  2  0
 18102  1  0
 19 20  1  0
 19 24  1  0
 20 21  2  0
 20103  1  0
 21 23  1  0
 22 28  1  0
 22 32  2  0
 26 27  1  0
 28104  1  0
 28105  1  0
 29106  1  0
 29107  1  0
 33 34  1  0
 33 66  1  0
 33 70  2  0
 34 36  1  0
 34 59  1  0
 34108  1  6
 35 44  2  0
 35 45  1  0
 35 68  1  0
 36 56  1  0
 36109  1  0
 37 39  1  0
 37 47  1  0
 37 66  1  0
 37110  1  6
 38 43  2  0
 38 46  1  0
 38 47  1  0
 39 64  1  0
 39 67  2  0
 40 52  1  0
 40 53  2  0
 40 58  1  0
 41111  1  0
 41112  1  0
 41113  1  0
 42 43  1  0
 42 66  1  0
 42114  1  0
 42115  1  0
 43 44  1  0
 44116  1  0
 45 46  2  0
 45117  1  0
 46118  1  0
 47119  1  0
 47120  1  0
 48 41  1  0
 48 56  1  0
 48 65  1  0
 48121  1  1
 49 50  1  0
 49 53  1  0
 49 64  1  0
 49122  1  1
 50 51  1  0
 50123  1  0
 50124  1  0
 51 52  1  0
 51125  1  0
 51126  1  0
 52127  1  0
 52128  1  0
 53 54  1  0
 54 55  2  0
 54129  1  0
 55 57  1  0
 55130  1  0
 56 69  2  0
 57 58  2  0
 57131  1  0
 58132  1  0
 59 60  1  0
 59 61  1  0
 59 62  1  0
 60133  1  0
 60134  1  0
 60135  1  0
 61136  1  0
 61137  1  0
 61138  1  0
 62139  1  0
 62140  1  0
 62141  1  0
 63 65  1  0
 63142  1  0
 63143  1  0
 63144  1  0
 64145  1  0
 65146  1  0
 68 81  1  0
 71 73  2  0
 71 74  1  0
 71147  1  0
 72 74  2  0
 72 82  1  0
 72148  1  0
 73 75  1  0
 73 76  1  0
 74 83  1  0
 75 82  2  0
 75 84  1  0
 76 79  1  0
 76 85  2  0
 77 80  1  0
 77 81  1  0
 77 86  2  0
 78 80  1  0
 78 84  1  0
 78 87  2  0
 79149  1  0
 79150  1  0
 79151  1  0
 80152  1  0
 80153  1  0
 81154  1  0
 81155  1  0
 83156  1  0
 84157  1  0
M  ISO  4   1 100  68 101  81 101  83 100
M  END
$$$$
42
     RDKit          3D

155163  0  0  0  0  0  0  0  0999 V2000
  -30.7652  -14.3608   20.6636 C   0  0  0  0  0  0  0  0  0100  0  0
  -30.4392  -12.2669   19.3775 C   0  0  0  0  0  0  0  0  0101  0  0
  -29.4791  -12.5281   18.1977 C   0  0  0  0  0  0  0  0  0102  0  0
  -27.9985  -12.3963   18.6038 C   0  0  0  0  0  0  0  0  0103  0  0
  -27.6639  -13.2170   19.8820 C   0  0  2  0  0  0  0  0  0104  0  0
  -28.6795  -12.9602   21.0279 C   0  0  0  0  0  0  0  0  0105  0  0
  -25.2633  -13.8245   20.5754 C   0  0  0  0  0  0  0  0  0106  0  0
  -24.1645  -13.0409   20.9408 C   0  0  0  0  0  0  0  0  0107  0  0
  -24.6400  -11.7009   20.8697 C   0  0  0  0  0  0  0  0  0108  0  0
  -23.9005  -10.4085   21.0420 C   0  0  0  0  0  0  0  0  0109  0  0
  -24.3588   -9.4123   21.9123 C   0  0  0  0  0  0  0  0  0110  0  0
  -23.6296   -8.2350   22.0803 C   0  0  0  0  0  0  0  0  0111  0  0
  -22.4385   -8.0419   21.3657 C   0  0  0  0  0  0  0  0  0112  0  0
  -22.0103   -9.0167   20.4678 C   0  0  0  0  0  0  0  0  0113  0  0
  -22.7317  -10.1925   20.3102 C   0  0  0  0  0  0  0  0  0114  0  0
  -21.6857   -6.0709   22.5391 C   0  0  0  0  0  0  0  0  0115  0  0
  -21.4064   -6.5490   23.8264 C   0  0  0  0  0  0  0  0  0116  0  0
  -21.3635   -5.6677   24.9085 C   0  0  0  0  0  0  0  0  0117  0  0
  -21.5973   -4.3067   24.7088 C   0  0  0  0  0  0  0  0  0118  0  0
  -21.8700   -3.8284   23.4282 C   0  0  0  0  0  0  0  0  0119  0  0
  -21.9144   -4.7056   22.3460 C   0  0  0  0  0  0  0  0  0120  0  0
  -22.8194  -13.5263   21.1763 C   0  0  0  0  0  0  0  0  0121  0  0
  -22.1559   -4.2206   21.1063 F   0  0  0  0  0  0  0  0  0122  0  0
  -21.5628   -3.4510   25.7555 F   0  0  0  0  0  0  0  0  0123  0  0
  -30.0261  -13.1803   20.4553 N   0  0  0  0  0  0  0  0  0124  0  0
  -26.2911  -12.9356   20.3443 N   0  0  0  0  0  0  0  0  0125  0  0
  -25.9236  -11.6675   20.5847 N   0  0  0  0  0  0  0  0  0126  0  0
  -22.0708  -12.7905   22.0005 N   0  0  0  0  0  0  0  0  0127  0  0
  -25.4117  -15.1773   20.4097 N   0  0  0  0  0  0  0  0  0128  0  0
  -31.7916  -14.6724   20.0536 O   0  0  0  0  0  0  0  0  0129  0  0
  -21.6670   -6.9022   21.4423 O   0  0  0  0  0  0  0  0  0130  0  0
  -22.3946  -14.5564   20.6568 O   0  0  0  0  0  0  0  0  0131  0  0
  -24.6048  -31.8614   23.2223 C   0  0  0  0  0  0  0  0  0100  0  0
  -25.8822  -32.4841   23.8616 C   0  0  1  0  0  0  0  0  0101  0  0
  -27.2536  -27.5042   20.1156 C   0  0  0  0  0  0  0  0  0102  0  0
  -25.5726  -33.8762   24.2210 N   0  0  0  0  0  0  0  0  0103  0  0
  -23.4066  -30.4859   21.5461 C   0  0  2  0  0  0  0  0  0104  0  0
  -24.8467  -28.9636   20.1247 C   0  0  0  0  0  0  0  0  0105  0  0
  -22.7412  -29.4652   22.5052 C   0  0  0  0  0  0  0  0  0106  0  0
  -18.0167  -28.1302   22.8626 C   0  0  0  0  0  0  0  0  0107  0  0
  -24.1342  -36.7390   23.2568 C   0  0  0  0  0  0  0  0  0108  0  0
  -25.9141  -30.8882   21.3456 C   0  0  0  0  0  0  0  0  0109  0  0
  -25.9930  -29.5029   20.7208 C   0  0  0  0  0  0  0  0  0110  0  0
  -27.1758  -28.7612   20.7331 C   0  0  0  0  0  0  0  0  0111  0  0
  -26.1032  -26.9836   19.5230 C   0  0  0  0  0  0  0  0  0112  0  0
  -24.9097  -27.7011   19.5331 C   0  0  0  0  0  0  0  0  0113  0  0
  -23.5715  -29.7899   20.1582 C   0  0  0  0  0  0  0  0  0114  0  0
  -25.3990  -36.3212   24.0232 C   0  0  1  0  0  0  0  0  0115  0  0
  -20.5793  -28.3813   23.1004 C   0  0  2  0  0  0  0  0  0116  0  0
  -20.6548  -26.9392   22.5411 C   0  0  0  0  0  0  0  0  0117  0  0
  -19.5615  -26.6407   21.5143 C   0  0  0  0  0  0  0  0  0118  0  0
  -18.1797  -26.7818   22.1673 C   0  0  0  0  0  0  0  0  0119  0  0
  -19.1385  -28.8769   23.2988 C   0  0  0  0  0  0  0  0  0120  0  0
  -18.9183  -30.1286   23.8878 C   0  0  0  0  0  0  0  0  0121  0  0
  -17.6396  -30.6493   24.0352 C   0  0  0  0  0  0  0  0  0122  0  0
  -25.9153  -34.9582   23.4993 C   0  0  0  0  0  0  0  0  0123  0  0
  -16.5415  -29.9068   23.6254 C   0  0  0  0  0  0  0  0  0124  0  0
  -16.7331  -28.6521   23.0586 C   0  0  0  0  0  0  0  0  0125  0  0
  -26.4583  -31.6439   25.0683 C   0  0  0  0  0  0  0  0  0126  0  0
  -25.3807  -31.3179   26.1374 C   0  0  0  0  0  0  0  0  0127  0  0
  -27.0530  -30.3024   24.5680 C   0  0  0  0  0  0  0  0  0128  0  0
  -27.6014  -32.4281   25.7651 C   0  0  0  0  0  0  0  0  0129  0  0
  -27.5629  -37.2220   24.8621 C   0  0  0  0  0  0  0  0  0130  0  0
  -21.4133  -29.3375   22.3735 N   0  0  0  0  0  0  0  0  0131  0  0
  -26.4706  -37.3372   23.9061 N   0  0  0  0  0  0  0  0  0132  0  0
  -24.6674  -31.0544   22.1178 N   0  0  0  0  0  0  0  0  0133  0  0
  -23.4259  -28.8150   23.2971 O   0  0  0  0  0  0  0  0  0134  0  0
  -28.3948  -26.7345   20.0089 O   0  0  0  0  0  0  0  0  0135  0  0
  -26.5870  -34.9065   22.4671 O   0  0  0  0  0  0  0  0  0136  0  0
  -23.5365  -32.1254   23.7833 O   0  0  0  0  0  0  0  0  0137  0  0
  -30.5756  -18.7036   23.6789 C   0  0  0  0  0  0  0  0  0  0  0  0
  -32.3631  -17.1196   24.0430 C   0  0  0  0  0  0  0  0  0  0  0  0
  -31.7630  -18.3483   24.3187 C   0  0  0  0  0  0  0  0  0  0  0  0
  -29.9882  -17.8303   22.7635 C   0  0  0  0  0  0  0  0  0  0  0  0
  -30.5883  -16.6017   22.4878 C   0  0  0  0  0  0  0  0  0  0  0  0
  -31.7758  -16.2463   23.1276 C   0  0  0  0  0  0  0  0  0  0  0  0
  -32.3849  -19.2709   25.2895 C   0  0  0  0  0  0  0  0  0  0  0  0
  -33.3789  -21.4872   25.7331 C   0  0  0  0  0  0  0  0  0  0  0  0
  -33.6628  -22.7309   24.9155 C   0  0  0  0  0  0  0  0  0  1  0  0
  -28.7850  -18.2102   22.1273 N   0  0  0  0  0  0  0  0  0  0  0  0
  -32.5502  -18.8466   26.5424 N   0  0  0  0  0  0  0  0  0  0  0  0
  -30.0079  -15.7000   21.5616 N   0  0  0  0  0  0  0  0  0  0  0  0
  -32.7500  -20.4872   24.8667 N   0  0  0  0  0  0  0  0  0  0  0  0
  -32.3624  -15.0684   22.8709 F   0  0  0  0  0  0  0  0  0  0  0  0
  -31.4485  -12.4701   19.0860 H   0  0  0  0  0  0  0  0  0  0  0  0
  -30.3970  -11.2460   19.6950 H   0  0  0  0  0  0  0  0  0  0  0  0
  -29.6870  -11.8204   17.4226 H   0  0  0  0  0  0  0  0  0  0  0  0
  -29.6375  -13.5326   17.8649 H   0  0  0  0  0  0  0  0  0  0  0  0
  -27.7830  -11.3650   18.7904 H   0  0  0  0  0  0  0  0  0  0  0  0
  -27.4028  -12.7801   17.8021 H   0  0  0  0  0  0  0  0  0  0  0  0
  -27.7353  -14.2503   19.6136 H   0  0  0  0  0  0  0  0  0  0  0  0
  -28.5890  -11.9550   21.3832 H   0  0  0  0  0  0  0  0  0  0  0  0
  -28.5005  -13.6134   21.8562 H   0  0  0  0  0  0  0  0  0  0  0  0
  -25.2399   -9.5495   22.4318 H   0  0  0  0  0  0  0  0  0  0  0  0
  -23.9663   -7.5070   22.7297 H   0  0  0  0  0  0  0  0  0  0  0  0
  -21.1515   -8.8641   19.9162 H   0  0  0  0  0  0  0  0  0  0  0  0
  -22.4016  -10.9115   19.6476 H   0  0  0  0  0  0  0  0  0  0  0  0
  -21.2319   -7.5552   23.9750 H   0  0  0  0  0  0  0  0  0  0  0  0
  -21.1589   -6.0228   25.8556 H   0  0  0  0  0  0  0  0  0  0  0  0
  -22.0396   -2.8212   23.2809 H   0  0  0  0  0  0  0  0  0  0  0  0
  -22.4401  -11.9703   22.4008 H   0  0  0  0  0  0  0  0  0  0  0  0
  -21.1493  -13.0679   22.2082 H   0  0  0  0  0  0  0  0  0  0  0  0
  -24.6538  -15.7807   20.5848 H   0  0  0  0  0  0  0  0  0  0  0  0
  -26.2762  -15.5453   20.1156 H   0  0  0  0  0  0  0  0  0  0  0  0
  -26.6778  -32.4663   23.1464 H   0  0  0  0  0  0  0  0  0  0  0  0
  -25.0747  -34.0282   25.0566 H   0  0  0  0  0  0  0  0  0  0  0  0
  -22.7881  -31.3489   21.4131 H   0  0  0  0  0  0  0  0  0  0  0  0
  -23.3854  -35.9823   23.3648 H   0  0  0  0  0  0  0  0  0  0  0  0
  -24.3696  -36.8624   22.2204 H   0  0  0  0  0  0  0  0  0  0  0  0
  -23.7669  -37.6632   23.6516 H   0  0  0  0  0  0  0  0  0  0  0  0
  -25.9445  -31.6237   20.5691 H   0  0  0  0  0  0  0  0  0  0  0  0
  -26.7436  -31.0079   22.0108 H   0  0  0  0  0  0  0  0  0  0  0  0
  -28.0090  -29.1452   21.2057 H   0  0  0  0  0  0  0  0  0  0  0  0
  -26.1369  -26.0560   19.0719 H   0  0  0  0  0  0  0  0  0  0  0  0
  -24.0652  -27.2961   19.0997 H   0  0  0  0  0  0  0  0  0  0  0  0
  -23.6156  -30.5365   19.3930 H   0  0  0  0  0  0  0  0  0  0  0  0
  -22.7355  -29.1425   19.9945 H   0  0  0  0  0  0  0  0  0  0  0  0
  -25.1353  -36.2335   25.0565 H   0  0  0  0  0  0  0  0  0  0  0  0
  -21.0070  -28.3206   24.0793 H   0  0  0  0  0  0  0  0  0  0  0  0
  -20.5555  -26.2518   23.3550 H   0  0  0  0  0  0  0  0  0  0  0  0
  -21.5974  -26.8362   22.0454 H   0  0  0  0  0  0  0  0  0  0  0  0
  -19.6810  -25.6422   21.1488 H   0  0  0  0  0  0  0  0  0  0  0  0
  -19.6406  -27.3343   20.7034 H   0  0  0  0  0  0  0  0  0  0  0  0
  -17.4282  -26.6888   21.4113 H   0  0  0  0  0  0  0  0  0  0  0  0
  -18.0803  -26.0130   22.9049 H   0  0  0  0  0  0  0  0  0  0  0  0
  -19.7265  -30.6774   24.2204 H   0  0  0  0  0  0  0  0  0  0  0  0
  -17.5064  -31.5856   24.4483 H   0  0  0  0  0  0  0  0  0  0  0  0
  -15.5878  -30.2839   23.7407 H   0  0  0  0  0  0  0  0  0  0  0  0
  -15.9120  -28.0941   22.7766 H   0  0  0  0  0  0  0  0  0  0  0  0
  -24.5787  -30.7757   25.6817 H   0  0  0  0  0  0  0  0  0  0  0  0
  -25.0041  -32.2289   26.5536 H   0  0  0  0  0  0  0  0  0  0  0  0
  -25.8166  -30.7245   26.9138 H   0  0  0  0  0  0  0  0  0  0  0  0
  -26.2892  -29.7335   24.0803 H   0  0  0  0  0  0  0  0  0  0  0  0
  -27.4336  -29.7484   25.4006 H   0  0  0  0  0  0  0  0  0  0  0  0
  -27.8466  -30.4994   23.8779 H   0  0  0  0  0  0  0  0  0  0  0  0
  -27.2251  -33.3632   26.1242 H   0  0  0  0  0  0  0  0  0  0  0  0
  -28.3902  -32.6065   25.0645 H   0  0  0  0  0  0  0  0  0  0  0  0
  -27.9772  -31.8555   26.5872 H   0  0  0  0  0  0  0  0  0  0  0  0
  -28.2744  -38.0016   24.6863 H   0  0  0  0  0  0  0  0  0  0  0  0
  -28.0396  -36.2711   24.7461 H   0  0  0  0  0  0  0  0  0  0  0  0
  -27.1773  -37.3087   25.8564 H   0  0  0  0  0  0  0  0  0  0  0  0
  -20.9627  -29.9365   21.7352 H   0  0  0  0  0  0  0  0  0  0  0  0
  -26.0447  -38.2561   24.0273 H   0  0  0  0  0  0  0  0  0  0  0  0
  -30.1316  -19.6126   23.8828 H   0  0  0  0  0  0  0  0  0  0  0  0
  -33.2417  -16.8567   24.5163 H   0  0  0  0  0  0  0  0  0  0  0  0
  -32.7195  -21.7299   26.5400 H   0  0  0  0  0  0  0  0  0  0  0  0
  -34.2918  -21.0989   26.1340 H   0  0  0  0  0  0  0  0  0  0  0  0
  -34.4819  -22.4633   24.2812 H   0  0  0  0  0  0  0  0  0  0  0  0
  -33.7378  -23.4455   25.7083 H   0  0  0  0  0  0  0  0  0  0  0  0
  -28.3734  -19.0807   22.3323 H   0  0  0  0  0  0  0  0  0  0  0  0
  -28.3583  -17.6044   21.4791 H   0  0  0  0  0  0  0  0  0  0  0  0
  -32.2622  -17.9403   26.7972 H   0  0  0  0  0  0  0  0  0  0  0  0
  -32.9603  -19.4395   27.2129 H   0  0  0  0  0  0  0  0  0  0  0  0
  -29.0477  -15.8328   21.3896 H   0  0  0  0  0  0  0  0  0  0  0  0
  -32.5875  -20.7220   23.9245 H   0  0  0  0  0  0  0  0  0  0  0  0
  1 25  1  0
  1 30  2  0
  1 82  1  0
  2  3  1  0
  2 25  1  0
  2 85  1  0
  2 86  1  0
  3  4  1  0
  3 87  1  0
  3 88  1  0
  4  5  1  0
  4 89  1  0
  4 90  1  0
  5  6  1  0
  5 26  1  0
  5 91  1  6
  6 25  1  0
  6 92  1  0
  6 93  1  0
  7  8  2  0
  7 26  1  0
  7 29  1  0
  8  9  1  0
  8 22  1  0
  9 10  1  0
  9 27  2  0
 10 11  2  0
 10 15  1  0
 11 12  1  0
 11 94  1  0
 12 13  2  0
 12 95  1  0
 13 14  1  0
 13 31  1  0
 14 15  2  0
 14 96  1  0
 15 97  1  0
 16 17  2  0
 16 21  1  0
 16 31  1  0
 17 18  1  0
 17 98  1  0
 18 19  2  0
 18 99  1  0
 19 20  1  0
 19 24  1  0
 20 21  2  0
 20100  1  0
 21 23  1  0
 22 28  1  0
 22 32  2  0
 26 27  1  0
 28101  1  0
 28102  1  0
 29103  1  0
 29104  1  0
 33 34  1  0
 33 66  1  0
 33 70  2  0
 34 36  1  0
 34 59  1  0
 34105  1  6
 35 44  2  0
 35 45  1  0
 35 68  1  0
 36 56  1  0
 36106  1  0
 37 39  1  0
 37 47  1  0
 37 66  1  0
 37107  1  6
 38 43  2  0
 38 46  1  0
 38 47  1  0
 39 64  1  0
 39 67  2  0
 40 52  1  0
 40 53  2  0
 40 58  1  0
 41108  1  0
 41109  1  0
 41110  1  0
 42 43  1  0
 42 66  1  0
 42111  1  0
 42112  1  0
 43 44  1  0
 44113  1  0
 45 46  2  0
 45114  1  0
 46115  1  0
 47116  1  0
 47117  1  0
 48 41  1  0
 48 56  1  0
 48 65  1  0
 48118  1  1
 49 50  1  0
 49 53  1  0
 49 64  1  0
 49119  1  1
 50 51  1  0
 50120  1  0
 50121  1  0
 51 52  1  0
 51122  1  0
 51123  1  0
 52124  1  0
 52125  1  0
 53 54  1  0
 54 55  2  0
 54126  1  0
 55 57  1  0
 55127  1  0
 56 69  2  0
 57 58  2  0
 57128  1  0
 58129  1  0
 59 60  1  0
 59 61  1  0
 59 62  1  0
 60130  1  0
 60131  1  0
 60132  1  0
 61133  1  0
 61134  1  0
 61135  1  0
 62136  1  0
 62137  1  0
 62138  1  0
 63 65  1  0
 63139  1  0
 63140  1  0
 63141  1  0
 64142  1  0
 65143  1  0
 68 79  1  0
 71 73  2  0
 71 74  1  0
 71144  1  0
 72 73  1  0
 72 76  2  0
 72145  1  0
 73 77  1  0
 74 75  2  0
 74 80  1  0
 75 76  1  0
 75 82  1  0
 76 84  1  0
 77 81  1  0
 77 83  2  0
 78 79  1  0
 78 83  1  0
 78146  1  0
 78147  1  0
 79148  1  0
 79149  1  0
 80150  1  0
 80151  1  0
 81152  1  0
 81153  1  0
 82154  1  0
 83155  1  0
M  CHG  1  83   1
M  ISO  4   1 100  68 101  79 101  82 100
M  END
$$$$
43
     RDKit          3D

160168  0  0  0  0  0  0  0  0999 V2000
  -30.7652  -14.3608   20.6636 C   0  0  0  0  0  0  0  0  0100  0  0
  -30.4392  -12.2669   19.3775 C   0  0  0  0  0  0  0  0  0101  0  0
  -29.4791  -12.5281   18.1977 C   0  0  0  0  0  0  0  0  0102  0  0
  -27.9985  -12.3963   18.6038 C   0  0  0  0  0  0  0  0  0103  0  0
  -27.6639  -13.2170   19.8820 C   0  0  2  0  0  0  0  0  0104  0  0
  -28.6795  -12.9602   21.0279 C   0  0  0  0  0  0  0  0  0105  0  0
  -25.2633  -13.8245   20.5754 C   0  0  0  0  0  0  0  0  0106  0  0
  -24.1645  -13.0409   20.9408 C   0  0  0  0  0  0  0  0  0107  0  0
  -24.6400  -11.7009   20.8697 C   0  0  0  0  0  0  0  0  0108  0  0
  -23.9005  -10.4085   21.0420 C   0  0  0  0  0  0  0  0  0109  0  0
  -24.3588   -9.4123   21.9123 C   0  0  0  0  0  0  0  0  0110  0  0
  -23.6296   -8.2350   22.0803 C   0  0  0  0  0  0  0  0  0111  0  0
  -22.4385   -8.0419   21.3657 C   0  0  0  0  0  0  0  0  0112  0  0
  -22.0103   -9.0167   20.4678 C   0  0  0  0  0  0  0  0  0113  0  0
  -22.7317  -10.1925   20.3102 C   0  0  0  0  0  0  0  0  0114  0  0
  -21.6857   -6.0709   22.5391 C   0  0  0  0  0  0  0  0  0115  0  0
  -21.4064   -6.5490   23.8264 C   0  0  0  0  0  0  0  0  0116  0  0
  -21.3635   -5.6677   24.9085 C   0  0  0  0  0  0  0  0  0117  0  0
  -21.5973   -4.3067   24.7088 C   0  0  0  0  0  0  0  0  0118  0  0
  -21.8700   -3.8284   23.4282 C   0  0  0  0  0  0  0  0  0119  0  0
  -21.9144   -4.7056   22.3460 C   0  0  0  0  0  0  0  0  0120  0  0
  -22.8194  -13.5263   21.1763 C   0  0  0  0  0  0  0  0  0121  0  0
  -22.1559   -4.2206   21.1063 F   0  0  0  0  0  0  0  0  0122  0  0
  -21.5628   -3.4510   25.7555 F   0  0  0  0  0  0  0  0  0123  0  0
  -30.0261  -13.1803   20.4553 N   0  0  0  0  0  0  0  0  0124  0  0
  -26.2911  -12.9356   20.3443 N   0  0  0  0  0  0  0  0  0125  0  0
  -25.9236  -11.6675   20.5847 N   0  0  0  0  0  0  0  0  0126  0  0
  -22.0708  -12.7905   22.0005 N   0  0  0  0  0  0  0  0  0127  0  0
  -25.4117  -15.1773   20.4097 N   0  0  0  0  0  0  0  0  0128  0  0
  -31.7916  -14.6724   20.0536 O   0  0  0  0  0  0  0  0  0129  0  0
  -21.6670   -6.9022   21.4423 O   0  0  0  0  0  0  0  0  0130  0  0
  -22.3946  -14.5564   20.6568 O   0  0  0  0  0  0  0  0  0131  0  0
  -24.6048  -31.8614   23.2223 C   0  0  0  0  0  0  0  0  0100  0  0
  -25.8822  -32.4841   23.8616 C   0  0  1  0  0  0  0  0  0101  0  0
  -27.2536  -27.5042   20.1156 C   0  0  0  0  0  0  0  0  0102  0  0
  -25.5726  -33.8762   24.2210 N   0  0  0  0  0  0  0  0  0103  0  0
  -23.4066  -30.4859   21.5461 C   0  0  2  0  0  0  0  0  0104  0  0
  -24.8467  -28.9636   20.1247 C   0  0  0  0  0  0  0  0  0105  0  0
  -22.7412  -29.4652   22.5052 C   0  0  0  0  0  0  0  0  0106  0  0
  -18.0167  -28.1302   22.8626 C   0  0  0  0  0  0  0  0  0107  0  0
  -24.1342  -36.7390   23.2568 C   0  0  0  0  0  0  0  0  0108  0  0
  -25.9141  -30.8882   21.3456 C   0  0  0  0  0  0  0  0  0109  0  0
  -25.9930  -29.5029   20.7208 C   0  0  0  0  0  0  0  0  0110  0  0
  -27.1758  -28.7612   20.7331 C   0  0  0  0  0  0  0  0  0111  0  0
  -26.1032  -26.9836   19.5230 C   0  0  0  0  0  0  0  0  0112  0  0
  -24.9097  -27.7011   19.5331 C   0  0  0  0  0  0  0  0  0113  0  0
  -23.5715  -29.7899   20.1582 C   0  0  0  0  0  0  0  0  0114  0  0
  -25.3990  -36.3212   24.0232 C   0  0  1  0  0  0  0  0  0115  0  0
  -20.5793  -28.3813   23.1004 C   0  0  2  0  0  0  0  0  0116  0  0
  -20.6548  -26.9392   22.5411 C   0  0  0  0  0  0  0  0  0117  0  0
  -19.5615  -26.6407   21.5143 C   0  0  0  0  0  0  0  0  0118  0  0
  -18.1797  -26.7818   22.1673 C   0  0  0  0  0  0  0  0  0119  0  0
  -19.1385  -28.8769   23.2988 C   0  0  0  0  0  0  0  0  0120  0  0
  -18.9183  -30.1286   23.8878 C   0  0  0  0  0  0  0  0  0121  0  0
  -17.6396  -30.6493   24.0352 C   0  0  0  0  0  0  0  0  0122  0  0
  -25.9153  -34.9582   23.4993 C   0  0  0  0  0  0  0  0  0123  0  0
  -16.5415  -29.9068   23.6254 C   0  0  0  0  0  0  0  0  0124  0  0
  -16.7331  -28.6521   23.0586 C   0  0  0  0  0  0  0  0  0125  0  0
  -26.4583  -31.6439   25.0683 C   0  0  0  0  0  0  0  0  0126  0  0
  -25.3807  -31.3179   26.1374 C   0  0  0  0  0  0  0  0  0127  0  0
  -27.0530  -30.3024   24.5680 C   0  0  0  0  0  0  0  0  0128  0  0
  -27.6014  -32.4281   25.7651 C   0  0  0  0  0  0  0  0  0129  0  0
  -27.5629  -37.2220   24.8621 C   0  0  0  0  0  0  0  0  0130  0  0
  -21.4133  -29.3375   22.3735 N   0  0  0  0  0  0  0  0  0131  0  0
  -26.4706  -37.3372   23.9061 N   0  0  0  0  0  0  0  0  0132  0  0
  -24.6674  -31.0544   22.1178 N   0  0  0  0  0  0  0  0  0133  0  0
  -23.4259  -28.8150   23.2971 O   0  0  0  0  0  0  0  0  0134  0  0
  -28.3948  -26.7345   20.0089 O   0  0  0  0  0  0  0  0  0135  0  0
  -26.5870  -34.9065   22.4671 O   0  0  0  0  0  0  0  0  0136  0  0
  -23.5365  -32.1254   23.7833 O   0  0  0  0  0  0  0  0  0137  0  0
  -25.9214  -23.7162   22.5866 C   0  0  0  0  0  0  0  0  0  0  0  0
  -25.4827  -24.7461   23.4188 C   0  0  0  0  0  0  0  0  0  0  0  0
  -23.6931  -22.7826   22.5675 C   0  0  0  0  0  0  0  0  0  0  0  0
  -23.2545  -23.8125   23.3997 C   0  0  0  0  0  0  0  0  0  0  0  0
  -25.0265  -22.7345   22.1609 C   0  0  0  0  0  0  0  0  0  0  0  0
  -24.1493  -24.7943   23.8253 C   0  0  0  0  0  0  0  0  0  0  0  0
  -19.7970  -25.0482   23.0309 C   0  0  0  0  0  0  0  0  0  0  0  0
  -17.7518  -26.2432   22.1727 C   0  0  0  0  0  0  0  0  0  0  0  0
  -18.5392  -24.1621   21.0408 C   0  0  0  0  0  0  0  0  0  0  0  0
  -21.8185  -23.8631   23.8351 C   0  0  0  0  0  0  0  0  0  0  0  0
  -19.8725  -26.2902   20.8190 C   0  0  0  0  0  0  0  0  0  1  0  0
  -19.0004  -25.4417   21.7663 C   0  0  0  0  0  0  0  0  0  0  0  0
  -25.4724  -21.6889   21.3148 N   0  0  0  0  0  0  0  0  0  0  0  0
  -20.9485  -24.3181   22.7763 N   0  0  0  0  0  0  0  0  0  0  0  0
  -19.4288  -25.3629   24.1632 O   0  0  0  0  0  0  0  0  0  0  0  0
  -23.7376  -25.7871   24.6260 F   0  0  0  0  0  0  0  0  0  0  0  0
  -31.4485  -12.4701   19.0860 H   0  0  0  0  0  0  0  0  0  0  0  0
  -30.3970  -11.2460   19.6950 H   0  0  0  0  0  0  0  0  0  0  0  0
  -29.6870  -11.8204   17.4226 H   0  0  0  0  0  0  0  0  0  0  0  0
  -29.6375  -13.5326   17.8649 H   0  0  0  0  0  0  0  0  0  0  0  0
  -27.7830  -11.3650   18.7904 H   0  0  0  0  0  0  0  0  0  0  0  0
  -27.4028  -12.7801   17.8021 H   0  0  0  0  0  0  0  0  0  0  0  0
  -27.7353  -14.2503   19.6136 H   0  0  0  0  0  0  0  0  0  0  0  0
  -28.5890  -11.9550   21.3832 H   0  0  0  0  0  0  0  0  0  0  0  0
  -28.5005  -13.6134   21.8562 H   0  0  0  0  0  0  0  0  0  0  0  0
  -25.2399   -9.5495   22.4318 H   0  0  0  0  0  0  0  0  0  0  0  0
  -23.9663   -7.5070   22.7297 H   0  0  0  0  0  0  0  0  0  0  0  0
  -21.1515   -8.8641   19.9162 H   0  0  0  0  0  0  0  0  0  0  0  0
  -22.4016  -10.9115   19.6476 H   0  0  0  0  0  0  0  0  0  0  0  0
  -21.2319   -7.5552   23.9750 H   0  0  0  0  0  0  0  0  0  0  0  0
  -21.1589   -6.0228   25.8556 H   0  0  0  0  0  0  0  0  0  0  0  0
  -22.0396   -2.8212   23.2809 H   0  0  0  0  0  0  0  0  0  0  0  0
  -22.4401  -11.9703   22.4008 H   0  0  0  0  0  0  0  0  0  0  0  0
  -21.1493  -13.0679   22.2082 H   0  0  0  0  0  0  0  0  0  0  0  0
  -24.6538  -15.7807   20.5848 H   0  0  0  0  0  0  0  0  0  0  0  0
  -26.2762  -15.5453   20.1156 H   0  0  0  0  0  0  0  0  0  0  0  0
  -26.6778  -32.4663   23.1464 H   0  0  0  0  0  0  0  0  0  0  0  0
  -25.0747  -34.0282   25.0566 H   0  0  0  0  0  0  0  0  0  0  0  0
  -22.7881  -31.3489   21.4131 H   0  0  0  0  0  0  0  0  0  0  0  0
  -23.3854  -35.9823   23.3648 H   0  0  0  0  0  0  0  0  0  0  0  0
  -24.3696  -36.8624   22.2204 H   0  0  0  0  0  0  0  0  0  0  0  0
  -23.7669  -37.6632   23.6516 H   0  0  0  0  0  0  0  0  0  0  0  0
  -25.9445  -31.6237   20.5691 H   0  0  0  0  0  0  0  0  0  0  0  0
  -26.7436  -31.0079   22.0108 H   0  0  0  0  0  0  0  0  0  0  0  0
  -28.0090  -29.1452   21.2057 H   0  0  0  0  0  0  0  0  0  0  0  0
  -26.1369  -26.0560   19.0719 H   0  0  0  0  0  0  0  0  0  0  0  0
  -24.0652  -27.2961   19.0997 H   0  0  0  0  0  0  0  0  0  0  0  0
  -23.6156  -30.5365   19.3930 H   0  0  0  0  0  0  0  0  0  0  0  0
  -22.7355  -29.1425   19.9945 H   0  0  0  0  0  0  0  0  0  0  0  0
  -25.1353  -36.2335   25.0565 H   0  0  0  0  0  0  0  0  0  0  0  0
  -21.0070  -28.3206   24.0793 H   0  0  0  0  0  0  0  0  0  0  0  0
  -20.5555  -26.2518   23.3550 H   0  0  0  0  0  0  0  0  0  0  0  0
  -21.5974  -26.8362   22.0454 H   0  0  0  0  0  0  0  0  0  0  0  0
  -19.6810  -25.6422   21.1488 H   0  0  0  0  0  0  0  0  0  0  0  0
  -19.6406  -27.3343   20.7034 H   0  0  0  0  0  0  0  0  0  0  0  0
  -17.4282  -26.6888   21.4113 H   0  0  0  0  0  0  0  0  0  0  0  0
  -18.0803  -26.0130   22.9049 H   0  0  0  0  0  0  0  0  0  0  0  0
  -19.7265  -30.6774   24.2204 H   0  0  0  0  0  0  0  0  0  0  0  0
  -17.5064  -31.5856   24.4483 H   0  0  0  0  0  0  0  0  0  0  0  0
  -15.5878  -30.2839   23.7407 H   0  0  0  0  0  0  0  0  0  0  0  0
  -15.9120  -28.0941   22.7766 H   0  0  0  0  0  0  0  0  0  0  0  0
  -24.5787  -30.7757   25.6817 H   0  0  0  0  0  0  0  0  0  0  0  0
  -25.0041  -32.2289   26.5536 H   0  0  0  0  0  0  0  0  0  0  0  0
  -25.8166  -30.7245   26.9138 H   0  0  0  0  0  0  0  0  0  0  0  0
  -26.2892  -29.7335   24.0803 H   0  0  0  0  0  0  0  0  0  0  0  0
  -27.4336  -29.7484   25.4006 H   0  0  0  0  0  0  0  0  0  0  0  0
  -27.8466  -30.4994   23.8779 H   0  0  0  0  0  0  0  0  0  0  0  0
  -27.2251  -33.3632   26.1242 H   0  0  0  0  0  0  0  0  0  0  0  0
  -28.3902  -32.6065   25.0645 H   0  0  0  0  0  0  0  0  0  0  0  0
  -27.9772  -31.8555   26.5872 H   0  0  0  0  0  0  0  0  0  0  0  0
  -28.2744  -38.0016   24.6863 H   0  0  0  0  0  0  0  0  0  0  0  0
  -28.0396  -36.2711   24.7461 H   0  0  0  0  0  0  0  0  0  0  0  0
  -27.1773  -37.3087   25.8564 H   0  0  0  0  0  0  0  0  0  0  0  0
  -20.9627  -29.9365   21.7352 H   0  0  0  0  0  0  0  0  0  0  0  0
  -26.0447  -38.2561   24.0273 H   0  0  0  0  0  0  0  0  0  0  0  0
  -26.9080  -23.6805   22.2859 H   0  0  0  0  0  0  0  0  0  0  0  0
  -26.1447  -25.4724   23.7338 H   0  0  0  0  0  0  0  0  0  0  0  0
  -23.0311  -22.0562   22.2526 H   0  0  0  0  0  0  0  0  0  0  0  0
  -17.1476  -25.6533   22.8299 H   0  0  0  0  0  0  0  0  0  0  0  0
  -17.1882  -26.4931   21.2982 H   0  0  0  0  0  0  0  0  0  0  0  0
  -18.0511  -27.1406   22.6726 H   0  0  0  0  0  0  0  0  0  0  0  0
  -17.9345  -23.5761   21.7010 H   0  0  0  0  0  0  0  0  0  0  0  0
  -19.3949  -23.5935   20.7418 H   0  0  0  0  0  0  0  0  0  0  0  0
  -17.9681  -24.4285   20.1761 H   0  0  0  0  0  0  0  0  0  0  0  0
  -21.7324  -24.5330   24.6650 H   0  0  0  0  0  0  0  0  0  0  0  0
  -21.5198  -22.8719   24.1056 H   0  0  0  0  0  0  0  0  0  0  0  0
  -19.5797  -27.2974   21.0302 H   0  0  0  0  0  0  0  0  0  0  0  0
  -19.6790  -25.7372   19.9236 H   0  0  0  0  0  0  0  0  0  0  0  0
  -25.0264  -21.8060   20.4450 H   0  0  0  0  0  0  0  0  0  0  0  0
  -21.1801  -24.1032   21.8439 H   0  0  0  0  0  0  0  0  0  0  0  0
  1 25  1  0
  1 30  2  0
  1 83  1  0
  2  3  1  0
  2 25  1  0
  2 87  1  0
  2 88  1  0
  3  4  1  0
  3 89  1  0
  3 90  1  0
  4  5  1  0
  4 91  1  0
  4 92  1  0
  5  6  1  0
  5 26  1  0
  5 93  1  6
  6 25  1  0
  6 94  1  0
  6 95  1  0
  7  8  2  0
  7 26  1  0
  7 29  1  0
  8  9  1  0
  8 22  1  0
  9 10  1  0
  9 27  2  0
 10 11  2  0
 10 15  1  0
 11 12  1  0
 11 96  1  0
 12 13  2  0
 12 97  1  0
 13 14  1  0
 13 31  1  0
 14 15  2  0
 14 98  1  0
 15 99  1  0
 16 17  2  0
 16 21  1  0
 16 31  1  0
 17 18  1  0
 17100  1  0
 18 19  2  0
 18101  1  0
 19 20  1  0
 19 24  1  0
 20 21  2  0
 20102  1  0
 21 23  1  0
 22 28  1  0
 22 32  2  0
 26 27  1  0
 28103  1  0
 28104  1  0
 29105  1  0
 29106  1  0
 33 34  1  0
 33 66  1  0
 33 70  2  0
 34 36  1  0
 34 59  1  0
 34107  1  6
 35 44  2  0
 35 45  1  0
 35 68  1  0
 36 56  1  0
 36108  1  0
 37 39  1  0
 37 47  1  0
 37 66  1  0
 37109  1  6
 38 43  2  0
 38 46  1  0
 38 47  1  0
 39 64  1  0
 39 67  2  0
 40 52  1  0
 40 53  2  0
 40 58  1  0
 41110  1  0
 41111  1  0
 41112  1  0
 42 43  1  0
 42 66  1  0
 42113  1  0
 42114  1  0
 43 44  1  0
 44115  1  0
 45 46  2  0
 45116  1  0
 46117  1  0
 47118  1  0
 47119  1  0
 48 41  1  0
 48 56  1  0
 48 65  1  0
 48120  1  1
 49 50  1  0
 49 53  1  0
 49 64  1  0
 49121  1  1
 50 51  1  0
 50122  1  0
 50123  1  0
 51 52  1  0
 51124  1  0
 51125  1  0
 52126  1  0
 52127  1  0
 53 54  1  0
 54 55  2  0
 54128  1  0
 55 57  1  0
 55129  1  0
 56 69  2  0
 57 58  2  0
 57130  1  0
 58131  1  0
 59 60  1  0
 59 61  1  0
 59 62  1  0
 60132  1  0
 60133  1  0
 60134  1  0
 61135  1  0
 61136  1  0
 61137  1  0
 62138  1  0
 62139  1  0
 62140  1  0
 63 65  1  0
 63141  1  0
 63142  1  0
 63143  1  0
 64144  1  0
 65145  1  0
 68 81  1  0
 71 72  2  0
 71 75  1  0
 71146  1  0
 72 76  1  0
 72147  1  0
 73 74  1  0
 73 75  2  0
 73148  1  0
 74 76  2  0
 74 80  1  0
 75 83  1  0
 76 86  1  0
 77 82  1  0
 77 84  1  0
 77 85  2  0
 78149  1  0
 78150  1  0
 78151  1  0
 79 82  1  0
 79152  1  0
 79153  1  0
 79154  1  0
 80 84  1  0
 80155  1  0
 80156  1  0
 81 82  1  0
 81157  1  0
 81158  1  0
 82 78  1  0
 83159  1  0
 84160  1  0
M  ISO  4   1 100  68 101  81 101  83 100
M  END
$$$$
44
     RDKit          3D

170178  0  0  0  0  0  0  0  0999 V2000
  -30.7652  -14.3608   20.6636 C   0  0  0  0  0  0  0  0  0100  0  0
  -30.4392  -12.2669   19.3775 C   0  0  0  0  0  0  0  0  0101  0  0
  -29.4791  -12.5281   18.1977 C   0  0  0  0  0  0  0  0  0102  0  0
  -27.9985  -12.3963   18.6038 C   0  0  0  0  0  0  0  0  0103  0  0
  -27.6639  -13.2170   19.8820 C   0  0  2  0  0  0  0  0  0104  0  0
  -28.6795  -12.9602   21.0279 C   0  0  0  0  0  0  0  0  0105  0  0
  -25.2633  -13.8245   20.5754 C   0  0  0  0  0  0  0  0  0106  0  0
  -24.1645  -13.0409   20.9408 C   0  0  0  0  0  0  0  0  0107  0  0
  -24.6400  -11.7009   20.8697 C   0  0  0  0  0  0  0  0  0108  0  0
  -23.9005  -10.4085   21.0420 C   0  0  0  0  0  0  0  0  0109  0  0
  -24.3588   -9.4123   21.9123 C   0  0  0  0  0  0  0  0  0110  0  0
  -23.6296   -8.2350   22.0803 C   0  0  0  0  0  0  0  0  0111  0  0
  -22.4385   -8.0419   21.3657 C   0  0  0  0  0  0  0  0  0112  0  0
  -22.0103   -9.0167   20.4678 C   0  0  0  0  0  0  0  0  0113  0  0
  -22.7317  -10.1925   20.3102 C   0  0  0  0  0  0  0  0  0114  0  0
  -21.6857   -6.0709   22.5391 C   0  0  0  0  0  0  0  0  0115  0  0
  -21.4064   -6.5490   23.8264 C   0  0  0  0  0  0  0  0  0116  0  0
  -21.3635   -5.6677   24.9085 C   0  0  0  0  0  0  0  0  0117  0  0
  -21.5973   -4.3067   24.7088 C   0  0  0  0  0  0  0  0  0118  0  0
  -21.8700   -3.8284   23.4282 C   0  0  0  0  0  0  0  0  0119  0  0
  -21.9144   -4.7056   22.3460 C   0  0  0  0  0  0  0  0  0120  0  0
  -22.8194  -13.5263   21.1763 C   0  0  0  0  0  0  0  0  0121  0  0
  -22.1559   -4.2206   21.1063 F   0  0  0  0  0  0  0  0  0122  0  0
  -21.5628   -3.4510   25.7555 F   0  0  0  0  0  0  0  0  0123  0  0
  -30.0261  -13.1803   20.4553 N   0  0  0  0  0  0  0  0  0124  0  0
  -26.2911  -12.9356   20.3443 N   0  0  0  0  0  0  0  0  0125  0  0
  -25.9236  -11.6675   20.5847 N   0  0  0  0  0  0  0  0  0126  0  0
  -22.0708  -12.7905   22.0005 N   0  0  0  0  0  0  0  0  0127  0  0
  -25.4117  -15.1773   20.4097 N   0  0  0  0  0  0  0  0  0128  0  0
  -31.7916  -14.6724   20.0536 O   0  0  0  0  0  0  0  0  0129  0  0
  -21.6670   -6.9022   21.4423 O   0  0  0  0  0  0  0  0  0130  0  0
  -22.3946  -14.5564   20.6568 O   0  0  0  0  0  0  0  0  0131  0  0
  -24.6048  -31.8614   23.2223 C   0  0  0  0  0  0  0  0  0100  0  0
  -25.8822  -32.4841   23.8616 C   0  0  1  0  0  0  0  0  0101  0  0
  -27.2536  -27.5042   20.1156 C   0  0  0  0  0  0  0  0  0102  0  0
  -25.5726  -33.8762   24.2210 N   0  0  0  0  0  0  0  0  0103  0  0
  -23.4066  -30.4859   21.5461 C   0  0  2  0  0  0  0  0  0104  0  0
  -24.8467  -28.9636   20.1247 C   0  0  0  0  0  0  0  0  0105  0  0
  -22.7412  -29.4652   22.5052 C   0  0  0  0  0  0  0  0  0106  0  0
  -18.0167  -28.1302   22.8626 C   0  0  0  0  0  0  0  0  0107  0  0
  -24.1342  -36.7390   23.2568 C   0  0  0  0  0  0  0  0  0108  0  0
  -25.9141  -30.8882   21.3456 C   0  0  0  0  0  0  0  0  0109  0  0
  -25.9930  -29.5029   20.7208 C   0  0  0  0  0  0  0  0  0110  0  0
  -27.1758  -28.7612   20.7331 C   0  0  0  0  0  0  0  0  0111  0  0
  -26.1032  -26.9836   19.5230 C   0  0  0  0  0  0  0  0  0112  0  0
  -24.9097  -27.7011   19.5331 C   0  0  0  0  0  0  0  0  0113  0  0
  -23.5715  -29.7899   20.1582 C   0  0  0  0  0  0  0  0  0114  0  0
  -25.3990  -36.3212   24.0232 C   0  0  1  0  0  0  0  0  0115  0  0
  -20.5793  -28.3813   23.1004 C   0  0  2  0  0  0  0  0  0116  0  0
  -20.6548  -26.9392   22.5411 C   0  0  0  0  0  0  0  0  0117  0  0
  -19.5615  -26.6407   21.5143 C   0  0  0  0  0  0  0  0  0118  0  0
  -18.1797  -26.7818   22.1673 C   0  0  0  0  0  0  0  0  0119  0  0
  -19.1385  -28.8769   23.2988 C   0  0  0  0  0  0  0  0  0120  0  0
  -18.9183  -30.1286   23.8878 C   0  0  0  0  0  0  0  0  0121  0  0
  -17.6396  -30.6493   24.0352 C   0  0  0  0  0  0  0  0  0122  0  0
  -25.9153  -34.9582   23.4993 C   0  0  0  0  0  0  0  0  0123  0  0
  -16.5415  -29.9068   23.6254 C   0  0  0  0  0  0  0  0  0124  0  0
  -16.7331  -28.6521   23.0586 C   0  0  0  0  0  0  0  0  0125  0  0
  -26.4583  -31.6439   25.0683 C   0  0  0  0  0  0  0  0  0126  0  0
  -25.3807  -31.3179   26.1374 C   0  0  0  0  0  0  0  0  0127  0  0
  -27.0530  -30.3024   24.5680 C   0  0  0  0  0  0  0  0  0128  0  0
  -27.6014  -32.4281   25.7651 C   0  0  0  0  0  0  0  0  0129  0  0
  -27.5629  -37.2220   24.8621 C   0  0  0  0  0  0  0  0  0130  0  0
  -21.4133  -29.3375   22.3735 N   0  0  0  0  0  0  0  0  0131  0  0
  -26.4706  -37.3372   23.9061 N   0  0  0  0  0  0  0  0  0132  0  0
  -24.6674  -31.0544   22.1178 N   0  0  0  0  0  0  0  0  0133  0  0
  -23.4259  -28.8150   23.2971 O   0  0  0  0  0  0  0  0  0134  0  0
  -28.3948  -26.7345   20.0089 O   0  0  0  0  0  0  0  0  0135  0  0
  -26.5870  -34.9065   22.4671 O   0  0  0  0  0  0  0  0  0136  0  0
  -23.5365  -32.1254   23.7833 O   0  0  0  0  0  0  0  0  0137  0  0
  -24.8079  -19.7642   17.5731 C   0  0  0  0  0  0  0  0  0  0  0  0
  -25.6548  -18.7154   17.9314 C   0  0  0  0  0  0  0  0  0  0  0  0
  -24.2252  -17.1605   16.7584 C   0  0  0  0  0  0  0  0  0  0  0  0
  -23.6696  -19.5112   16.8076 C   0  0  0  0  0  0  0  0  0  0  0  0
  -25.3634  -17.4136   17.5240 C   0  0  0  0  0  0  0  0  0  0  0  0
  -23.3783  -18.2094   16.4002 C   0  0  0  0  0  0  0  0  0  0  0  0
  -22.7747  -20.6237   16.4304 C   0  0  0  0  0  0  0  0  0  0  0  0
  -21.6128  -23.3827   18.3357 C   0  0  0  0  0  0  0  0  0  0  0  0
  -17.3825  -22.3325   16.5969 C   0  0  0  0  0  0  0  0  0  0  0  0
  -19.1440  -23.2810   15.1048 C   0  0  0  0  0  0  0  0  0  0  0  0
  -18.7915  -24.2501   17.3784 C   0  0  0  0  0  0  0  0  0  0  0  0
  -22.8034  -24.3073   18.1705 C   0  0  0  0  0  0  0  0  0  1  0  0
  -19.8671  -21.9541   17.1029 C   0  0  0  0  0  0  0  0  0  0  0  0
  -21.3069  -22.4709   17.1587 C   0  0  2  0  0  0  0  0  0  0  0  0
  -18.7922  -22.9422   16.5680 C   0  0  0  0  0  0  0  0  0  0  0  0
  -26.2242  -16.3486   17.8881 N   0  0  0  0  0  0  0  0  0  0  0  0
  -22.1974  -21.3351   17.4065 N   0  0  0  0  0  0  0  0  0  0  0  0
  -22.5833  -20.8639   15.1332 N   0  0  0  0  0  0  0  0  0  0  0  0
  -20.9599  -23.3486   19.3782 O   0  0  0  0  0  0  0  0  0  0  0  0
  -22.2858  -17.9561   15.6660 F   0  0  0  0  0  0  0  0  0  0  0  0
  -31.4485  -12.4701   19.0860 H   0  0  0  0  0  0  0  0  0  0  0  0
  -30.3970  -11.2460   19.6950 H   0  0  0  0  0  0  0  0  0  0  0  0
  -29.6870  -11.8204   17.4226 H   0  0  0  0  0  0  0  0  0  0  0  0
  -29.6375  -13.5326   17.8649 H   0  0  0  0  0  0  0  0  0  0  0  0
  -27.7830  -11.3650   18.7904 H   0  0  0  0  0  0  0  0  0  0  0  0
  -27.4028  -12.7801   17.8021 H   0  0  0  0  0  0  0  0  0  0  0  0
  -27.7353  -14.2503   19.6136 H   0  0  0  0  0  0  0  0  0  0  0  0
  -28.5890  -11.9550   21.3832 H   0  0  0  0  0  0  0  0  0  0  0  0
  -28.5005  -13.6134   21.8562 H   0  0  0  0  0  0  0  0  0  0  0  0
  -25.2399   -9.5495   22.4318 H   0  0  0  0  0  0  0  0  0  0  0  0
  -23.9663   -7.5070   22.7297 H   0  0  0  0  0  0  0  0  0  0  0  0
  -21.1515   -8.8641   19.9162 H   0  0  0  0  0  0  0  0  0  0  0  0
  -22.4016  -10.9115   19.6476 H   0  0  0  0  0  0  0  0  0  0  0  0
  -21.2319   -7.5552   23.9750 H   0  0  0  0  0  0  0  0  0  0  0  0
  -21.1589   -6.0228   25.8556 H   0  0  0  0  0  0  0  0  0  0  0  0
  -22.0396   -2.8212   23.2809 H   0  0  0  0  0  0  0  0  0  0  0  0
  -22.4401  -11.9703   22.4008 H   0  0  0  0  0  0  0  0  0  0  0  0
  -21.1493  -13.0679   22.2082 H   0  0  0  0  0  0  0  0  0  0  0  0
  -24.6538  -15.7807   20.5848 H   0  0  0  0  0  0  0  0  0  0  0  0
  -26.2762  -15.5453   20.1156 H   0  0  0  0  0  0  0  0  0  0  0  0
  -26.6778  -32.4663   23.1464 H   0  0  0  0  0  0  0  0  0  0  0  0
  -25.0747  -34.0282   25.0566 H   0  0  0  0  0  0  0  0  0  0  0  0
  -22.7881  -31.3489   21.4131 H   0  0  0  0  0  0  0  0  0  0  0  0
  -23.3854  -35.9823   23.3648 H   0  0  0  0  0  0  0  0  0  0  0  0
  -24.3696  -36.8624   22.2204 H   0  0  0  0  0  0  0  0  0  0  0  0
  -23.7669  -37.6632   23.6516 H   0  0  0  0  0  0  0  0  0  0  0  0
  -25.9445  -31.6237   20.5691 H   0  0  0  0  0  0  0  0  0  0  0  0
  -26.7436  -31.0079   22.0108 H   0  0  0  0  0  0  0  0  0  0  0  0
  -28.0090  -29.1452   21.2057 H   0  0  0  0  0  0  0  0  0  0  0  0
  -26.1369  -26.0560   19.0719 H   0  0  0  0  0  0  0  0  0  0  0  0
  -24.0652  -27.2961   19.0997 H   0  0  0  0  0  0  0  0  0  0  0  0
  -23.6156  -30.5365   19.3930 H   0  0  0  0  0  0  0  0  0  0  0  0
  -22.7355  -29.1425   19.9945 H   0  0  0  0  0  0  0  0  0  0  0  0
  -25.1353  -36.2335   25.0565 H   0  0  0  0  0  0  0  0  0  0  0  0
  -21.0070  -28.3206   24.0793 H   0  0  0  0  0  0  0  0  0  0  0  0
  -20.5555  -26.2518   23.3550 H   0  0  0  0  0  0  0  0  0  0  0  0
  -21.5974  -26.8362   22.0454 H   0  0  0  0  0  0  0  0  0  0  0  0
  -19.6810  -25.6422   21.1488 H   0  0  0  0  0  0  0  0  0  0  0  0
  -19.6406  -27.3343   20.7034 H   0  0  0  0  0  0  0  0  0  0  0  0
  -17.4282  -26.6888   21.4113 H   0  0  0  0  0  0  0  0  0  0  0  0
  -18.0803  -26.0130   22.9049 H   0  0  0  0  0  0  0  0  0  0  0  0
  -19.7265  -30.6774   24.2204 H   0  0  0  0  0  0  0  0  0  0  0  0
  -17.5064  -31.5856   24.4483 H   0  0  0  0  0  0  0  0  0  0  0  0
  -15.5878  -30.2839   23.7407 H   0  0  0  0  0  0  0  0  0  0  0  0
  -15.9120  -28.0941   22.7766 H   0  0  0  0  0  0  0  0  0  0  0  0
  -24.5787  -30.7757   25.6817 H   0  0  0  0  0  0  0  0  0  0  0  0
  -25.0041  -32.2289   26.5536 H   0  0  0  0  0  0  0  0  0  0  0  0
  -25.8166  -30.7245   26.9138 H   0  0  0  0  0  0  0  0  0  0  0  0
  -26.2892  -29.7335   24.0803 H   0  0  0  0  0  0  0  0  0  0  0  0
  -27.4336  -29.7484   25.4006 H   0  0  0  0  0  0  0  0  0  0  0  0
  -27.8466  -30.4994   23.8779 H   0  0  0  0  0  0  0  0  0  0  0  0
  -27.2251  -33.3632   26.1242 H   0  0  0  0  0  0  0  0  0  0  0  0
  -28.3902  -32.6065   25.0645 H   0  0  0  0  0  0  0  0  0  0  0  0
  -27.9772  -31.8555   26.5872 H   0  0  0  0  0  0  0  0  0  0  0  0
  -28.2744  -38.0016   24.6863 H   0  0  0  0  0  0  0  0  0  0  0  0
  -28.0396  -36.2711   24.7461 H   0  0  0  0  0  0  0  0  0  0  0  0
  -27.1773  -37.3087   25.8564 H   0  0  0  0  0  0  0  0  0  0  0  0
  -20.9627  -29.9365   21.7352 H   0  0  0  0  0  0  0  0  0  0  0  0
  -26.0447  -38.2561   24.0273 H   0  0  0  0  0  0  0  0  0  0  0  0
  -25.0235  -20.7274   17.8744 H   0  0  0  0  0  0  0  0  0  0  0  0
  -26.4969  -18.9026   18.4979 H   0  0  0  0  0  0  0  0  0  0  0  0
  -24.0097  -16.1973   16.4570 H   0  0  0  0  0  0  0  0  0  0  0  0
  -16.6780  -23.0450   16.2215 H   0  0  0  0  0  0  0  0  0  0  0  0
  -17.1264  -22.0738   17.6031 H   0  0  0  0  0  0  0  0  0  0  0  0
  -17.3612  -21.4541   15.9863 H   0  0  0  0  0  0  0  0  0  0  0  0
  -18.4178  -23.9614   14.7117 H   0  0  0  0  0  0  0  0  0  0  0  0
  -19.1450  -22.3841   14.5213 H   0  0  0  0  0  0  0  0  0  0  0  0
  -20.1133  -23.7325   15.0664 H   0  0  0  0  0  0  0  0  0  0  0  0
  -18.0443  -24.9100   16.9898 H   0  0  0  0  0  0  0  0  0  0  0  0
  -19.7520  -24.7159   17.3046 H   0  0  0  0  0  0  0  0  0  0  0  0
  -18.5778  -24.0339   18.4043 H   0  0  0  0  0  0  0  0  0  0  0  0
  -22.2627  -25.2279   18.0990 H   0  0  0  0  0  0  0  0  0  0  0  0
  -23.3388  -23.4866   17.7408 H   0  0  0  0  0  0  0  0  0  0  0  0
  -19.5844  -21.6735   18.0960 H   0  0  0  0  0  0  0  0  0  0  0  0
  -19.8840  -21.1482   16.3993 H   0  0  0  0  0  0  0  0  0  0  0  0
  -21.4406  -22.9938   16.2348 H   0  0  0  0  0  0  0  0  0  0  0  0
  -25.8479  -15.5605   17.4337 H   0  0  0  0  0  0  0  0  0  0  0  0
  -22.3812  -21.0814   18.3398 H   0  0  0  0  0  0  0  0  0  0  0  0
  -23.0345  -20.3076   14.4578 H   0  0  0  0  0  0  0  0  0  0  0  0
  -21.9907  -21.5976   14.8506 H   0  0  0  0  0  0  0  0  0  0  0  0
  1 25  1  0
  1 30  2  0
  1 86  1  0
  2  3  1  0
  2 25  1  0
  2 91  1  0
  2 92  1  0
  3  4  1  0
  3 93  1  0
  3 94  1  0
  4  5  1  0
  4 95  1  0
  4 96  1  0
  5  6  1  0
  5 26  1  0
  5 97  1  6
  6 25  1  0
  6 98  1  0
  6 99  1  0
  7  8  2  0
  7 26  1  0
  7 29  1  0
  8  9  1  0
  8 22  1  0
  9 10  1  0
  9 27  2  0
 10 11  2  0
 10 15  1  0
 11 12  1  0
 11100  1  0
 12 13  2  0
 12101  1  0
 13 14  1  0
 13 31  1  0
 14 15  2  0
 14102  1  0
 15103  1  0
 16 17  2  0
 16 21  1  0
 16 31  1  0
 17 18  1  0
 17104  1  0
 18 19  2  0
 18105  1  0
 19 20  1  0
 19 24  1  0
 20 21  2  0
 20106  1  0
 21 23  1  0
 22 28  1  0
 22 32  2  0
 26 27  1  0
 28107  1  0
 28108  1  0
 29109  1  0
 29110  1  0
 33 34  1  0
 33 66  1  0
 33 70  2  0
 34 36  1  0
 34 59  1  0
 34111  1  6
 35 44  2  0
 35 45  1  0
 35 68  1  0
 36 56  1  0
 36112  1  0
 37 39  1  0
 37 47  1  0
 37 66  1  0
 37113  1  6
 38 43  2  0
 38 46  1  0
 38 47  1  0
 39 64  1  0
 39 67  2  0
 40 52  1  0
 40 53  2  0
 40 58  1  0
 41114  1  0
 41115  1  0
 41116  1  0
 42 43  1  0
 42 66  1  0
 42117  1  0
 42118  1  0
 43 44  1  0
 44119  1  0
 45 46  2  0
 45120  1  0
 46121  1  0
 47122  1  0
 47123  1  0
 48 41  1  0
 48 56  1  0
 48 65  1  0
 48124  1  1
 49 50  1  0
 49 53  1  0
 49 64  1  0
 49125  1  1
 50 51  1  0
 50126  1  0
 50127  1  0
 51 52  1  0
 51128  1  0
 51129  1  0
 52130  1  0
 52131  1  0
 53 54  1  0
 54 55  2  0
 54132  1  0
 55 57  1  0
 55133  1  0
 56 69  2  0
 57 58  2  0
 57134  1  0
 58135  1  0
 59 60  1  0
 59 61  1  0
 59 62  1  0
 60136  1  0
 60137  1  0
 60138  1  0
 61139  1  0
 61140  1  0
 61141  1  0
 62142  1  0
 62143  1  0
 62144  1  0
 63 65  1  0
 63145  1  0
 63146  1  0
 63147  1  0
 64148  1  0
 65149  1  0
 68 82  1  0
 71 72  2  0
 71 74  1  0
 71150  1  0
 72 75  1  0
 72151  1  0
 73 75  2  0
 73 76  1  0
 73152  1  0
 74 76  2  0
 74 77  1  0
 75 86  1  0
 76 90  1  0
 77 87  1  0
 77 88  2  0
 78 82  1  0
 78 84  1  0
 78 89  2  0
 79153  1  0
 79154  1  0
 79155  1  0
 80 85  1  0
 80156  1  0
 80157  1  0
 80158  1  0
 81 85  1  0
 81159  1  0
 81160  1  0
 81161  1  0
 82162  1  0
 82163  1  0
 83 85  1  0
 83164  1  0
 83165  1  0
 84 83  1  0
 84 87  1  0
 84166  1  6
 85 79  1  0
 86167  1  0
 87168  1  0
 88169  1  0
 88170  1  0
M  CHG  1  88   1
M  ISO  4   1 100  68 101  82 101  86 100
M  END
$$$$
45
     RDKit          3D

155163  0  0  0  0  0  0  0  0999 V2000
  -30.7652  -14.3608   20.6636 C   0  0  0  0  0  0  0  0  0100  0  0
  -30.4392  -12.2669   19.3775 C   0  0  0  0  0  0  0  0  0101  0  0
  -29.4791  -12.5281   18.1977 C   0  0  0  0  0  0  0  0  0102  0  0
  -27.9985  -12.3963   18.6038 C   0  0  0  0  0  0  0  0  0103  0  0
  -27.6639  -13.2170   19.8820 C   0  0  2  0  0  0  0  0  0104  0  0
  -28.6795  -12.9602   21.0279 C   0  0  0  0  0  0  0  0  0105  0  0
  -25.2633  -13.8245   20.5754 C   0  0  0  0  0  0  0  0  0106  0  0
  -24.1645  -13.0409   20.9408 C   0  0  0  0  0  0  0  0  0107  0  0
  -24.6400  -11.7009   20.8697 C   0  0  0  0  0  0  0  0  0108  0  0
  -23.9005  -10.4085   21.0420 C   0  0  0  0  0  0  0  0  0109  0  0
  -24.3588   -9.4123   21.9123 C   0  0  0  0  0  0  0  0  0110  0  0
  -23.6296   -8.2350   22.0803 C   0  0  0  0  0  0  0  0  0111  0  0
  -22.4385   -8.0419   21.3657 C   0  0  0  0  0  0  0  0  0112  0  0
  -22.0103   -9.0167   20.4678 C   0  0  0  0  0  0  0  0  0113  0  0
  -22.7317  -10.1925   20.3102 C   0  0  0  0  0  0  0  0  0114  0  0
  -21.6857   -6.0709   22.5391 C   0  0  0  0  0  0  0  0  0115  0  0
  -21.4064   -6.5490   23.8264 C   0  0  0  0  0  0  0  0  0116  0  0
  -21.3635   -5.6677   24.9085 C   0  0  0  0  0  0  0  0  0117  0  0
  -21.5973   -4.3067   24.7088 C   0  0  0  0  0  0  0  0  0118  0  0
  -21.8700   -3.8284   23.4282 C   0  0  0  0  0  0  0  0  0119  0  0
  -21.9144   -4.7056   22.3460 C   0  0  0  0  0  0  0  0  0120  0  0
  -22.8194  -13.5263   21.1763 C   0  0  0  0  0  0  0  0  0121  0  0
  -22.1559   -4.2206   21.1063 F   0  0  0  0  0  0  0  0  0122  0  0
  -21.5628   -3.4510   25.7555 F   0  0  0  0  0  0  0  0  0123  0  0
  -30.0261  -13.1803   20.4553 N   0  0  0  0  0  0  0  0  0124  0  0
  -26.2911  -12.9356   20.3443 N   0  0  0  0  0  0  0  0  0125  0  0
  -25.9236  -11.6675   20.5847 N   0  0  0  0  0  0  0  0  0126  0  0
  -22.0708  -12.7905   22.0005 N   0  0  0  0  0  0  0  0  0127  0  0
  -25.4117  -15.1773   20.4097 N   0  0  0  0  0  0  0  0  0128  0  0
  -31.7916  -14.6724   20.0536 O   0  0  0  0  0  0  0  0  0129  0  0
  -21.6670   -6.9022   21.4423 O   0  0  0  0  0  0  0  0  0130  0  0
  -22.3946  -14.5564   20.6568 O   0  0  0  0  0  0  0  0  0131  0  0
  -24.6048  -31.8614   23.2223 C   0  0  0  0  0  0  0  0  0100  0  0
  -25.8822  -32.4841   23.8616 C   0  0  1  0  0  0  0  0  0101  0  0
  -27.2536  -27.5042   20.1156 C   0  0  0  0  0  0  0  0  0102  0  0
  -25.5726  -33.8762   24.2210 N   0  0  0  0  0  0  0  0  0103  0  0
  -23.4066  -30.4859   21.5461 C   0  0  2  0  0  0  0  0  0104  0  0
  -24.8467  -28.9636   20.1247 C   0  0  0  0  0  0  0  0  0105  0  0
  -22.7412  -29.4652   22.5052 C   0  0  0  0  0  0  0  0  0106  0  0
  -18.0167  -28.1302   22.8626 C   0  0  0  0  0  0  0  0  0107  0  0
  -24.1342  -36.7390   23.2568 C   0  0  0  0  0  0  0  0  0108  0  0
  -25.9141  -30.8882   21.3456 C   0  0  0  0  0  0  0  0  0109  0  0
  -25.9930  -29.5029   20.7208 C   0  0  0  0  0  0  0  0  0110  0  0
  -27.1758  -28.7612   20.7331 C   0  0  0  0  0  0  0  0  0111  0  0
  -26.1032  -26.9836   19.5230 C   0  0  0  0  0  0  0  0  0112  0  0
  -24.9097  -27.7011   19.5331 C   0  0  0  0  0  0  0  0  0113  0  0
  -23.5715  -29.7899   20.1582 C   0  0  0  0  0  0  0  0  0114  0  0
  -25.3990  -36.3212   24.0232 C   0  0  1  0  0  0  0  0  0115  0  0
  -20.5793  -28.3813   23.1004 C   0  0  2  0  0  0  0  0  0116  0  0
  -20.6548  -26.9392   22.5411 C   0  0  0  0  0  0  0  0  0117  0  0
  -19.5615  -26.6407   21.5143 C   0  0  0  0  0  0  0  0  0118  0  0
  -18.1797  -26.7818   22.1673 C   0  0  0  0  0  0  0  0  0119  0  0
  -19.1385  -28.8769   23.2988 C   0  0  0  0  0  0  0  0  0120  0  0
  -18.9183  -30.1286   23.8878 C   0  0  0  0  0  0  0  0  0121  0  0
  -17.6396  -30.6493   24.0352 C   0  0  0  0  0  0  0  0  0122  0  0
  -25.9153  -34.9582   23.4993 C   0  0  0  0  0  0  0  0  0123  0  0
  -16.5415  -29.9068   23.6254 C   0  0  0  0  0  0  0  0  0124  0  0
  -16.7331  -28.6521   23.0586 C   0  0  0  0  0  0  0  0  0125  0  0
  -26.4583  -31.6439   25.0683 C   0  0  0  0  0  0  0  0  0126  0  0
  -25.3807  -31.3179   26.1374 C   0  0  0  0  0  0  0  0  0127  0  0
  -27.0530  -30.3024   24.5680 C   0  0  0  0  0  0  0  0  0128  0  0
  -27.6014  -32.4281   25.7651 C   0  0  0  0  0  0  0  0  0129  0  0
  -27.5629  -37.2220   24.8621 C   0  0  0  0  0  0  0  0  0130  0  0
  -21.4133  -29.3375   22.3735 N   0  0  0  0  0  0  0  0  0131  0  0
  -26.4706  -37.3372   23.9061 N   0  0  0  0  0  0  0  0  0132  0  0
  -24.6674  -31.0544   22.1178 N   0  0  0  0  0  0  0  0  0133  0  0
  -23.4259  -28.8150   23.2971 O   0  0  0  0  0  0  0  0  0134  0  0
  -28.3948  -26.7345   20.0089 O   0  0  0  0  0  0  0  0  0135  0  0
  -26.5870  -34.9065   22.4671 O   0  0  0  0  0  0  0  0  0136  0  0
  -23.5365  -32.1254   23.7833 O   0  0  0  0  0  0  0  0  0137  0  0
  -29.3610  -19.2352   23.6943 C   0  0  0  0  0  0  0  0  0  0  0  0
  -30.0421  -17.4966   22.1785 C   0  0  0  0  0  0  0  0  0  0  0  0
  -29.5502  -18.7791   22.3945 C   0  0  0  0  0  0  0  0  0  0  0  0
  -29.6763  -18.3769   24.7352 C   0  0  0  0  0  0  0  0  0  0  0  0
  -30.3271  -16.7161   23.2873 C   0  0  0  0  0  0  0  0  0  0  0  0
  -27.9719  -16.6358   28.8357 C   0  0  0  0  0  0  0  0  0  0  0  0
  -28.2906  -17.9221   28.1315 C   0  0  0  0  0  0  0  0  0  0  0  0
  -30.7218  -19.5335   26.7255 C   0  0  0  0  0  0  0  0  0  0  0  0
  -27.2875  -15.5693   28.0208 C   0  0  0  0  0  0  0  0  0  1  0  0
  -29.4829  -18.8396   26.1632 C   0  0  2  0  0  0  0  0  0  0  0  0
  -30.1562  -17.1246   24.5646 N   0  0  0  0  0  0  0  0  0  0  0  0
  -29.2441  -19.6181   21.2945 N   0  0  0  0  0  0  0  0  0  0  0  0
  -29.0800  -17.7473   27.0182 N   0  0  0  0  0  0  0  0  0  0  0  0
  -28.3066  -16.5355   30.0066 O   0  0  0  0  0  0  0  0  0  0  0  0
  -27.8123  -18.9511   28.5820 O   0  0  0  0  0  0  0  0  0  0  0  0
  -30.8033  -15.4766   23.0927 F   0  0  0  0  0  0  0  0  0  0  0  0
  -31.4485  -12.4701   19.0860 H   0  0  0  0  0  0  0  0  0  0  0  0
  -30.3970  -11.2460   19.6950 H   0  0  0  0  0  0  0  0  0  0  0  0
  -29.6870  -11.8204   17.4226 H   0  0  0  0  0  0  0  0  0  0  0  0
  -29.6375  -13.5326   17.8649 H   0  0  0  0  0  0  0  0  0  0  0  0
  -27.7830  -11.3650   18.7904 H   0  0  0  0  0  0  0  0  0  0  0  0
  -27.4028  -12.7801   17.8021 H   0  0  0  0  0  0  0  0  0  0  0  0
  -27.7353  -14.2503   19.6136 H   0  0  0  0  0  0  0  0  0  0  0  0
  -28.5890  -11.9550   21.3832 H   0  0  0  0  0  0  0  0  0  0  0  0
  -28.5005  -13.6134   21.8562 H   0  0  0  0  0  0  0  0  0  0  0  0
  -25.2399   -9.5495   22.4318 H   0  0  0  0  0  0  0  0  0  0  0  0
  -23.9663   -7.5070   22.7297 H   0  0  0  0  0  0  0  0  0  0  0  0
  -21.1515   -8.8641   19.9162 H   0  0  0  0  0  0  0  0  0  0  0  0
  -22.4016  -10.9115   19.6476 H   0  0  0  0  0  0  0  0  0  0  0  0
  -21.2319   -7.5552   23.9750 H   0  0  0  0  0  0  0  0  0  0  0  0
  -21.1589   -6.0228   25.8556 H   0  0  0  0  0  0  0  0  0  0  0  0
  -22.0396   -2.8212   23.2809 H   0  0  0  0  0  0  0  0  0  0  0  0
  -22.4401  -11.9703   22.4008 H   0  0  0  0  0  0  0  0  0  0  0  0
  -21.1493  -13.0679   22.2082 H   0  0  0  0  0  0  0  0  0  0  0  0
  -24.6538  -15.7807   20.5848 H   0  0  0  0  0  0  0  0  0  0  0  0
  -26.2762  -15.5453   20.1156 H   0  0  0  0  0  0  0  0  0  0  0  0
  -26.6778  -32.4663   23.1464 H   0  0  0  0  0  0  0  0  0  0  0  0
  -25.0747  -34.0282   25.0566 H   0  0  0  0  0  0  0  0  0  0  0  0
  -22.7881  -31.3489   21.4131 H   0  0  0  0  0  0  0  0  0  0  0  0
  -23.3854  -35.9823   23.3648 H   0  0  0  0  0  0  0  0  0  0  0  0
  -24.3696  -36.8624   22.2204 H   0  0  0  0  0  0  0  0  0  0  0  0
  -23.7669  -37.6632   23.6516 H   0  0  0  0  0  0  0  0  0  0  0  0
  -25.9445  -31.6237   20.5691 H   0  0  0  0  0  0  0  0  0  0  0  0
  -26.7436  -31.0079   22.0108 H   0  0  0  0  0  0  0  0  0  0  0  0
  -28.0090  -29.1452   21.2057 H   0  0  0  0  0  0  0  0  0  0  0  0
  -26.1369  -26.0560   19.0719 H   0  0  0  0  0  0  0  0  0  0  0  0
  -24.0652  -27.2961   19.0997 H   0  0  0  0  0  0  0  0  0  0  0  0
  -23.6156  -30.5365   19.3930 H   0  0  0  0  0  0  0  0  0  0  0  0
  -22.7355  -29.1425   19.9945 H   0  0  0  0  0  0  0  0  0  0  0  0
  -25.1353  -36.2335   25.0565 H   0  0  0  0  0  0  0  0  0  0  0  0
  -21.0070  -28.3206   24.0793 H   0  0  0  0  0  0  0  0  0  0  0  0
  -20.5555  -26.2518   23.3550 H   0  0  0  0  0  0  0  0  0  0  0  0
  -21.5974  -26.8362   22.0454 H   0  0  0  0  0  0  0  0  0  0  0  0
  -19.6810  -25.6422   21.1488 H   0  0  0  0  0  0  0  0  0  0  0  0
  -19.6406  -27.3343   20.7034 H   0  0  0  0  0  0  0  0  0  0  0  0
  -17.4282  -26.6888   21.4113 H   0  0  0  0  0  0  0  0  0  0  0  0
  -18.0803  -26.0130   22.9049 H   0  0  0  0  0  0  0  0  0  0  0  0
  -19.7265  -30.6774   24.2204 H   0  0  0  0  0  0  0  0  0  0  0  0
  -17.5064  -31.5856   24.4483 H   0  0  0  0  0  0  0  0  0  0  0  0
  -15.5878  -30.2839   23.7407 H   0  0  0  0  0  0  0  0  0  0  0  0
  -15.9120  -28.0941   22.7766 H   0  0  0  0  0  0  0  0  0  0  0  0
  -24.5787  -30.7757   25.6817 H   0  0  0  0  0  0  0  0  0  0  0  0
  -25.0041  -32.2289   26.5536 H   0  0  0  0  0  0  0  0  0  0  0  0
  -25.8166  -30.7245   26.9138 H   0  0  0  0  0  0  0  0  0  0  0  0
  -26.2892  -29.7335   24.0803 H   0  0  0  0  0  0  0  0  0  0  0  0
  -27.4336  -29.7484   25.4006 H   0  0  0  0  0  0  0  0  0  0  0  0
  -27.8466  -30.4994   23.8779 H   0  0  0  0  0  0  0  0  0  0  0  0
  -27.2251  -33.3632   26.1242 H   0  0  0  0  0  0  0  0  0  0  0  0
  -28.3902  -32.6065   25.0645 H   0  0  0  0  0  0  0  0  0  0  0  0
  -27.9772  -31.8555   26.5872 H   0  0  0  0  0  0  0  0  0  0  0  0
  -28.2744  -38.0016   24.6863 H   0  0  0  0  0  0  0  0  0  0  0  0
  -28.0396  -36.2711   24.7461 H   0  0  0  0  0  0  0  0  0  0  0  0
  -27.1773  -37.3087   25.8564 H   0  0  0  0  0  0  0  0  0  0  0  0
  -20.9627  -29.9365   21.7352 H   0  0  0  0  0  0  0  0  0  0  0  0
  -26.0447  -38.2561   24.0273 H   0  0  0  0  0  0  0  0  0  0  0  0
  -28.9971  -20.1833   23.8779 H   0  0  0  0  0  0  0  0  0  0  0  0
  -30.1902  -17.1374   21.2224 H   0  0  0  0  0  0  0  0  0  0  0  0
  -31.0041  -20.3382   26.0792 H   0  0  0  0  0  0  0  0  0  0  0  0
  -31.5255  -18.8302   26.7913 H   0  0  0  0  0  0  0  0  0  0  0  0
  -30.5038  -19.9182   27.6999 H   0  0  0  0  0  0  0  0  0  0  0  0
  -26.3056  -15.2679   28.3207 H   0  0  0  0  0  0  0  0  0  0  0  0
  -27.5990  -14.5644   27.8257 H   0  0  0  0  0  0  0  0  0  0  0  0
  -28.6958  -19.5641   26.1434 H   0  0  0  0  0  0  0  0  0  0  0  0
  -28.9676  -20.4868   20.9227 H   0  0  0  0  0  0  0  0  0  0  0  0
  -29.3835  -16.8379   26.7945 H   0  0  0  0  0  0  0  0  0  0  0  0
  1 25  1  0
  1 30  2  0
  1 82  1  0
  2  3  1  0
  2 25  1  0
  2 87  1  0
  2 88  1  0
  3  4  1  0
  3 89  1  0
  3 90  1  0
  4  5  1  0
  4 91  1  0
  4 92  1  0
  5  6  1  0
  5 26  1  0
  5 93  1  6
  6 25  1  0
  6 94  1  0
  6 95  1  0
  7  8  2  0
  7 26  1  0
  7 29  1  0
  8  9  1  0
  8 22  1  0
  9 10  1  0
  9 27  2  0
 10 11  2  0
 10 15  1  0
 11 12  1  0
 11 96  1  0
 12 13  2  0
 12 97  1  0
 13 14  1  0
 13 31  1  0
 14 15  2  0
 14 98  1  0
 15 99  1  0
 16 17  2  0
 16 21  1  0
 16 31  1  0
 17 18  1  0
 17100  1  0
 18 19  2  0
 18101  1  0
 19 20  1  0
 19 24  1  0
 20 21  2  0
 20102  1  0
 21 23  1  0
 22 28  1  0
 22 32  2  0
 26 27  1  0
 28103  1  0
 28104  1  0
 29105  1  0
 29106  1  0
 33 34  1  0
 33 66  1  0
 33 70  2  0
 34 36  1  0
 34 59  1  0
 34107  1  6
 35 44  2  0
 35 45  1  0
 35 68  1  0
 36 56  1  0
 36108  1  0
 37 39  1  0
 37 47  1  0
 37 66  1  0
 37109  1  6
 38 43  2  0
 38 46  1  0
 38 47  1  0
 39 64  1  0
 39 67  2  0
 40 52  1  0
 40 53  2  0
 40 58  1  0
 41110  1  0
 41111  1  0
 41112  1  0
 42 43  1  0
 42 66  1  0
 42113  1  0
 42114  1  0
 43 44  1  0
 44115  1  0
 45 46  2  0
 45116  1  0
 46117  1  0
 47118  1  0
 47119  1  0
 48 41  1  0
 48 56  1  0
 48 65  1  0
 48120  1  1
 49 50  1  0
 49 53  1  0
 49 64  1  0
 49121  1  1
 50 51  1  0
 50122  1  0
 50123  1  0
 51 52  1  0
 51124  1  0
 51125  1  0
 52126  1  0
 52127  1  0
 53 54  1  0
 54 55  2  0
 54128  1  0
 55 57  1  0
 55129  1  0
 56 69  2  0
 57 58  2  0
 57130  1  0
 58131  1  0
 59 60  1  0
 59 61  1  0
 59 62  1  0
 60132  1  0
 60133  1  0
 60134  1  0
 61135  1  0
 61136  1  0
 61137  1  0
 62138  1  0
 62139  1  0
 62140  1  0
 63 65  1  0
 63141  1  0
 63142  1  0
 63143  1  0
 64144  1  0
 65145  1  0
 68 79  1  0
 71 73  2  0
 71 74  1  0
 71146  1  0
 72 73  1  0
 72 75  2  0
 72147  1  0
 73 82  1  0
 74 80  1  0
 74 81  2  0
 75 81  1  0
 75 86  1  0
 76 77  1  0
 76 79  1  0
 76 84  2  0
 77 83  1  0
 77 85  2  0
 78148  1  0
 78149  1  0
 78150  1  0
 79151  1  0
 79152  1  0
 80 78  1  0
 80 83  1  0
 80153  1  6
 82154  1  0
 83155  1  0
M  ISO  4   1 100  68 101  79 101  82 100
M  END
$$$$
46
     RDKit          3D

164172  0  0  0  0  0  0  0  0999 V2000
  -30.7652  -14.3608   20.6636 C   0  0  0  0  0  0  0  0  0100  0  0
  -30.4392  -12.2669   19.3775 C   0  0  0  0  0  0  0  0  0101  0  0
  -29.4791  -12.5281   18.1977 C   0  0  0  0  0  0  0  0  0102  0  0
  -27.9985  -12.3963   18.6038 C   0  0  0  0  0  0  0  0  0103  0  0
  -27.6639  -13.2170   19.8820 C   0  0  2  0  0  0  0  0  0104  0  0
  -28.6795  -12.9602   21.0279 C   0  0  0  0  0  0  0  0  0105  0  0
  -25.2633  -13.8245   20.5754 C   0  0  0  0  0  0  0  0  0106  0  0
  -24.1645  -13.0409   20.9408 C   0  0  0  0  0  0  0  0  0107  0  0
  -24.6400  -11.7009   20.8697 C   0  0  0  0  0  0  0  0  0108  0  0
  -23.9005  -10.4085   21.0420 C   0  0  0  0  0  0  0  0  0109  0  0
  -24.3588   -9.4123   21.9123 C   0  0  0  0  0  0  0  0  0110  0  0
  -23.6296   -8.2350   22.0803 C   0  0  0  0  0  0  0  0  0111  0  0
  -22.4385   -8.0419   21.3657 C   0  0  0  0  0  0  0  0  0112  0  0
  -22.0103   -9.0167   20.4678 C   0  0  0  0  0  0  0  0  0113  0  0
  -22.7317  -10.1925   20.3102 C   0  0  0  0  0  0  0  0  0114  0  0
  -21.6857   -6.0709   22.5391 C   0  0  0  0  0  0  0  0  0115  0  0
  -21.4064   -6.5490   23.8264 C   0  0  0  0  0  0  0  0  0116  0  0
  -21.3635   -5.6677   24.9085 C   0  0  0  0  0  0  0  0  0117  0  0
  -21.5973   -4.3067   24.7088 C   0  0  0  0  0  0  0  0  0118  0  0
  -21.8700   -3.8284   23.4282 C   0  0  0  0  0  0  0  0  0119  0  0
  -21.9144   -4.7056   22.3460 C   0  0  0  0  0  0  0  0  0120  0  0
  -22.8194  -13.5263   21.1763 C   0  0  0  0  0  0  0  0  0121  0  0
  -22.1559   -4.2206   21.1063 F   0  0  0  0  0  0  0  0  0122  0  0
  -21.5628   -3.4510   25.7555 F   0  0  0  0  0  0  0  0  0123  0  0
  -30.0261  -13.1803   20.4553 N   0  0  0  0  0  0  0  0  0124  0  0
  -26.2911  -12.9356   20.3443 N   0  0  0  0  0  0  0  0  0125  0  0
  -25.9236  -11.6675   20.5847 N   0  0  0  0  0  0  0  0  0126  0  0
  -22.0708  -12.7905   22.0005 N   0  0  0  0  0  0  0  0  0127  0  0
  -25.4117  -15.1773   20.4097 N   0  0  0  0  0  0  0  0  0128  0  0
  -31.7916  -14.6724   20.0536 O   0  0  0  0  0  0  0  0  0129  0  0
  -21.6670   -6.9022   21.4423 O   0  0  0  0  0  0  0  0  0130  0  0
  -22.3946  -14.5564   20.6568 O   0  0  0  0  0  0  0  0  0131  0  0
  -24.6048  -31.8614   23.2223 C   0  0  0  0  0  0  0  0  0100  0  0
  -25.8822  -32.4841   23.8616 C   0  0  1  0  0  0  0  0  0101  0  0
  -27.2536  -27.5042   20.1156 C   0  0  0  0  0  0  0  0  0102  0  0
  -25.5726  -33.8762   24.2210 N   0  0  0  0  0  0  0  0  0103  0  0
  -23.4066  -30.4859   21.5461 C   0  0  2  0  0  0  0  0  0104  0  0
  -24.8467  -28.9636   20.1247 C   0  0  0  0  0  0  0  0  0105  0  0
  -22.7412  -29.4652   22.5052 C   0  0  0  0  0  0  0  0  0106  0  0
  -18.0167  -28.1302   22.8626 C   0  0  0  0  0  0  0  0  0107  0  0
  -24.1342  -36.7390   23.2568 C   0  0  0  0  0  0  0  0  0108  0  0
  -25.9141  -30.8882   21.3456 C   0  0  0  0  0  0  0  0  0109  0  0
  -25.9930  -29.5029   20.7208 C   0  0  0  0  0  0  0  0  0110  0  0
  -27.1758  -28.7612   20.7331 C   0  0  0  0  0  0  0  0  0111  0  0
  -26.1032  -26.9836   19.5230 C   0  0  0  0  0  0  0  0  0112  0  0
  -24.9097  -27.7011   19.5331 C   0  0  0  0  0  0  0  0  0113  0  0
  -23.5715  -29.7899   20.1582 C   0  0  0  0  0  0  0  0  0114  0  0
  -25.3990  -36.3212   24.0232 C   0  0  1  0  0  0  0  0  0115  0  0
  -20.5793  -28.3813   23.1004 C   0  0  2  0  0  0  0  0  0116  0  0
  -20.6548  -26.9392   22.5411 C   0  0  0  0  0  0  0  0  0117  0  0
  -19.5615  -26.6407   21.5143 C   0  0  0  0  0  0  0  0  0118  0  0
  -18.1797  -26.7818   22.1673 C   0  0  0  0  0  0  0  0  0119  0  0
  -19.1385  -28.8769   23.2988 C   0  0  0  0  0  0  0  0  0120  0  0
  -18.9183  -30.1286   23.8878 C   0  0  0  0  0  0  0  0  0121  0  0
  -17.6396  -30.6493   24.0352 C   0  0  0  0  0  0  0  0  0122  0  0
  -25.9153  -34.9582   23.4993 C   0  0  0  0  0  0  0  0  0123  0  0
  -16.5415  -29.9068   23.6254 C   0  0  0  0  0  0  0  0  0124  0  0
  -16.7331  -28.6521   23.0586 C   0  0  0  0  0  0  0  0  0125  0  0
  -26.4583  -31.6439   25.0683 C   0  0  0  0  0  0  0  0  0126  0  0
  -25.3807  -31.3179   26.1374 C   0  0  0  0  0  0  0  0  0127  0  0
  -27.0530  -30.3024   24.5680 C   0  0  0  0  0  0  0  0  0128  0  0
  -27.6014  -32.4281   25.7651 C   0  0  0  0  0  0  0  0  0129  0  0
  -27.5629  -37.2220   24.8621 C   0  0  0  0  0  0  0  0  0130  0  0
  -21.4133  -29.3375   22.3735 N   0  0  0  0  0  0  0  0  0131  0  0
  -26.4706  -37.3372   23.9061 N   0  0  0  0  0  0  0  0  0132  0  0
  -24.6674  -31.0544   22.1178 N   0  0  0  0  0  0  0  0  0133  0  0
  -23.4259  -28.8150   23.2971 O   0  0  0  0  0  0  0  0  0134  0  0
  -28.3948  -26.7345   20.0089 O   0  0  0  0  0  0  0  0  0135  0  0
  -26.5870  -34.9065   22.4671 O   0  0  0  0  0  0  0  0  0136  0  0
  -23.5365  -32.1254   23.7833 O   0  0  0  0  0  0  0  0  0137  0  0
  -22.3871  -21.8688   17.7348 C   0  0  0  0  0  0  0  0  0  0  0  0
  -22.0689  -20.9305   19.9383 C   0  0  0  0  0  0  0  0  0  0  0  0
  -23.4555  -19.7840   18.3259 C   0  0  0  0  0  0  0  0  0  0  0  0
  -21.8188  -21.9382   19.0068 C   0  0  0  0  0  0  0  0  0  0  0  0
  -23.2054  -20.7916   17.3943 C   0  0  0  0  0  0  0  0  0  0  0  0
  -22.8873  -19.8534   19.5979 C   0  0  0  0  0  0  0  0  0  0  0  0
  -24.3117  -18.6552   17.9688 C   0  0  0  0  0  0  0  0  0  0  0  0
  -19.7758  -25.0825   19.1448 C   0  0  0  0  0  0  0  0  0  0  0  0
  -23.6496  -17.4557   17.3631 C   0  0  0  0  0  0  0  0  0  0  0  0
  -18.5562  -25.9163   17.1114 C   0  0  0  0  0  0  0  0  0  0  0  0
  -20.6913  -24.0930   18.4489 C   0  0  0  0  0  0  0  0  0  0  0  0
  -20.4901  -27.2439   18.0255 C   0  0  0  0  0  0  0  0  0  1  0  0
  -19.3244  -26.3183   18.3644 C   0  0  2  0  0  0  0  0  0  0  0  0
  -23.7696  -20.7423   16.0998 N   0  0  0  0  0  0  0  0  0  0  0  0
  -23.1252  -18.8428   20.5621 N   0  0  0  0  0  0  0  0  0  0  0  0
  -21.0048  -23.0081   19.3461 N   0  0  0  0  0  0  0  0  0  0  0  0
  -25.5290  -18.6205   18.1344 O   0  0  0  0  0  0  0  0  0  0  0  0
  -19.3916  -24.9138   20.3043 O   0  0  0  0  0  0  0  0  0  0  0  0
  -18.4541  -27.0427   19.1370 F   0  0  0  0  0  0  0  0  0  0  0  0
  -31.4485  -12.4701   19.0860 H   0  0  0  0  0  0  0  0  0  0  0  0
  -30.3970  -11.2460   19.6950 H   0  0  0  0  0  0  0  0  0  0  0  0
  -29.6870  -11.8204   17.4226 H   0  0  0  0  0  0  0  0  0  0  0  0
  -29.6375  -13.5326   17.8649 H   0  0  0  0  0  0  0  0  0  0  0  0
  -27.7830  -11.3650   18.7904 H   0  0  0  0  0  0  0  0  0  0  0  0
  -27.4028  -12.7801   17.8021 H   0  0  0  0  0  0  0  0  0  0  0  0
  -27.7353  -14.2503   19.6136 H   0  0  0  0  0  0  0  0  0  0  0  0
  -28.5890  -11.9550   21.3832 H   0  0  0  0  0  0  0  0  0  0  0  0
  -28.5005  -13.6134   21.8562 H   0  0  0  0  0  0  0  0  0  0  0  0
  -25.2399   -9.5495   22.4318 H   0  0  0  0  0  0  0  0  0  0  0  0
  -23.9663   -7.5070   22.7297 H   0  0  0  0  0  0  0  0  0  0  0  0
  -21.1515   -8.8641   19.9162 H   0  0  0  0  0  0  0  0  0  0  0  0
  -22.4016  -10.9115   19.6476 H   0  0  0  0  0  0  0  0  0  0  0  0
  -21.2319   -7.5552   23.9750 H   0  0  0  0  0  0  0  0  0  0  0  0
  -21.1589   -6.0228   25.8556 H   0  0  0  0  0  0  0  0  0  0  0  0
  -22.0396   -2.8212   23.2809 H   0  0  0  0  0  0  0  0  0  0  0  0
  -22.4401  -11.9703   22.4008 H   0  0  0  0  0  0  0  0  0  0  0  0
  -21.1493  -13.0679   22.2082 H   0  0  0  0  0  0  0  0  0  0  0  0
  -24.6538  -15.7807   20.5848 H   0  0  0  0  0  0  0  0  0  0  0  0
  -26.2762  -15.5453   20.1156 H   0  0  0  0  0  0  0  0  0  0  0  0
  -26.6778  -32.4663   23.1464 H   0  0  0  0  0  0  0  0  0  0  0  0
  -25.0747  -34.0282   25.0566 H   0  0  0  0  0  0  0  0  0  0  0  0
  -22.7881  -31.3489   21.4131 H   0  0  0  0  0  0  0  0  0  0  0  0
  -23.3854  -35.9823   23.3648 H   0  0  0  0  0  0  0  0  0  0  0  0
  -24.3696  -36.8624   22.2204 H   0  0  0  0  0  0  0  0  0  0  0  0
  -23.7669  -37.6632   23.6516 H   0  0  0  0  0  0  0  0  0  0  0  0
  -25.9445  -31.6237   20.5691 H   0  0  0  0  0  0  0  0  0  0  0  0
  -26.7436  -31.0079   22.0108 H   0  0  0  0  0  0  0  0  0  0  0  0
  -28.0090  -29.1452   21.2057 H   0  0  0  0  0  0  0  0  0  0  0  0
  -26.1369  -26.0560   19.0719 H   0  0  0  0  0  0  0  0  0  0  0  0
  -24.0652  -27.2961   19.0997 H   0  0  0  0  0  0  0  0  0  0  0  0
  -23.6156  -30.5365   19.3930 H   0  0  0  0  0  0  0  0  0  0  0  0
  -22.7355  -29.1425   19.9945 H   0  0  0  0  0  0  0  0  0  0  0  0
  -25.1353  -36.2335   25.0565 H   0  0  0  0  0  0  0  0  0  0  0  0
  -21.0070  -28.3206   24.0793 H   0  0  0  0  0  0  0  0  0  0  0  0
  -20.5555  -26.2518   23.3550 H   0  0  0  0  0  0  0  0  0  0  0  0
  -21.5974  -26.8362   22.0454 H   0  0  0  0  0  0  0  0  0  0  0  0
  -19.6810  -25.6422   21.1488 H   0  0  0  0  0  0  0  0  0  0  0  0
  -19.6406  -27.3343   20.7034 H   0  0  0  0  0  0  0  0  0  0  0  0
  -17.4282  -26.6888   21.4113 H   0  0  0  0  0  0  0  0  0  0  0  0
  -18.0803  -26.0130   22.9049 H   0  0  0  0  0  0  0  0  0  0  0  0
  -19.7265  -30.6774   24.2204 H   0  0  0  0  0  0  0  0  0  0  0  0
  -17.5064  -31.5856   24.4483 H   0  0  0  0  0  0  0  0  0  0  0  0
  -15.5878  -30.2839   23.7407 H   0  0  0  0  0  0  0  0  0  0  0  0
  -15.9120  -28.0941   22.7766 H   0  0  0  0  0  0  0  0  0  0  0  0
  -24.5787  -30.7757   25.6817 H   0  0  0  0  0  0  0  0  0  0  0  0
  -25.0041  -32.2289   26.5536 H   0  0  0  0  0  0  0  0  0  0  0  0
  -25.8166  -30.7245   26.9138 H   0  0  0  0  0  0  0  0  0  0  0  0
  -26.2892  -29.7335   24.0803 H   0  0  0  0  0  0  0  0  0  0  0  0
  -27.4336  -29.7484   25.4006 H   0  0  0  0  0  0  0  0  0  0  0  0
  -27.8466  -30.4994   23.8779 H   0  0  0  0  0  0  0  0  0  0  0  0
  -27.2251  -33.3632   26.1242 H   0  0  0  0  0  0  0  0  0  0  0  0
  -28.3902  -32.6065   25.0645 H   0  0  0  0  0  0  0  0  0  0  0  0
  -27.9772  -31.8555   26.5872 H   0  0  0  0  0  0  0  0  0  0  0  0
  -28.2744  -38.0016   24.6863 H   0  0  0  0  0  0  0  0  0  0  0  0
  -28.0396  -36.2711   24.7461 H   0  0  0  0  0  0  0  0  0  0  0  0
  -27.1773  -37.3087   25.8564 H   0  0  0  0  0  0  0  0  0  0  0  0
  -20.9627  -29.9365   21.7352 H   0  0  0  0  0  0  0  0  0  0  0  0
  -26.0447  -38.2561   24.0273 H   0  0  0  0  0  0  0  0  0  0  0  0
  -22.2022  -22.6144   17.0456 H   0  0  0  0  0  0  0  0  0  0  0  0
  -21.6484  -20.9818   20.8794 H   0  0  0  0  0  0  0  0  0  0  0  0
  -22.5974  -17.6321   17.2819 H   0  0  0  0  0  0  0  0  0  0  0  0
  -23.8212  -16.6017   17.9846 H   0  0  0  0  0  0  0  0  0  0  0  0
  -24.0573  -17.2765   16.3902 H   0  0  0  0  0  0  0  0  0  0  0  0
  -19.1941  -25.3449   16.4699 H   0  0  0  0  0  0  0  0  0  0  0  0
  -18.2279  -26.7952   16.5970 H   0  0  0  0  0  0  0  0  0  0  0  0
  -17.7072  -25.3265   17.3874 H   0  0  0  0  0  0  0  0  0  0  0  0
  -21.5949  -24.5874   18.1589 H   0  0  0  0  0  0  0  0  0  0  0  0
  -20.2001  -23.7050   17.5811 H   0  0  0  0  0  0  0  0  0  0  0  0
  -20.1867  -28.1949   18.4109 H   0  0  0  0  0  0  0  0  0  0  0  0
  -20.5888  -26.9694   16.9960 H   0  0  0  0  0  0  0  0  0  0  0  0
  -23.5832  -21.4615   15.4539 H   0  0  0  0  0  0  0  0  0  0  0  0
  -24.3491  -19.9887   15.8438 H   0  0  0  0  0  0  0  0  0  0  0  0
  -22.4320  -18.6359   21.2298 H   0  0  0  0  0  0  0  0  0  0  0  0
  -20.6186  -23.0284   20.2515 H   0  0  0  0  0  0  0  0  0  0  0  0
  1 25  1  0
  1 30  2  0
  1 85  1  0
  2  3  1  0
  2 25  1  0
  2 90  1  0
  2 91  1  0
  3  4  1  0
  3 92  1  0
  3 93  1  0
  4  5  1  0
  4 94  1  0
  4 95  1  0
  5  6  1  0
  5 26  1  0
  5 96  1  6
  6 25  1  0
  6 97  1  0
  6 98  1  0
  7  8  2  0
  7 26  1  0
  7 29  1  0
  8  9  1  0
  8 22  1  0
  9 10  1  0
  9 27  2  0
 10 11  2  0
 10 15  1  0
 11 12  1  0
 11 99  1  0
 12 13  2  0
 12100  1  0
 13 14  1  0
 13 31  1  0
 14 15  2  0
 14101  1  0
 15102  1  0
 16 17  2  0
 16 21  1  0
 16 31  1  0
 17 18  1  0
 17103  1  0
 18 19  2  0
 18104  1  0
 19 20  1  0
 19 24  1  0
 20 21  2  0
 20105  1  0
 21 23  1  0
 22 28  1  0
 22 32  2  0
 26 27  1  0
 28106  1  0
 28107  1  0
 29108  1  0
 29109  1  0
 33 34  1  0
 33 66  1  0
 33 70  2  0
 34 36  1  0
 34 59  1  0
 34110  1  6
 35 44  2  0
 35 45  1  0
 35 68  1  0
 36 56  1  0
 36111  1  0
 37 39  1  0
 37 47  1  0
 37 66  1  0
 37112  1  6
 38 43  2  0
 38 46  1  0
 38 47  1  0
 39 64  1  0
 39 67  2  0
 40 52  1  0
 40 53  2  0
 40 58  1  0
 41113  1  0
 41114  1  0
 41115  1  0
 42 43  1  0
 42 66  1  0
 42116  1  0
 42117  1  0
 43 44  1  0
 44118  1  0
 45 46  2  0
 45119  1  0
 46120  1  0
 47121  1  0
 47122  1  0
 48 41  1  0
 48 56  1  0
 48 65  1  0
 48123  1  1
 49 50  1  0
 49 53  1  0
 49 64  1  0
 49124  1  1
 50 51  1  0
 50125  1  0
 50126  1  0
 51 52  1  0
 51127  1  0
 51128  1  0
 52129  1  0
 52130  1  0
 53 54  1  0
 54 55  2  0
 54131  1  0
 55 57  1  0
 55132  1  0
 56 69  2  0
 57 58  2  0
 57133  1  0
 58134  1  0
 59 60  1  0
 59 61  1  0
 59 62  1  0
 60135  1  0
 60136  1  0
 60137  1  0
 61138  1  0
 61139  1  0
 61140  1  0
 62141  1  0
 62142  1  0
 62143  1  0
 63 65  1  0
 63144  1  0
 63145  1  0
 63146  1  0
 64147  1  0
 65148  1  0
 68 82  1  0
 71 74  2  0
 71 75  1  0
 71149  1  0
 72 74  1  0
 72 76  2  0
 72150  1  0
 73 75  2  0
 73 76  1  0
 73 77  1  0
 74 86  1  0
 75 84  1  0
 76 85  1  0
 77 79  1  0
 77 87  2  0
 78 81  1  0
 78 83  1  0
 78 88  2  0
 79151  1  0
 79152  1  0
 79153  1  0
 80154  1  0
 80155  1  0
 80156  1  0
 81 86  1  0
 81157  1  0
 81158  1  0
 82 83  1  0
 82159  1  0
 82160  1  0
 83 80  1  0
 83 89  1  1
 84161  1  0
 84162  1  0
 85163  1  0
 86164  1  0
M  ISO  4   1 100  68 101  82 101  85 100
M  END
$$$$
47
     RDKit          3D

161169  0  0  0  0  0  0  0  0999 V2000
  -30.7652  -14.3608   20.6636 C   0  0  0  0  0  0  0  0  0100  0  0
  -30.4392  -12.2669   19.3775 C   0  0  0  0  0  0  0  0  0101  0  0
  -29.4791  -12.5281   18.1977 C   0  0  0  0  0  0  0  0  0102  0  0
  -27.9985  -12.3963   18.6038 C   0  0  0  0  0  0  0  0  0103  0  0
  -27.6639  -13.2170   19.8820 C   0  0  2  0  0  0  0  0  0104  0  0
  -28.6795  -12.9602   21.0279 C   0  0  0  0  0  0  0  0  0105  0  0
  -25.2633  -13.8245   20.5754 C   0  0  0  0  0  0  0  0  0106  0  0
  -24.1645  -13.0409   20.9408 C   0  0  0  0  0  0  0  0  0107  0  0
  -24.6400  -11.7009   20.8697 C   0  0  0  0  0  0  0  0  0108  0  0
  -23.9005  -10.4085   21.0420 C   0  0  0  0  0  0  0  0  0109  0  0
  -24.3588   -9.4123   21.9123 C   0  0  0  0  0  0  0  0  0110  0  0
  -23.6296   -8.2350   22.0803 C   0  0  0  0  0  0  0  0  0111  0  0
  -22.4385   -8.0419   21.3657 C   0  0  0  0  0  0  0  0  0112  0  0
  -22.0103   -9.0167   20.4678 C   0  0  0  0  0  0  0  0  0113  0  0
  -22.7317  -10.1925   20.3102 C   0  0  0  0  0  0  0  0  0114  0  0
  -21.6857   -6.0709   22.5391 C   0  0  0  0  0  0  0  0  0115  0  0
  -21.4064   -6.5490   23.8264 C   0  0  0  0  0  0  0  0  0116  0  0
  -21.3635   -5.6677   24.9085 C   0  0  0  0  0  0  0  0  0117  0  0
  -21.5973   -4.3067   24.7088 C   0  0  0  0  0  0  0  0  0118  0  0
  -21.8700   -3.8284   23.4282 C   0  0  0  0  0  0  0  0  0119  0  0
  -21.9144   -4.7056   22.3460 C   0  0  0  0  0  0  0  0  0120  0  0
  -22.8194  -13.5263   21.1763 C   0  0  0  0  0  0  0  0  0121  0  0
  -22.1559   -4.2206   21.1063 F   0  0  0  0  0  0  0  0  0122  0  0
  -21.5628   -3.4510   25.7555 F   0  0  0  0  0  0  0  0  0123  0  0
  -30.0261  -13.1803   20.4553 N   0  0  0  0  0  0  0  0  0124  0  0
  -26.2911  -12.9356   20.3443 N   0  0  0  0  0  0  0  0  0125  0  0
  -25.9236  -11.6675   20.5847 N   0  0  0  0  0  0  0  0  0126  0  0
  -22.0708  -12.7905   22.0005 N   0  0  0  0  0  0  0  0  0127  0  0
  -25.4117  -15.1773   20.4097 N   0  0  0  0  0  0  0  0  0128  0  0
  -31.7916  -14.6724   20.0536 O   0  0  0  0  0  0  0  0  0129  0  0
  -21.6670   -6.9022   21.4423 O   0  0  0  0  0  0  0  0  0130  0  0
  -22.3946  -14.5564   20.6568 O   0  0  0  0  0  0  0  0  0131  0  0
  -24.6048  -31.8614   23.2223 C   0  0  0  0  0  0  0  0  0100  0  0
  -25.8822  -32.4841   23.8616 C   0  0  1  0  0  0  0  0  0101  0  0
  -27.2536  -27.5042   20.1156 C   0  0  0  0  0  0  0  0  0102  0  0
  -25.5726  -33.8762   24.2210 N   0  0  0  0  0  0  0  0  0103  0  0
  -23.4066  -30.4859   21.5461 C   0  0  2  0  0  0  0  0  0104  0  0
  -24.8467  -28.9636   20.1247 C   0  0  0  0  0  0  0  0  0105  0  0
  -22.7412  -29.4652   22.5052 C   0  0  0  0  0  0  0  0  0106  0  0
  -18.0167  -28.1302   22.8626 C   0  0  0  0  0  0  0  0  0107  0  0
  -24.1342  -36.7390   23.2568 C   0  0  0  0  0  0  0  0  0108  0  0
  -25.9141  -30.8882   21.3456 C   0  0  0  0  0  0  0  0  0109  0  0
  -25.9930  -29.5029   20.7208 C   0  0  0  0  0  0  0  0  0110  0  0
  -27.1758  -28.7612   20.7331 C   0  0  0  0  0  0  0  0  0111  0  0
  -26.1032  -26.9836   19.5230 C   0  0  0  0  0  0  0  0  0112  0  0
  -24.9097  -27.7011   19.5331 C   0  0  0  0  0  0  0  0  0113  0  0
  -23.5715  -29.7899   20.1582 C   0  0  0  0  0  0  0  0  0114  0  0
  -25.3990  -36.3212   24.0232 C   0  0  1  0  0  0  0  0  0115  0  0
  -20.5793  -28.3813   23.1004 C   0  0  2  0  0  0  0  0  0116  0  0
  -20.6548  -26.9392   22.5411 C   0  0  0  0  0  0  0  0  0117  0  0
  -19.5615  -26.6407   21.5143 C   0  0  0  0  0  0  0  0  0118  0  0
  -18.1797  -26.7818   22.1673 C   0  0  0  0  0  0  0  0  0119  0  0
  -19.1385  -28.8769   23.2988 C   0  0  0  0  0  0  0  0  0120  0  0
  -18.9183  -30.1286   23.8878 C   0  0  0  0  0  0  0  0  0121  0  0
  -17.6396  -30.6493   24.0352 C   0  0  0  0  0  0  0  0  0122  0  0
  -25.9153  -34.9582   23.4993 C   0  0  0  0  0  0  0  0  0123  0  0
  -16.5415  -29.9068   23.6254 C   0  0  0  0  0  0  0  0  0124  0  0
  -16.7331  -28.6521   23.0586 C   0  0  0  0  0  0  0  0  0125  0  0
  -26.4583  -31.6439   25.0683 C   0  0  0  0  0  0  0  0  0126  0  0
  -25.3807  -31.3179   26.1374 C   0  0  0  0  0  0  0  0  0127  0  0
  -27.0530  -30.3024   24.5680 C   0  0  0  0  0  0  0  0  0128  0  0
  -27.6014  -32.4281   25.7651 C   0  0  0  0  0  0  0  0  0129  0  0
  -27.5629  -37.2220   24.8621 C   0  0  0  0  0  0  0  0  0130  0  0
  -21.4133  -29.3375   22.3735 N   0  0  0  0  0  0  0  0  0131  0  0
  -26.4706  -37.3372   23.9061 N   0  0  0  0  0  0  0  0  0132  0  0
  -24.6674  -31.0544   22.1178 N   0  0  0  0  0  0  0  0  0133  0  0
  -23.4259  -28.8150   23.2971 O   0  0  0  0  0  0  0  0  0134  0  0
  -28.3948  -26.7345   20.0089 O   0  0  0  0  0  0  0  0  0135  0  0
  -26.5870  -34.9065   22.4671 O   0  0  0  0  0  0  0  0  0136  0  0
  -23.5365  -32.1254   23.7833 O   0  0  0  0  0  0  0  0  0137  0  0
  -26.2221  -18.2696   16.6963 C   0  0  0  0  0  0  0  0  0  0  0  0
  -26.3194  -16.1205   15.5968 C   0  0  0  0  0  0  0  0  0  0  0  0
  -25.5837  -18.0705   14.3747 C   0  0  0  0  0  0  0  0  0  0  0  0
  -26.4997  -16.9033   16.7372 C   0  0  0  0  0  0  0  0  0  0  0  0
  -25.7641  -18.8532   15.5151 C   0  0  0  0  0  0  0  0  0  0  0  0
  -25.8613  -16.7041   14.4156 C   0  0  0  0  0  0  0  0  0  0  0  0
  -25.1080  -18.6541   13.1267 C   0  0  0  0  0  0  0  0  0  0  0  0
  -25.3680  -23.5648   17.3178 C   0  0  0  0  0  0  0  0  0  0  0  0
  -25.2743  -22.4865   16.2561 C   0  0  0  0  0  0  0  0  0  0  0  0
  -26.0022  -18.5430   11.9279 C   0  0  0  0  0  0  0  0  0  0  0  0
  -25.8295  -23.1651   18.7035 C   0  0  0  0  0  0  0  0  0  0  0  0
  -25.6582  -21.0798   16.6360 C   0  0  0  0  0  0  0  0  0  0  0  0
  -25.8737  -24.3456   19.6642 C   0  0  0  0  0  0  0  0  0  1  0  0
  -26.9638  -16.3100   17.9374 N   0  0  0  0  0  0  0  0  0  0  0  0
  -25.4939  -20.2131   15.4952 N   0  0  0  0  0  0  0  0  0  0  0  0
  -24.0312  -19.2339   12.9869 O   0  0  0  0  0  0  0  0  0  0  0  0
  -25.0565  -24.7015   16.9867 O   0  0  0  0  0  0  0  0  0  0  0  0
  -24.8937  -22.8318   15.1445 O   0  0  0  0  0  0  0  0  0  0  0  0
  -25.6931  -15.9415   13.3258 F   0  0  0  0  0  0  0  0  0  0  0  0
  -31.4485  -12.4701   19.0860 H   0  0  0  0  0  0  0  0  0  0  0  0
  -30.3970  -11.2460   19.6950 H   0  0  0  0  0  0  0  0  0  0  0  0
  -29.6870  -11.8204   17.4226 H   0  0  0  0  0  0  0  0  0  0  0  0
  -29.6375  -13.5326   17.8649 H   0  0  0  0  0  0  0  0  0  0  0  0
  -27.7830  -11.3650   18.7904 H   0  0  0  0  0  0  0  0  0  0  0  0
  -27.4028  -12.7801   17.8021 H   0  0  0  0  0  0  0  0  0  0  0  0
  -27.7353  -14.2503   19.6136 H   0  0  0  0  0  0  0  0  0  0  0  0
  -28.5890  -11.9550   21.3832 H   0  0  0  0  0  0  0  0  0  0  0  0
  -28.5005  -13.6134   21.8562 H   0  0  0  0  0  0  0  0  0  0  0  0
  -25.2399   -9.5495   22.4318 H   0  0  0  0  0  0  0  0  0  0  0  0
  -23.9663   -7.5070   22.7297 H   0  0  0  0  0  0  0  0  0  0  0  0
  -21.1515   -8.8641   19.9162 H   0  0  0  0  0  0  0  0  0  0  0  0
  -22.4016  -10.9115   19.6476 H   0  0  0  0  0  0  0  0  0  0  0  0
  -21.2319   -7.5552   23.9750 H   0  0  0  0  0  0  0  0  0  0  0  0
  -21.1589   -6.0228   25.8556 H   0  0  0  0  0  0  0  0  0  0  0  0
  -22.0396   -2.8212   23.2809 H   0  0  0  0  0  0  0  0  0  0  0  0
  -22.4401  -11.9703   22.4008 H   0  0  0  0  0  0  0  0  0  0  0  0
  -21.1493  -13.0679   22.2082 H   0  0  0  0  0  0  0  0  0  0  0  0
  -24.6538  -15.7807   20.5848 H   0  0  0  0  0  0  0  0  0  0  0  0
  -26.2762  -15.5453   20.1156 H   0  0  0  0  0  0  0  0  0  0  0  0
  -26.6778  -32.4663   23.1464 H   0  0  0  0  0  0  0  0  0  0  0  0
  -25.0747  -34.0282   25.0566 H   0  0  0  0  0  0  0  0  0  0  0  0
  -22.7881  -31.3489   21.4131 H   0  0  0  0  0  0  0  0  0  0  0  0
  -23.3854  -35.9823   23.3648 H   0  0  0  0  0  0  0  0  0  0  0  0
  -24.3696  -36.8624   22.2204 H   0  0  0  0  0  0  0  0  0  0  0  0
  -23.7669  -37.6632   23.6516 H   0  0  0  0  0  0  0  0  0  0  0  0
  -25.9445  -31.6237   20.5691 H   0  0  0  0  0  0  0  0  0  0  0  0
  -26.7436  -31.0079   22.0108 H   0  0  0  0  0  0  0  0  0  0  0  0
  -28.0090  -29.1452   21.2057 H   0  0  0  0  0  0  0  0  0  0  0  0
  -26.1369  -26.0560   19.0719 H   0  0  0  0  0  0  0  0  0  0  0  0
  -24.0652  -27.2961   19.0997 H   0  0  0  0  0  0  0  0  0  0  0  0
  -23.6156  -30.5365   19.3930 H   0  0  0  0  0  0  0  0  0  0  0  0
  -22.7355  -29.1425   19.9945 H   0  0  0  0  0  0  0  0  0  0  0  0
  -25.1353  -36.2335   25.0565 H   0  0  0  0  0  0  0  0  0  0  0  0
  -21.0070  -28.3206   24.0793 H   0  0  0  0  0  0  0  0  0  0  0  0
  -20.5555  -26.2518   23.3550 H   0  0  0  0  0  0  0  0  0  0  0  0
  -21.5974  -26.8362   22.0454 H   0  0  0  0  0  0  0  0  0  0  0  0
  -19.6810  -25.6422   21.1488 H   0  0  0  0  0  0  0  0  0  0  0  0
  -19.6406  -27.3343   20.7034 H   0  0  0  0  0  0  0  0  0  0  0  0
  -17.4282  -26.6888   21.4113 H   0  0  0  0  0  0  0  0  0  0  0  0
  -18.0803  -26.0130   22.9049 H   0  0  0  0  0  0  0  0  0  0  0  0
  -19.7265  -30.6774   24.2204 H   0  0  0  0  0  0  0  0  0  0  0  0
  -17.5064  -31.5856   24.4483 H   0  0  0  0  0  0  0  0  0  0  0  0
  -15.5878  -30.2839   23.7407 H   0  0  0  0  0  0  0  0  0  0  0  0
  -15.9120  -28.0941   22.7766 H   0  0  0  0  0  0  0  0  0  0  0  0
  -24.5787  -30.7757   25.6817 H   0  0  0  0  0  0  0  0  0  0  0  0
  -25.0041  -32.2289   26.5536 H   0  0  0  0  0  0  0  0  0  0  0  0
  -25.8166  -30.7245   26.9138 H   0  0  0  0  0  0  0  0  0  0  0  0
  -26.2892  -29.7335   24.0803 H   0  0  0  0  0  0  0  0  0  0  0  0
  -27.4336  -29.7484   25.4006 H   0  0  0  0  0  0  0  0  0  0  0  0
  -27.8466  -30.4994   23.8779 H   0  0  0  0  0  0  0  0  0  0  0  0
  -27.2251  -33.3632   26.1242 H   0  0  0  0  0  0  0  0  0  0  0  0
  -28.3902  -32.6065   25.0645 H   0  0  0  0  0  0  0  0  0  0  0  0
  -27.9772  -31.8555   26.5872 H   0  0  0  0  0  0  0  0  0  0  0  0
  -28.2744  -38.0016   24.6863 H   0  0  0  0  0  0  0  0  0  0  0  0
  -28.0396  -36.2711   24.7461 H   0  0  0  0  0  0  0  0  0  0  0  0
  -27.1773  -37.3087   25.8564 H   0  0  0  0  0  0  0  0  0  0  0  0
  -20.9627  -29.9365   21.7352 H   0  0  0  0  0  0  0  0  0  0  0  0
  -26.0447  -38.2561   24.0273 H   0  0  0  0  0  0  0  0  0  0  0  0
  -26.3556  -18.8487   17.5400 H   0  0  0  0  0  0  0  0  0  0  0  0
  -26.5249  -15.1096   15.6270 H   0  0  0  0  0  0  0  0  0  0  0  0
  -26.8955  -18.0190   12.1966 H   0  0  0  0  0  0  0  0  0  0  0  0
  -26.2546  -19.5226   11.5792 H   0  0  0  0  0  0  0  0  0  0  0  0
  -25.4945  -18.0082   11.1526 H   0  0  0  0  0  0  0  0  0  0  0  0
  -26.8107  -22.7445   18.6308 H   0  0  0  0  0  0  0  0  0  0  0  0
  -25.1265  -22.4568   19.0895 H   0  0  0  0  0  0  0  0  0  0  0  0
  -25.0308  -20.7419   17.4342 H   0  0  0  0  0  0  0  0  0  0  0  0
  -26.6797  -21.0619   16.9539 H   0  0  0  0  0  0  0  0  0  0  0  0
  -25.7795  -23.9082   20.6362 H   0  0  0  0  0  0  0  0  0  0  0  0
  -25.1296  -24.9598   19.2017 H   0  0  0  0  0  0  0  0  0  0  0  0
  -26.1708  -16.2461   18.5173 H   0  0  0  0  0  0  0  0  0  0  0  0
  -25.1713  -20.6097   14.6539 H   0  0  0  0  0  0  0  0  0  0  0  0
  1 25  1  0
  1 30  2  0
  1 84  1  0
  2  3  1  0
  2 25  1  0
  2 90  1  0
  2 91  1  0
  3  4  1  0
  3 92  1  0
  3 93  1  0
  4  5  1  0
  4 94  1  0
  4 95  1  0
  5  6  1  0
  5 26  1  0
  5 96  1  6
  6 25  1  0
  6 97  1  0
  6 98  1  0
  7  8  2  0
  7 26  1  0
  7 29  1  0
  8  9  1  0
  8 22  1  0
  9 10  1  0
  9 27  2  0
 10 11  2  0
 10 15  1  0
 11 12  1  0
 11 99  1  0
 12 13  2  0
 12100  1  0
 13 14  1  0
 13 31  1  0
 14 15  2  0
 14101  1  0
 15102  1  0
 16 17  2  0
 16 21  1  0
 16 31  1  0
 17 18  1  0
 17103  1  0
 18 19  2  0
 18104  1  0
 19 20  1  0
 19 24  1  0
 20 21  2  0
 20105  1  0
 21 23  1  0
 22 28  1  0
 22 32  2  0
 26 27  1  0
 28106  1  0
 28107  1  0
 29108  1  0
 29109  1  0
 33 34  1  0
 33 66  1  0
 33 70  2  0
 34 36  1  0
 34 59  1  0
 34110  1  6
 35 44  2  0
 35 45  1  0
 35 68  1  0
 36 56  1  0
 36111  1  0
 37 39  1  0
 37 47  1  0
 37 66  1  0
 37112  1  6
 38 43  2  0
 38 46  1  0
 38 47  1  0
 39 64  1  0
 39 67  2  0
 40 52  1  0
 40 53  2  0
 40 58  1  0
 41113  1  0
 41114  1  0
 41115  1  0
 42 43  1  0
 42 66  1  0
 42116  1  0
 42117  1  0
 43 44  1  0
 44118  1  0
 45 46  2  0
 45119  1  0
 46120  1  0
 47121  1  0
 47122  1  0
 48 41  1  0
 48 56  1  0
 48 65  1  0
 48123  1  1
 49 50  1  0
 49 53  1  0
 49 64  1  0
 49124  1  1
 50 51  1  0
 50125  1  0
 50126  1  0
 51 52  1  0
 51127  1  0
 51128  1  0
 52129  1  0
 52130  1  0
 53 54  1  0
 54 55  2  0
 54131  1  0
 55 57  1  0
 55132  1  0
 56 69  2  0
 57 58  2  0
 57133  1  0
 58134  1  0
 59 60  1  0
 59 61  1  0
 59 62  1  0
 60135  1  0
 60136  1  0
 60137  1  0
 61138  1  0
 61139  1  0
 61140  1  0
 62141  1  0
 62142  1  0
 62143  1  0
 63 65  1  0
 63144  1  0
 63145  1  0
 63146  1  0
 64147  1  0
 65148  1  0
 68 83  1  0
 71 74  2  0
 71 75  1  0
 71149  1  0
 72 74  1  0
 72 76  2  0
 72150  1  0
 73 75  2  0
 73 76  1  0
 73 77  1  0
 74 84  1  0
 75 85  1  0
 76 89  1  0
 77 80  1  0
 77 86  2  0
 78 79  1  0
 78 81  1  0
 78 87  2  0
 79 82  1  0
 79 88  2  0
 80151  1  0
 80152  1  0
 80153  1  0
 81 83  1  0
 81154  1  0
 81155  1  0
 82 85  1  0
 82156  1  0
 82157  1  0
 83158  1  0
 83159  1  0
 84160  1  0
 85161  1  0
M  ISO  4   1 100  68 101  83 101  84 100
M  END
$$$$
48
     RDKit          3D

152160  0  0  0  0  0  0  0  0999 V2000
  -30.7652  -14.3608   20.6636 C   0  0  0  0  0  0  0  0  0100  0  0
  -30.4392  -12.2669   19.3775 C   0  0  0  0  0  0  0  0  0101  0  0
  -29.4791  -12.5281   18.1977 C   0  0  0  0  0  0  0  0  0102  0  0
  -27.9985  -12.3963   18.6038 C   0  0  0  0  0  0  0  0  0103  0  0
  -27.6639  -13.2170   19.8820 C   0  0  2  0  0  0  0  0  0104  0  0
  -28.6795  -12.9602   21.0279 C   0  0  0  0  0  0  0  0  0105  0  0
  -25.2633  -13.8245   20.5754 C   0  0  0  0  0  0  0  0  0106  0  0
  -24.1645  -13.0409   20.9408 C   0  0  0  0  0  0  0  0  0107  0  0
  -24.6400  -11.7009   20.8697 C   0  0  0  0  0  0  0  0  0108  0  0
  -23.9005  -10.4085   21.0420 C   0  0  0  0  0  0  0  0  0109  0  0
  -24.3588   -9.4123   21.9123 C   0  0  0  0  0  0  0  0  0110  0  0
  -23.6296   -8.2350   22.0803 C   0  0  0  0  0  0  0  0  0111  0  0
  -22.4385   -8.0419   21.3657 C   0  0  0  0  0  0  0  0  0112  0  0
  -22.0103   -9.0167   20.4678 C   0  0  0  0  0  0  0  0  0113  0  0
  -22.7317  -10.1925   20.3102 C   0  0  0  0  0  0  0  0  0114  0  0
  -21.6857   -6.0709   22.5391 C   0  0  0  0  0  0  0  0  0115  0  0
  -21.4064   -6.5490   23.8264 C   0  0  0  0  0  0  0  0  0116  0  0
  -21.3635   -5.6677   24.9085 C   0  0  0  0  0  0  0  0  0117  0  0
  -21.5973   -4.3067   24.7088 C   0  0  0  0  0  0  0  0  0118  0  0
  -21.8700   -3.8284   23.4282 C   0  0  0  0  0  0  0  0  0119  0  0
  -21.9144   -4.7056   22.3460 C   0  0  0  0  0  0  0  0  0120  0  0
  -22.8194  -13.5263   21.1763 C   0  0  0  0  0  0  0  0  0121  0  0
  -22.1559   -4.2206   21.1063 F   0  0  0  0  0  0  0  0  0122  0  0
  -21.5628   -3.4510   25.7555 F   0  0  0  0  0  0  0  0  0123  0  0
  -30.0261  -13.1803   20.4553 N   0  0  0  0  0  0  0  0  0124  0  0
  -26.2911  -12.9356   20.3443 N   0  0  0  0  0  0  0  0  0125  0  0
  -25.9236  -11.6675   20.5847 N   0  0  0  0  0  0  0  0  0126  0  0
  -22.0708  -12.7905   22.0005 N   0  0  0  0  0  0  0  0  0127  0  0
  -25.4117  -15.1773   20.4097 N   0  0  0  0  0  0  0  0  0128  0  0
  -31.7916  -14.6724   20.0536 O   0  0  0  0  0  0  0  0  0129  0  0
  -21.6670   -6.9022   21.4423 O   0  0  0  0  0  0  0  0  0130  0  0
  -22.3946  -14.5564   20.6568 O   0  0  0  0  0  0  0  0  0131  0  0
  -24.6048  -31.8614   23.2223 C   0  0  0  0  0  0  0  0  0100  0  0
  -25.8822  -32.4841   23.8616 C   0  0  1  0  0  0  0  0  0101  0  0
  -27.2536  -27.5042   20.1156 C   0  0  0  0  0  0  0  0  0102  0  0
  -25.5726  -33.8762   24.2210 N   0  0  0  0  0  0  0  0  0103  0  0
  -23.4066  -30.4859   21.5461 C   0  0  2  0  0  0  0  0  0104  0  0
  -24.8467  -28.9636   20.1247 C   0  0  0  0  0  0  0  0  0105  0  0
  -22.7412  -29.4652   22.5052 C   0  0  0  0  0  0  0  0  0106  0  0
  -18.0167  -28.1302   22.8626 C   0  0  0  0  0  0  0  0  0107  0  0
  -24.1342  -36.7390   23.2568 C   0  0  0  0  0  0  0  0  0108  0  0
  -25.9141  -30.8882   21.3456 C   0  0  0  0  0  0  0  0  0109  0  0
  -25.9930  -29.5029   20.7208 C   0  0  0  0  0  0  0  0  0110  0  0
  -27.1758  -28.7612   20.7331 C   0  0  0  0  0  0  0  0  0111  0  0
  -26.1032  -26.9836   19.5230 C   0  0  0  0  0  0  0  0  0112  0  0
  -24.9097  -27.7011   19.5331 C   0  0  0  0  0  0  0  0  0113  0  0
  -23.5715  -29.7899   20.1582 C   0  0  0  0  0  0  0  0  0114  0  0
  -25.3990  -36.3212   24.0232 C   0  0  1  0  0  0  0  0  0115  0  0
  -20.5793  -28.3813   23.1004 C   0  0  2  0  0  0  0  0  0116  0  0
  -20.6548  -26.9392   22.5411 C   0  0  0  0  0  0  0  0  0117  0  0
  -19.5615  -26.6407   21.5143 C   0  0  0  0  0  0  0  0  0118  0  0
  -18.1797  -26.7818   22.1673 C   0  0  0  0  0  0  0  0  0119  0  0
  -19.1385  -28.8769   23.2988 C   0  0  0  0  0  0  0  0  0120  0  0
  -18.9183  -30.1286   23.8878 C   0  0  0  0  0  0  0  0  0121  0  0
  -17.6396  -30.6493   24.0352 C   0  0  0  0  0  0  0  0  0122  0  0
  -25.9153  -34.9582   23.4993 C   0  0  0  0  0  0  0  0  0123  0  0
  -16.5415  -29.9068   23.6254 C   0  0  0  0  0  0  0  0  0124  0  0
  -16.7331  -28.6521   23.0586 C   0  0  0  0  0  0  0  0  0125  0  0
  -26.4583  -31.6439   25.0683 C   0  0  0  0  0  0  0  0  0126  0  0
  -25.3807  -31.3179   26.1374 C   0  0  0  0  0  0  0  0  0127  0  0
  -27.0530  -30.3024   24.5680 C   0  0  0  0  0  0  0  0  0128  0  0
  -27.6014  -32.4281   25.7651 C   0  0  0  0  0  0  0  0  0129  0  0
  -27.5629  -37.2220   24.8621 C   0  0  0  0  0  0  0  0  0130  0  0
  -21.4133  -29.3375   22.3735 N   0  0  0  0  0  0  0  0  0131  0  0
  -26.4706  -37.3372   23.9061 N   0  0  0  0  0  0  0  0  0132  0  0
  -24.6674  -31.0544   22.1178 N   0  0  0  0  0  0  0  0  0133  0  0
  -23.4259  -28.8150   23.2971 O   0  0  0  0  0  0  0  0  0134  0  0
  -28.3948  -26.7345   20.0089 O   0  0  0  0  0  0  0  0  0135  0  0
  -26.5870  -34.9065   22.4671 O   0  0  0  0  0  0  0  0  0136  0  0
  -23.5365  -32.1254   23.7833 O   0  0  0  0  0  0  0  0  0137  0  0
  -29.9966  -19.8814   21.4095 C   0  0  0  0  0  0  0  0  0  0  0  0
  -30.1089  -21.1751   21.9187 C   0  0  0  0  0  0  0  0  0  0  0  0
  -28.7397  -19.2917   21.2744 C   0  0  0  0  0  0  0  0  0  0  0  0
  -28.9644  -21.8791   22.2929 C   0  0  0  0  0  0  0  0  0  0  0  0
  -27.5952  -19.9957   21.6486 C   0  0  0  0  0  0  0  0  0  0  0  0
  -27.7075  -21.2894   22.1579 C   0  0  0  0  0  0  0  0  0  0  0  0
  -29.9834  -25.2684   23.5710 C   0  0  0  0  0  0  0  0  0  0  0  0
  -30.2450  -23.9037   23.0025 C   0  0  0  0  0  0  0  0  0  0  0  0
  -29.1648  -26.2059   22.7223 C   0  0  0  0  0  0  0  0  0  1  0  0
  -26.3136  -19.4144   21.5205 N   0  0  0  0  0  0  0  0  0  0  0  0
  -29.0816  -23.1905   22.8097 N   0  0  0  0  0  0  0  0  0  0  0  0
  -28.6515  -17.9765   20.7546 N   0  0  0  0  0  0  0  0  0  0  0  0
  -30.4653  -25.5278   24.6633 O   0  0  0  0  0  0  0  0  0  0  0  0
  -31.4127  -23.6040   22.8164 O   0  0  0  0  0  0  0  0  0  0  0  0
  -26.6068  -21.9667   22.5195 F   0  0  0  0  0  0  0  0  0  0  0  0
  -31.4485  -12.4701   19.0860 H   0  0  0  0  0  0  0  0  0  0  0  0
  -30.3970  -11.2460   19.6950 H   0  0  0  0  0  0  0  0  0  0  0  0
  -29.6870  -11.8204   17.4226 H   0  0  0  0  0  0  0  0  0  0  0  0
  -29.6375  -13.5326   17.8649 H   0  0  0  0  0  0  0  0  0  0  0  0
  -27.7830  -11.3650   18.7904 H   0  0  0  0  0  0  0  0  0  0  0  0
  -27.4028  -12.7801   17.8021 H   0  0  0  0  0  0  0  0  0  0  0  0
  -27.7353  -14.2503   19.6136 H   0  0  0  0  0  0  0  0  0  0  0  0
  -28.5890  -11.9550   21.3832 H   0  0  0  0  0  0  0  0  0  0  0  0
  -28.5005  -13.6134   21.8562 H   0  0  0  0  0  0  0  0  0  0  0  0
  -25.2399   -9.5495   22.4318 H   0  0  0  0  0  0  0  0  0  0  0  0
  -23.9663   -7.5070   22.7297 H   0  0  0  0  0  0  0  0  0  0  0  0
  -21.1515   -8.8641   19.9162 H   0  0  0  0  0  0  0  0  0  0  0  0
  -22.4016  -10.9115   19.6476 H   0  0  0  0  0  0  0  0  0  0  0  0
  -21.2319   -7.5552   23.9750 H   0  0  0  0  0  0  0  0  0  0  0  0
  -21.1589   -6.0228   25.8556 H   0  0  0  0  0  0  0  0  0  0  0  0
  -22.0396   -2.8212   23.2809 H   0  0  0  0  0  0  0  0  0  0  0  0
  -22.4401  -11.9703   22.4008 H   0  0  0  0  0  0  0  0  0  0  0  0
  -21.1493  -13.0679   22.2082 H   0  0  0  0  0  0  0  0  0  0  0  0
  -24.6538  -15.7807   20.5848 H   0  0  0  0  0  0  0  0  0  0  0  0
  -26.2762  -15.5453   20.1156 H   0  0  0  0  0  0  0  0  0  0  0  0
  -26.6778  -32.4663   23.1464 H   0  0  0  0  0  0  0  0  0  0  0  0
  -25.0747  -34.0282   25.0566 H   0  0  0  0  0  0  0  0  0  0  0  0
  -22.7881  -31.3489   21.4131 H   0  0  0  0  0  0  0  0  0  0  0  0
  -23.3854  -35.9823   23.3648 H   0  0  0  0  0  0  0  0  0  0  0  0
  -24.3696  -36.8624   22.2204 H   0  0  0  0  0  0  0  0  0  0  0  0
  -23.7669  -37.6632   23.6516 H   0  0  0  0  0  0  0  0  0  0  0  0
  -25.9445  -31.6237   20.5691 H   0  0  0  0  0  0  0  0  0  0  0  0
  -26.7436  -31.0079   22.0108 H   0  0  0  0  0  0  0  0  0  0  0  0
  -28.0090  -29.1452   21.2057 H   0  0  0  0  0  0  0  0  0  0  0  0
  -26.1369  -26.0560   19.0719 H   0  0  0  0  0  0  0  0  0  0  0  0
  -24.0652  -27.2961   19.0997 H   0  0  0  0  0  0  0  0  0  0  0  0
  -23.6156  -30.5365   19.3930 H   0  0  0  0  0  0  0  0  0  0  0  0
  -22.7355  -29.1425   19.9945 H   0  0  0  0  0  0  0  0  0  0  0  0
  -25.1353  -36.2335   25.0565 H   0  0  0  0  0  0  0  0  0  0  0  0
  -21.0070  -28.3206   24.0793 H   0  0  0  0  0  0  0  0  0  0  0  0
  -20.5555  -26.2518   23.3550 H   0  0  0  0  0  0  0  0  0  0  0  0
  -21.5974  -26.8362   22.0454 H   0  0  0  0  0  0  0  0  0  0  0  0
  -19.6810  -25.6422   21.1488 H   0  0  0  0  0  0  0  0  0  0  0  0
  -19.6406  -27.3343   20.7034 H   0  0  0  0  0  0  0  0  0  0  0  0
  -17.4282  -26.6888   21.4113 H   0  0  0  0  0  0  0  0  0  0  0  0
  -18.0803  -26.0130   22.9049 H   0  0  0  0  0  0  0  0  0  0  0  0
  -19.7265  -30.6774   24.2204 H   0  0  0  0  0  0  0  0  0  0  0  0
  -17.5064  -31.5856   24.4483 H   0  0  0  0  0  0  0  0  0  0  0  0
  -15.5878  -30.2839   23.7407 H   0  0  0  0  0  0  0  0  0  0  0  0
  -15.9120  -28.0941   22.7766 H   0  0  0  0  0  0  0  0  0  0  0  0
  -24.5787  -30.7757   25.6817 H   0  0  0  0  0  0  0  0  0  0  0  0
  -25.0041  -32.2289   26.5536 H   0  0  0  0  0  0  0  0  0  0  0  0
  -25.8166  -30.7245   26.9138 H   0  0  0  0  0  0  0  0  0  0  0  0
  -26.2892  -29.7335   24.0803 H   0  0  0  0  0  0  0  0  0  0  0  0
  -27.4336  -29.7484   25.4006 H   0  0  0  0  0  0  0  0  0  0  0  0
  -27.8466  -30.4994   23.8779 H   0  0  0  0  0  0  0  0  0  0  0  0
  -27.2251  -33.3632   26.1242 H   0  0  0  0  0  0  0  0  0  0  0  0
  -28.3902  -32.6065   25.0645 H   0  0  0  0  0  0  0  0  0  0  0  0
  -27.9772  -31.8555   26.5872 H   0  0  0  0  0  0  0  0  0  0  0  0
  -28.2744  -38.0016   24.6863 H   0  0  0  0  0  0  0  0  0  0  0  0
  -28.0396  -36.2711   24.7461 H   0  0  0  0  0  0  0  0  0  0  0  0
  -27.1773  -37.3087   25.8564 H   0  0  0  0  0  0  0  0  0  0  0  0
  -20.9627  -29.9365   21.7352 H   0  0  0  0  0  0  0  0  0  0  0  0
  -26.0447  -38.2561   24.0273 H   0  0  0  0  0  0  0  0  0  0  0  0
  -30.8434  -19.3605   21.1327 H   0  0  0  0  0  0  0  0  0  0  0  0
  -31.0388  -21.6114   22.0186 H   0  0  0  0  0  0  0  0  0  0  0  0
  -29.5959  -27.1470   22.9934 H   0  0  0  0  0  0  0  0  0  0  0  0
  -28.2792  -25.6294   22.8905 H   0  0  0  0  0  0  0  0  0  0  0  0
  -26.2204  -18.5021   21.1625 H   0  0  0  0  0  0  0  0  0  0  0  0
  -25.5139  -19.9218   21.7893 H   0  0  0  0  0  0  0  0  0  0  0  0
  -28.2427  -23.6419   23.0582 H   0  0  0  0  0  0  0  0  0  0  0  0
  -27.8146  -17.8804   20.2450 H   0  0  0  0  0  0  0  0  0  0  0  0
  1 25  1  0
  1 30  2  0
  1 82  1  0
  2  3  1  0
  2 25  1  0
  2 86  1  0
  2 87  1  0
  3  4  1  0
  3 88  1  0
  3 89  1  0
  4  5  1  0
  4 90  1  0
  4 91  1  0
  5  6  1  0
  5 26  1  0
  5 92  1  6
  6 25  1  0
  6 93  1  0
  6 94  1  0
  7  8  2  0
  7 26  1  0
  7 29  1  0
  8  9  1  0
  8 22  1  0
  9 10  1  0
  9 27  2  0
 10 11  2  0
 10 15  1  0
 11 12  1  0
 11 95  1  0
 12 13  2  0
 12 96  1  0
 13 14  1  0
 13 31  1  0
 14 15  2  0
 14 97  1  0
 15 98  1  0
 16 17  2  0
 16 21  1  0
 16 31  1  0
 17 18  1  0
 17 99  1  0
 18 19  2  0
 18100  1  0
 19 20  1  0
 19 24  1  0
 20 21  2  0
 20101  1  0
 21 23  1  0
 22 28  1  0
 22 32  2  0
 26 27  1  0
 28102  1  0
 28103  1  0
 29104  1  0
 29105  1  0
 33 34  1  0
 33 66  1  0
 33 70  2  0
 34 36  1  0
 34 59  1  0
 34106  1  6
 35 44  2  0
 35 45  1  0
 35 68  1  0
 36 56  1  0
 36107  1  0
 37 39  1  0
 37 47  1  0
 37 66  1  0
 37108  1  6
 38 43  2  0
 38 46  1  0
 38 47  1  0
 39 64  1  0
 39 67  2  0
 40 52  1  0
 40 53  2  0
 40 58  1  0
 41109  1  0
 41110  1  0
 41111  1  0
 42 43  1  0
 42 66  1  0
 42112  1  0
 42113  1  0
 43 44  1  0
 44114  1  0
 45 46  2  0
 45115  1  0
 46116  1  0
 47117  1  0
 47118  1  0
 48 41  1  0
 48 56  1  0
 48 65  1  0
 48119  1  1
 49 50  1  0
 49 53  1  0
 49 64  1  0
 49120  1  1
 50 51  1  0
 50121  1  0
 50122  1  0
 51 52  1  0
 51123  1  0
 51124  1  0
 52125  1  0
 52126  1  0
 53 54  1  0
 54 55  2  0
 54127  1  0
 55 57  1  0
 55128  1  0
 56 69  2  0
 57 58  2  0
 57129  1  0
 58130  1  0
 59 60  1  0
 59 61  1  0
 59 62  1  0
 60131  1  0
 60132  1  0
 60133  1  0
 61134  1  0
 61135  1  0
 61136  1  0
 62137  1  0
 62138  1  0
 62139  1  0
 63 65  1  0
 63140  1  0
 63141  1  0
 63142  1  0
 64143  1  0
 65144  1  0
 68 79  1  0
 71 72  2  0
 71 73  1  0
 71145  1  0
 72 74  1  0
 72146  1  0
 73 75  2  0
 73 82  1  0
 74 76  2  0
 74 81  1  0
 75 76  1  0
 75 80  1  0
 76 85  1  0
 77 78  1  0
 77 79  1  0
 77 83  2  0
 78 81  1  0
 78 84  2  0
 79147  1  0
 79148  1  0
 80149  1  0
 80150  1  0
 81151  1  0
 82152  1  0
M  ISO  4   1 100  68 101  79 101  82 100
M  END
$$$$
49
     RDKit          3D

155163  0  0  0  0  0  0  0  0999 V2000
  -30.7652  -14.3608   20.6636 C   0  0  0  0  0  0  0  0  0100  0  0
  -30.4392  -12.2669   19.3775 C   0  0  0  0  0  0  0  0  0101  0  0
  -29.4791  -12.5281   18.1977 C   0  0  0  0  0  0  0  0  0102  0  0
  -27.9985  -12.3963   18.6038 C   0  0  0  0  0  0  0  0  0103  0  0
  -27.6639  -13.2170   19.8820 C   0  0  2  0  0  0  0  0  0104  0  0
  -28.6795  -12.9602   21.0279 C   0  0  0  0  0  0  0  0  0105  0  0
  -25.2633  -13.8245   20.5754 C   0  0  0  0  0  0  0  0  0106  0  0
  -24.1645  -13.0409   20.9408 C   0  0  0  0  0  0  0  0  0107  0  0
  -24.6400  -11.7009   20.8697 C   0  0  0  0  0  0  0  0  0108  0  0
  -23.9005  -10.4085   21.0420 C   0  0  0  0  0  0  0  0  0109  0  0
  -24.3588   -9.4123   21.9123 C   0  0  0  0  0  0  0  0  0110  0  0
  -23.6296   -8.2350   22.0803 C   0  0  0  0  0  0  0  0  0111  0  0
  -22.4385   -8.0419   21.3657 C   0  0  0  0  0  0  0  0  0112  0  0
  -22.0103   -9.0167   20.4678 C   0  0  0  0  0  0  0  0  0113  0  0
  -22.7317  -10.1925   20.3102 C   0  0  0  0  0  0  0  0  0114  0  0
  -21.6857   -6.0709   22.5391 C   0  0  0  0  0  0  0  0  0115  0  0
  -21.4064   -6.5490   23.8264 C   0  0  0  0  0  0  0  0  0116  0  0
  -21.3635   -5.6677   24.9085 C   0  0  0  0  0  0  0  0  0117  0  0
  -21.5973   -4.3067   24.7088 C   0  0  0  0  0  0  0  0  0118  0  0
  -21.8700   -3.8284   23.4282 C   0  0  0  0  0  0  0  0  0119  0  0
  -21.9144   -4.7056   22.3460 C   0  0  0  0  0  0  0  0  0120  0  0
  -22.8194  -13.5263   21.1763 C   0  0  0  0  0  0  0  0  0121  0  0
  -22.1559   -4.2206   21.1063 F   0  0  0  0  0  0  0  0  0122  0  0
  -21.5628   -3.4510   25.7555 F   0  0  0  0  0  0  0  0  0123  0  0
  -30.0261  -13.1803   20.4553 N   0  0  0  0  0  0  0  0  0124  0  0
  -26.2911  -12.9356   20.3443 N   0  0  0  0  0  0  0  0  0125  0  0
  -25.9236  -11.6675   20.5847 N   0  0  0  0  0  0  0  0  0126  0  0
  -22.0708  -12.7905   22.0005 N   0  0  0  0  0  0  0  0  0127  0  0
  -25.4117  -15.1773   20.4097 N   0  0  0  0  0  0  0  0  0128  0  0
  -31.7916  -14.6724   20.0536 O   0  0  0  0  0  0  0  0  0129  0  0
  -21.6670   -6.9022   21.4423 O   0  0  0  0  0  0  0  0  0130  0  0
  -22.3946  -14.5564   20.6568 O   0  0  0  0  0  0  0  0  0131  0  0
  -24.6048  -31.8614   23.2223 C   0  0  0  0  0  0  0  0  0100  0  0
  -25.8822  -32.4841   23.8616 C   0  0  1  0  0  0  0  0  0101  0  0
  -27.2536  -27.5042   20.1156 C   0  0  0  0  0  0  0  0  0102  0  0
  -25.5726  -33.8762   24.2210 N   0  0  0  0  0  0  0  0  0103  0  0
  -23.4066  -30.4859   21.5461 C   0  0  2  0  0  0  0  0  0104  0  0
  -24.8467  -28.9636   20.1247 C   0  0  0  0  0  0  0  0  0105  0  0
  -22.7412  -29.4652   22.5052 C   0  0  0  0  0  0  0  0  0106  0  0
  -18.0167  -28.1302   22.8626 C   0  0  0  0  0  0  0  0  0107  0  0
  -24.1342  -36.7390   23.2568 C   0  0  0  0  0  0  0  0  0108  0  0
  -25.9141  -30.8882   21.3456 C   0  0  0  0  0  0  0  0  0109  0  0
  -25.9930  -29.5029   20.7208 C   0  0  0  0  0  0  0  0  0110  0  0
  -27.1758  -28.7612   20.7331 C   0  0  0  0  0  0  0  0  0111  0  0
  -26.1032  -26.9836   19.5230 C   0  0  0  0  0  0  0  0  0112  0  0
  -24.9097  -27.7011   19.5331 C   0  0  0  0  0  0  0  0  0113  0  0
  -23.5715  -29.7899   20.1582 C   0  0  0  0  0  0  0  0  0114  0  0
  -25.3990  -36.3212   24.0232 C   0  0  1  0  0  0  0  0  0115  0  0
  -20.5793  -28.3813   23.1004 C   0  0  2  0  0  0  0  0  0116  0  0
  -20.6548  -26.9392   22.5411 C   0  0  0  0  0  0  0  0  0117  0  0
  -19.5615  -26.6407   21.5143 C   0  0  0  0  0  0  0  0  0118  0  0
  -18.1797  -26.7818   22.1673 C   0  0  0  0  0  0  0  0  0119  0  0
  -19.1385  -28.8769   23.2988 C   0  0  0  0  0  0  0  0  0120  0  0
  -18.9183  -30.1286   23.8878 C   0  0  0  0  0  0  0  0  0121  0  0
  -17.6396  -30.6493   24.0352 C   0  0  0  0  0  0  0  0  0122  0  0
  -25.9153  -34.9582   23.4993 C   0  0  0  0  0  0  0  0  0123  0  0
  -16.5415  -29.9068   23.6254 C   0  0  0  0  0  0  0  0  0124  0  0
  -16.7331  -28.6521   23.0586 C   0  0  0  0  0  0  0  0  0125  0  0
  -26.4583  -31.6439   25.0683 C   0  0  0  0  0  0  0  0  0126  0  0
  -25.3807  -31.3179   26.1374 C   0  0  0  0  0  0  0  0  0127  0  0
  -27.0530  -30.3024   24.5680 C   0  0  0  0  0  0  0  0  0128  0  0
  -27.6014  -32.4281   25.7651 C   0  0  0  0  0  0  0  0  0129  0  0
  -27.5629  -37.2220   24.8621 C   0  0  0  0  0  0  0  0  0130  0  0
  -21.4133  -29.3375   22.3735 N   0  0  0  0  0  0  0  0  0131  0  0
  -26.4706  -37.3372   23.9061 N   0  0  0  0  0  0  0  0  0132  0  0
  -24.6674  -31.0544   22.1178 N   0  0  0  0  0  0  0  0  0133  0  0
  -23.4259  -28.8150   23.2971 O   0  0  0  0  0  0  0  0  0134  0  0
  -28.3948  -26.7345   20.0089 O   0  0  0  0  0  0  0  0  0135  0  0
  -26.5870  -34.9065   22.4671 O   0  0  0  0  0  0  0  0  0136  0  0
  -23.5365  -32.1254   23.7833 O   0  0  0  0  0  0  0  0  0137  0  0
  -32.6526  -16.6386   23.7293 C   0  0  0  0  0  0  0  0  0  0  0  0
  -32.1762  -15.6561   22.8613 C   0  0  0  0  0  0  0  0  0  0  0  0
  -32.1802  -16.6995   25.0404 C   0  0  0  0  0  0  0  0  0  0  0  0
  -31.2274  -14.7346   23.3043 C   0  0  0  0  0  0  0  0  0  0  0  0
  -31.2314  -15.7780   25.4834 C   0  0  0  0  0  0  0  0  0  0  0  0
  -30.7550  -14.7955   24.6154 C   0  0  0  0  0  0  0  0  0  0  0  0
  -30.4133  -22.0037   25.0126 C   0  0  0  0  0  0  0  0  0  1  0  0
  -30.5934  -20.8943   25.7462 C   0  0  0  0  0  0  0  0  0  0  0  0
  -31.6636  -19.9368   25.3198 C   0  0  0  0  0  0  0  0  0  0  0  0
  -32.7106  -17.7671   25.9532 C   0  0  0  0  0  0  0  0  0  0  0  0
  -30.7435  -15.8276   26.8079 N   0  0  0  0  0  0  0  0  0  0  0  0
  -30.7443  -13.7392   22.4192 N   0  0  0  0  0  0  0  0  0  0  0  0
  -31.7548  -18.8336   26.1510 N   0  0  0  0  0  0  0  0  0  0  0  0
  -32.3682  -20.1391   24.3348 O   0  0  0  0  0  0  0  0  0  0  0  0
  -29.8589  -20.5777   26.8679 O   0  0  0  0  0  0  0  0  0  0  0  0
  -29.8418  -13.9087   25.0402 F   0  0  0  0  0  0  0  0  0  0  0  0
  -31.4485  -12.4701   19.0860 H   0  0  0  0  0  0  0  0  0  0  0  0
  -30.3970  -11.2460   19.6950 H   0  0  0  0  0  0  0  0  0  0  0  0
  -29.6870  -11.8204   17.4226 H   0  0  0  0  0  0  0  0  0  0  0  0
  -29.6375  -13.5326   17.8649 H   0  0  0  0  0  0  0  0  0  0  0  0
  -27.7830  -11.3650   18.7904 H   0  0  0  0  0  0  0  0  0  0  0  0
  -27.4028  -12.7801   17.8021 H   0  0  0  0  0  0  0  0  0  0  0  0
  -27.7353  -14.2503   19.6136 H   0  0  0  0  0  0  0  0  0  0  0  0
  -28.5890  -11.9550   21.3832 H   0  0  0  0  0  0  0  0  0  0  0  0
  -28.5005  -13.6134   21.8562 H   0  0  0  0  0  0  0  0  0  0  0  0
  -25.2399   -9.5495   22.4318 H   0  0  0  0  0  0  0  0  0  0  0  0
  -23.9663   -7.5070   22.7297 H   0  0  0  0  0  0  0  0  0  0  0  0
  -21.1515   -8.8641   19.9162 H   0  0  0  0  0  0  0  0  0  0  0  0
  -22.4016  -10.9115   19.6476 H   0  0  0  0  0  0  0  0  0  0  0  0
  -21.2319   -7.5552   23.9750 H   0  0  0  0  0  0  0  0  0  0  0  0
  -21.1589   -6.0228   25.8556 H   0  0  0  0  0  0  0  0  0  0  0  0
  -22.0396   -2.8212   23.2809 H   0  0  0  0  0  0  0  0  0  0  0  0
  -22.4401  -11.9703   22.4008 H   0  0  0  0  0  0  0  0  0  0  0  0
  -21.1493  -13.0679   22.2082 H   0  0  0  0  0  0  0  0  0  0  0  0
  -24.6538  -15.7807   20.5848 H   0  0  0  0  0  0  0  0  0  0  0  0
  -26.2762  -15.5453   20.1156 H   0  0  0  0  0  0  0  0  0  0  0  0
  -26.6778  -32.4663   23.1464 H   0  0  0  0  0  0  0  0  0  0  0  0
  -25.0747  -34.0282   25.0566 H   0  0  0  0  0  0  0  0  0  0  0  0
  -22.7881  -31.3489   21.4131 H   0  0  0  0  0  0  0  0  0  0  0  0
  -23.3854  -35.9823   23.3648 H   0  0  0  0  0  0  0  0  0  0  0  0
  -24.3696  -36.8624   22.2204 H   0  0  0  0  0  0  0  0  0  0  0  0
  -23.7669  -37.6632   23.6516 H   0  0  0  0  0  0  0  0  0  0  0  0
  -25.9445  -31.6237   20.5691 H   0  0  0  0  0  0  0  0  0  0  0  0
  -26.7436  -31.0079   22.0108 H   0  0  0  0  0  0  0  0  0  0  0  0
  -28.0090  -29.1452   21.2057 H   0  0  0  0  0  0  0  0  0  0  0  0
  -26.1369  -26.0560   19.0719 H   0  0  0  0  0  0  0  0  0  0  0  0
  -24.0652  -27.2961   19.0997 H   0  0  0  0  0  0  0  0  0  0  0  0
  -23.6156  -30.5365   19.3930 H   0  0  0  0  0  0  0  0  0  0  0  0
  -22.7355  -29.1425   19.9945 H   0  0  0  0  0  0  0  0  0  0  0  0
  -25.1353  -36.2335   25.0565 H   0  0  0  0  0  0  0  0  0  0  0  0
  -21.0070  -28.3206   24.0793 H   0  0  0  0  0  0  0  0  0  0  0  0
  -20.5555  -26.2518   23.3550 H   0  0  0  0  0  0  0  0  0  0  0  0
  -21.5974  -26.8362   22.0454 H   0  0  0  0  0  0  0  0  0  0  0  0
  -19.6810  -25.6422   21.1488 H   0  0  0  0  0  0  0  0  0  0  0  0
  -19.6406  -27.3343   20.7034 H   0  0  0  0  0  0  0  0  0  0  0  0
  -17.4282  -26.6888   21.4113 H   0  0  0  0  0  0  0  0  0  0  0  0
  -18.0803  -26.0130   22.9049 H   0  0  0  0  0  0  0  0  0  0  0  0
  -19.7265  -30.6774   24.2204 H   0  0  0  0  0  0  0  0  0  0  0  0
  -17.5064  -31.5856   24.4483 H   0  0  0  0  0  0  0  0  0  0  0  0
  -15.5878  -30.2839   23.7407 H   0  0  0  0  0  0  0  0  0  0  0  0
  -15.9120  -28.0941   22.7766 H   0  0  0  0  0  0  0  0  0  0  0  0
  -24.5787  -30.7757   25.6817 H   0  0  0  0  0  0  0  0  0  0  0  0
  -25.0041  -32.2289   26.5536 H   0  0  0  0  0  0  0  0  0  0  0  0
  -25.8166  -30.7245   26.9138 H   0  0  0  0  0  0  0  0  0  0  0  0
  -26.2892  -29.7335   24.0803 H   0  0  0  0  0  0  0  0  0  0  0  0
  -27.4336  -29.7484   25.4006 H   0  0  0  0  0  0  0  0  0  0  0  0
  -27.8466  -30.4994   23.8779 H   0  0  0  0  0  0  0  0  0  0  0  0
  -27.2251  -33.3632   26.1242 H   0  0  0  0  0  0  0  0  0  0  0  0
  -28.3902  -32.6065   25.0645 H   0  0  0  0  0  0  0  0  0  0  0  0
  -27.9772  -31.8555   26.5872 H   0  0  0  0  0  0  0  0  0  0  0  0
  -28.2744  -38.0016   24.6863 H   0  0  0  0  0  0  0  0  0  0  0  0
  -28.0396  -36.2711   24.7461 H   0  0  0  0  0  0  0  0  0  0  0  0
  -27.1773  -37.3087   25.8564 H   0  0  0  0  0  0  0  0  0  0  0  0
  -20.9627  -29.9365   21.7352 H   0  0  0  0  0  0  0  0  0  0  0  0
  -26.0447  -38.2561   24.0273 H   0  0  0  0  0  0  0  0  0  0  0  0
  -33.3545  -17.3204   23.4015 H   0  0  0  0  0  0  0  0  0  0  0  0
  -32.5257  -15.6110   21.8913 H   0  0  0  0  0  0  0  0  0  0  0  0
  -30.9777  -22.6456   25.5909 H   0  0  0  0  0  0  0  0  0  0  0  0
  -33.6016  -18.1766   25.5250 H   0  0  0  0  0  0  0  0  0  0  0  0
  -32.9090  -17.3200   26.9049 H   0  0  0  0  0  0  0  0  0  0  0  0
  -31.0733  -16.5171   27.4285 H   0  0  0  0  0  0  0  0  0  0  0  0
  -30.0736  -15.1727   27.1106 H   0  0  0  0  0  0  0  0  0  0  0  0
  -30.4401  -12.8441   22.6938 H   0  0  0  0  0  0  0  0  0  0  0  0
  -31.1376  -18.7722   26.9155 H   0  0  0  0  0  0  0  0  0  0  0  0
  -29.1817  -21.1543   27.1626 H   0  0  0  0  0  0  0  0  0  0  0  0
  1 25  1  0
  1 30  2  0
  1 82  1  0
  2  3  1  0
  2 25  1  0
  2 87  1  0
  2 88  1  0
  3  4  1  0
  3 89  1  0
  3 90  1  0
  4  5  1  0
  4 91  1  0
  4 92  1  0
  5  6  1  0
  5 26  1  0
  5 93  1  6
  6 25  1  0
  6 94  1  0
  6 95  1  0
  7  8  2  0
  7 26  1  0
  7 29  1  0
  8  9  1  0
  8 22  1  0
  9 10  1  0
  9 27  2  0
 10 11  2  0
 10 15  1  0
 11 12  1  0
 11 96  1  0
 12 13  2  0
 12 97  1  0
 13 14  1  0
 13 31  1  0
 14 15  2  0
 14 98  1  0
 15 99  1  0
 16 17  2  0
 16 21  1  0
 16 31  1  0
 17 18  1  0
 17100  1  0
 18 19  2  0
 18101  1  0
 19 20  1  0
 19 24  1  0
 20 21  2  0
 20102  1  0
 21 23  1  0
 22 28  1  0
 22 32  2  0
 26 27  1  0
 28103  1  0
 28104  1  0
 29105  1  0
 29106  1  0
 33 34  1  0
 33 66  1  0
 33 70  2  0
 34 36  1  0
 34 59  1  0
 34107  1  6
 35 44  2  0
 35 45  1  0
 35 68  1  0
 36 56  1  0
 36108  1  0
 37 39  1  0
 37 47  1  0
 37 66  1  0
 37109  1  6
 38 43  2  0
 38 46  1  0
 38 47  1  0
 39 64  1  0
 39 67  2  0
 40 52  1  0
 40 53  2  0
 40 58  1  0
 41110  1  0
 41111  1  0
 41112  1  0
 42 43  1  0
 42 66  1  0
 42113  1  0
 42114  1  0
 43 44  1  0
 44115  1  0
 45 46  2  0
 45116  1  0
 46117  1  0
 47118  1  0
 47119  1  0
 48 41  1  0
 48 56  1  0
 48 65  1  0
 48120  1  1
 49 50  1  0
 49 53  1  0
 49 64  1  0
 49121  1  1
 50 51  1  0
 50122  1  0
 50123  1  0
 51 52  1  0
 51124  1  0
 51125  1  0
 52126  1  0
 52127  1  0
 53 54  1  0
 54 55  2  0
 54128  1  0
 55 57  1  0
 55129  1  0
 56 69  2  0
 57 58  2  0
 57130  1  0
 58131  1  0
 59 60  1  0
 59 61  1  0
 59 62  1  0
 60132  1  0
 60133  1  0
 60134  1  0
 61135  1  0
 61136  1  0
 61137  1  0
 62138  1  0
 62139  1  0
 62140  1  0
 63 65  1  0
 63141  1  0
 63142  1  0
 63143  1  0
 64144  1  0
 65145  1  0
 68 77  1  0
 71 72  2  0
 71 73  1  0
 71146  1  0
 72 74  1  0
 72147  1  0
 73 75  2  0
 73 80  1  0
 74 76  2  0
 74 82  1  0
 75 76  1  0
 75 81  1  0
 76 86  1  0
 77 78  2  0
 77148  1  0
 78 79  1  0
 78 85  1  0
 79 83  1  0
 79 84  2  0
 80 83  1  0
 80149  1  0
 80150  1  0
 81151  1  0
 81152  1  0
 82153  1  0
 83154  1  0
 85155  1  0
M  ISO  4   1 100  68 101  77 101  82 100
M  END
$$$$
50
     RDKit          3D

160168  0  0  0  0  0  0  0  0999 V2000
  -30.7652  -14.3608   20.6636 C   0  0  0  0  0  0  0  0  0100  0  0
  -30.4392  -12.2669   19.3775 C   0  0  0  0  0  0  0  0  0101  0  0
  -29.4791  -12.5281   18.1977 C   0  0  0  0  0  0  0  0  0102  0  0
  -27.9985  -12.3963   18.6038 C   0  0  0  0  0  0  0  0  0103  0  0
  -27.6639  -13.2170   19.8820 C   0  0  2  0  0  0  0  0  0104  0  0
  -28.6795  -12.9602   21.0279 C   0  0  0  0  0  0  0  0  0105  0  0
  -25.2633  -13.8245   20.5754 C   0  0  0  0  0  0  0  0  0106  0  0
  -24.1645  -13.0409   20.9408 C   0  0  0  0  0  0  0  0  0107  0  0
  -24.6400  -11.7009   20.8697 C   0  0  0  0  0  0  0  0  0108  0  0
  -23.9005  -10.4085   21.0420 C   0  0  0  0  0  0  0  0  0109  0  0
  -24.3588   -9.4123   21.9123 C   0  0  0  0  0  0  0  0  0110  0  0
  -23.6296   -8.2350   22.0803 C   0  0  0  0  0  0  0  0  0111  0  0
  -22.4385   -8.0419   21.3657 C   0  0  0  0  0  0  0  0  0112  0  0
  -22.0103   -9.0167   20.4678 C   0  0  0  0  0  0  0  0  0113  0  0
  -22.7317  -10.1925   20.3102 C   0  0  0  0  0  0  0  0  0114  0  0
  -21.6857   -6.0709   22.5391 C   0  0  0  0  0  0  0  0  0115  0  0
  -21.4064   -6.5490   23.8264 C   0  0  0  0  0  0  0  0  0116  0  0
  -21.3635   -5.6677   24.9085 C   0  0  0  0  0  0  0  0  0117  0  0
  -21.5973   -4.3067   24.7088 C   0  0  0  0  0  0  0  0  0118  0  0
  -21.8700   -3.8284   23.4282 C   0  0  0  0  0  0  0  0  0119  0  0
  -21.9144   -4.7056   22.3460 C   0  0  0  0  0  0  0  0  0120  0  0
  -22.8194  -13.5263   21.1763 C   0  0  0  0  0  0  0  0  0121  0  0
  -22.1559   -4.2206   21.1063 F   0  0  0  0  0  0  0  0  0122  0  0
  -21.5628   -3.4510   25.7555 F   0  0  0  0  0  0  0  0  0123  0  0
  -30.0261  -13.1803   20.4553 N   0  0  0  0  0  0  0  0  0124  0  0
  -26.2911  -12.9356   20.3443 N   0  0  0  0  0  0  0  0  0125  0  0
  -25.9236  -11.6675   20.5847 N   0  0  0  0  0  0  0  0  0126  0  0
  -22.0708  -12.7905   22.0005 N   0  0  0  0  0  0  0  0  0127  0  0
  -25.4117  -15.1773   20.4097 N   0  0  0  0  0  0  0  0  0128  0  0
  -31.7916  -14.6724   20.0536 O   0  0  0  0  0  0  0  0  0129  0  0
  -21.6670   -6.9022   21.4423 O   0  0  0  0  0  0  0  0  0130  0  0
  -22.3946  -14.5564   20.6568 O   0  0  0  0  0  0  0  0  0131  0  0
  -24.6048  -31.8614   23.2223 C   0  0  0  0  0  0  0  0  0100  0  0
  -25.8822  -32.4841   23.8616 C   0  0  1  0  0  0  0  0  0101  0  0
  -27.2536  -27.5042   20.1156 C   0  0  0  0  0  0  0  0  0102  0  0
  -25.5726  -33.8762   24.2210 N   0  0  0  0  0  0  0  0  0103  0  0
  -23.4066  -30.4859   21.5461 C   0  0  2  0  0  0  0  0  0104  0  0
  -24.8467  -28.9636   20.1247 C   0  0  0  0  0  0  0  0  0105  0  0
  -22.7412  -29.4652   22.5052 C   0  0  0  0  0  0  0  0  0106  0  0
  -18.0167  -28.1302   22.8626 C   0  0  0  0  0  0  0  0  0107  0  0
  -24.1342  -36.7390   23.2568 C   0  0  0  0  0  0  0  0  0108  0  0
  -25.9141  -30.8882   21.3456 C   0  0  0  0  0  0  0  0  0109  0  0
  -25.9930  -29.5029   20.7208 C   0  0  0  0  0  0  0  0  0110  0  0
  -27.1758  -28.7612   20.7331 C   0  0  0  0  0  0  0  0  0111  0  0
  -26.1032  -26.9836   19.5230 C   0  0  0  0  0  0  0  0  0112  0  0
  -24.9097  -27.7011   19.5331 C   0  0  0  0  0  0  0  0  0113  0  0
  -23.5715  -29.7899   20.1582 C   0  0  0  0  0  0  0  0  0114  0  0
  -25.3990  -36.3212   24.0232 C   0  0  1  0  0  0  0  0  0115  0  0
  -20.5793  -28.3813   23.1004 C   0  0  2  0  0  0  0  0  0116  0  0
  -20.6548  -26.9392   22.5411 C   0  0  0  0  0  0  0  0  0117  0  0
  -19.5615  -26.6407   21.5143 C   0  0  0  0  0  0  0  0  0118  0  0
  -18.1797  -26.7818   22.1673 C   0  0  0  0  0  0  0  0  0119  0  0
  -19.1385  -28.8769   23.2988 C   0  0  0  0  0  0  0  0  0120  0  0
  -18.9183  -30.1286   23.8878 C   0  0  0  0  0  0  0  0  0121  0  0
  -17.6396  -30.6493   24.0352 C   0  0  0  0  0  0  0  0  0122  0  0
  -25.9153  -34.9582   23.4993 C   0  0  0  0  0  0  0  0  0123  0  0
  -16.5415  -29.9068   23.6254 C   0  0  0  0  0  0  0  0  0124  0  0
  -16.7331  -28.6521   23.0586 C   0  0  0  0  0  0  0  0  0125  0  0
  -26.4583  -31.6439   25.0683 C   0  0  0  0  0  0  0  0  0126  0  0
  -25.3807  -31.3179   26.1374 C   0  0  0  0  0  0  0  0  0127  0  0
  -27.0530  -30.3024   24.5680 C   0  0  0  0  0  0  0  0  0128  0  0
  -27.6014  -32.4281   25.7651 C   0  0  0  0  0  0  0  0  0129  0  0
  -27.5629  -37.2220   24.8621 C   0  0  0  0  0  0  0  0  0130  0  0
  -21.4133  -29.3375   22.3735 N   0  0  0  0  0  0  0  0  0131  0  0
  -26.4706  -37.3372   23.9061 N   0  0  0  0  0  0  0  0  0132  0  0
  -24.6674  -31.0544   22.1178 N   0  0  0  0  0  0  0  0  0133  0  0
  -23.4259  -28.8150   23.2971 O   0  0  0  0  0  0  0  0  0134  0  0
  -28.3948  -26.7345   20.0089 O   0  0  0  0  0  0  0  0  0135  0  0
  -26.5870  -34.9065   22.4671 O   0  0  0  0  0  0  0  0  0136  0  0
  -23.5365  -32.1254   23.7833 O   0  0  0  0  0  0  0  0  0137  0  0
  -28.7627  -24.1690   20.7385 C   0  0  0  0  0  0  0  0  0  0  0  0
  -29.8713  -22.6326   18.7406 C   0  0  0  0  0  0  0  0  0  0  0  0
  -30.2137  -22.3699   20.0594 C   0  0  0  0  0  0  0  0  0  0  0  0
  -29.6510  -23.1490   21.0658 C   0  0  0  0  0  0  0  0  0  0  0  0
  -28.4571  -24.3862   19.4025 C   0  0  0  0  0  0  0  0  0  0  0  0
  -31.1605  -21.2776   20.3610 C   0  0  0  0  0  0  0  0  0  0  0  0
  -31.3050  -16.5563   21.8563 C   0  0  0  0  0  0  0  0  0  0  0  0
  -31.0620  -16.5521   23.3441 C   0  0  0  0  0  0  0  0  0  0  0  0
  -31.5062  -18.8890   20.8822 C   0  0  0  0  0  0  0  0  0  0  0  0
  -30.6305  -17.6564   21.0444 C   0  0  2  0  0  0  0  0  0  1  0  0
  -29.0133  -23.6210   18.4534 N   0  0  0  0  0  0  0  0  0  0  0  0
  -29.9695  -22.9189   22.4221 N   0  0  0  0  0  0  0  0  0  0  0  0
  -32.4607  -21.5680   20.4067 N   0  0  0  0  0  0  0  0  0  0  0  0
  -27.5533  -25.4235   19.0635 N   0  0  0  0  0  0  0  0  0  0  0  0
  -30.6684  -20.0517   20.5710 N   0  0  0  0  0  0  0  0  0  0  0  0
  -32.0136  -15.6977   21.3302 O   0  0  0  0  0  0  0  0  0  0  0  0
  -31.4485  -12.4701   19.0860 H   0  0  0  0  0  0  0  0  0  0  0  0
  -30.3970  -11.2460   19.6950 H   0  0  0  0  0  0  0  0  0  0  0  0
  -29.6870  -11.8204   17.4226 H   0  0  0  0  0  0  0  0  0  0  0  0
  -29.6375  -13.5326   17.8649 H   0  0  0  0  0  0  0  0  0  0  0  0
  -27.7830  -11.3650   18.7904 H   0  0  0  0  0  0  0  0  0  0  0  0
  -27.4028  -12.7801   17.8021 H   0  0  0  0  0  0  0  0  0  0  0  0
  -27.7353  -14.2503   19.6136 H   0  0  0  0  0  0  0  0  0  0  0  0
  -28.5890  -11.9550   21.3832 H   0  0  0  0  0  0  0  0  0  0  0  0
  -28.5005  -13.6134   21.8562 H   0  0  0  0  0  0  0  0  0  0  0  0
  -25.2399   -9.5495   22.4318 H   0  0  0  0  0  0  0  0  0  0  0  0
  -23.9663   -7.5070   22.7297 H   0  0  0  0  0  0  0  0  0  0  0  0
  -21.1515   -8.8641   19.9162 H   0  0  0  0  0  0  0  0  0  0  0  0
  -22.4016  -10.9115   19.6476 H   0  0  0  0  0  0  0  0  0  0  0  0
  -21.2319   -7.5552   23.9750 H   0  0  0  0  0  0  0  0  0  0  0  0
  -21.1589   -6.0228   25.8556 H   0  0  0  0  0  0  0  0  0  0  0  0
  -22.0396   -2.8212   23.2809 H   0  0  0  0  0  0  0  0  0  0  0  0
  -22.4401  -11.9703   22.4008 H   0  0  0  0  0  0  0  0  0  0  0  0
  -21.1493  -13.0679   22.2082 H   0  0  0  0  0  0  0  0  0  0  0  0
  -24.6538  -15.7807   20.5848 H   0  0  0  0  0  0  0  0  0  0  0  0
  -26.2762  -15.5453   20.1156 H   0  0  0  0  0  0  0  0  0  0  0  0
  -26.6778  -32.4663   23.1464 H   0  0  0  0  0  0  0  0  0  0  0  0
  -25.0747  -34.0282   25.0566 H   0  0  0  0  0  0  0  0  0  0  0  0
  -22.7881  -31.3489   21.4131 H   0  0  0  0  0  0  0  0  0  0  0  0
  -23.3854  -35.9823   23.3648 H   0  0  0  0  0  0  0  0  0  0  0  0
  -24.3696  -36.8624   22.2204 H   0  0  0  0  0  0  0  0  0  0  0  0
  -23.7669  -37.6632   23.6516 H   0  0  0  0  0  0  0  0  0  0  0  0
  -25.9445  -31.6237   20.5691 H   0  0  0  0  0  0  0  0  0  0  0  0
  -26.7436  -31.0079   22.0108 H   0  0  0  0  0  0  0  0  0  0  0  0
  -28.0090  -29.1452   21.2057 H   0  0  0  0  0  0  0  0  0  0  0  0
  -26.1369  -26.0560   19.0719 H   0  0  0  0  0  0  0  0  0  0  0  0
  -24.0652  -27.2961   19.0997 H   0  0  0  0  0  0  0  0  0  0  0  0
  -23.6156  -30.5365   19.3930 H   0  0  0  0  0  0  0  0  0  0  0  0
  -22.7355  -29.1425   19.9945 H   0  0  0  0  0  0  0  0  0  0  0  0
  -25.1353  -36.2335   25.0565 H   0  0  0  0  0  0  0  0  0  0  0  0
  -21.0070  -28.3206   24.0793 H   0  0  0  0  0  0  0  0  0  0  0  0
  -20.5555  -26.2518   23.3550 H   0  0  0  0  0  0  0  0  0  0  0  0
  -21.5974  -26.8362   22.0454 H   0  0  0  0  0  0  0  0  0  0  0  0
  -19.6810  -25.6422   21.1488 H   0  0  0  0  0  0  0  0  0  0  0  0
  -19.6406  -27.3343   20.7034 H   0  0  0  0  0  0  0  0  0  0  0  0
  -17.4282  -26.6888   21.4113 H   0  0  0  0  0  0  0  0  0  0  0  0
  -18.0803  -26.0130   22.9049 H   0  0  0  0  0  0  0  0  0  0  0  0
  -19.7265  -30.6774   24.2204 H   0  0  0  0  0  0  0  0  0  0  0  0
  -17.5064  -31.5856   24.4483 H   0  0  0  0  0  0  0  0  0  0  0  0
  -15.5878  -30.2839   23.7407 H   0  0  0  0  0  0  0  0  0  0  0  0
  -15.9120  -28.0941   22.7766 H   0  0  0  0  0  0  0  0  0  0  0  0
  -24.5787  -30.7757   25.6817 H   0  0  0  0  0  0  0  0  0  0  0  0
  -25.0041  -32.2289   26.5536 H   0  0  0  0  0  0  0  0  0  0  0  0
  -25.8166  -30.7245   26.9138 H   0  0  0  0  0  0  0  0  0  0  0  0
  -26.2892  -29.7335   24.0803 H   0  0  0  0  0  0  0  0  0  0  0  0
  -27.4336  -29.7484   25.4006 H   0  0  0  0  0  0  0  0  0  0  0  0
  -27.8466  -30.4994   23.8779 H   0  0  0  0  0  0  0  0  0  0  0  0
  -27.2251  -33.3632   26.1242 H   0  0  0  0  0  0  0  0  0  0  0  0
  -28.3902  -32.6065   25.0645 H   0  0  0  0  0  0  0  0  0  0  0  0
  -27.9772  -31.8555   26.5872 H   0  0  0  0  0  0  0  0  0  0  0  0
  -28.2744  -38.0016   24.6863 H   0  0  0  0  0  0  0  0  0  0  0  0
  -28.0396  -36.2711   24.7461 H   0  0  0  0  0  0  0  0  0  0  0  0
  -27.1773  -37.3087   25.8564 H   0  0  0  0  0  0  0  0  0  0  0  0
  -20.9627  -29.9365   21.7352 H   0  0  0  0  0  0  0  0  0  0  0  0
  -26.0447  -38.2561   24.0273 H   0  0  0  0  0  0  0  0  0  0  0  0
  -28.3389  -24.7533   21.4761 H   0  0  0  0  0  0  0  0  0  0  0  0
  -30.2780  -22.0660   17.9799 H   0  0  0  0  0  0  0  0  0  0  0  0
  -30.4255  -17.3720   23.6038 H   0  0  0  0  0  0  0  0  0  0  0  0
  -31.9954  -16.6484   23.8582 H   0  0  0  0  0  0  0  0  0  0  0  0
  -30.5926  -15.6329   23.6262 H   0  0  0  0  0  0  0  0  0  0  0  0
  -32.2024  -18.7286   20.0857 H   0  0  0  0  0  0  0  0  0  0  0  0
  -32.0382  -19.0686   21.7930 H   0  0  0  0  0  0  0  0  0  0  0  0
  -30.0114  -16.8204   20.7939 H   0  0  0  0  0  0  0  0  0  0  0  0
  -28.7833  -23.7911   17.5114 H   0  0  0  0  0  0  0  0  0  0  0  0
  -29.5644  -23.4773   23.1245 H   0  0  0  0  0  0  0  0  0  0  0  0
  -30.5966  -22.2000   22.6654 H   0  0  0  0  0  0  0  0  0  0  0  0
  -32.7652  -22.4899   20.2435 H   0  0  0  0  0  0  0  0  0  0  0  0
  -33.1165  -20.8606   20.6037 H   0  0  0  0  0  0  0  0  0  0  0  0
  -27.0923  -26.2724   18.8735 H   0  0  0  0  0  0  0  0  0  0  0  0
  -29.6940  -19.9234   20.5137 H   0  0  0  0  0  0  0  0  0  0  0  0
  1 25  1  0
  1 30  2  0
  1 84  1  0
  2  3  1  0
  2 25  1  0
  2 87  1  0
  2 88  1  0
  3  4  1  0
  3 89  1  0
  3 90  1  0
  4  5  1  0
  4 91  1  0
  4 92  1  0
  5  6  1  0
  5 26  1  0
  5 93  1  6
  6 25  1  0
  6 94  1  0
  6 95  1  0
  7  8  2  0
  7 26  1  0
  7 29  1  0
  8  9  1  0
  8 22  1  0
  9 10  1  0
  9 27  2  0
 10 11  2  0
 10 15  1  0
 11 12  1  0
 11 96  1  0
 12 13  2  0
 12 97  1  0
 13 14  1  0
 13 31  1  0
 14 15  2  0
 14 98  1  0
 15 99  1  0
 16 17  2  0
 16 21  1  0
 16 31  1  0
 17 18  1  0
 17100  1  0
 18 19  2  0
 18101  1  0
 19 20  1  0
 19 24  1  0
 20 21  2  0
 20102  1  0
 21 23  1  0
 22 28  1  0
 22 32  2  0
 26 27  1  0
 28103  1  0
 28104  1  0
 29105  1  0
 29106  1  0
 33 34  1  0
 33 66  1  0
 33 70  2  0
 34 36  1  0
 34 59  1  0
 34107  1  6
 35 44  2  0
 35 45  1  0
 35 68  1  0
 36 56  1  0
 36108  1  0
 37 39  1  0
 37 47  1  0
 37 66  1  0
 37109  1  6
 38 43  2  0
 38 46  1  0
 38 47  1  0
 39 64  1  0
 39 67  2  0
 40 52  1  0
 40 53  2  0
 40 58  1  0
 41110  1  0
 41111  1  0
 41112  1  0
 42 43  1  0
 42 66  1  0
 42113  1  0
 42114  1  0
 43 44  1  0
 44115  1  0
 45 46  2  0
 45116  1  0
 46117  1  0
 47118  1  0
 47119  1  0
 48 41  1  0
 48 56  1  0
 48 65  1  0
 48120  1  1
 49 50  1  0
 49 53  1  0
 49 64  1  0
 49121  1  1
 50 51  1  0
 50122  1  0
 50123  1  0
 51 52  1  0
 51124  1  0
 51125  1  0
 52126  1  0
 52127  1  0
 53 54  1  0
 54 55  2  0
 54128  1  0
 55 57  1  0
 55129  1  0
 56 69  2  0
 57 58  2  0
 57130  1  0
 58131  1  0
 59 60  1  0
 59 61  1  0
 59 62  1  0
 60132  1  0
 60133  1  0
 60134  1  0
 61135  1  0
 61136  1  0
 61137  1  0
 62138  1  0
 62139  1  0
 62140  1  0
 63 65  1  0
 63141  1  0
 63142  1  0
 63143  1  0
 64144  1  0
 65145  1  0
 68 80  1  0
 71 74  2  0
 71 75  1  0
 71146  1  0
 72 73  2  0
 72 81  1  0
 72147  1  0
 73 74  1  0
 73 76  1  0
 74 82  1  0
 75 81  2  0
 75 84  1  0
 76 83  1  0
 76 85  2  0
 77 78  1  0
 77 80  1  0
 77 86  2  0
 78148  1  0
 78149  1  0
 78150  1  0
 79 85  1  0
 79151  1  0
 79152  1  0
 80 79  1  0
 80153  1  6
 81154  1  0
 82155  1  0
 82156  1  0
 83157  1  0
 83158  1  0
 84159  1  0
 85160  1  0
M  CHG  2  81   1  85   1
M  ISO  4   1 100  68 101  80 101  84 100
M  END
$$$$
51
     RDKit          3D

154162  0  0  0  0  0  0  0  0999 V2000
  -30.7652  -14.3608   20.6636 C   0  0  0  0  0  0  0  0  0100  0  0
  -30.4392  -12.2669   19.3775 C   0  0  0  0  0  0  0  0  0101  0  0
  -29.4791  -12.5281   18.1977 C   0  0  0  0  0  0  0  0  0102  0  0
  -27.9985  -12.3963   18.6038 C   0  0  0  0  0  0  0  0  0103  0  0
  -27.6639  -13.2170   19.8820 C   0  0  2  0  0  0  0  0  0104  0  0
  -28.6795  -12.9602   21.0279 C   0  0  0  0  0  0  0  0  0105  0  0
  -25.2633  -13.8245   20.5754 C   0  0  0  0  0  0  0  0  0106  0  0
  -24.1645  -13.0409   20.9408 C   0  0  0  0  0  0  0  0  0107  0  0
  -24.6400  -11.7009   20.8697 C   0  0  0  0  0  0  0  0  0108  0  0
  -23.9005  -10.4085   21.0420 C   0  0  0  0  0  0  0  0  0109  0  0
  -24.3588   -9.4123   21.9123 C   0  0  0  0  0  0  0  0  0110  0  0
  -23.6296   -8.2350   22.0803 C   0  0  0  0  0  0  0  0  0111  0  0
  -22.4385   -8.0419   21.3657 C   0  0  0  0  0  0  0  0  0112  0  0
  -22.0103   -9.0167   20.4678 C   0  0  0  0  0  0  0  0  0113  0  0
  -22.7317  -10.1925   20.3102 C   0  0  0  0  0  0  0  0  0114  0  0
  -21.6857   -6.0709   22.5391 C   0  0  0  0  0  0  0  0  0115  0  0
  -21.4064   -6.5490   23.8264 C   0  0  0  0  0  0  0  0  0116  0  0
  -21.3635   -5.6677   24.9085 C   0  0  0  0  0  0  0  0  0117  0  0
  -21.5973   -4.3067   24.7088 C   0  0  0  0  0  0  0  0  0118  0  0
  -21.8700   -3.8284   23.4282 C   0  0  0  0  0  0  0  0  0119  0  0
  -21.9144   -4.7056   22.3460 C   0  0  0  0  0  0  0  0  0120  0  0
  -22.8194  -13.5263   21.1763 C   0  0  0  0  0  0  0  0  0121  0  0
  -22.1559   -4.2206   21.1063 F   0  0  0  0  0  0  0  0  0122  0  0
  -21.5628   -3.4510   25.7555 F   0  0  0  0  0  0  0  0  0123  0  0
  -30.0261  -13.1803   20.4553 N   0  0  0  0  0  0  0  0  0124  0  0
  -26.2911  -12.9356   20.3443 N   0  0  0  0  0  0  0  0  0125  0  0
  -25.9236  -11.6675   20.5847 N   0  0  0  0  0  0  0  0  0126  0  0
  -22.0708  -12.7905   22.0005 N   0  0  0  0  0  0  0  0  0127  0  0
  -25.4117  -15.1773   20.4097 N   0  0  0  0  0  0  0  0  0128  0  0
  -31.7916  -14.6724   20.0536 O   0  0  0  0  0  0  0  0  0129  0  0
  -21.6670   -6.9022   21.4423 O   0  0  0  0  0  0  0  0  0130  0  0
  -22.3946  -14.5564   20.6568 O   0  0  0  0  0  0  0  0  0131  0  0
  -24.6048  -31.8614   23.2223 C   0  0  0  0  0  0  0  0  0100  0  0
  -25.8822  -32.4841   23.8616 C   0  0  1  0  0  0  0  0  0101  0  0
  -27.2536  -27.5042   20.1156 C   0  0  0  0  0  0  0  0  0102  0  0
  -25.5726  -33.8762   24.2210 N   0  0  0  0  0  0  0  0  0103  0  0
  -23.4066  -30.4859   21.5461 C   0  0  2  0  0  0  0  0  0104  0  0
  -24.8467  -28.9636   20.1247 C   0  0  0  0  0  0  0  0  0105  0  0
  -22.7412  -29.4652   22.5052 C   0  0  0  0  0  0  0  0  0106  0  0
  -18.0167  -28.1302   22.8626 C   0  0  0  0  0  0  0  0  0107  0  0
  -24.1342  -36.7390   23.2568 C   0  0  0  0  0  0  0  0  0108  0  0
  -25.9141  -30.8882   21.3456 C   0  0  0  0  0  0  0  0  0109  0  0
  -25.9930  -29.5029   20.7208 C   0  0  0  0  0  0  0  0  0110  0  0
  -27.1758  -28.7612   20.7331 C   0  0  0  0  0  0  0  0  0111  0  0
  -26.1032  -26.9836   19.5230 C   0  0  0  0  0  0  0  0  0112  0  0
  -24.9097  -27.7011   19.5331 C   0  0  0  0  0  0  0  0  0113  0  0
  -23.5715  -29.7899   20.1582 C   0  0  0  0  0  0  0  0  0114  0  0
  -25.3990  -36.3212   24.0232 C   0  0  1  0  0  0  0  0  0115  0  0
  -20.5793  -28.3813   23.1004 C   0  0  2  0  0  0  0  0  0116  0  0
  -20.6548  -26.9392   22.5411 C   0  0  0  0  0  0  0  0  0117  0  0
  -19.5615  -26.6407   21.5143 C   0  0  0  0  0  0  0  0  0118  0  0
  -18.1797  -26.7818   22.1673 C   0  0  0  0  0  0  0  0  0119  0  0
  -19.1385  -28.8769   23.2988 C   0  0  0  0  0  0  0  0  0120  0  0
  -18.9183  -30.1286   23.8878 C   0  0  0  0  0  0  0  0  0121  0  0
  -17.6396  -30.6493   24.0352 C   0  0  0  0  0  0  0  0  0122  0  0
  -25.9153  -34.9582   23.4993 C   0  0  0  0  0  0  0  0  0123  0  0
  -16.5415  -29.9068   23.6254 C   0  0  0  0  0  0  0  0  0124  0  0
  -16.7331  -28.6521   23.0586 C   0  0  0  0  0  0  0  0  0125  0  0
  -26.4583  -31.6439   25.0683 C   0  0  0  0  0  0  0  0  0126  0  0
  -25.3807  -31.3179   26.1374 C   0  0  0  0  0  0  0  0  0127  0  0
  -27.0530  -30.3024   24.5680 C   0  0  0  0  0  0  0  0  0128  0  0
  -27.6014  -32.4281   25.7651 C   0  0  0  0  0  0  0  0  0129  0  0
  -27.5629  -37.2220   24.8621 C   0  0  0  0  0  0  0  0  0130  0  0
  -21.4133  -29.3375   22.3735 N   0  0  0  0  0  0  0  0  0131  0  0
  -26.4706  -37.3372   23.9061 N   0  0  0  0  0  0  0  0  0132  0  0
  -24.6674  -31.0544   22.1178 N   0  0  0  0  0  0  0  0  0133  0  0
  -23.4259  -28.8150   23.2971 O   0  0  0  0  0  0  0  0  0134  0  0
  -28.3948  -26.7345   20.0089 O   0  0  0  0  0  0  0  0  0135  0  0
  -26.5870  -34.9065   22.4671 O   0  0  0  0  0  0  0  0  0136  0  0
  -23.5365  -32.1254   23.7833 O   0  0  0  0  0  0  0  0  0137  0  0
  -29.7801  -20.7020   20.4722 C   0  0  0  0  0  0  0  0  0  0  0  0
  -30.5957  -19.5584   20.6460 C   0  0  0  0  0  0  0  0  0  0  0  0
  -31.8651  -19.9342   20.2727 C   0  0  0  0  0  0  0  0  0  0  0  0
  -30.6094  -21.6952   20.0053 C   0  0  0  0  0  0  0  0  0  0  0  0
  -30.2103  -18.2827   21.1059 C   0  0  0  0  0  0  0  0  0  0  0  0
  -28.9438  -17.8793   21.4635 C   0  0  0  0  0  0  0  0  0  0  0  0
  -33.1574  -19.2323   20.2175 C   0  0  0  0  0  0  0  0  0  0  0  0
  -29.0665  -23.6385   19.7429 C   0  0  0  0  0  0  0  0  0  0  0  0
  -27.8084  -25.7873   19.3319 C   0  0  0  0  0  0  0  0  0  1  0  0
  -29.1490  -25.0798   19.2665 C   0  0  0  0  0  0  0  0  0  0  0  0
  -30.3673  -23.0149   19.6613 N   0  0  0  0  0  0  0  0  0  0  0  0
  -31.8820  -21.2353   19.8810 O   0  0  0  0  0  0  0  0  0  0  0  0
  -30.0478  -25.7570   20.0259 F   0  0  0  0  0  0  0  0  0  0  0  0
  -29.6063  -25.1092   17.9884 F   0  0  0  0  0  0  0  0  0  0  0  0
  -31.4485  -12.4701   19.0860 H   0  0  0  0  0  0  0  0  0  0  0  0
  -30.3970  -11.2460   19.6950 H   0  0  0  0  0  0  0  0  0  0  0  0
  -29.6870  -11.8204   17.4226 H   0  0  0  0  0  0  0  0  0  0  0  0
  -29.6375  -13.5326   17.8649 H   0  0  0  0  0  0  0  0  0  0  0  0
  -27.7830  -11.3650   18.7904 H   0  0  0  0  0  0  0  0  0  0  0  0
  -27.4028  -12.7801   17.8021 H   0  0  0  0  0  0  0  0  0  0  0  0
  -27.7353  -14.2503   19.6136 H   0  0  0  0  0  0  0  0  0  0  0  0
  -28.5890  -11.9550   21.3832 H   0  0  0  0  0  0  0  0  0  0  0  0
  -28.5005  -13.6134   21.8562 H   0  0  0  0  0  0  0  0  0  0  0  0
  -25.2399   -9.5495   22.4318 H   0  0  0  0  0  0  0  0  0  0  0  0
  -23.9663   -7.5070   22.7297 H   0  0  0  0  0  0  0  0  0  0  0  0
  -21.1515   -8.8641   19.9162 H   0  0  0  0  0  0  0  0  0  0  0  0
  -22.4016  -10.9115   19.6476 H   0  0  0  0  0  0  0  0  0  0  0  0
  -21.2319   -7.5552   23.9750 H   0  0  0  0  0  0  0  0  0  0  0  0
  -21.1589   -6.0228   25.8556 H   0  0  0  0  0  0  0  0  0  0  0  0
  -22.0396   -2.8212   23.2809 H   0  0  0  0  0  0  0  0  0  0  0  0
  -22.4401  -11.9703   22.4008 H   0  0  0  0  0  0  0  0  0  0  0  0
  -21.1493  -13.0679   22.2082 H   0  0  0  0  0  0  0  0  0  0  0  0
  -24.6538  -15.7807   20.5848 H   0  0  0  0  0  0  0  0  0  0  0  0
  -26.2762  -15.5453   20.1156 H   0  0  0  0  0  0  0  0  0  0  0  0
  -26.6778  -32.4663   23.1464 H   0  0  0  0  0  0  0  0  0  0  0  0
  -25.0747  -34.0282   25.0566 H   0  0  0  0  0  0  0  0  0  0  0  0
  -22.7881  -31.3489   21.4131 H   0  0  0  0  0  0  0  0  0  0  0  0
  -23.3854  -35.9823   23.3648 H   0  0  0  0  0  0  0  0  0  0  0  0
  -24.3696  -36.8624   22.2204 H   0  0  0  0  0  0  0  0  0  0  0  0
  -23.7669  -37.6632   23.6516 H   0  0  0  0  0  0  0  0  0  0  0  0
  -25.9445  -31.6237   20.5691 H   0  0  0  0  0  0  0  0  0  0  0  0
  -26.7436  -31.0079   22.0108 H   0  0  0  0  0  0  0  0  0  0  0  0
  -28.0090  -29.1452   21.2057 H   0  0  0  0  0  0  0  0  0  0  0  0
  -26.1369  -26.0560   19.0719 H   0  0  0  0  0  0  0  0  0  0  0  0
  -24.0652  -27.2961   19.0997 H   0  0  0  0  0  0  0  0  0  0  0  0
  -23.6156  -30.5365   19.3930 H   0  0  0  0  0  0  0  0  0  0  0  0
  -22.7355  -29.1425   19.9945 H   0  0  0  0  0  0  0  0  0  0  0  0
  -25.1353  -36.2335   25.0565 H   0  0  0  0  0  0  0  0  0  0  0  0
  -21.0070  -28.3206   24.0793 H   0  0  0  0  0  0  0  0  0  0  0  0
  -20.5555  -26.2518   23.3550 H   0  0  0  0  0  0  0  0  0  0  0  0
  -21.5974  -26.8362   22.0454 H   0  0  0  0  0  0  0  0  0  0  0  0
  -19.6810  -25.6422   21.1488 H   0  0  0  0  0  0  0  0  0  0  0  0
  -19.6406  -27.3343   20.7034 H   0  0  0  0  0  0  0  0  0  0  0  0
  -17.4282  -26.6888   21.4113 H   0  0  0  0  0  0  0  0  0  0  0  0
  -18.0803  -26.0130   22.9049 H   0  0  0  0  0  0  0  0  0  0  0  0
  -19.7265  -30.6774   24.2204 H   0  0  0  0  0  0  0  0  0  0  0  0
  -17.5064  -31.5856   24.4483 H   0  0  0  0  0  0  0  0  0  0  0  0
  -15.5878  -30.2839   23.7407 H   0  0  0  0  0  0  0  0  0  0  0  0
  -15.9120  -28.0941   22.7766 H   0  0  0  0  0  0  0  0  0  0  0  0
  -24.5787  -30.7757   25.6817 H   0  0  0  0  0  0  0  0  0  0  0  0
  -25.0041  -32.2289   26.5536 H   0  0  0  0  0  0  0  0  0  0  0  0
  -25.8166  -30.7245   26.9138 H   0  0  0  0  0  0  0  0  0  0  0  0
  -26.2892  -29.7335   24.0803 H   0  0  0  0  0  0  0  0  0  0  0  0
  -27.4336  -29.7484   25.4006 H   0  0  0  0  0  0  0  0  0  0  0  0
  -27.8466  -30.4994   23.8779 H   0  0  0  0  0  0  0  0  0  0  0  0
  -27.2251  -33.3632   26.1242 H   0  0  0  0  0  0  0  0  0  0  0  0
  -28.3902  -32.6065   25.0645 H   0  0  0  0  0  0  0  0  0  0  0  0
  -27.9772  -31.8555   26.5872 H   0  0  0  0  0  0  0  0  0  0  0  0
  -28.2744  -38.0016   24.6863 H   0  0  0  0  0  0  0  0  0  0  0  0
  -28.0396  -36.2711   24.7461 H   0  0  0  0  0  0  0  0  0  0  0  0
  -27.1773  -37.3087   25.8564 H   0  0  0  0  0  0  0  0  0  0  0  0
  -20.9627  -29.9365   21.7352 H   0  0  0  0  0  0  0  0  0  0  0  0
  -26.0447  -38.2561   24.0273 H   0  0  0  0  0  0  0  0  0  0  0  0
  -28.7677  -20.7758   20.6582 H   0  0  0  0  0  0  0  0  0  0  0  0
  -30.9579  -17.5754   21.1827 H   0  0  0  0  0  0  0  0  0  0  0  0
  -28.0348  -18.2622   21.7670 H   0  0  0  0  0  0  0  0  0  0  0  0
  -33.0288  -18.2219   20.5453 H   0  0  0  0  0  0  0  0  0  0  0  0
  -33.8597  -19.7275   20.8550 H   0  0  0  0  0  0  0  0  0  0  0  0
  -33.5233  -19.2372   19.2120 H   0  0  0  0  0  0  0  0  0  0  0  0
  -28.3766  -23.1007   19.1266 H   0  0  0  0  0  0  0  0  0  0  0  0
  -28.7334  -23.6236   20.7596 H   0  0  0  0  0  0  0  0  0  0  0  0
  -27.0519  -25.2575   19.8722 H   0  0  0  0  0  0  0  0  0  0  0  0
  -27.2440  -25.9989   18.4478 H   0  0  0  0  0  0  0  0  0  0  0  0
  -31.1240  -23.5585   19.3434 H   0  0  0  0  0  0  0  0  0  0  0  0
  1 25  1  0
  1 30  2  0
  1 76  1  0
  2  3  1  0
  2 25  1  0
  2 85  1  0
  2 86  1  0
  3  4  1  0
  3 87  1  0
  3 88  1  0
  4  5  1  0
  4 89  1  0
  4 90  1  0
  5  6  1  0
  5 26  1  0
  5 91  1  6
  6 25  1  0
  6 92  1  0
  6 93  1  0
  7  8  2  0
  7 26  1  0
  7 29  1  0
  8  9  1  0
  8 22  1  0
  9 10  1  0
  9 27  2  0
 10 11  2  0
 10 15  1  0
 11 12  1  0
 11 94  1  0
 12 13  2  0
 12 95  1  0
 13 14  1  0
 13 31  1  0
 14 15  2  0
 14 96  1  0
 15 97  1  0
 16 17  2  0
 16 21  1  0
 16 31  1  0
 17 18  1  0
 17 98  1  0
 18 19  2  0
 18 99  1  0
 19 20  1  0
 19 24  1  0
 20 21  2  0
 20100  1  0
 21 23  1  0
 22 28  1  0
 22 32  2  0
 26 27  1  0
 28101  1  0
 28102  1  0
 29103  1  0
 29104  1  0
 33 34  1  0
 33 66  1  0
 33 70  2  0
 34 36  1  0
 34 59  1  0
 34105  1  6
 35 44  2  0
 35 45  1  0
 35 68  1  0
 36 56  1  0
 36106  1  0
 37 39  1  0
 37 47  1  0
 37 66  1  0
 37107  1  6
 38 43  2  0
 38 46  1  0
 38 47  1  0
 39 64  1  0
 39 67  2  0
 40 52  1  0
 40 53  2  0
 40 58  1  0
 41108  1  0
 41109  1  0
 41110  1  0
 42 43  1  0
 42 66  1  0
 42111  1  0
 42112  1  0
 43 44  1  0
 44113  1  0
 45 46  2  0
 45114  1  0
 46115  1  0
 47116  1  0
 47117  1  0
 48 41  1  0
 48 56  1  0
 48 65  1  0
 48118  1  1
 49 50  1  0
 49 53  1  0
 49 64  1  0
 49119  1  1
 50 51  1  0
 50120  1  0
 50121  1  0
 51 52  1  0
 51122  1  0
 51123  1  0
 52124  1  0
 52125  1  0
 53 54  1  0
 54 55  2  0
 54126  1  0
 55 57  1  0
 55127  1  0
 56 69  2  0
 57 58  2  0
 57128  1  0
 58129  1  0
 59 60  1  0
 59 61  1  0
 59 62  1  0
 60130  1  0
 60131  1  0
 60132  1  0
 61133  1  0
 61134  1  0
 61135  1  0
 62136  1  0
 62137  1  0
 62138  1  0
 63 65  1  0
 63139  1  0
 63140  1  0
 63141  1  0
 64142  1  0
 65143  1  0
 68 79  1  0
 71 72  1  0
 71 74  2  0
 71144  1  0
 72 73  2  0
 72 75  1  0
 73 77  1  0
 73 82  1  0
 74 81  1  0
 74 82  1  0
 75 76  2  0
 75145  1  0
 76146  1  0
 77147  1  0
 77148  1  0
 77149  1  0
 78 80  1  0
 78 81  1  0
 78150  1  0
 78151  1  0
 79 80  1  0
 79152  1  0
 79153  1  0
 80 83  1  0
 80 84  1  0
 81154  1  0
M  ISO  4   1 100  68 101  76 100  79 101
M  END
$$$$
52
     RDKit          3D

154162  0  0  0  0  0  0  0  0999 V2000
  -30.7652  -14.3608   20.6636 C   0  0  0  0  0  0  0  0  0100  0  0
  -30.4392  -12.2669   19.3775 C   0  0  0  0  0  0  0  0  0101  0  0
  -29.4791  -12.5281   18.1977 C   0  0  0  0  0  0  0  0  0102  0  0
  -27.9985  -12.3963   18.6038 C   0  0  0  0  0  0  0  0  0103  0  0
  -27.6639  -13.2170   19.8820 C   0  0  2  0  0  0  0  0  0104  0  0
  -28.6795  -12.9602   21.0279 C   0  0  0  0  0  0  0  0  0105  0  0
  -25.2633  -13.8245   20.5754 C   0  0  0  0  0  0  0  0  0106  0  0
  -24.1645  -13.0409   20.9408 C   0  0  0  0  0  0  0  0  0107  0  0
  -24.6400  -11.7009   20.8697 C   0  0  0  0  0  0  0  0  0108  0  0
  -23.9005  -10.4085   21.0420 C   0  0  0  0  0  0  0  0  0109  0  0
  -24.3588   -9.4123   21.9123 C   0  0  0  0  0  0  0  0  0110  0  0
  -23.6296   -8.2350   22.0803 C   0  0  0  0  0  0  0  0  0111  0  0
  -22.4385   -8.0419   21.3657 C   0  0  0  0  0  0  0  0  0112  0  0
  -22.0103   -9.0167   20.4678 C   0  0  0  0  0  0  0  0  0113  0  0
  -22.7317  -10.1925   20.3102 C   0  0  0  0  0  0  0  0  0114  0  0
  -21.6857   -6.0709   22.5391 C   0  0  0  0  0  0  0  0  0115  0  0
  -21.4064   -6.5490   23.8264 C   0  0  0  0  0  0  0  0  0116  0  0
  -21.3635   -5.6677   24.9085 C   0  0  0  0  0  0  0  0  0117  0  0
  -21.5973   -4.3067   24.7088 C   0  0  0  0  0  0  0  0  0118  0  0
  -21.8700   -3.8284   23.4282 C   0  0  0  0  0  0  0  0  0119  0  0
  -21.9144   -4.7056   22.3460 C   0  0  0  0  0  0  0  0  0120  0  0
  -22.8194  -13.5263   21.1763 C   0  0  0  0  0  0  0  0  0121  0  0
  -22.1559   -4.2206   21.1063 F   0  0  0  0  0  0  0  0  0122  0  0
  -21.5628   -3.4510   25.7555 F   0  0  0  0  0  0  0  0  0123  0  0
  -30.0261  -13.1803   20.4553 N   0  0  0  0  0  0  0  0  0124  0  0
  -26.2911  -12.9356   20.3443 N   0  0  0  0  0  0  0  0  0125  0  0
  -25.9236  -11.6675   20.5847 N   0  0  0  0  0  0  0  0  0126  0  0
  -22.0708  -12.7905   22.0005 N   0  0  0  0  0  0  0  0  0127  0  0
  -25.4117  -15.1773   20.4097 N   0  0  0  0  0  0  0  0  0128  0  0
  -31.7916  -14.6724   20.0536 O   0  0  0  0  0  0  0  0  0129  0  0
  -21.6670   -6.9022   21.4423 O   0  0  0  0  0  0  0  0  0130  0  0
  -22.3946  -14.5564   20.6568 O   0  0  0  0  0  0  0  0  0131  0  0
  -24.6048  -31.8614   23.2223 C   0  0  0  0  0  0  0  0  0100  0  0
  -25.8822  -32.4841   23.8616 C   0  0  1  0  0  0  0  0  0101  0  0
  -27.2536  -27.5042   20.1156 C   0  0  0  0  0  0  0  0  0102  0  0
  -25.5726  -33.8762   24.2210 N   0  0  0  0  0  0  0  0  0103  0  0
  -23.4066  -30.4859   21.5461 C   0  0  2  0  0  0  0  0  0104  0  0
  -24.8467  -28.9636   20.1247 C   0  0  0  0  0  0  0  0  0105  0  0
  -22.7412  -29.4652   22.5052 C   0  0  0  0  0  0  0  0  0106  0  0
  -18.0167  -28.1302   22.8626 C   0  0  0  0  0  0  0  0  0107  0  0
  -24.1342  -36.7390   23.2568 C   0  0  0  0  0  0  0  0  0108  0  0
  -25.9141  -30.8882   21.3456 C   0  0  0  0  0  0  0  0  0109  0  0
  -25.9930  -29.5029   20.7208 C   0  0  0  0  0  0  0  0  0110  0  0
  -27.1758  -28.7612   20.7331 C   0  0  0  0  0  0  0  0  0111  0  0
  -26.1032  -26.9836   19.5230 C   0  0  0  0  0  0  0  0  0112  0  0
  -24.9097  -27.7011   19.5331 C   0  0  0  0  0  0  0  0  0113  0  0
  -23.5715  -29.7899   20.1582 C   0  0  0  0  0  0  0  0  0114  0  0
  -25.3990  -36.3212   24.0232 C   0  0  1  0  0  0  0  0  0115  0  0
  -20.5793  -28.3813   23.1004 C   0  0  2  0  0  0  0  0  0116  0  0
  -20.6548  -26.9392   22.5411 C   0  0  0  0  0  0  0  0  0117  0  0
  -19.5615  -26.6407   21.5143 C   0  0  0  0  0  0  0  0  0118  0  0
  -18.1797  -26.7818   22.1673 C   0  0  0  0  0  0  0  0  0119  0  0
  -19.1385  -28.8769   23.2988 C   0  0  0  0  0  0  0  0  0120  0  0
  -18.9183  -30.1286   23.8878 C   0  0  0  0  0  0  0  0  0121  0  0
  -17.6396  -30.6493   24.0352 C   0  0  0  0  0  0  0  0  0122  0  0
  -25.9153  -34.9582   23.4993 C   0  0  0  0  0  0  0  0  0123  0  0
  -16.5415  -29.9068   23.6254 C   0  0  0  0  0  0  0  0  0124  0  0
  -16.7331  -28.6521   23.0586 C   0  0  0  0  0  0  0  0  0125  0  0
  -26.4583  -31.6439   25.0683 C   0  0  0  0  0  0  0  0  0126  0  0
  -25.3807  -31.3179   26.1374 C   0  0  0  0  0  0  0  0  0127  0  0
  -27.0530  -30.3024   24.5680 C   0  0  0  0  0  0  0  0  0128  0  0
  -27.6014  -32.4281   25.7651 C   0  0  0  0  0  0  0  0  0129  0  0
  -27.5629  -37.2220   24.8621 C   0  0  0  0  0  0  0  0  0130  0  0
  -21.4133  -29.3375   22.3735 N   0  0  0  0  0  0  0  0  0131  0  0
  -26.4706  -37.3372   23.9061 N   0  0  0  0  0  0  0  0  0132  0  0
  -24.6674  -31.0544   22.1178 N   0  0  0  0  0  0  0  0  0133  0  0
  -23.4259  -28.8150   23.2971 O   0  0  0  0  0  0  0  0  0134  0  0
  -28.3948  -26.7345   20.0089 O   0  0  0  0  0  0  0  0  0135  0  0
  -26.5870  -34.9065   22.4671 O   0  0  0  0  0  0  0  0  0136  0  0
  -23.5365  -32.1254   23.7833 O   0  0  0  0  0  0  0  0  0137  0  0
  -30.5073  -18.5691   23.5453 C   0  0  0  0  0  0  0  0  0  0  0  0
  -31.7728  -18.9863   23.1483 C   0  0  0  0  0  0  0  0  0  0  0  0
  -29.9817  -17.3848   23.0408 C   0  0  0  0  0  0  0  0  0  0  0  0
  -32.4667  -18.1898   22.2518 C   0  0  0  0  0  0  0  0  0  0  0  0
  -30.7557  -16.6601   22.1489 C   0  0  0  0  0  0  0  0  0  0  0  0
  -36.9469  -17.6692   20.1728 C   0  0  0  0  0  0  0  0  0  0  0  0
  -34.5689  -17.8979   20.9398 C   0  0  0  0  0  0  0  0  0  0  0  0
  -35.7231  -19.8597   19.7991 C   0  0  0  0  0  0  0  0  0  1  0  0
  -35.8921  -18.6373   20.7081 C   0  0  2  0  0  0  0  0  0  0  0  0
  -31.9891  -17.0332   21.7400 N   0  0  0  0  0  0  0  0  0  0  0  0
  -30.2147  -15.4537   21.6392 N   0  0  0  0  0  0  0  0  0  0  0  0
  -33.7259  -18.6188   21.8656 N   0  0  0  0  0  0  0  0  0  0  0  0
  -28.7636  -16.9719   23.4138 F   0  0  0  0  0  0  0  0  0  0  0  0
  -36.3388  -19.0820   21.9225 F   0  0  0  0  0  0  0  0  0  0  0  0
  -31.4485  -12.4701   19.0860 H   0  0  0  0  0  0  0  0  0  0  0  0
  -30.3970  -11.2460   19.6950 H   0  0  0  0  0  0  0  0  0  0  0  0
  -29.6870  -11.8204   17.4226 H   0  0  0  0  0  0  0  0  0  0  0  0
  -29.6375  -13.5326   17.8649 H   0  0  0  0  0  0  0  0  0  0  0  0
  -27.7830  -11.3650   18.7904 H   0  0  0  0  0  0  0  0  0  0  0  0
  -27.4028  -12.7801   17.8021 H   0  0  0  0  0  0  0  0  0  0  0  0
  -27.7353  -14.2503   19.6136 H   0  0  0  0  0  0  0  0  0  0  0  0
  -28.5890  -11.9550   21.3832 H   0  0  0  0  0  0  0  0  0  0  0  0
  -28.5005  -13.6134   21.8562 H   0  0  0  0  0  0  0  0  0  0  0  0
  -25.2399   -9.5495   22.4318 H   0  0  0  0  0  0  0  0  0  0  0  0
  -23.9663   -7.5070   22.7297 H   0  0  0  0  0  0  0  0  0  0  0  0
  -21.1515   -8.8641   19.9162 H   0  0  0  0  0  0  0  0  0  0  0  0
  -22.4016  -10.9115   19.6476 H   0  0  0  0  0  0  0  0  0  0  0  0
  -21.2319   -7.5552   23.9750 H   0  0  0  0  0  0  0  0  0  0  0  0
  -21.1589   -6.0228   25.8556 H   0  0  0  0  0  0  0  0  0  0  0  0
  -22.0396   -2.8212   23.2809 H   0  0  0  0  0  0  0  0  0  0  0  0
  -22.4401  -11.9703   22.4008 H   0  0  0  0  0  0  0  0  0  0  0  0
  -21.1493  -13.0679   22.2082 H   0  0  0  0  0  0  0  0  0  0  0  0
  -24.6538  -15.7807   20.5848 H   0  0  0  0  0  0  0  0  0  0  0  0
  -26.2762  -15.5453   20.1156 H   0  0  0  0  0  0  0  0  0  0  0  0
  -26.6778  -32.4663   23.1464 H   0  0  0  0  0  0  0  0  0  0  0  0
  -25.0747  -34.0282   25.0566 H   0  0  0  0  0  0  0  0  0  0  0  0
  -22.7881  -31.3489   21.4131 H   0  0  0  0  0  0  0  0  0  0  0  0
  -23.3854  -35.9823   23.3648 H   0  0  0  0  0  0  0  0  0  0  0  0
  -24.3696  -36.8624   22.2204 H   0  0  0  0  0  0  0  0  0  0  0  0
  -23.7669  -37.6632   23.6516 H   0  0  0  0  0  0  0  0  0  0  0  0
  -25.9445  -31.6237   20.5691 H   0  0  0  0  0  0  0  0  0  0  0  0
  -26.7436  -31.0079   22.0108 H   0  0  0  0  0  0  0  0  0  0  0  0
  -28.0090  -29.1452   21.2057 H   0  0  0  0  0  0  0  0  0  0  0  0
  -26.1369  -26.0560   19.0719 H   0  0  0  0  0  0  0  0  0  0  0  0
  -24.0652  -27.2961   19.0997 H   0  0  0  0  0  0  0  0  0  0  0  0
  -23.6156  -30.5365   19.3930 H   0  0  0  0  0  0  0  0  0  0  0  0
  -22.7355  -29.1425   19.9945 H   0  0  0  0  0  0  0  0  0  0  0  0
  -25.1353  -36.2335   25.0565 H   0  0  0  0  0  0  0  0  0  0  0  0
  -21.0070  -28.3206   24.0793 H   0  0  0  0  0  0  0  0  0  0  0  0
  -20.5555  -26.2518   23.3550 H   0  0  0  0  0  0  0  0  0  0  0  0
  -21.5974  -26.8362   22.0454 H   0  0  0  0  0  0  0  0  0  0  0  0
  -19.6810  -25.6422   21.1488 H   0  0  0  0  0  0  0  0  0  0  0  0
  -19.6406  -27.3343   20.7034 H   0  0  0  0  0  0  0  0  0  0  0  0
  -17.4282  -26.6888   21.4113 H   0  0  0  0  0  0  0  0  0  0  0  0
  -18.0803  -26.0130   22.9049 H   0  0  0  0  0  0  0  0  0  0  0  0
  -19.7265  -30.6774   24.2204 H   0  0  0  0  0  0  0  0  0  0  0  0
  -17.5064  -31.5856   24.4483 H   0  0  0  0  0  0  0  0  0  0  0  0
  -15.5878  -30.2839   23.7407 H   0  0  0  0  0  0  0  0  0  0  0  0
  -15.9120  -28.0941   22.7766 H   0  0  0  0  0  0  0  0  0  0  0  0
  -24.5787  -30.7757   25.6817 H   0  0  0  0  0  0  0  0  0  0  0  0
  -25.0041  -32.2289   26.5536 H   0  0  0  0  0  0  0  0  0  0  0  0
  -25.8166  -30.7245   26.9138 H   0  0  0  0  0  0  0  0  0  0  0  0
  -26.2892  -29.7335   24.0803 H   0  0  0  0  0  0  0  0  0  0  0  0
  -27.4336  -29.7484   25.4006 H   0  0  0  0  0  0  0  0  0  0  0  0
  -27.8466  -30.4994   23.8779 H   0  0  0  0  0  0  0  0  0  0  0  0
  -27.2251  -33.3632   26.1242 H   0  0  0  0  0  0  0  0  0  0  0  0
  -28.3902  -32.6065   25.0645 H   0  0  0  0  0  0  0  0  0  0  0  0
  -27.9772  -31.8555   26.5872 H   0  0  0  0  0  0  0  0  0  0  0  0
  -28.2744  -38.0016   24.6863 H   0  0  0  0  0  0  0  0  0  0  0  0
  -28.0396  -36.2711   24.7461 H   0  0  0  0  0  0  0  0  0  0  0  0
  -27.1773  -37.3087   25.8564 H   0  0  0  0  0  0  0  0  0  0  0  0
  -20.9627  -29.9365   21.7352 H   0  0  0  0  0  0  0  0  0  0  0  0
  -26.0447  -38.2561   24.0273 H   0  0  0  0  0  0  0  0  0  0  0  0
  -29.9603  -19.1362   24.2118 H   0  0  0  0  0  0  0  0  0  0  0  0
  -32.1824  -19.8617   23.5100 H   0  0  0  0  0  0  0  0  0  0  0  0
  -36.6367  -17.2952   19.2195 H   0  0  0  0  0  0  0  0  0  0  0  0
  -37.0618  -16.8536   20.8558 H   0  0  0  0  0  0  0  0  0  0  0  0
  -37.8807  -18.1812   20.0684 H   0  0  0  0  0  0  0  0  0  0  0  0
  -34.7762  -16.9271   21.3391 H   0  0  0  0  0  0  0  0  0  0  0  0
  -34.0558  -17.8178   20.0043 H   0  0  0  0  0  0  0  0  0  0  0  0
  -35.6907  -19.4585   18.8077 H   0  0  0  0  0  0  0  0  0  0  0  0
  -36.5210  -20.4602   20.1833 H   0  0  0  0  0  0  0  0  0  0  0  0
  -29.3056  -15.2640   21.9660 H   0  0  0  0  0  0  0  0  0  0  0  0
  -34.0655  -19.4622   22.2431 H   0  0  0  0  0  0  0  0  0  0  0  0
  1 25  1  0
  1 30  2  0
  1 81  1  0
  2  3  1  0
  2 25  1  0
  2 85  1  0
  2 86  1  0
  3  4  1  0
  3 87  1  0
  3 88  1  0
  4  5  1  0
  4 89  1  0
  4 90  1  0
  5  6  1  0
  5 26  1  0
  5 91  1  6
  6 25  1  0
  6 92  1  0
  6 93  1  0
  7  8  2  0
  7 26  1  0
  7 29  1  0
  8  9  1  0
  8 22  1  0
  9 10  1  0
  9 27  2  0
 10 11  2  0
 10 15  1  0
 11 12  1  0
 11 94  1  0
 12 13  2  0
 12 95  1  0
 13 14  1  0
 13 31  1  0
 14 15  2  0
 14 96  1  0
 15 97  1  0
 16 17  2  0
 16 21  1  0
 16 31  1  0
 17 18  1  0
 17 98  1  0
 18 19  2  0
 18 99  1  0
 19 20  1  0
 19 24  1  0
 20 21  2  0
 20100  1  0
 21 23  1  0
 22 28  1  0
 22 32  2  0
 26 27  1  0
 28101  1  0
 28102  1  0
 29103  1  0
 29104  1  0
 33 34  1  0
 33 66  1  0
 33 70  2  0
 34 36  1  0
 34 59  1  0
 34105  1  6
 35 44  2  0
 35 45  1  0
 35 68  1  0
 36 56  1  0
 36106  1  0
 37 39  1  0
 37 47  1  0
 37 66  1  0
 37107  1  6
 38 43  2  0
 38 46  1  0
 38 47  1  0
 39 64  1  0
 39 67  2  0
 40 52  1  0
 40 53  2  0
 40 58  1  0
 41108  1  0
 41109  1  0
 41110  1  0
 42 43  1  0
 42 66  1  0
 42111  1  0
 42112  1  0
 43 44  1  0
 44113  1  0
 45 46  2  0
 45114  1  0
 46115  1  0
 47116  1  0
 47117  1  0
 48 41  1  0
 48 56  1  0
 48 65  1  0
 48118  1  1
 49 50  1  0
 49 53  1  0
 49 64  1  0
 49119  1  1
 50 51  1  0
 50120  1  0
 50121  1  0
 51 52  1  0
 51122  1  0
 51123  1  0
 52124  1  0
 52125  1  0
 53 54  1  0
 54 55  2  0
 54126  1  0
 55 57  1  0
 55127  1  0
 56 69  2  0
 57 58  2  0
 57128  1  0
 58129  1  0
 59 60  1  0
 59 61  1  0
 59 62  1  0
 60130  1  0
 60131  1  0
 60132  1  0
 61133  1  0
 61134  1  0
 61135  1  0
 62136  1  0
 62137  1  0
 62138  1  0
 63 65  1  0
 63139  1  0
 63140  1  0
 63141  1  0
 64142  1  0
 65143  1  0
 68 78  1  0
 71 72  2  0
 71 73  1  0
 71144  1  0
 72 74  1  0
 72145  1  0
 73 75  2  0
 73 83  1  0
 74 80  2  0
 74 82  1  0
 75 80  1  0
 75 81  1  0
 76146  1  0
 76147  1  0
 76148  1  0
 77 79  1  0
 77 82  1  0
 77149  1  0
 77150  1  0
 78 79  1  0
 78151  1  0
 78152  1  0
 79 76  1  0
 79 84  1  1
 81153  1  0
 82154  1  0
M  ISO  4   1 100  68 101  78 101  81 100
M  END
$$$$
53
     RDKit          3D

155163  0  0  0  0  0  0  0  0999 V2000
  -30.7652  -14.3608   20.6636 C   0  0  0  0  0  0  0  0  0100  0  0
  -30.4392  -12.2669   19.3775 C   0  0  0  0  0  0  0  0  0101  0  0
  -29.4791  -12.5281   18.1977 C   0  0  0  0  0  0  0  0  0102  0  0
  -27.9985  -12.3963   18.6038 C   0  0  0  0  0  0  0  0  0103  0  0
  -27.6639  -13.2170   19.8820 C   0  0  2  0  0  0  0  0  0104  0  0
  -28.6795  -12.9602   21.0279 C   0  0  0  0  0  0  0  0  0105  0  0
  -25.2633  -13.8245   20.5754 C   0  0  0  0  0  0  0  0  0106  0  0
  -24.1645  -13.0409   20.9408 C   0  0  0  0  0  0  0  0  0107  0  0
  -24.6400  -11.7009   20.8697 C   0  0  0  0  0  0  0  0  0108  0  0
  -23.9005  -10.4085   21.0420 C   0  0  0  0  0  0  0  0  0109  0  0
  -24.3588   -9.4123   21.9123 C   0  0  0  0  0  0  0  0  0110  0  0
  -23.6296   -8.2350   22.0803 C   0  0  0  0  0  0  0  0  0111  0  0
  -22.4385   -8.0419   21.3657 C   0  0  0  0  0  0  0  0  0112  0  0
  -22.0103   -9.0167   20.4678 C   0  0  0  0  0  0  0  0  0113  0  0
  -22.7317  -10.1925   20.3102 C   0  0  0  0  0  0  0  0  0114  0  0
  -21.6857   -6.0709   22.5391 C   0  0  0  0  0  0  0  0  0115  0  0
  -21.4064   -6.5490   23.8264 C   0  0  0  0  0  0  0  0  0116  0  0
  -21.3635   -5.6677   24.9085 C   0  0  0  0  0  0  0  0  0117  0  0
  -21.5973   -4.3067   24.7088 C   0  0  0  0  0  0  0  0  0118  0  0
  -21.8700   -3.8284   23.4282 C   0  0  0  0  0  0  0  0  0119  0  0
  -21.9144   -4.7056   22.3460 C   0  0  0  0  0  0  0  0  0120  0  0
  -22.8194  -13.5263   21.1763 C   0  0  0  0  0  0  0  0  0121  0  0
  -22.1559   -4.2206   21.1063 F   0  0  0  0  0  0  0  0  0122  0  0
  -21.5628   -3.4510   25.7555 F   0  0  0  0  0  0  0  0  0123  0  0
  -30.0261  -13.1803   20.4553 N   0  0  0  0  0  0  0  0  0124  0  0
  -26.2911  -12.9356   20.3443 N   0  0  0  0  0  0  0  0  0125  0  0
  -25.9236  -11.6675   20.5847 N   0  0  0  0  0  0  0  0  0126  0  0
  -22.0708  -12.7905   22.0005 N   0  0  0  0  0  0  0  0  0127  0  0
  -25.4117  -15.1773   20.4097 N   0  0  0  0  0  0  0  0  0128  0  0
  -31.7916  -14.6724   20.0536 O   0  0  0  0  0  0  0  0  0129  0  0
  -21.6670   -6.9022   21.4423 O   0  0  0  0  0  0  0  0  0130  0  0
  -22.3946  -14.5564   20.6568 O   0  0  0  0  0  0  0  0  0131  0  0
  -24.6048  -31.8614   23.2223 C   0  0  0  0  0  0  0  0  0100  0  0
  -25.8822  -32.4841   23.8616 C   0  0  1  0  0  0  0  0  0101  0  0
  -27.2536  -27.5042   20.1156 C   0  0  0  0  0  0  0  0  0102  0  0
  -25.5726  -33.8762   24.2210 N   0  0  0  0  0  0  0  0  0103  0  0
  -23.4066  -30.4859   21.5461 C   0  0  2  0  0  0  0  0  0104  0  0
  -24.8467  -28.9636   20.1247 C   0  0  0  0  0  0  0  0  0105  0  0
  -22.7412  -29.4652   22.5052 C   0  0  0  0  0  0  0  0  0106  0  0
  -18.0167  -28.1302   22.8626 C   0  0  0  0  0  0  0  0  0107  0  0
  -24.1342  -36.7390   23.2568 C   0  0  0  0  0  0  0  0  0108  0  0
  -25.9141  -30.8882   21.3456 C   0  0  0  0  0  0  0  0  0109  0  0
  -25.9930  -29.5029   20.7208 C   0  0  0  0  0  0  0  0  0110  0  0
  -27.1758  -28.7612   20.7331 C   0  0  0  0  0  0  0  0  0111  0  0
  -26.1032  -26.9836   19.5230 C   0  0  0  0  0  0  0  0  0112  0  0
  -24.9097  -27.7011   19.5331 C   0  0  0  0  0  0  0  0  0113  0  0
  -23.5715  -29.7899   20.1582 C   0  0  0  0  0  0  0  0  0114  0  0
  -25.3990  -36.3212   24.0232 C   0  0  1  0  0  0  0  0  0115  0  0
  -20.5793  -28.3813   23.1004 C   0  0  2  0  0  0  0  0  0116  0  0
  -20.6548  -26.9392   22.5411 C   0  0  0  0  0  0  0  0  0117  0  0
  -19.5615  -26.6407   21.5143 C   0  0  0  0  0  0  0  0  0118  0  0
  -18.1797  -26.7818   22.1673 C   0  0  0  0  0  0  0  0  0119  0  0
  -19.1385  -28.8769   23.2988 C   0  0  0  0  0  0  0  0  0120  0  0
  -18.9183  -30.1286   23.8878 C   0  0  0  0  0  0  0  0  0121  0  0
  -17.6396  -30.6493   24.0352 C   0  0  0  0  0  0  0  0  0122  0  0
  -25.9153  -34.9582   23.4993 C   0  0  0  0  0  0  0  0  0123  0  0
  -16.5415  -29.9068   23.6254 C   0  0  0  0  0  0  0  0  0124  0  0
  -16.7331  -28.6521   23.0586 C   0  0  0  0  0  0  0  0  0125  0  0
  -26.4583  -31.6439   25.0683 C   0  0  0  0  0  0  0  0  0126  0  0
  -25.3807  -31.3179   26.1374 C   0  0  0  0  0  0  0  0  0127  0  0
  -27.0530  -30.3024   24.5680 C   0  0  0  0  0  0  0  0  0128  0  0
  -27.6014  -32.4281   25.7651 C   0  0  0  0  0  0  0  0  0129  0  0
  -27.5629  -37.2220   24.8621 C   0  0  0  0  0  0  0  0  0130  0  0
  -21.4133  -29.3375   22.3735 N   0  0  0  0  0  0  0  0  0131  0  0
  -26.4706  -37.3372   23.9061 N   0  0  0  0  0  0  0  0  0132  0  0
  -24.6674  -31.0544   22.1178 N   0  0  0  0  0  0  0  0  0133  0  0
  -23.4259  -28.8150   23.2971 O   0  0  0  0  0  0  0  0  0134  0  0
  -28.3948  -26.7345   20.0089 O   0  0  0  0  0  0  0  0  0135  0  0
  -26.5870  -34.9065   22.4671 O   0  0  0  0  0  0  0  0  0136  0  0
  -23.5365  -32.1254   23.7833 O   0  0  0  0  0  0  0  0  0137  0  0
  -27.4610  -18.9708   20.5370 C   0  0  0  0  0  0  0  0  0  0  0  0
  -26.8061  -21.5969   20.1900 C   0  0  0  0  0  0  0  0  0  0  0  0
  -28.4734  -19.9181   20.4318 C   0  0  0  0  0  0  0  0  0  0  0  0
  -28.1481  -21.2583   20.2548 C   0  0  0  0  0  0  0  0  0  0  0  0
  -26.1498  -19.4118   20.4597 C   0  0  0  0  0  0  0  0  0  0  0  0
  -30.1278  -24.4089   19.8748 C   0  0  0  0  0  0  0  0  0  0  0  0
  -30.0541  -25.9096   19.6709 C   0  0  0  0  0  0  0  0  0  0  0  0
  -28.8355  -23.6383   19.9568 C   0  0  0  0  0  0  0  0  0  0  0  0
  -28.6944  -26.5510   19.5566 C   0  0  0  0  0  0  0  0  0  1  0  0
  -29.8965  -19.4721   20.5135 C   0  0  0  0  0  0  0  0  0  0  0  0
  -25.7949  -20.7050   20.2883 N   0  0  0  0  0  0  0  0  0  0  0  0
  -29.1235  -22.2375   20.1430 N   0  0  0  0  0  0  0  0  0  0  0  0
  -25.1255  -18.4386   20.5673 N   0  0  0  0  0  0  0  0  0  0  0  0
  -31.2442  -23.9132   19.9621 O   0  0  0  0  0  0  0  0  0  0  0  0
  -31.1119  -26.5228   19.6075 O   0  0  0  0  0  0  0  0  0  0  0  0
  -30.0368  -18.1257   20.6898 F   0  0  0  0  0  0  0  0  0  0  0  0
  -30.6238  -19.7644   19.3959 F   0  0  0  0  0  0  0  0  0  0  0  0
  -30.5671  -20.0508   21.5508 F   0  0  0  0  0  0  0  0  0  0  0  0
  -31.4485  -12.4701   19.0860 H   0  0  0  0  0  0  0  0  0  0  0  0
  -30.3970  -11.2460   19.6950 H   0  0  0  0  0  0  0  0  0  0  0  0
  -29.6870  -11.8204   17.4226 H   0  0  0  0  0  0  0  0  0  0  0  0
  -29.6375  -13.5326   17.8649 H   0  0  0  0  0  0  0  0  0  0  0  0
  -27.7830  -11.3650   18.7904 H   0  0  0  0  0  0  0  0  0  0  0  0
  -27.4028  -12.7801   17.8021 H   0  0  0  0  0  0  0  0  0  0  0  0
  -27.7353  -14.2503   19.6136 H   0  0  0  0  0  0  0  0  0  0  0  0
  -28.5890  -11.9550   21.3832 H   0  0  0  0  0  0  0  0  0  0  0  0
  -28.5005  -13.6134   21.8562 H   0  0  0  0  0  0  0  0  0  0  0  0
  -25.2399   -9.5495   22.4318 H   0  0  0  0  0  0  0  0  0  0  0  0
  -23.9663   -7.5070   22.7297 H   0  0  0  0  0  0  0  0  0  0  0  0
  -21.1515   -8.8641   19.9162 H   0  0  0  0  0  0  0  0  0  0  0  0
  -22.4016  -10.9115   19.6476 H   0  0  0  0  0  0  0  0  0  0  0  0
  -21.2319   -7.5552   23.9750 H   0  0  0  0  0  0  0  0  0  0  0  0
  -21.1589   -6.0228   25.8556 H   0  0  0  0  0  0  0  0  0  0  0  0
  -22.0396   -2.8212   23.2809 H   0  0  0  0  0  0  0  0  0  0  0  0
  -22.4401  -11.9703   22.4008 H   0  0  0  0  0  0  0  0  0  0  0  0
  -21.1493  -13.0679   22.2082 H   0  0  0  0  0  0  0  0  0  0  0  0
  -24.6538  -15.7807   20.5848 H   0  0  0  0  0  0  0  0  0  0  0  0
  -26.2762  -15.5453   20.1156 H   0  0  0  0  0  0  0  0  0  0  0  0
  -26.6778  -32.4663   23.1464 H   0  0  0  0  0  0  0  0  0  0  0  0
  -25.0747  -34.0282   25.0566 H   0  0  0  0  0  0  0  0  0  0  0  0
  -22.7881  -31.3489   21.4131 H   0  0  0  0  0  0  0  0  0  0  0  0
  -23.3854  -35.9823   23.3648 H   0  0  0  0  0  0  0  0  0  0  0  0
  -24.3696  -36.8624   22.2204 H   0  0  0  0  0  0  0  0  0  0  0  0
  -23.7669  -37.6632   23.6516 H   0  0  0  0  0  0  0  0  0  0  0  0
  -25.9445  -31.6237   20.5691 H   0  0  0  0  0  0  0  0  0  0  0  0
  -26.7436  -31.0079   22.0108 H   0  0  0  0  0  0  0  0  0  0  0  0
  -28.0090  -29.1452   21.2057 H   0  0  0  0  0  0  0  0  0  0  0  0
  -26.1369  -26.0560   19.0719 H   0  0  0  0  0  0  0  0  0  0  0  0
  -24.0652  -27.2961   19.0997 H   0  0  0  0  0  0  0  0  0  0  0  0
  -23.6156  -30.5365   19.3930 H   0  0  0  0  0  0  0  0  0  0  0  0
  -22.7355  -29.1425   19.9945 H   0  0  0  0  0  0  0  0  0  0  0  0
  -25.1353  -36.2335   25.0565 H   0  0  0  0  0  0  0  0  0  0  0  0
  -21.0070  -28.3206   24.0793 H   0  0  0  0  0  0  0  0  0  0  0  0
  -20.5555  -26.2518   23.3550 H   0  0  0  0  0  0  0  0  0  0  0  0
  -21.5974  -26.8362   22.0454 H   0  0  0  0  0  0  0  0  0  0  0  0
  -19.6810  -25.6422   21.1488 H   0  0  0  0  0  0  0  0  0  0  0  0
  -19.6406  -27.3343   20.7034 H   0  0  0  0  0  0  0  0  0  0  0  0
  -17.4282  -26.6888   21.4113 H   0  0  0  0  0  0  0  0  0  0  0  0
  -18.0803  -26.0130   22.9049 H   0  0  0  0  0  0  0  0  0  0  0  0
  -19.7265  -30.6774   24.2204 H   0  0  0  0  0  0  0  0  0  0  0  0
  -17.5064  -31.5856   24.4483 H   0  0  0  0  0  0  0  0  0  0  0  0
  -15.5878  -30.2839   23.7407 H   0  0  0  0  0  0  0  0  0  0  0  0
  -15.9120  -28.0941   22.7766 H   0  0  0  0  0  0  0  0  0  0  0  0
  -24.5787  -30.7757   25.6817 H   0  0  0  0  0  0  0  0  0  0  0  0
  -25.0041  -32.2289   26.5536 H   0  0  0  0  0  0  0  0  0  0  0  0
  -25.8166  -30.7245   26.9138 H   0  0  0  0  0  0  0  0  0  0  0  0
  -26.2892  -29.7335   24.0803 H   0  0  0  0  0  0  0  0  0  0  0  0
  -27.4336  -29.7484   25.4006 H   0  0  0  0  0  0  0  0  0  0  0  0
  -27.8466  -30.4994   23.8779 H   0  0  0  0  0  0  0  0  0  0  0  0
  -27.2251  -33.3632   26.1242 H   0  0  0  0  0  0  0  0  0  0  0  0
  -28.3902  -32.6065   25.0645 H   0  0  0  0  0  0  0  0  0  0  0  0
  -27.9772  -31.8555   26.5872 H   0  0  0  0  0  0  0  0  0  0  0  0
  -28.2744  -38.0016   24.6863 H   0  0  0  0  0  0  0  0  0  0  0  0
  -28.0396  -36.2711   24.7461 H   0  0  0  0  0  0  0  0  0  0  0  0
  -27.1773  -37.3087   25.8564 H   0  0  0  0  0  0  0  0  0  0  0  0
  -20.9627  -29.9365   21.7352 H   0  0  0  0  0  0  0  0  0  0  0  0
  -26.0447  -38.2561   24.0273 H   0  0  0  0  0  0  0  0  0  0  0  0
  -27.6793  -17.9708   20.6685 H   0  0  0  0  0  0  0  0  0  0  0  0
  -26.5635  -22.5913   20.0586 H   0  0  0  0  0  0  0  0  0  0  0  0
  -28.2824  -23.7716   19.0506 H   0  0  0  0  0  0  0  0  0  0  0  0
  -28.2575  -23.9970   20.7827 H   0  0  0  0  0  0  0  0  0  0  0  0
  -28.0720  -25.8339   19.0635 H   0  0  0  0  0  0  0  0  0  0  0  0
  -28.9364  -27.4750   19.0743 H   0  0  0  0  0  0  0  0  0  0  0  0
  -30.0669  -21.9605   20.1936 H   0  0  0  0  0  0  0  0  0  0  0  0
  -24.1439  -18.3740   20.6071 H   0  0  0  0  0  0  0  0  0  0  0  0
  1 25  1  0
  1 30  2  0
  1 83  1  0
  2  3  1  0
  2 25  1  0
  2 89  1  0
  2 90  1  0
  3  4  1  0
  3 91  1  0
  3 92  1  0
  4  5  1  0
  4 93  1  0
  4 94  1  0
  5  6  1  0
  5 26  1  0
  5 95  1  6
  6 25  1  0
  6 96  1  0
  6 97  1  0
  7  8  2  0
  7 26  1  0
  7 29  1  0
  8  9  1  0
  8 22  1  0
  9 10  1  0
  9 27  2  0
 10 11  2  0
 10 15  1  0
 11 12  1  0
 11 98  1  0
 12 13  2  0
 12 99  1  0
 13 14  1  0
 13 31  1  0
 14 15  2  0
 14100  1  0
 15101  1  0
 16 17  2  0
 16 21  1  0
 16 31  1  0
 17 18  1  0
 17102  1  0
 18 19  2  0
 18103  1  0
 19 20  1  0
 19 24  1  0
 20 21  2  0
 20104  1  0
 21 23  1  0
 22 28  1  0
 22 32  2  0
 26 27  1  0
 28105  1  0
 28106  1  0
 29107  1  0
 29108  1  0
 33 34  1  0
 33 66  1  0
 33 70  2  0
 34 36  1  0
 34 59  1  0
 34109  1  6
 35 44  2  0
 35 45  1  0
 35 68  1  0
 36 56  1  0
 36110  1  0
 37 39  1  0
 37 47  1  0
 37 66  1  0
 37111  1  6
 38 43  2  0
 38 46  1  0
 38 47  1  0
 39 64  1  0
 39 67  2  0
 40 52  1  0
 40 53  2  0
 40 58  1  0
 41112  1  0
 41113  1  0
 41114  1  0
 42 43  1  0
 42 66  1  0
 42115  1  0
 42116  1  0
 43 44  1  0
 44117  1  0
 45 46  2  0
 45118  1  0
 46119  1  0
 47120  1  0
 47121  1  0
 48 41  1  0
 48 56  1  0
 48 65  1  0
 48122  1  1
 49 50  1  0
 49 53  1  0
 49 64  1  0
 49123  1  1
 50 51  1  0
 50124  1  0
 50125  1  0
 51 52  1  0
 51126  1  0
 51127  1  0
 52128  1  0
 52129  1  0
 53 54  1  0
 54 55  2  0
 54130  1  0
 55 57  1  0
 55131  1  0
 56 69  2  0
 57 58  2  0
 57132  1  0
 58133  1  0
 59 60  1  0
 59 61  1  0
 59 62  1  0
 60134  1  0
 60135  1  0
 60136  1  0
 61137  1  0
 61138  1  0
 61139  1  0
 62140  1  0
 62141  1  0
 62142  1  0
 63 65  1  0
 63143  1  0
 63144  1  0
 63145  1  0
 64146  1  0
 65147  1  0
 68 79  1  0
 71 73  2  0
 71 75  1  0
 71148  1  0
 72 74  2  0
 72 81  1  0
 72149  1  0
 73 74  1  0
 73 80  1  0
 74 82  1  0
 75 81  2  0
 75 83  1  0
 76 77  1  0
 76 78  1  0
 76 84  2  0
 77 79  1  0
 77 85  2  0
 78 82  1  0
 78150  1  0
 78151  1  0
 79152  1  0
 79153  1  0
 80 86  1  0
 80 87  1  0
 80 88  1  0
 82154  1  0
 83155  1  0
M  ISO  4   1 100  68 101  79 101  83 100
M  END
$$$$
54
     RDKit          3D

153161  0  0  0  0  0  0  0  0999 V2000
  -30.7652  -14.3608   20.6636 C   0  0  0  0  0  0  0  0  0100  0  0
  -30.4392  -12.2669   19.3775 C   0  0  0  0  0  0  0  0  0101  0  0
  -29.4791  -12.5281   18.1977 C   0  0  0  0  0  0  0  0  0102  0  0
  -27.9985  -12.3963   18.6038 C   0  0  0  0  0  0  0  0  0103  0  0
  -27.6639  -13.2170   19.8820 C   0  0  2  0  0  0  0  0  0104  0  0
  -28.6795  -12.9602   21.0279 C   0  0  0  0  0  0  0  0  0105  0  0
  -25.2633  -13.8245   20.5754 C   0  0  0  0  0  0  0  0  0106  0  0
  -24.1645  -13.0409   20.9408 C   0  0  0  0  0  0  0  0  0107  0  0
  -24.6400  -11.7009   20.8697 C   0  0  0  0  0  0  0  0  0108  0  0
  -23.9005  -10.4085   21.0420 C   0  0  0  0  0  0  0  0  0109  0  0
  -24.3588   -9.4123   21.9123 C   0  0  0  0  0  0  0  0  0110  0  0
  -23.6296   -8.2350   22.0803 C   0  0  0  0  0  0  0  0  0111  0  0
  -22.4385   -8.0419   21.3657 C   0  0  0  0  0  0  0  0  0112  0  0
  -22.0103   -9.0167   20.4678 C   0  0  0  0  0  0  0  0  0113  0  0
  -22.7317  -10.1925   20.3102 C   0  0  0  0  0  0  0  0  0114  0  0
  -21.6857   -6.0709   22.5391 C   0  0  0  0  0  0  0  0  0115  0  0
  -21.4064   -6.5490   23.8264 C   0  0  0  0  0  0  0  0  0116  0  0
  -21.3635   -5.6677   24.9085 C   0  0  0  0  0  0  0  0  0117  0  0
  -21.5973   -4.3067   24.7088 C   0  0  0  0  0  0  0  0  0118  0  0
  -21.8700   -3.8284   23.4282 C   0  0  0  0  0  0  0  0  0119  0  0
  -21.9144   -4.7056   22.3460 C   0  0  0  0  0  0  0  0  0120  0  0
  -22.8194  -13.5263   21.1763 C   0  0  0  0  0  0  0  0  0121  0  0
  -22.1559   -4.2206   21.1063 F   0  0  0  0  0  0  0  0  0122  0  0
  -21.5628   -3.4510   25.7555 F   0  0  0  0  0  0  0  0  0123  0  0
  -30.0261  -13.1803   20.4553 N   0  0  0  0  0  0  0  0  0124  0  0
  -26.2911  -12.9356   20.3443 N   0  0  0  0  0  0  0  0  0125  0  0
  -25.9236  -11.6675   20.5847 N   0  0  0  0  0  0  0  0  0126  0  0
  -22.0708  -12.7905   22.0005 N   0  0  0  0  0  0  0  0  0127  0  0
  -25.4117  -15.1773   20.4097 N   0  0  0  0  0  0  0  0  0128  0  0
  -31.7916  -14.6724   20.0536 O   0  0  0  0  0  0  0  0  0129  0  0
  -21.6670   -6.9022   21.4423 O   0  0  0  0  0  0  0  0  0130  0  0
  -22.3946  -14.5564   20.6568 O   0  0  0  0  0  0  0  0  0131  0  0
  -24.6048  -31.8614   23.2223 C   0  0  0  0  0  0  0  0  0100  0  0
  -25.8822  -32.4841   23.8616 C   0  0  1  0  0  0  0  0  0101  0  0
  -27.2536  -27.5042   20.1156 C   0  0  0  0  0  0  0  0  0102  0  0
  -25.5726  -33.8762   24.2210 N   0  0  0  0  0  0  0  0  0103  0  0
  -23.4066  -30.4859   21.5461 C   0  0  2  0  0  0  0  0  0104  0  0
  -24.8467  -28.9636   20.1247 C   0  0  0  0  0  0  0  0  0105  0  0
  -22.7412  -29.4652   22.5052 C   0  0  0  0  0  0  0  0  0106  0  0
  -18.0167  -28.1302   22.8626 C   0  0  0  0  0  0  0  0  0107  0  0
  -24.1342  -36.7390   23.2568 C   0  0  0  0  0  0  0  0  0108  0  0
  -25.9141  -30.8882   21.3456 C   0  0  0  0  0  0  0  0  0109  0  0
  -25.9930  -29.5029   20.7208 C   0  0  0  0  0  0  0  0  0110  0  0
  -27.1758  -28.7612   20.7331 C   0  0  0  0  0  0  0  0  0111  0  0
  -26.1032  -26.9836   19.5230 C   0  0  0  0  0  0  0  0  0112  0  0
  -24.9097  -27.7011   19.5331 C   0  0  0  0  0  0  0  0  0113  0  0
  -23.5715  -29.7899   20.1582 C   0  0  0  0  0  0  0  0  0114  0  0
  -25.3990  -36.3212   24.0232 C   0  0  1  0  0  0  0  0  0115  0  0
  -20.5793  -28.3813   23.1004 C   0  0  2  0  0  0  0  0  0116  0  0
  -20.6548  -26.9392   22.5411 C   0  0  0  0  0  0  0  0  0117  0  0
  -19.5615  -26.6407   21.5143 C   0  0  0  0  0  0  0  0  0118  0  0
  -18.1797  -26.7818   22.1673 C   0  0  0  0  0  0  0  0  0119  0  0
  -19.1385  -28.8769   23.2988 C   0  0  0  0  0  0  0  0  0120  0  0
  -18.9183  -30.1286   23.8878 C   0  0  0  0  0  0  0  0  0121  0  0
  -17.6396  -30.6493   24.0352 C   0  0  0  0  0  0  0  0  0122  0  0
  -25.9153  -34.9582   23.4993 C   0  0  0  0  0  0  0  0  0123  0  0
  -16.5415  -29.9068   23.6254 C   0  0  0  0  0  0  0  0  0124  0  0
  -16.7331  -28.6521   23.0586 C   0  0  0  0  0  0  0  0  0125  0  0
  -26.4583  -31.6439   25.0683 C   0  0  0  0  0  0  0  0  0126  0  0
  -25.3807  -31.3179   26.1374 C   0  0  0  0  0  0  0  0  0127  0  0
  -27.0530  -30.3024   24.5680 C   0  0  0  0  0  0  0  0  0128  0  0
  -27.6014  -32.4281   25.7651 C   0  0  0  0  0  0  0  0  0129  0  0
  -27.5629  -37.2220   24.8621 C   0  0  0  0  0  0  0  0  0130  0  0
  -21.4133  -29.3375   22.3735 N   0  0  0  0  0  0  0  0  0131  0  0
  -26.4706  -37.3372   23.9061 N   0  0  0  0  0  0  0  0  0132  0  0
  -24.6674  -31.0544   22.1178 N   0  0  0  0  0  0  0  0  0133  0  0
  -23.4259  -28.8150   23.2971 O   0  0  0  0  0  0  0  0  0134  0  0
  -28.3948  -26.7345   20.0089 O   0  0  0  0  0  0  0  0  0135  0  0
  -26.5870  -34.9065   22.4671 O   0  0  0  0  0  0  0  0  0136  0  0
  -23.5365  -32.1254   23.7833 O   0  0  0  0  0  0  0  0  0137  0  0
  -29.5663  -18.4859   18.9329 C   0  0  0  0  0  0  0  0  0  0  0  0
  -30.4229  -19.4296   18.3174 C   0  0  0  0  0  0  0  0  0  0  0  0
  -30.1836  -17.2643   18.7974 C   0  0  0  0  0  0  0  0  0  0  0  0
  -31.5028  -18.7174   17.8498 C   0  0  0  0  0  0  0  0  0  0  0  0
  -30.2272  -20.9036   18.1842 C   0  0  0  0  0  0  0  0  0  0  0  0
  -27.5971  -23.6604   19.0513 C   0  0  0  0  0  0  0  0  0  0  0  0
  -28.9651  -21.5290   18.7644 C   0  0  0  0  0  0  0  0  0  0  0  0
  -28.8836  -23.0367   18.5294 C   0  0  0  0  0  0  0  0  0  0  0  0
  -27.4197  -25.1377   18.7596 C   0  0  0  0  0  0  0  0  0  1  0  0
  -32.6177  -19.0917   17.1869 N   0  0  0  0  0  0  0  0  0  0  0  0
  -29.7987  -15.9660   19.2145 N   0  0  0  0  0  0  0  0  0  0  0  0
  -31.0869  -21.5724   17.6152 O   0  0  0  0  0  0  0  0  0  0  0  0
  -26.7533  -23.0183   19.6743 O   0  0  0  0  0  0  0  0  0  0  0  0
  -31.3647  -17.3967   18.1384 O   0  0  0  0  0  0  0  0  0  0  0  0
  -31.4485  -12.4701   19.0860 H   0  0  0  0  0  0  0  0  0  0  0  0
  -30.3970  -11.2460   19.6950 H   0  0  0  0  0  0  0  0  0  0  0  0
  -29.6870  -11.8204   17.4226 H   0  0  0  0  0  0  0  0  0  0  0  0
  -29.6375  -13.5326   17.8649 H   0  0  0  0  0  0  0  0  0  0  0  0
  -27.7830  -11.3650   18.7904 H   0  0  0  0  0  0  0  0  0  0  0  0
  -27.4028  -12.7801   17.8021 H   0  0  0  0  0  0  0  0  0  0  0  0
  -27.7353  -14.2503   19.6136 H   0  0  0  0  0  0  0  0  0  0  0  0
  -28.5890  -11.9550   21.3832 H   0  0  0  0  0  0  0  0  0  0  0  0
  -28.5005  -13.6134   21.8562 H   0  0  0  0  0  0  0  0  0  0  0  0
  -25.2399   -9.5495   22.4318 H   0  0  0  0  0  0  0  0  0  0  0  0
  -23.9663   -7.5070   22.7297 H   0  0  0  0  0  0  0  0  0  0  0  0
  -21.1515   -8.8641   19.9162 H   0  0  0  0  0  0  0  0  0  0  0  0
  -22.4016  -10.9115   19.6476 H   0  0  0  0  0  0  0  0  0  0  0  0
  -21.2319   -7.5552   23.9750 H   0  0  0  0  0  0  0  0  0  0  0  0
  -21.1589   -6.0228   25.8556 H   0  0  0  0  0  0  0  0  0  0  0  0
  -22.0396   -2.8212   23.2809 H   0  0  0  0  0  0  0  0  0  0  0  0
  -22.4401  -11.9703   22.4008 H   0  0  0  0  0  0  0  0  0  0  0  0
  -21.1493  -13.0679   22.2082 H   0  0  0  0  0  0  0  0  0  0  0  0
  -24.6538  -15.7807   20.5848 H   0  0  0  0  0  0  0  0  0  0  0  0
  -26.2762  -15.5453   20.1156 H   0  0  0  0  0  0  0  0  0  0  0  0
  -26.6778  -32.4663   23.1464 H   0  0  0  0  0  0  0  0  0  0  0  0
  -25.0747  -34.0282   25.0566 H   0  0  0  0  0  0  0  0  0  0  0  0
  -22.7881  -31.3489   21.4131 H   0  0  0  0  0  0  0  0  0  0  0  0
  -23.3854  -35.9823   23.3648 H   0  0  0  0  0  0  0  0  0  0  0  0
  -24.3696  -36.8624   22.2204 H   0  0  0  0  0  0  0  0  0  0  0  0
  -23.7669  -37.6632   23.6516 H   0  0  0  0  0  0  0  0  0  0  0  0
  -25.9445  -31.6237   20.5691 H   0  0  0  0  0  0  0  0  0  0  0  0
  -26.7436  -31.0079   22.0108 H   0  0  0  0  0  0  0  0  0  0  0  0
  -28.0090  -29.1452   21.2057 H   0  0  0  0  0  0  0  0  0  0  0  0
  -26.1369  -26.0560   19.0719 H   0  0  0  0  0  0  0  0  0  0  0  0
  -24.0652  -27.2961   19.0997 H   0  0  0  0  0  0  0  0  0  0  0  0
  -23.6156  -30.5365   19.3930 H   0  0  0  0  0  0  0  0  0  0  0  0
  -22.7355  -29.1425   19.9945 H   0  0  0  0  0  0  0  0  0  0  0  0
  -25.1353  -36.2335   25.0565 H   0  0  0  0  0  0  0  0  0  0  0  0
  -21.0070  -28.3206   24.0793 H   0  0  0  0  0  0  0  0  0  0  0  0
  -20.5555  -26.2518   23.3550 H   0  0  0  0  0  0  0  0  0  0  0  0
  -21.5974  -26.8362   22.0454 H   0  0  0  0  0  0  0  0  0  0  0  0
  -19.6810  -25.6422   21.1488 H   0  0  0  0  0  0  0  0  0  0  0  0
  -19.6406  -27.3343   20.7034 H   0  0  0  0  0  0  0  0  0  0  0  0
  -17.4282  -26.6888   21.4113 H   0  0  0  0  0  0  0  0  0  0  0  0
  -18.0803  -26.0130   22.9049 H   0  0  0  0  0  0  0  0  0  0  0  0
  -19.7265  -30.6774   24.2204 H   0  0  0  0  0  0  0  0  0  0  0  0
  -17.5064  -31.5856   24.4483 H   0  0  0  0  0  0  0  0  0  0  0  0
  -15.5878  -30.2839   23.7407 H   0  0  0  0  0  0  0  0  0  0  0  0
  -15.9120  -28.0941   22.7766 H   0  0  0  0  0  0  0  0  0  0  0  0
  -24.5787  -30.7757   25.6817 H   0  0  0  0  0  0  0  0  0  0  0  0
  -25.0041  -32.2289   26.5536 H   0  0  0  0  0  0  0  0  0  0  0  0
  -25.8166  -30.7245   26.9138 H   0  0  0  0  0  0  0  0  0  0  0  0
  -26.2892  -29.7335   24.0803 H   0  0  0  0  0  0  0  0  0  0  0  0
  -27.4336  -29.7484   25.4006 H   0  0  0  0  0  0  0  0  0  0  0  0
  -27.8466  -30.4994   23.8779 H   0  0  0  0  0  0  0  0  0  0  0  0
  -27.2251  -33.3632   26.1242 H   0  0  0  0  0  0  0  0  0  0  0  0
  -28.3902  -32.6065   25.0645 H   0  0  0  0  0  0  0  0  0  0  0  0
  -27.9772  -31.8555   26.5872 H   0  0  0  0  0  0  0  0  0  0  0  0
  -28.2744  -38.0016   24.6863 H   0  0  0  0  0  0  0  0  0  0  0  0
  -28.0396  -36.2711   24.7461 H   0  0  0  0  0  0  0  0  0  0  0  0
  -27.1773  -37.3087   25.8564 H   0  0  0  0  0  0  0  0  0  0  0  0
  -20.9627  -29.9365   21.7352 H   0  0  0  0  0  0  0  0  0  0  0  0
  -26.0447  -38.2561   24.0273 H   0  0  0  0  0  0  0  0  0  0  0  0
  -28.6612  -18.6760   19.3909 H   0  0  0  0  0  0  0  0  0  0  0  0
  -28.9479  -21.3468   19.8186 H   0  0  0  0  0  0  0  0  0  0  0  0
  -28.1291  -21.0820   18.2681 H   0  0  0  0  0  0  0  0  0  0  0  0
  -29.7110  -23.5022   19.0230 H   0  0  0  0  0  0  0  0  0  0  0  0
  -28.9043  -23.1933   17.4711 H   0  0  0  0  0  0  0  0  0  0  0  0
  -26.3673  -25.3260   18.8033 H   0  0  0  0  0  0  0  0  0  0  0  0
  -27.9323  -25.2425   17.8263 H   0  0  0  0  0  0  0  0  0  0  0  0
  -32.7592  -20.0385   16.9570 H   0  0  0  0  0  0  0  0  0  0  0  0
  -33.2892  -18.4179   16.9333 H   0  0  0  0  0  0  0  0  0  0  0  0
  -28.9486  -15.6676   18.8175 H   0  0  0  0  0  0  0  0  0  0  0  0
  1 25  1  0
  1 30  2  0
  1 81  1  0
  2  3  1  0
  2 25  1  0
  2 85  1  0
  2 86  1  0
  3  4  1  0
  3 87  1  0
  3 88  1  0
  4  5  1  0
  4 89  1  0
  4 90  1  0
  5  6  1  0
  5 26  1  0
  5 91  1  6
  6 25  1  0
  6 92  1  0
  6 93  1  0
  7  8  2  0
  7 26  1  0
  7 29  1  0
  8  9  1  0
  8 22  1  0
  9 10  1  0
  9 27  2  0
 10 11  2  0
 10 15  1  0
 11 12  1  0
 11 94  1  0
 12 13  2  0
 12 95  1  0
 13 14  1  0
 13 31  1  0
 14 15  2  0
 14 96  1  0
 15 97  1  0
 16 17  2  0
 16 21  1  0
 16 31  1  0
 17 18  1  0
 17 98  1  0
 18 19  2  0
 18 99  1  0
 19 20  1  0
 19 24  1  0
 20 21  2  0
 20100  1  0
 21 23  1  0
 22 28  1  0
 22 32  2  0
 26 27  1  0
 28101  1  0
 28102  1  0
 29103  1  0
 29104  1  0
 33 34  1  0
 33 66  1  0
 33 70  2  0
 34 36  1  0
 34 59  1  0
 34105  1  6
 35 44  2  0
 35 45  1  0
 35 68  1  0
 36 56  1  0
 36106  1  0
 37 39  1  0
 37 47  1  0
 37 66  1  0
 37107  1  6
 38 43  2  0
 38 46  1  0
 38 47  1  0
 39 64  1  0
 39 67  2  0
 40 52  1  0
 40 53  2  0
 40 58  1  0
 41108  1  0
 41109  1  0
 41110  1  0
 42 43  1  0
 42 66  1  0
 42111  1  0
 42112  1  0
 43 44  1  0
 44113  1  0
 45 46  2  0
 45114  1  0
 46115  1  0
 47116  1  0
 47117  1  0
 48 41  1  0
 48 56  1  0
 48 65  1  0
 48118  1  1
 49 50  1  0
 49 53  1  0
 49 64  1  0
 49119  1  1
 50 51  1  0
 50120  1  0
 50121  1  0
 51 52  1  0
 51122  1  0
 51123  1  0
 52124  1  0
 52125  1  0
 53 54  1  0
 54 55  2  0
 54126  1  0
 55 57  1  0
 55127  1  0
 56 69  2  0
 57 58  2  0
 57128  1  0
 58129  1  0
 59 60  1  0
 59 61  1  0
 59 62  1  0
 60130  1  0
 60131  1  0
 60132  1  0
 61133  1  0
 61134  1  0
 61135  1  0
 62136  1  0
 62137  1  0
 62138  1  0
 63 65  1  0
 63139  1  0
 63140  1  0
 63141  1  0
 64142  1  0
 65143  1  0
 68 79  1  0
 71 72  1  0
 71 73  2  0
 71144  1  0
 72 74  2  0
 72 75  1  0
 73 81  1  0
 73 84  1  0
 74 80  1  0
 74 84  1  0
 75 77  1  0
 75 82  2  0
 76 78  1  0
 76 79  1  0
 76 83  2  0
 77 78  1  0
 77145  1  0
 77146  1  0
 78147  1  0
 78148  1  0
 79149  1  0
 79150  1  0
 80151  1  0
 80152  1  0
 81153  1  0
M  ISO  4   1 100  68 101  79 101  81 100
M  END
$$$$
55
     RDKit          3D

152160  0  0  0  0  0  0  0  0999 V2000
  -30.7652  -14.3608   20.6636 C   0  0  0  0  0  0  0  0  0100  0  0
  -30.4392  -12.2669   19.3775 C   0  0  0  0  0  0  0  0  0101  0  0
  -29.4791  -12.5281   18.1977 C   0  0  0  0  0  0  0  0  0102  0  0
  -27.9985  -12.3963   18.6038 C   0  0  0  0  0  0  0  0  0103  0  0
  -27.6639  -13.2170   19.8820 C   0  0  2  0  0  0  0  0  0104  0  0
  -28.6795  -12.9602   21.0279 C   0  0  0  0  0  0  0  0  0105  0  0
  -25.2633  -13.8245   20.5754 C   0  0  0  0  0  0  0  0  0106  0  0
  -24.1645  -13.0409   20.9408 C   0  0  0  0  0  0  0  0  0107  0  0
  -24.6400  -11.7009   20.8697 C   0  0  0  0  0  0  0  0  0108  0  0
  -23.9005  -10.4085   21.0420 C   0  0  0  0  0  0  0  0  0109  0  0
  -24.3588   -9.4123   21.9123 C   0  0  0  0  0  0  0  0  0110  0  0
  -23.6296   -8.2350   22.0803 C   0  0  0  0  0  0  0  0  0111  0  0
  -22.4385   -8.0419   21.3657 C   0  0  0  0  0  0  0  0  0112  0  0
  -22.0103   -9.0167   20.4678 C   0  0  0  0  0  0  0  0  0113  0  0
  -22.7317  -10.1925   20.3102 C   0  0  0  0  0  0  0  0  0114  0  0
  -21.6857   -6.0709   22.5391 C   0  0  0  0  0  0  0  0  0115  0  0
  -21.4064   -6.5490   23.8264 C   0  0  0  0  0  0  0  0  0116  0  0
  -21.3635   -5.6677   24.9085 C   0  0  0  0  0  0  0  0  0117  0  0
  -21.5973   -4.3067   24.7088 C   0  0  0  0  0  0  0  0  0118  0  0
  -21.8700   -3.8284   23.4282 C   0  0  0  0  0  0  0  0  0119  0  0
  -21.9144   -4.7056   22.3460 C   0  0  0  0  0  0  0  0  0120  0  0
  -22.8194  -13.5263   21.1763 C   0  0  0  0  0  0  0  0  0121  0  0
  -22.1559   -4.2206   21.1063 F   0  0  0  0  0  0  0  0  0122  0  0
  -21.5628   -3.4510   25.7555 F   0  0  0  0  0  0  0  0  0123  0  0
  -30.0261  -13.1803   20.4553 N   0  0  0  0  0  0  0  0  0124  0  0
  -26.2911  -12.9356   20.3443 N   0  0  0  0  0  0  0  0  0125  0  0
  -25.9236  -11.6675   20.5847 N   0  0  0  0  0  0  0  0  0126  0  0
  -22.0708  -12.7905   22.0005 N   0  0  0  0  0  0  0  0  0127  0  0
  -25.4117  -15.1773   20.4097 N   0  0  0  0  0  0  0  0  0128  0  0
  -31.7916  -14.6724   20.0536 O   0  0  0  0  0  0  0  0  0129  0  0
  -21.6670   -6.9022   21.4423 O   0  0  0  0  0  0  0  0  0130  0  0
  -22.3946  -14.5564   20.6568 O   0  0  0  0  0  0  0  0  0131  0  0
  -24.6048  -31.8614   23.2223 C   0  0  0  0  0  0  0  0  0100  0  0
  -25.8822  -32.4841   23.8616 C   0  0  1  0  0  0  0  0  0101  0  0
  -27.2536  -27.5042   20.1156 C   0  0  0  0  0  0  0  0  0102  0  0
  -25.5726  -33.8762   24.2210 N   0  0  0  0  0  0  0  0  0103  0  0
  -23.4066  -30.4859   21.5461 C   0  0  2  0  0  0  0  0  0104  0  0
  -24.8467  -28.9636   20.1247 C   0  0  0  0  0  0  0  0  0105  0  0
  -22.7412  -29.4652   22.5052 C   0  0  0  0  0  0  0  0  0106  0  0
  -18.0167  -28.1302   22.8626 C   0  0  0  0  0  0  0  0  0107  0  0
  -24.1342  -36.7390   23.2568 C   0  0  0  0  0  0  0  0  0108  0  0
  -25.9141  -30.8882   21.3456 C   0  0  0  0  0  0  0  0  0109  0  0
  -25.9930  -29.5029   20.7208 C   0  0  0  0  0  0  0  0  0110  0  0
  -27.1758  -28.7612   20.7331 C   0  0  0  0  0  0  0  0  0111  0  0
  -26.1032  -26.9836   19.5230 C   0  0  0  0  0  0  0  0  0112  0  0
  -24.9097  -27.7011   19.5331 C   0  0  0  0  0  0  0  0  0113  0  0
  -23.5715  -29.7899   20.1582 C   0  0  0  0  0  0  0  0  0114  0  0
  -25.3990  -36.3212   24.0232 C   0  0  1  0  0  0  0  0  0115  0  0
  -20.5793  -28.3813   23.1004 C   0  0  2  0  0  0  0  0  0116  0  0
  -20.6548  -26.9392   22.5411 C   0  0  0  0  0  0  0  0  0117  0  0
  -19.5615  -26.6407   21.5143 C   0  0  0  0  0  0  0  0  0118  0  0
  -18.1797  -26.7818   22.1673 C   0  0  0  0  0  0  0  0  0119  0  0
  -19.1385  -28.8769   23.2988 C   0  0  0  0  0  0  0  0  0120  0  0
  -18.9183  -30.1286   23.8878 C   0  0  0  0  0  0  0  0  0121  0  0
  -17.6396  -30.6493   24.0352 C   0  0  0  0  0  0  0  0  0122  0  0
  -25.9153  -34.9582   23.4993 C   0  0  0  0  0  0  0  0  0123  0  0
  -16.5415  -29.9068   23.6254 C   0  0  0  0  0  0  0  0  0124  0  0
  -16.7331  -28.6521   23.0586 C   0  0  0  0  0  0  0  0  0125  0  0
  -26.4583  -31.6439   25.0683 C   0  0  0  0  0  0  0  0  0126  0  0
  -25.3807  -31.3179   26.1374 C   0  0  0  0  0  0  0  0  0127  0  0
  -27.0530  -30.3024   24.5680 C   0  0  0  0  0  0  0  0  0128  0  0
  -27.6014  -32.4281   25.7651 C   0  0  0  0  0  0  0  0  0129  0  0
  -27.5629  -37.2220   24.8621 C   0  0  0  0  0  0  0  0  0130  0  0
  -21.4133  -29.3375   22.3735 N   0  0  0  0  0  0  0  0  0131  0  0
  -26.4706  -37.3372   23.9061 N   0  0  0  0  0  0  0  0  0132  0  0
  -24.6674  -31.0544   22.1178 N   0  0  0  0  0  0  0  0  0133  0  0
  -23.4259  -28.8150   23.2971 O   0  0  0  0  0  0  0  0  0134  0  0
  -28.3948  -26.7345   20.0089 O   0  0  0  0  0  0  0  0  0135  0  0
  -26.5870  -34.9065   22.4671 O   0  0  0  0  0  0  0  0  0136  0  0
  -23.5365  -32.1254   23.7833 O   0  0  0  0  0  0  0  0  0137  0  0
  -29.3512  -24.0415   19.8735 C   0  0  0  0  0  0  0  0  0  0  0  0
  -29.9934  -22.1982   18.5147 C   0  0  0  0  0  0  0  0  0  0  0  0
  -30.1399  -24.8643   19.0770 C   0  0  0  0  0  0  0  0  0  0  0  0
  -29.2712  -22.6819   19.5937 C   0  0  0  0  0  0  0  0  0  0  0  0
  -30.8234  -24.2829   18.0213 C   0  0  0  0  0  0  0  0  0  0  0  0
  -30.2426  -26.3195   19.3555 C   0  0  0  0  0  0  0  0  0  0  0  0
  -30.1375  -28.0054   21.1574 C   0  0  0  0  0  0  0  0  0  0  0  0
  -31.2600  -28.0895   23.4011 C   0  0  0  0  0  0  0  0  0  0  0  0
  -29.9302  -28.0893   22.6638 C   0  0  2  0  0  0  0  0  0  1  0  0
  -30.7702  -22.9664   17.7184 N   0  0  0  0  0  0  0  0  0  0  0  0
  -28.4775  -21.8177   20.3881 N   0  0  0  0  0  0  0  0  0  0  0  0
  -30.1024  -26.6897   20.6920 N   0  0  0  0  0  0  0  0  0  0  0  0
  -30.4140  -27.0966   18.4203 O   0  0  0  0  0  0  0  0  0  0  0  0
  -30.2951  -29.0029   20.4572 O   0  0  0  0  0  0  0  0  0  0  0  0
  -31.5915  -25.0571   17.2374 F   0  0  0  0  0  0  0  0  0  0  0  0
  -31.4485  -12.4701   19.0860 H   0  0  0  0  0  0  0  0  0  0  0  0
  -30.3970  -11.2460   19.6950 H   0  0  0  0  0  0  0  0  0  0  0  0
  -29.6870  -11.8204   17.4226 H   0  0  0  0  0  0  0  0  0  0  0  0
  -29.6375  -13.5326   17.8649 H   0  0  0  0  0  0  0  0  0  0  0  0
  -27.7830  -11.3650   18.7904 H   0  0  0  0  0  0  0  0  0  0  0  0
  -27.4028  -12.7801   17.8021 H   0  0  0  0  0  0  0  0  0  0  0  0
  -27.7353  -14.2503   19.6136 H   0  0  0  0  0  0  0  0  0  0  0  0
  -28.5890  -11.9550   21.3832 H   0  0  0  0  0  0  0  0  0  0  0  0
  -28.5005  -13.6134   21.8562 H   0  0  0  0  0  0  0  0  0  0  0  0
  -25.2399   -9.5495   22.4318 H   0  0  0  0  0  0  0  0  0  0  0  0
  -23.9663   -7.5070   22.7297 H   0  0  0  0  0  0  0  0  0  0  0  0
  -21.1515   -8.8641   19.9162 H   0  0  0  0  0  0  0  0  0  0  0  0
  -22.4016  -10.9115   19.6476 H   0  0  0  0  0  0  0  0  0  0  0  0
  -21.2319   -7.5552   23.9750 H   0  0  0  0  0  0  0  0  0  0  0  0
  -21.1589   -6.0228   25.8556 H   0  0  0  0  0  0  0  0  0  0  0  0
  -22.0396   -2.8212   23.2809 H   0  0  0  0  0  0  0  0  0  0  0  0
  -22.4401  -11.9703   22.4008 H   0  0  0  0  0  0  0  0  0  0  0  0
  -21.1493  -13.0679   22.2082 H   0  0  0  0  0  0  0  0  0  0  0  0
  -24.6538  -15.7807   20.5848 H   0  0  0  0  0  0  0  0  0  0  0  0
  -26.2762  -15.5453   20.1156 H   0  0  0  0  0  0  0  0  0  0  0  0
  -26.6778  -32.4663   23.1464 H   0  0  0  0  0  0  0  0  0  0  0  0
  -25.0747  -34.0282   25.0566 H   0  0  0  0  0  0  0  0  0  0  0  0
  -22.7881  -31.3489   21.4131 H   0  0  0  0  0  0  0  0  0  0  0  0
  -23.3854  -35.9823   23.3648 H   0  0  0  0  0  0  0  0  0  0  0  0
  -24.3696  -36.8624   22.2204 H   0  0  0  0  0  0  0  0  0  0  0  0
  -23.7669  -37.6632   23.6516 H   0  0  0  0  0  0  0  0  0  0  0  0
  -25.9445  -31.6237   20.5691 H   0  0  0  0  0  0  0  0  0  0  0  0
  -26.7436  -31.0079   22.0108 H   0  0  0  0  0  0  0  0  0  0  0  0
  -28.0090  -29.1452   21.2057 H   0  0  0  0  0  0  0  0  0  0  0  0
  -26.1369  -26.0560   19.0719 H   0  0  0  0  0  0  0  0  0  0  0  0
  -24.0652  -27.2961   19.0997 H   0  0  0  0  0  0  0  0  0  0  0  0
  -23.6156  -30.5365   19.3930 H   0  0  0  0  0  0  0  0  0  0  0  0
  -22.7355  -29.1425   19.9945 H   0  0  0  0  0  0  0  0  0  0  0  0
  -25.1353  -36.2335   25.0565 H   0  0  0  0  0  0  0  0  0  0  0  0
  -21.0070  -28.3206   24.0793 H   0  0  0  0  0  0  0  0  0  0  0  0
  -20.5555  -26.2518   23.3550 H   0  0  0  0  0  0  0  0  0  0  0  0
  -21.5974  -26.8362   22.0454 H   0  0  0  0  0  0  0  0  0  0  0  0
  -19.6810  -25.6422   21.1488 H   0  0  0  0  0  0  0  0  0  0  0  0
  -19.6406  -27.3343   20.7034 H   0  0  0  0  0  0  0  0  0  0  0  0
  -17.4282  -26.6888   21.4113 H   0  0  0  0  0  0  0  0  0  0  0  0
  -18.0803  -26.0130   22.9049 H   0  0  0  0  0  0  0  0  0  0  0  0
  -19.7265  -30.6774   24.2204 H   0  0  0  0  0  0  0  0  0  0  0  0
  -17.5064  -31.5856   24.4483 H   0  0  0  0  0  0  0  0  0  0  0  0
  -15.5878  -30.2839   23.7407 H   0  0  0  0  0  0  0  0  0  0  0  0
  -15.9120  -28.0941   22.7766 H   0  0  0  0  0  0  0  0  0  0  0  0
  -24.5787  -30.7757   25.6817 H   0  0  0  0  0  0  0  0  0  0  0  0
  -25.0041  -32.2289   26.5536 H   0  0  0  0  0  0  0  0  0  0  0  0
  -25.8166  -30.7245   26.9138 H   0  0  0  0  0  0  0  0  0  0  0  0
  -26.2892  -29.7335   24.0803 H   0  0  0  0  0  0  0  0  0  0  0  0
  -27.4336  -29.7484   25.4006 H   0  0  0  0  0  0  0  0  0  0  0  0
  -27.8466  -30.4994   23.8779 H   0  0  0  0  0  0  0  0  0  0  0  0
  -27.2251  -33.3632   26.1242 H   0  0  0  0  0  0  0  0  0  0  0  0
  -28.3902  -32.6065   25.0645 H   0  0  0  0  0  0  0  0  0  0  0  0
  -27.9772  -31.8555   26.5872 H   0  0  0  0  0  0  0  0  0  0  0  0
  -28.2744  -38.0016   24.6863 H   0  0  0  0  0  0  0  0  0  0  0  0
  -28.0396  -36.2711   24.7461 H   0  0  0  0  0  0  0  0  0  0  0  0
  -27.1773  -37.3087   25.8564 H   0  0  0  0  0  0  0  0  0  0  0  0
  -20.9627  -29.9365   21.7352 H   0  0  0  0  0  0  0  0  0  0  0  0
  -26.0447  -38.2561   24.0273 H   0  0  0  0  0  0  0  0  0  0  0  0
  -28.8273  -24.4384   20.6691 H   0  0  0  0  0  0  0  0  0  0  0  0
  -29.9347  -21.1892   18.3060 H   0  0  0  0  0  0  0  0  0  0  0  0
  -31.2007  -28.7467   24.2434 H   0  0  0  0  0  0  0  0  0  0  0  0
  -32.0334  -28.4238   22.7416 H   0  0  0  0  0  0  0  0  0  0  0  0
  -31.4816  -27.0981   23.7372 H   0  0  0  0  0  0  0  0  0  0  0  0
  -29.5311  -28.4207   23.5996 H   0  0  0  0  0  0  0  0  0  0  0  0
  -27.6850  -22.1387   20.8761 H   0  0  0  0  0  0  0  0  0  0  0  0
  -29.9693  -25.9733   21.3540 H   0  0  0  0  0  0  0  0  0  0  0  0
  1 25  1  0
  1 30  2  0
  1 81  1  0
  2  3  1  0
  2 25  1  0
  2 86  1  0
  2 87  1  0
  3  4  1  0
  3 88  1  0
  3 89  1  0
  4  5  1  0
  4 90  1  0
  4 91  1  0
  5  6  1  0
  5 26  1  0
  5 92  1  6
  6 25  1  0
  6 93  1  0
  6 94  1  0
  7  8  2  0
  7 26  1  0
  7 29  1  0
  8  9  1  0
  8 22  1  0
  9 10  1  0
  9 27  2  0
 10 11  2  0
 10 15  1  0
 11 12  1  0
 11 95  1  0
 12 13  2  0
 12 96  1  0
 13 14  1  0
 13 31  1  0
 14 15  2  0
 14 97  1  0
 15 98  1  0
 16 17  2  0
 16 21  1  0
 16 31  1  0
 17 18  1  0
 17 99  1  0
 18 19  2  0
 18100  1  0
 19 20  1  0
 19 24  1  0
 20 21  2  0
 20101  1  0
 21 23  1  0
 22 28  1  0
 22 32  2  0
 26 27  1  0
 28102  1  0
 28103  1  0
 29104  1  0
 29105  1  0
 33 34  1  0
 33 66  1  0
 33 70  2  0
 34 36  1  0
 34 59  1  0
 34106  1  6
 35 44  2  0
 35 45  1  0
 35 68  1  0
 36 56  1  0
 36107  1  0
 37 39  1  0
 37 47  1  0
 37 66  1  0
 37108  1  6
 38 43  2  0
 38 46  1  0
 38 47  1  0
 39 64  1  0
 39 67  2  0
 40 52  1  0
 40 53  2  0
 40 58  1  0
 41109  1  0
 41110  1  0
 41111  1  0
 42 43  1  0
 42 66  1  0
 42112  1  0
 42113  1  0
 43 44  1  0
 44114  1  0
 45 46  2  0
 45115  1  0
 46116  1  0
 47117  1  0
 47118  1  0
 48 41  1  0
 48 56  1  0
 48 65  1  0
 48119  1  1
 49 50  1  0
 49 53  1  0
 49 64  1  0
 49120  1  1
 50 51  1  0
 50121  1  0
 50122  1  0
 51 52  1  0
 51123  1  0
 51124  1  0
 52125  1  0
 52126  1  0
 53 54  1  0
 54 55  2  0
 54127  1  0
 55 57  1  0
 55128  1  0
 56 69  2  0
 57 58  2  0
 57129  1  0
 58130  1  0
 59 60  1  0
 59 61  1  0
 59 62  1  0
 60131  1  0
 60132  1  0
 60133  1  0
 61134  1  0
 61135  1  0
 61136  1  0
 62137  1  0
 62138  1  0
 62139  1  0
 63 65  1  0
 63140  1  0
 63141  1  0
 63142  1  0
 64143  1  0
 65144  1  0
 68 79  1  0
 71 73  2  0
 71 74  1  0
 71145  1  0
 72 74  2  0
 72 80  1  0
 72146  1  0
 73 75  1  0
 73 76  1  0
 74 81  1  0
 75 80  2  0
 75 85  1  0
 76 82  1  0
 76 83  2  0
 77 79  1  0
 77 82  1  0
 77 84  2  0
 78147  1  0
 78148  1  0
 78149  1  0
 79 78  1  0
 79150  1  6
 81151  1  0
 82152  1  0
M  ISO  4   1 100  68 101  79 101  81 100
M  END
$$$$
56
     RDKit          3D

157165  0  0  0  0  0  0  0  0999 V2000
  -30.7652  -14.3608   20.6636 C   0  0  0  0  0  0  0  0  0100  0  0
  -30.4392  -12.2669   19.3775 C   0  0  0  0  0  0  0  0  0101  0  0
  -29.4791  -12.5281   18.1977 C   0  0  0  0  0  0  0  0  0102  0  0
  -27.9985  -12.3963   18.6038 C   0  0  0  0  0  0  0  0  0103  0  0
  -27.6639  -13.2170   19.8820 C   0  0  2  0  0  0  0  0  0104  0  0
  -28.6795  -12.9602   21.0279 C   0  0  0  0  0  0  0  0  0105  0  0
  -25.2633  -13.8245   20.5754 C   0  0  0  0  0  0  0  0  0106  0  0
  -24.1645  -13.0409   20.9408 C   0  0  0  0  0  0  0  0  0107  0  0
  -24.6400  -11.7009   20.8697 C   0  0  0  0  0  0  0  0  0108  0  0
  -23.9005  -10.4085   21.0420 C   0  0  0  0  0  0  0  0  0109  0  0
  -24.3588   -9.4123   21.9123 C   0  0  0  0  0  0  0  0  0110  0  0
  -23.6296   -8.2350   22.0803 C   0  0  0  0  0  0  0  0  0111  0  0
  -22.4385   -8.0419   21.3657 C   0  0  0  0  0  0  0  0  0112  0  0
  -22.0103   -9.0167   20.4678 C   0  0  0  0  0  0  0  0  0113  0  0
  -22.7317  -10.1925   20.3102 C   0  0  0  0  0  0  0  0  0114  0  0
  -21.6857   -6.0709   22.5391 C   0  0  0  0  0  0  0  0  0115  0  0
  -21.4064   -6.5490   23.8264 C   0  0  0  0  0  0  0  0  0116  0  0
  -21.3635   -5.6677   24.9085 C   0  0  0  0  0  0  0  0  0117  0  0
  -21.5973   -4.3067   24.7088 C   0  0  0  0  0  0  0  0  0118  0  0
  -21.8700   -3.8284   23.4282 C   0  0  0  0  0  0  0  0  0119  0  0
  -21.9144   -4.7056   22.3460 C   0  0  0  0  0  0  0  0  0120  0  0
  -22.8194  -13.5263   21.1763 C   0  0  0  0  0  0  0  0  0121  0  0
  -22.1559   -4.2206   21.1063 F   0  0  0  0  0  0  0  0  0122  0  0
  -21.5628   -3.4510   25.7555 F   0  0  0  0  0  0  0  0  0123  0  0
  -30.0261  -13.1803   20.4553 N   0  0  0  0  0  0  0  0  0124  0  0
  -26.2911  -12.9356   20.3443 N   0  0  0  0  0  0  0  0  0125  0  0
  -25.9236  -11.6675   20.5847 N   0  0  0  0  0  0  0  0  0126  0  0
  -22.0708  -12.7905   22.0005 N   0  0  0  0  0  0  0  0  0127  0  0
  -25.4117  -15.1773   20.4097 N   0  0  0  0  0  0  0  0  0128  0  0
  -31.7916  -14.6724   20.0536 O   0  0  0  0  0  0  0  0  0129  0  0
  -21.6670   -6.9022   21.4423 O   0  0  0  0  0  0  0  0  0130  0  0
  -22.3946  -14.5564   20.6568 O   0  0  0  0  0  0  0  0  0131  0  0
  -24.6048  -31.8614   23.2223 C   0  0  0  0  0  0  0  0  0100  0  0
  -25.8822  -32.4841   23.8616 C   0  0  1  0  0  0  0  0  0101  0  0
  -27.2536  -27.5042   20.1156 C   0  0  0  0  0  0  0  0  0102  0  0
  -25.5726  -33.8762   24.2210 N   0  0  0  0  0  0  0  0  0103  0  0
  -23.4066  -30.4859   21.5461 C   0  0  2  0  0  0  0  0  0104  0  0
  -24.8467  -28.9636   20.1247 C   0  0  0  0  0  0  0  0  0105  0  0
  -22.7412  -29.4652   22.5052 C   0  0  0  0  0  0  0  0  0106  0  0
  -18.0167  -28.1302   22.8626 C   0  0  0  0  0  0  0  0  0107  0  0
  -24.1342  -36.7390   23.2568 C   0  0  0  0  0  0  0  0  0108  0  0
  -25.9141  -30.8882   21.3456 C   0  0  0  0  0  0  0  0  0109  0  0
  -25.9930  -29.5029   20.7208 C   0  0  0  0  0  0  0  0  0110  0  0
  -27.1758  -28.7612   20.7331 C   0  0  0  0  0  0  0  0  0111  0  0
  -26.1032  -26.9836   19.5230 C   0  0  0  0  0  0  0  0  0112  0  0
  -24.9097  -27.7011   19.5331 C   0  0  0  0  0  0  0  0  0113  0  0
  -23.5715  -29.7899   20.1582 C   0  0  0  0  0  0  0  0  0114  0  0
  -25.3990  -36.3212   24.0232 C   0  0  1  0  0  0  0  0  0115  0  0
  -20.5793  -28.3813   23.1004 C   0  0  2  0  0  0  0  0  0116  0  0
  -20.6548  -26.9392   22.5411 C   0  0  0  0  0  0  0  0  0117  0  0
  -19.5615  -26.6407   21.5143 C   0  0  0  0  0  0  0  0  0118  0  0
  -18.1797  -26.7818   22.1673 C   0  0  0  0  0  0  0  0  0119  0  0
  -19.1385  -28.8769   23.2988 C   0  0  0  0  0  0  0  0  0120  0  0
  -18.9183  -30.1286   23.8878 C   0  0  0  0  0  0  0  0  0121  0  0
  -17.6396  -30.6493   24.0352 C   0  0  0  0  0  0  0  0  0122  0  0
  -25.9153  -34.9582   23.4993 C   0  0  0  0  0  0  0  0  0123  0  0
  -16.5415  -29.9068   23.6254 C   0  0  0  0  0  0  0  0  0124  0  0
  -16.7331  -28.6521   23.0586 C   0  0  0  0  0  0  0  0  0125  0  0
  -26.4583  -31.6439   25.0683 C   0  0  0  0  0  0  0  0  0126  0  0
  -25.3807  -31.3179   26.1374 C   0  0  0  0  0  0  0  0  0127  0  0
  -27.0530  -30.3024   24.5680 C   0  0  0  0  0  0  0  0  0128  0  0
  -27.6014  -32.4281   25.7651 C   0  0  0  0  0  0  0  0  0129  0  0
  -27.5629  -37.2220   24.8621 C   0  0  0  0  0  0  0  0  0130  0  0
  -21.4133  -29.3375   22.3735 N   0  0  0  0  0  0  0  0  0131  0  0
  -26.4706  -37.3372   23.9061 N   0  0  0  0  0  0  0  0  0132  0  0
  -24.6674  -31.0544   22.1178 N   0  0  0  0  0  0  0  0  0133  0  0
  -23.4259  -28.8150   23.2971 O   0  0  0  0  0  0  0  0  0134  0  0
  -28.3948  -26.7345   20.0089 O   0  0  0  0  0  0  0  0  0135  0  0
  -26.5870  -34.9065   22.4671 O   0  0  0  0  0  0  0  0  0136  0  0
  -23.5365  -32.1254   23.7833 O   0  0  0  0  0  0  0  0  0137  0  0
  -30.7927  -18.3089   19.2294 C   0  0  0  0  0  0  0  0  0  0  0  0
  -30.4419  -19.6310   18.8659 C   0  0  0  0  0  0  0  0  0  0  0  0
  -29.6103  -17.6130   19.3268 C   0  0  0  0  0  0  0  0  0  0  0  0
  -29.0701  -19.6486   18.7668 C   0  0  0  0  0  0  0  0  0  0  0  0
  -25.7457  -22.7784   19.1758 C   0  0  0  0  0  0  0  0  0  0  0  0
  -32.6968  -20.7369   18.7380 C   0  0  0  0  0  0  0  0  0  0  0  0
  -26.7746  -20.5977   18.3752 C   0  0  0  0  0  0  0  0  0  0  0  0
  -33.2513  -22.1042   18.4255 C   0  0  0  0  0  0  0  0  0  0  0  0
  -26.1399  -21.9205   17.9914 C   0  0  0  0  0  0  0  0  0  0  0  0
  -25.0249  -24.0699   18.8457 C   0  0  0  0  0  0  0  0  0  1  0  0
  -31.2863  -20.6948   18.6513 N   0  0  0  0  0  0  0  0  0  0  0  0
  -28.1591  -20.6819   18.4408 N   0  0  0  0  0  0  0  0  0  0  0  0
  -29.3400  -16.2613   19.6551 N   0  0  0  0  0  0  0  0  0  0  0  0
  -26.0002  -22.4531   20.3346 O   0  0  0  0  0  0  0  0  0  0  0  0
  -33.4435  -19.8069   19.0250 O   0  0  0  0  0  0  0  0  0  0  0  0
  -26.0705  -19.6199   18.6129 O   0  0  0  0  0  0  0  0  0  0  0  0
  -28.5555  -18.4224   19.0461 O   0  0  0  0  0  0  0  0  0  0  0  0
  -31.4485  -12.4701   19.0860 H   0  0  0  0  0  0  0  0  0  0  0  0
  -30.3970  -11.2460   19.6950 H   0  0  0  0  0  0  0  0  0  0  0  0
  -29.6870  -11.8204   17.4226 H   0  0  0  0  0  0  0  0  0  0  0  0
  -29.6375  -13.5326   17.8649 H   0  0  0  0  0  0  0  0  0  0  0  0
  -27.7830  -11.3650   18.7904 H   0  0  0  0  0  0  0  0  0  0  0  0
  -27.4028  -12.7801   17.8021 H   0  0  0  0  0  0  0  0  0  0  0  0
  -27.7353  -14.2503   19.6136 H   0  0  0  0  0  0  0  0  0  0  0  0
  -28.5890  -11.9550   21.3832 H   0  0  0  0  0  0  0  0  0  0  0  0
  -28.5005  -13.6134   21.8562 H   0  0  0  0  0  0  0  0  0  0  0  0
  -25.2399   -9.5495   22.4318 H   0  0  0  0  0  0  0  0  0  0  0  0
  -23.9663   -7.5070   22.7297 H   0  0  0  0  0  0  0  0  0  0  0  0
  -21.1515   -8.8641   19.9162 H   0  0  0  0  0  0  0  0  0  0  0  0
  -22.4016  -10.9115   19.6476 H   0  0  0  0  0  0  0  0  0  0  0  0
  -21.2319   -7.5552   23.9750 H   0  0  0  0  0  0  0  0  0  0  0  0
  -21.1589   -6.0228   25.8556 H   0  0  0  0  0  0  0  0  0  0  0  0
  -22.0396   -2.8212   23.2809 H   0  0  0  0  0  0  0  0  0  0  0  0
  -22.4401  -11.9703   22.4008 H   0  0  0  0  0  0  0  0  0  0  0  0
  -21.1493  -13.0679   22.2082 H   0  0  0  0  0  0  0  0  0  0  0  0
  -24.6538  -15.7807   20.5848 H   0  0  0  0  0  0  0  0  0  0  0  0
  -26.2762  -15.5453   20.1156 H   0  0  0  0  0  0  0  0  0  0  0  0
  -26.6778  -32.4663   23.1464 H   0  0  0  0  0  0  0  0  0  0  0  0
  -25.0747  -34.0282   25.0566 H   0  0  0  0  0  0  0  0  0  0  0  0
  -22.7881  -31.3489   21.4131 H   0  0  0  0  0  0  0  0  0  0  0  0
  -23.3854  -35.9823   23.3648 H   0  0  0  0  0  0  0  0  0  0  0  0
  -24.3696  -36.8624   22.2204 H   0  0  0  0  0  0  0  0  0  0  0  0
  -23.7669  -37.6632   23.6516 H   0  0  0  0  0  0  0  0  0  0  0  0
  -25.9445  -31.6237   20.5691 H   0  0  0  0  0  0  0  0  0  0  0  0
  -26.7436  -31.0079   22.0108 H   0  0  0  0  0  0  0  0  0  0  0  0
  -28.0090  -29.1452   21.2057 H   0  0  0  0  0  0  0  0  0  0  0  0
  -26.1369  -26.0560   19.0719 H   0  0  0  0  0  0  0  0  0  0  0  0
  -24.0652  -27.2961   19.0997 H   0  0  0  0  0  0  0  0  0  0  0  0
  -23.6156  -30.5365   19.3930 H   0  0  0  0  0  0  0  0  0  0  0  0
  -22.7355  -29.1425   19.9945 H   0  0  0  0  0  0  0  0  0  0  0  0
  -25.1353  -36.2335   25.0565 H   0  0  0  0  0  0  0  0  0  0  0  0
  -21.0070  -28.3206   24.0793 H   0  0  0  0  0  0  0  0  0  0  0  0
  -20.5555  -26.2518   23.3550 H   0  0  0  0  0  0  0  0  0  0  0  0
  -21.5974  -26.8362   22.0454 H   0  0  0  0  0  0  0  0  0  0  0  0
  -19.6810  -25.6422   21.1488 H   0  0  0  0  0  0  0  0  0  0  0  0
  -19.6406  -27.3343   20.7034 H   0  0  0  0  0  0  0  0  0  0  0  0
  -17.4282  -26.6888   21.4113 H   0  0  0  0  0  0  0  0  0  0  0  0
  -18.0803  -26.0130   22.9049 H   0  0  0  0  0  0  0  0  0  0  0  0
  -19.7265  -30.6774   24.2204 H   0  0  0  0  0  0  0  0  0  0  0  0
  -17.5064  -31.5856   24.4483 H   0  0  0  0  0  0  0  0  0  0  0  0
  -15.5878  -30.2839   23.7407 H   0  0  0  0  0  0  0  0  0  0  0  0
  -15.9120  -28.0941   22.7766 H   0  0  0  0  0  0  0  0  0  0  0  0
  -24.5787  -30.7757   25.6817 H   0  0  0  0  0  0  0  0  0  0  0  0
  -25.0041  -32.2289   26.5536 H   0  0  0  0  0  0  0  0  0  0  0  0
  -25.8166  -30.7245   26.9138 H   0  0  0  0  0  0  0  0  0  0  0  0
  -26.2892  -29.7335   24.0803 H   0  0  0  0  0  0  0  0  0  0  0  0
  -27.4336  -29.7484   25.4006 H   0  0  0  0  0  0  0  0  0  0  0  0
  -27.8466  -30.4994   23.8779 H   0  0  0  0  0  0  0  0  0  0  0  0
  -27.2251  -33.3632   26.1242 H   0  0  0  0  0  0  0  0  0  0  0  0
  -28.3902  -32.6065   25.0645 H   0  0  0  0  0  0  0  0  0  0  0  0
  -27.9772  -31.8555   26.5872 H   0  0  0  0  0  0  0  0  0  0  0  0
  -28.2744  -38.0016   24.6863 H   0  0  0  0  0  0  0  0  0  0  0  0
  -28.0396  -36.2711   24.7461 H   0  0  0  0  0  0  0  0  0  0  0  0
  -27.1773  -37.3087   25.8564 H   0  0  0  0  0  0  0  0  0  0  0  0
  -20.9627  -29.9365   21.7352 H   0  0  0  0  0  0  0  0  0  0  0  0
  -26.0447  -38.2561   24.0273 H   0  0  0  0  0  0  0  0  0  0  0  0
  -31.7437  -17.9412   19.3891 H   0  0  0  0  0  0  0  0  0  0  0  0
  -32.4465  -22.7728   18.2014 H   0  0  0  0  0  0  0  0  0  0  0  0
  -33.9063  -22.0392   17.5819 H   0  0  0  0  0  0  0  0  0  0  0  0
  -33.7944  -22.4707   19.2714 H   0  0  0  0  0  0  0  0  0  0  0  0
  -26.8390  -22.4694   17.3956 H   0  0  0  0  0  0  0  0  0  0  0  0
  -25.2395  -21.6907   17.4609 H   0  0  0  0  0  0  0  0  0  0  0  0
  -24.1495  -24.2219   19.4420 H   0  0  0  0  0  0  0  0  0  0  0  0
  -24.6294  -24.1763   17.8572 H   0  0  0  0  0  0  0  0  0  0  0  0
  -30.8496  -21.5417   18.4038 H   0  0  0  0  0  0  0  0  0  0  0  0
  -28.5523  -21.5612   18.2372 H   0  0  0  0  0  0  0  0  0  0  0  0
  -28.4145  -15.9904   19.4569 H   0  0  0  0  0  0  0  0  0  0  0  0
  1 25  1  0
  1 30  2  0
  1 83  1  0
  2  3  1  0
  2 25  1  0
  2 88  1  0
  2 89  1  0
  3  4  1  0
  3 90  1  0
  3 91  1  0
  4  5  1  0
  4 92  1  0
  4 93  1  0
  5  6  1  0
  5 26  1  0
  5 94  1  6
  6 25  1  0
  6 95  1  0
  6 96  1  0
  7  8  2  0
  7 26  1  0
  7 29  1  0
  8  9  1  0
  8 22  1  0
  9 10  1  0
  9 27  2  0
 10 11  2  0
 10 15  1  0
 11 12  1  0
 11 97  1  0
 12 13  2  0
 12 98  1  0
 13 14  1  0
 13 31  1  0
 14 15  2  0
 14 99  1  0
 15100  1  0
 16 17  2  0
 16 21  1  0
 16 31  1  0
 17 18  1  0
 17101  1  0
 18 19  2  0
 18102  1  0
 19 20  1  0
 19 24  1  0
 20 21  2  0
 20103  1  0
 21 23  1  0
 22 28  1  0
 22 32  2  0
 26 27  1  0
 28104  1  0
 28105  1  0
 29106  1  0
 29107  1  0
 33 34  1  0
 33 66  1  0
 33 70  2  0
 34 36  1  0
 34 59  1  0
 34108  1  6
 35 44  2  0
 35 45  1  0
 35 68  1  0
 36 56  1  0
 36109  1  0
 37 39  1  0
 37 47  1  0
 37 66  1  0
 37110  1  6
 38 43  2  0
 38 46  1  0
 38 47  1  0
 39 64  1  0
 39 67  2  0
 40 52  1  0
 40 53  2  0
 40 58  1  0
 41111  1  0
 41112  1  0
 41113  1  0
 42 43  1  0
 42 66  1  0
 42114  1  0
 42115  1  0
 43 44  1  0
 44116  1  0
 45 46  2  0
 45117  1  0
 46118  1  0
 47119  1  0
 47120  1  0
 48 41  1  0
 48 56  1  0
 48 65  1  0
 48121  1  1
 49 50  1  0
 49 53  1  0
 49 64  1  0
 49122  1  1
 50 51  1  0
 50123  1  0
 50124  1  0
 51 52  1  0
 51125  1  0
 51126  1  0
 52127  1  0
 52128  1  0
 53 54  1  0
 54 55  2  0
 54129  1  0
 55 57  1  0
 55130  1  0
 56 69  2  0
 57 58  2  0
 57131  1  0
 58132  1  0
 59 60  1  0
 59 61  1  0
 59 62  1  0
 60133  1  0
 60134  1  0
 60135  1  0
 61136  1  0
 61137  1  0
 61138  1  0
 62139  1  0
 62140  1  0
 62141  1  0
 63 65  1  0
 63142  1  0
 63143  1  0
 63144  1  0
 64145  1  0
 65146  1  0
 68 80  1  0
 71 72  1  0
 71 73  2  0
 71147  1  0
 72 74  2  0
 72 81  1  0
 73 83  1  0
 73 87  1  0
 74 82  1  0
 74 87  1  0
 75 79  1  0
 75 80  1  0
 75 84  2  0
 76 78  1  0
 76 81  1  0
 76 85  2  0
 77 79  1  0
 77 82  1  0
 77 86  2  0
 78148  1  0
 78149  1  0
 78150  1  0
 79151  1  0
 79152  1  0
 80153  1  0
 80154  1  0
 81155  1  0
 82156  1  0
 83157  1  0
M  ISO  4   1 100  68 101  80 101  83 100
M  END
$$$$
57
     RDKit          3D

150158  0  0  0  0  0  0  0  0999 V2000
  -30.7652  -14.3608   20.6636 C   0  0  0  0  0  0  0  0  0100  0  0
  -30.4392  -12.2669   19.3775 C   0  0  0  0  0  0  0  0  0101  0  0
  -29.4791  -12.5281   18.1977 C   0  0  0  0  0  0  0  0  0102  0  0
  -27.9985  -12.3963   18.6038 C   0  0  0  0  0  0  0  0  0103  0  0
  -27.6639  -13.2170   19.8820 C   0  0  2  0  0  0  0  0  0104  0  0
  -28.6795  -12.9602   21.0279 C   0  0  0  0  0  0  0  0  0105  0  0
  -25.2633  -13.8245   20.5754 C   0  0  0  0  0  0  0  0  0106  0  0
  -24.1645  -13.0409   20.9408 C   0  0  0  0  0  0  0  0  0107  0  0
  -24.6400  -11.7009   20.8697 C   0  0  0  0  0  0  0  0  0108  0  0
  -23.9005  -10.4085   21.0420 C   0  0  0  0  0  0  0  0  0109  0  0
  -24.3588   -9.4123   21.9123 C   0  0  0  0  0  0  0  0  0110  0  0
  -23.6296   -8.2350   22.0803 C   0  0  0  0  0  0  0  0  0111  0  0
  -22.4385   -8.0419   21.3657 C   0  0  0  0  0  0  0  0  0112  0  0
  -22.0103   -9.0167   20.4678 C   0  0  0  0  0  0  0  0  0113  0  0
  -22.7317  -10.1925   20.3102 C   0  0  0  0  0  0  0  0  0114  0  0
  -21.6857   -6.0709   22.5391 C   0  0  0  0  0  0  0  0  0115  0  0
  -21.4064   -6.5490   23.8264 C   0  0  0  0  0  0  0  0  0116  0  0
  -21.3635   -5.6677   24.9085 C   0  0  0  0  0  0  0  0  0117  0  0
  -21.5973   -4.3067   24.7088 C   0  0  0  0  0  0  0  0  0118  0  0
  -21.8700   -3.8284   23.4282 C   0  0  0  0  0  0  0  0  0119  0  0
  -21.9144   -4.7056   22.3460 C   0  0  0  0  0  0  0  0  0120  0  0
  -22.8194  -13.5263   21.1763 C   0  0  0  0  0  0  0  0  0121  0  0
  -22.1559   -4.2206   21.1063 F   0  0  0  0  0  0  0  0  0122  0  0
  -21.5628   -3.4510   25.7555 F   0  0  0  0  0  0  0  0  0123  0  0
  -30.0261  -13.1803   20.4553 N   0  0  0  0  0  0  0  0  0124  0  0
  -26.2911  -12.9356   20.3443 N   0  0  0  0  0  0  0  0  0125  0  0
  -25.9236  -11.6675   20.5847 N   0  0  0  0  0  0  0  0  0126  0  0
  -22.0708  -12.7905   22.0005 N   0  0  0  0  0  0  0  0  0127  0  0
  -25.4117  -15.1773   20.4097 N   0  0  0  0  0  0  0  0  0128  0  0
  -31.7916  -14.6724   20.0536 O   0  0  0  0  0  0  0  0  0129  0  0
  -21.6670   -6.9022   21.4423 O   0  0  0  0  0  0  0  0  0130  0  0
  -22.3946  -14.5564   20.6568 O   0  0  0  0  0  0  0  0  0131  0  0
  -24.6048  -31.8614   23.2223 C   0  0  0  0  0  0  0  0  0100  0  0
  -25.8822  -32.4841   23.8616 C   0  0  1  0  0  0  0  0  0101  0  0
  -27.2536  -27.5042   20.1156 C   0  0  0  0  0  0  0  0  0102  0  0
  -25.5726  -33.8762   24.2210 N   0  0  0  0  0  0  0  0  0103  0  0
  -23.4066  -30.4859   21.5461 C   0  0  2  0  0  0  0  0  0104  0  0
  -24.8467  -28.9636   20.1247 C   0  0  0  0  0  0  0  0  0105  0  0
  -22.7412  -29.4652   22.5052 C   0  0  0  0  0  0  0  0  0106  0  0
  -18.0167  -28.1302   22.8626 C   0  0  0  0  0  0  0  0  0107  0  0
  -24.1342  -36.7390   23.2568 C   0  0  0  0  0  0  0  0  0108  0  0
  -25.9141  -30.8882   21.3456 C   0  0  0  0  0  0  0  0  0109  0  0
  -25.9930  -29.5029   20.7208 C   0  0  0  0  0  0  0  0  0110  0  0
  -27.1758  -28.7612   20.7331 C   0  0  0  0  0  0  0  0  0111  0  0
  -26.1032  -26.9836   19.5230 C   0  0  0  0  0  0  0  0  0112  0  0
  -24.9097  -27.7011   19.5331 C   0  0  0  0  0  0  0  0  0113  0  0
  -23.5715  -29.7899   20.1582 C   0  0  0  0  0  0  0  0  0114  0  0
  -25.3990  -36.3212   24.0232 C   0  0  1  0  0  0  0  0  0115  0  0
  -20.5793  -28.3813   23.1004 C   0  0  2  0  0  0  0  0  0116  0  0
  -20.6548  -26.9392   22.5411 C   0  0  0  0  0  0  0  0  0117  0  0
  -19.5615  -26.6407   21.5143 C   0  0  0  0  0  0  0  0  0118  0  0
  -18.1797  -26.7818   22.1673 C   0  0  0  0  0  0  0  0  0119  0  0
  -19.1385  -28.8769   23.2988 C   0  0  0  0  0  0  0  0  0120  0  0
  -18.9183  -30.1286   23.8878 C   0  0  0  0  0  0  0  0  0121  0  0
  -17.6396  -30.6493   24.0352 C   0  0  0  0  0  0  0  0  0122  0  0
  -25.9153  -34.9582   23.4993 C   0  0  0  0  0  0  0  0  0123  0  0
  -16.5415  -29.9068   23.6254 C   0  0  0  0  0  0  0  0  0124  0  0
  -16.7331  -28.6521   23.0586 C   0  0  0  0  0  0  0  0  0125  0  0
  -26.4583  -31.6439   25.0683 C   0  0  0  0  0  0  0  0  0126  0  0
  -25.3807  -31.3179   26.1374 C   0  0  0  0  0  0  0  0  0127  0  0
  -27.0530  -30.3024   24.5680 C   0  0  0  0  0  0  0  0  0128  0  0
  -27.6014  -32.4281   25.7651 C   0  0  0  0  0  0  0  0  0129  0  0
  -27.5629  -37.2220   24.8621 C   0  0  0  0  0  0  0  0  0130  0  0
  -21.4133  -29.3375   22.3735 N   0  0  0  0  0  0  0  0  0131  0  0
  -26.4706  -37.3372   23.9061 N   0  0  0  0  0  0  0  0  0132  0  0
  -24.6674  -31.0544   22.1178 N   0  0  0  0  0  0  0  0  0133  0  0
  -23.4259  -28.8150   23.2971 O   0  0  0  0  0  0  0  0  0134  0  0
  -28.3948  -26.7345   20.0089 O   0  0  0  0  0  0  0  0  0135  0  0
  -26.5870  -34.9065   22.4671 O   0  0  0  0  0  0  0  0  0136  0  0
  -23.5365  -32.1254   23.7833 O   0  0  0  0  0  0  0  0  0137  0  0
  -30.9134  -13.0958   25.1252 C   0  0  0  0  0  0  0  0  0  0  0  0
  -32.8019  -13.5215   23.7436 C   0  0  0  0  0  0  0  0  0  0  0  0
  -31.7057  -13.3586   26.2371 C   0  0  0  0  0  0  0  0  0  0  0  0
  -31.4643  -13.1766   23.8511 C   0  0  0  0  0  0  0  0  0  0  0  0
  -33.0326  -13.6952   26.0228 C   0  0  0  0  0  0  0  0  0  0  0  0
  -31.1410  -13.2782   27.6089 C   0  0  0  0  0  0  0  0  0  0  0  0
  -31.6274  -12.7706   29.9883 C   0  0  0  0  0  0  0  0  0  0  0  0
  -31.7663  -14.0739   30.7587 C   0  0  1  0  0  0  0  0  0  1  0  0
  -33.6031  -13.7838   24.8004 N   0  0  0  0  0  0  0  0  0  0  0  0
  -30.6829  -12.9127   22.6989 N   0  0  0  0  0  0  0  0  0  0  0  0
  -32.0285  -12.9150   28.6142 N   0  0  0  0  0  0  0  0  0  0  0  0
  -29.9472  -13.5098   27.7808 O   0  0  0  0  0  0  0  0  0  0  0  0
  -33.8180  -13.9539   27.0812 F   0  0  0  0  0  0  0  0  0  0  0  0
  -33.0699  -14.4602   30.7357 F   0  0  0  0  0  0  0  0  0  0  0  0
  -31.4485  -12.4701   19.0860 H   0  0  0  0  0  0  0  0  0  0  0  0
  -30.3970  -11.2460   19.6950 H   0  0  0  0  0  0  0  0  0  0  0  0
  -29.6870  -11.8204   17.4226 H   0  0  0  0  0  0  0  0  0  0  0  0
  -29.6375  -13.5326   17.8649 H   0  0  0  0  0  0  0  0  0  0  0  0
  -27.7830  -11.3650   18.7904 H   0  0  0  0  0  0  0  0  0  0  0  0
  -27.4028  -12.7801   17.8021 H   0  0  0  0  0  0  0  0  0  0  0  0
  -27.7353  -14.2503   19.6136 H   0  0  0  0  0  0  0  0  0  0  0  0
  -28.5890  -11.9550   21.3832 H   0  0  0  0  0  0  0  0  0  0  0  0
  -28.5005  -13.6134   21.8562 H   0  0  0  0  0  0  0  0  0  0  0  0
  -25.2399   -9.5495   22.4318 H   0  0  0  0  0  0  0  0  0  0  0  0
  -23.9663   -7.5070   22.7297 H   0  0  0  0  0  0  0  0  0  0  0  0
  -21.1515   -8.8641   19.9162 H   0  0  0  0  0  0  0  0  0  0  0  0
  -22.4016  -10.9115   19.6476 H   0  0  0  0  0  0  0  0  0  0  0  0
  -21.2319   -7.5552   23.9750 H   0  0  0  0  0  0  0  0  0  0  0  0
  -21.1589   -6.0228   25.8556 H   0  0  0  0  0  0  0  0  0  0  0  0
  -22.0396   -2.8212   23.2809 H   0  0  0  0  0  0  0  0  0  0  0  0
  -22.4401  -11.9703   22.4008 H   0  0  0  0  0  0  0  0  0  0  0  0
  -21.1493  -13.0679   22.2082 H   0  0  0  0  0  0  0  0  0  0  0  0
  -24.6538  -15.7807   20.5848 H   0  0  0  0  0  0  0  0  0  0  0  0
  -26.2762  -15.5453   20.1156 H   0  0  0  0  0  0  0  0  0  0  0  0
  -26.6778  -32.4663   23.1464 H   0  0  0  0  0  0  0  0  0  0  0  0
  -25.0747  -34.0282   25.0566 H   0  0  0  0  0  0  0  0  0  0  0  0
  -22.7881  -31.3489   21.4131 H   0  0  0  0  0  0  0  0  0  0  0  0
  -23.3854  -35.9823   23.3648 H   0  0  0  0  0  0  0  0  0  0  0  0
  -24.3696  -36.8624   22.2204 H   0  0  0  0  0  0  0  0  0  0  0  0
  -23.7669  -37.6632   23.6516 H   0  0  0  0  0  0  0  0  0  0  0  0
  -25.9445  -31.6237   20.5691 H   0  0  0  0  0  0  0  0  0  0  0  0
  -26.7436  -31.0079   22.0108 H   0  0  0  0  0  0  0  0  0  0  0  0
  -28.0090  -29.1452   21.2057 H   0  0  0  0  0  0  0  0  0  0  0  0
  -26.1369  -26.0560   19.0719 H   0  0  0  0  0  0  0  0  0  0  0  0
  -24.0652  -27.2961   19.0997 H   0  0  0  0  0  0  0  0  0  0  0  0
  -23.6156  -30.5365   19.3930 H   0  0  0  0  0  0  0  0  0  0  0  0
  -22.7355  -29.1425   19.9945 H   0  0  0  0  0  0  0  0  0  0  0  0
  -25.1353  -36.2335   25.0565 H   0  0  0  0  0  0  0  0  0  0  0  0
  -21.0070  -28.3206   24.0793 H   0  0  0  0  0  0  0  0  0  0  0  0
  -20.5555  -26.2518   23.3550 H   0  0  0  0  0  0  0  0  0  0  0  0
  -21.5974  -26.8362   22.0454 H   0  0  0  0  0  0  0  0  0  0  0  0
  -19.6810  -25.6422   21.1488 H   0  0  0  0  0  0  0  0  0  0  0  0
  -19.6406  -27.3343   20.7034 H   0  0  0  0  0  0  0  0  0  0  0  0
  -17.4282  -26.6888   21.4113 H   0  0  0  0  0  0  0  0  0  0  0  0
  -18.0803  -26.0130   22.9049 H   0  0  0  0  0  0  0  0  0  0  0  0
  -19.7265  -30.6774   24.2204 H   0  0  0  0  0  0  0  0  0  0  0  0
  -17.5064  -31.5856   24.4483 H   0  0  0  0  0  0  0  0  0  0  0  0
  -15.5878  -30.2839   23.7407 H   0  0  0  0  0  0  0  0  0  0  0  0
  -15.9120  -28.0941   22.7766 H   0  0  0  0  0  0  0  0  0  0  0  0
  -24.5787  -30.7757   25.6817 H   0  0  0  0  0  0  0  0  0  0  0  0
  -25.0041  -32.2289   26.5536 H   0  0  0  0  0  0  0  0  0  0  0  0
  -25.8166  -30.7245   26.9138 H   0  0  0  0  0  0  0  0  0  0  0  0
  -26.2892  -29.7335   24.0803 H   0  0  0  0  0  0  0  0  0  0  0  0
  -27.4336  -29.7484   25.4006 H   0  0  0  0  0  0  0  0  0  0  0  0
  -27.8466  -30.4994   23.8779 H   0  0  0  0  0  0  0  0  0  0  0  0
  -27.2251  -33.3632   26.1242 H   0  0  0  0  0  0  0  0  0  0  0  0
  -28.3902  -32.6065   25.0645 H   0  0  0  0  0  0  0  0  0  0  0  0
  -27.9772  -31.8555   26.5872 H   0  0  0  0  0  0  0  0  0  0  0  0
  -28.2744  -38.0016   24.6863 H   0  0  0  0  0  0  0  0  0  0  0  0
  -28.0396  -36.2711   24.7461 H   0  0  0  0  0  0  0  0  0  0  0  0
  -27.1773  -37.3087   25.8564 H   0  0  0  0  0  0  0  0  0  0  0  0
  -20.9627  -29.9365   21.7352 H   0  0  0  0  0  0  0  0  0  0  0  0
  -26.0447  -38.2561   24.0273 H   0  0  0  0  0  0  0  0  0  0  0  0
  -29.9204  -12.8418   25.2451 H   0  0  0  0  0  0  0  0  0  0  0  0
  -33.2119  -13.5819   22.7985 H   0  0  0  0  0  0  0  0  0  0  0  0
  -30.6046  -12.4577   30.0192 H   0  0  0  0  0  0  0  0  0  0  0  0
  -32.2665  -12.0447   30.4461 H   0  0  0  0  0  0  0  0  0  0  0  0
  -31.2359  -13.9359   31.6777 H   0  0  0  0  0  0  0  0  0  0  0  0
  -30.0856  -12.1301   22.7001 H   0  0  0  0  0  0  0  0  0  0  0  0
  -32.9696  -12.7498   28.3768 H   0  0  0  0  0  0  0  0  0  0  0  0
  1 25  1  0
  1 30  2  0
  1 80  1  0
  2  3  1  0
  2 25  1  0
  2 85  1  0
  2 86  1  0
  3  4  1  0
  3 87  1  0
  3 88  1  0
  4  5  1  0
  4 89  1  0
  4 90  1  0
  5  6  1  0
  5 26  1  0
  5 91  1  6
  6 25  1  0
  6 92  1  0
  6 93  1  0
  7  8  2  0
  7 26  1  0
  7 29  1  0
  8  9  1  0
  8 22  1  0
  9 10  1  0
  9 27  2  0
 10 11  2  0
 10 15  1  0
 11 12  1  0
 11 94  1  0
 12 13  2  0
 12 95  1  0
 13 14  1  0
 13 31  1  0
 14 15  2  0
 14 96  1  0
 15 97  1  0
 16 17  2  0
 16 21  1  0
 16 31  1  0
 17 18  1  0
 17 98  1  0
 18 19  2  0
 18 99  1  0
 19 20  1  0
 19 24  1  0
 20 21  2  0
 20100  1  0
 21 23  1  0
 22 28  1  0
 22 32  2  0
 26 27  1  0
 28101  1  0
 28102  1  0
 29103  1  0
 29104  1  0
 33 34  1  0
 33 66  1  0
 33 70  2  0
 34 36  1  0
 34 59  1  0
 34105  1  6
 35 44  2  0
 35 45  1  0
 35 68  1  0
 36 56  1  0
 36106  1  0
 37 39  1  0
 37 47  1  0
 37 66  1  0
 37107  1  6
 38 43  2  0
 38 46  1  0
 38 47  1  0
 39 64  1  0
 39 67  2  0
 40 52  1  0
 40 53  2  0
 40 58  1  0
 41108  1  0
 41109  1  0
 41110  1  0
 42 43  1  0
 42 66  1  0
 42111  1  0
 42112  1  0
 43 44  1  0
 44113  1  0
 45 46  2  0
 45114  1  0
 46115  1  0
 47116  1  0
 47117  1  0
 48 41  1  0
 48 56  1  0
 48 65  1  0
 48118  1  1
 49 50  1  0
 49 53  1  0
 49 64  1  0
 49119  1  1
 50 51  1  0
 50120  1  0
 50121  1  0
 51 52  1  0
 51122  1  0
 51123  1  0
 52124  1  0
 52125  1  0
 53 54  1  0
 54 55  2  0
 54126  1  0
 55 57  1  0
 55127  1  0
 56 69  2  0
 57 58  2  0
 57128  1  0
 58129  1  0
 59 60  1  0
 59 61  1  0
 59 62  1  0
 60130  1  0
 60131  1  0
 60132  1  0
 61133  1  0
 61134  1  0
 61135  1  0
 62136  1  0
 62137  1  0
 62138  1  0
 63 65  1  0
 63139  1  0
 63140  1  0
 63141  1  0
 64142  1  0
 65143  1  0
 68 78  1  0
 71 73  2  0
 71 74  1  0
 71144  1  0
 72 74  2  0
 72 79  1  0
 72145  1  0
 73 75  1  0
 73 76  1  0
 74 80  1  0
 75 79  2  0
 75 83  1  0
 76 81  1  0
 76 82  2  0
 77 78  1  0
 77 81  1  0
 77146  1  0
 77147  1  0
 78 84  1  0
 78148  1  1
 80149  1  0
 81150  1  0
M  ISO  4   1 100  68 101  78 101  80 100
M  END
$$$$
58
     RDKit          3D

157165  0  0  0  0  0  0  0  0999 V2000
  -30.7652  -14.3608   20.6636 C   0  0  0  0  0  0  0  0  0100  0  0
  -30.4392  -12.2669   19.3775 C   0  0  0  0  0  0  0  0  0101  0  0
  -29.4791  -12.5281   18.1977 C   0  0  0  0  0  0  0  0  0102  0  0
  -27.9985  -12.3963   18.6038 C   0  0  0  0  0  0  0  0  0103  0  0
  -27.6639  -13.2170   19.8820 C   0  0  2  0  0  0  0  0  0104  0  0
  -28.6795  -12.9602   21.0279 C   0  0  0  0  0  0  0  0  0105  0  0
  -25.2633  -13.8245   20.5754 C   0  0  0  0  0  0  0  0  0106  0  0
  -24.1645  -13.0409   20.9408 C   0  0  0  0  0  0  0  0  0107  0  0
  -24.6400  -11.7009   20.8697 C   0  0  0  0  0  0  0  0  0108  0  0
  -23.9005  -10.4085   21.0420 C   0  0  0  0  0  0  0  0  0109  0  0
  -24.3588   -9.4123   21.9123 C   0  0  0  0  0  0  0  0  0110  0  0
  -23.6296   -8.2350   22.0803 C   0  0  0  0  0  0  0  0  0111  0  0
  -22.4385   -8.0419   21.3657 C   0  0  0  0  0  0  0  0  0112  0  0
  -22.0103   -9.0167   20.4678 C   0  0  0  0  0  0  0  0  0113  0  0
  -22.7317  -10.1925   20.3102 C   0  0  0  0  0  0  0  0  0114  0  0
  -21.6857   -6.0709   22.5391 C   0  0  0  0  0  0  0  0  0115  0  0
  -21.4064   -6.5490   23.8264 C   0  0  0  0  0  0  0  0  0116  0  0
  -21.3635   -5.6677   24.9085 C   0  0  0  0  0  0  0  0  0117  0  0
  -21.5973   -4.3067   24.7088 C   0  0  0  0  0  0  0  0  0118  0  0
  -21.8700   -3.8284   23.4282 C   0  0  0  0  0  0  0  0  0119  0  0
  -21.9144   -4.7056   22.3460 C   0  0  0  0  0  0  0  0  0120  0  0
  -22.8194  -13.5263   21.1763 C   0  0  0  0  0  0  0  0  0121  0  0
  -22.1559   -4.2206   21.1063 F   0  0  0  0  0  0  0  0  0122  0  0
  -21.5628   -3.4510   25.7555 F   0  0  0  0  0  0  0  0  0123  0  0
  -30.0261  -13.1803   20.4553 N   0  0  0  0  0  0  0  0  0124  0  0
  -26.2911  -12.9356   20.3443 N   0  0  0  0  0  0  0  0  0125  0  0
  -25.9236  -11.6675   20.5847 N   0  0  0  0  0  0  0  0  0126  0  0
  -22.0708  -12.7905   22.0005 N   0  0  0  0  0  0  0  0  0127  0  0
  -25.4117  -15.1773   20.4097 N   0  0  0  0  0  0  0  0  0128  0  0
  -31.7916  -14.6724   20.0536 O   0  0  0  0  0  0  0  0  0129  0  0
  -21.6670   -6.9022   21.4423 O   0  0  0  0  0  0  0  0  0130  0  0
  -22.3946  -14.5564   20.6568 O   0  0  0  0  0  0  0  0  0131  0  0
  -24.6048  -31.8614   23.2223 C   0  0  0  0  0  0  0  0  0100  0  0
  -25.8822  -32.4841   23.8616 C   0  0  1  0  0  0  0  0  0101  0  0
  -27.2536  -27.5042   20.1156 C   0  0  0  0  0  0  0  0  0102  0  0
  -25.5726  -33.8762   24.2210 N   0  0  0  0  0  0  0  0  0103  0  0
  -23.4066  -30.4859   21.5461 C   0  0  2  0  0  0  0  0  0104  0  0
  -24.8467  -28.9636   20.1247 C   0  0  0  0  0  0  0  0  0105  0  0
  -22.7412  -29.4652   22.5052 C   0  0  0  0  0  0  0  0  0106  0  0
  -18.0167  -28.1302   22.8626 C   0  0  0  0  0  0  0  0  0107  0  0
  -24.1342  -36.7390   23.2568 C   0  0  0  0  0  0  0  0  0108  0  0
  -25.9141  -30.8882   21.3456 C   0  0  0  0  0  0  0  0  0109  0  0
  -25.9930  -29.5029   20.7208 C   0  0  0  0  0  0  0  0  0110  0  0
  -27.1758  -28.7612   20.7331 C   0  0  0  0  0  0  0  0  0111  0  0
  -26.1032  -26.9836   19.5230 C   0  0  0  0  0  0  0  0  0112  0  0
  -24.9097  -27.7011   19.5331 C   0  0  0  0  0  0  0  0  0113  0  0
  -23.5715  -29.7899   20.1582 C   0  0  0  0  0  0  0  0  0114  0  0
  -25.3990  -36.3212   24.0232 C   0  0  1  0  0  0  0  0  0115  0  0
  -20.5793  -28.3813   23.1004 C   0  0  2  0  0  0  0  0  0116  0  0
  -20.6548  -26.9392   22.5411 C   0  0  0  0  0  0  0  0  0117  0  0
  -19.5615  -26.6407   21.5143 C   0  0  0  0  0  0  0  0  0118  0  0
  -18.1797  -26.7818   22.1673 C   0  0  0  0  0  0  0  0  0119  0  0
  -19.1385  -28.8769   23.2988 C   0  0  0  0  0  0  0  0  0120  0  0
  -18.9183  -30.1286   23.8878 C   0  0  0  0  0  0  0  0  0121  0  0
  -17.6396  -30.6493   24.0352 C   0  0  0  0  0  0  0  0  0122  0  0
  -25.9153  -34.9582   23.4993 C   0  0  0  0  0  0  0  0  0123  0  0
  -16.5415  -29.9068   23.6254 C   0  0  0  0  0  0  0  0  0124  0  0
  -16.7331  -28.6521   23.0586 C   0  0  0  0  0  0  0  0  0125  0  0
  -26.4583  -31.6439   25.0683 C   0  0  0  0  0  0  0  0  0126  0  0
  -25.3807  -31.3179   26.1374 C   0  0  0  0  0  0  0  0  0127  0  0
  -27.0530  -30.3024   24.5680 C   0  0  0  0  0  0  0  0  0128  0  0
  -27.6014  -32.4281   25.7651 C   0  0  0  0  0  0  0  0  0129  0  0
  -27.5629  -37.2220   24.8621 C   0  0  0  0  0  0  0  0  0130  0  0
  -21.4133  -29.3375   22.3735 N   0  0  0  0  0  0  0  0  0131  0  0
  -26.4706  -37.3372   23.9061 N   0  0  0  0  0  0  0  0  0132  0  0
  -24.6674  -31.0544   22.1178 N   0  0  0  0  0  0  0  0  0133  0  0
  -23.4259  -28.8150   23.2971 O   0  0  0  0  0  0  0  0  0134  0  0
  -28.3948  -26.7345   20.0089 O   0  0  0  0  0  0  0  0  0135  0  0
  -26.5870  -34.9065   22.4671 O   0  0  0  0  0  0  0  0  0136  0  0
  -23.5365  -32.1254   23.7833 O   0  0  0  0  0  0  0  0  0137  0  0
  -24.8784  -16.9903   23.4938 C   0  0  0  0  0  0  0  0  0  0  0  0
  -26.2395  -16.7469   23.3098 C   0  0  0  0  0  0  0  0  0  0  0  0
  -24.1519  -17.6658   22.5131 C   0  0  0  0  0  0  0  0  0  0  0  0
  -26.1477  -17.8545   21.1646 C   0  0  0  0  0  0  0  0  0  0  0  0
  -26.8741  -17.1790   22.1453 C   0  0  0  0  0  0  0  0  0  0  0  0
  -24.7866  -18.0979   21.3486 C   0  0  0  0  0  0  0  0  0  0  0  0
  -22.8351  -21.0835   18.9464 C   0  0  0  0  0  0  0  0  0  0  0  0
  -22.7082  -22.1793   19.9892 C   0  0  0  0  0  0  0  0  0  1  0  0
  -22.6542  -19.0632   20.4844 C   0  0  0  0  0  0  0  0  0  0  0  0
  -20.6368  -19.9275   19.2520 C   0  0  0  0  0  0  0  0  0  0  0  0
  -22.1470  -19.7433   19.2117 C   0  0  1  0  0  0  0  0  0  0  0  0
  -28.2567  -16.9316   21.9591 N   0  0  0  0  0  0  0  0  0  0  0  0
  -24.0652  -18.7690   20.3755 N   0  0  0  0  0  0  0  0  0  0  0  0
  -23.4705  -21.2600   17.9047 O   0  0  0  0  0  0  0  0  0  0  0  0
  -20.0340  -18.7278   19.4521 F   0  0  0  0  0  0  0  0  0  0  0  0
  -20.1994  -20.3813   18.0497 F   0  0  0  0  0  0  0  0  0  0  0  0
  -22.4037  -18.8912   18.1689 F   0  0  0  0  0  0  0  0  0  0  0  0
  -31.4485  -12.4701   19.0860 H   0  0  0  0  0  0  0  0  0  0  0  0
  -30.3970  -11.2460   19.6950 H   0  0  0  0  0  0  0  0  0  0  0  0
  -29.6870  -11.8204   17.4226 H   0  0  0  0  0  0  0  0  0  0  0  0
  -29.6375  -13.5326   17.8649 H   0  0  0  0  0  0  0  0  0  0  0  0
  -27.7830  -11.3650   18.7904 H   0  0  0  0  0  0  0  0  0  0  0  0
  -27.4028  -12.7801   17.8021 H   0  0  0  0  0  0  0  0  0  0  0  0
  -27.7353  -14.2503   19.6136 H   0  0  0  0  0  0  0  0  0  0  0  0
  -28.5890  -11.9550   21.3832 H   0  0  0  0  0  0  0  0  0  0  0  0
  -28.5005  -13.6134   21.8562 H   0  0  0  0  0  0  0  0  0  0  0  0
  -25.2399   -9.5495   22.4318 H   0  0  0  0  0  0  0  0  0  0  0  0
  -23.9663   -7.5070   22.7297 H   0  0  0  0  0  0  0  0  0  0  0  0
  -21.1515   -8.8641   19.9162 H   0  0  0  0  0  0  0  0  0  0  0  0
  -22.4016  -10.9115   19.6476 H   0  0  0  0  0  0  0  0  0  0  0  0
  -21.2319   -7.5552   23.9750 H   0  0  0  0  0  0  0  0  0  0  0  0
  -21.1589   -6.0228   25.8556 H   0  0  0  0  0  0  0  0  0  0  0  0
  -22.0396   -2.8212   23.2809 H   0  0  0  0  0  0  0  0  0  0  0  0
  -22.4401  -11.9703   22.4008 H   0  0  0  0  0  0  0  0  0  0  0  0
  -21.1493  -13.0679   22.2082 H   0  0  0  0  0  0  0  0  0  0  0  0
  -24.6538  -15.7807   20.5848 H   0  0  0  0  0  0  0  0  0  0  0  0
  -26.2762  -15.5453   20.1156 H   0  0  0  0  0  0  0  0  0  0  0  0
  -26.6778  -32.4663   23.1464 H   0  0  0  0  0  0  0  0  0  0  0  0
  -25.0747  -34.0282   25.0566 H   0  0  0  0  0  0  0  0  0  0  0  0
  -22.7881  -31.3489   21.4131 H   0  0  0  0  0  0  0  0  0  0  0  0
  -23.3854  -35.9823   23.3648 H   0  0  0  0  0  0  0  0  0  0  0  0
  -24.3696  -36.8624   22.2204 H   0  0  0  0  0  0  0  0  0  0  0  0
  -23.7669  -37.6632   23.6516 H   0  0  0  0  0  0  0  0  0  0  0  0
  -25.9445  -31.6237   20.5691 H   0  0  0  0  0  0  0  0  0  0  0  0
  -26.7436  -31.0079   22.0108 H   0  0  0  0  0  0  0  0  0  0  0  0
  -28.0090  -29.1452   21.2057 H   0  0  0  0  0  0  0  0  0  0  0  0
  -26.1369  -26.0560   19.0719 H   0  0  0  0  0  0  0  0  0  0  0  0
  -24.0652  -27.2961   19.0997 H   0  0  0  0  0  0  0  0  0  0  0  0
  -23.6156  -30.5365   19.3930 H   0  0  0  0  0  0  0  0  0  0  0  0
  -22.7355  -29.1425   19.9945 H   0  0  0  0  0  0  0  0  0  0  0  0
  -25.1353  -36.2335   25.0565 H   0  0  0  0  0  0  0  0  0  0  0  0
  -21.0070  -28.3206   24.0793 H   0  0  0  0  0  0  0  0  0  0  0  0
  -20.5555  -26.2518   23.3550 H   0  0  0  0  0  0  0  0  0  0  0  0
  -21.5974  -26.8362   22.0454 H   0  0  0  0  0  0  0  0  0  0  0  0
  -19.6810  -25.6422   21.1488 H   0  0  0  0  0  0  0  0  0  0  0  0
  -19.6406  -27.3343   20.7034 H   0  0  0  0  0  0  0  0  0  0  0  0
  -17.4282  -26.6888   21.4113 H   0  0  0  0  0  0  0  0  0  0  0  0
  -18.0803  -26.0130   22.9049 H   0  0  0  0  0  0  0  0  0  0  0  0
  -19.7265  -30.6774   24.2204 H   0  0  0  0  0  0  0  0  0  0  0  0
  -17.5064  -31.5856   24.4483 H   0  0  0  0  0  0  0  0  0  0  0  0
  -15.5878  -30.2839   23.7407 H   0  0  0  0  0  0  0  0  0  0  0  0
  -15.9120  -28.0941   22.7766 H   0  0  0  0  0  0  0  0  0  0  0  0
  -24.5787  -30.7757   25.6817 H   0  0  0  0  0  0  0  0  0  0  0  0
  -25.0041  -32.2289   26.5536 H   0  0  0  0  0  0  0  0  0  0  0  0
  -25.8166  -30.7245   26.9138 H   0  0  0  0  0  0  0  0  0  0  0  0
  -26.2892  -29.7335   24.0803 H   0  0  0  0  0  0  0  0  0  0  0  0
  -27.4336  -29.7484   25.4006 H   0  0  0  0  0  0  0  0  0  0  0  0
  -27.8466  -30.4994   23.8779 H   0  0  0  0  0  0  0  0  0  0  0  0
  -27.2251  -33.3632   26.1242 H   0  0  0  0  0  0  0  0  0  0  0  0
  -28.3902  -32.6065   25.0645 H   0  0  0  0  0  0  0  0  0  0  0  0
  -27.9772  -31.8555   26.5872 H   0  0  0  0  0  0  0  0  0  0  0  0
  -28.2744  -38.0016   24.6863 H   0  0  0  0  0  0  0  0  0  0  0  0
  -28.0396  -36.2711   24.7461 H   0  0  0  0  0  0  0  0  0  0  0  0
  -27.1773  -37.3087   25.8564 H   0  0  0  0  0  0  0  0  0  0  0  0
  -20.9627  -29.9365   21.7352 H   0  0  0  0  0  0  0  0  0  0  0  0
  -26.0447  -38.2561   24.0273 H   0  0  0  0  0  0  0  0  0  0  0  0
  -24.4089  -16.6706   24.3554 H   0  0  0  0  0  0  0  0  0  0  0  0
  -26.7770  -16.2471   24.0353 H   0  0  0  0  0  0  0  0  0  0  0  0
  -23.1449  -17.8458   22.6491 H   0  0  0  0  0  0  0  0  0  0  0  0
  -26.6172  -18.1742   20.3030 H   0  0  0  0  0  0  0  0  0  0  0  0
  -22.6310  -21.7249   20.9548 H   0  0  0  0  0  0  0  0  0  0  0  0
  -21.8373  -22.7527   19.7492 H   0  0  0  0  0  0  0  0  0  0  0  0
  -22.1153  -18.1511   20.6346 H   0  0  0  0  0  0  0  0  0  0  0  0
  -22.5021  -19.7233   21.3127 H   0  0  0  0  0  0  0  0  0  0  0  0
  -20.4047  -20.6161   20.0374 H   0  0  0  0  0  0  0  0  0  0  0  0
  -28.7571  -17.7142   22.2853 H   0  0  0  0  0  0  0  0  0  0  0  0
  -24.5398  -19.0621   19.5643 H   0  0  0  0  0  0  0  0  0  0  0  0
  1 25  1  0
  1 30  2  0
  1 82  1  0
  2  3  1  0
  2 25  1  0
  2 88  1  0
  2 89  1  0
  3  4  1  0
  3 90  1  0
  3 91  1  0
  4  5  1  0
  4 92  1  0
  4 93  1  0
  5  6  1  0
  5 26  1  0
  5 94  1  6
  6 25  1  0
  6 95  1  0
  6 96  1  0
  7  8  2  0
  7 26  1  0
  7 29  1  0
  8  9  1  0
  8 22  1  0
  9 10  1  0
  9 27  2  0
 10 11  2  0
 10 15  1  0
 11 12  1  0
 11 97  1  0
 12 13  2  0
 12 98  1  0
 13 14  1  0
 13 31  1  0
 14 15  2  0
 14 99  1  0
 15100  1  0
 16 17  2  0
 16 21  1  0
 16 31  1  0
 17 18  1  0
 17101  1  0
 18 19  2  0
 18102  1  0
 19 20  1  0
 19 24  1  0
 20 21  2  0
 20103  1  0
 21 23  1  0
 22 28  1  0
 22 32  2  0
 26 27  1  0
 28104  1  0
 28105  1  0
 29106  1  0
 29107  1  0
 33 34  1  0
 33 66  1  0
 33 70  2  0
 34 36  1  0
 34 59  1  0
 34108  1  6
 35 44  2  0
 35 45  1  0
 35 68  1  0
 36 56  1  0
 36109  1  0
 37 39  1  0
 37 47  1  0
 37 66  1  0
 37110  1  6
 38 43  2  0
 38 46  1  0
 38 47  1  0
 39 64  1  0
 39 67  2  0
 40 52  1  0
 40 53  2  0
 40 58  1  0
 41111  1  0
 41112  1  0
 41113  1  0
 42 43  1  0
 42 66  1  0
 42114  1  0
 42115  1  0
 43 44  1  0
 44116  1  0
 45 46  2  0
 45117  1  0
 46118  1  0
 47119  1  0
 47120  1  0
 48 41  1  0
 48 56  1  0
 48 65  1  0
 48121  1  1
 49 50  1  0
 49 53  1  0
 49 64  1  0
 49122  1  1
 50 51  1  0
 50123  1  0
 50124  1  0
 51 52  1  0
 51125  1  0
 51126  1  0
 52127  1  0
 52128  1  0
 53 54  1  0
 54 55  2  0
 54129  1  0
 55 57  1  0
 55130  1  0
 56 69  2  0
 57 58  2  0
 57131  1  0
 58132  1  0
 59 60  1  0
 59 61  1  0
 59 62  1  0
 60133  1  0
 60134  1  0
 60135  1  0
 61136  1  0
 61137  1  0
 61138  1  0
 62139  1  0
 62140  1  0
 62141  1  0
 63 65  1  0
 63142  1  0
 63143  1  0
 63144  1  0
 64145  1  0
 65146  1  0
 68 78  1  0
 71 72  2  0
 71 73  1  0
 71147  1  0
 72 75  1  0
 72148  1  0
 73 76  2  0
 73149  1  0
 74 75  2  0
 74 76  1  0
 74150  1  0
 75 82  1  0
 76 83  1  0
 77 78  1  0
 77 81  1  0
 77 84  2  0
 78151  1  0
 78152  1  0
 79 81  1  0
 79 83  1  0
 79153  1  0
 79154  1  0
 80 81  1  0
 80 85  1  0
 80 86  1  0
 80155  1  0
 81 87  1  6
 82156  1  0
 83157  1  0
M  ISO  4   1 100  68 101  78 101  82 100
M  END
$$$$
59
     RDKit          3D

158166  0  0  0  0  0  0  0  0999 V2000
  -30.7652  -14.3608   20.6636 C   0  0  0  0  0  0  0  0  0100  0  0
  -30.4392  -12.2669   19.3775 C   0  0  0  0  0  0  0  0  0101  0  0
  -29.4791  -12.5281   18.1977 C   0  0  0  0  0  0  0  0  0102  0  0
  -27.9985  -12.3963   18.6038 C   0  0  0  0  0  0  0  0  0103  0  0
  -27.6639  -13.2170   19.8820 C   0  0  2  0  0  0  0  0  0104  0  0
  -28.6795  -12.9602   21.0279 C   0  0  0  0  0  0  0  0  0105  0  0
  -25.2633  -13.8245   20.5754 C   0  0  0  0  0  0  0  0  0106  0  0
  -24.1645  -13.0409   20.9408 C   0  0  0  0  0  0  0  0  0107  0  0
  -24.6400  -11.7009   20.8697 C   0  0  0  0  0  0  0  0  0108  0  0
  -23.9005  -10.4085   21.0420 C   0  0  0  0  0  0  0  0  0109  0  0
  -24.3588   -9.4123   21.9123 C   0  0  0  0  0  0  0  0  0110  0  0
  -23.6296   -8.2350   22.0803 C   0  0  0  0  0  0  0  0  0111  0  0
  -22.4385   -8.0419   21.3657 C   0  0  0  0  0  0  0  0  0112  0  0
  -22.0103   -9.0167   20.4678 C   0  0  0  0  0  0  0  0  0113  0  0
  -22.7317  -10.1925   20.3102 C   0  0  0  0  0  0  0  0  0114  0  0
  -21.6857   -6.0709   22.5391 C   0  0  0  0  0  0  0  0  0115  0  0
  -21.4064   -6.5490   23.8264 C   0  0  0  0  0  0  0  0  0116  0  0
  -21.3635   -5.6677   24.9085 C   0  0  0  0  0  0  0  0  0117  0  0
  -21.5973   -4.3067   24.7088 C   0  0  0  0  0  0  0  0  0118  0  0
  -21.8700   -3.8284   23.4282 C   0  0  0  0  0  0  0  0  0119  0  0
  -21.9144   -4.7056   22.3460 C   0  0  0  0  0  0  0  0  0120  0  0
  -22.8194  -13.5263   21.1763 C   0  0  0  0  0  0  0  0  0121  0  0
  -22.1559   -4.2206   21.1063 F   0  0  0  0  0  0  0  0  0122  0  0
  -21.5628   -3.4510   25.7555 F   0  0  0  0  0  0  0  0  0123  0  0
  -30.0261  -13.1803   20.4553 N   0  0  0  0  0  0  0  0  0124  0  0
  -26.2911  -12.9356   20.3443 N   0  0  0  0  0  0  0  0  0125  0  0
  -25.9236  -11.6675   20.5847 N   0  0  0  0  0  0  0  0  0126  0  0
  -22.0708  -12.7905   22.0005 N   0  0  0  0  0  0  0  0  0127  0  0
  -25.4117  -15.1773   20.4097 N   0  0  0  0  0  0  0  0  0128  0  0
  -31.7916  -14.6724   20.0536 O   0  0  0  0  0  0  0  0  0129  0  0
  -21.6670   -6.9022   21.4423 O   0  0  0  0  0  0  0  0  0130  0  0
  -22.3946  -14.5564   20.6568 O   0  0  0  0  0  0  0  0  0131  0  0
  -24.6048  -31.8614   23.2223 C   0  0  0  0  0  0  0  0  0100  0  0
  -25.8822  -32.4841   23.8616 C   0  0  1  0  0  0  0  0  0101  0  0
  -27.2536  -27.5042   20.1156 C   0  0  0  0  0  0  0  0  0102  0  0
  -25.5726  -33.8762   24.2210 N   0  0  0  0  0  0  0  0  0103  0  0
  -23.4066  -30.4859   21.5461 C   0  0  2  0  0  0  0  0  0104  0  0
  -24.8467  -28.9636   20.1247 C   0  0  0  0  0  0  0  0  0105  0  0
  -22.7412  -29.4652   22.5052 C   0  0  0  0  0  0  0  0  0106  0  0
  -18.0167  -28.1302   22.8626 C   0  0  0  0  0  0  0  0  0107  0  0
  -24.1342  -36.7390   23.2568 C   0  0  0  0  0  0  0  0  0108  0  0
  -25.9141  -30.8882   21.3456 C   0  0  0  0  0  0  0  0  0109  0  0
  -25.9930  -29.5029   20.7208 C   0  0  0  0  0  0  0  0  0110  0  0
  -27.1758  -28.7612   20.7331 C   0  0  0  0  0  0  0  0  0111  0  0
  -26.1032  -26.9836   19.5230 C   0  0  0  0  0  0  0  0  0112  0  0
  -24.9097  -27.7011   19.5331 C   0  0  0  0  0  0  0  0  0113  0  0
  -23.5715  -29.7899   20.1582 C   0  0  0  0  0  0  0  0  0114  0  0
  -25.3990  -36.3212   24.0232 C   0  0  1  0  0  0  0  0  0115  0  0
  -20.5793  -28.3813   23.1004 C   0  0  2  0  0  0  0  0  0116  0  0
  -20.6548  -26.9392   22.5411 C   0  0  0  0  0  0  0  0  0117  0  0
  -19.5615  -26.6407   21.5143 C   0  0  0  0  0  0  0  0  0118  0  0
  -18.1797  -26.7818   22.1673 C   0  0  0  0  0  0  0  0  0119  0  0
  -19.1385  -28.8769   23.2988 C   0  0  0  0  0  0  0  0  0120  0  0
  -18.9183  -30.1286   23.8878 C   0  0  0  0  0  0  0  0  0121  0  0
  -17.6396  -30.6493   24.0352 C   0  0  0  0  0  0  0  0  0122  0  0
  -25.9153  -34.9582   23.4993 C   0  0  0  0  0  0  0  0  0123  0  0
  -16.5415  -29.9068   23.6254 C   0  0  0  0  0  0  0  0  0124  0  0
  -16.7331  -28.6521   23.0586 C   0  0  0  0  0  0  0  0  0125  0  0
  -26.4583  -31.6439   25.0683 C   0  0  0  0  0  0  0  0  0126  0  0
  -25.3807  -31.3179   26.1374 C   0  0  0  0  0  0  0  0  0127  0  0
  -27.0530  -30.3024   24.5680 C   0  0  0  0  0  0  0  0  0128  0  0
  -27.6014  -32.4281   25.7651 C   0  0  0  0  0  0  0  0  0129  0  0
  -27.5629  -37.2220   24.8621 C   0  0  0  0  0  0  0  0  0130  0  0
  -21.4133  -29.3375   22.3735 N   0  0  0  0  0  0  0  0  0131  0  0
  -26.4706  -37.3372   23.9061 N   0  0  0  0  0  0  0  0  0132  0  0
  -24.6674  -31.0544   22.1178 N   0  0  0  0  0  0  0  0  0133  0  0
  -23.4259  -28.8150   23.2971 O   0  0  0  0  0  0  0  0  0134  0  0
  -28.3948  -26.7345   20.0089 O   0  0  0  0  0  0  0  0  0135  0  0
  -26.5870  -34.9065   22.4671 O   0  0  0  0  0  0  0  0  0136  0  0
  -23.5365  -32.1254   23.7833 O   0  0  0  0  0  0  0  0  0137  0  0
  -30.3664  -20.5836   19.4467 C   0  0  0  0  0  0  0  0  0  0  0  0
  -31.5851  -21.5805   17.6142 C   0  0  0  0  0  0  0  0  0  0  0  0
  -30.6554  -19.3135   18.9480 C   0  0  0  0  0  0  0  0  0  0  0  0
  -31.4093  -19.1768   17.7824 C   0  0  0  0  0  0  0  0  0  0  0  0
  -30.8312  -21.7172   18.7797 C   0  0  0  0  0  0  0  0  0  0  0  0
  -31.8742  -20.3103   17.1155 C   0  0  0  0  0  0  0  0  0  0  0  0
  -30.1540  -18.1509   19.6697 C   0  0  0  0  0  0  0  0  0  0  0  0
  -28.8537  -17.8708   19.8909 C   0  0  0  0  0  0  0  0  0  0  0  0
  -29.6568  -24.7056   20.7220 C   0  0  0  0  0  0  0  0  0  0  0  0
  -29.7742  -23.2173   20.4703 C   0  0  0  0  0  0  0  0  0  0  0  0
  -28.8617  -25.1012   21.9510 C   0  0  0  0  0  0  0  0  0  1  0  0
  -31.7243  -17.8159   17.2406 C   0  0  0  0  0  0  0  0  0  0  0  0
  -32.6392  -20.1938   15.9338 N   0  0  0  0  0  0  0  0  0  0  0  0
  -30.5439  -22.9807   19.2758 N   0  0  0  0  0  0  0  0  0  0  0  0
  -30.1682  -25.5474   19.9847 O   0  0  0  0  0  0  0  0  0  0  0  0
  -33.0662  -17.6312   17.1660 F   0  0  0  0  0  0  0  0  0  0  0  0
  -31.2409  -17.6815   15.9803 F   0  0  0  0  0  0  0  0  0  0  0  0
  -31.4485  -12.4701   19.0860 H   0  0  0  0  0  0  0  0  0  0  0  0
  -30.3970  -11.2460   19.6950 H   0  0  0  0  0  0  0  0  0  0  0  0
  -29.6870  -11.8204   17.4226 H   0  0  0  0  0  0  0  0  0  0  0  0
  -29.6375  -13.5326   17.8649 H   0  0  0  0  0  0  0  0  0  0  0  0
  -27.7830  -11.3650   18.7904 H   0  0  0  0  0  0  0  0  0  0  0  0
  -27.4028  -12.7801   17.8021 H   0  0  0  0  0  0  0  0  0  0  0  0
  -27.7353  -14.2503   19.6136 H   0  0  0  0  0  0  0  0  0  0  0  0
  -28.5890  -11.9550   21.3832 H   0  0  0  0  0  0  0  0  0  0  0  0
  -28.5005  -13.6134   21.8562 H   0  0  0  0  0  0  0  0  0  0  0  0
  -25.2399   -9.5495   22.4318 H   0  0  0  0  0  0  0  0  0  0  0  0
  -23.9663   -7.5070   22.7297 H   0  0  0  0  0  0  0  0  0  0  0  0
  -21.1515   -8.8641   19.9162 H   0  0  0  0  0  0  0  0  0  0  0  0
  -22.4016  -10.9115   19.6476 H   0  0  0  0  0  0  0  0  0  0  0  0
  -21.2319   -7.5552   23.9750 H   0  0  0  0  0  0  0  0  0  0  0  0
  -21.1589   -6.0228   25.8556 H   0  0  0  0  0  0  0  0  0  0  0  0
  -22.0396   -2.8212   23.2809 H   0  0  0  0  0  0  0  0  0  0  0  0
  -22.4401  -11.9703   22.4008 H   0  0  0  0  0  0  0  0  0  0  0  0
  -21.1493  -13.0679   22.2082 H   0  0  0  0  0  0  0  0  0  0  0  0
  -24.6538  -15.7807   20.5848 H   0  0  0  0  0  0  0  0  0  0  0  0
  -26.2762  -15.5453   20.1156 H   0  0  0  0  0  0  0  0  0  0  0  0
  -26.6778  -32.4663   23.1464 H   0  0  0  0  0  0  0  0  0  0  0  0
  -25.0747  -34.0282   25.0566 H   0  0  0  0  0  0  0  0  0  0  0  0
  -22.7881  -31.3489   21.4131 H   0  0  0  0  0  0  0  0  0  0  0  0
  -23.3854  -35.9823   23.3648 H   0  0  0  0  0  0  0  0  0  0  0  0
  -24.3696  -36.8624   22.2204 H   0  0  0  0  0  0  0  0  0  0  0  0
  -23.7669  -37.6632   23.6516 H   0  0  0  0  0  0  0  0  0  0  0  0
  -25.9445  -31.6237   20.5691 H   0  0  0  0  0  0  0  0  0  0  0  0
  -26.7436  -31.0079   22.0108 H   0  0  0  0  0  0  0  0  0  0  0  0
  -28.0090  -29.1452   21.2057 H   0  0  0  0  0  0  0  0  0  0  0  0
  -26.1369  -26.0560   19.0719 H   0  0  0  0  0  0  0  0  0  0  0  0
  -24.0652  -27.2961   19.0997 H   0  0  0  0  0  0  0  0  0  0  0  0
  -23.6156  -30.5365   19.3930 H   0  0  0  0  0  0  0  0  0  0  0  0
  -22.7355  -29.1425   19.9945 H   0  0  0  0  0  0  0  0  0  0  0  0
  -25.1353  -36.2335   25.0565 H   0  0  0  0  0  0  0  0  0  0  0  0
  -21.0070  -28.3206   24.0793 H   0  0  0  0  0  0  0  0  0  0  0  0
  -20.5555  -26.2518   23.3550 H   0  0  0  0  0  0  0  0  0  0  0  0
  -21.5974  -26.8362   22.0454 H   0  0  0  0  0  0  0  0  0  0  0  0
  -19.6810  -25.6422   21.1488 H   0  0  0  0  0  0  0  0  0  0  0  0
  -19.6406  -27.3343   20.7034 H   0  0  0  0  0  0  0  0  0  0  0  0
  -17.4282  -26.6888   21.4113 H   0  0  0  0  0  0  0  0  0  0  0  0
  -18.0803  -26.0130   22.9049 H   0  0  0  0  0  0  0  0  0  0  0  0
  -19.7265  -30.6774   24.2204 H   0  0  0  0  0  0  0  0  0  0  0  0
  -17.5064  -31.5856   24.4483 H   0  0  0  0  0  0  0  0  0  0  0  0
  -15.5878  -30.2839   23.7407 H   0  0  0  0  0  0  0  0  0  0  0  0
  -15.9120  -28.0941   22.7766 H   0  0  0  0  0  0  0  0  0  0  0  0
  -24.5787  -30.7757   25.6817 H   0  0  0  0  0  0  0  0  0  0  0  0
  -25.0041  -32.2289   26.5536 H   0  0  0  0  0  0  0  0  0  0  0  0
  -25.8166  -30.7245   26.9138 H   0  0  0  0  0  0  0  0  0  0  0  0
  -26.2892  -29.7335   24.0803 H   0  0  0  0  0  0  0  0  0  0  0  0
  -27.4336  -29.7484   25.4006 H   0  0  0  0  0  0  0  0  0  0  0  0
  -27.8466  -30.4994   23.8779 H   0  0  0  0  0  0  0  0  0  0  0  0
  -27.2251  -33.3632   26.1242 H   0  0  0  0  0  0  0  0  0  0  0  0
  -28.3902  -32.6065   25.0645 H   0  0  0  0  0  0  0  0  0  0  0  0
  -27.9772  -31.8555   26.5872 H   0  0  0  0  0  0  0  0  0  0  0  0
  -28.2744  -38.0016   24.6863 H   0  0  0  0  0  0  0  0  0  0  0  0
  -28.0396  -36.2711   24.7461 H   0  0  0  0  0  0  0  0  0  0  0  0
  -27.1773  -37.3087   25.8564 H   0  0  0  0  0  0  0  0  0  0  0  0
  -20.9627  -29.9365   21.7352 H   0  0  0  0  0  0  0  0  0  0  0  0
  -26.0447  -38.2561   24.0273 H   0  0  0  0  0  0  0  0  0  0  0  0
  -29.8087  -20.6847   20.3091 H   0  0  0  0  0  0  0  0  0  0  0  0
  -31.9290  -22.4191   17.1208 H   0  0  0  0  0  0  0  0  0  0  0  0
  -30.8514  -17.4875   20.0420 H   0  0  0  0  0  0  0  0  0  0  0  0
  -27.9150  -18.2993   19.8740 H   0  0  0  0  0  0  0  0  0  0  0  0
  -28.7964  -22.7996   20.3507 H   0  0  0  0  0  0  0  0  0  0  0  0
  -30.2651  -22.7572   21.3023 H   0  0  0  0  0  0  0  0  0  0  0  0
  -29.3943  -25.4662   22.8043 H   0  0  0  0  0  0  0  0  0  0  0  0
  -28.1914  -24.5328   22.5613 H   0  0  0  0  0  0  0  0  0  0  0  0
  -31.2764  -17.1025   17.9004 H   0  0  0  0  0  0  0  0  0  0  0  0
  -32.9606  -21.0027   15.4738 H   0  0  0  0  0  0  0  0  0  0  0  0
  -32.8509  -19.3037   15.5702 H   0  0  0  0  0  0  0  0  0  0  0  0
  -30.8860  -23.7611   18.7827 H   0  0  0  0  0  0  0  0  0  0  0  0
  1 25  1  0
  1 30  2  0
  1 78  1  0
  2  3  1  0
  2 25  1  0
  2 88  1  0
  2 89  1  0
  3  4  1  0
  3 90  1  0
  3 91  1  0
  4  5  1  0
  4 92  1  0
  4 93  1  0
  5  6  1  0
  5 26  1  0
  5 94  1  6
  6 25  1  0
  6 95  1  0
  6 96  1  0
  7  8  2  0
  7 26  1  0
  7 29  1  0
  8  9  1  0
  8 22  1  0
  9 10  1  0
  9 27  2  0
 10 11  2  0
 10 15  1  0
 11 12  1  0
 11 97  1  0
 12 13  2  0
 12 98  1  0
 13 14  1  0
 13 31  1  0
 14 15  2  0
 14 99  1  0
 15100  1  0
 16 17  2  0
 16 21  1  0
 16 31  1  0
 17 18  1  0
 17101  1  0
 18 19  2  0
 18102  1  0
 19 20  1  0
 19 24  1  0
 20 21  2  0
 20103  1  0
 21 23  1  0
 22 28  1  0
 22 32  2  0
 26 27  1  0
 28104  1  0
 28105  1  0
 29106  1  0
 29107  1  0
 33 34  1  0
 33 66  1  0
 33 70  2  0
 34 36  1  0
 34 59  1  0
 34108  1  6
 35 44  2  0
 35 45  1  0
 35 68  1  0
 36 56  1  0
 36109  1  0
 37 39  1  0
 37 47  1  0
 37 66  1  0
 37110  1  6
 38 43  2  0
 38 46  1  0
 38 47  1  0
 39 64  1  0
 39 67  2  0
 40 52  1  0
 40 53  2  0
 40 58  1  0
 41111  1  0
 41112  1  0
 41113  1  0
 42 43  1  0
 42 66  1  0
 42114  1  0
 42115  1  0
 43 44  1  0
 44116  1  0
 45 46  2  0
 45117  1  0
 46118  1  0
 47119  1  0
 47120  1  0
 48 41  1  0
 48 56  1  0
 48 65  1  0
 48121  1  1
 49 50  1  0
 49 53  1  0
 49 64  1  0
 49122  1  1
 50 51  1  0
 50123  1  0
 50124  1  0
 51 52  1  0
 51125  1  0
 51126  1  0
 52127  1  0
 52128  1  0
 53 54  1  0
 54 55  2  0
 54129  1  0
 55 57  1  0
 55130  1  0
 56 69  2  0
 57 58  2  0
 57131  1  0
 58132  1  0
 59 60  1  0
 59 61  1  0
 59 62  1  0
 60133  1  0
 60134  1  0
 60135  1  0
 61136  1  0
 61137  1  0
 61138  1  0
 62139  1  0
 62140  1  0
 62141  1  0
 63 65  1  0
 63142  1  0
 63143  1  0
 63144  1  0
 64145  1  0
 65146  1  0
 68 81  1  0
 71 73  2  0
 71 75  1  0
 71147  1  0
 72 75  2  0
 72 76  1  0
 72148  1  0
 73 74  1  0
 73 77  1  0
 74 76  2  0
 74 82  1  0
 75 84  1  0
 76 83  1  0
 77 78  2  0
 77149  1  0
 78150  1  0
 79 80  1  0
 79 81  1  0
 79 85  2  0
 80 84  1  0
 80151  1  0
 80152  1  0
 81153  1  0
 81154  1  0
 82 86  1  0
 82 87  1  0
 82155  1  0
 83156  1  0
 83157  1  0
 84158  1  0
M  ISO  4   1 100  68 101  78 100  81 101
M  END
$$$$
60
     RDKit          3D

155163  0  0  0  0  0  0  0  0999 V2000
  -30.7652  -14.3608   20.6636 C   0  0  0  0  0  0  0  0  0100  0  0
  -30.4392  -12.2669   19.3775 C   0  0  0  0  0  0  0  0  0101  0  0
  -29.4791  -12.5281   18.1977 C   0  0  0  0  0  0  0  0  0102  0  0
  -27.9985  -12.3963   18.6038 C   0  0  0  0  0  0  0  0  0103  0  0
  -27.6639  -13.2170   19.8820 C   0  0  2  0  0  0  0  0  0104  0  0
  -28.6795  -12.9602   21.0279 C   0  0  0  0  0  0  0  0  0105  0  0
  -25.2633  -13.8245   20.5754 C   0  0  0  0  0  0  0  0  0106  0  0
  -24.1645  -13.0409   20.9408 C   0  0  0  0  0  0  0  0  0107  0  0
  -24.6400  -11.7009   20.8697 C   0  0  0  0  0  0  0  0  0108  0  0
  -23.9005  -10.4085   21.0420 C   0  0  0  0  0  0  0  0  0109  0  0
  -24.3588   -9.4123   21.9123 C   0  0  0  0  0  0  0  0  0110  0  0
  -23.6296   -8.2350   22.0803 C   0  0  0  0  0  0  0  0  0111  0  0
  -22.4385   -8.0419   21.3657 C   0  0  0  0  0  0  0  0  0112  0  0
  -22.0103   -9.0167   20.4678 C   0  0  0  0  0  0  0  0  0113  0  0
  -22.7317  -10.1925   20.3102 C   0  0  0  0  0  0  0  0  0114  0  0
  -21.6857   -6.0709   22.5391 C   0  0  0  0  0  0  0  0  0115  0  0
  -21.4064   -6.5490   23.8264 C   0  0  0  0  0  0  0  0  0116  0  0
  -21.3635   -5.6677   24.9085 C   0  0  0  0  0  0  0  0  0117  0  0
  -21.5973   -4.3067   24.7088 C   0  0  0  0  0  0  0  0  0118  0  0
  -21.8700   -3.8284   23.4282 C   0  0  0  0  0  0  0  0  0119  0  0
  -21.9144   -4.7056   22.3460 C   0  0  0  0  0  0  0  0  0120  0  0
  -22.8194  -13.5263   21.1763 C   0  0  0  0  0  0  0  0  0121  0  0
  -22.1559   -4.2206   21.1063 F   0  0  0  0  0  0  0  0  0122  0  0
  -21.5628   -3.4510   25.7555 F   0  0  0  0  0  0  0  0  0123  0  0
  -30.0261  -13.1803   20.4553 N   0  0  0  0  0  0  0  0  0124  0  0
  -26.2911  -12.9356   20.3443 N   0  0  0  0  0  0  0  0  0125  0  0
  -25.9236  -11.6675   20.5847 N   0  0  0  0  0  0  0  0  0126  0  0
  -22.0708  -12.7905   22.0005 N   0  0  0  0  0  0  0  0  0127  0  0
  -25.4117  -15.1773   20.4097 N   0  0  0  0  0  0  0  0  0128  0  0
  -31.7916  -14.6724   20.0536 O   0  0  0  0  0  0  0  0  0129  0  0
  -21.6670   -6.9022   21.4423 O   0  0  0  0  0  0  0  0  0130  0  0
  -22.3946  -14.5564   20.6568 O   0  0  0  0  0  0  0  0  0131  0  0
  -24.6048  -31.8614   23.2223 C   0  0  0  0  0  0  0  0  0100  0  0
  -25.8822  -32.4841   23.8616 C   0  0  1  0  0  0  0  0  0101  0  0
  -27.2536  -27.5042   20.1156 C   0  0  0  0  0  0  0  0  0102  0  0
  -25.5726  -33.8762   24.2210 N   0  0  0  0  0  0  0  0  0103  0  0
  -23.4066  -30.4859   21.5461 C   0  0  2  0  0  0  0  0  0104  0  0
  -24.8467  -28.9636   20.1247 C   0  0  0  0  0  0  0  0  0105  0  0
  -22.7412  -29.4652   22.5052 C   0  0  0  0  0  0  0  0  0106  0  0
  -18.0167  -28.1302   22.8626 C   0  0  0  0  0  0  0  0  0107  0  0
  -24.1342  -36.7390   23.2568 C   0  0  0  0  0  0  0  0  0108  0  0
  -25.9141  -30.8882   21.3456 C   0  0  0  0  0  0  0  0  0109  0  0
  -25.9930  -29.5029   20.7208 C   0  0  0  0  0  0  0  0  0110  0  0
  -27.1758  -28.7612   20.7331 C   0  0  0  0  0  0  0  0  0111  0  0
  -26.1032  -26.9836   19.5230 C   0  0  0  0  0  0  0  0  0112  0  0
  -24.9097  -27.7011   19.5331 C   0  0  0  0  0  0  0  0  0113  0  0
  -23.5715  -29.7899   20.1582 C   0  0  0  0  0  0  0  0  0114  0  0
  -25.3990  -36.3212   24.0232 C   0  0  1  0  0  0  0  0  0115  0  0
  -20.5793  -28.3813   23.1004 C   0  0  2  0  0  0  0  0  0116  0  0
  -20.6548  -26.9392   22.5411 C   0  0  0  0  0  0  0  0  0117  0  0
  -19.5615  -26.6407   21.5143 C   0  0  0  0  0  0  0  0  0118  0  0
  -18.1797  -26.7818   22.1673 C   0  0  0  0  0  0  0  0  0119  0  0
  -19.1385  -28.8769   23.2988 C   0  0  0  0  0  0  0  0  0120  0  0
  -18.9183  -30.1286   23.8878 C   0  0  0  0  0  0  0  0  0121  0  0
  -17.6396  -30.6493   24.0352 C   0  0  0  0  0  0  0  0  0122  0  0
  -25.9153  -34.9582   23.4993 C   0  0  0  0  0  0  0  0  0123  0  0
  -16.5415  -29.9068   23.6254 C   0  0  0  0  0  0  0  0  0124  0  0
  -16.7331  -28.6521   23.0586 C   0  0  0  0  0  0  0  0  0125  0  0
  -26.4583  -31.6439   25.0683 C   0  0  0  0  0  0  0  0  0126  0  0
  -25.3807  -31.3179   26.1374 C   0  0  0  0  0  0  0  0  0127  0  0
  -27.0530  -30.3024   24.5680 C   0  0  0  0  0  0  0  0  0128  0  0
  -27.6014  -32.4281   25.7651 C   0  0  0  0  0  0  0  0  0129  0  0
  -27.5629  -37.2220   24.8621 C   0  0  0  0  0  0  0  0  0130  0  0
  -21.4133  -29.3375   22.3735 N   0  0  0  0  0  0  0  0  0131  0  0
  -26.4706  -37.3372   23.9061 N   0  0  0  0  0  0  0  0  0132  0  0
  -24.6674  -31.0544   22.1178 N   0  0  0  0  0  0  0  0  0133  0  0
  -23.4259  -28.8150   23.2971 O   0  0  0  0  0  0  0  0  0134  0  0
  -28.3948  -26.7345   20.0089 O   0  0  0  0  0  0  0  0  0135  0  0
  -26.5870  -34.9065   22.4671 O   0  0  0  0  0  0  0  0  0136  0  0
  -23.5365  -32.1254   23.7833 O   0  0  0  0  0  0  0  0  0137  0  0
  -24.3220  -15.5437   21.3328 C   0  0  0  0  0  0  0  0  0  0  0  0
  -25.3838  -13.4925   20.6242 C   0  0  0  0  0  0  0  0  0  0  0  0
  -25.4262  -14.8751   20.8043 C   0  0  0  0  0  0  0  0  0  0  0  0
  -23.1754  -14.8297   21.6812 C   0  0  0  0  0  0  0  0  0  0  0  0
  -23.1331  -13.4472   21.5012 C   0  0  0  0  0  0  0  0  0  0  0  0
  -24.2373  -12.7786   20.9727 C   0  0  0  0  0  0  0  0  0  0  0  0
  -20.7352  -17.3397   22.9988 C   0  0  0  0  0  0  0  0  0  0  0  0
  -20.5003  -18.8052   23.3083 C   0  0  0  0  0  0  0  0  0  0  0  0
  -22.0667  -16.9404   22.4170 C   0  0  0  0  0  0  0  0  0  0  0  0
  -21.6104  -19.7846   23.0225 C   0  0  0  0  0  0  0  0  0  1  0  0
  -21.9801  -12.7075   21.8477 N   0  0  0  0  0  0  0  0  0  0  0  0
  -26.5913  -15.5999   20.4509 N   0  0  0  0  0  0  0  0  0  0  0  0
  -22.0892  -15.5141   22.2051 N   0  0  0  0  0  0  0  0  0  0  0  0
  -19.8183  -16.5653   23.2425 O   0  0  0  0  0  0  0  0  0  0  0  0
  -19.4135  -19.1151   23.7794 O   0  0  0  0  0  0  0  0  0  0  0  0
  -24.2078  -11.4500   20.7950 F   0  0  0  0  0  0  0  0  0  0  0  0
  -31.4485  -12.4701   19.0860 H   0  0  0  0  0  0  0  0  0  0  0  0
  -30.3970  -11.2460   19.6950 H   0  0  0  0  0  0  0  0  0  0  0  0
  -29.6870  -11.8204   17.4226 H   0  0  0  0  0  0  0  0  0  0  0  0
  -29.6375  -13.5326   17.8649 H   0  0  0  0  0  0  0  0  0  0  0  0
  -27.7830  -11.3650   18.7904 H   0  0  0  0  0  0  0  0  0  0  0  0
  -27.4028  -12.7801   17.8021 H   0  0  0  0  0  0  0  0  0  0  0  0
  -27.7353  -14.2503   19.6136 H   0  0  0  0  0  0  0  0  0  0  0  0
  -28.5890  -11.9550   21.3832 H   0  0  0  0  0  0  0  0  0  0  0  0
  -28.5005  -13.6134   21.8562 H   0  0  0  0  0  0  0  0  0  0  0  0
  -25.2399   -9.5495   22.4318 H   0  0  0  0  0  0  0  0  0  0  0  0
  -23.9663   -7.5070   22.7297 H   0  0  0  0  0  0  0  0  0  0  0  0
  -21.1515   -8.8641   19.9162 H   0  0  0  0  0  0  0  0  0  0  0  0
  -22.4016  -10.9115   19.6476 H   0  0  0  0  0  0  0  0  0  0  0  0
  -21.2319   -7.5552   23.9750 H   0  0  0  0  0  0  0  0  0  0  0  0
  -21.1589   -6.0228   25.8556 H   0  0  0  0  0  0  0  0  0  0  0  0
  -22.0396   -2.8212   23.2809 H   0  0  0  0  0  0  0  0  0  0  0  0
  -22.4401  -11.9703   22.4008 H   0  0  0  0  0  0  0  0  0  0  0  0
  -21.1493  -13.0679   22.2082 H   0  0  0  0  0  0  0  0  0  0  0  0
  -24.6538  -15.7807   20.5848 H   0  0  0  0  0  0  0  0  0  0  0  0
  -26.2762  -15.5453   20.1156 H   0  0  0  0  0  0  0  0  0  0  0  0
  -26.6778  -32.4663   23.1464 H   0  0  0  0  0  0  0  0  0  0  0  0
  -25.0747  -34.0282   25.0566 H   0  0  0  0  0  0  0  0  0  0  0  0
  -22.7881  -31.3489   21.4131 H   0  0  0  0  0  0  0  0  0  0  0  0
  -23.3854  -35.9823   23.3648 H   0  0  0  0  0  0  0  0  0  0  0  0
  -24.3696  -36.8624   22.2204 H   0  0  0  0  0  0  0  0  0  0  0  0
  -23.7669  -37.6632   23.6516 H   0  0  0  0  0  0  0  0  0  0  0  0
  -25.9445  -31.6237   20.5691 H   0  0  0  0  0  0  0  0  0  0  0  0
  -26.7436  -31.0079   22.0108 H   0  0  0  0  0  0  0  0  0  0  0  0
  -28.0090  -29.1452   21.2057 H   0  0  0  0  0  0  0  0  0  0  0  0
  -26.1369  -26.0560   19.0719 H   0  0  0  0  0  0  0  0  0  0  0  0
  -24.0652  -27.2961   19.0997 H   0  0  0  0  0  0  0  0  0  0  0  0
  -23.6156  -30.5365   19.3930 H   0  0  0  0  0  0  0  0  0  0  0  0
  -22.7355  -29.1425   19.9945 H   0  0  0  0  0  0  0  0  0  0  0  0
  -25.1353  -36.2335   25.0565 H   0  0  0  0  0  0  0  0  0  0  0  0
  -21.0070  -28.3206   24.0793 H   0  0  0  0  0  0  0  0  0  0  0  0
  -20.5555  -26.2518   23.3550 H   0  0  0  0  0  0  0  0  0  0  0  0
  -21.5974  -26.8362   22.0454 H   0  0  0  0  0  0  0  0  0  0  0  0
  -19.6810  -25.6422   21.1488 H   0  0  0  0  0  0  0  0  0  0  0  0
  -19.6406  -27.3343   20.7034 H   0  0  0  0  0  0  0  0  0  0  0  0
  -17.4282  -26.6888   21.4113 H   0  0  0  0  0  0  0  0  0  0  0  0
  -18.0803  -26.0130   22.9049 H   0  0  0  0  0  0  0  0  0  0  0  0
  -19.7265  -30.6774   24.2204 H   0  0  0  0  0  0  0  0  0  0  0  0
  -17.5064  -31.5856   24.4483 H   0  0  0  0  0  0  0  0  0  0  0  0
  -15.5878  -30.2839   23.7407 H   0  0  0  0  0  0  0  0  0  0  0  0
  -15.9120  -28.0941   22.7766 H   0  0  0  0  0  0  0  0  0  0  0  0
  -24.5787  -30.7757   25.6817 H   0  0  0  0  0  0  0  0  0  0  0  0
  -25.0041  -32.2289   26.5536 H   0  0  0  0  0  0  0  0  0  0  0  0
  -25.8166  -30.7245   26.9138 H   0  0  0  0  0  0  0  0  0  0  0  0
  -26.2892  -29.7335   24.0803 H   0  0  0  0  0  0  0  0  0  0  0  0
  -27.4336  -29.7484   25.4006 H   0  0  0  0  0  0  0  0  0  0  0  0
  -27.8466  -30.4994   23.8779 H   0  0  0  0  0  0  0  0  0  0  0  0
  -27.2251  -33.3632   26.1242 H   0  0  0  0  0  0  0  0  0  0  0  0
  -28.3902  -32.6065   25.0645 H   0  0  0  0  0  0  0  0  0  0  0  0
  -27.9772  -31.8555   26.5872 H   0  0  0  0  0  0  0  0  0  0  0  0
  -28.2744  -38.0016   24.6863 H   0  0  0  0  0  0  0  0  0  0  0  0
  -28.0396  -36.2711   24.7461 H   0  0  0  0  0  0  0  0  0  0  0  0
  -27.1773  -37.3087   25.8564 H   0  0  0  0  0  0  0  0  0  0  0  0
  -20.9627  -29.9365   21.7352 H   0  0  0  0  0  0  0  0  0  0  0  0
  -26.0447  -38.2561   24.0273 H   0  0  0  0  0  0  0  0  0  0  0  0
  -24.3533  -16.5666   21.4661 H   0  0  0  0  0  0  0  0  0  0  0  0
  -26.2007  -12.9978   20.2331 H   0  0  0  0  0  0  0  0  0  0  0  0
  -22.8485  -17.2129   23.0949 H   0  0  0  0  0  0  0  0  0  0  0  0
  -22.2136  -17.4425   21.4836 H   0  0  0  0  0  0  0  0  0  0  0  0
  -22.3535  -19.0156   23.0593 H   0  0  0  0  0  0  0  0  0  0  0  0
  -20.8910  -20.5723   23.1058 H   0  0  0  0  0  0  0  0  0  0  0  0
  -21.1941  -13.1675   22.2216 H   0  0  0  0  0  0  0  0  0  0  0  0
  -21.9628  -11.7321   21.7152 H   0  0  0  0  0  0  0  0  0  0  0  0
  -26.4366  -16.5103   20.1097 H   0  0  0  0  0  0  0  0  0  0  0  0
  -21.2872  -14.9965   22.4463 H   0  0  0  0  0  0  0  0  0  0  0  0
  1 25  1  0
  1 30  2  0
  1 82  1  0
  2  3  1  0
  2 25  1  0
  2 87  1  0
  2 88  1  0
  3  4  1  0
  3 89  1  0
  3 90  1  0
  4  5  1  0
  4 91  1  0
  4 92  1  0
  5  6  1  0
  5 26  1  0
  5 93  1  6
  6 25  1  0
  6 94  1  0
  6 95  1  0
  7  8  2  0
  7 26  1  0
  7 29  1  0
  8  9  1  0
  8 22  1  0
  9 10  1  0
  9 27  2  0
 10 11  2  0
 10 15  1  0
 11 12  1  0
 11 96  1  0
 12 13  2  0
 12 97  1  0
 13 14  1  0
 13 31  1  0
 14 15  2  0
 14 98  1  0
 15 99  1  0
 16 17  2  0
 16 21  1  0
 16 31  1  0
 17 18  1  0
 17100  1  0
 18 19  2  0
 18101  1  0
 19 20  1  0
 19 24  1  0
 20 21  2  0
 20102  1  0
 21 23  1  0
 22 28  1  0
 22 32  2  0
 26 27  1  0
 28103  1  0
 28104  1  0
 29105  1  0
 29106  1  0
 33 34  1  0
 33 66  1  0
 33 70  2  0
 34 36  1  0
 34 59  1  0
 34107  1  6
 35 44  2  0
 35 45  1  0
 35 68  1  0
 36 56  1  0
 36108  1  0
 37 39  1  0
 37 47  1  0
 37 66  1  0
 37109  1  6
 38 43  2  0
 38 46  1  0
 38 47  1  0
 39 64  1  0
 39 67  2  0
 40 52  1  0
 40 53  2  0
 40 58  1  0
 41110  1  0
 41111  1  0
 41112  1  0
 42 43  1  0
 42 66  1  0
 42113  1  0
 42114  1  0
 43 44  1  0
 44115  1  0
 45 46  2  0
 45116  1  0
 46117  1  0
 47118  1  0
 47119  1  0
 48 41  1  0
 48 56  1  0
 48 65  1  0
 48120  1  1
 49 50  1  0
 49 53  1  0
 49 64  1  0
 49121  1  1
 50 51  1  0
 50122  1  0
 50123  1  0
 51 52  1  0
 51124  1  0
 51125  1  0
 52126  1  0
 52127  1  0
 53 54  1  0
 54 55  2  0
 54128  1  0
 55 57  1  0
 55129  1  0
 56 69  2  0
 57 58  2  0
 57130  1  0
 58131  1  0
 59 60  1  0
 59 61  1  0
 59 62  1  0
 60132  1  0
 60133  1  0
 60134  1  0
 61135  1  0
 61136  1  0
 61137  1  0
 62138  1  0
 62139  1  0
 62140  1  0
 63 65  1  0
 63141  1  0
 63142  1  0
 63143  1  0
 64144  1  0
 65145  1  0
 68 80  1  0
 71 73  2  0
 71 74  1  0
 71146  1  0
 72 73  1  0
 72 76  2  0
 72147  1  0
 73 82  1  0
 74 75  2  0
 74 83  1  0
 75 76  1  0
 75 81  1  0
 76 86  1  0
 77 78  1  0
 77 79  1  0
 77 84  2  0
 78 80  1  0
 78 85  2  0
 79 83  1  0
 79148  1  0
 79149  1  0
 80150  1  0
 80151  1  0
 81152  1  0
 81153  1  0
 82154  1  0
 83155  1  0
M  ISO  4   1 100  68 101  80 101  82 100
M  END
$$$$
61
     RDKit          3D

166174  0  0  0  0  0  0  0  0999 V2000
  -30.7652  -14.3608   20.6636 C   0  0  0  0  0  0  0  0  0100  0  0
  -30.4392  -12.2669   19.3775 C   0  0  0  0  0  0  0  0  0101  0  0
  -29.4791  -12.5281   18.1977 C   0  0  0  0  0  0  0  0  0102  0  0
  -27.9985  -12.3963   18.6038 C   0  0  0  0  0  0  0  0  0103  0  0
  -27.6639  -13.2170   19.8820 C   0  0  2  0  0  0  0  0  0104  0  0
  -28.6795  -12.9602   21.0279 C   0  0  0  0  0  0  0  0  0105  0  0
  -25.2633  -13.8245   20.5754 C   0  0  0  0  0  0  0  0  0106  0  0
  -24.1645  -13.0409   20.9408 C   0  0  0  0  0  0  0  0  0107  0  0
  -24.6400  -11.7009   20.8697 C   0  0  0  0  0  0  0  0  0108  0  0
  -23.9005  -10.4085   21.0420 C   0  0  0  0  0  0  0  0  0109  0  0
  -24.3588   -9.4123   21.9123 C   0  0  0  0  0  0  0  0  0110  0  0
  -23.6296   -8.2350   22.0803 C   0  0  0  0  0  0  0  0  0111  0  0
  -22.4385   -8.0419   21.3657 C   0  0  0  0  0  0  0  0  0112  0  0
  -22.0103   -9.0167   20.4678 C   0  0  0  0  0  0  0  0  0113  0  0
  -22.7317  -10.1925   20.3102 C   0  0  0  0  0  0  0  0  0114  0  0
  -21.6857   -6.0709   22.5391 C   0  0  0  0  0  0  0  0  0115  0  0
  -21.4064   -6.5490   23.8264 C   0  0  0  0  0  0  0  0  0116  0  0
  -21.3635   -5.6677   24.9085 C   0  0  0  0  0  0  0  0  0117  0  0
  -21.5973   -4.3067   24.7088 C   0  0  0  0  0  0  0  0  0118  0  0
  -21.8700   -3.8284   23.4282 C   0  0  0  0  0  0  0  0  0119  0  0
  -21.9144   -4.7056   22.3460 C   0  0  0  0  0  0  0  0  0120  0  0
  -22.8194  -13.5263   21.1763 C   0  0  0  0  0  0  0  0  0121  0  0
  -22.1559   -4.2206   21.1063 F   0  0  0  0  0  0  0  0  0122  0  0
  -21.5628   -3.4510   25.7555 F   0  0  0  0  0  0  0  0  0123  0  0
  -30.0261  -13.1803   20.4553 N   0  0  0  0  0  0  0  0  0124  0  0
  -26.2911  -12.9356   20.3443 N   0  0  0  0  0  0  0  0  0125  0  0
  -25.9236  -11.6675   20.5847 N   0  0  0  0  0  0  0  0  0126  0  0
  -22.0708  -12.7905   22.0005 N   0  0  0  0  0  0  0  0  0127  0  0
  -25.4117  -15.1773   20.4097 N   0  0  0  0  0  0  0  0  0128  0  0
  -31.7916  -14.6724   20.0536 O   0  0  0  0  0  0  0  0  0129  0  0
  -21.6670   -6.9022   21.4423 O   0  0  0  0  0  0  0  0  0130  0  0
  -22.3946  -14.5564   20.6568 O   0  0  0  0  0  0  0  0  0131  0  0
  -24.6048  -31.8614   23.2223 C   0  0  0  0  0  0  0  0  0100  0  0
  -25.8822  -32.4841   23.8616 C   0  0  1  0  0  0  0  0  0101  0  0
  -27.2536  -27.5042   20.1156 C   0  0  0  0  0  0  0  0  0102  0  0
  -25.5726  -33.8762   24.2210 N   0  0  0  0  0  0  0  0  0103  0  0
  -23.4066  -30.4859   21.5461 C   0  0  2  0  0  0  0  0  0104  0  0
  -24.8467  -28.9636   20.1247 C   0  0  0  0  0  0  0  0  0105  0  0
  -22.7412  -29.4652   22.5052 C   0  0  0  0  0  0  0  0  0106  0  0
  -18.0167  -28.1302   22.8626 C   0  0  0  0  0  0  0  0  0107  0  0
  -24.1342  -36.7390   23.2568 C   0  0  0  0  0  0  0  0  0108  0  0
  -25.9141  -30.8882   21.3456 C   0  0  0  0  0  0  0  0  0109  0  0
  -25.9930  -29.5029   20.7208 C   0  0  0  0  0  0  0  0  0110  0  0
  -27.1758  -28.7612   20.7331 C   0  0  0  0  0  0  0  0  0111  0  0
  -26.1032  -26.9836   19.5230 C   0  0  0  0  0  0  0  0  0112  0  0
  -24.9097  -27.7011   19.5331 C   0  0  0  0  0  0  0  0  0113  0  0
  -23.5715  -29.7899   20.1582 C   0  0  0  0  0  0  0  0  0114  0  0
  -25.3990  -36.3212   24.0232 C   0  0  1  0  0  0  0  0  0115  0  0
  -20.5793  -28.3813   23.1004 C   0  0  2  0  0  0  0  0  0116  0  0
  -20.6548  -26.9392   22.5411 C   0  0  0  0  0  0  0  0  0117  0  0
  -19.5615  -26.6407   21.5143 C   0  0  0  0  0  0  0  0  0118  0  0
  -18.1797  -26.7818   22.1673 C   0  0  0  0  0  0  0  0  0119  0  0
  -19.1385  -28.8769   23.2988 C   0  0  0  0  0  0  0  0  0120  0  0
  -18.9183  -30.1286   23.8878 C   0  0  0  0  0  0  0  0  0121  0  0
  -17.6396  -30.6493   24.0352 C   0  0  0  0  0  0  0  0  0122  0  0
  -25.9153  -34.9582   23.4993 C   0  0  0  0  0  0  0  0  0123  0  0
  -16.5415  -29.9068   23.6254 C   0  0  0  0  0  0  0  0  0124  0  0
  -16.7331  -28.6521   23.0586 C   0  0  0  0  0  0  0  0  0125  0  0
  -26.4583  -31.6439   25.0683 C   0  0  0  0  0  0  0  0  0126  0  0
  -25.3807  -31.3179   26.1374 C   0  0  0  0  0  0  0  0  0127  0  0
  -27.0530  -30.3024   24.5680 C   0  0  0  0  0  0  0  0  0128  0  0
  -27.6014  -32.4281   25.7651 C   0  0  0  0  0  0  0  0  0129  0  0
  -27.5629  -37.2220   24.8621 C   0  0  0  0  0  0  0  0  0130  0  0
  -21.4133  -29.3375   22.3735 N   0  0  0  0  0  0  0  0  0131  0  0
  -26.4706  -37.3372   23.9061 N   0  0  0  0  0  0  0  0  0132  0  0
  -24.6674  -31.0544   22.1178 N   0  0  0  0  0  0  0  0  0133  0  0
  -23.4259  -28.8150   23.2971 O   0  0  0  0  0  0  0  0  0134  0  0
  -28.3948  -26.7345   20.0089 O   0  0  0  0  0  0  0  0  0135  0  0
  -26.5870  -34.9065   22.4671 O   0  0  0  0  0  0  0  0  0136  0  0
  -23.5365  -32.1254   23.7833 O   0  0  0  0  0  0  0  0  0137  0  0
  -30.9413  -19.3863   20.2474 C   0  0  0  0  0  0  0  0  0  0  0  0
  -30.8251  -18.0054   20.4056 C   0  0  0  0  0  0  0  0  0  0  0  0
  -29.1631  -19.7194   21.8487 C   0  0  0  0  0  0  0  0  0  0  0  0
  -30.1103  -20.2434   20.9690 C   0  0  0  0  0  0  0  0  0  0  0  0
  -29.8779  -17.4814   21.2853 C   0  0  0  0  0  0  0  0  0  0  0  0
  -29.0469  -18.3384   22.0069 C   0  0  0  0  0  0  0  0  0  0  0  0
  -30.2321  -21.6832   20.8039 C   0  0  0  0  0  0  0  0  0  0  0  0
  -22.7290  -19.3226   26.4750 C   0  0  0  0  0  0  0  0  0  0  0  0
  -27.2110  -18.6726   23.6633 C   0  0  0  0  0  0  0  0  0  0  0  0
  -24.2821  -19.1065   24.4666 C   0  0  0  0  0  0  0  0  0  0  0  0
  -26.3039  -17.8159   24.5532 C   0  0  1  0  0  0  0  0  0  0  0  0
  -23.2996  -19.9953   25.2330 C   0  0  2  0  0  0  0  0  0  1  0  0
  -27.0859  -16.9647   25.5458 C   0  0  0  0  0  0  0  0  0  0  0  0
  -31.0905  -22.2424   20.0036 N   0  0  0  0  0  0  0  0  0  0  0  0
  -29.7791  -16.0754   21.4306 N   0  0  0  0  0  0  0  0  0  0  0  0
  -28.1000  -17.8400   22.8867 N   0  0  0  0  0  0  0  0  0  0  0  0
  -25.4073  -18.6929   25.2939 N   0  0  0  0  0  0  0  0  0  0  0  0
  -27.8990  -16.0948   24.9037 F   0  0  0  0  0  0  0  0  0  0  0  0
  -27.8707  -17.7283   26.3380 F   0  0  0  0  0  0  0  0  0  0  0  0
  -26.2680  -16.2487   26.3475 F   0  0  0  0  0  0  0  0  0  0  0  0
  -31.4485  -12.4701   19.0860 H   0  0  0  0  0  0  0  0  0  0  0  0
  -30.3970  -11.2460   19.6950 H   0  0  0  0  0  0  0  0  0  0  0  0
  -29.6870  -11.8204   17.4226 H   0  0  0  0  0  0  0  0  0  0  0  0
  -29.6375  -13.5326   17.8649 H   0  0  0  0  0  0  0  0  0  0  0  0
  -27.7830  -11.3650   18.7904 H   0  0  0  0  0  0  0  0  0  0  0  0
  -27.4028  -12.7801   17.8021 H   0  0  0  0  0  0  0  0  0  0  0  0
  -27.7353  -14.2503   19.6136 H   0  0  0  0  0  0  0  0  0  0  0  0
  -28.5890  -11.9550   21.3832 H   0  0  0  0  0  0  0  0  0  0  0  0
  -28.5005  -13.6134   21.8562 H   0  0  0  0  0  0  0  0  0  0  0  0
  -25.2399   -9.5495   22.4318 H   0  0  0  0  0  0  0  0  0  0  0  0
  -23.9663   -7.5070   22.7297 H   0  0  0  0  0  0  0  0  0  0  0  0
  -21.1515   -8.8641   19.9162 H   0  0  0  0  0  0  0  0  0  0  0  0
  -22.4016  -10.9115   19.6476 H   0  0  0  0  0  0  0  0  0  0  0  0
  -21.2319   -7.5552   23.9750 H   0  0  0  0  0  0  0  0  0  0  0  0
  -21.1589   -6.0228   25.8556 H   0  0  0  0  0  0  0  0  0  0  0  0
  -22.0396   -2.8212   23.2809 H   0  0  0  0  0  0  0  0  0  0  0  0
  -22.4401  -11.9703   22.4008 H   0  0  0  0  0  0  0  0  0  0  0  0
  -21.1493  -13.0679   22.2082 H   0  0  0  0  0  0  0  0  0  0  0  0
  -24.6538  -15.7807   20.5848 H   0  0  0  0  0  0  0  0  0  0  0  0
  -26.2762  -15.5453   20.1156 H   0  0  0  0  0  0  0  0  0  0  0  0
  -26.6778  -32.4663   23.1464 H   0  0  0  0  0  0  0  0  0  0  0  0
  -25.0747  -34.0282   25.0566 H   0  0  0  0  0  0  0  0  0  0  0  0
  -22.7881  -31.3489   21.4131 H   0  0  0  0  0  0  0  0  0  0  0  0
  -23.3854  -35.9823   23.3648 H   0  0  0  0  0  0  0  0  0  0  0  0
  -24.3696  -36.8624   22.2204 H   0  0  0  0  0  0  0  0  0  0  0  0
  -23.7669  -37.6632   23.6516 H   0  0  0  0  0  0  0  0  0  0  0  0
  -25.9445  -31.6237   20.5691 H   0  0  0  0  0  0  0  0  0  0  0  0
  -26.7436  -31.0079   22.0108 H   0  0  0  0  0  0  0  0  0  0  0  0
  -28.0090  -29.1452   21.2057 H   0  0  0  0  0  0  0  0  0  0  0  0
  -26.1369  -26.0560   19.0719 H   0  0  0  0  0  0  0  0  0  0  0  0
  -24.0652  -27.2961   19.0997 H   0  0  0  0  0  0  0  0  0  0  0  0
  -23.6156  -30.5365   19.3930 H   0  0  0  0  0  0  0  0  0  0  0  0
  -22.7355  -29.1425   19.9945 H   0  0  0  0  0  0  0  0  0  0  0  0
  -25.1353  -36.2335   25.0565 H   0  0  0  0  0  0  0  0  0  0  0  0
  -21.0070  -28.3206   24.0793 H   0  0  0  0  0  0  0  0  0  0  0  0
  -20.5555  -26.2518   23.3550 H   0  0  0  0  0  0  0  0  0  0  0  0
  -21.5974  -26.8362   22.0454 H   0  0  0  0  0  0  0  0  0  0  0  0
  -19.6810  -25.6422   21.1488 H   0  0  0  0  0  0  0  0  0  0  0  0
  -19.6406  -27.3343   20.7034 H   0  0  0  0  0  0  0  0  0  0  0  0
  -17.4282  -26.6888   21.4113 H   0  0  0  0  0  0  0  0  0  0  0  0
  -18.0803  -26.0130   22.9049 H   0  0  0  0  0  0  0  0  0  0  0  0
  -19.7265  -30.6774   24.2204 H   0  0  0  0  0  0  0  0  0  0  0  0
  -17.5064  -31.5856   24.4483 H   0  0  0  0  0  0  0  0  0  0  0  0
  -15.5878  -30.2839   23.7407 H   0  0  0  0  0  0  0  0  0  0  0  0
  -15.9120  -28.0941   22.7766 H   0  0  0  0  0  0  0  0  0  0  0  0
  -24.5787  -30.7757   25.6817 H   0  0  0  0  0  0  0  0  0  0  0  0
  -25.0041  -32.2289   26.5536 H   0  0  0  0  0  0  0  0  0  0  0  0
  -25.8166  -30.7245   26.9138 H   0  0  0  0  0  0  0  0  0  0  0  0
  -26.2892  -29.7335   24.0803 H   0  0  0  0  0  0  0  0  0  0  0  0
  -27.4336  -29.7484   25.4006 H   0  0  0  0  0  0  0  0  0  0  0  0
  -27.8466  -30.4994   23.8779 H   0  0  0  0  0  0  0  0  0  0  0  0
  -27.2251  -33.3632   26.1242 H   0  0  0  0  0  0  0  0  0  0  0  0
  -28.3902  -32.6065   25.0645 H   0  0  0  0  0  0  0  0  0  0  0  0
  -27.9772  -31.8555   26.5872 H   0  0  0  0  0  0  0  0  0  0  0  0
  -28.2744  -38.0016   24.6863 H   0  0  0  0  0  0  0  0  0  0  0  0
  -28.0396  -36.2711   24.7461 H   0  0  0  0  0  0  0  0  0  0  0  0
  -27.1773  -37.3087   25.8564 H   0  0  0  0  0  0  0  0  0  0  0  0
  -20.9627  -29.9365   21.7352 H   0  0  0  0  0  0  0  0  0  0  0  0
  -26.0447  -38.2561   24.0273 H   0  0  0  0  0  0  0  0  0  0  0  0
  -31.6421  -19.7739   19.5965 H   0  0  0  0  0  0  0  0  0  0  0  0
  -31.4399  -17.3713   19.8718 H   0  0  0  0  0  0  0  0  0  0  0  0
  -28.5483  -20.3535   22.3825 H   0  0  0  0  0  0  0  0  0  0  0  0
  -29.6042  -22.2929   21.3507 H   0  0  0  0  0  0  0  0  0  0  0  0
  -22.1613  -18.4629   26.1860 H   0  0  0  0  0  0  0  0  0  0  0  0
  -22.0950  -20.0108   26.9939 H   0  0  0  0  0  0  0  0  0  0  0  0
  -23.5300  -19.0216   27.1174 H   0  0  0  0  0  0  0  0  0  0  0  0
  -27.7916  -19.3264   24.2800 H   0  0  0  0  0  0  0  0  0  0  0  0
  -26.5988  -19.2396   22.9935 H   0  0  0  0  0  0  0  0  0  0  0  0
  -24.6550  -19.6509   23.6243 H   0  0  0  0  0  0  0  0  0  0  0  0
  -23.7583  -18.2257   24.1588 H   0  0  0  0  0  0  0  0  0  0  0  0
  -25.7631  -17.1504   23.9132 H   0  0  0  0  0  0  0  0  0  0  0  0
  -22.3492  -20.4141   25.4904 H   0  0  0  0  0  0  0  0  0  0  0  0
  -31.7017  -21.6848   19.4700 H   0  0  0  0  0  0  0  0  0  0  0  0
  -29.0596  -15.8277   22.0553 H   0  0  0  0  0  0  0  0  0  0  0  0
  -28.0289  -16.8633   22.9884 H   0  0  0  0  0  0  0  0  0  0  0  0
  -25.0551  -18.1961   26.1121 H   0  0  0  0  0  0  0  0  0  0  0  0
  1 25  1  0
  1 30  2  0
  1 85  1  0
  2  3  1  0
  2 25  1  0
  2 91  1  0
  2 92  1  0
  3  4  1  0
  3 93  1  0
  3 94  1  0
  4  5  1  0
  4 95  1  0
  4 96  1  0
  5  6  1  0
  5 26  1  0
  5 97  1  6
  6 25  1  0
  6 98  1  0
  6 99  1  0
  7  8  2  0
  7 26  1  0
  7 29  1  0
  8  9  1  0
  8 22  1  0
  9 10  1  0
  9 27  2  0
 10 11  2  0
 10 15  1  0
 11 12  1  0
 11100  1  0
 12 13  2  0
 12101  1  0
 13 14  1  0
 13 31  1  0
 14 15  2  0
 14102  1  0
 15103  1  0
 16 17  2  0
 16 21  1  0
 16 31  1  0
 17 18  1  0
 17104  1  0
 18 19  2  0
 18105  1  0
 19 20  1  0
 19 24  1  0
 20 21  2  0
 20106  1  0
 21 23  1  0
 22 28  1  0
 22 32  2  0
 26 27  1  0
 28107  1  0
 28108  1  0
 29109  1  0
 29110  1  0
 33 34  1  0
 33 66  1  0
 33 70  2  0
 34 36  1  0
 34 59  1  0
 34111  1  6
 35 44  2  0
 35 45  1  0
 35 68  1  0
 36 56  1  0
 36112  1  0
 37 39  1  0
 37 47  1  0
 37 66  1  0
 37113  1  6
 38 43  2  0
 38 46  1  0
 38 47  1  0
 39 64  1  0
 39 67  2  0
 40 52  1  0
 40 53  2  0
 40 58  1  0
 41114  1  0
 41115  1  0
 41116  1  0
 42 43  1  0
 42 66  1  0
 42117  1  0
 42118  1  0
 43 44  1  0
 44119  1  0
 45 46  2  0
 45120  1  0
 46121  1  0
 47122  1  0
 47123  1  0
 48 41  1  0
 48 56  1  0
 48 65  1  0
 48124  1  1
 49 50  1  0
 49 53  1  0
 49 64  1  0
 49125  1  1
 50 51  1  0
 50126  1  0
 50127  1  0
 51 52  1  0
 51128  1  0
 51129  1  0
 52130  1  0
 52131  1  0
 53 54  1  0
 54 55  2  0
 54132  1  0
 55 57  1  0
 55133  1  0
 56 69  2  0
 57 58  2  0
 57134  1  0
 58135  1  0
 59 60  1  0
 59 61  1  0
 59 62  1  0
 60136  1  0
 60137  1  0
 60138  1  0
 61139  1  0
 61140  1  0
 61141  1  0
 62142  1  0
 62143  1  0
 62144  1  0
 63 65  1  0
 63145  1  0
 63146  1  0
 63147  1  0
 64148  1  0
 65149  1  0
 68 82  1  0
 71 72  2  0
 71 74  1  0
 71150  1  0
 72 75  1  0
 72151  1  0
 73 74  2  0
 73 76  1  0
 73152  1  0
 74 77  1  0
 75 76  2  0
 75 85  1  0
 76 86  1  0
 77 84  2  0
 77153  1  0
 78154  1  0
 78155  1  0
 78156  1  0
 79 86  1  0
 79157  1  0
 79158  1  0
 80 82  1  0
 80 87  1  0
 80159  1  0
 80160  1  0
 81 79  1  0
 81 83  1  0
 81 87  1  0
 81161  1  6
 82 78  1  0
 82162  1  6
 83 88  1  0
 83 89  1  0
 83 90  1  0
 84163  1  0
 85164  1  0
 86165  1  0
 87166  1  0
M  ISO  4   1 100  68 101  82 101  85 100
M  END
$$$$
62
     RDKit          3D

161169  0  0  0  0  0  0  0  0999 V2000
  -30.7652  -14.3608   20.6636 C   0  0  0  0  0  0  0  0  0100  0  0
  -30.4392  -12.2669   19.3775 C   0  0  0  0  0  0  0  0  0101  0  0
  -29.4791  -12.5281   18.1977 C   0  0  0  0  0  0  0  0  0102  0  0
  -27.9985  -12.3963   18.6038 C   0  0  0  0  0  0  0  0  0103  0  0
  -27.6639  -13.2170   19.8820 C   0  0  2  0  0  0  0  0  0104  0  0
  -28.6795  -12.9602   21.0279 C   0  0  0  0  0  0  0  0  0105  0  0
  -25.2633  -13.8245   20.5754 C   0  0  0  0  0  0  0  0  0106  0  0
  -24.1645  -13.0409   20.9408 C   0  0  0  0  0  0  0  0  0107  0  0
  -24.6400  -11.7009   20.8697 C   0  0  0  0  0  0  0  0  0108  0  0
  -23.9005  -10.4085   21.0420 C   0  0  0  0  0  0  0  0  0109  0  0
  -24.3588   -9.4123   21.9123 C   0  0  0  0  0  0  0  0  0110  0  0
  -23.6296   -8.2350   22.0803 C   0  0  0  0  0  0  0  0  0111  0  0
  -22.4385   -8.0419   21.3657 C   0  0  0  0  0  0  0  0  0112  0  0
  -22.0103   -9.0167   20.4678 C   0  0  0  0  0  0  0  0  0113  0  0
  -22.7317  -10.1925   20.3102 C   0  0  0  0  0  0  0  0  0114  0  0
  -21.6857   -6.0709   22.5391 C   0  0  0  0  0  0  0  0  0115  0  0
  -21.4064   -6.5490   23.8264 C   0  0  0  0  0  0  0  0  0116  0  0
  -21.3635   -5.6677   24.9085 C   0  0  0  0  0  0  0  0  0117  0  0
  -21.5973   -4.3067   24.7088 C   0  0  0  0  0  0  0  0  0118  0  0
  -21.8700   -3.8284   23.4282 C   0  0  0  0  0  0  0  0  0119  0  0
  -21.9144   -4.7056   22.3460 C   0  0  0  0  0  0  0  0  0120  0  0
  -22.8194  -13.5263   21.1763 C   0  0  0  0  0  0  0  0  0121  0  0
  -22.1559   -4.2206   21.1063 F   0  0  0  0  0  0  0  0  0122  0  0
  -21.5628   -3.4510   25.7555 F   0  0  0  0  0  0  0  0  0123  0  0
  -30.0261  -13.1803   20.4553 N   0  0  0  0  0  0  0  0  0124  0  0
  -26.2911  -12.9356   20.3443 N   0  0  0  0  0  0  0  0  0125  0  0
  -25.9236  -11.6675   20.5847 N   0  0  0  0  0  0  0  0  0126  0  0
  -22.0708  -12.7905   22.0005 N   0  0  0  0  0  0  0  0  0127  0  0
  -25.4117  -15.1773   20.4097 N   0  0  0  0  0  0  0  0  0128  0  0
  -31.7916  -14.6724   20.0536 O   0  0  0  0  0  0  0  0  0129  0  0
  -21.6670   -6.9022   21.4423 O   0  0  0  0  0  0  0  0  0130  0  0
  -22.3946  -14.5564   20.6568 O   0  0  0  0  0  0  0  0  0131  0  0
  -24.6048  -31.8614   23.2223 C   0  0  0  0  0  0  0  0  0100  0  0
  -25.8822  -32.4841   23.8616 C   0  0  1  0  0  0  0  0  0101  0  0
  -27.2536  -27.5042   20.1156 C   0  0  0  0  0  0  0  0  0102  0  0
  -25.5726  -33.8762   24.2210 N   0  0  0  0  0  0  0  0  0103  0  0
  -23.4066  -30.4859   21.5461 C   0  0  2  0  0  0  0  0  0104  0  0
  -24.8467  -28.9636   20.1247 C   0  0  0  0  0  0  0  0  0105  0  0
  -22.7412  -29.4652   22.5052 C   0  0  0  0  0  0  0  0  0106  0  0
  -18.0167  -28.1302   22.8626 C   0  0  0  0  0  0  0  0  0107  0  0
  -24.1342  -36.7390   23.2568 C   0  0  0  0  0  0  0  0  0108  0  0
  -25.9141  -30.8882   21.3456 C   0  0  0  0  0  0  0  0  0109  0  0
  -25.9930  -29.5029   20.7208 C   0  0  0  0  0  0  0  0  0110  0  0
  -27.1758  -28.7612   20.7331 C   0  0  0  0  0  0  0  0  0111  0  0
  -26.1032  -26.9836   19.5230 C   0  0  0  0  0  0  0  0  0112  0  0
  -24.9097  -27.7011   19.5331 C   0  0  0  0  0  0  0  0  0113  0  0
  -23.5715  -29.7899   20.1582 C   0  0  0  0  0  0  0  0  0114  0  0
  -25.3990  -36.3212   24.0232 C   0  0  1  0  0  0  0  0  0115  0  0
  -20.5793  -28.3813   23.1004 C   0  0  2  0  0  0  0  0  0116  0  0
  -20.6548  -26.9392   22.5411 C   0  0  0  0  0  0  0  0  0117  0  0
  -19.5615  -26.6407   21.5143 C   0  0  0  0  0  0  0  0  0118  0  0
  -18.1797  -26.7818   22.1673 C   0  0  0  0  0  0  0  0  0119  0  0
  -19.1385  -28.8769   23.2988 C   0  0  0  0  0  0  0  0  0120  0  0
  -18.9183  -30.1286   23.8878 C   0  0  0  0  0  0  0  0  0121  0  0
  -17.6396  -30.6493   24.0352 C   0  0  0  0  0  0  0  0  0122  0  0
  -25.9153  -34.9582   23.4993 C   0  0  0  0  0  0  0  0  0123  0  0
  -16.5415  -29.9068   23.6254 C   0  0  0  0  0  0  0  0  0124  0  0
  -16.7331  -28.6521   23.0586 C   0  0  0  0  0  0  0  0  0125  0  0
  -26.4583  -31.6439   25.0683 C   0  0  0  0  0  0  0  0  0126  0  0
  -25.3807  -31.3179   26.1374 C   0  0  0  0  0  0  0  0  0127  0  0
  -27.0530  -30.3024   24.5680 C   0  0  0  0  0  0  0  0  0128  0  0
  -27.6014  -32.4281   25.7651 C   0  0  0  0  0  0  0  0  0129  0  0
  -27.5629  -37.2220   24.8621 C   0  0  0  0  0  0  0  0  0130  0  0
  -21.4133  -29.3375   22.3735 N   0  0  0  0  0  0  0  0  0131  0  0
  -26.4706  -37.3372   23.9061 N   0  0  0  0  0  0  0  0  0132  0  0
  -24.6674  -31.0544   22.1178 N   0  0  0  0  0  0  0  0  0133  0  0
  -23.4259  -28.8150   23.2971 O   0  0  0  0  0  0  0  0  0134  0  0
  -28.3948  -26.7345   20.0089 O   0  0  0  0  0  0  0  0  0135  0  0
  -26.5870  -34.9065   22.4671 O   0  0  0  0  0  0  0  0  0136  0  0
  -23.5365  -32.1254   23.7833 O   0  0  0  0  0  0  0  0  0137  0  0
  -30.5195  -23.0874   17.8441 C   0  0  0  0  0  0  0  0  0  0  0  0
  -29.7206  -20.8674   18.3302 C   0  0  0  0  0  0  0  0  0  0  0  0
  -30.0582  -21.8503   17.4047 C   0  0  0  0  0  0  0  0  0  0  0  0
  -30.6325  -23.3124   19.2087 C   0  0  0  0  0  0  0  0  0  0  0  0
  -29.8539  -21.1485   19.6825 C   0  0  0  0  0  0  0  0  0  0  0  0
  -29.2353  -19.5652   17.8817 C   0  0  0  0  0  0  0  0  0  0  0  0
  -31.8956  -26.7713   19.7662 C   0  0  0  0  0  0  0  0  0  0  0  0
  -30.8649  -27.7713   20.2237 C   0  0  0  0  0  0  0  0  0  0  0  0
  -30.2573  -18.4959   17.6422 C   0  0  0  0  0  0  0  0  0  0  0  0
  -31.4734  -25.6380   18.8771 C   0  0  0  0  0  0  0  0  0  0  0  0
  -29.4508  -27.2770   20.3813 C   0  0  0  0  0  0  0  0  0  1  0  0
  -33.1092  -26.9402   20.1742 N   0  0  0  0  0  0  0  0  0  0  0  0
  -30.3005  -22.3483   20.0782 N   0  0  0  0  0  0  0  0  0  0  0  0
  -29.9410  -21.6151   16.0168 N   0  0  0  0  0  0  0  0  0  0  0  0
  -29.5186  -20.1689   20.6498 N   0  0  0  0  0  0  0  0  0  0  0  0
  -31.0866  -24.5260   19.7059 N   0  0  0  0  0  0  0  0  0  0  0  0
  -28.0540  -19.2881   17.6834 O   0  0  0  0  0  0  0  0  0  0  0  0
  -31.2340  -28.9211   20.4157 O   0  0  0  0  0  0  0  0  0  0  0  0
  -31.4485  -12.4701   19.0860 H   0  0  0  0  0  0  0  0  0  0  0  0
  -30.3970  -11.2460   19.6950 H   0  0  0  0  0  0  0  0  0  0  0  0
  -29.6870  -11.8204   17.4226 H   0  0  0  0  0  0  0  0  0  0  0  0
  -29.6375  -13.5326   17.8649 H   0  0  0  0  0  0  0  0  0  0  0  0
  -27.7830  -11.3650   18.7904 H   0  0  0  0  0  0  0  0  0  0  0  0
  -27.4028  -12.7801   17.8021 H   0  0  0  0  0  0  0  0  0  0  0  0
  -27.7353  -14.2503   19.6136 H   0  0  0  0  0  0  0  0  0  0  0  0
  -28.5890  -11.9550   21.3832 H   0  0  0  0  0  0  0  0  0  0  0  0
  -28.5005  -13.6134   21.8562 H   0  0  0  0  0  0  0  0  0  0  0  0
  -25.2399   -9.5495   22.4318 H   0  0  0  0  0  0  0  0  0  0  0  0
  -23.9663   -7.5070   22.7297 H   0  0  0  0  0  0  0  0  0  0  0  0
  -21.1515   -8.8641   19.9162 H   0  0  0  0  0  0  0  0  0  0  0  0
  -22.4016  -10.9115   19.6476 H   0  0  0  0  0  0  0  0  0  0  0  0
  -21.2319   -7.5552   23.9750 H   0  0  0  0  0  0  0  0  0  0  0  0
  -21.1589   -6.0228   25.8556 H   0  0  0  0  0  0  0  0  0  0  0  0
  -22.0396   -2.8212   23.2809 H   0  0  0  0  0  0  0  0  0  0  0  0
  -22.4401  -11.9703   22.4008 H   0  0  0  0  0  0  0  0  0  0  0  0
  -21.1493  -13.0679   22.2082 H   0  0  0  0  0  0  0  0  0  0  0  0
  -24.6538  -15.7807   20.5848 H   0  0  0  0  0  0  0  0  0  0  0  0
  -26.2762  -15.5453   20.1156 H   0  0  0  0  0  0  0  0  0  0  0  0
  -26.6778  -32.4663   23.1464 H   0  0  0  0  0  0  0  0  0  0  0  0
  -25.0747  -34.0282   25.0566 H   0  0  0  0  0  0  0  0  0  0  0  0
  -22.7881  -31.3489   21.4131 H   0  0  0  0  0  0  0  0  0  0  0  0
  -23.3854  -35.9823   23.3648 H   0  0  0  0  0  0  0  0  0  0  0  0
  -24.3696  -36.8624   22.2204 H   0  0  0  0  0  0  0  0  0  0  0  0
  -23.7669  -37.6632   23.6516 H   0  0  0  0  0  0  0  0  0  0  0  0
  -25.9445  -31.6237   20.5691 H   0  0  0  0  0  0  0  0  0  0  0  0
  -26.7436  -31.0079   22.0108 H   0  0  0  0  0  0  0  0  0  0  0  0
  -28.0090  -29.1452   21.2057 H   0  0  0  0  0  0  0  0  0  0  0  0
  -26.1369  -26.0560   19.0719 H   0  0  0  0  0  0  0  0  0  0  0  0
  -24.0652  -27.2961   19.0997 H   0  0  0  0  0  0  0  0  0  0  0  0
  -23.6156  -30.5365   19.3930 H   0  0  0  0  0  0  0  0  0  0  0  0
  -22.7355  -29.1425   19.9945 H   0  0  0  0  0  0  0  0  0  0  0  0
  -25.1353  -36.2335   25.0565 H   0  0  0  0  0  0  0  0  0  0  0  0
  -21.0070  -28.3206   24.0793 H   0  0  0  0  0  0  0  0  0  0  0  0
  -20.5555  -26.2518   23.3550 H   0  0  0  0  0  0  0  0  0  0  0  0
  -21.5974  -26.8362   22.0454 H   0  0  0  0  0  0  0  0  0  0  0  0
  -19.6810  -25.6422   21.1488 H   0  0  0  0  0  0  0  0  0  0  0  0
  -19.6406  -27.3343   20.7034 H   0  0  0  0  0  0  0  0  0  0  0  0
  -17.4282  -26.6888   21.4113 H   0  0  0  0  0  0  0  0  0  0  0  0
  -18.0803  -26.0130   22.9049 H   0  0  0  0  0  0  0  0  0  0  0  0
  -19.7265  -30.6774   24.2204 H   0  0  0  0  0  0  0  0  0  0  0  0
  -17.5064  -31.5856   24.4483 H   0  0  0  0  0  0  0  0  0  0  0  0
  -15.5878  -30.2839   23.7407 H   0  0  0  0  0  0  0  0  0  0  0  0
  -15.9120  -28.0941   22.7766 H   0  0  0  0  0  0  0  0  0  0  0  0
  -24.5787  -30.7757   25.6817 H   0  0  0  0  0  0  0  0  0  0  0  0
  -25.0041  -32.2289   26.5536 H   0  0  0  0  0  0  0  0  0  0  0  0
  -25.8166  -30.7245   26.9138 H   0  0  0  0  0  0  0  0  0  0  0  0
  -26.2892  -29.7335   24.0803 H   0  0  0  0  0  0  0  0  0  0  0  0
  -27.4336  -29.7484   25.4006 H   0  0  0  0  0  0  0  0  0  0  0  0
  -27.8466  -30.4994   23.8779 H   0  0  0  0  0  0  0  0  0  0  0  0
  -27.2251  -33.3632   26.1242 H   0  0  0  0  0  0  0  0  0  0  0  0
  -28.3902  -32.6065   25.0645 H   0  0  0  0  0  0  0  0  0  0  0  0
  -27.9772  -31.8555   26.5872 H   0  0  0  0  0  0  0  0  0  0  0  0
  -28.2744  -38.0016   24.6863 H   0  0  0  0  0  0  0  0  0  0  0  0
  -28.0396  -36.2711   24.7461 H   0  0  0  0  0  0  0  0  0  0  0  0
  -27.1773  -37.3087   25.8564 H   0  0  0  0  0  0  0  0  0  0  0  0
  -20.9627  -29.9365   21.7352 H   0  0  0  0  0  0  0  0  0  0  0  0
  -26.0447  -38.2561   24.0273 H   0  0  0  0  0  0  0  0  0  0  0  0
  -30.7730  -23.8242   17.1674 H   0  0  0  0  0  0  0  0  0  0  0  0
  -31.2328  -18.8808   17.8549 H   0  0  0  0  0  0  0  0  0  0  0  0
  -30.2127  -18.1824   16.6201 H   0  0  0  0  0  0  0  0  0  0  0  0
  -30.0563  -17.6610   18.2805 H   0  0  0  0  0  0  0  0  0  0  0  0
  -32.2887  -25.3514   18.2462 H   0  0  0  0  0  0  0  0  0  0  0  0
  -30.6511  -25.9408   18.2631 H   0  0  0  0  0  0  0  0  0  0  0  0
  -29.0199  -28.2061   20.6912 H   0  0  0  0  0  0  0  0  0  0  0  0
  -29.8538  -26.2968   20.5286 H   0  0  0  0  0  0  0  0  0  0  0  0
  -33.3311  -27.7020   20.7570 H   0  0  0  0  0  0  0  0  0  0  0  0
  -30.3878  -22.5279   21.0422 H   0  0  0  0  0  0  0  0  0  0  0  0
  -30.1842  -22.3215   15.3756 H   0  0  0  0  0  0  0  0  0  0  0  0
  -29.6162  -20.7448   15.6907 H   0  0  0  0  0  0  0  0  0  0  0  0
  -29.0091  -20.4957   21.4262 H   0  0  0  0  0  0  0  0  0  0  0  0
  -31.1478  -24.6328   20.6827 H   0  0  0  0  0  0  0  0  0  0  0  0
  1 25  1  0
  1 30  2  0
  1 85  1  0
  2  3  1  0
  2 25  1  0
  2 89  1  0
  2 90  1  0
  3  4  1  0
  3 91  1  0
  3 92  1  0
  4  5  1  0
  4 93  1  0
  4 94  1  0
  5  6  1  0
  5 26  1  0
  5 95  1  6
  6 25  1  0
  6 96  1  0
  6 97  1  0
  7  8  2  0
  7 26  1  0
  7 29  1  0
  8  9  1  0
  8 22  1  0
  9 10  1  0
  9 27  2  0
 10 11  2  0
 10 15  1  0
 11 12  1  0
 11 98  1  0
 12 13  2  0
 12 99  1  0
 13 14  1  0
 13 31  1  0
 14 15  2  0
 14100  1  0
 15101  1  0
 16 17  2  0
 16 21  1  0
 16 31  1  0
 17 18  1  0
 17102  1  0
 18 19  2  0
 18103  1  0
 19 20  1  0
 19 24  1  0
 20 21  2  0
 20104  1  0
 21 23  1  0
 22 28  1  0
 22 32  2  0
 26 27  1  0
 28105  1  0
 28106  1  0
 29107  1  0
 29108  1  0
 33 34  1  0
 33 66  1  0
 33 70  2  0
 34 36  1  0
 34 59  1  0
 34109  1  6
 35 44  2  0
 35 45  1  0
 35 68  1  0
 36 56  1  0
 36110  1  0
 37 39  1  0
 37 47  1  0
 37 66  1  0
 37111  1  6
 38 43  2  0
 38 46  1  0
 38 47  1  0
 39 64  1  0
 39 67  2  0
 40 52  1  0
 40 53  2  0
 40 58  1  0
 41112  1  0
 41113  1  0
 41114  1  0
 42 43  1  0
 42 66  1  0
 42115  1  0
 42116  1  0
 43 44  1  0
 44117  1  0
 45 46  2  0
 45118  1  0
 46119  1  0
 47120  1  0
 47121  1  0
 48 41  1  0
 48 56  1  0
 48 65  1  0
 48122  1  1
 49 50  1  0
 49 53  1  0
 49 64  1  0
 49123  1  1
 50 51  1  0
 50124  1  0
 50125  1  0
 51 52  1  0
 51126  1  0
 51127  1  0
 52128  1  0
 52129  1  0
 53 54  1  0
 54 55  2  0
 54130  1  0
 55 57  1  0
 55131  1  0
 56 69  2  0
 57 58  2  0
 57132  1  0
 58133  1  0
 59 60  1  0
 59 61  1  0
 59 62  1  0
 60134  1  0
 60135  1  0
 60136  1  0
 61137  1  0
 61138  1  0
 61139  1  0
 62140  1  0
 62141  1  0
 62142  1  0
 63 65  1  0
 63143  1  0
 63144  1  0
 63145  1  0
 64146  1  0
 65147  1  0
 68 81  1  0
 71 73  2  0
 71 74  1  0
 71148  1  0
 72 73  1  0
 72 75  2  0
 72 76  1  0
 73 84  1  0
 74 83  2  0
 74 86  1  0
 75 83  1  0
 75 85  1  0
 76 79  1  0
 76 87  2  0
 77 78  1  0
 77 80  1  0
 77 82  2  0
 78 81  1  0
 78 88  2  0
 79149  1  0
 79150  1  0
 79151  1  0
 80 86  1  0
 80152  1  0
 80153  1  0
 81154  1  0
 81155  1  0
 82156  1  0
 83157  1  0
 84158  1  0
 84159  1  0
 85160  1  0
 86161  1  0
M  CHG  1  83   1
M  ISO  4   1 100  68 101  81 101  85 100
M  END
$$$$
63
     RDKit          3D

161169  0  0  0  0  0  0  0  0999 V2000
  -30.7652  -14.3608   20.6636 C   0  0  0  0  0  0  0  0  0100  0  0
  -30.4392  -12.2669   19.3775 C   0  0  0  0  0  0  0  0  0101  0  0
  -29.4791  -12.5281   18.1977 C   0  0  0  0  0  0  0  0  0102  0  0
  -27.9985  -12.3963   18.6038 C   0  0  0  0  0  0  0  0  0103  0  0
  -27.6639  -13.2170   19.8820 C   0  0  2  0  0  0  0  0  0104  0  0
  -28.6795  -12.9602   21.0279 C   0  0  0  0  0  0  0  0  0105  0  0
  -25.2633  -13.8245   20.5754 C   0  0  0  0  0  0  0  0  0106  0  0
  -24.1645  -13.0409   20.9408 C   0  0  0  0  0  0  0  0  0107  0  0
  -24.6400  -11.7009   20.8697 C   0  0  0  0  0  0  0  0  0108  0  0
  -23.9005  -10.4085   21.0420 C   0  0  0  0  0  0  0  0  0109  0  0
  -24.3588   -9.4123   21.9123 C   0  0  0  0  0  0  0  0  0110  0  0
  -23.6296   -8.2350   22.0803 C   0  0  0  0  0  0  0  0  0111  0  0
  -22.4385   -8.0419   21.3657 C   0  0  0  0  0  0  0  0  0112  0  0
  -22.0103   -9.0167   20.4678 C   0  0  0  0  0  0  0  0  0113  0  0
  -22.7317  -10.1925   20.3102 C   0  0  0  0  0  0  0  0  0114  0  0
  -21.6857   -6.0709   22.5391 C   0  0  0  0  0  0  0  0  0115  0  0
  -21.4064   -6.5490   23.8264 C   0  0  0  0  0  0  0  0  0116  0  0
  -21.3635   -5.6677   24.9085 C   0  0  0  0  0  0  0  0  0117  0  0
  -21.5973   -4.3067   24.7088 C   0  0  0  0  0  0  0  0  0118  0  0
  -21.8700   -3.8284   23.4282 C   0  0  0  0  0  0  0  0  0119  0  0
  -21.9144   -4.7056   22.3460 C   0  0  0  0  0  0  0  0  0120  0  0
  -22.8194  -13.5263   21.1763 C   0  0  0  0  0  0  0  0  0121  0  0
  -22.1559   -4.2206   21.1063 F   0  0  0  0  0  0  0  0  0122  0  0
  -21.5628   -3.4510   25.7555 F   0  0  0  0  0  0  0  0  0123  0  0
  -30.0261  -13.1803   20.4553 N   0  0  0  0  0  0  0  0  0124  0  0
  -26.2911  -12.9356   20.3443 N   0  0  0  0  0  0  0  0  0125  0  0
  -25.9236  -11.6675   20.5847 N   0  0  0  0  0  0  0  0  0126  0  0
  -22.0708  -12.7905   22.0005 N   0  0  0  0  0  0  0  0  0127  0  0
  -25.4117  -15.1773   20.4097 N   0  0  0  0  0  0  0  0  0128  0  0
  -31.7916  -14.6724   20.0536 O   0  0  0  0  0  0  0  0  0129  0  0
  -21.6670   -6.9022   21.4423 O   0  0  0  0  0  0  0  0  0130  0  0
  -22.3946  -14.5564   20.6568 O   0  0  0  0  0  0  0  0  0131  0  0
  -24.6048  -31.8614   23.2223 C   0  0  0  0  0  0  0  0  0100  0  0
  -25.8822  -32.4841   23.8616 C   0  0  1  0  0  0  0  0  0101  0  0
  -27.2536  -27.5042   20.1156 C   0  0  0  0  0  0  0  0  0102  0  0
  -25.5726  -33.8762   24.2210 N   0  0  0  0  0  0  0  0  0103  0  0
  -23.4066  -30.4859   21.5461 C   0  0  2  0  0  0  0  0  0104  0  0
  -24.8467  -28.9636   20.1247 C   0  0  0  0  0  0  0  0  0105  0  0
  -22.7412  -29.4652   22.5052 C   0  0  0  0  0  0  0  0  0106  0  0
  -18.0167  -28.1302   22.8626 C   0  0  0  0  0  0  0  0  0107  0  0
  -24.1342  -36.7390   23.2568 C   0  0  0  0  0  0  0  0  0108  0  0
  -25.9141  -30.8882   21.3456 C   0  0  0  0  0  0  0  0  0109  0  0
  -25.9930  -29.5029   20.7208 C   0  0  0  0  0  0  0  0  0110  0  0
  -27.1758  -28.7612   20.7331 C   0  0  0  0  0  0  0  0  0111  0  0
  -26.1032  -26.9836   19.5230 C   0  0  0  0  0  0  0  0  0112  0  0
  -24.9097  -27.7011   19.5331 C   0  0  0  0  0  0  0  0  0113  0  0
  -23.5715  -29.7899   20.1582 C   0  0  0  0  0  0  0  0  0114  0  0
  -25.3990  -36.3212   24.0232 C   0  0  1  0  0  0  0  0  0115  0  0
  -20.5793  -28.3813   23.1004 C   0  0  2  0  0  0  0  0  0116  0  0
  -20.6548  -26.9392   22.5411 C   0  0  0  0  0  0  0  0  0117  0  0
  -19.5615  -26.6407   21.5143 C   0  0  0  0  0  0  0  0  0118  0  0
  -18.1797  -26.7818   22.1673 C   0  0  0  0  0  0  0  0  0119  0  0
  -19.1385  -28.8769   23.2988 C   0  0  0  0  0  0  0  0  0120  0  0
  -18.9183  -30.1286   23.8878 C   0  0  0  0  0  0  0  0  0121  0  0
  -17.6396  -30.6493   24.0352 C   0  0  0  0  0  0  0  0  0122  0  0
  -25.9153  -34.9582   23.4993 C   0  0  0  0  0  0  0  0  0123  0  0
  -16.5415  -29.9068   23.6254 C   0  0  0  0  0  0  0  0  0124  0  0
  -16.7331  -28.6521   23.0586 C   0  0  0  0  0  0  0  0  0125  0  0
  -26.4583  -31.6439   25.0683 C   0  0  0  0  0  0  0  0  0126  0  0
  -25.3807  -31.3179   26.1374 C   0  0  0  0  0  0  0  0  0127  0  0
  -27.0530  -30.3024   24.5680 C   0  0  0  0  0  0  0  0  0128  0  0
  -27.6014  -32.4281   25.7651 C   0  0  0  0  0  0  0  0  0129  0  0
  -27.5629  -37.2220   24.8621 C   0  0  0  0  0  0  0  0  0130  0  0
  -21.4133  -29.3375   22.3735 N   0  0  0  0  0  0  0  0  0131  0  0
  -26.4706  -37.3372   23.9061 N   0  0  0  0  0  0  0  0  0132  0  0
  -24.6674  -31.0544   22.1178 N   0  0  0  0  0  0  0  0  0133  0  0
  -23.4259  -28.8150   23.2971 O   0  0  0  0  0  0  0  0  0134  0  0
  -28.3948  -26.7345   20.0089 O   0  0  0  0  0  0  0  0  0135  0  0
  -26.5870  -34.9065   22.4671 O   0  0  0  0  0  0  0  0  0136  0  0
  -23.5365  -32.1254   23.7833 O   0  0  0  0  0  0  0  0  0137  0  0
  -17.4080  -27.7505   22.6295 C   0  0  0  0  0  0  0  0  0  0  0  0
  -19.1532  -29.3492   23.1150 C   0  0  0  0  0  0  0  0  0  0  0  0
  -18.3406  -26.9220   22.0053 C   0  0  0  0  0  0  0  0  0  0  0  0
  -20.0857  -28.5207   22.4908 C   0  0  0  0  0  0  0  0  0  0  0  0
  -17.8143  -28.9641   23.1843 C   0  0  0  0  0  0  0  0  0  0  0  0
  -19.6794  -27.3071   21.9360 C   0  0  0  0  0  0  0  0  0  0  0  0
  -17.9071  -25.6377   21.4196 C   0  0  0  0  0  0  0  0  0  0  0  0
  -20.4212  -22.2897   21.8708 C   0  0  0  0  0  0  0  0  0  0  0  0
  -21.0220  -21.5286   20.7042 C   0  0  0  0  0  0  0  0  0  1  0  0
  -18.0929  -23.1755   21.3989 C   0  0  0  0  0  0  0  0  0  0  0  0
  -18.9270  -22.1122   22.0988 C   0  0  2  0  0  0  0  0  0  0  0  0
  -21.4450  -28.9150   22.4217 N   0  0  0  0  0  0  0  0  0  0  0  0
  -18.4535  -24.5061   21.8853 N   0  0  0  0  0  0  0  0  0  0  0  0
  -16.9918  -25.6661   20.4507 N   0  0  0  0  0  0  0  0  0  0  0  0
  -18.6174  -22.1319   23.5587 N   0  0  0  0  0  0  0  0  0  0  0  0
  -21.1115  -23.0067   22.5957 O   0  0  0  0  0  0  0  0  0  0  0  0
  -16.9189  -29.7594   23.7838 F   0  0  0  0  0  0  0  0  0  0  0  0
  -20.5752  -26.5095   21.3350 F   0  0  0  0  0  0  0  0  0  0  0  0
  -31.4485  -12.4701   19.0860 H   0  0  0  0  0  0  0  0  0  0  0  0
  -30.3970  -11.2460   19.6950 H   0  0  0  0  0  0  0  0  0  0  0  0
  -29.6870  -11.8204   17.4226 H   0  0  0  0  0  0  0  0  0  0  0  0
  -29.6375  -13.5326   17.8649 H   0  0  0  0  0  0  0  0  0  0  0  0
  -27.7830  -11.3650   18.7904 H   0  0  0  0  0  0  0  0  0  0  0  0
  -27.4028  -12.7801   17.8021 H   0  0  0  0  0  0  0  0  0  0  0  0
  -27.7353  -14.2503   19.6136 H   0  0  0  0  0  0  0  0  0  0  0  0
  -28.5890  -11.9550   21.3832 H   0  0  0  0  0  0  0  0  0  0  0  0
  -28.5005  -13.6134   21.8562 H   0  0  0  0  0  0  0  0  0  0  0  0
  -25.2399   -9.5495   22.4318 H   0  0  0  0  0  0  0  0  0  0  0  0
  -23.9663   -7.5070   22.7297 H   0  0  0  0  0  0  0  0  0  0  0  0
  -21.1515   -8.8641   19.9162 H   0  0  0  0  0  0  0  0  0  0  0  0
  -22.4016  -10.9115   19.6476 H   0  0  0  0  0  0  0  0  0  0  0  0
  -21.2319   -7.5552   23.9750 H   0  0  0  0  0  0  0  0  0  0  0  0
  -21.1589   -6.0228   25.8556 H   0  0  0  0  0  0  0  0  0  0  0  0
  -22.0396   -2.8212   23.2809 H   0  0  0  0  0  0  0  0  0  0  0  0
  -22.4401  -11.9703   22.4008 H   0  0  0  0  0  0  0  0  0  0  0  0
  -21.1493  -13.0679   22.2082 H   0  0  0  0  0  0  0  0  0  0  0  0
  -24.6538  -15.7807   20.5848 H   0  0  0  0  0  0  0  0  0  0  0  0
  -26.2762  -15.5453   20.1156 H   0  0  0  0  0  0  0  0  0  0  0  0
  -26.6778  -32.4663   23.1464 H   0  0  0  0  0  0  0  0  0  0  0  0
  -25.0747  -34.0282   25.0566 H   0  0  0  0  0  0  0  0  0  0  0  0
  -22.7881  -31.3489   21.4131 H   0  0  0  0  0  0  0  0  0  0  0  0
  -23.3854  -35.9823   23.3648 H   0  0  0  0  0  0  0  0  0  0  0  0
  -24.3696  -36.8624   22.2204 H   0  0  0  0  0  0  0  0  0  0  0  0
  -23.7669  -37.6632   23.6516 H   0  0  0  0  0  0  0  0  0  0  0  0
  -25.9445  -31.6237   20.5691 H   0  0  0  0  0  0  0  0  0  0  0  0
  -26.7436  -31.0079   22.0108 H   0  0  0  0  0  0  0  0  0  0  0  0
  -28.0090  -29.1452   21.2057 H   0  0  0  0  0  0  0  0  0  0  0  0
  -26.1369  -26.0560   19.0719 H   0  0  0  0  0  0  0  0  0  0  0  0
  -24.0652  -27.2961   19.0997 H   0  0  0  0  0  0  0  0  0  0  0  0
  -23.6156  -30.5365   19.3930 H   0  0  0  0  0  0  0  0  0  0  0  0
  -22.7355  -29.1425   19.9945 H   0  0  0  0  0  0  0  0  0  0  0  0
  -25.1353  -36.2335   25.0565 H   0  0  0  0  0  0  0  0  0  0  0  0
  -21.0070  -28.3206   24.0793 H   0  0  0  0  0  0  0  0  0  0  0  0
  -20.5555  -26.2518   23.3550 H   0  0  0  0  0  0  0  0  0  0  0  0
  -21.5974  -26.8362   22.0454 H   0  0  0  0  0  0  0  0  0  0  0  0
  -19.6810  -25.6422   21.1488 H   0  0  0  0  0  0  0  0  0  0  0  0
  -19.6406  -27.3343   20.7034 H   0  0  0  0  0  0  0  0  0  0  0  0
  -17.4282  -26.6888   21.4113 H   0  0  0  0  0  0  0  0  0  0  0  0
  -18.0803  -26.0130   22.9049 H   0  0  0  0  0  0  0  0  0  0  0  0
  -19.7265  -30.6774   24.2204 H   0  0  0  0  0  0  0  0  0  0  0  0
  -17.5064  -31.5856   24.4483 H   0  0  0  0  0  0  0  0  0  0  0  0
  -15.5878  -30.2839   23.7407 H   0  0  0  0  0  0  0  0  0  0  0  0
  -15.9120  -28.0941   22.7766 H   0  0  0  0  0  0  0  0  0  0  0  0
  -24.5787  -30.7757   25.6817 H   0  0  0  0  0  0  0  0  0  0  0  0
  -25.0041  -32.2289   26.5536 H   0  0  0  0  0  0  0  0  0  0  0  0
  -25.8166  -30.7245   26.9138 H   0  0  0  0  0  0  0  0  0  0  0  0
  -26.2892  -29.7335   24.0803 H   0  0  0  0  0  0  0  0  0  0  0  0
  -27.4336  -29.7484   25.4006 H   0  0  0  0  0  0  0  0  0  0  0  0
  -27.8466  -30.4994   23.8779 H   0  0  0  0  0  0  0  0  0  0  0  0
  -27.2251  -33.3632   26.1242 H   0  0  0  0  0  0  0  0  0  0  0  0
  -28.3902  -32.6065   25.0645 H   0  0  0  0  0  0  0  0  0  0  0  0
  -27.9772  -31.8555   26.5872 H   0  0  0  0  0  0  0  0  0  0  0  0
  -28.2744  -38.0016   24.6863 H   0  0  0  0  0  0  0  0  0  0  0  0
  -28.0396  -36.2711   24.7461 H   0  0  0  0  0  0  0  0  0  0  0  0
  -27.1773  -37.3087   25.8564 H   0  0  0  0  0  0  0  0  0  0  0  0
  -20.9627  -29.9365   21.7352 H   0  0  0  0  0  0  0  0  0  0  0  0
  -26.0447  -38.2561   24.0273 H   0  0  0  0  0  0  0  0  0  0  0  0
  -16.4174  -27.4656   22.6808 H   0  0  0  0  0  0  0  0  0  0  0  0
  -19.4538  -30.2470   23.5255 H   0  0  0  0  0  0  0  0  0  0  0  0
  -20.4082  -21.5576   19.8283 H   0  0  0  0  0  0  0  0  0  0  0  0
  -21.1701  -20.4758   20.8248 H   0  0  0  0  0  0  0  0  0  0  0  0
  -17.0564  -22.9969   21.5956 H   0  0  0  0  0  0  0  0  0  0  0  0
  -18.2804  -23.1274   20.3465 H   0  0  0  0  0  0  0  0  0  0  0  0
  -18.6679  -21.1636   21.6769 H   0  0  0  0  0  0  0  0  0  0  0  0
  -21.7934  -29.8348   22.4649 H   0  0  0  0  0  0  0  0  0  0  0  0
  -19.1344  -24.5746   22.5931 H   0  0  0  0  0  0  0  0  0  0  0  0
  -16.6234  -26.5270   20.1466 H   0  0  0  0  0  0  0  0  0  0  0  0
  -16.6843  -24.8262   20.0393 H   0  0  0  0  0  0  0  0  0  0  0  0
  -18.8690  -23.0407   23.9474 H   0  0  0  0  0  0  0  0  0  0  0  0
  -19.1512  -21.4012   24.0294 H   0  0  0  0  0  0  0  0  0  0  0  0
  -17.6203  -21.9672   23.6971 H   0  0  0  0  0  0  0  0  0  0  0  0
  1 25  1  0
  1 30  2  0
  1 82  1  0
  2  3  1  0
  2 25  1  0
  2 89  1  0
  2 90  1  0
  3  4  1  0
  3 91  1  0
  3 92  1  0
  4  5  1  0
  4 93  1  0
  4 94  1  0
  5  6  1  0
  5 26  1  0
  5 95  1  6
  6 25  1  0
  6 96  1  0
  6 97  1  0
  7  8  2  0
  7 26  1  0
  7 29  1  0
  8  9  1  0
  8 22  1  0
  9 10  1  0
  9 27  2  0
 10 11  2  0
 10 15  1  0
 11 12  1  0
 11 98  1  0
 12 13  2  0
 12 99  1  0
 13 14  1  0
 13 31  1  0
 14 15  2  0
 14100  1  0
 15101  1  0
 16 17  2  0
 16 21  1  0
 16 31  1  0
 17 18  1  0
 17102  1  0
 18 19  2  0
 18103  1  0
 19 20  1  0
 19 24  1  0
 20 21  2  0
 20104  1  0
 21 23  1  0
 22 28  1  0
 22 32  2  0
 26 27  1  0
 28105  1  0
 28106  1  0
 29107  1  0
 29108  1  0
 33 34  1  0
 33 66  1  0
 33 70  2  0
 34 36  1  0
 34 59  1  0
 34109  1  6
 35 44  2  0
 35 45  1  0
 35 68  1  0
 36 56  1  0
 36110  1  0
 37 39  1  0
 37 47  1  0
 37 66  1  0
 37111  1  6
 38 43  2  0
 38 46  1  0
 38 47  1  0
 39 64  1  0
 39 67  2  0
 40 52  1  0
 40 53  2  0
 40 58  1  0
 41112  1  0
 41113  1  0
 41114  1  0
 42 43  1  0
 42 66  1  0
 42115  1  0
 42116  1  0
 43 44  1  0
 44117  1  0
 45 46  2  0
 45118  1  0
 46119  1  0
 47120  1  0
 47121  1  0
 48 41  1  0
 48 56  1  0
 48 65  1  0
 48122  1  1
 49 50  1  0
 49 53  1  0
 49 64  1  0
 49123  1  1
 50 51  1  0
 50124  1  0
 50125  1  0
 51 52  1  0
 51126  1  0
 51127  1  0
 52128  1  0
 52129  1  0
 53 54  1  0
 54 55  2  0
 54130  1  0
 55 57  1  0
 55131  1  0
 56 69  2  0
 57 58  2  0
 57132  1  0
 58133  1  0
 59 60  1  0
 59 61  1  0
 59 62  1  0
 60134  1  0
 60135  1  0
 60136  1  0
 61137  1  0
 61138  1  0
 61139  1  0
 62140  1  0
 62141  1  0
 62142  1  0
 63 65  1  0
 63143  1  0
 63144  1  0
 63145  1  0
 64146  1  0
 65147  1  0
 68 79  1  0
 71 73  2  0
 71 75  1  0
 71148  1  0
 72 74  1  0
 72 75  2  0
 72149  1  0
 73 76  1  0
 73 77  1  0
 74 76  2  0
 74 82  1  0
 75 87  1  0
 76 88  1  0
 77 83  1  0
 77 84  2  0
 78 79  1  0
 78 81  1  0
 78 86  2  0
 79150  1  0
 79151  1  0
 80 81  1  0
 80 83  1  0
 80152  1  0
 80153  1  0
 81 85  1  0
 81154  1  6
 82155  1  0
 83156  1  0
 84157  1  0
 84158  1  0
 85159  1  0
 85160  1  0
 85161  1  0
M  CHG  2  84   1  85   1
M  ISO  4   1 100  68 101  79 101  82 100
M  END
$$$$
64
     RDKit          3D

153161  0  0  0  0  0  0  0  0999 V2000
  -30.7652  -14.3608   20.6636 C   0  0  0  0  0  0  0  0  0100  0  0
  -30.4392  -12.2669   19.3775 C   0  0  0  0  0  0  0  0  0101  0  0
  -29.4791  -12.5281   18.1977 C   0  0  0  0  0  0  0  0  0102  0  0
  -27.9985  -12.3963   18.6038 C   0  0  0  0  0  0  0  0  0103  0  0
  -27.6639  -13.2170   19.8820 C   0  0  2  0  0  0  0  0  0104  0  0
  -28.6795  -12.9602   21.0279 C   0  0  0  0  0  0  0  0  0105  0  0
  -25.2633  -13.8245   20.5754 C   0  0  0  0  0  0  0  0  0106  0  0
  -24.1645  -13.0409   20.9408 C   0  0  0  0  0  0  0  0  0107  0  0
  -24.6400  -11.7009   20.8697 C   0  0  0  0  0  0  0  0  0108  0  0
  -23.9005  -10.4085   21.0420 C   0  0  0  0  0  0  0  0  0109  0  0
  -24.3588   -9.4123   21.9123 C   0  0  0  0  0  0  0  0  0110  0  0
  -23.6296   -8.2350   22.0803 C   0  0  0  0  0  0  0  0  0111  0  0
  -22.4385   -8.0419   21.3657 C   0  0  0  0  0  0  0  0  0112  0  0
  -22.0103   -9.0167   20.4678 C   0  0  0  0  0  0  0  0  0113  0  0
  -22.7317  -10.1925   20.3102 C   0  0  0  0  0  0  0  0  0114  0  0
  -21.6857   -6.0709   22.5391 C   0  0  0  0  0  0  0  0  0115  0  0
  -21.4064   -6.5490   23.8264 C   0  0  0  0  0  0  0  0  0116  0  0
  -21.3635   -5.6677   24.9085 C   0  0  0  0  0  0  0  0  0117  0  0
  -21.5973   -4.3067   24.7088 C   0  0  0  0  0  0  0  0  0118  0  0
  -21.8700   -3.8284   23.4282 C   0  0  0  0  0  0  0  0  0119  0  0
  -21.9144   -4.7056   22.3460 C   0  0  0  0  0  0  0  0  0120  0  0
  -22.8194  -13.5263   21.1763 C   0  0  0  0  0  0  0  0  0121  0  0
  -22.1559   -4.2206   21.1063 F   0  0  0  0  0  0  0  0  0122  0  0
  -21.5628   -3.4510   25.7555 F   0  0  0  0  0  0  0  0  0123  0  0
  -30.0261  -13.1803   20.4553 N   0  0  0  0  0  0  0  0  0124  0  0
  -26.2911  -12.9356   20.3443 N   0  0  0  0  0  0  0  0  0125  0  0
  -25.9236  -11.6675   20.5847 N   0  0  0  0  0  0  0  0  0126  0  0
  -22.0708  -12.7905   22.0005 N   0  0  0  0  0  0  0  0  0127  0  0
  -25.4117  -15.1773   20.4097 N   0  0  0  0  0  0  0  0  0128  0  0
  -31.7916  -14.6724   20.0536 O   0  0  0  0  0  0  0  0  0129  0  0
  -21.6670   -6.9022   21.4423 O   0  0  0  0  0  0  0  0  0130  0  0
  -22.3946  -14.5564   20.6568 O   0  0  0  0  0  0  0  0  0131  0  0
  -24.6048  -31.8614   23.2223 C   0  0  0  0  0  0  0  0  0100  0  0
  -25.8822  -32.4841   23.8616 C   0  0  1  0  0  0  0  0  0101  0  0
  -27.2536  -27.5042   20.1156 C   0  0  0  0  0  0  0  0  0102  0  0
  -25.5726  -33.8762   24.2210 N   0  0  0  0  0  0  0  0  0103  0  0
  -23.4066  -30.4859   21.5461 C   0  0  2  0  0  0  0  0  0104  0  0
  -24.8467  -28.9636   20.1247 C   0  0  0  0  0  0  0  0  0105  0  0
  -22.7412  -29.4652   22.5052 C   0  0  0  0  0  0  0  0  0106  0  0
  -18.0167  -28.1302   22.8626 C   0  0  0  0  0  0  0  0  0107  0  0
  -24.1342  -36.7390   23.2568 C   0  0  0  0  0  0  0  0  0108  0  0
  -25.9141  -30.8882   21.3456 C   0  0  0  0  0  0  0  0  0109  0  0
  -25.9930  -29.5029   20.7208 C   0  0  0  0  0  0  0  0  0110  0  0
  -27.1758  -28.7612   20.7331 C   0  0  0  0  0  0  0  0  0111  0  0
  -26.1032  -26.9836   19.5230 C   0  0  0  0  0  0  0  0  0112  0  0
  -24.9097  -27.7011   19.5331 C   0  0  0  0  0  0  0  0  0113  0  0
  -23.5715  -29.7899   20.1582 C   0  0  0  0  0  0  0  0  0114  0  0
  -25.3990  -36.3212   24.0232 C   0  0  1  0  0  0  0  0  0115  0  0
  -20.5793  -28.3813   23.1004 C   0  0  2  0  0  0  0  0  0116  0  0
  -20.6548  -26.9392   22.5411 C   0  0  0  0  0  0  0  0  0117  0  0
  -19.5615  -26.6407   21.5143 C   0  0  0  0  0  0  0  0  0118  0  0
  -18.1797  -26.7818   22.1673 C   0  0  0  0  0  0  0  0  0119  0  0
  -19.1385  -28.8769   23.2988 C   0  0  0  0  0  0  0  0  0120  0  0
  -18.9183  -30.1286   23.8878 C   0  0  0  0  0  0  0  0  0121  0  0
  -17.6396  -30.6493   24.0352 C   0  0  0  0  0  0  0  0  0122  0  0
  -25.9153  -34.9582   23.4993 C   0  0  0  0  0  0  0  0  0123  0  0
  -16.5415  -29.9068   23.6254 C   0  0  0  0  0  0  0  0  0124  0  0
  -16.7331  -28.6521   23.0586 C   0  0  0  0  0  0  0  0  0125  0  0
  -26.4583  -31.6439   25.0683 C   0  0  0  0  0  0  0  0  0126  0  0
  -25.3807  -31.3179   26.1374 C   0  0  0  0  0  0  0  0  0127  0  0
  -27.0530  -30.3024   24.5680 C   0  0  0  0  0  0  0  0  0128  0  0
  -27.6014  -32.4281   25.7651 C   0  0  0  0  0  0  0  0  0129  0  0
  -27.5629  -37.2220   24.8621 C   0  0  0  0  0  0  0  0  0130  0  0
  -21.4133  -29.3375   22.3735 N   0  0  0  0  0  0  0  0  0131  0  0
  -26.4706  -37.3372   23.9061 N   0  0  0  0  0  0  0  0  0132  0  0
  -24.6674  -31.0544   22.1178 N   0  0  0  0  0  0  0  0  0133  0  0
  -23.4259  -28.8150   23.2971 O   0  0  0  0  0  0  0  0  0134  0  0
  -28.3948  -26.7345   20.0089 O   0  0  0  0  0  0  0  0  0135  0  0
  -26.5870  -34.9065   22.4671 O   0  0  0  0  0  0  0  0  0136  0  0
  -23.5365  -32.1254   23.7833 O   0  0  0  0  0  0  0  0  0137  0  0
  -30.4388  -18.5531   19.5126 C   0  0  0  0  0  0  0  0  0  0  0  0
  -28.1916  -18.8381   20.2376 C   0  0  0  0  0  0  0  0  0  0  0  0
  -30.5448  -19.9347   19.3973 C   0  0  0  0  0  0  0  0  0  0  0  0
  -29.2432  -17.9864   19.9401 C   0  0  0  0  0  0  0  0  0  0  0  0
  -29.4349  -20.6992   19.7190 C   0  0  0  0  0  0  0  0  0  0  0  0
  -29.0511  -24.4260   19.9326 C   0  0  0  0  0  0  0  0  0  0  0  0
  -31.8280  -20.5389   18.9382 C   0  0  0  0  0  0  0  0  0  0  0  0
  -28.6570  -23.0043   20.2728 C   0  0  0  0  0  0  0  0  0  0  0  0
  -28.2013  -25.5106   20.5657 C   0  0  0  0  0  0  0  0  0  1  0  0
  -28.2569  -20.1847   20.1377 N   0  0  0  0  0  0  0  0  0  0  0  0
  -29.1046  -16.5820   20.0677 N   0  0  0  0  0  0  0  0  0  0  0  0
  -29.5357  -22.0783   19.6052 N   0  0  0  0  0  0  0  0  0  0  0  0
  -29.9963  -24.6954   19.1924 O   0  0  0  0  0  0  0  0  0  0  0  0
  -31.4485  -12.4701   19.0860 H   0  0  0  0  0  0  0  0  0  0  0  0
  -30.3970  -11.2460   19.6950 H   0  0  0  0  0  0  0  0  0  0  0  0
  -29.6870  -11.8204   17.4226 H   0  0  0  0  0  0  0  0  0  0  0  0
  -29.6375  -13.5326   17.8649 H   0  0  0  0  0  0  0  0  0  0  0  0
  -27.7830  -11.3650   18.7904 H   0  0  0  0  0  0  0  0  0  0  0  0
  -27.4028  -12.7801   17.8021 H   0  0  0  0  0  0  0  0  0  0  0  0
  -27.7353  -14.2503   19.6136 H   0  0  0  0  0  0  0  0  0  0  0  0
  -28.5890  -11.9550   21.3832 H   0  0  0  0  0  0  0  0  0  0  0  0
  -28.5005  -13.6134   21.8562 H   0  0  0  0  0  0  0  0  0  0  0  0
  -25.2399   -9.5495   22.4318 H   0  0  0  0  0  0  0  0  0  0  0  0
  -23.9663   -7.5070   22.7297 H   0  0  0  0  0  0  0  0  0  0  0  0
  -21.1515   -8.8641   19.9162 H   0  0  0  0  0  0  0  0  0  0  0  0
  -22.4016  -10.9115   19.6476 H   0  0  0  0  0  0  0  0  0  0  0  0
  -21.2319   -7.5552   23.9750 H   0  0  0  0  0  0  0  0  0  0  0  0
  -21.1589   -6.0228   25.8556 H   0  0  0  0  0  0  0  0  0  0  0  0
  -22.0396   -2.8212   23.2809 H   0  0  0  0  0  0  0  0  0  0  0  0
  -22.4401  -11.9703   22.4008 H   0  0  0  0  0  0  0  0  0  0  0  0
  -21.1493  -13.0679   22.2082 H   0  0  0  0  0  0  0  0  0  0  0  0
  -24.6538  -15.7807   20.5848 H   0  0  0  0  0  0  0  0  0  0  0  0
  -26.2762  -15.5453   20.1156 H   0  0  0  0  0  0  0  0  0  0  0  0
  -26.6778  -32.4663   23.1464 H   0  0  0  0  0  0  0  0  0  0  0  0
  -25.0747  -34.0282   25.0566 H   0  0  0  0  0  0  0  0  0  0  0  0
  -22.7881  -31.3489   21.4131 H   0  0  0  0  0  0  0  0  0  0  0  0
  -23.3854  -35.9823   23.3648 H   0  0  0  0  0  0  0  0  0  0  0  0
  -24.3696  -36.8624   22.2204 H   0  0  0  0  0  0  0  0  0  0  0  0
  -23.7669  -37.6632   23.6516 H   0  0  0  0  0  0  0  0  0  0  0  0
  -25.9445  -31.6237   20.5691 H   0  0  0  0  0  0  0  0  0  0  0  0
  -26.7436  -31.0079   22.0108 H   0  0  0  0  0  0  0  0  0  0  0  0
  -28.0090  -29.1452   21.2057 H   0  0  0  0  0  0  0  0  0  0  0  0
  -26.1369  -26.0560   19.0719 H   0  0  0  0  0  0  0  0  0  0  0  0
  -24.0652  -27.2961   19.0997 H   0  0  0  0  0  0  0  0  0  0  0  0
  -23.6156  -30.5365   19.3930 H   0  0  0  0  0  0  0  0  0  0  0  0
  -22.7355  -29.1425   19.9945 H   0  0  0  0  0  0  0  0  0  0  0  0
  -25.1353  -36.2335   25.0565 H   0  0  0  0  0  0  0  0  0  0  0  0
  -21.0070  -28.3206   24.0793 H   0  0  0  0  0  0  0  0  0  0  0  0
  -20.5555  -26.2518   23.3550 H   0  0  0  0  0  0  0  0  0  0  0  0
  -21.5974  -26.8362   22.0454 H   0  0  0  0  0  0  0  0  0  0  0  0
  -19.6810  -25.6422   21.1488 H   0  0  0  0  0  0  0  0  0  0  0  0
  -19.6406  -27.3343   20.7034 H   0  0  0  0  0  0  0  0  0  0  0  0
  -17.4282  -26.6888   21.4113 H   0  0  0  0  0  0  0  0  0  0  0  0
  -18.0803  -26.0130   22.9049 H   0  0  0  0  0  0  0  0  0  0  0  0
  -19.7265  -30.6774   24.2204 H   0  0  0  0  0  0  0  0  0  0  0  0
  -17.5064  -31.5856   24.4483 H   0  0  0  0  0  0  0  0  0  0  0  0
  -15.5878  -30.2839   23.7407 H   0  0  0  0  0  0  0  0  0  0  0  0
  -15.9120  -28.0941   22.7766 H   0  0  0  0  0  0  0  0  0  0  0  0
  -24.5787  -30.7757   25.6817 H   0  0  0  0  0  0  0  0  0  0  0  0
  -25.0041  -32.2289   26.5536 H   0  0  0  0  0  0  0  0  0  0  0  0
  -25.8166  -30.7245   26.9138 H   0  0  0  0  0  0  0  0  0  0  0  0
  -26.2892  -29.7335   24.0803 H   0  0  0  0  0  0  0  0  0  0  0  0
  -27.4336  -29.7484   25.4006 H   0  0  0  0  0  0  0  0  0  0  0  0
  -27.8466  -30.4994   23.8779 H   0  0  0  0  0  0  0  0  0  0  0  0
  -27.2251  -33.3632   26.1242 H   0  0  0  0  0  0  0  0  0  0  0  0
  -28.3902  -32.6065   25.0645 H   0  0  0  0  0  0  0  0  0  0  0  0
  -27.9772  -31.8555   26.5872 H   0  0  0  0  0  0  0  0  0  0  0  0
  -28.2744  -38.0016   24.6863 H   0  0  0  0  0  0  0  0  0  0  0  0
  -28.0396  -36.2711   24.7461 H   0  0  0  0  0  0  0  0  0  0  0  0
  -27.1773  -37.3087   25.8564 H   0  0  0  0  0  0  0  0  0  0  0  0
  -20.9627  -29.9365   21.7352 H   0  0  0  0  0  0  0  0  0  0  0  0
  -26.0447  -38.2561   24.0273 H   0  0  0  0  0  0  0  0  0  0  0  0
  -31.2443  -17.9507   19.2818 H   0  0  0  0  0  0  0  0  0  0  0  0
  -27.3037  -18.4186   20.5550 H   0  0  0  0  0  0  0  0  0  0  0  0
  -32.5399  -19.7629   18.7486 H   0  0  0  0  0  0  0  0  0  0  0  0
  -32.2061  -21.1922   19.6966 H   0  0  0  0  0  0  0  0  0  0  0  0
  -31.6591  -21.0952   18.0399 H   0  0  0  0  0  0  0  0  0  0  0  0
  -27.6502  -22.8297   19.9553 H   0  0  0  0  0  0  0  0  0  0  0  0
  -28.7329  -22.8614   21.3305 H   0  0  0  0  0  0  0  0  0  0  0  0
  -28.4431  -25.5682   21.6064 H   0  0  0  0  0  0  0  0  0  0  0  0
  -27.1769  -25.2464   20.4055 H   0  0  0  0  0  0  0  0  0  0  0  0
  -28.1758  -16.2991   19.9045 H   0  0  0  0  0  0  0  0  0  0  0  0
  -30.2493  -22.4454   19.0350 H   0  0  0  0  0  0  0  0  0  0  0  0
  1 25  1  0
  1 30  2  0
  1 81  1  0
  2  3  1  0
  2 25  1  0
  2 84  1  0
  2 85  1  0
  3  4  1  0
  3 86  1  0
  3 87  1  0
  4  5  1  0
  4 88  1  0
  4 89  1  0
  5  6  1  0
  5 26  1  0
  5 90  1  6
  6 25  1  0
  6 91  1  0
  6 92  1  0
  7  8  2  0
  7 26  1  0
  7 29  1  0
  8  9  1  0
  8 22  1  0
  9 10  1  0
  9 27  2  0
 10 11  2  0
 10 15  1  0
 11 12  1  0
 11 93  1  0
 12 13  2  0
 12 94  1  0
 13 14  1  0
 13 31  1  0
 14 15  2  0
 14 95  1  0
 15 96  1  0
 16 17  2  0
 16 21  1  0
 16 31  1  0
 17 18  1  0
 17 97  1  0
 18 19  2  0
 18 98  1  0
 19 20  1  0
 19 24  1  0
 20 21  2  0
 20 99  1  0
 21 23  1  0
 22 28  1  0
 22 32  2  0
 26 27  1  0
 28100  1  0
 28101  1  0
 29102  1  0
 29103  1  0
 33 34  1  0
 33 66  1  0
 33 70  2  0
 34 36  1  0
 34 59  1  0
 34104  1  6
 35 44  2  0
 35 45  1  0
 35 68  1  0
 36 56  1  0
 36105  1  0
 37 39  1  0
 37 47  1  0
 37 66  1  0
 37106  1  6
 38 43  2  0
 38 46  1  0
 38 47  1  0
 39 64  1  0
 39 67  2  0
 40 52  1  0
 40 53  2  0
 40 58  1  0
 41107  1  0
 41108  1  0
 41109  1  0
 42 43  1  0
 42 66  1  0
 42110  1  0
 42111  1  0
 43 44  1  0
 44112  1  0
 45 46  2  0
 45113  1  0
 46114  1  0
 47115  1  0
 47116  1  0
 48 41  1  0
 48 56  1  0
 48 65  1  0
 48117  1  1
 49 50  1  0
 49 53  1  0
 49 64  1  0
 49118  1  1
 50 51  1  0
 50119  1  0
 50120  1  0
 51 52  1  0
 51121  1  0
 51122  1  0
 52123  1  0
 52124  1  0
 53 54  1  0
 54 55  2  0
 54125  1  0
 55 57  1  0
 55126  1  0
 56 69  2  0
 57 58  2  0
 57127  1  0
 58128  1  0
 59 60  1  0
 59 61  1  0
 59 62  1  0
 60129  1  0
 60130  1  0
 60131  1  0
 61132  1  0
 61133  1  0
 61134  1  0
 62135  1  0
 62136  1  0
 62137  1  0
 63 65  1  0
 63138  1  0
 63139  1  0
 63140  1  0
 64141  1  0
 65142  1  0
 68 79  1  0
 71 73  2  0
 71 74  1  0
 71143  1  0
 72 74  2  0
 72 80  1  0
 72144  1  0
 73 75  1  0
 73 77  1  0
 74 81  1  0
 75 80  2  0
 75 82  1  0
 76 78  1  0
 76 79  1  0
 76 83  2  0
 77145  1  0
 77146  1  0
 77147  1  0
 78 82  1  0
 78148  1  0
 78149  1  0
 79150  1  0
 79151  1  0
 81152  1  0
 82153  1  0
M  ISO  4   1 100  68 101  79 101  81 100
M  END
$$$$
65
     RDKit          3D

155163  0  0  0  0  0  0  0  0999 V2000
  -30.7652  -14.3608   20.6636 C   0  0  0  0  0  0  0  0  0100  0  0
  -30.4392  -12.2669   19.3775 C   0  0  0  0  0  0  0  0  0101  0  0
  -29.4791  -12.5281   18.1977 C   0  0  0  0  0  0  0  0  0102  0  0
  -27.9985  -12.3963   18.6038 C   0  0  0  0  0  0  0  0  0103  0  0
  -27.6639  -13.2170   19.8820 C   0  0  2  0  0  0  0  0  0104  0  0
  -28.6795  -12.9602   21.0279 C   0  0  0  0  0  0  0  0  0105  0  0
  -25.2633  -13.8245   20.5754 C   0  0  0  0  0  0  0  0  0106  0  0
  -24.1645  -13.0409   20.9408 C   0  0  0  0  0  0  0  0  0107  0  0
  -24.6400  -11.7009   20.8697 C   0  0  0  0  0  0  0  0  0108  0  0
  -23.9005  -10.4085   21.0420 C   0  0  0  0  0  0  0  0  0109  0  0
  -24.3588   -9.4123   21.9123 C   0  0  0  0  0  0  0  0  0110  0  0
  -23.6296   -8.2350   22.0803 C   0  0  0  0  0  0  0  0  0111  0  0
  -22.4385   -8.0419   21.3657 C   0  0  0  0  0  0  0  0  0112  0  0
  -22.0103   -9.0167   20.4678 C   0  0  0  0  0  0  0  0  0113  0  0
  -22.7317  -10.1925   20.3102 C   0  0  0  0  0  0  0  0  0114  0  0
  -21.6857   -6.0709   22.5391 C   0  0  0  0  0  0  0  0  0115  0  0
  -21.4064   -6.5490   23.8264 C   0  0  0  0  0  0  0  0  0116  0  0
  -21.3635   -5.6677   24.9085 C   0  0  0  0  0  0  0  0  0117  0  0
  -21.5973   -4.3067   24.7088 C   0  0  0  0  0  0  0  0  0118  0  0
  -21.8700   -3.8284   23.4282 C   0  0  0  0  0  0  0  0  0119  0  0
  -21.9144   -4.7056   22.3460 C   0  0  0  0  0  0  0  0  0120  0  0
  -22.8194  -13.5263   21.1763 C   0  0  0  0  0  0  0  0  0121  0  0
  -22.1559   -4.2206   21.1063 F   0  0  0  0  0  0  0  0  0122  0  0
  -21.5628   -3.4510   25.7555 F   0  0  0  0  0  0  0  0  0123  0  0
  -30.0261  -13.1803   20.4553 N   0  0  0  0  0  0  0  0  0124  0  0
  -26.2911  -12.9356   20.3443 N   0  0  0  0  0  0  0  0  0125  0  0
  -25.9236  -11.6675   20.5847 N   0  0  0  0  0  0  0  0  0126  0  0
  -22.0708  -12.7905   22.0005 N   0  0  0  0  0  0  0  0  0127  0  0
  -25.4117  -15.1773   20.4097 N   0  0  0  0  0  0  0  0  0128  0  0
  -31.7916  -14.6724   20.0536 O   0  0  0  0  0  0  0  0  0129  0  0
  -21.6670   -6.9022   21.4423 O   0  0  0  0  0  0  0  0  0130  0  0
  -22.3946  -14.5564   20.6568 O   0  0  0  0  0  0  0  0  0131  0  0
  -24.6048  -31.8614   23.2223 C   0  0  0  0  0  0  0  0  0100  0  0
  -25.8822  -32.4841   23.8616 C   0  0  1  0  0  0  0  0  0101  0  0
  -27.2536  -27.5042   20.1156 C   0  0  0  0  0  0  0  0  0102  0  0
  -25.5726  -33.8762   24.2210 N   0  0  0  0  0  0  0  0  0103  0  0
  -23.4066  -30.4859   21.5461 C   0  0  2  0  0  0  0  0  0104  0  0
  -24.8467  -28.9636   20.1247 C   0  0  0  0  0  0  0  0  0105  0  0
  -22.7412  -29.4652   22.5052 C   0  0  0  0  0  0  0  0  0106  0  0
  -18.0167  -28.1302   22.8626 C   0  0  0  0  0  0  0  0  0107  0  0
  -24.1342  -36.7390   23.2568 C   0  0  0  0  0  0  0  0  0108  0  0
  -25.9141  -30.8882   21.3456 C   0  0  0  0  0  0  0  0  0109  0  0
  -25.9930  -29.5029   20.7208 C   0  0  0  0  0  0  0  0  0110  0  0
  -27.1758  -28.7612   20.7331 C   0  0  0  0  0  0  0  0  0111  0  0
  -26.1032  -26.9836   19.5230 C   0  0  0  0  0  0  0  0  0112  0  0
  -24.9097  -27.7011   19.5331 C   0  0  0  0  0  0  0  0  0113  0  0
  -23.5715  -29.7899   20.1582 C   0  0  0  0  0  0  0  0  0114  0  0
  -25.3990  -36.3212   24.0232 C   0  0  1  0  0  0  0  0  0115  0  0
  -20.5793  -28.3813   23.1004 C   0  0  2  0  0  0  0  0  0116  0  0
  -20.6548  -26.9392   22.5411 C   0  0  0  0  0  0  0  0  0117  0  0
  -19.5615  -26.6407   21.5143 C   0  0  0  0  0  0  0  0  0118  0  0
  -18.1797  -26.7818   22.1673 C   0  0  0  0  0  0  0  0  0119  0  0
  -19.1385  -28.8769   23.2988 C   0  0  0  0  0  0  0  0  0120  0  0
  -18.9183  -30.1286   23.8878 C   0  0  0  0  0  0  0  0  0121  0  0
  -17.6396  -30.6493   24.0352 C   0  0  0  0  0  0  0  0  0122  0  0
  -25.9153  -34.9582   23.4993 C   0  0  0  0  0  0  0  0  0123  0  0
  -16.5415  -29.9068   23.6254 C   0  0  0  0  0  0  0  0  0124  0  0
  -16.7331  -28.6521   23.0586 C   0  0  0  0  0  0  0  0  0125  0  0
  -26.4583  -31.6439   25.0683 C   0  0  0  0  0  0  0  0  0126  0  0
  -25.3807  -31.3179   26.1374 C   0  0  0  0  0  0  0  0  0127  0  0
  -27.0530  -30.3024   24.5680 C   0  0  0  0  0  0  0  0  0128  0  0
  -27.6014  -32.4281   25.7651 C   0  0  0  0  0  0  0  0  0129  0  0
  -27.5629  -37.2220   24.8621 C   0  0  0  0  0  0  0  0  0130  0  0
  -21.4133  -29.3375   22.3735 N   0  0  0  0  0  0  0  0  0131  0  0
  -26.4706  -37.3372   23.9061 N   0  0  0  0  0  0  0  0  0132  0  0
  -24.6674  -31.0544   22.1178 N   0  0  0  0  0  0  0  0  0133  0  0
  -23.4259  -28.8150   23.2971 O   0  0  0  0  0  0  0  0  0134  0  0
  -28.3948  -26.7345   20.0089 O   0  0  0  0  0  0  0  0  0135  0  0
  -26.5870  -34.9065   22.4671 O   0  0  0  0  0  0  0  0  0136  0  0
  -23.5365  -32.1254   23.7833 O   0  0  0  0  0  0  0  0  0137  0  0
  -24.2027  -18.7476   20.0352 C   0  0  0  0  0  0  0  0  0  0  0  0
  -25.2102  -20.8994   19.5973 C   0  0  0  0  0  0  0  0  0  0  0  0
  -24.0727  -20.1059   19.7459 C   0  0  0  0  0  0  0  0  0  0  0  0
  -25.4703  -18.1828   20.1761 C   0  0  0  0  0  0  0  0  0  0  0  0
  -26.4778  -20.3345   19.7381 C   0  0  0  0  0  0  0  0  0  0  0  0
  -26.6078  -18.9762   20.0274 C   0  0  0  0  0  0  0  0  0  0  0  0
  -22.7510  -20.6950   19.5987 C   0  0  0  0  0  0  0  0  0  0  0  0
  -28.9934  -23.0909   19.4844 C   0  0  0  0  0  0  0  0  0  0  0  0
  -29.2102  -24.5899   19.5543 C   0  0  0  0  0  0  0  0  0  0  0  0
  -27.5993  -22.5632   19.7050 C   0  0  0  0  0  0  0  0  0  0  0  0
  -28.0213  -25.4733   19.8361 C   0  0  0  0  0  0  0  0  0  1  0  0
  -25.5996  -16.8025   20.4694 N   0  0  0  0  0  0  0  0  0  0  0  0
  -27.6069  -21.1256   19.5898 N   0  0  0  0  0  0  0  0  0  0  0  0
  -22.5701  -21.8888   19.3437 O   0  0  0  0  0  0  0  0  0  0  0  0
  -29.9751  -22.3967   19.2518 O   0  0  0  0  0  0  0  0  0  0  0  0
  -30.3481  -25.0042   19.3743 O   0  0  0  0  0  0  0  0  0  0  0  0
  -27.8276  -18.4336   20.1630 F   0  0  0  0  0  0  0  0  0  0  0  0
  -31.4485  -12.4701   19.0860 H   0  0  0  0  0  0  0  0  0  0  0  0
  -30.3970  -11.2460   19.6950 H   0  0  0  0  0  0  0  0  0  0  0  0
  -29.6870  -11.8204   17.4226 H   0  0  0  0  0  0  0  0  0  0  0  0
  -29.6375  -13.5326   17.8649 H   0  0  0  0  0  0  0  0  0  0  0  0
  -27.7830  -11.3650   18.7904 H   0  0  0  0  0  0  0  0  0  0  0  0
  -27.4028  -12.7801   17.8021 H   0  0  0  0  0  0  0  0  0  0  0  0
  -27.7353  -14.2503   19.6136 H   0  0  0  0  0  0  0  0  0  0  0  0
  -28.5890  -11.9550   21.3832 H   0  0  0  0  0  0  0  0  0  0  0  0
  -28.5005  -13.6134   21.8562 H   0  0  0  0  0  0  0  0  0  0  0  0
  -25.2399   -9.5495   22.4318 H   0  0  0  0  0  0  0  0  0  0  0  0
  -23.9663   -7.5070   22.7297 H   0  0  0  0  0  0  0  0  0  0  0  0
  -21.1515   -8.8641   19.9162 H   0  0  0  0  0  0  0  0  0  0  0  0
  -22.4016  -10.9115   19.6476 H   0  0  0  0  0  0  0  0  0  0  0  0
  -21.2319   -7.5552   23.9750 H   0  0  0  0  0  0  0  0  0  0  0  0
  -21.1589   -6.0228   25.8556 H   0  0  0  0  0  0  0  0  0  0  0  0
  -22.0396   -2.8212   23.2809 H   0  0  0  0  0  0  0  0  0  0  0  0
  -22.4401  -11.9703   22.4008 H   0  0  0  0  0  0  0  0  0  0  0  0
  -21.1493  -13.0679   22.2082 H   0  0  0  0  0  0  0  0  0  0  0  0
  -24.6538  -15.7807   20.5848 H   0  0  0  0  0  0  0  0  0  0  0  0
  -26.2762  -15.5453   20.1156 H   0  0  0  0  0  0  0  0  0  0  0  0
  -26.6778  -32.4663   23.1464 H   0  0  0  0  0  0  0  0  0  0  0  0
  -25.0747  -34.0282   25.0566 H   0  0  0  0  0  0  0  0  0  0  0  0
  -22.7881  -31.3489   21.4131 H   0  0  0  0  0  0  0  0  0  0  0  0
  -23.3854  -35.9823   23.3648 H   0  0  0  0  0  0  0  0  0  0  0  0
  -24.3696  -36.8624   22.2204 H   0  0  0  0  0  0  0  0  0  0  0  0
  -23.7669  -37.6632   23.6516 H   0  0  0  0  0  0  0  0  0  0  0  0
  -25.9445  -31.6237   20.5691 H   0  0  0  0  0  0  0  0  0  0  0  0
  -26.7436  -31.0079   22.0108 H   0  0  0  0  0  0  0  0  0  0  0  0
  -28.0090  -29.1452   21.2057 H   0  0  0  0  0  0  0  0  0  0  0  0
  -26.1369  -26.0560   19.0719 H   0  0  0  0  0  0  0  0  0  0  0  0
  -24.0652  -27.2961   19.0997 H   0  0  0  0  0  0  0  0  0  0  0  0
  -23.6156  -30.5365   19.3930 H   0  0  0  0  0  0  0  0  0  0  0  0
  -22.7355  -29.1425   19.9945 H   0  0  0  0  0  0  0  0  0  0  0  0
  -25.1353  -36.2335   25.0565 H   0  0  0  0  0  0  0  0  0  0  0  0
  -21.0070  -28.3206   24.0793 H   0  0  0  0  0  0  0  0  0  0  0  0
  -20.5555  -26.2518   23.3550 H   0  0  0  0  0  0  0  0  0  0  0  0
  -21.5974  -26.8362   22.0454 H   0  0  0  0  0  0  0  0  0  0  0  0
  -19.6810  -25.6422   21.1488 H   0  0  0  0  0  0  0  0  0  0  0  0
  -19.6406  -27.3343   20.7034 H   0  0  0  0  0  0  0  0  0  0  0  0
  -17.4282  -26.6888   21.4113 H   0  0  0  0  0  0  0  0  0  0  0  0
  -18.0803  -26.0130   22.9049 H   0  0  0  0  0  0  0  0  0  0  0  0
  -19.7265  -30.6774   24.2204 H   0  0  0  0  0  0  0  0  0  0  0  0
  -17.5064  -31.5856   24.4483 H   0  0  0  0  0  0  0  0  0  0  0  0
  -15.5878  -30.2839   23.7407 H   0  0  0  0  0  0  0  0  0  0  0  0
  -15.9120  -28.0941   22.7766 H   0  0  0  0  0  0  0  0  0  0  0  0
  -24.5787  -30.7757   25.6817 H   0  0  0  0  0  0  0  0  0  0  0  0
  -25.0041  -32.2289   26.5536 H   0  0  0  0  0  0  0  0  0  0  0  0
  -25.8166  -30.7245   26.9138 H   0  0  0  0  0  0  0  0  0  0  0  0
  -26.2892  -29.7335   24.0803 H   0  0  0  0  0  0  0  0  0  0  0  0
  -27.4336  -29.7484   25.4006 H   0  0  0  0  0  0  0  0  0  0  0  0
  -27.8466  -30.4994   23.8779 H   0  0  0  0  0  0  0  0  0  0  0  0
  -27.2251  -33.3632   26.1242 H   0  0  0  0  0  0  0  0  0  0  0  0
  -28.3902  -32.6065   25.0645 H   0  0  0  0  0  0  0  0  0  0  0  0
  -27.9772  -31.8555   26.5872 H   0  0  0  0  0  0  0  0  0  0  0  0
  -28.2744  -38.0016   24.6863 H   0  0  0  0  0  0  0  0  0  0  0  0
  -28.0396  -36.2711   24.7461 H   0  0  0  0  0  0  0  0  0  0  0  0
  -27.1773  -37.3087   25.8564 H   0  0  0  0  0  0  0  0  0  0  0  0
  -20.9627  -29.9365   21.7352 H   0  0  0  0  0  0  0  0  0  0  0  0
  -26.0447  -38.2561   24.0273 H   0  0  0  0  0  0  0  0  0  0  0  0
  -23.3611  -18.1605   20.1450 H   0  0  0  0  0  0  0  0  0  0  0  0
  -25.1140  -21.9044   19.3832 H   0  0  0  0  0  0  0  0  0  0  0  0
  -21.9257  -20.0860   19.7129 H   0  0  0  0  0  0  0  0  0  0  0  0
  -26.9407  -22.9767   18.9700 H   0  0  0  0  0  0  0  0  0  0  0  0
  -27.2624  -22.8415   20.6817 H   0  0  0  0  0  0  0  0  0  0  0  0
  -27.5322  -25.1288   20.7232 H   0  0  0  0  0  0  0  0  0  0  0  0
  -27.3568  -25.4269   18.9987 H   0  0  0  0  0  0  0  0  0  0  0  0
  -24.7954  -16.2610   20.6407 H   0  0  0  0  0  0  0  0  0  0  0  0
  -28.4630  -20.6803   19.3946 H   0  0  0  0  0  0  0  0  0  0  0  0
  1 25  1  0
  1 30  2  0
  1 82  1  0
  2  3  1  0
  2 25  1  0
  2 88  1  0
  2 89  1  0
  3  4  1  0
  3 90  1  0
  3 91  1  0
  4  5  1  0
  4 92  1  0
  4 93  1  0
  5  6  1  0
  5 26  1  0
  5 94  1  6
  6 25  1  0
  6 95  1  0
  6 96  1  0
  7  8  2  0
  7 26  1  0
  7 29  1  0
  8  9  1  0
  8 22  1  0
  9 10  1  0
  9 27  2  0
 10 11  2  0
 10 15  1  0
 11 12  1  0
 11 97  1  0
 12 13  2  0
 12 98  1  0
 13 14  1  0
 13 31  1  0
 14 15  2  0
 14 99  1  0
 15100  1  0
 16 17  2  0
 16 21  1  0
 16 31  1  0
 17 18  1  0
 17101  1  0
 18 19  2  0
 18102  1  0
 19 20  1  0
 19 24  1  0
 20 21  2  0
 20103  1  0
 21 23  1  0
 22 28  1  0
 22 32  2  0
 26 27  1  0
 28104  1  0
 28105  1  0
 29106  1  0
 29107  1  0
 33 34  1  0
 33 66  1  0
 33 70  2  0
 34 36  1  0
 34 59  1  0
 34108  1  6
 35 44  2  0
 35 45  1  0
 35 68  1  0
 36 56  1  0
 36109  1  0
 37 39  1  0
 37 47  1  0
 37 66  1  0
 37110  1  6
 38 43  2  0
 38 46  1  0
 38 47  1  0
 39 64  1  0
 39 67  2  0
 40 52  1  0
 40 53  2  0
 40 58  1  0
 41111  1  0
 41112  1  0
 41113  1  0
 42 43  1  0
 42 66  1  0
 42114  1  0
 42115  1  0
 43 44  1  0
 44116  1  0
 45 46  2  0
 45117  1  0
 46118  1  0
 47119  1  0
 47120  1  0
 48 41  1  0
 48 56  1  0
 48 65  1  0
 48121  1  1
 49 50  1  0
 49 53  1  0
 49 64  1  0
 49122  1  1
 50 51  1  0
 50123  1  0
 50124  1  0
 51 52  1  0
 51125  1  0
 51126  1  0
 52127  1  0
 52128  1  0
 53 54  1  0
 54 55  2  0
 54129  1  0
 55 57  1  0
 55130  1  0
 56 69  2  0
 57 58  2  0
 57131  1  0
 58132  1  0
 59 60  1  0
 59 61  1  0
 59 62  1  0
 60133  1  0
 60134  1  0
 60135  1  0
 61136  1  0
 61137  1  0
 61138  1  0
 62139  1  0
 62140  1  0
 62141  1  0
 63 65  1  0
 63142  1  0
 63143  1  0
 63144  1  0
 64145  1  0
 65146  1  0
 68 81  1  0
 71 73  2  0
 71 74  1  0
 71147  1  0
 72 73  1  0
 72 75  2  0
 72148  1  0
 73 77  1  0
 74 76  2  0
 74 82  1  0
 75 76  1  0
 75 83  1  0
 76 87  1  0
 77 84  2  0
 77149  1  0
 78 79  1  0
 78 80  1  0
 78 85  2  0
 79 81  1  0
 79 86  2  0
 80 83  1  0
 80150  1  0
 80151  1  0
 81152  1  0
 81153  1  0
 82154  1  0
 83155  1  0
M  ISO  4   1 100  68 101  81 101  82 100
M  END
$$$$
66
     RDKit          3D

158166  0  0  0  0  0  0  0  0999 V2000
  -30.7652  -14.3608   20.6636 C   0  0  0  0  0  0  0  0  0100  0  0
  -30.4392  -12.2669   19.3775 C   0  0  0  0  0  0  0  0  0101  0  0
  -29.4791  -12.5281   18.1977 C   0  0  0  0  0  0  0  0  0102  0  0
  -27.9985  -12.3963   18.6038 C   0  0  0  0  0  0  0  0  0103  0  0
  -27.6639  -13.2170   19.8820 C   0  0  2  0  0  0  0  0  0104  0  0
  -28.6795  -12.9602   21.0279 C   0  0  0  0  0  0  0  0  0105  0  0
  -25.2633  -13.8245   20.5754 C   0  0  0  0  0  0  0  0  0106  0  0
  -24.1645  -13.0409   20.9408 C   0  0  0  0  0  0  0  0  0107  0  0
  -24.6400  -11.7009   20.8697 C   0  0  0  0  0  0  0  0  0108  0  0
  -23.9005  -10.4085   21.0420 C   0  0  0  0  0  0  0  0  0109  0  0
  -24.3588   -9.4123   21.9123 C   0  0  0  0  0  0  0  0  0110  0  0
  -23.6296   -8.2350   22.0803 C   0  0  0  0  0  0  0  0  0111  0  0
  -22.4385   -8.0419   21.3657 C   0  0  0  0  0  0  0  0  0112  0  0
  -22.0103   -9.0167   20.4678 C   0  0  0  0  0  0  0  0  0113  0  0
  -22.7317  -10.1925   20.3102 C   0  0  0  0  0  0  0  0  0114  0  0
  -21.6857   -6.0709   22.5391 C   0  0  0  0  0  0  0  0  0115  0  0
  -21.4064   -6.5490   23.8264 C   0  0  0  0  0  0  0  0  0116  0  0
  -21.3635   -5.6677   24.9085 C   0  0  0  0  0  0  0  0  0117  0  0
  -21.5973   -4.3067   24.7088 C   0  0  0  0  0  0  0  0  0118  0  0
  -21.8700   -3.8284   23.4282 C   0  0  0  0  0  0  0  0  0119  0  0
  -21.9144   -4.7056   22.3460 C   0  0  0  0  0  0  0  0  0120  0  0
  -22.8194  -13.5263   21.1763 C   0  0  0  0  0  0  0  0  0121  0  0
  -22.1559   -4.2206   21.1063 F   0  0  0  0  0  0  0  0  0122  0  0
  -21.5628   -3.4510   25.7555 F   0  0  0  0  0  0  0  0  0123  0  0
  -30.0261  -13.1803   20.4553 N   0  0  0  0  0  0  0  0  0124  0  0
  -26.2911  -12.9356   20.3443 N   0  0  0  0  0  0  0  0  0125  0  0
  -25.9236  -11.6675   20.5847 N   0  0  0  0  0  0  0  0  0126  0  0
  -22.0708  -12.7905   22.0005 N   0  0  0  0  0  0  0  0  0127  0  0
  -25.4117  -15.1773   20.4097 N   0  0  0  0  0  0  0  0  0128  0  0
  -31.7916  -14.6724   20.0536 O   0  0  0  0  0  0  0  0  0129  0  0
  -21.6670   -6.9022   21.4423 O   0  0  0  0  0  0  0  0  0130  0  0
  -22.3946  -14.5564   20.6568 O   0  0  0  0  0  0  0  0  0131  0  0
  -24.6048  -31.8614   23.2223 C   0  0  0  0  0  0  0  0  0100  0  0
  -25.8822  -32.4841   23.8616 C   0  0  1  0  0  0  0  0  0101  0  0
  -27.2536  -27.5042   20.1156 C   0  0  0  0  0  0  0  0  0102  0  0
  -25.5726  -33.8762   24.2210 N   0  0  0  0  0  0  0  0  0103  0  0
  -23.4066  -30.4859   21.5461 C   0  0  2  0  0  0  0  0  0104  0  0
  -24.8467  -28.9636   20.1247 C   0  0  0  0  0  0  0  0  0105  0  0
  -22.7412  -29.4652   22.5052 C   0  0  0  0  0  0  0  0  0106  0  0
  -18.0167  -28.1302   22.8626 C   0  0  0  0  0  0  0  0  0107  0  0
  -24.1342  -36.7390   23.2568 C   0  0  0  0  0  0  0  0  0108  0  0
  -25.9141  -30.8882   21.3456 C   0  0  0  0  0  0  0  0  0109  0  0
  -25.9930  -29.5029   20.7208 C   0  0  0  0  0  0  0  0  0110  0  0
  -27.1758  -28.7612   20.7331 C   0  0  0  0  0  0  0  0  0111  0  0
  -26.1032  -26.9836   19.5230 C   0  0  0  0  0  0  0  0  0112  0  0
  -24.9097  -27.7011   19.5331 C   0  0  0  0  0  0  0  0  0113  0  0
  -23.5715  -29.7899   20.1582 C   0  0  0  0  0  0  0  0  0114  0  0
  -25.3990  -36.3212   24.0232 C   0  0  1  0  0  0  0  0  0115  0  0
  -20.5793  -28.3813   23.1004 C   0  0  2  0  0  0  0  0  0116  0  0
  -20.6548  -26.9392   22.5411 C   0  0  0  0  0  0  0  0  0117  0  0
  -19.5615  -26.6407   21.5143 C   0  0  0  0  0  0  0  0  0118  0  0
  -18.1797  -26.7818   22.1673 C   0  0  0  0  0  0  0  0  0119  0  0
  -19.1385  -28.8769   23.2988 C   0  0  0  0  0  0  0  0  0120  0  0
  -18.9183  -30.1286   23.8878 C   0  0  0  0  0  0  0  0  0121  0  0
  -17.6396  -30.6493   24.0352 C   0  0  0  0  0  0  0  0  0122  0  0
  -25.9153  -34.9582   23.4993 C   0  0  0  0  0  0  0  0  0123  0  0
  -16.5415  -29.9068   23.6254 C   0  0  0  0  0  0  0  0  0124  0  0
  -16.7331  -28.6521   23.0586 C   0  0  0  0  0  0  0  0  0125  0  0
  -26.4583  -31.6439   25.0683 C   0  0  0  0  0  0  0  0  0126  0  0
  -25.3807  -31.3179   26.1374 C   0  0  0  0  0  0  0  0  0127  0  0
  -27.0530  -30.3024   24.5680 C   0  0  0  0  0  0  0  0  0128  0  0
  -27.6014  -32.4281   25.7651 C   0  0  0  0  0  0  0  0  0129  0  0
  -27.5629  -37.2220   24.8621 C   0  0  0  0  0  0  0  0  0130  0  0
  -21.4133  -29.3375   22.3735 N   0  0  0  0  0  0  0  0  0131  0  0
  -26.4706  -37.3372   23.9061 N   0  0  0  0  0  0  0  0  0132  0  0
  -24.6674  -31.0544   22.1178 N   0  0  0  0  0  0  0  0  0133  0  0
  -23.4259  -28.8150   23.2971 O   0  0  0  0  0  0  0  0  0134  0  0
  -28.3948  -26.7345   20.0089 O   0  0  0  0  0  0  0  0  0135  0  0
  -26.5870  -34.9065   22.4671 O   0  0  0  0  0  0  0  0  0136  0  0
  -23.5365  -32.1254   23.7833 O   0  0  0  0  0  0  0  0  0137  0  0
  -29.4595  -19.9251   18.6815 C   0  0  0  0  0  0  0  0  0  0  0  0
  -31.1386  -19.7842   20.4130 C   0  0  0  0  0  0  0  0  0  0  0  0
  -29.5880  -18.5564   18.4455 C   0  0  0  0  0  0  0  0  0  0  0  0
  -30.4918  -17.8015   19.1933 C   0  0  0  0  0  0  0  0  0  0  0  0
  -30.2348  -20.5390   19.6652 C   0  0  0  0  0  0  0  0  0  0  0  0
  -31.2671  -18.4155   20.1770 C   0  0  0  0  0  0  0  0  0  0  0  0
  -28.3537  -25.0366   19.7810 C   0  0  0  0  0  0  0  0  0  1  0  0
  -29.4096  -24.2143   19.8013 C   0  0  0  0  0  0  0  0  0  0  0  0
  -29.2584  -22.8228   19.2636 C   0  0  0  0  0  0  0  0  0  0  0  0
  -28.7470  -17.9237   17.3855 C   0  0  0  0  0  0  0  0  0  0  0  0
  -30.6269  -16.3333   18.9371 C   0  0  0  0  0  0  0  0  0  0  0  0
  -32.1876  -17.6683   20.9448 N   0  0  0  0  0  0  0  0  0  0  0  0
  -30.1033  -21.9280   19.9057 N   0  0  0  0  0  0  0  0  0  0  0  0
  -27.6529  -17.1574   17.9390 N   0  0  0  0  0  0  0  0  0  0  0  0
  -28.4628  -22.5784   18.3629 O   0  0  0  0  0  0  0  0  0  0  0  0
  -30.6389  -24.5970   20.2982 O   0  0  0  0  0  0  0  0  0  0  0  0
  -29.8058  -15.8775   17.9479 F   0  0  0  0  0  0  0  0  0  0  0  0
  -31.8844  -15.9625   18.5613 F   0  0  0  0  0  0  0  0  0  0  0  0
  -30.3328  -15.5843   20.0372 F   0  0  0  0  0  0  0  0  0  0  0  0
  -31.4485  -12.4701   19.0860 H   0  0  0  0  0  0  0  0  0  0  0  0
  -30.3970  -11.2460   19.6950 H   0  0  0  0  0  0  0  0  0  0  0  0
  -29.6870  -11.8204   17.4226 H   0  0  0  0  0  0  0  0  0  0  0  0
  -29.6375  -13.5326   17.8649 H   0  0  0  0  0  0  0  0  0  0  0  0
  -27.7830  -11.3650   18.7904 H   0  0  0  0  0  0  0  0  0  0  0  0
  -27.4028  -12.7801   17.8021 H   0  0  0  0  0  0  0  0  0  0  0  0
  -27.7353  -14.2503   19.6136 H   0  0  0  0  0  0  0  0  0  0  0  0
  -28.5890  -11.9550   21.3832 H   0  0  0  0  0  0  0  0  0  0  0  0
  -28.5005  -13.6134   21.8562 H   0  0  0  0  0  0  0  0  0  0  0  0
  -25.2399   -9.5495   22.4318 H   0  0  0  0  0  0  0  0  0  0  0  0
  -23.9663   -7.5070   22.7297 H   0  0  0  0  0  0  0  0  0  0  0  0
  -21.1515   -8.8641   19.9162 H   0  0  0  0  0  0  0  0  0  0  0  0
  -22.4016  -10.9115   19.6476 H   0  0  0  0  0  0  0  0  0  0  0  0
  -21.2319   -7.5552   23.9750 H   0  0  0  0  0  0  0  0  0  0  0  0
  -21.1589   -6.0228   25.8556 H   0  0  0  0  0  0  0  0  0  0  0  0
  -22.0396   -2.8212   23.2809 H   0  0  0  0  0  0  0  0  0  0  0  0
  -22.4401  -11.9703   22.4008 H   0  0  0  0  0  0  0  0  0  0  0  0
  -21.1493  -13.0679   22.2082 H   0  0  0  0  0  0  0  0  0  0  0  0
  -24.6538  -15.7807   20.5848 H   0  0  0  0  0  0  0  0  0  0  0  0
  -26.2762  -15.5453   20.1156 H   0  0  0  0  0  0  0  0  0  0  0  0
  -26.6778  -32.4663   23.1464 H   0  0  0  0  0  0  0  0  0  0  0  0
  -25.0747  -34.0282   25.0566 H   0  0  0  0  0  0  0  0  0  0  0  0
  -22.7881  -31.3489   21.4131 H   0  0  0  0  0  0  0  0  0  0  0  0
  -23.3854  -35.9823   23.3648 H   0  0  0  0  0  0  0  0  0  0  0  0
  -24.3696  -36.8624   22.2204 H   0  0  0  0  0  0  0  0  0  0  0  0
  -23.7669  -37.6632   23.6516 H   0  0  0  0  0  0  0  0  0  0  0  0
  -25.9445  -31.6237   20.5691 H   0  0  0  0  0  0  0  0  0  0  0  0
  -26.7436  -31.0079   22.0108 H   0  0  0  0  0  0  0  0  0  0  0  0
  -28.0090  -29.1452   21.2057 H   0  0  0  0  0  0  0  0  0  0  0  0
  -26.1369  -26.0560   19.0719 H   0  0  0  0  0  0  0  0  0  0  0  0
  -24.0652  -27.2961   19.0997 H   0  0  0  0  0  0  0  0  0  0  0  0
  -23.6156  -30.5365   19.3930 H   0  0  0  0  0  0  0  0  0  0  0  0
  -22.7355  -29.1425   19.9945 H   0  0  0  0  0  0  0  0  0  0  0  0
  -25.1353  -36.2335   25.0565 H   0  0  0  0  0  0  0  0  0  0  0  0
  -21.0070  -28.3206   24.0793 H   0  0  0  0  0  0  0  0  0  0  0  0
  -20.5555  -26.2518   23.3550 H   0  0  0  0  0  0  0  0  0  0  0  0
  -21.5974  -26.8362   22.0454 H   0  0  0  0  0  0  0  0  0  0  0  0
  -19.6810  -25.6422   21.1488 H   0  0  0  0  0  0  0  0  0  0  0  0
  -19.6406  -27.3343   20.7034 H   0  0  0  0  0  0  0  0  0  0  0  0
  -17.4282  -26.6888   21.4113 H   0  0  0  0  0  0  0  0  0  0  0  0
  -18.0803  -26.0130   22.9049 H   0  0  0  0  0  0  0  0  0  0  0  0
  -19.7265  -30.6774   24.2204 H   0  0  0  0  0  0  0  0  0  0  0  0
  -17.5064  -31.5856   24.4483 H   0  0  0  0  0  0  0  0  0  0  0  0
  -15.5878  -30.2839   23.7407 H   0  0  0  0  0  0  0  0  0  0  0  0
  -15.9120  -28.0941   22.7766 H   0  0  0  0  0  0  0  0  0  0  0  0
  -24.5787  -30.7757   25.6817 H   0  0  0  0  0  0  0  0  0  0  0  0
  -25.0041  -32.2289   26.5536 H   0  0  0  0  0  0  0  0  0  0  0  0
  -25.8166  -30.7245   26.9138 H   0  0  0  0  0  0  0  0  0  0  0  0
  -26.2892  -29.7335   24.0803 H   0  0  0  0  0  0  0  0  0  0  0  0
  -27.4336  -29.7484   25.4006 H   0  0  0  0  0  0  0  0  0  0  0  0
  -27.8466  -30.4994   23.8779 H   0  0  0  0  0  0  0  0  0  0  0  0
  -27.2251  -33.3632   26.1242 H   0  0  0  0  0  0  0  0  0  0  0  0
  -28.3902  -32.6065   25.0645 H   0  0  0  0  0  0  0  0  0  0  0  0
  -27.9772  -31.8555   26.5872 H   0  0  0  0  0  0  0  0  0  0  0  0
  -28.2744  -38.0016   24.6863 H   0  0  0  0  0  0  0  0  0  0  0  0
  -28.0396  -36.2711   24.7461 H   0  0  0  0  0  0  0  0  0  0  0  0
  -27.1773  -37.3087   25.8564 H   0  0  0  0  0  0  0  0  0  0  0  0
  -20.9627  -29.9365   21.7352 H   0  0  0  0  0  0  0  0  0  0  0  0
  -26.0447  -38.2561   24.0273 H   0  0  0  0  0  0  0  0  0  0  0  0
  -28.7908  -20.4836   18.1283 H   0  0  0  0  0  0  0  0  0  0  0  0
  -31.7122  -20.2384   21.1408 H   0  0  0  0  0  0  0  0  0  0  0  0
  -27.4298  -24.6087   19.6126 H   0  0  0  0  0  0  0  0  0  0  0  0
  -29.3625  -17.2723   16.8009 H   0  0  0  0  0  0  0  0  0  0  0  0
  -28.3293  -18.7067   16.7877 H   0  0  0  0  0  0  0  0  0  0  0  0
  -32.7285  -18.1143   21.6359 H   0  0  0  0  0  0  0  0  0  0  0  0
  -32.2882  -16.7015   20.7888 H   0  0  0  0  0  0  0  0  0  0  0  0
  -30.6786  -22.3032   20.6111 H   0  0  0  0  0  0  0  0  0  0  0  0
  -26.6754  -17.1787   17.8236 H   0  0  0  0  0  0  0  0  0  0  0  0
  -30.7577  -25.4615   20.6396 H   0  0  0  0  0  0  0  0  0  0  0  0
  1 25  1  0
  1 30  2  0
  1 84  1  0
  2  3  1  0
  2 25  1  0
  2 90  1  0
  2 91  1  0
  3  4  1  0
  3 92  1  0
  3 93  1  0
  4  5  1  0
  4 94  1  0
  4 95  1  0
  5  6  1  0
  5 26  1  0
  5 96  1  6
  6 25  1  0
  6 97  1  0
  6 98  1  0
  7  8  2  0
  7 26  1  0
  7 29  1  0
  8  9  1  0
  8 22  1  0
  9 10  1  0
  9 27  2  0
 10 11  2  0
 10 15  1  0
 11 12  1  0
 11 99  1  0
 12 13  2  0
 12100  1  0
 13 14  1  0
 13 31  1  0
 14 15  2  0
 14101  1  0
 15102  1  0
 16 17  2  0
 16 21  1  0
 16 31  1  0
 17 18  1  0
 17103  1  0
 18 19  2  0
 18104  1  0
 19 20  1  0
 19 24  1  0
 20 21  2  0
 20105  1  0
 21 23  1  0
 22 28  1  0
 22 32  2  0
 26 27  1  0
 28106  1  0
 28107  1  0
 29108  1  0
 29109  1  0
 33 34  1  0
 33 66  1  0
 33 70  2  0
 34 36  1  0
 34 59  1  0
 34110  1  6
 35 44  2  0
 35 45  1  0
 35 68  1  0
 36 56  1  0
 36111  1  0
 37 39  1  0
 37 47  1  0
 37 66  1  0
 37112  1  6
 38 43  2  0
 38 46  1  0
 38 47  1  0
 39 64  1  0
 39 67  2  0
 40 52  1  0
 40 53  2  0
 40 58  1  0
 41113  1  0
 41114  1  0
 41115  1  0
 42 43  1  0
 42 66  1  0
 42116  1  0
 42117  1  0
 43 44  1  0
 44118  1  0
 45 46  2  0
 45119  1  0
 46120  1  0
 47121  1  0
 47122  1  0
 48 41  1  0
 48 56  1  0
 48 65  1  0
 48123  1  1
 49 50  1  0
 49 53  1  0
 49 64  1  0
 49124  1  1
 50 51  1  0
 50125  1  0
 50126  1  0
 51 52  1  0
 51127  1  0
 51128  1  0
 52129  1  0
 52130  1  0
 53 54  1  0
 54 55  2  0
 54131  1  0
 55 57  1  0
 55132  1  0
 56 69  2  0
 57 58  2  0
 57133  1  0
 58134  1  0
 59 60  1  0
 59 61  1  0
 59 62  1  0
 60135  1  0
 60136  1  0
 60137  1  0
 61138  1  0
 61139  1  0
 61140  1  0
 62141  1  0
 62142  1  0
 62143  1  0
 63 65  1  0
 63144  1  0
 63145  1  0
 63146  1  0
 64147  1  0
 65148  1  0
 68 77  1  0
 71 73  2  0
 71 75  1  0
 71149  1  0
 72 75  2  0
 72 76  1  0
 72150  1  0
 73 74  1  0
 73 80  1  0
 74 76  2  0
 74 81  1  0
 75 83  1  0
 76 82  1  0
 77 78  2  0
 77151  1  0
 78 79  1  0
 78 86  1  0
 79 83  1  0
 79 85  2  0
 80 84  1  0
 80152  1  0
 80153  1  0
 81 87  1  0
 81 88  1  0
 81 89  1  0
 82154  1  0
 82155  1  0
 83156  1  0
 84157  1  0
 86158  1  0
M  ISO  4   1 100  68 101  77 101  84 100
M  END
$$$$
67
     RDKit          3D

158166  0  0  0  0  0  0  0  0999 V2000
  -30.7652  -14.3608   20.6636 C   0  0  0  0  0  0  0  0  0100  0  0
  -30.4392  -12.2669   19.3775 C   0  0  0  0  0  0  0  0  0101  0  0
  -29.4791  -12.5281   18.1977 C   0  0  0  0  0  0  0  0  0102  0  0
  -27.9985  -12.3963   18.6038 C   0  0  0  0  0  0  0  0  0103  0  0
  -27.6639  -13.2170   19.8820 C   0  0  2  0  0  0  0  0  0104  0  0
  -28.6795  -12.9602   21.0279 C   0  0  0  0  0  0  0  0  0105  0  0
  -25.2633  -13.8245   20.5754 C   0  0  0  0  0  0  0  0  0106  0  0
  -24.1645  -13.0409   20.9408 C   0  0  0  0  0  0  0  0  0107  0  0
  -24.6400  -11.7009   20.8697 C   0  0  0  0  0  0  0  0  0108  0  0
  -23.9005  -10.4085   21.0420 C   0  0  0  0  0  0  0  0  0109  0  0
  -24.3588   -9.4123   21.9123 C   0  0  0  0  0  0  0  0  0110  0  0
  -23.6296   -8.2350   22.0803 C   0  0  0  0  0  0  0  0  0111  0  0
  -22.4385   -8.0419   21.3657 C   0  0  0  0  0  0  0  0  0112  0  0
  -22.0103   -9.0167   20.4678 C   0  0  0  0  0  0  0  0  0113  0  0
  -22.7317  -10.1925   20.3102 C   0  0  0  0  0  0  0  0  0114  0  0
  -21.6857   -6.0709   22.5391 C   0  0  0  0  0  0  0  0  0115  0  0
  -21.4064   -6.5490   23.8264 C   0  0  0  0  0  0  0  0  0116  0  0
  -21.3635   -5.6677   24.9085 C   0  0  0  0  0  0  0  0  0117  0  0
  -21.5973   -4.3067   24.7088 C   0  0  0  0  0  0  0  0  0118  0  0
  -21.8700   -3.8284   23.4282 C   0  0  0  0  0  0  0  0  0119  0  0
  -21.9144   -4.7056   22.3460 C   0  0  0  0  0  0  0  0  0120  0  0
  -22.8194  -13.5263   21.1763 C   0  0  0  0  0  0  0  0  0121  0  0
  -22.1559   -4.2206   21.1063 F   0  0  0  0  0  0  0  0  0122  0  0
  -21.5628   -3.4510   25.7555 F   0  0  0  0  0  0  0  0  0123  0  0
  -30.0261  -13.1803   20.4553 N   0  0  0  0  0  0  0  0  0124  0  0
  -26.2911  -12.9356   20.3443 N   0  0  0  0  0  0  0  0  0125  0  0
  -25.9236  -11.6675   20.5847 N   0  0  0  0  0  0  0  0  0126  0  0
  -22.0708  -12.7905   22.0005 N   0  0  0  0  0  0  0  0  0127  0  0
  -25.4117  -15.1773   20.4097 N   0  0  0  0  0  0  0  0  0128  0  0
  -31.7916  -14.6724   20.0536 O   0  0  0  0  0  0  0  0  0129  0  0
  -21.6670   -6.9022   21.4423 O   0  0  0  0  0  0  0  0  0130  0  0
  -22.3946  -14.5564   20.6568 O   0  0  0  0  0  0  0  0  0131  0  0
  -24.6048  -31.8614   23.2223 C   0  0  0  0  0  0  0  0  0100  0  0
  -25.8822  -32.4841   23.8616 C   0  0  1  0  0  0  0  0  0101  0  0
  -27.2536  -27.5042   20.1156 C   0  0  0  0  0  0  0  0  0102  0  0
  -25.5726  -33.8762   24.2210 N   0  0  0  0  0  0  0  0  0103  0  0
  -23.4066  -30.4859   21.5461 C   0  0  2  0  0  0  0  0  0104  0  0
  -24.8467  -28.9636   20.1247 C   0  0  0  0  0  0  0  0  0105  0  0
  -22.7412  -29.4652   22.5052 C   0  0  0  0  0  0  0  0  0106  0  0
  -18.0167  -28.1302   22.8626 C   0  0  0  0  0  0  0  0  0107  0  0
  -24.1342  -36.7390   23.2568 C   0  0  0  0  0  0  0  0  0108  0  0
  -25.9141  -30.8882   21.3456 C   0  0  0  0  0  0  0  0  0109  0  0
  -25.9930  -29.5029   20.7208 C   0  0  0  0  0  0  0  0  0110  0  0
  -27.1758  -28.7612   20.7331 C   0  0  0  0  0  0  0  0  0111  0  0
  -26.1032  -26.9836   19.5230 C   0  0  0  0  0  0  0  0  0112  0  0
  -24.9097  -27.7011   19.5331 C   0  0  0  0  0  0  0  0  0113  0  0
  -23.5715  -29.7899   20.1582 C   0  0  0  0  0  0  0  0  0114  0  0
  -25.3990  -36.3212   24.0232 C   0  0  1  0  0  0  0  0  0115  0  0
  -20.5793  -28.3813   23.1004 C   0  0  2  0  0  0  0  0  0116  0  0
  -20.6548  -26.9392   22.5411 C   0  0  0  0  0  0  0  0  0117  0  0
  -19.5615  -26.6407   21.5143 C   0  0  0  0  0  0  0  0  0118  0  0
  -18.1797  -26.7818   22.1673 C   0  0  0  0  0  0  0  0  0119  0  0
  -19.1385  -28.8769   23.2988 C   0  0  0  0  0  0  0  0  0120  0  0
  -18.9183  -30.1286   23.8878 C   0  0  0  0  0  0  0  0  0121  0  0
  -17.6396  -30.6493   24.0352 C   0  0  0  0  0  0  0  0  0122  0  0
  -25.9153  -34.9582   23.4993 C   0  0  0  0  0  0  0  0  0123  0  0
  -16.5415  -29.9068   23.6254 C   0  0  0  0  0  0  0  0  0124  0  0
  -16.7331  -28.6521   23.0586 C   0  0  0  0  0  0  0  0  0125  0  0
  -26.4583  -31.6439   25.0683 C   0  0  0  0  0  0  0  0  0126  0  0
  -25.3807  -31.3179   26.1374 C   0  0  0  0  0  0  0  0  0127  0  0
  -27.0530  -30.3024   24.5680 C   0  0  0  0  0  0  0  0  0128  0  0
  -27.6014  -32.4281   25.7651 C   0  0  0  0  0  0  0  0  0129  0  0
  -27.5629  -37.2220   24.8621 C   0  0  0  0  0  0  0  0  0130  0  0
  -21.4133  -29.3375   22.3735 N   0  0  0  0  0  0  0  0  0131  0  0
  -26.4706  -37.3372   23.9061 N   0  0  0  0  0  0  0  0  0132  0  0
  -24.6674  -31.0544   22.1178 N   0  0  0  0  0  0  0  0  0133  0  0
  -23.4259  -28.8150   23.2971 O   0  0  0  0  0  0  0  0  0134  0  0
  -28.3948  -26.7345   20.0089 O   0  0  0  0  0  0  0  0  0135  0  0
  -26.5870  -34.9065   22.4671 O   0  0  0  0  0  0  0  0  0136  0  0
  -23.5365  -32.1254   23.7833 O   0  0  0  0  0  0  0  0  0137  0  0
  -30.2760  -19.0843   22.8282 C   0  0  0  0  0  0  0  0  0  0  0  0
  -30.5849  -19.8055   21.6750 C   0  0  0  0  0  0  0  0  0  0  0  0
  -30.2567  -17.0382   21.5435 C   0  0  0  0  0  0  0  0  0  0  0  0
  -30.1119  -17.7006   22.7625 C   0  0  0  0  0  0  0  0  0  0  0  0
  -30.7297  -19.1431   20.4560 C   0  0  0  0  0  0  0  0  0  0  0  0
  -30.5656  -17.7595   20.3902 C   0  0  0  0  0  0  0  0  0  0  0  0
  -30.7578  -21.2703   21.7475 C   0  0  0  0  0  0  0  0  0  0  0  0
  -28.6014  -24.0176   20.7906 C   0  0  0  0  0  0  0  0  0  0  0  0
  -30.9548  -23.9515   19.9157 C   0  0  0  0  0  0  0  0  0  0  0  0
  -28.4168  -25.5232   20.8276 C   0  0  0  0  0  0  0  0  0  1  0  0
  -30.0107  -23.5069   21.0152 C   0  0  2  0  0  0  0  0  0  0  0  0
  -30.0908  -15.6326   21.4768 N   0  0  0  0  0  0  0  0  0  0  0  0
  -29.9488  -22.0487   21.0134 N   0  0  0  0  0  0  0  0  0  0  0  0
  -31.7153  -21.7513   22.5405 N   0  0  0  0  0  0  0  0  0  0  0  0
  -27.6533  -23.2586   20.5886 O   0  0  0  0  0  0  0  0  0  0  0  0
  -29.8160  -17.0177   23.8775 F   0  0  0  0  0  0  0  0  0  0  0  0
  -31.0259  -19.8276   19.3423 F   0  0  0  0  0  0  0  0  0  0  0  0
  -30.7078  -17.1333   19.2134 F   0  0  0  0  0  0  0  0  0  0  0  0
  -31.4485  -12.4701   19.0860 H   0  0  0  0  0  0  0  0  0  0  0  0
  -30.3970  -11.2460   19.6950 H   0  0  0  0  0  0  0  0  0  0  0  0
  -29.6870  -11.8204   17.4226 H   0  0  0  0  0  0  0  0  0  0  0  0
  -29.6375  -13.5326   17.8649 H   0  0  0  0  0  0  0  0  0  0  0  0
  -27.7830  -11.3650   18.7904 H   0  0  0  0  0  0  0  0  0  0  0  0
  -27.4028  -12.7801   17.8021 H   0  0  0  0  0  0  0  0  0  0  0  0
  -27.7353  -14.2503   19.6136 H   0  0  0  0  0  0  0  0  0  0  0  0
  -28.5890  -11.9550   21.3832 H   0  0  0  0  0  0  0  0  0  0  0  0
  -28.5005  -13.6134   21.8562 H   0  0  0  0  0  0  0  0  0  0  0  0
  -25.2399   -9.5495   22.4318 H   0  0  0  0  0  0  0  0  0  0  0  0
  -23.9663   -7.5070   22.7297 H   0  0  0  0  0  0  0  0  0  0  0  0
  -21.1515   -8.8641   19.9162 H   0  0  0  0  0  0  0  0  0  0  0  0
  -22.4016  -10.9115   19.6476 H   0  0  0  0  0  0  0  0  0  0  0  0
  -21.2319   -7.5552   23.9750 H   0  0  0  0  0  0  0  0  0  0  0  0
  -21.1589   -6.0228   25.8556 H   0  0  0  0  0  0  0  0  0  0  0  0
  -22.0396   -2.8212   23.2809 H   0  0  0  0  0  0  0  0  0  0  0  0
  -22.4401  -11.9703   22.4008 H   0  0  0  0  0  0  0  0  0  0  0  0
  -21.1493  -13.0679   22.2082 H   0  0  0  0  0  0  0  0  0  0  0  0
  -24.6538  -15.7807   20.5848 H   0  0  0  0  0  0  0  0  0  0  0  0
  -26.2762  -15.5453   20.1156 H   0  0  0  0  0  0  0  0  0  0  0  0
  -26.6778  -32.4663   23.1464 H   0  0  0  0  0  0  0  0  0  0  0  0
  -25.0747  -34.0282   25.0566 H   0  0  0  0  0  0  0  0  0  0  0  0
  -22.7881  -31.3489   21.4131 H   0  0  0  0  0  0  0  0  0  0  0  0
  -23.3854  -35.9823   23.3648 H   0  0  0  0  0  0  0  0  0  0  0  0
  -24.3696  -36.8624   22.2204 H   0  0  0  0  0  0  0  0  0  0  0  0
  -23.7669  -37.6632   23.6516 H   0  0  0  0  0  0  0  0  0  0  0  0
  -25.9445  -31.6237   20.5691 H   0  0  0  0  0  0  0  0  0  0  0  0
  -26.7436  -31.0079   22.0108 H   0  0  0  0  0  0  0  0  0  0  0  0
  -28.0090  -29.1452   21.2057 H   0  0  0  0  0  0  0  0  0  0  0  0
  -26.1369  -26.0560   19.0719 H   0  0  0  0  0  0  0  0  0  0  0  0
  -24.0652  -27.2961   19.0997 H   0  0  0  0  0  0  0  0  0  0  0  0
  -23.6156  -30.5365   19.3930 H   0  0  0  0  0  0  0  0  0  0  0  0
  -22.7355  -29.1425   19.9945 H   0  0  0  0  0  0  0  0  0  0  0  0
  -25.1353  -36.2335   25.0565 H   0  0  0  0  0  0  0  0  0  0  0  0
  -21.0070  -28.3206   24.0793 H   0  0  0  0  0  0  0  0  0  0  0  0
  -20.5555  -26.2518   23.3550 H   0  0  0  0  0  0  0  0  0  0  0  0
  -21.5974  -26.8362   22.0454 H   0  0  0  0  0  0  0  0  0  0  0  0
  -19.6810  -25.6422   21.1488 H   0  0  0  0  0  0  0  0  0  0  0  0
  -19.6406  -27.3343   20.7034 H   0  0  0  0  0  0  0  0  0  0  0  0
  -17.4282  -26.6888   21.4113 H   0  0  0  0  0  0  0  0  0  0  0  0
  -18.0803  -26.0130   22.9049 H   0  0  0  0  0  0  0  0  0  0  0  0
  -19.7265  -30.6774   24.2204 H   0  0  0  0  0  0  0  0  0  0  0  0
  -17.5064  -31.5856   24.4483 H   0  0  0  0  0  0  0  0  0  0  0  0
  -15.5878  -30.2839   23.7407 H   0  0  0  0  0  0  0  0  0  0  0  0
  -15.9120  -28.0941   22.7766 H   0  0  0  0  0  0  0  0  0  0  0  0
  -24.5787  -30.7757   25.6817 H   0  0  0  0  0  0  0  0  0  0  0  0
  -25.0041  -32.2289   26.5536 H   0  0  0  0  0  0  0  0  0  0  0  0
  -25.8166  -30.7245   26.9138 H   0  0  0  0  0  0  0  0  0  0  0  0
  -26.2892  -29.7335   24.0803 H   0  0  0  0  0  0  0  0  0  0  0  0
  -27.4336  -29.7484   25.4006 H   0  0  0  0  0  0  0  0  0  0  0  0
  -27.8466  -30.4994   23.8779 H   0  0  0  0  0  0  0  0  0  0  0  0
  -27.2251  -33.3632   26.1242 H   0  0  0  0  0  0  0  0  0  0  0  0
  -28.3902  -32.6065   25.0645 H   0  0  0  0  0  0  0  0  0  0  0  0
  -27.9772  -31.8555   26.5872 H   0  0  0  0  0  0  0  0  0  0  0  0
  -28.2744  -38.0016   24.6863 H   0  0  0  0  0  0  0  0  0  0  0  0
  -28.0396  -36.2711   24.7461 H   0  0  0  0  0  0  0  0  0  0  0  0
  -27.1773  -37.3087   25.8564 H   0  0  0  0  0  0  0  0  0  0  0  0
  -20.9627  -29.9365   21.7352 H   0  0  0  0  0  0  0  0  0  0  0  0
  -26.0447  -38.2561   24.0273 H   0  0  0  0  0  0  0  0  0  0  0  0
  -30.1688  -19.5744   23.7301 H   0  0  0  0  0  0  0  0  0  0  0  0
  -31.0109  -25.0200   19.9042 H   0  0  0  0  0  0  0  0  0  0  0  0
  -30.5917  -23.6032   18.9714 H   0  0  0  0  0  0  0  0  0  0  0  0
  -31.9282  -23.5451   20.0954 H   0  0  0  0  0  0  0  0  0  0  0  0
  -29.1681  -25.7896   21.5414 H   0  0  0  0  0  0  0  0  0  0  0  0
  -27.3581  -25.4118   20.7192 H   0  0  0  0  0  0  0  0  0  0  0  0
  -30.3803  -23.8971   21.9404 H   0  0  0  0  0  0  0  0  0  0  0  0
  -29.3762  -15.3293   22.0823 H   0  0  0  0  0  0  0  0  0  0  0  0
  -29.2763  -21.6124   20.4419 H   0  0  0  0  0  0  0  0  0  0  0  0
  -32.2816  -21.1345   23.0583 H   0  0  0  0  0  0  0  0  0  0  0  0
  -31.8561  -22.7233   22.6084 H   0  0  0  0  0  0  0  0  0  0  0  0
  1 25  1  0
  1 30  2  0
  1 82  1  0
  2  3  1  0
  2 25  1  0
  2 89  1  0
  2 90  1  0
  3  4  1  0
  3 91  1  0
  3 92  1  0
  4  5  1  0
  4 93  1  0
  4 94  1  0
  5  6  1  0
  5 26  1  0
  5 95  1  6
  6 25  1  0
  6 96  1  0
  6 97  1  0
  7  8  2  0
  7 26  1  0
  7 29  1  0
  8  9  1  0
  8 22  1  0
  9 10  1  0
  9 27  2  0
 10 11  2  0
 10 15  1  0
 11 12  1  0
 11 98  1  0
 12 13  2  0
 12 99  1  0
 13 14  1  0
 13 31  1  0
 14 15  2  0
 14100  1  0
 15101  1  0
 16 17  2  0
 16 21  1  0
 16 31  1  0
 17 18  1  0
 17102  1  0
 18 19  2  0
 18103  1  0
 19 20  1  0
 19 24  1  0
 20 21  2  0
 20104  1  0
 21 23  1  0
 22 28  1  0
 22 32  2  0
 26 27  1  0
 28105  1  0
 28106  1  0
 29107  1  0
 29108  1  0
 33 34  1  0
 33 66  1  0
 33 70  2  0
 34 36  1  0
 34 59  1  0
 34109  1  6
 35 44  2  0
 35 45  1  0
 35 68  1  0
 36 56  1  0
 36110  1  0
 37 39  1  0
 37 47  1  0
 37 66  1  0
 37111  1  6
 38 43  2  0
 38 46  1  0
 38 47  1  0
 39 64  1  0
 39 67  2  0
 40 52  1  0
 40 53  2  0
 40 58  1  0
 41112  1  0
 41113  1  0
 41114  1  0
 42 43  1  0
 42 66  1  0
 42115  1  0
 42116  1  0
 43 44  1  0
 44117  1  0
 45 46  2  0
 45118  1  0
 46119  1  0
 47120  1  0
 47121  1  0
 48 41  1  0
 48 56  1  0
 48 65  1  0
 48122  1  1
 49 50  1  0
 49 53  1  0
 49 64  1  0
 49123  1  1
 50 51  1  0
 50124  1  0
 50125  1  0
 51 52  1  0
 51126  1  0
 51127  1  0
 52128  1  0
 52129  1  0
 53 54  1  0
 54 55  2  0
 54130  1  0
 55 57  1  0
 55131  1  0
 56 69  2  0
 57 58  2  0
 57132  1  0
 58133  1  0
 59 60  1  0
 59 61  1  0
 59 62  1  0
 60134  1  0
 60135  1  0
 60136  1  0
 61137  1  0
 61138  1  0
 61139  1  0
 62140  1  0
 62141  1  0
 62142  1  0
 63 65  1  0
 63143  1  0
 63144  1  0
 63145  1  0
 64146  1  0
 65147  1  0
 68 80  1  0
 71 72  2  0
 71 74  1  0
 71148  1  0
 72 75  1  0
 72 77  1  0
 73 74  2  0
 73 76  1  0
 73 82  1  0
 74 86  1  0
 75 76  2  0
 75 87  1  0
 76 88  1  0
 77 83  1  0
 77 84  2  0
 78 80  1  0
 78 81  1  0
 78 85  2  0
 79149  1  0
 79150  1  0
 79151  1  0
 80152  1  0
 80153  1  0
 81 79  1  0
 81 83  1  0
 81154  1  1
 82155  1  0
 83156  1  0
 84157  1  0
 84158  1  0
M  CHG  1  84   1
M  ISO  4   1 100  68 101  80 101  82 100
M  END
$$$$
68
     RDKit          3D

155163  0  0  0  0  0  0  0  0999 V2000
  -30.7652  -14.3608   20.6636 C   0  0  0  0  0  0  0  0  0100  0  0
  -30.4392  -12.2669   19.3775 C   0  0  0  0  0  0  0  0  0101  0  0
  -29.4791  -12.5281   18.1977 C   0  0  0  0  0  0  0  0  0102  0  0
  -27.9985  -12.3963   18.6038 C   0  0  0  0  0  0  0  0  0103  0  0
  -27.6639  -13.2170   19.8820 C   0  0  2  0  0  0  0  0  0104  0  0
  -28.6795  -12.9602   21.0279 C   0  0  0  0  0  0  0  0  0105  0  0
  -25.2633  -13.8245   20.5754 C   0  0  0  0  0  0  0  0  0106  0  0
  -24.1645  -13.0409   20.9408 C   0  0  0  0  0  0  0  0  0107  0  0
  -24.6400  -11.7009   20.8697 C   0  0  0  0  0  0  0  0  0108  0  0
  -23.9005  -10.4085   21.0420 C   0  0  0  0  0  0  0  0  0109  0  0
  -24.3588   -9.4123   21.9123 C   0  0  0  0  0  0  0  0  0110  0  0
  -23.6296   -8.2350   22.0803 C   0  0  0  0  0  0  0  0  0111  0  0
  -22.4385   -8.0419   21.3657 C   0  0  0  0  0  0  0  0  0112  0  0
  -22.0103   -9.0167   20.4678 C   0  0  0  0  0  0  0  0  0113  0  0
  -22.7317  -10.1925   20.3102 C   0  0  0  0  0  0  0  0  0114  0  0
  -21.6857   -6.0709   22.5391 C   0  0  0  0  0  0  0  0  0115  0  0
  -21.4064   -6.5490   23.8264 C   0  0  0  0  0  0  0  0  0116  0  0
  -21.3635   -5.6677   24.9085 C   0  0  0  0  0  0  0  0  0117  0  0
  -21.5973   -4.3067   24.7088 C   0  0  0  0  0  0  0  0  0118  0  0
  -21.8700   -3.8284   23.4282 C   0  0  0  0  0  0  0  0  0119  0  0
  -21.9144   -4.7056   22.3460 C   0  0  0  0  0  0  0  0  0120  0  0
  -22.8194  -13.5263   21.1763 C   0  0  0  0  0  0  0  0  0121  0  0
  -22.1559   -4.2206   21.1063 F   0  0  0  0  0  0  0  0  0122  0  0
  -21.5628   -3.4510   25.7555 F   0  0  0  0  0  0  0  0  0123  0  0
  -30.0261  -13.1803   20.4553 N   0  0  0  0  0  0  0  0  0124  0  0
  -26.2911  -12.9356   20.3443 N   0  0  0  0  0  0  0  0  0125  0  0
  -25.9236  -11.6675   20.5847 N   0  0  0  0  0  0  0  0  0126  0  0
  -22.0708  -12.7905   22.0005 N   0  0  0  0  0  0  0  0  0127  0  0
  -25.4117  -15.1773   20.4097 N   0  0  0  0  0  0  0  0  0128  0  0
  -31.7916  -14.6724   20.0536 O   0  0  0  0  0  0  0  0  0129  0  0
  -21.6670   -6.9022   21.4423 O   0  0  0  0  0  0  0  0  0130  0  0
  -22.3946  -14.5564   20.6568 O   0  0  0  0  0  0  0  0  0131  0  0
  -24.6048  -31.8614   23.2223 C   0  0  0  0  0  0  0  0  0100  0  0
  -25.8822  -32.4841   23.8616 C   0  0  1  0  0  0  0  0  0101  0  0
  -27.2536  -27.5042   20.1156 C   0  0  0  0  0  0  0  0  0102  0  0
  -25.5726  -33.8762   24.2210 N   0  0  0  0  0  0  0  0  0103  0  0
  -23.4066  -30.4859   21.5461 C   0  0  2  0  0  0  0  0  0104  0  0
  -24.8467  -28.9636   20.1247 C   0  0  0  0  0  0  0  0  0105  0  0
  -22.7412  -29.4652   22.5052 C   0  0  0  0  0  0  0  0  0106  0  0
  -18.0167  -28.1302   22.8626 C   0  0  0  0  0  0  0  0  0107  0  0
  -24.1342  -36.7390   23.2568 C   0  0  0  0  0  0  0  0  0108  0  0
  -25.9141  -30.8882   21.3456 C   0  0  0  0  0  0  0  0  0109  0  0
  -25.9930  -29.5029   20.7208 C   0  0  0  0  0  0  0  0  0110  0  0
  -27.1758  -28.7612   20.7331 C   0  0  0  0  0  0  0  0  0111  0  0
  -26.1032  -26.9836   19.5230 C   0  0  0  0  0  0  0  0  0112  0  0
  -24.9097  -27.7011   19.5331 C   0  0  0  0  0  0  0  0  0113  0  0
  -23.5715  -29.7899   20.1582 C   0  0  0  0  0  0  0  0  0114  0  0
  -25.3990  -36.3212   24.0232 C   0  0  1  0  0  0  0  0  0115  0  0
  -20.5793  -28.3813   23.1004 C   0  0  2  0  0  0  0  0  0116  0  0
  -20.6548  -26.9392   22.5411 C   0  0  0  0  0  0  0  0  0117  0  0
  -19.5615  -26.6407   21.5143 C   0  0  0  0  0  0  0  0  0118  0  0
  -18.1797  -26.7818   22.1673 C   0  0  0  0  0  0  0  0  0119  0  0
  -19.1385  -28.8769   23.2988 C   0  0  0  0  0  0  0  0  0120  0  0
  -18.9183  -30.1286   23.8878 C   0  0  0  0  0  0  0  0  0121  0  0
  -17.6396  -30.6493   24.0352 C   0  0  0  0  0  0  0  0  0122  0  0
  -25.9153  -34.9582   23.4993 C   0  0  0  0  0  0  0  0  0123  0  0
  -16.5415  -29.9068   23.6254 C   0  0  0  0  0  0  0  0  0124  0  0
  -16.7331  -28.6521   23.0586 C   0  0  0  0  0  0  0  0  0125  0  0
  -26.4583  -31.6439   25.0683 C   0  0  0  0  0  0  0  0  0126  0  0
  -25.3807  -31.3179   26.1374 C   0  0  0  0  0  0  0  0  0127  0  0
  -27.0530  -30.3024   24.5680 C   0  0  0  0  0  0  0  0  0128  0  0
  -27.6014  -32.4281   25.7651 C   0  0  0  0  0  0  0  0  0129  0  0
  -27.5629  -37.2220   24.8621 C   0  0  0  0  0  0  0  0  0130  0  0
  -21.4133  -29.3375   22.3735 N   0  0  0  0  0  0  0  0  0131  0  0
  -26.4706  -37.3372   23.9061 N   0  0  0  0  0  0  0  0  0132  0  0
  -24.6674  -31.0544   22.1178 N   0  0  0  0  0  0  0  0  0133  0  0
  -23.4259  -28.8150   23.2971 O   0  0  0  0  0  0  0  0  0134  0  0
  -28.3948  -26.7345   20.0089 O   0  0  0  0  0  0  0  0  0135  0  0
  -26.5870  -34.9065   22.4671 O   0  0  0  0  0  0  0  0  0136  0  0
  -23.5365  -32.1254   23.7833 O   0  0  0  0  0  0  0  0  0137  0  0
  -29.5602  -18.3309   20.5279 C   0  0  0  0  0  0  0  0  0  0  0  0
  -32.0516  -18.7770   19.5084 C   0  0  0  0  0  0  0  0  0  0  0  0
  -29.9926  -19.6376   20.3310 C   0  0  0  0  0  0  0  0  0  0  0  0
  -31.2607  -19.8735   19.8119 C   0  0  0  0  0  0  0  0  0  0  0  0
  -30.4270  -17.3034   20.1922 C   0  0  0  0  0  0  0  0  0  0  0  0
  -28.4226  -21.4213   19.4739 C   0  0  0  0  0  0  0  0  0  0  0  0
  -28.0758  -23.9237   19.7473 C   0  0  0  0  0  0  0  0  0  0  0  0
  -29.0712  -20.7750   20.6848 C   0  0  0  0  0  0  0  0  0  0  0  0
  -27.4503  -22.5463   19.7525 C   0  0  0  0  0  0  0  0  0  0  0  0
  -27.1266  -25.0817   19.9798 C   0  0  0  0  0  0  0  0  0  1  0  0
  -31.6660  -17.4935   19.6858 N   0  0  0  0  0  0  0  0  0  0  0  0
  -31.7420  -21.1772   19.5973 N   0  0  0  0  0  0  0  0  0  0  0  0
  -29.9772  -15.9755   20.3975 N   0  0  0  0  0  0  0  0  0  0  0  0
  -28.6734  -21.0802   18.3181 O   0  0  0  0  0  0  0  0  0  0  0  0
  -29.2790  -24.0963   19.5578 O   0  0  0  0  0  0  0  0  0  0  0  0
  -31.4485  -12.4701   19.0860 H   0  0  0  0  0  0  0  0  0  0  0  0
  -30.3970  -11.2460   19.6950 H   0  0  0  0  0  0  0  0  0  0  0  0
  -29.6870  -11.8204   17.4226 H   0  0  0  0  0  0  0  0  0  0  0  0
  -29.6375  -13.5326   17.8649 H   0  0  0  0  0  0  0  0  0  0  0  0
  -27.7830  -11.3650   18.7904 H   0  0  0  0  0  0  0  0  0  0  0  0
  -27.4028  -12.7801   17.8021 H   0  0  0  0  0  0  0  0  0  0  0  0
  -27.7353  -14.2503   19.6136 H   0  0  0  0  0  0  0  0  0  0  0  0
  -28.5890  -11.9550   21.3832 H   0  0  0  0  0  0  0  0  0  0  0  0
  -28.5005  -13.6134   21.8562 H   0  0  0  0  0  0  0  0  0  0  0  0
  -25.2399   -9.5495   22.4318 H   0  0  0  0  0  0  0  0  0  0  0  0
  -23.9663   -7.5070   22.7297 H   0  0  0  0  0  0  0  0  0  0  0  0
  -21.1515   -8.8641   19.9162 H   0  0  0  0  0  0  0  0  0  0  0  0
  -22.4016  -10.9115   19.6476 H   0  0  0  0  0  0  0  0  0  0  0  0
  -21.2319   -7.5552   23.9750 H   0  0  0  0  0  0  0  0  0  0  0  0
  -21.1589   -6.0228   25.8556 H   0  0  0  0  0  0  0  0  0  0  0  0
  -22.0396   -2.8212   23.2809 H   0  0  0  0  0  0  0  0  0  0  0  0
  -22.4401  -11.9703   22.4008 H   0  0  0  0  0  0  0  0  0  0  0  0
  -21.1493  -13.0679   22.2082 H   0  0  0  0  0  0  0  0  0  0  0  0
  -24.6538  -15.7807   20.5848 H   0  0  0  0  0  0  0  0  0  0  0  0
  -26.2762  -15.5453   20.1156 H   0  0  0  0  0  0  0  0  0  0  0  0
  -26.6778  -32.4663   23.1464 H   0  0  0  0  0  0  0  0  0  0  0  0
  -25.0747  -34.0282   25.0566 H   0  0  0  0  0  0  0  0  0  0  0  0
  -22.7881  -31.3489   21.4131 H   0  0  0  0  0  0  0  0  0  0  0  0
  -23.3854  -35.9823   23.3648 H   0  0  0  0  0  0  0  0  0  0  0  0
  -24.3696  -36.8624   22.2204 H   0  0  0  0  0  0  0  0  0  0  0  0
  -23.7669  -37.6632   23.6516 H   0  0  0  0  0  0  0  0  0  0  0  0
  -25.9445  -31.6237   20.5691 H   0  0  0  0  0  0  0  0  0  0  0  0
  -26.7436  -31.0079   22.0108 H   0  0  0  0  0  0  0  0  0  0  0  0
  -28.0090  -29.1452   21.2057 H   0  0  0  0  0  0  0  0  0  0  0  0
  -26.1369  -26.0560   19.0719 H   0  0  0  0  0  0  0  0  0  0  0  0
  -24.0652  -27.2961   19.0997 H   0  0  0  0  0  0  0  0  0  0  0  0
  -23.6156  -30.5365   19.3930 H   0  0  0  0  0  0  0  0  0  0  0  0
  -22.7355  -29.1425   19.9945 H   0  0  0  0  0  0  0  0  0  0  0  0
  -25.1353  -36.2335   25.0565 H   0  0  0  0  0  0  0  0  0  0  0  0
  -21.0070  -28.3206   24.0793 H   0  0  0  0  0  0  0  0  0  0  0  0
  -20.5555  -26.2518   23.3550 H   0  0  0  0  0  0  0  0  0  0  0  0
  -21.5974  -26.8362   22.0454 H   0  0  0  0  0  0  0  0  0  0  0  0
  -19.6810  -25.6422   21.1488 H   0  0  0  0  0  0  0  0  0  0  0  0
  -19.6406  -27.3343   20.7034 H   0  0  0  0  0  0  0  0  0  0  0  0
  -17.4282  -26.6888   21.4113 H   0  0  0  0  0  0  0  0  0  0  0  0
  -18.0803  -26.0130   22.9049 H   0  0  0  0  0  0  0  0  0  0  0  0
  -19.7265  -30.6774   24.2204 H   0  0  0  0  0  0  0  0  0  0  0  0
  -17.5064  -31.5856   24.4483 H   0  0  0  0  0  0  0  0  0  0  0  0
  -15.5878  -30.2839   23.7407 H   0  0  0  0  0  0  0  0  0  0  0  0
  -15.9120  -28.0941   22.7766 H   0  0  0  0  0  0  0  0  0  0  0  0
  -24.5787  -30.7757   25.6817 H   0  0  0  0  0  0  0  0  0  0  0  0
  -25.0041  -32.2289   26.5536 H   0  0  0  0  0  0  0  0  0  0  0  0
  -25.8166  -30.7245   26.9138 H   0  0  0  0  0  0  0  0  0  0  0  0
  -26.2892  -29.7335   24.0803 H   0  0  0  0  0  0  0  0  0  0  0  0
  -27.4336  -29.7484   25.4006 H   0  0  0  0  0  0  0  0  0  0  0  0
  -27.8466  -30.4994   23.8779 H   0  0  0  0  0  0  0  0  0  0  0  0
  -27.2251  -33.3632   26.1242 H   0  0  0  0  0  0  0  0  0  0  0  0
  -28.3902  -32.6065   25.0645 H   0  0  0  0  0  0  0  0  0  0  0  0
  -27.9772  -31.8555   26.5872 H   0  0  0  0  0  0  0  0  0  0  0  0
  -28.2744  -38.0016   24.6863 H   0  0  0  0  0  0  0  0  0  0  0  0
  -28.0396  -36.2711   24.7461 H   0  0  0  0  0  0  0  0  0  0  0  0
  -27.1773  -37.3087   25.8564 H   0  0  0  0  0  0  0  0  0  0  0  0
  -20.9627  -29.9365   21.7352 H   0  0  0  0  0  0  0  0  0  0  0  0
  -26.0447  -38.2561   24.0273 H   0  0  0  0  0  0  0  0  0  0  0  0
  -28.6231  -18.1326   20.9120 H   0  0  0  0  0  0  0  0  0  0  0  0
  -32.9931  -18.9509   19.1232 H   0  0  0  0  0  0  0  0  0  0  0  0
  -29.6357  -21.5199   21.2058 H   0  0  0  0  0  0  0  0  0  0  0  0
  -28.2850  -20.3703   21.2872 H   0  0  0  0  0  0  0  0  0  0  0  0
  -27.0124  -22.3805   20.7146 H   0  0  0  0  0  0  0  0  0  0  0  0
  -26.7306  -22.5330   18.9609 H   0  0  0  0  0  0  0  0  0  0  0  0
  -26.6125  -24.9756   20.9122 H   0  0  0  0  0  0  0  0  0  0  0  0
  -26.3602  -25.1529   19.2365 H   0  0  0  0  0  0  0  0  0  0  0  0
  -32.6444  -21.3143   19.2283 H   0  0  0  0  0  0  0  0  0  0  0  0
  -31.1766  -21.9529   19.8160 H   0  0  0  0  0  0  0  0  0  0  0  0
  -28.9947  -15.9125   20.3954 H   0  0  0  0  0  0  0  0  0  0  0  0
  1 25  1  0
  1 30  2  0
  1 83  1  0
  2  3  1  0
  2 25  1  0
  2 86  1  0
  2 87  1  0
  3  4  1  0
  3 88  1  0
  3 89  1  0
  4  5  1  0
  4 90  1  0
  4 91  1  0
  5  6  1  0
  5 26  1  0
  5 92  1  6
  6 25  1  0
  6 93  1  0
  6 94  1  0
  7  8  2  0
  7 26  1  0
  7 29  1  0
  8  9  1  0
  8 22  1  0
  9 10  1  0
  9 27  2  0
 10 11  2  0
 10 15  1  0
 11 12  1  0
 11 95  1  0
 12 13  2  0
 12 96  1  0
 13 14  1  0
 13 31  1  0
 14 15  2  0
 14 97  1  0
 15 98  1  0
 16 17  2  0
 16 21  1  0
 16 31  1  0
 17 18  1  0
 17 99  1  0
 18 19  2  0
 18100  1  0
 19 20  1  0
 19 24  1  0
 20 21  2  0
 20101  1  0
 21 23  1  0
 22 28  1  0
 22 32  2  0
 26 27  1  0
 28102  1  0
 28103  1  0
 29104  1  0
 29105  1  0
 33 34  1  0
 33 66  1  0
 33 70  2  0
 34 36  1  0
 34 59  1  0
 34106  1  6
 35 44  2  0
 35 45  1  0
 35 68  1  0
 36 56  1  0
 36107  1  0
 37 39  1  0
 37 47  1  0
 37 66  1  0
 37108  1  6
 38 43  2  0
 38 46  1  0
 38 47  1  0
 39 64  1  0
 39 67  2  0
 40 52  1  0
 40 53  2  0
 40 58  1  0
 41109  1  0
 41110  1  0
 41111  1  0
 42 43  1  0
 42 66  1  0
 42112  1  0
 42113  1  0
 43 44  1  0
 44114  1  0
 45 46  2  0
 45115  1  0
 46116  1  0
 47117  1  0
 47118  1  0
 48 41  1  0
 48 56  1  0
 48 65  1  0
 48119  1  1
 49 50  1  0
 49 53  1  0
 49 64  1  0
 49120  1  1
 50 51  1  0
 50121  1  0
 50122  1  0
 51 52  1  0
 51123  1  0
 51124  1  0
 52125  1  0
 52126  1  0
 53 54  1  0
 54 55  2  0
 54127  1  0
 55 57  1  0
 55128  1  0
 56 69  2  0
 57 58  2  0
 57129  1  0
 58130  1  0
 59 60  1  0
 59 61  1  0
 59 62  1  0
 60131  1  0
 60132  1  0
 60133  1  0
 61134  1  0
 61135  1  0
 61136  1  0
 62137  1  0
 62138  1  0
 62139  1  0
 63 65  1  0
 63140  1  0
 63141  1  0
 63142  1  0
 64143  1  0
 65144  1  0
 68 80  1  0
 71 73  2  0
 71 75  1  0
 71145  1  0
 72 74  2  0
 72 81  1  0
 72146  1  0
 73 74  1  0
 73 78  1  0
 74 82  1  0
 75 81  2  0
 75 83  1  0
 76 78  1  0
 76 79  1  0
 76 84  2  0
 77 79  1  0
 77 80  1  0
 77 85  2  0
 78147  1  0
 78148  1  0
 79149  1  0
 79150  1  0
 80151  1  0
 80152  1  0
 82153  1  0
 82154  1  0
 83155  1  0
M  ISO  4   1 100  68 101  80 101  83 100
M  END
$$$$
69
     RDKit          3D

155163  0  0  0  0  0  0  0  0999 V2000
  -30.7652  -14.3608   20.6636 C   0  0  0  0  0  0  0  0  0100  0  0
  -30.4392  -12.2669   19.3775 C   0  0  0  0  0  0  0  0  0101  0  0
  -29.4791  -12.5281   18.1977 C   0  0  0  0  0  0  0  0  0102  0  0
  -27.9985  -12.3963   18.6038 C   0  0  0  0  0  0  0  0  0103  0  0
  -27.6639  -13.2170   19.8820 C   0  0  2  0  0  0  0  0  0104  0  0
  -28.6795  -12.9602   21.0279 C   0  0  0  0  0  0  0  0  0105  0  0
  -25.2633  -13.8245   20.5754 C   0  0  0  0  0  0  0  0  0106  0  0
  -24.1645  -13.0409   20.9408 C   0  0  0  0  0  0  0  0  0107  0  0
  -24.6400  -11.7009   20.8697 C   0  0  0  0  0  0  0  0  0108  0  0
  -23.9005  -10.4085   21.0420 C   0  0  0  0  0  0  0  0  0109  0  0
  -24.3588   -9.4123   21.9123 C   0  0  0  0  0  0  0  0  0110  0  0
  -23.6296   -8.2350   22.0803 C   0  0  0  0  0  0  0  0  0111  0  0
  -22.4385   -8.0419   21.3657 C   0  0  0  0  0  0  0  0  0112  0  0
  -22.0103   -9.0167   20.4678 C   0  0  0  0  0  0  0  0  0113  0  0
  -22.7317  -10.1925   20.3102 C   0  0  0  0  0  0  0  0  0114  0  0
  -21.6857   -6.0709   22.5391 C   0  0  0  0  0  0  0  0  0115  0  0
  -21.4064   -6.5490   23.8264 C   0  0  0  0  0  0  0  0  0116  0  0
  -21.3635   -5.6677   24.9085 C   0  0  0  0  0  0  0  0  0117  0  0
  -21.5973   -4.3067   24.7088 C   0  0  0  0  0  0  0  0  0118  0  0
  -21.8700   -3.8284   23.4282 C   0  0  0  0  0  0  0  0  0119  0  0
  -21.9144   -4.7056   22.3460 C   0  0  0  0  0  0  0  0  0120  0  0
  -22.8194  -13.5263   21.1763 C   0  0  0  0  0  0  0  0  0121  0  0
  -22.1559   -4.2206   21.1063 F   0  0  0  0  0  0  0  0  0122  0  0
  -21.5628   -3.4510   25.7555 F   0  0  0  0  0  0  0  0  0123  0  0
  -30.0261  -13.1803   20.4553 N   0  0  0  0  0  0  0  0  0124  0  0
  -26.2911  -12.9356   20.3443 N   0  0  0  0  0  0  0  0  0125  0  0
  -25.9236  -11.6675   20.5847 N   0  0  0  0  0  0  0  0  0126  0  0
  -22.0708  -12.7905   22.0005 N   0  0  0  0  0  0  0  0  0127  0  0
  -25.4117  -15.1773   20.4097 N   0  0  0  0  0  0  0  0  0128  0  0
  -31.7916  -14.6724   20.0536 O   0  0  0  0  0  0  0  0  0129  0  0
  -21.6670   -6.9022   21.4423 O   0  0  0  0  0  0  0  0  0130  0  0
  -22.3946  -14.5564   20.6568 O   0  0  0  0  0  0  0  0  0131  0  0
  -24.6048  -31.8614   23.2223 C   0  0  0  0  0  0  0  0  0100  0  0
  -25.8822  -32.4841   23.8616 C   0  0  1  0  0  0  0  0  0101  0  0
  -27.2536  -27.5042   20.1156 C   0  0  0  0  0  0  0  0  0102  0  0
  -25.5726  -33.8762   24.2210 N   0  0  0  0  0  0  0  0  0103  0  0
  -23.4066  -30.4859   21.5461 C   0  0  2  0  0  0  0  0  0104  0  0
  -24.8467  -28.9636   20.1247 C   0  0  0  0  0  0  0  0  0105  0  0
  -22.7412  -29.4652   22.5052 C   0  0  0  0  0  0  0  0  0106  0  0
  -18.0167  -28.1302   22.8626 C   0  0  0  0  0  0  0  0  0107  0  0
  -24.1342  -36.7390   23.2568 C   0  0  0  0  0  0  0  0  0108  0  0
  -25.9141  -30.8882   21.3456 C   0  0  0  0  0  0  0  0  0109  0  0
  -25.9930  -29.5029   20.7208 C   0  0  0  0  0  0  0  0  0110  0  0
  -27.1758  -28.7612   20.7331 C   0  0  0  0  0  0  0  0  0111  0  0
  -26.1032  -26.9836   19.5230 C   0  0  0  0  0  0  0  0  0112  0  0
  -24.9097  -27.7011   19.5331 C   0  0  0  0  0  0  0  0  0113  0  0
  -23.5715  -29.7899   20.1582 C   0  0  0  0  0  0  0  0  0114  0  0
  -25.3990  -36.3212   24.0232 C   0  0  1  0  0  0  0  0  0115  0  0
  -20.5793  -28.3813   23.1004 C   0  0  2  0  0  0  0  0  0116  0  0
  -20.6548  -26.9392   22.5411 C   0  0  0  0  0  0  0  0  0117  0  0
  -19.5615  -26.6407   21.5143 C   0  0  0  0  0  0  0  0  0118  0  0
  -18.1797  -26.7818   22.1673 C   0  0  0  0  0  0  0  0  0119  0  0
  -19.1385  -28.8769   23.2988 C   0  0  0  0  0  0  0  0  0120  0  0
  -18.9183  -30.1286   23.8878 C   0  0  0  0  0  0  0  0  0121  0  0
  -17.6396  -30.6493   24.0352 C   0  0  0  0  0  0  0  0  0122  0  0
  -25.9153  -34.9582   23.4993 C   0  0  0  0  0  0  0  0  0123  0  0
  -16.5415  -29.9068   23.6254 C   0  0  0  0  0  0  0  0  0124  0  0
  -16.7331  -28.6521   23.0586 C   0  0  0  0  0  0  0  0  0125  0  0
  -26.4583  -31.6439   25.0683 C   0  0  0  0  0  0  0  0  0126  0  0
  -25.3807  -31.3179   26.1374 C   0  0  0  0  0  0  0  0  0127  0  0
  -27.0530  -30.3024   24.5680 C   0  0  0  0  0  0  0  0  0128  0  0
  -27.6014  -32.4281   25.7651 C   0  0  0  0  0  0  0  0  0129  0  0
  -27.5629  -37.2220   24.8621 C   0  0  0  0  0  0  0  0  0130  0  0
  -21.4133  -29.3375   22.3735 N   0  0  0  0  0  0  0  0  0131  0  0
  -26.4706  -37.3372   23.9061 N   0  0  0  0  0  0  0  0  0132  0  0
  -24.6674  -31.0544   22.1178 N   0  0  0  0  0  0  0  0  0133  0  0
  -23.4259  -28.8150   23.2971 O   0  0  0  0  0  0  0  0  0134  0  0
  -28.3948  -26.7345   20.0089 O   0  0  0  0  0  0  0  0  0135  0  0
  -26.5870  -34.9065   22.4671 O   0  0  0  0  0  0  0  0  0136  0  0
  -23.5365  -32.1254   23.7833 O   0  0  0  0  0  0  0  0  0137  0  0
  -32.8261  -17.2191   23.4763 C   0  0  0  0  0  0  0  0  0  0  0  0
  -32.0713  -18.0558   24.2984 C   0  0  0  0  0  0  0  0  0  0  0  0
  -32.1899  -16.3928   22.5499 C   0  0  0  0  0  0  0  0  0  0  0  0
  -30.0442  -17.2397   23.2679 C   0  0  0  0  0  0  0  0  0  0  0  0
  -30.6804  -18.0661   24.1942 C   0  0  0  0  0  0  0  0  0  0  0  0
  -30.7990  -16.4030   22.4457 C   0  0  0  0  0  0  0  0  0  0  0  0
  -26.7803  -20.2948   26.2265 C   0  0  0  0  0  0  0  0  0  0  0  0
  -28.0973  -20.0621   26.0893 C   0  0  0  0  0  0  0  0  0  0  0  0
  -26.2000  -21.2651   27.2045 C   0  0  0  0  0  0  0  0  0  0  0  0
  -28.5336  -19.0539   25.0604 C   0  0  0  0  0  0  0  0  0  0  0  0
  -24.6919  -21.3958   27.2179 C   0  0  0  0  0  0  0  0  0  1  0  0
  -29.9150  -18.9158   25.0286 N   0  0  0  0  0  0  0  0  0  0  0  0
  -30.1534  -15.5634   21.5044 N   0  0  0  0  0  0  0  0  0  0  0  0
  -26.8979  -21.9029   27.9888 O   0  0  0  0  0  0  0  0  0  0  0  0
  -27.7150  -18.4603   24.3664 O   0  0  0  0  0  0  0  0  0  0  0  0
  -29.0855  -20.6842   26.8224 O   0  0  0  0  0  0  0  0  0  0  0  0
  -31.4485  -12.4701   19.0860 H   0  0  0  0  0  0  0  0  0  0  0  0
  -30.3970  -11.2460   19.6950 H   0  0  0  0  0  0  0  0  0  0  0  0
  -29.6870  -11.8204   17.4226 H   0  0  0  0  0  0  0  0  0  0  0  0
  -29.6375  -13.5326   17.8649 H   0  0  0  0  0  0  0  0  0  0  0  0
  -27.7830  -11.3650   18.7904 H   0  0  0  0  0  0  0  0  0  0  0  0
  -27.4028  -12.7801   17.8021 H   0  0  0  0  0  0  0  0  0  0  0  0
  -27.7353  -14.2503   19.6136 H   0  0  0  0  0  0  0  0  0  0  0  0
  -28.5890  -11.9550   21.3832 H   0  0  0  0  0  0  0  0  0  0  0  0
  -28.5005  -13.6134   21.8562 H   0  0  0  0  0  0  0  0  0  0  0  0
  -25.2399   -9.5495   22.4318 H   0  0  0  0  0  0  0  0  0  0  0  0
  -23.9663   -7.5070   22.7297 H   0  0  0  0  0  0  0  0  0  0  0  0
  -21.1515   -8.8641   19.9162 H   0  0  0  0  0  0  0  0  0  0  0  0
  -22.4016  -10.9115   19.6476 H   0  0  0  0  0  0  0  0  0  0  0  0
  -21.2319   -7.5552   23.9750 H   0  0  0  0  0  0  0  0  0  0  0  0
  -21.1589   -6.0228   25.8556 H   0  0  0  0  0  0  0  0  0  0  0  0
  -22.0396   -2.8212   23.2809 H   0  0  0  0  0  0  0  0  0  0  0  0
  -22.4401  -11.9703   22.4008 H   0  0  0  0  0  0  0  0  0  0  0  0
  -21.1493  -13.0679   22.2082 H   0  0  0  0  0  0  0  0  0  0  0  0
  -24.6538  -15.7807   20.5848 H   0  0  0  0  0  0  0  0  0  0  0  0
  -26.2762  -15.5453   20.1156 H   0  0  0  0  0  0  0  0  0  0  0  0
  -26.6778  -32.4663   23.1464 H   0  0  0  0  0  0  0  0  0  0  0  0
  -25.0747  -34.0282   25.0566 H   0  0  0  0  0  0  0  0  0  0  0  0
  -22.7881  -31.3489   21.4131 H   0  0  0  0  0  0  0  0  0  0  0  0
  -23.3854  -35.9823   23.3648 H   0  0  0  0  0  0  0  0  0  0  0  0
  -24.3696  -36.8624   22.2204 H   0  0  0  0  0  0  0  0  0  0  0  0
  -23.7669  -37.6632   23.6516 H   0  0  0  0  0  0  0  0  0  0  0  0
  -25.9445  -31.6237   20.5691 H   0  0  0  0  0  0  0  0  0  0  0  0
  -26.7436  -31.0079   22.0108 H   0  0  0  0  0  0  0  0  0  0  0  0
  -28.0090  -29.1452   21.2057 H   0  0  0  0  0  0  0  0  0  0  0  0
  -26.1369  -26.0560   19.0719 H   0  0  0  0  0  0  0  0  0  0  0  0
  -24.0652  -27.2961   19.0997 H   0  0  0  0  0  0  0  0  0  0  0  0
  -23.6156  -30.5365   19.3930 H   0  0  0  0  0  0  0  0  0  0  0  0
  -22.7355  -29.1425   19.9945 H   0  0  0  0  0  0  0  0  0  0  0  0
  -25.1353  -36.2335   25.0565 H   0  0  0  0  0  0  0  0  0  0  0  0
  -21.0070  -28.3206   24.0793 H   0  0  0  0  0  0  0  0  0  0  0  0
  -20.5555  -26.2518   23.3550 H   0  0  0  0  0  0  0  0  0  0  0  0
  -21.5974  -26.8362   22.0454 H   0  0  0  0  0  0  0  0  0  0  0  0
  -19.6810  -25.6422   21.1488 H   0  0  0  0  0  0  0  0  0  0  0  0
  -19.6406  -27.3343   20.7034 H   0  0  0  0  0  0  0  0  0  0  0  0
  -17.4282  -26.6888   21.4113 H   0  0  0  0  0  0  0  0  0  0  0  0
  -18.0803  -26.0130   22.9049 H   0  0  0  0  0  0  0  0  0  0  0  0
  -19.7265  -30.6774   24.2204 H   0  0  0  0  0  0  0  0  0  0  0  0
  -17.5064  -31.5856   24.4483 H   0  0  0  0  0  0  0  0  0  0  0  0
  -15.5878  -30.2839   23.7407 H   0  0  0  0  0  0  0  0  0  0  0  0
  -15.9120  -28.0941   22.7766 H   0  0  0  0  0  0  0  0  0  0  0  0
  -24.5787  -30.7757   25.6817 H   0  0  0  0  0  0  0  0  0  0  0  0
  -25.0041  -32.2289   26.5536 H   0  0  0  0  0  0  0  0  0  0  0  0
  -25.8166  -30.7245   26.9138 H   0  0  0  0  0  0  0  0  0  0  0  0
  -26.2892  -29.7335   24.0803 H   0  0  0  0  0  0  0  0  0  0  0  0
  -27.4336  -29.7484   25.4006 H   0  0  0  0  0  0  0  0  0  0  0  0
  -27.8466  -30.4994   23.8779 H   0  0  0  0  0  0  0  0  0  0  0  0
  -27.2251  -33.3632   26.1242 H   0  0  0  0  0  0  0  0  0  0  0  0
  -28.3902  -32.6065   25.0645 H   0  0  0  0  0  0  0  0  0  0  0  0
  -27.9772  -31.8555   26.5872 H   0  0  0  0  0  0  0  0  0  0  0  0
  -28.2744  -38.0016   24.6863 H   0  0  0  0  0  0  0  0  0  0  0  0
  -28.0396  -36.2711   24.7461 H   0  0  0  0  0  0  0  0  0  0  0  0
  -27.1773  -37.3087   25.8564 H   0  0  0  0  0  0  0  0  0  0  0  0
  -20.9627  -29.9365   21.7352 H   0  0  0  0  0  0  0  0  0  0  0  0
  -26.0447  -38.2561   24.0273 H   0  0  0  0  0  0  0  0  0  0  0  0
  -33.8552  -17.2114   23.5534 H   0  0  0  0  0  0  0  0  0  0  0  0
  -32.5419  -18.6672   24.9837 H   0  0  0  0  0  0  0  0  0  0  0  0
  -32.7484  -15.7739   21.9416 H   0  0  0  0  0  0  0  0  0  0  0  0
  -29.0151  -17.2473   23.1909 H   0  0  0  0  0  0  0  0  0  0  0  0
  -26.1301  -19.7715   25.6195 H   0  0  0  0  0  0  0  0  0  0  0  0
  -24.2359  -21.9049   28.0412 H   0  0  0  0  0  0  0  0  0  0  0  0
  -23.9305  -20.6441   27.2037 H   0  0  0  0  0  0  0  0  0  0  0  0
  -30.4219  -19.4748   25.6610 H   0  0  0  0  0  0  0  0  0  0  0  0
  -29.1990  -15.7495   21.3506 H   0  0  0  0  0  0  0  0  0  0  0  0
  -28.8571  -21.3184   27.4732 H   0  0  0  0  0  0  0  0  0  0  0  0
  1 25  1  0
  1 30  2  0
  1 83  1  0
  2  3  1  0
  2 25  1  0
  2 87  1  0
  2 88  1  0
  3  4  1  0
  3 89  1  0
  3 90  1  0
  4  5  1  0
  4 91  1  0
  4 92  1  0
  5  6  1  0
  5 26  1  0
  5 93  1  6
  6 25  1  0
  6 94  1  0
  6 95  1  0
  7  8  2  0
  7 26  1  0
  7 29  1  0
  8  9  1  0
  8 22  1  0
  9 10  1  0
  9 27  2  0
 10 11  2  0
 10 15  1  0
 11 12  1  0
 11 96  1  0
 12 13  2  0
 12 97  1  0
 13 14  1  0
 13 31  1  0
 14 15  2  0
 14 98  1  0
 15 99  1  0
 16 17  2  0
 16 21  1  0
 16 31  1  0
 17 18  1  0
 17100  1  0
 18 19  2  0
 18101  1  0
 19 20  1  0
 19 24  1  0
 20 21  2  0
 20102  1  0
 21 23  1  0
 22 28  1  0
 22 32  2  0
 26 27  1  0
 28103  1  0
 28104  1  0
 29105  1  0
 29106  1  0
 33 34  1  0
 33 66  1  0
 33 70  2  0
 34 36  1  0
 34 59  1  0
 34107  1  6
 35 44  2  0
 35 45  1  0
 35 68  1  0
 36 56  1  0
 36108  1  0
 37 39  1  0
 37 47  1  0
 37 66  1  0
 37109  1  6
 38 43  2  0
 38 46  1  0
 38 47  1  0
 39 64  1  0
 39 67  2  0
 40 52  1  0
 40 53  2  0
 40 58  1  0
 41110  1  0
 41111  1  0
 41112  1  0
 42 43  1  0
 42 66  1  0
 42113  1  0
 42114  1  0
 43 44  1  0
 44115  1  0
 45 46  2  0
 45116  1  0
 46117  1  0
 47118  1  0
 47119  1  0
 48 41  1  0
 48 56  1  0
 48 65  1  0
 48120  1  1
 49 50  1  0
 49 53  1  0
 49 64  1  0
 49121  1  1
 50 51  1  0
 50122  1  0
 50123  1  0
 51 52  1  0
 51124  1  0
 51125  1  0
 52126  1  0
 52127  1  0
 53 54  1  0
 54 55  2  0
 54128  1  0
 55 57  1  0
 55129  1  0
 56 69  2  0
 57 58  2  0
 57130  1  0
 58131  1  0
 59 60  1  0
 59 61  1  0
 59 62  1  0
 60132  1  0
 60133  1  0
 60134  1  0
 61135  1  0
 61136  1  0
 61137  1  0
 62138  1  0
 62139  1  0
 62140  1  0
 63 65  1  0
 63141  1  0
 63142  1  0
 63143  1  0
 64144  1  0
 65145  1  0
 68 81  1  0
 71 72  2  0
 71 73  1  0
 71146  1  0
 72 75  1  0
 72147  1  0
 73 76  2  0
 73148  1  0
 74 75  2  0
 74 76  1  0
 74149  1  0
 75 82  1  0
 76 83  1  0
 77 78  2  0
 77 79  1  0
 77150  1  0
 78 80  1  0
 78 86  1  0
 79 81  1  0
 79 84  2  0
 80 82  1  0
 80 85  2  0
 81151  1  0
 81152  1  0
 82153  1  0
 83154  1  0
 86155  1  0
M  ISO  4   1 100  68 101  81 101  83 100
M  END
$$$$
70
     RDKit          3D

155163  0  0  0  0  0  0  0  0999 V2000
  -30.7652  -14.3608   20.6636 C   0  0  0  0  0  0  0  0  0100  0  0
  -30.4392  -12.2669   19.3775 C   0  0  0  0  0  0  0  0  0101  0  0
  -29.4791  -12.5281   18.1977 C   0  0  0  0  0  0  0  0  0102  0  0
  -27.9985  -12.3963   18.6038 C   0  0  0  0  0  0  0  0  0103  0  0
  -27.6639  -13.2170   19.8820 C   0  0  2  0  0  0  0  0  0104  0  0
  -28.6795  -12.9602   21.0279 C   0  0  0  0  0  0  0  0  0105  0  0
  -25.2633  -13.8245   20.5754 C   0  0  0  0  0  0  0  0  0106  0  0
  -24.1645  -13.0409   20.9408 C   0  0  0  0  0  0  0  0  0107  0  0
  -24.6400  -11.7009   20.8697 C   0  0  0  0  0  0  0  0  0108  0  0
  -23.9005  -10.4085   21.0420 C   0  0  0  0  0  0  0  0  0109  0  0
  -24.3588   -9.4123   21.9123 C   0  0  0  0  0  0  0  0  0110  0  0
  -23.6296   -8.2350   22.0803 C   0  0  0  0  0  0  0  0  0111  0  0
  -22.4385   -8.0419   21.3657 C   0  0  0  0  0  0  0  0  0112  0  0
  -22.0103   -9.0167   20.4678 C   0  0  0  0  0  0  0  0  0113  0  0
  -22.7317  -10.1925   20.3102 C   0  0  0  0  0  0  0  0  0114  0  0
  -21.6857   -6.0709   22.5391 C   0  0  0  0  0  0  0  0  0115  0  0
  -21.4064   -6.5490   23.8264 C   0  0  0  0  0  0  0  0  0116  0  0
  -21.3635   -5.6677   24.9085 C   0  0  0  0  0  0  0  0  0117  0  0
  -21.5973   -4.3067   24.7088 C   0  0  0  0  0  0  0  0  0118  0  0
  -21.8700   -3.8284   23.4282 C   0  0  0  0  0  0  0  0  0119  0  0
  -21.9144   -4.7056   22.3460 C   0  0  0  0  0  0  0  0  0120  0  0
  -22.8194  -13.5263   21.1763 C   0  0  0  0  0  0  0  0  0121  0  0
  -22.1559   -4.2206   21.1063 F   0  0  0  0  0  0  0  0  0122  0  0
  -21.5628   -3.4510   25.7555 F   0  0  0  0  0  0  0  0  0123  0  0
  -30.0261  -13.1803   20.4553 N   0  0  0  0  0  0  0  0  0124  0  0
  -26.2911  -12.9356   20.3443 N   0  0  0  0  0  0  0  0  0125  0  0
  -25.9236  -11.6675   20.5847 N   0  0  0  0  0  0  0  0  0126  0  0
  -22.0708  -12.7905   22.0005 N   0  0  0  0  0  0  0  0  0127  0  0
  -25.4117  -15.1773   20.4097 N   0  0  0  0  0  0  0  0  0128  0  0
  -31.7916  -14.6724   20.0536 O   0  0  0  0  0  0  0  0  0129  0  0
  -21.6670   -6.9022   21.4423 O   0  0  0  0  0  0  0  0  0130  0  0
  -22.3946  -14.5564   20.6568 O   0  0  0  0  0  0  0  0  0131  0  0
  -24.6048  -31.8614   23.2223 C   0  0  0  0  0  0  0  0  0100  0  0
  -25.8822  -32.4841   23.8616 C   0  0  1  0  0  0  0  0  0101  0  0
  -27.2536  -27.5042   20.1156 C   0  0  0  0  0  0  0  0  0102  0  0
  -25.5726  -33.8762   24.2210 N   0  0  0  0  0  0  0  0  0103  0  0
  -23.4066  -30.4859   21.5461 C   0  0  2  0  0  0  0  0  0104  0  0
  -24.8467  -28.9636   20.1247 C   0  0  0  0  0  0  0  0  0105  0  0
  -22.7412  -29.4652   22.5052 C   0  0  0  0  0  0  0  0  0106  0  0
  -18.0167  -28.1302   22.8626 C   0  0  0  0  0  0  0  0  0107  0  0
  -24.1342  -36.7390   23.2568 C   0  0  0  0  0  0  0  0  0108  0  0
  -25.9141  -30.8882   21.3456 C   0  0  0  0  0  0  0  0  0109  0  0
  -25.9930  -29.5029   20.7208 C   0  0  0  0  0  0  0  0  0110  0  0
  -27.1758  -28.7612   20.7331 C   0  0  0  0  0  0  0  0  0111  0  0
  -26.1032  -26.9836   19.5230 C   0  0  0  0  0  0  0  0  0112  0  0
  -24.9097  -27.7011   19.5331 C   0  0  0  0  0  0  0  0  0113  0  0
  -23.5715  -29.7899   20.1582 C   0  0  0  0  0  0  0  0  0114  0  0
  -25.3990  -36.3212   24.0232 C   0  0  1  0  0  0  0  0  0115  0  0
  -20.5793  -28.3813   23.1004 C   0  0  2  0  0  0  0  0  0116  0  0
  -20.6548  -26.9392   22.5411 C   0  0  0  0  0  0  0  0  0117  0  0
  -19.5615  -26.6407   21.5143 C   0  0  0  0  0  0  0  0  0118  0  0
  -18.1797  -26.7818   22.1673 C   0  0  0  0  0  0  0  0  0119  0  0
  -19.1385  -28.8769   23.2988 C   0  0  0  0  0  0  0  0  0120  0  0
  -18.9183  -30.1286   23.8878 C   0  0  0  0  0  0  0  0  0121  0  0
  -17.6396  -30.6493   24.0352 C   0  0  0  0  0  0  0  0  0122  0  0
  -25.9153  -34.9582   23.4993 C   0  0  0  0  0  0  0  0  0123  0  0
  -16.5415  -29.9068   23.6254 C   0  0  0  0  0  0  0  0  0124  0  0
  -16.7331  -28.6521   23.0586 C   0  0  0  0  0  0  0  0  0125  0  0
  -26.4583  -31.6439   25.0683 C   0  0  0  0  0  0  0  0  0126  0  0
  -25.3807  -31.3179   26.1374 C   0  0  0  0  0  0  0  0  0127  0  0
  -27.0530  -30.3024   24.5680 C   0  0  0  0  0  0  0  0  0128  0  0
  -27.6014  -32.4281   25.7651 C   0  0  0  0  0  0  0  0  0129  0  0
  -27.5629  -37.2220   24.8621 C   0  0  0  0  0  0  0  0  0130  0  0
  -21.4133  -29.3375   22.3735 N   0  0  0  0  0  0  0  0  0131  0  0
  -26.4706  -37.3372   23.9061 N   0  0  0  0  0  0  0  0  0132  0  0
  -24.6674  -31.0544   22.1178 N   0  0  0  0  0  0  0  0  0133  0  0
  -23.4259  -28.8150   23.2971 O   0  0  0  0  0  0  0  0  0134  0  0
  -28.3948  -26.7345   20.0089 O   0  0  0  0  0  0  0  0  0135  0  0
  -26.5870  -34.9065   22.4671 O   0  0  0  0  0  0  0  0  0136  0  0
  -23.5365  -32.1254   23.7833 O   0  0  0  0  0  0  0  0  0137  0  0
  -31.3031  -25.1527   17.4546 C   0  0  0  0  0  0  0  0  0  0  0  0
  -30.4474  -22.9186   17.7373 C   0  0  0  0  0  0  0  0  0  0  0  0
  -31.2393  -23.8259   17.0399 C   0  0  0  0  0  0  0  0  0  0  0  0
  -30.5677  -25.5420   18.5651 C   0  0  0  0  0  0  0  0  0  0  0  0
  -29.7337  -23.3644   18.8407 C   0  0  0  0  0  0  0  0  0  0  0  0
  -30.5727  -26.9344   19.0817 C   0  0  0  0  0  0  0  0  0  0  0  0
  -30.3157  -28.2899   21.1303 C   0  0  0  0  0  0  0  0  0  0  0  0
  -31.3710  -28.0647   23.3967 C   0  0  0  0  0  0  0  0  0  0  0  0
  -30.0638  -28.1112   22.6215 C   0  0  2  0  0  0  0  0  0  1  0  0
  -29.8132  -24.6476   19.2183 N   0  0  0  0  0  0  0  0  0  0  0  0
  -31.9761  -23.4019   15.9150 N   0  0  0  0  0  0  0  0  0  0  0  0
  -28.9263  -22.4444   19.5545 N   0  0  0  0  0  0  0  0  0  0  0  0
  -30.3745  -27.0696   20.4547 N   0  0  0  0  0  0  0  0  0  0  0  0
  -30.7204  -27.8641   18.2931 O   0  0  0  0  0  0  0  0  0  0  0  0
  -30.4299  -29.3969   20.6090 O   0  0  0  0  0  0  0  0  0  0  0  0
  -31.4485  -12.4701   19.0860 H   0  0  0  0  0  0  0  0  0  0  0  0
  -30.3970  -11.2460   19.6950 H   0  0  0  0  0  0  0  0  0  0  0  0
  -29.6870  -11.8204   17.4226 H   0  0  0  0  0  0  0  0  0  0  0  0
  -29.6375  -13.5326   17.8649 H   0  0  0  0  0  0  0  0  0  0  0  0
  -27.7830  -11.3650   18.7904 H   0  0  0  0  0  0  0  0  0  0  0  0
  -27.4028  -12.7801   17.8021 H   0  0  0  0  0  0  0  0  0  0  0  0
  -27.7353  -14.2503   19.6136 H   0  0  0  0  0  0  0  0  0  0  0  0
  -28.5890  -11.9550   21.3832 H   0  0  0  0  0  0  0  0  0  0  0  0
  -28.5005  -13.6134   21.8562 H   0  0  0  0  0  0  0  0  0  0  0  0
  -25.2399   -9.5495   22.4318 H   0  0  0  0  0  0  0  0  0  0  0  0
  -23.9663   -7.5070   22.7297 H   0  0  0  0  0  0  0  0  0  0  0  0
  -21.1515   -8.8641   19.9162 H   0  0  0  0  0  0  0  0  0  0  0  0
  -22.4016  -10.9115   19.6476 H   0  0  0  0  0  0  0  0  0  0  0  0
  -21.2319   -7.5552   23.9750 H   0  0  0  0  0  0  0  0  0  0  0  0
  -21.1589   -6.0228   25.8556 H   0  0  0  0  0  0  0  0  0  0  0  0
  -22.0396   -2.8212   23.2809 H   0  0  0  0  0  0  0  0  0  0  0  0
  -22.4401  -11.9703   22.4008 H   0  0  0  0  0  0  0  0  0  0  0  0
  -21.1493  -13.0679   22.2082 H   0  0  0  0  0  0  0  0  0  0  0  0
  -24.6538  -15.7807   20.5848 H   0  0  0  0  0  0  0  0  0  0  0  0
  -26.2762  -15.5453   20.1156 H   0  0  0  0  0  0  0  0  0  0  0  0
  -26.6778  -32.4663   23.1464 H   0  0  0  0  0  0  0  0  0  0  0  0
  -25.0747  -34.0282   25.0566 H   0  0  0  0  0  0  0  0  0  0  0  0
  -22.7881  -31.3489   21.4131 H   0  0  0  0  0  0  0  0  0  0  0  0
  -23.3854  -35.9823   23.3648 H   0  0  0  0  0  0  0  0  0  0  0  0
  -24.3696  -36.8624   22.2204 H   0  0  0  0  0  0  0  0  0  0  0  0
  -23.7669  -37.6632   23.6516 H   0  0  0  0  0  0  0  0  0  0  0  0
  -25.9445  -31.6237   20.5691 H   0  0  0  0  0  0  0  0  0  0  0  0
  -26.7436  -31.0079   22.0108 H   0  0  0  0  0  0  0  0  0  0  0  0
  -28.0090  -29.1452   21.2057 H   0  0  0  0  0  0  0  0  0  0  0  0
  -26.1369  -26.0560   19.0719 H   0  0  0  0  0  0  0  0  0  0  0  0
  -24.0652  -27.2961   19.0997 H   0  0  0  0  0  0  0  0  0  0  0  0
  -23.6156  -30.5365   19.3930 H   0  0  0  0  0  0  0  0  0  0  0  0
  -22.7355  -29.1425   19.9945 H   0  0  0  0  0  0  0  0  0  0  0  0
  -25.1353  -36.2335   25.0565 H   0  0  0  0  0  0  0  0  0  0  0  0
  -21.0070  -28.3206   24.0793 H   0  0  0  0  0  0  0  0  0  0  0  0
  -20.5555  -26.2518   23.3550 H   0  0  0  0  0  0  0  0  0  0  0  0
  -21.5974  -26.8362   22.0454 H   0  0  0  0  0  0  0  0  0  0  0  0
  -19.6810  -25.6422   21.1488 H   0  0  0  0  0  0  0  0  0  0  0  0
  -19.6406  -27.3343   20.7034 H   0  0  0  0  0  0  0  0  0  0  0  0
  -17.4282  -26.6888   21.4113 H   0  0  0  0  0  0  0  0  0  0  0  0
  -18.0803  -26.0130   22.9049 H   0  0  0  0  0  0  0  0  0  0  0  0
  -19.7265  -30.6774   24.2204 H   0  0  0  0  0  0  0  0  0  0  0  0
  -17.5064  -31.5856   24.4483 H   0  0  0  0  0  0  0  0  0  0  0  0
  -15.5878  -30.2839   23.7407 H   0  0  0  0  0  0  0  0  0  0  0  0
  -15.9120  -28.0941   22.7766 H   0  0  0  0  0  0  0  0  0  0  0  0
  -24.5787  -30.7757   25.6817 H   0  0  0  0  0  0  0  0  0  0  0  0
  -25.0041  -32.2289   26.5536 H   0  0  0  0  0  0  0  0  0  0  0  0
  -25.8166  -30.7245   26.9138 H   0  0  0  0  0  0  0  0  0  0  0  0
  -26.2892  -29.7335   24.0803 H   0  0  0  0  0  0  0  0  0  0  0  0
  -27.4336  -29.7484   25.4006 H   0  0  0  0  0  0  0  0  0  0  0  0
  -27.8466  -30.4994   23.8779 H   0  0  0  0  0  0  0  0  0  0  0  0
  -27.2251  -33.3632   26.1242 H   0  0  0  0  0  0  0  0  0  0  0  0
  -28.3902  -32.6065   25.0645 H   0  0  0  0  0  0  0  0  0  0  0  0
  -27.9772  -31.8555   26.5872 H   0  0  0  0  0  0  0  0  0  0  0  0
  -28.2744  -38.0016   24.6863 H   0  0  0  0  0  0  0  0  0  0  0  0
  -28.0396  -36.2711   24.7461 H   0  0  0  0  0  0  0  0  0  0  0  0
  -27.1773  -37.3087   25.8564 H   0  0  0  0  0  0  0  0  0  0  0  0
  -20.9627  -29.9365   21.7352 H   0  0  0  0  0  0  0  0  0  0  0  0
  -26.0447  -38.2561   24.0273 H   0  0  0  0  0  0  0  0  0  0  0  0
  -31.8867  -25.8348   16.9455 H   0  0  0  0  0  0  0  0  0  0  0  0
  -30.3919  -21.9321   17.4393 H   0  0  0  0  0  0  0  0  0  0  0  0
  -31.3413  -28.7828   24.1894 H   0  0  0  0  0  0  0  0  0  0  0  0
  -32.1839  -28.2926   22.7393 H   0  0  0  0  0  0  0  0  0  0  0  0
  -31.5077  -27.0860   23.8070 H   0  0  0  0  0  0  0  0  0  0  0  0
  -29.6524  -28.3574   23.5781 H   0  0  0  0  0  0  0  0  0  0  0  0
  -29.2989  -24.9439   20.0037 H   0  0  0  0  0  0  0  0  0  0  0  0
  -32.5360  -24.0447   15.4224 H   0  0  0  0  0  0  0  0  0  0  0  0
  -31.9307  -22.4631   15.6221 H   0  0  0  0  0  0  0  0  0  0  0  0
  -28.0889  -22.7808   19.9481 H   0  0  0  0  0  0  0  0  0  0  0  0
  -30.2686  -26.2470   20.9852 H   0  0  0  0  0  0  0  0  0  0  0  0
  1 25  1  0
  1 30  2  0
  1 82  1  0
  2  3  1  0
  2 25  1  0
  2 86  1  0
  2 87  1  0
  3  4  1  0
  3 88  1  0
  3 89  1  0
  4  5  1  0
  4 90  1  0
  4 91  1  0
  5  6  1  0
  5 26  1  0
  5 92  1  6
  6 25  1  0
  6 93  1  0
  6 94  1  0
  7  8  2  0
  7 26  1  0
  7 29  1  0
  8  9  1  0
  8 22  1  0
  9 10  1  0
  9 27  2  0
 10 11  2  0
 10 15  1  0
 11 12  1  0
 11 95  1  0
 12 13  2  0
 12 96  1  0
 13 14  1  0
 13 31  1  0
 14 15  2  0
 14 97  1  0
 15 98  1  0
 16 17  2  0
 16 21  1  0
 16 31  1  0
 17 18  1  0
 17 99  1  0
 18 19  2  0
 18100  1  0
 19 20  1  0
 19 24  1  0
 20 21  2  0
 20101  1  0
 21 23  1  0
 22 28  1  0
 22 32  2  0
 26 27  1  0
 28102  1  0
 28103  1  0
 29104  1  0
 29105  1  0
 33 34  1  0
 33 66  1  0
 33 70  2  0
 34 36  1  0
 34 59  1  0
 34106  1  6
 35 44  2  0
 35 45  1  0
 35 68  1  0
 36 56  1  0
 36107  1  0
 37 39  1  0
 37 47  1  0
 37 66  1  0
 37108  1  6
 38 43  2  0
 38 46  1  0
 38 47  1  0
 39 64  1  0
 39 67  2  0
 40 52  1  0
 40 53  2  0
 40 58  1  0
 41109  1  0
 41110  1  0
 41111  1  0
 42 43  1  0
 42 66  1  0
 42112  1  0
 42113  1  0
 43 44  1  0
 44114  1  0
 45 46  2  0
 45115  1  0
 46116  1  0
 47117  1  0
 47118  1  0
 48 41  1  0
 48 56  1  0
 48 65  1  0
 48119  1  1
 49 50  1  0
 49 53  1  0
 49 64  1  0
 49120  1  1
 50 51  1  0
 50121  1  0
 50122  1  0
 51 52  1  0
 51123  1  0
 51124  1  0
 52125  1  0
 52126  1  0
 53 54  1  0
 54 55  2  0
 54127  1  0
 55 57  1  0
 55128  1  0
 56 69  2  0
 57 58  2  0
 57129  1  0
 58130  1  0
 59 60  1  0
 59 61  1  0
 59 62  1  0
 60131  1  0
 60132  1  0
 60133  1  0
 61134  1  0
 61135  1  0
 61136  1  0
 62137  1  0
 62138  1  0
 62139  1  0
 63 65  1  0
 63140  1  0
 63141  1  0
 63142  1  0
 64143  1  0
 65144  1  0
 68 79  1  0
 71 73  2  0
 71 74  1  0
 71145  1  0
 72 73  1  0
 72 75  2  0
 72146  1  0
 73 81  1  0
 74 76  1  0
 74 80  2  0
 75 80  1  0
 75 82  1  0
 76 83  1  0
 76 84  2  0
 77 79  1  0
 77 83  1  0
 77 85  2  0
 78147  1  0
 78148  1  0
 78149  1  0
 79 78  1  0
 79150  1  1
 80151  1  0
 81152  1  0
 81153  1  0
 82154  1  0
 83155  1  0
M  CHG  1  80   1
M  ISO  4   1 100  68 101  79 101  82 100
M  END
$$$$
71
     RDKit          3D

155163  0  0  0  0  0  0  0  0999 V2000
  -30.7652  -14.3608   20.6636 C   0  0  0  0  0  0  0  0  0100  0  0
  -30.4392  -12.2669   19.3775 C   0  0  0  0  0  0  0  0  0101  0  0
  -29.4791  -12.5281   18.1977 C   0  0  0  0  0  0  0  0  0102  0  0
  -27.9985  -12.3963   18.6038 C   0  0  0  0  0  0  0  0  0103  0  0
  -27.6639  -13.2170   19.8820 C   0  0  2  0  0  0  0  0  0104  0  0
  -28.6795  -12.9602   21.0279 C   0  0  0  0  0  0  0  0  0105  0  0
  -25.2633  -13.8245   20.5754 C   0  0  0  0  0  0  0  0  0106  0  0
  -24.1645  -13.0409   20.9408 C   0  0  0  0  0  0  0  0  0107  0  0
  -24.6400  -11.7009   20.8697 C   0  0  0  0  0  0  0  0  0108  0  0
  -23.9005  -10.4085   21.0420 C   0  0  0  0  0  0  0  0  0109  0  0
  -24.3588   -9.4123   21.9123 C   0  0  0  0  0  0  0  0  0110  0  0
  -23.6296   -8.2350   22.0803 C   0  0  0  0  0  0  0  0  0111  0  0
  -22.4385   -8.0419   21.3657 C   0  0  0  0  0  0  0  0  0112  0  0
  -22.0103   -9.0167   20.4678 C   0  0  0  0  0  0  0  0  0113  0  0
  -22.7317  -10.1925   20.3102 C   0  0  0  0  0  0  0  0  0114  0  0
  -21.6857   -6.0709   22.5391 C   0  0  0  0  0  0  0  0  0115  0  0
  -21.4064   -6.5490   23.8264 C   0  0  0  0  0  0  0  0  0116  0  0
  -21.3635   -5.6677   24.9085 C   0  0  0  0  0  0  0  0  0117  0  0
  -21.5973   -4.3067   24.7088 C   0  0  0  0  0  0  0  0  0118  0  0
  -21.8700   -3.8284   23.4282 C   0  0  0  0  0  0  0  0  0119  0  0
  -21.9144   -4.7056   22.3460 C   0  0  0  0  0  0  0  0  0120  0  0
  -22.8194  -13.5263   21.1763 C   0  0  0  0  0  0  0  0  0121  0  0
  -22.1559   -4.2206   21.1063 F   0  0  0  0  0  0  0  0  0122  0  0
  -21.5628   -3.4510   25.7555 F   0  0  0  0  0  0  0  0  0123  0  0
  -30.0261  -13.1803   20.4553 N   0  0  0  0  0  0  0  0  0124  0  0
  -26.2911  -12.9356   20.3443 N   0  0  0  0  0  0  0  0  0125  0  0
  -25.9236  -11.6675   20.5847 N   0  0  0  0  0  0  0  0  0126  0  0
  -22.0708  -12.7905   22.0005 N   0  0  0  0  0  0  0  0  0127  0  0
  -25.4117  -15.1773   20.4097 N   0  0  0  0  0  0  0  0  0128  0  0
  -31.7916  -14.6724   20.0536 O   0  0  0  0  0  0  0  0  0129  0  0
  -21.6670   -6.9022   21.4423 O   0  0  0  0  0  0  0  0  0130  0  0
  -22.3946  -14.5564   20.6568 O   0  0  0  0  0  0  0  0  0131  0  0
  -24.6048  -31.8614   23.2223 C   0  0  0  0  0  0  0  0  0100  0  0
  -25.8822  -32.4841   23.8616 C   0  0  1  0  0  0  0  0  0101  0  0
  -27.2536  -27.5042   20.1156 C   0  0  0  0  0  0  0  0  0102  0  0
  -25.5726  -33.8762   24.2210 N   0  0  0  0  0  0  0  0  0103  0  0
  -23.4066  -30.4859   21.5461 C   0  0  2  0  0  0  0  0  0104  0  0
  -24.8467  -28.9636   20.1247 C   0  0  0  0  0  0  0  0  0105  0  0
  -22.7412  -29.4652   22.5052 C   0  0  0  0  0  0  0  0  0106  0  0
  -18.0167  -28.1302   22.8626 C   0  0  0  0  0  0  0  0  0107  0  0
  -24.1342  -36.7390   23.2568 C   0  0  0  0  0  0  0  0  0108  0  0
  -25.9141  -30.8882   21.3456 C   0  0  0  0  0  0  0  0  0109  0  0
  -25.9930  -29.5029   20.7208 C   0  0  0  0  0  0  0  0  0110  0  0
  -27.1758  -28.7612   20.7331 C   0  0  0  0  0  0  0  0  0111  0  0
  -26.1032  -26.9836   19.5230 C   0  0  0  0  0  0  0  0  0112  0  0
  -24.9097  -27.7011   19.5331 C   0  0  0  0  0  0  0  0  0113  0  0
  -23.5715  -29.7899   20.1582 C   0  0  0  0  0  0  0  0  0114  0  0
  -25.3990  -36.3212   24.0232 C   0  0  1  0  0  0  0  0  0115  0  0
  -20.5793  -28.3813   23.1004 C   0  0  2  0  0  0  0  0  0116  0  0
  -20.6548  -26.9392   22.5411 C   0  0  0  0  0  0  0  0  0117  0  0
  -19.5615  -26.6407   21.5143 C   0  0  0  0  0  0  0  0  0118  0  0
  -18.1797  -26.7818   22.1673 C   0  0  0  0  0  0  0  0  0119  0  0
  -19.1385  -28.8769   23.2988 C   0  0  0  0  0  0  0  0  0120  0  0
  -18.9183  -30.1286   23.8878 C   0  0  0  0  0  0  0  0  0121  0  0
  -17.6396  -30.6493   24.0352 C   0  0  0  0  0  0  0  0  0122  0  0
  -25.9153  -34.9582   23.4993 C   0  0  0  0  0  0  0  0  0123  0  0
  -16.5415  -29.9068   23.6254 C   0  0  0  0  0  0  0  0  0124  0  0
  -16.7331  -28.6521   23.0586 C   0  0  0  0  0  0  0  0  0125  0  0
  -26.4583  -31.6439   25.0683 C   0  0  0  0  0  0  0  0  0126  0  0
  -25.3807  -31.3179   26.1374 C   0  0  0  0  0  0  0  0  0127  0  0
  -27.0530  -30.3024   24.5680 C   0  0  0  0  0  0  0  0  0128  0  0
  -27.6014  -32.4281   25.7651 C   0  0  0  0  0  0  0  0  0129  0  0
  -27.5629  -37.2220   24.8621 C   0  0  0  0  0  0  0  0  0130  0  0
  -21.4133  -29.3375   22.3735 N   0  0  0  0  0  0  0  0  0131  0  0
  -26.4706  -37.3372   23.9061 N   0  0  0  0  0  0  0  0  0132  0  0
  -24.6674  -31.0544   22.1178 N   0  0  0  0  0  0  0  0  0133  0  0
  -23.4259  -28.8150   23.2971 O   0  0  0  0  0  0  0  0  0134  0  0
  -28.3948  -26.7345   20.0089 O   0  0  0  0  0  0  0  0  0135  0  0
  -26.5870  -34.9065   22.4671 O   0  0  0  0  0  0  0  0  0136  0  0
  -23.5365  -32.1254   23.7833 O   0  0  0  0  0  0  0  0  0137  0  0
  -30.4659  -18.3416   24.0427 C   0  0  0  0  0  0  0  0  0  0  0  0
  -29.8793  -17.4568   23.1379 C   0  0  0  0  0  0  0  0  0  0  0  0
  -32.0638  -16.6067   22.5528 C   0  0  0  0  0  0  0  0  0  0  0  0
  -31.8515  -18.3590   24.2025 C   0  0  0  0  0  0  0  0  0  0  0  0
  -30.6782  -16.5894   22.3930 C   0  0  0  0  0  0  0  0  0  0  0  0
  -32.6504  -17.4916   23.4576 C   0  0  0  0  0  0  0  0  0  0  0  0
  -32.4698  -19.2977   25.1611 C   0  0  0  0  0  0  0  0  0  0  0  0
  -32.7946  -21.6777   25.7986 C   0  0  0  0  0  0  0  0  0  0  0  0
  -31.1582  -23.5518   25.9915 C   0  0  0  0  0  0  0  0  0  0  0  0
  -32.4210  -23.0591   25.3077 C   0  0  2  0  0  0  0  0  0  1  0  0
  -30.0816  -15.6906   21.4742 N   0  0  0  0  0  0  0  0  0  0  0  0
  -32.2755  -20.6104   24.9740 N   0  0  0  0  0  0  0  0  0  0  0  0
  -33.1880  -18.7824   26.1584 N   0  0  0  0  0  0  0  0  0  0  0  0
  -33.4868  -21.4486   26.7808 O   0  0  0  0  0  0  0  0  0  0  0  0
  -33.9829  -17.5023   23.6028 F   0  0  0  0  0  0  0  0  0  0  0  0
  -31.4485  -12.4701   19.0860 H   0  0  0  0  0  0  0  0  0  0  0  0
  -30.3970  -11.2460   19.6950 H   0  0  0  0  0  0  0  0  0  0  0  0
  -29.6870  -11.8204   17.4226 H   0  0  0  0  0  0  0  0  0  0  0  0
  -29.6375  -13.5326   17.8649 H   0  0  0  0  0  0  0  0  0  0  0  0
  -27.7830  -11.3650   18.7904 H   0  0  0  0  0  0  0  0  0  0  0  0
  -27.4028  -12.7801   17.8021 H   0  0  0  0  0  0  0  0  0  0  0  0
  -27.7353  -14.2503   19.6136 H   0  0  0  0  0  0  0  0  0  0  0  0
  -28.5890  -11.9550   21.3832 H   0  0  0  0  0  0  0  0  0  0  0  0
  -28.5005  -13.6134   21.8562 H   0  0  0  0  0  0  0  0  0  0  0  0
  -25.2399   -9.5495   22.4318 H   0  0  0  0  0  0  0  0  0  0  0  0
  -23.9663   -7.5070   22.7297 H   0  0  0  0  0  0  0  0  0  0  0  0
  -21.1515   -8.8641   19.9162 H   0  0  0  0  0  0  0  0  0  0  0  0
  -22.4016  -10.9115   19.6476 H   0  0  0  0  0  0  0  0  0  0  0  0
  -21.2319   -7.5552   23.9750 H   0  0  0  0  0  0  0  0  0  0  0  0
  -21.1589   -6.0228   25.8556 H   0  0  0  0  0  0  0  0  0  0  0  0
  -22.0396   -2.8212   23.2809 H   0  0  0  0  0  0  0  0  0  0  0  0
  -22.4401  -11.9703   22.4008 H   0  0  0  0  0  0  0  0  0  0  0  0
  -21.1493  -13.0679   22.2082 H   0  0  0  0  0  0  0  0  0  0  0  0
  -24.6538  -15.7807   20.5848 H   0  0  0  0  0  0  0  0  0  0  0  0
  -26.2762  -15.5453   20.1156 H   0  0  0  0  0  0  0  0  0  0  0  0
  -26.6778  -32.4663   23.1464 H   0  0  0  0  0  0  0  0  0  0  0  0
  -25.0747  -34.0282   25.0566 H   0  0  0  0  0  0  0  0  0  0  0  0
  -22.7881  -31.3489   21.4131 H   0  0  0  0  0  0  0  0  0  0  0  0
  -23.3854  -35.9823   23.3648 H   0  0  0  0  0  0  0  0  0  0  0  0
  -24.3696  -36.8624   22.2204 H   0  0  0  0  0  0  0  0  0  0  0  0
  -23.7669  -37.6632   23.6516 H   0  0  0  0  0  0  0  0  0  0  0  0
  -25.9445  -31.6237   20.5691 H   0  0  0  0  0  0  0  0  0  0  0  0
  -26.7436  -31.0079   22.0108 H   0  0  0  0  0  0  0  0  0  0  0  0
  -28.0090  -29.1452   21.2057 H   0  0  0  0  0  0  0  0  0  0  0  0
  -26.1369  -26.0560   19.0719 H   0  0  0  0  0  0  0  0  0  0  0  0
  -24.0652  -27.2961   19.0997 H   0  0  0  0  0  0  0  0  0  0  0  0
  -23.6156  -30.5365   19.3930 H   0  0  0  0  0  0  0  0  0  0  0  0
  -22.7355  -29.1425   19.9945 H   0  0  0  0  0  0  0  0  0  0  0  0
  -25.1353  -36.2335   25.0565 H   0  0  0  0  0  0  0  0  0  0  0  0
  -21.0070  -28.3206   24.0793 H   0  0  0  0  0  0  0  0  0  0  0  0
  -20.5555  -26.2518   23.3550 H   0  0  0  0  0  0  0  0  0  0  0  0
  -21.5974  -26.8362   22.0454 H   0  0  0  0  0  0  0  0  0  0  0  0
  -19.6810  -25.6422   21.1488 H   0  0  0  0  0  0  0  0  0  0  0  0
  -19.6406  -27.3343   20.7034 H   0  0  0  0  0  0  0  0  0  0  0  0
  -17.4282  -26.6888   21.4113 H   0  0  0  0  0  0  0  0  0  0  0  0
  -18.0803  -26.0130   22.9049 H   0  0  0  0  0  0  0  0  0  0  0  0
  -19.7265  -30.6774   24.2204 H   0  0  0  0  0  0  0  0  0  0  0  0
  -17.5064  -31.5856   24.4483 H   0  0  0  0  0  0  0  0  0  0  0  0
  -15.5878  -30.2839   23.7407 H   0  0  0  0  0  0  0  0  0  0  0  0
  -15.9120  -28.0941   22.7766 H   0  0  0  0  0  0  0  0  0  0  0  0
  -24.5787  -30.7757   25.6817 H   0  0  0  0  0  0  0  0  0  0  0  0
  -25.0041  -32.2289   26.5536 H   0  0  0  0  0  0  0  0  0  0  0  0
  -25.8166  -30.7245   26.9138 H   0  0  0  0  0  0  0  0  0  0  0  0
  -26.2892  -29.7335   24.0803 H   0  0  0  0  0  0  0  0  0  0  0  0
  -27.4336  -29.7484   25.4006 H   0  0  0  0  0  0  0  0  0  0  0  0
  -27.8466  -30.4994   23.8779 H   0  0  0  0  0  0  0  0  0  0  0  0
  -27.2251  -33.3632   26.1242 H   0  0  0  0  0  0  0  0  0  0  0  0
  -28.3902  -32.6065   25.0645 H   0  0  0  0  0  0  0  0  0  0  0  0
  -27.9772  -31.8555   26.5872 H   0  0  0  0  0  0  0  0  0  0  0  0
  -28.2744  -38.0016   24.6863 H   0  0  0  0  0  0  0  0  0  0  0  0
  -28.0396  -36.2711   24.7461 H   0  0  0  0  0  0  0  0  0  0  0  0
  -27.1773  -37.3087   25.8564 H   0  0  0  0  0  0  0  0  0  0  0  0
  -20.9627  -29.9365   21.7352 H   0  0  0  0  0  0  0  0  0  0  0  0
  -26.0447  -38.2561   24.0273 H   0  0  0  0  0  0  0  0  0  0  0  0
  -29.8748  -18.9833   24.5939 H   0  0  0  0  0  0  0  0  0  0  0  0
  -28.8542  -17.4439   23.0196 H   0  0  0  0  0  0  0  0  0  0  0  0
  -32.6549  -15.9649   22.0017 H   0  0  0  0  0  0  0  0  0  0  0  0
  -31.1706  -23.2557   27.0197 H   0  0  0  0  0  0  0  0  0  0  0  0
  -30.3026  -23.1280   25.5086 H   0  0  0  0  0  0  0  0  0  0  0  0
  -31.1114  -24.6189   25.9281 H   0  0  0  0  0  0  0  0  0  0  0  0
  -33.4837  -23.1593   25.2334 H   0  0  0  0  0  0  0  0  0  0  0  0
  -29.1324  -15.8608   21.2760 H   0  0  0  0  0  0  0  0  0  0  0  0
  -31.7262  -20.8730   24.2003 H   0  0  0  0  0  0  0  0  0  0  0  0
  -33.2910  -17.8065   26.2378 H   0  0  0  0  0  0  0  0  0  0  0  0
  -33.6156  -19.3776   26.8158 H   0  0  0  0  0  0  0  0  0  0  0  0
  1 25  1  0
  1 30  2  0
  1 81  1  0
  2  3  1  0
  2 25  1  0
  2 86  1  0
  2 87  1  0
  3  4  1  0
  3 88  1  0
  3 89  1  0
  4  5  1  0
  4 90  1  0
  4 91  1  0
  5  6  1  0
  5 26  1  0
  5 92  1  6
  6 25  1  0
  6 93  1  0
  6 94  1  0
  7  8  2  0
  7 26  1  0
  7 29  1  0
  8  9  1  0
  8 22  1  0
  9 10  1  0
  9 27  2  0
 10 11  2  0
 10 15  1  0
 11 12  1  0
 11 95  1  0
 12 13  2  0
 12 96  1  0
 13 14  1  0
 13 31  1  0
 14 15  2  0
 14 97  1  0
 15 98  1  0
 16 17  2  0
 16 21  1  0
 16 31  1  0
 17 18  1  0
 17 99  1  0
 18 19  2  0
 18100  1  0
 19 20  1  0
 19 24  1  0
 20 21  2  0
 20101  1  0
 21 23  1  0
 22 28  1  0
 22 32  2  0
 26 27  1  0
 28102  1  0
 28103  1  0
 29104  1  0
 29105  1  0
 33 34  1  0
 33 66  1  0
 33 70  2  0
 34 36  1  0
 34 59  1  0
 34106  1  6
 35 44  2  0
 35 45  1  0
 35 68  1  0
 36 56  1  0
 36107  1  0
 37 39  1  0
 37 47  1  0
 37 66  1  0
 37108  1  6
 38 43  2  0
 38 46  1  0
 38 47  1  0
 39 64  1  0
 39 67  2  0
 40 52  1  0
 40 53  2  0
 40 58  1  0
 41109  1  0
 41110  1  0
 41111  1  0
 42 43  1  0
 42 66  1  0
 42112  1  0
 42113  1  0
 43 44  1  0
 44114  1  0
 45 46  2  0
 45115  1  0
 46116  1  0
 47117  1  0
 47118  1  0
 48 41  1  0
 48 56  1  0
 48 65  1  0
 48119  1  1
 49 50  1  0
 49 53  1  0
 49 64  1  0
 49120  1  1
 50 51  1  0
 50121  1  0
 50122  1  0
 51 52  1  0
 51123  1  0
 51124  1  0
 52125  1  0
 52126  1  0
 53 54  1  0
 54 55  2  0
 54127  1  0
 55 57  1  0
 55128  1  0
 56 69  2  0
 57 58  2  0
 57129  1  0
 58130  1  0
 59 60  1  0
 59 61  1  0
 59 62  1  0
 60131  1  0
 60132  1  0
 60133  1  0
 61134  1  0
 61135  1  0
 61136  1  0
 62137  1  0
 62138  1  0
 62139  1  0
 63 65  1  0
 63140  1  0
 63141  1  0
 63142  1  0
 64143  1  0
 65144  1  0
 68 80  1  0
 71 72  2  0
 71 74  1  0
 71145  1  0
 72 75  1  0
 72146  1  0
 73 75  2  0
 73 76  1  0
 73147  1  0
 74 76  2  0
 74 77  1  0
 75 81  1  0
 76 85  1  0
 77 82  1  0
 77 83  2  0
 78 80  1  0
 78 82  1  0
 78 84  2  0
 79148  1  0
 79149  1  0
 79150  1  0
 80 79  1  0
 80151  1  1
 81152  1  0
 82153  1  0
 83154  1  0
 83155  1  0
M  CHG  1  83   1
M  ISO  4   1 100  68 101  80 101  81 100
M  END
$$$$
72
     RDKit          3D

158166  0  0  0  0  0  0  0  0999 V2000
  -30.7652  -14.3608   20.6636 C   0  0  0  0  0  0  0  0  0100  0  0
  -30.4392  -12.2669   19.3775 C   0  0  0  0  0  0  0  0  0101  0  0
  -29.4791  -12.5281   18.1977 C   0  0  0  0  0  0  0  0  0102  0  0
  -27.9985  -12.3963   18.6038 C   0  0  0  0  0  0  0  0  0103  0  0
  -27.6639  -13.2170   19.8820 C   0  0  2  0  0  0  0  0  0104  0  0
  -28.6795  -12.9602   21.0279 C   0  0  0  0  0  0  0  0  0105  0  0
  -25.2633  -13.8245   20.5754 C   0  0  0  0  0  0  0  0  0106  0  0
  -24.1645  -13.0409   20.9408 C   0  0  0  0  0  0  0  0  0107  0  0
  -24.6400  -11.7009   20.8697 C   0  0  0  0  0  0  0  0  0108  0  0
  -23.9005  -10.4085   21.0420 C   0  0  0  0  0  0  0  0  0109  0  0
  -24.3588   -9.4123   21.9123 C   0  0  0  0  0  0  0  0  0110  0  0
  -23.6296   -8.2350   22.0803 C   0  0  0  0  0  0  0  0  0111  0  0
  -22.4385   -8.0419   21.3657 C   0  0  0  0  0  0  0  0  0112  0  0
  -22.0103   -9.0167   20.4678 C   0  0  0  0  0  0  0  0  0113  0  0
  -22.7317  -10.1925   20.3102 C   0  0  0  0  0  0  0  0  0114  0  0
  -21.6857   -6.0709   22.5391 C   0  0  0  0  0  0  0  0  0115  0  0
  -21.4064   -6.5490   23.8264 C   0  0  0  0  0  0  0  0  0116  0  0
  -21.3635   -5.6677   24.9085 C   0  0  0  0  0  0  0  0  0117  0  0
  -21.5973   -4.3067   24.7088 C   0  0  0  0  0  0  0  0  0118  0  0
  -21.8700   -3.8284   23.4282 C   0  0  0  0  0  0  0  0  0119  0  0
  -21.9144   -4.7056   22.3460 C   0  0  0  0  0  0  0  0  0120  0  0
  -22.8194  -13.5263   21.1763 C   0  0  0  0  0  0  0  0  0121  0  0
  -22.1559   -4.2206   21.1063 F   0  0  0  0  0  0  0  0  0122  0  0
  -21.5628   -3.4510   25.7555 F   0  0  0  0  0  0  0  0  0123  0  0
  -30.0261  -13.1803   20.4553 N   0  0  0  0  0  0  0  0  0124  0  0
  -26.2911  -12.9356   20.3443 N   0  0  0  0  0  0  0  0  0125  0  0
  -25.9236  -11.6675   20.5847 N   0  0  0  0  0  0  0  0  0126  0  0
  -22.0708  -12.7905   22.0005 N   0  0  0  0  0  0  0  0  0127  0  0
  -25.4117  -15.1773   20.4097 N   0  0  0  0  0  0  0  0  0128  0  0
  -31.7916  -14.6724   20.0536 O   0  0  0  0  0  0  0  0  0129  0  0
  -21.6670   -6.9022   21.4423 O   0  0  0  0  0  0  0  0  0130  0  0
  -22.3946  -14.5564   20.6568 O   0  0  0  0  0  0  0  0  0131  0  0
  -24.6048  -31.8614   23.2223 C   0  0  0  0  0  0  0  0  0100  0  0
  -25.8822  -32.4841   23.8616 C   0  0  1  0  0  0  0  0  0101  0  0
  -27.2536  -27.5042   20.1156 C   0  0  0  0  0  0  0  0  0102  0  0
  -25.5726  -33.8762   24.2210 N   0  0  0  0  0  0  0  0  0103  0  0
  -23.4066  -30.4859   21.5461 C   0  0  2  0  0  0  0  0  0104  0  0
  -24.8467  -28.9636   20.1247 C   0  0  0  0  0  0  0  0  0105  0  0
  -22.7412  -29.4652   22.5052 C   0  0  0  0  0  0  0  0  0106  0  0
  -18.0167  -28.1302   22.8626 C   0  0  0  0  0  0  0  0  0107  0  0
  -24.1342  -36.7390   23.2568 C   0  0  0  0  0  0  0  0  0108  0  0
  -25.9141  -30.8882   21.3456 C   0  0  0  0  0  0  0  0  0109  0  0
  -25.9930  -29.5029   20.7208 C   0  0  0  0  0  0  0  0  0110  0  0
  -27.1758  -28.7612   20.7331 C   0  0  0  0  0  0  0  0  0111  0  0
  -26.1032  -26.9836   19.5230 C   0  0  0  0  0  0  0  0  0112  0  0
  -24.9097  -27.7011   19.5331 C   0  0  0  0  0  0  0  0  0113  0  0
  -23.5715  -29.7899   20.1582 C   0  0  0  0  0  0  0  0  0114  0  0
  -25.3990  -36.3212   24.0232 C   0  0  1  0  0  0  0  0  0115  0  0
  -20.5793  -28.3813   23.1004 C   0  0  2  0  0  0  0  0  0116  0  0
  -20.6548  -26.9392   22.5411 C   0  0  0  0  0  0  0  0  0117  0  0
  -19.5615  -26.6407   21.5143 C   0  0  0  0  0  0  0  0  0118  0  0
  -18.1797  -26.7818   22.1673 C   0  0  0  0  0  0  0  0  0119  0  0
  -19.1385  -28.8769   23.2988 C   0  0  0  0  0  0  0  0  0120  0  0
  -18.9183  -30.1286   23.8878 C   0  0  0  0  0  0  0  0  0121  0  0
  -17.6396  -30.6493   24.0352 C   0  0  0  0  0  0  0  0  0122  0  0
  -25.9153  -34.9582   23.4993 C   0  0  0  0  0  0  0  0  0123  0  0
  -16.5415  -29.9068   23.6254 C   0  0  0  0  0  0  0  0  0124  0  0
  -16.7331  -28.6521   23.0586 C   0  0  0  0  0  0  0  0  0125  0  0
  -26.4583  -31.6439   25.0683 C   0  0  0  0  0  0  0  0  0126  0  0
  -25.3807  -31.3179   26.1374 C   0  0  0  0  0  0  0  0  0127  0  0
  -27.0530  -30.3024   24.5680 C   0  0  0  0  0  0  0  0  0128  0  0
  -27.6014  -32.4281   25.7651 C   0  0  0  0  0  0  0  0  0129  0  0
  -27.5629  -37.2220   24.8621 C   0  0  0  0  0  0  0  0  0130  0  0
  -21.4133  -29.3375   22.3735 N   0  0  0  0  0  0  0  0  0131  0  0
  -26.4706  -37.3372   23.9061 N   0  0  0  0  0  0  0  0  0132  0  0
  -24.6674  -31.0544   22.1178 N   0  0  0  0  0  0  0  0  0133  0  0
  -23.4259  -28.8150   23.2971 O   0  0  0  0  0  0  0  0  0134  0  0
  -28.3948  -26.7345   20.0089 O   0  0  0  0  0  0  0  0  0135  0  0
  -26.5870  -34.9065   22.4671 O   0  0  0  0  0  0  0  0  0136  0  0
  -23.5365  -32.1254   23.7833 O   0  0  0  0  0  0  0  0  0137  0  0
  -27.1687  -20.1097   24.4461 C   0  0  0  0  0  0  0  0  0  0  0  0
  -27.3454  -21.1900   23.5888 C   0  0  0  0  0  0  0  0  0  0  0  0
  -27.6996  -18.8691   24.1108 C   0  0  0  0  0  0  0  0  0  0  0  0
  -28.0550  -20.9792   22.4176 C   0  0  0  0  0  0  0  0  0  0  0  0
  -28.3932  -18.7622   22.9161 C   0  0  0  0  0  0  0  0  0  0  0  0
  -31.1445  -17.5282   21.6024 C   0  0  0  0  0  0  0  0  0  0  0  0
  -32.0466  -17.3094   20.3960 C   0  0  0  0  0  0  0  0  0  0  0  0
  -29.6686  -17.2832   21.3631 C   0  0  0  0  0  0  0  0  0  0  0  0
  -33.1539  -16.2868   20.6310 C   0  0  0  0  0  0  0  0  0  0  0  0
  -32.6156  -14.8877   20.9066 C   0  0  0  0  0  0  0  0  0  1  0  0
  -28.5854  -19.7889   22.0578 N   0  0  0  0  0  0  0  0  0  0  0  0
  -27.5198  -17.7742   24.9767 N   0  0  0  0  0  0  0  0  0  0  0  0
  -28.2309  -22.0867   21.5513 N   0  0  0  0  0  0  0  0  0  0  0  0
  -28.9275  -17.5282   22.5740 N   0  0  0  0  0  0  0  0  0  0  0  0
  -31.5825  -17.9052   22.6885 O   0  0  0  0  0  0  0  0  0  0  0  0
  -31.4485  -12.4701   19.0860 H   0  0  0  0  0  0  0  0  0  0  0  0
  -30.3970  -11.2460   19.6950 H   0  0  0  0  0  0  0  0  0  0  0  0
  -29.6870  -11.8204   17.4226 H   0  0  0  0  0  0  0  0  0  0  0  0
  -29.6375  -13.5326   17.8649 H   0  0  0  0  0  0  0  0  0  0  0  0
  -27.7830  -11.3650   18.7904 H   0  0  0  0  0  0  0  0  0  0  0  0
  -27.4028  -12.7801   17.8021 H   0  0  0  0  0  0  0  0  0  0  0  0
  -27.7353  -14.2503   19.6136 H   0  0  0  0  0  0  0  0  0  0  0  0
  -28.5890  -11.9550   21.3832 H   0  0  0  0  0  0  0  0  0  0  0  0
  -28.5005  -13.6134   21.8562 H   0  0  0  0  0  0  0  0  0  0  0  0
  -25.2399   -9.5495   22.4318 H   0  0  0  0  0  0  0  0  0  0  0  0
  -23.9663   -7.5070   22.7297 H   0  0  0  0  0  0  0  0  0  0  0  0
  -21.1515   -8.8641   19.9162 H   0  0  0  0  0  0  0  0  0  0  0  0
  -22.4016  -10.9115   19.6476 H   0  0  0  0  0  0  0  0  0  0  0  0
  -21.2319   -7.5552   23.9750 H   0  0  0  0  0  0  0  0  0  0  0  0
  -21.1589   -6.0228   25.8556 H   0  0  0  0  0  0  0  0  0  0  0  0
  -22.0396   -2.8212   23.2809 H   0  0  0  0  0  0  0  0  0  0  0  0
  -22.4401  -11.9703   22.4008 H   0  0  0  0  0  0  0  0  0  0  0  0
  -21.1493  -13.0679   22.2082 H   0  0  0  0  0  0  0  0  0  0  0  0
  -24.6538  -15.7807   20.5848 H   0  0  0  0  0  0  0  0  0  0  0  0
  -26.2762  -15.5453   20.1156 H   0  0  0  0  0  0  0  0  0  0  0  0
  -26.6778  -32.4663   23.1464 H   0  0  0  0  0  0  0  0  0  0  0  0
  -25.0747  -34.0282   25.0566 H   0  0  0  0  0  0  0  0  0  0  0  0
  -22.7881  -31.3489   21.4131 H   0  0  0  0  0  0  0  0  0  0  0  0
  -23.3854  -35.9823   23.3648 H   0  0  0  0  0  0  0  0  0  0  0  0
  -24.3696  -36.8624   22.2204 H   0  0  0  0  0  0  0  0  0  0  0  0
  -23.7669  -37.6632   23.6516 H   0  0  0  0  0  0  0  0  0  0  0  0
  -25.9445  -31.6237   20.5691 H   0  0  0  0  0  0  0  0  0  0  0  0
  -26.7436  -31.0079   22.0108 H   0  0  0  0  0  0  0  0  0  0  0  0
  -28.0090  -29.1452   21.2057 H   0  0  0  0  0  0  0  0  0  0  0  0
  -26.1369  -26.0560   19.0719 H   0  0  0  0  0  0  0  0  0  0  0  0
  -24.0652  -27.2961   19.0997 H   0  0  0  0  0  0  0  0  0  0  0  0
  -23.6156  -30.5365   19.3930 H   0  0  0  0  0  0  0  0  0  0  0  0
  -22.7355  -29.1425   19.9945 H   0  0  0  0  0  0  0  0  0  0  0  0
  -25.1353  -36.2335   25.0565 H   0  0  0  0  0  0  0  0  0  0  0  0
  -21.0070  -28.3206   24.0793 H   0  0  0  0  0  0  0  0  0  0  0  0
  -20.5555  -26.2518   23.3550 H   0  0  0  0  0  0  0  0  0  0  0  0
  -21.5974  -26.8362   22.0454 H   0  0  0  0  0  0  0  0  0  0  0  0
  -19.6810  -25.6422   21.1488 H   0  0  0  0  0  0  0  0  0  0  0  0
  -19.6406  -27.3343   20.7034 H   0  0  0  0  0  0  0  0  0  0  0  0
  -17.4282  -26.6888   21.4113 H   0  0  0  0  0  0  0  0  0  0  0  0
  -18.0803  -26.0130   22.9049 H   0  0  0  0  0  0  0  0  0  0  0  0
  -19.7265  -30.6774   24.2204 H   0  0  0  0  0  0  0  0  0  0  0  0
  -17.5064  -31.5856   24.4483 H   0  0  0  0  0  0  0  0  0  0  0  0
  -15.5878  -30.2839   23.7407 H   0  0  0  0  0  0  0  0  0  0  0  0
  -15.9120  -28.0941   22.7766 H   0  0  0  0  0  0  0  0  0  0  0  0
  -24.5787  -30.7757   25.6817 H   0  0  0  0  0  0  0  0  0  0  0  0
  -25.0041  -32.2289   26.5536 H   0  0  0  0  0  0  0  0  0  0  0  0
  -25.8166  -30.7245   26.9138 H   0  0  0  0  0  0  0  0  0  0  0  0
  -26.2892  -29.7335   24.0803 H   0  0  0  0  0  0  0  0  0  0  0  0
  -27.4336  -29.7484   25.4006 H   0  0  0  0  0  0  0  0  0  0  0  0
  -27.8466  -30.4994   23.8779 H   0  0  0  0  0  0  0  0  0  0  0  0
  -27.2251  -33.3632   26.1242 H   0  0  0  0  0  0  0  0  0  0  0  0
  -28.3902  -32.6065   25.0645 H   0  0  0  0  0  0  0  0  0  0  0  0
  -27.9772  -31.8555   26.5872 H   0  0  0  0  0  0  0  0  0  0  0  0
  -28.2744  -38.0016   24.6863 H   0  0  0  0  0  0  0  0  0  0  0  0
  -28.0396  -36.2711   24.7461 H   0  0  0  0  0  0  0  0  0  0  0  0
  -27.1773  -37.3087   25.8564 H   0  0  0  0  0  0  0  0  0  0  0  0
  -20.9627  -29.9365   21.7352 H   0  0  0  0  0  0  0  0  0  0  0  0
  -26.0447  -38.2561   24.0273 H   0  0  0  0  0  0  0  0  0  0  0  0
  -26.6456  -20.2282   25.3278 H   0  0  0  0  0  0  0  0  0  0  0  0
  -26.9601  -22.1196   23.8177 H   0  0  0  0  0  0  0  0  0  0  0  0
  -32.4998  -18.2442   20.1400 H   0  0  0  0  0  0  0  0  0  0  0  0
  -31.4291  -16.9245   19.6115 H   0  0  0  0  0  0  0  0  0  0  0  0
  -29.5226  -16.2683   21.0571 H   0  0  0  0  0  0  0  0  0  0  0  0
  -29.3214  -17.9456   20.5978 H   0  0  0  0  0  0  0  0  0  0  0  0
  -33.7367  -16.6008   21.4716 H   0  0  0  0  0  0  0  0  0  0  0  0
  -33.7413  -16.2364   19.7380 H   0  0  0  0  0  0  0  0  0  0  0  0
  -32.7493  -14.3902   21.8444 H   0  0  0  0  0  0  0  0  0  0  0  0
  -32.5155  -13.9156   20.4707 H   0  0  0  0  0  0  0  0  0  0  0  0
  -27.0208  -17.8884   25.8177 H   0  0  0  0  0  0  0  0  0  0  0  0
  -27.8930  -16.8941   24.7414 H   0  0  0  0  0  0  0  0  0  0  0  0
  -28.1297  -23.0269   21.2774 H   0  0  0  0  0  0  0  0  0  0  0  0
  -28.7923  -16.7763   23.1949 H   0  0  0  0  0  0  0  0  0  0  0  0
  1 25  1  0
  1 30  2  0
  1 83  1  0
  2  3  1  0
  2 25  1  0
  2 86  1  0
  2 87  1  0
  3  4  1  0
  3 88  1  0
  3 89  1  0
  4  5  1  0
  4 90  1  0
  4 91  1  0
  5  6  1  0
  5 26  1  0
  5 92  1  6
  6 25  1  0
  6 93  1  0
  6 94  1  0
  7  8  2  0
  7 26  1  0
  7 29  1  0
  8  9  1  0
  8 22  1  0
  9 10  1  0
  9 27  2  0
 10 11  2  0
 10 15  1  0
 11 12  1  0
 11 95  1  0
 12 13  2  0
 12 96  1  0
 13 14  1  0
 13 31  1  0
 14 15  2  0
 14 97  1  0
 15 98  1  0
 16 17  2  0
 16 21  1  0
 16 31  1  0
 17 18  1  0
 17 99  1  0
 18 19  2  0
 18100  1  0
 19 20  1  0
 19 24  1  0
 20 21  2  0
 20101  1  0
 21 23  1  0
 22 28  1  0
 22 32  2  0
 26 27  1  0
 28102  1  0
 28103  1  0
 29104  1  0
 29105  1  0
 33 34  1  0
 33 66  1  0
 33 70  2  0
 34 36  1  0
 34 59  1  0
 34106  1  6
 35 44  2  0
 35 45  1  0
 35 68  1  0
 36 56  1  0
 36107  1  0
 37 39  1  0
 37 47  1  0
 37 66  1  0
 37108  1  6
 38 43  2  0
 38 46  1  0
 38 47  1  0
 39 64  1  0
 39 67  2  0
 40 52  1  0
 40 53  2  0
 40 58  1  0
 41109  1  0
 41110  1  0
 41111  1  0
 42 43  1  0
 42 66  1  0
 42112  1  0
 42113  1  0
 43 44  1  0
 44114  1  0
 45 46  2  0
 45115  1  0
 46116  1  0
 47117  1  0
 47118  1  0
 48 41  1  0
 48 56  1  0
 48 65  1  0
 48119  1  1
 49 50  1  0
 49 53  1  0
 49 64  1  0
 49120  1  1
 50 51  1  0
 50121  1  0
 50122  1  0
 51 52  1  0
 51123  1  0
 51124  1  0
 52125  1  0
 52126  1  0
 53 54  1  0
 54 55  2  0
 54127  1  0
 55 57  1  0
 55128  1  0
 56 69  2  0
 57 58  2  0
 57129  1  0
 58130  1  0
 59 60  1  0
 59 61  1  0
 59 62  1  0
 60131  1  0
 60132  1  0
 60133  1  0
 61134  1  0
 61135  1  0
 61136  1  0
 62137  1  0
 62138  1  0
 62139  1  0
 63 65  1  0
 63140  1  0
 63141  1  0
 63142  1  0
 64143  1  0
 65144  1  0
 68 80  1  0
 71 72  2  0
 71 73  1  0
 71145  1  0
 72 74  1  0
 72146  1  0
 73 75  2  0
 73 82  1  0
 74 81  2  0
 74 83  1  0
 75 81  1  0
 75 84  1  0
 76 77  1  0
 76 78  1  0
 76 85  2  0
 77 79  1  0
 77147  1  0
 77148  1  0
 78 84  1  0
 78149  1  0
 78150  1  0
 79 80  1  0
 79151  1  0
 79152  1  0
 80153  1  0
 80154  1  0
 82155  1  0
 82156  1  0
 83157  1  0
 84158  1  0
M  ISO  4   1 100  68 101  80 101  83 100
M  END
$$$$
73
     RDKit          3D

149157  0  0  0  0  0  0  0  0999 V2000
  -30.7652  -14.3608   20.6636 C   0  0  0  0  0  0  0  0  0100  0  0
  -30.4392  -12.2669   19.3775 C   0  0  0  0  0  0  0  0  0101  0  0
  -29.4791  -12.5281   18.1977 C   0  0  0  0  0  0  0  0  0102  0  0
  -27.9985  -12.3963   18.6038 C   0  0  0  0  0  0  0  0  0103  0  0
  -27.6639  -13.2170   19.8820 C   0  0  2  0  0  0  0  0  0104  0  0
  -28.6795  -12.9602   21.0279 C   0  0  0  0  0  0  0  0  0105  0  0
  -25.2633  -13.8245   20.5754 C   0  0  0  0  0  0  0  0  0106  0  0
  -24.1645  -13.0409   20.9408 C   0  0  0  0  0  0  0  0  0107  0  0
  -24.6400  -11.7009   20.8697 C   0  0  0  0  0  0  0  0  0108  0  0
  -23.9005  -10.4085   21.0420 C   0  0  0  0  0  0  0  0  0109  0  0
  -24.3588   -9.4123   21.9123 C   0  0  0  0  0  0  0  0  0110  0  0
  -23.6296   -8.2350   22.0803 C   0  0  0  0  0  0  0  0  0111  0  0
  -22.4385   -8.0419   21.3657 C   0  0  0  0  0  0  0  0  0112  0  0
  -22.0103   -9.0167   20.4678 C   0  0  0  0  0  0  0  0  0113  0  0
  -22.7317  -10.1925   20.3102 C   0  0  0  0  0  0  0  0  0114  0  0
  -21.6857   -6.0709   22.5391 C   0  0  0  0  0  0  0  0  0115  0  0
  -21.4064   -6.5490   23.8264 C   0  0  0  0  0  0  0  0  0116  0  0
  -21.3635   -5.6677   24.9085 C   0  0  0  0  0  0  0  0  0117  0  0
  -21.5973   -4.3067   24.7088 C   0  0  0  0  0  0  0  0  0118  0  0
  -21.8700   -3.8284   23.4282 C   0  0  0  0  0  0  0  0  0119  0  0
  -21.9144   -4.7056   22.3460 C   0  0  0  0  0  0  0  0  0120  0  0
  -22.8194  -13.5263   21.1763 C   0  0  0  0  0  0  0  0  0121  0  0
  -22.1559   -4.2206   21.1063 F   0  0  0  0  0  0  0  0  0122  0  0
  -21.5628   -3.4510   25.7555 F   0  0  0  0  0  0  0  0  0123  0  0
  -30.0261  -13.1803   20.4553 N   0  0  0  0  0  0  0  0  0124  0  0
  -26.2911  -12.9356   20.3443 N   0  0  0  0  0  0  0  0  0125  0  0
  -25.9236  -11.6675   20.5847 N   0  0  0  0  0  0  0  0  0126  0  0
  -22.0708  -12.7905   22.0005 N   0  0  0  0  0  0  0  0  0127  0  0
  -25.4117  -15.1773   20.4097 N   0  0  0  0  0  0  0  0  0128  0  0
  -31.7916  -14.6724   20.0536 O   0  0  0  0  0  0  0  0  0129  0  0
  -21.6670   -6.9022   21.4423 O   0  0  0  0  0  0  0  0  0130  0  0
  -22.3946  -14.5564   20.6568 O   0  0  0  0  0  0  0  0  0131  0  0
  -24.6048  -31.8614   23.2223 C   0  0  0  0  0  0  0  0  0100  0  0
  -25.8822  -32.4841   23.8616 C   0  0  1  0  0  0  0  0  0101  0  0
  -27.2536  -27.5042   20.1156 C   0  0  0  0  0  0  0  0  0102  0  0
  -25.5726  -33.8762   24.2210 N   0  0  0  0  0  0  0  0  0103  0  0
  -23.4066  -30.4859   21.5461 C   0  0  2  0  0  0  0  0  0104  0  0
  -24.8467  -28.9636   20.1247 C   0  0  0  0  0  0  0  0  0105  0  0
  -22.7412  -29.4652   22.5052 C   0  0  0  0  0  0  0  0  0106  0  0
  -18.0167  -28.1302   22.8626 C   0  0  0  0  0  0  0  0  0107  0  0
  -24.1342  -36.7390   23.2568 C   0  0  0  0  0  0  0  0  0108  0  0
  -25.9141  -30.8882   21.3456 C   0  0  0  0  0  0  0  0  0109  0  0
  -25.9930  -29.5029   20.7208 C   0  0  0  0  0  0  0  0  0110  0  0
  -27.1758  -28.7612   20.7331 C   0  0  0  0  0  0  0  0  0111  0  0
  -26.1032  -26.9836   19.5230 C   0  0  0  0  0  0  0  0  0112  0  0
  -24.9097  -27.7011   19.5331 C   0  0  0  0  0  0  0  0  0113  0  0
  -23.5715  -29.7899   20.1582 C   0  0  0  0  0  0  0  0  0114  0  0
  -25.3990  -36.3212   24.0232 C   0  0  1  0  0  0  0  0  0115  0  0
  -20.5793  -28.3813   23.1004 C   0  0  2  0  0  0  0  0  0116  0  0
  -20.6548  -26.9392   22.5411 C   0  0  0  0  0  0  0  0  0117  0  0
  -19.5615  -26.6407   21.5143 C   0  0  0  0  0  0  0  0  0118  0  0
  -18.1797  -26.7818   22.1673 C   0  0  0  0  0  0  0  0  0119  0  0
  -19.1385  -28.8769   23.2988 C   0  0  0  0  0  0  0  0  0120  0  0
  -18.9183  -30.1286   23.8878 C   0  0  0  0  0  0  0  0  0121  0  0
  -17.6396  -30.6493   24.0352 C   0  0  0  0  0  0  0  0  0122  0  0
  -25.9153  -34.9582   23.4993 C   0  0  0  0  0  0  0  0  0123  0  0
  -16.5415  -29.9068   23.6254 C   0  0  0  0  0  0  0  0  0124  0  0
  -16.7331  -28.6521   23.0586 C   0  0  0  0  0  0  0  0  0125  0  0
  -26.4583  -31.6439   25.0683 C   0  0  0  0  0  0  0  0  0126  0  0
  -25.3807  -31.3179   26.1374 C   0  0  0  0  0  0  0  0  0127  0  0
  -27.0530  -30.3024   24.5680 C   0  0  0  0  0  0  0  0  0128  0  0
  -27.6014  -32.4281   25.7651 C   0  0  0  0  0  0  0  0  0129  0  0
  -27.5629  -37.2220   24.8621 C   0  0  0  0  0  0  0  0  0130  0  0
  -21.4133  -29.3375   22.3735 N   0  0  0  0  0  0  0  0  0131  0  0
  -26.4706  -37.3372   23.9061 N   0  0  0  0  0  0  0  0  0132  0  0
  -24.6674  -31.0544   22.1178 N   0  0  0  0  0  0  0  0  0133  0  0
  -23.4259  -28.8150   23.2971 O   0  0  0  0  0  0  0  0  0134  0  0
  -28.3948  -26.7345   20.0089 O   0  0  0  0  0  0  0  0  0135  0  0
  -26.5870  -34.9065   22.4671 O   0  0  0  0  0  0  0  0  0136  0  0
  -23.5365  -32.1254   23.7833 O   0  0  0  0  0  0  0  0  0137  0  0
  -28.3363  -20.3075   16.7166 C   0  0  0  0  0  0  0  0  0  0  0  0
  -28.6052  -20.6078   18.0356 C   0  0  0  0  0  0  0  0  0  0  0  0
  -28.8041  -22.6223   17.1916 C   0  0  0  0  0  0  0  0  0  0  0  0
  -29.4637  -26.3260   17.4118 C   0  0  0  0  0  0  0  0  0  0  0  0
  -29.1748  -27.4108   18.1536 C   0  0  0  0  0  0  0  0  0  1  0  0
  -29.3304  -24.9473   17.9906 C   0  0  0  0  0  0  0  0  0  0  0  0
  -29.2946  -28.8211   17.6542 C   0  0  0  0  0  0  0  0  0  0  0  0
  -28.8741  -21.9346   18.3098 N   0  0  0  0  0  0  0  0  0  0  0  0
  -28.6182  -19.6420   19.0723 N   0  0  0  0  0  0  0  0  0  0  0  0
  -29.0098  -24.0125   17.0154 N   0  0  0  0  0  0  0  0  0  0  0  0
  -29.4968  -24.7505   19.1892 O   0  0  0  0  0  0  0  0  0  0  0  0
  -29.8984  -26.4469   16.1053 O   0  0  0  0  0  0  0  0  0  0  0  0
  -28.4189  -21.7371   15.7728 S   0  0  0  0  0  0  0  0  0  0  0  0
  -31.4485  -12.4701   19.0860 H   0  0  0  0  0  0  0  0  0  0  0  0
  -30.3970  -11.2460   19.6950 H   0  0  0  0  0  0  0  0  0  0  0  0
  -29.6870  -11.8204   17.4226 H   0  0  0  0  0  0  0  0  0  0  0  0
  -29.6375  -13.5326   17.8649 H   0  0  0  0  0  0  0  0  0  0  0  0
  -27.7830  -11.3650   18.7904 H   0  0  0  0  0  0  0  0  0  0  0  0
  -27.4028  -12.7801   17.8021 H   0  0  0  0  0  0  0  0  0  0  0  0
  -27.7353  -14.2503   19.6136 H   0  0  0  0  0  0  0  0  0  0  0  0
  -28.5890  -11.9550   21.3832 H   0  0  0  0  0  0  0  0  0  0  0  0
  -28.5005  -13.6134   21.8562 H   0  0  0  0  0  0  0  0  0  0  0  0
  -25.2399   -9.5495   22.4318 H   0  0  0  0  0  0  0  0  0  0  0  0
  -23.9663   -7.5070   22.7297 H   0  0  0  0  0  0  0  0  0  0  0  0
  -21.1515   -8.8641   19.9162 H   0  0  0  0  0  0  0  0  0  0  0  0
  -22.4016  -10.9115   19.6476 H   0  0  0  0  0  0  0  0  0  0  0  0
  -21.2319   -7.5552   23.9750 H   0  0  0  0  0  0  0  0  0  0  0  0
  -21.1589   -6.0228   25.8556 H   0  0  0  0  0  0  0  0  0  0  0  0
  -22.0396   -2.8212   23.2809 H   0  0  0  0  0  0  0  0  0  0  0  0
  -22.4401  -11.9703   22.4008 H   0  0  0  0  0  0  0  0  0  0  0  0
  -21.1493  -13.0679   22.2082 H   0  0  0  0  0  0  0  0  0  0  0  0
  -24.6538  -15.7807   20.5848 H   0  0  0  0  0  0  0  0  0  0  0  0
  -26.2762  -15.5453   20.1156 H   0  0  0  0  0  0  0  0  0  0  0  0
  -26.6778  -32.4663   23.1464 H   0  0  0  0  0  0  0  0  0  0  0  0
  -25.0747  -34.0282   25.0566 H   0  0  0  0  0  0  0  0  0  0  0  0
  -22.7881  -31.3489   21.4131 H   0  0  0  0  0  0  0  0  0  0  0  0
  -23.3854  -35.9823   23.3648 H   0  0  0  0  0  0  0  0  0  0  0  0
  -24.3696  -36.8624   22.2204 H   0  0  0  0  0  0  0  0  0  0  0  0
  -23.7669  -37.6632   23.6516 H   0  0  0  0  0  0  0  0  0  0  0  0
  -25.9445  -31.6237   20.5691 H   0  0  0  0  0  0  0  0  0  0  0  0
  -26.7436  -31.0079   22.0108 H   0  0  0  0  0  0  0  0  0  0  0  0
  -28.0090  -29.1452   21.2057 H   0  0  0  0  0  0  0  0  0  0  0  0
  -26.1369  -26.0560   19.0719 H   0  0  0  0  0  0  0  0  0  0  0  0
  -24.0652  -27.2961   19.0997 H   0  0  0  0  0  0  0  0  0  0  0  0
  -23.6156  -30.5365   19.3930 H   0  0  0  0  0  0  0  0  0  0  0  0
  -22.7355  -29.1425   19.9945 H   0  0  0  0  0  0  0  0  0  0  0  0
  -25.1353  -36.2335   25.0565 H   0  0  0  0  0  0  0  0  0  0  0  0
  -21.0070  -28.3206   24.0793 H   0  0  0  0  0  0  0  0  0  0  0  0
  -20.5555  -26.2518   23.3550 H   0  0  0  0  0  0  0  0  0  0  0  0
  -21.5974  -26.8362   22.0454 H   0  0  0  0  0  0  0  0  0  0  0  0
  -19.6810  -25.6422   21.1488 H   0  0  0  0  0  0  0  0  0  0  0  0
  -19.6406  -27.3343   20.7034 H   0  0  0  0  0  0  0  0  0  0  0  0
  -17.4282  -26.6888   21.4113 H   0  0  0  0  0  0  0  0  0  0  0  0
  -18.0803  -26.0130   22.9049 H   0  0  0  0  0  0  0  0  0  0  0  0
  -19.7265  -30.6774   24.2204 H   0  0  0  0  0  0  0  0  0  0  0  0
  -17.5064  -31.5856   24.4483 H   0  0  0  0  0  0  0  0  0  0  0  0
  -15.5878  -30.2839   23.7407 H   0  0  0  0  0  0  0  0  0  0  0  0
  -15.9120  -28.0941   22.7766 H   0  0  0  0  0  0  0  0  0  0  0  0
  -24.5787  -30.7757   25.6817 H   0  0  0  0  0  0  0  0  0  0  0  0
  -25.0041  -32.2289   26.5536 H   0  0  0  0  0  0  0  0  0  0  0  0
  -25.8166  -30.7245   26.9138 H   0  0  0  0  0  0  0  0  0  0  0  0
  -26.2892  -29.7335   24.0803 H   0  0  0  0  0  0  0  0  0  0  0  0
  -27.4336  -29.7484   25.4006 H   0  0  0  0  0  0  0  0  0  0  0  0
  -27.8466  -30.4994   23.8779 H   0  0  0  0  0  0  0  0  0  0  0  0
  -27.2251  -33.3632   26.1242 H   0  0  0  0  0  0  0  0  0  0  0  0
  -28.3902  -32.6065   25.0645 H   0  0  0  0  0  0  0  0  0  0  0  0
  -27.9772  -31.8555   26.5872 H   0  0  0  0  0  0  0  0  0  0  0  0
  -28.2744  -38.0016   24.6863 H   0  0  0  0  0  0  0  0  0  0  0  0
  -28.0396  -36.2711   24.7461 H   0  0  0  0  0  0  0  0  0  0  0  0
  -27.1773  -37.3087   25.8564 H   0  0  0  0  0  0  0  0  0  0  0  0
  -20.9627  -29.9365   21.7352 H   0  0  0  0  0  0  0  0  0  0  0  0
  -26.0447  -38.2561   24.0273 H   0  0  0  0  0  0  0  0  0  0  0  0
  -28.1187  -19.3665   16.3532 H   0  0  0  0  0  0  0  0  0  0  0  0
  -29.7316  -28.8177   16.6775 H   0  0  0  0  0  0  0  0  0  0  0  0
  -29.9146  -29.3839   18.3204 H   0  0  0  0  0  0  0  0  0  0  0  0
  -28.3230  -29.2671   17.6087 H   0  0  0  0  0  0  0  0  0  0  0  0
  -28.0562  -19.9769   19.8080 H   0  0  0  0  0  0  0  0  0  0  0  0
  -28.9147  -24.3548   16.0972 H   0  0  0  0  0  0  0  0  0  0  0  0
  -29.9906  -27.2955   15.7189 H   0  0  0  0  0  0  0  0  0  0  0  0
  1 25  1  0
  1 30  2  0
  1 79  1  0
  2  3  1  0
  2 25  1  0
  2 84  1  0
  2 85  1  0
  3  4  1  0
  3 86  1  0
  3 87  1  0
  4  5  1  0
  4 88  1  0
  4 89  1  0
  5  6  1  0
  5 26  1  0
  5 90  1  6
  6 25  1  0
  6 91  1  0
  6 92  1  0
  7  8  2  0
  7 26  1  0
  7 29  1  0
  8  9  1  0
  8 22  1  0
  9 10  1  0
  9 27  2  0
 10 11  2  0
 10 15  1  0
 11 12  1  0
 11 93  1  0
 12 13  2  0
 12 94  1  0
 13 14  1  0
 13 31  1  0
 14 15  2  0
 14 95  1  0
 15 96  1  0
 16 17  2  0
 16 21  1  0
 16 31  1  0
 17 18  1  0
 17 97  1  0
 18 19  2  0
 18 98  1  0
 19 20  1  0
 19 24  1  0
 20 21  2  0
 20 99  1  0
 21 23  1  0
 22 28  1  0
 22 32  2  0
 26 27  1  0
 28100  1  0
 28101  1  0
 29102  1  0
 29103  1  0
 33 34  1  0
 33 66  1  0
 33 70  2  0
 34 36  1  0
 34 59  1  0
 34104  1  6
 35 44  2  0
 35 45  1  0
 35 68  1  0
 36 56  1  0
 36105  1  0
 37 39  1  0
 37 47  1  0
 37 66  1  0
 37106  1  6
 38 43  2  0
 38 46  1  0
 38 47  1  0
 39 64  1  0
 39 67  2  0
 40 52  1  0
 40 53  2  0
 40 58  1  0
 41107  1  0
 41108  1  0
 41109  1  0
 42 43  1  0
 42 66  1  0
 42110  1  0
 42111  1  0
 43 44  1  0
 44112  1  0
 45 46  2  0
 45113  1  0
 46114  1  0
 47115  1  0
 47116  1  0
 48 41  1  0
 48 56  1  0
 48 65  1  0
 48117  1  1
 49 50  1  0
 49 53  1  0
 49 64  1  0
 49118  1  1
 50 51  1  0
 50119  1  0
 50120  1  0
 51 52  1  0
 51121  1  0
 51122  1  0
 52123  1  0
 52124  1  0
 53 54  1  0
 54 55  2  0
 54125  1  0
 55 57  1  0
 55126  1  0
 56 69  2  0
 57 58  2  0
 57127  1  0
 58128  1  0
 59 60  1  0
 59 61  1  0
 59 62  1  0
 60129  1  0
 60130  1  0
 60131  1  0
 61132  1  0
 61133  1  0
 61134  1  0
 62135  1  0
 62136  1  0
 62137  1  0
 63 65  1  0
 63138  1  0
 63139  1  0
 63140  1  0
 64141  1  0
 65142  1  0
 68 75  1  0
 71 72  2  0
 71 83  1  0
 71143  1  0
 72 78  1  0
 72 79  1  0
 73 78  2  0
 73 80  1  0
 73 83  1  0
 74 75  2  0
 74 76  1  0
 74 82  1  0
 75 77  1  0
 76 80  1  0
 76 81  2  0
 77144  1  0
 77145  1  0
 77146  1  0
 79147  1  0
 80148  1  0
 82149  1  0
M  ISO  4   1 100  68 101  75 101  79 100
M  END
$$$$
74
     RDKit          3D

156164  0  0  0  0  0  0  0  0999 V2000
  -30.7652  -14.3608   20.6636 C   0  0  0  0  0  0  0  0  0100  0  0
  -30.4392  -12.2669   19.3775 C   0  0  0  0  0  0  0  0  0101  0  0
  -29.4791  -12.5281   18.1977 C   0  0  0  0  0  0  0  0  0102  0  0
  -27.9985  -12.3963   18.6038 C   0  0  0  0  0  0  0  0  0103  0  0
  -27.6639  -13.2170   19.8820 C   0  0  2  0  0  0  0  0  0104  0  0
  -28.6795  -12.9602   21.0279 C   0  0  0  0  0  0  0  0  0105  0  0
  -25.2633  -13.8245   20.5754 C   0  0  0  0  0  0  0  0  0106  0  0
  -24.1645  -13.0409   20.9408 C   0  0  0  0  0  0  0  0  0107  0  0
  -24.6400  -11.7009   20.8697 C   0  0  0  0  0  0  0  0  0108  0  0
  -23.9005  -10.4085   21.0420 C   0  0  0  0  0  0  0  0  0109  0  0
  -24.3588   -9.4123   21.9123 C   0  0  0  0  0  0  0  0  0110  0  0
  -23.6296   -8.2350   22.0803 C   0  0  0  0  0  0  0  0  0111  0  0
  -22.4385   -8.0419   21.3657 C   0  0  0  0  0  0  0  0  0112  0  0
  -22.0103   -9.0167   20.4678 C   0  0  0  0  0  0  0  0  0113  0  0
  -22.7317  -10.1925   20.3102 C   0  0  0  0  0  0  0  0  0114  0  0
  -21.6857   -6.0709   22.5391 C   0  0  0  0  0  0  0  0  0115  0  0
  -21.4064   -6.5490   23.8264 C   0  0  0  0  0  0  0  0  0116  0  0
  -21.3635   -5.6677   24.9085 C   0  0  0  0  0  0  0  0  0117  0  0
  -21.5973   -4.3067   24.7088 C   0  0  0  0  0  0  0  0  0118  0  0
  -21.8700   -3.8284   23.4282 C   0  0  0  0  0  0  0  0  0119  0  0
  -21.9144   -4.7056   22.3460 C   0  0  0  0  0  0  0  0  0120  0  0
  -22.8194  -13.5263   21.1763 C   0  0  0  0  0  0  0  0  0121  0  0
  -22.1559   -4.2206   21.1063 F   0  0  0  0  0  0  0  0  0122  0  0
  -21.5628   -3.4510   25.7555 F   0  0  0  0  0  0  0  0  0123  0  0
  -30.0261  -13.1803   20.4553 N   0  0  0  0  0  0  0  0  0124  0  0
  -26.2911  -12.9356   20.3443 N   0  0  0  0  0  0  0  0  0125  0  0
  -25.9236  -11.6675   20.5847 N   0  0  0  0  0  0  0  0  0126  0  0
  -22.0708  -12.7905   22.0005 N   0  0  0  0  0  0  0  0  0127  0  0
  -25.4117  -15.1773   20.4097 N   0  0  0  0  0  0  0  0  0128  0  0
  -31.7916  -14.6724   20.0536 O   0  0  0  0  0  0  0  0  0129  0  0
  -21.6670   -6.9022   21.4423 O   0  0  0  0  0  0  0  0  0130  0  0
  -22.3946  -14.5564   20.6568 O   0  0  0  0  0  0  0  0  0131  0  0
  -24.6048  -31.8614   23.2223 C   0  0  0  0  0  0  0  0  0100  0  0
  -25.8822  -32.4841   23.8616 C   0  0  1  0  0  0  0  0  0101  0  0
  -27.2536  -27.5042   20.1156 C   0  0  0  0  0  0  0  0  0102  0  0
  -25.5726  -33.8762   24.2210 N   0  0  0  0  0  0  0  0  0103  0  0
  -23.4066  -30.4859   21.5461 C   0  0  2  0  0  0  0  0  0104  0  0
  -24.8467  -28.9636   20.1247 C   0  0  0  0  0  0  0  0  0105  0  0
  -22.7412  -29.4652   22.5052 C   0  0  0  0  0  0  0  0  0106  0  0
  -18.0167  -28.1302   22.8626 C   0  0  0  0  0  0  0  0  0107  0  0
  -24.1342  -36.7390   23.2568 C   0  0  0  0  0  0  0  0  0108  0  0
  -25.9141  -30.8882   21.3456 C   0  0  0  0  0  0  0  0  0109  0  0
  -25.9930  -29.5029   20.7208 C   0  0  0  0  0  0  0  0  0110  0  0
  -27.1758  -28.7612   20.7331 C   0  0  0  0  0  0  0  0  0111  0  0
  -26.1032  -26.9836   19.5230 C   0  0  0  0  0  0  0  0  0112  0  0
  -24.9097  -27.7011   19.5331 C   0  0  0  0  0  0  0  0  0113  0  0
  -23.5715  -29.7899   20.1582 C   0  0  0  0  0  0  0  0  0114  0  0
  -25.3990  -36.3212   24.0232 C   0  0  1  0  0  0  0  0  0115  0  0
  -20.5793  -28.3813   23.1004 C   0  0  2  0  0  0  0  0  0116  0  0
  -20.6548  -26.9392   22.5411 C   0  0  0  0  0  0  0  0  0117  0  0
  -19.5615  -26.6407   21.5143 C   0  0  0  0  0  0  0  0  0118  0  0
  -18.1797  -26.7818   22.1673 C   0  0  0  0  0  0  0  0  0119  0  0
  -19.1385  -28.8769   23.2988 C   0  0  0  0  0  0  0  0  0120  0  0
  -18.9183  -30.1286   23.8878 C   0  0  0  0  0  0  0  0  0121  0  0
  -17.6396  -30.6493   24.0352 C   0  0  0  0  0  0  0  0  0122  0  0
  -25.9153  -34.9582   23.4993 C   0  0  0  0  0  0  0  0  0123  0  0
  -16.5415  -29.9068   23.6254 C   0  0  0  0  0  0  0  0  0124  0  0
  -16.7331  -28.6521   23.0586 C   0  0  0  0  0  0  0  0  0125  0  0
  -26.4583  -31.6439   25.0683 C   0  0  0  0  0  0  0  0  0126  0  0
  -25.3807  -31.3179   26.1374 C   0  0  0  0  0  0  0  0  0127  0  0
  -27.0530  -30.3024   24.5680 C   0  0  0  0  0  0  0  0  0128  0  0
  -27.6014  -32.4281   25.7651 C   0  0  0  0  0  0  0  0  0129  0  0
  -27.5629  -37.2220   24.8621 C   0  0  0  0  0  0  0  0  0130  0  0
  -21.4133  -29.3375   22.3735 N   0  0  0  0  0  0  0  0  0131  0  0
  -26.4706  -37.3372   23.9061 N   0  0  0  0  0  0  0  0  0132  0  0
  -24.6674  -31.0544   22.1178 N   0  0  0  0  0  0  0  0  0133  0  0
  -23.4259  -28.8150   23.2971 O   0  0  0  0  0  0  0  0  0134  0  0
  -28.3948  -26.7345   20.0089 O   0  0  0  0  0  0  0  0  0135  0  0
  -26.5870  -34.9065   22.4671 O   0  0  0  0  0  0  0  0  0136  0  0
  -23.5365  -32.1254   23.7833 O   0  0  0  0  0  0  0  0  0137  0  0
  -29.6188  -17.6136   23.1143 C   0  0  0  0  0  0  0  0  0  0  0  0
  -31.5299  -18.5978   24.2169 C   0  0  0  0  0  0  0  0  0  0  0  0
  -31.8420  -16.7974   22.6364 C   0  0  0  0  0  0  0  0  0  0  0  0
  -30.1518  -18.5418   24.0087 C   0  0  0  0  0  0  0  0  0  0  0  0
  -30.4639  -16.7413   22.4282 C   0  0  0  0  0  0  0  0  0  0  0  0
  -32.3750  -17.7256   23.5308 C   0  0  0  0  0  0  0  0  0  0  0  0
  -28.4748  -21.1528   26.1555 C   0  0  0  0  0  0  0  0  0  0  0  0
  -27.5178  -20.4728   26.8178 C   0  0  0  0  0  0  0  0  0  0  0  0
  -29.6588  -20.4063   25.6174 C   0  0  0  0  0  0  0  0  0  0  0  0
  -28.5082  -22.6296   25.9029 C   0  0  0  0  0  0  0  0  0  0  0  0
  -26.2794  -21.0810   27.4112 C   0  0  0  0  0  0  0  0  0  1  0  0
  -29.2948  -19.4268   24.7054 N   0  0  0  0  0  0  0  0  0  0  0  0
  -29.9228  -15.7981   21.5198 N   0  0  0  0  0  0  0  0  0  0  0  0
  -30.7850  -20.7366   25.9724 O   0  0  0  0  0  0  0  0  0  0  0  0
  -27.6515  -19.1115   27.0499 O   0  0  0  0  0  0  0  0  0  0  0  0
  -33.6984  -17.7787   23.7312 F   0  0  0  0  0  0  0  0  0  0  0  0
  -31.4485  -12.4701   19.0860 H   0  0  0  0  0  0  0  0  0  0  0  0
  -30.3970  -11.2460   19.6950 H   0  0  0  0  0  0  0  0  0  0  0  0
  -29.6870  -11.8204   17.4226 H   0  0  0  0  0  0  0  0  0  0  0  0
  -29.6375  -13.5326   17.8649 H   0  0  0  0  0  0  0  0  0  0  0  0
  -27.7830  -11.3650   18.7904 H   0  0  0  0  0  0  0  0  0  0  0  0
  -27.4028  -12.7801   17.8021 H   0  0  0  0  0  0  0  0  0  0  0  0
  -27.7353  -14.2503   19.6136 H   0  0  0  0  0  0  0  0  0  0  0  0
  -28.5890  -11.9550   21.3832 H   0  0  0  0  0  0  0  0  0  0  0  0
  -28.5005  -13.6134   21.8562 H   0  0  0  0  0  0  0  0  0  0  0  0
  -25.2399   -9.5495   22.4318 H   0  0  0  0  0  0  0  0  0  0  0  0
  -23.9663   -7.5070   22.7297 H   0  0  0  0  0  0  0  0  0  0  0  0
  -21.1515   -8.8641   19.9162 H   0  0  0  0  0  0  0  0  0  0  0  0
  -22.4016  -10.9115   19.6476 H   0  0  0  0  0  0  0  0  0  0  0  0
  -21.2319   -7.5552   23.9750 H   0  0  0  0  0  0  0  0  0  0  0  0
  -21.1589   -6.0228   25.8556 H   0  0  0  0  0  0  0  0  0  0  0  0
  -22.0396   -2.8212   23.2809 H   0  0  0  0  0  0  0  0  0  0  0  0
  -22.4401  -11.9703   22.4008 H   0  0  0  0  0  0  0  0  0  0  0  0
  -21.1493  -13.0679   22.2082 H   0  0  0  0  0  0  0  0  0  0  0  0
  -24.6538  -15.7807   20.5848 H   0  0  0  0  0  0  0  0  0  0  0  0
  -26.2762  -15.5453   20.1156 H   0  0  0  0  0  0  0  0  0  0  0  0
  -26.6778  -32.4663   23.1464 H   0  0  0  0  0  0  0  0  0  0  0  0
  -25.0747  -34.0282   25.0566 H   0  0  0  0  0  0  0  0  0  0  0  0
  -22.7881  -31.3489   21.4131 H   0  0  0  0  0  0  0  0  0  0  0  0
  -23.3854  -35.9823   23.3648 H   0  0  0  0  0  0  0  0  0  0  0  0
  -24.3696  -36.8624   22.2204 H   0  0  0  0  0  0  0  0  0  0  0  0
  -23.7669  -37.6632   23.6516 H   0  0  0  0  0  0  0  0  0  0  0  0
  -25.9445  -31.6237   20.5691 H   0  0  0  0  0  0  0  0  0  0  0  0
  -26.7436  -31.0079   22.0108 H   0  0  0  0  0  0  0  0  0  0  0  0
  -28.0090  -29.1452   21.2057 H   0  0  0  0  0  0  0  0  0  0  0  0
  -26.1369  -26.0560   19.0719 H   0  0  0  0  0  0  0  0  0  0  0  0
  -24.0652  -27.2961   19.0997 H   0  0  0  0  0  0  0  0  0  0  0  0
  -23.6156  -30.5365   19.3930 H   0  0  0  0  0  0  0  0  0  0  0  0
  -22.7355  -29.1425   19.9945 H   0  0  0  0  0  0  0  0  0  0  0  0
  -25.1353  -36.2335   25.0565 H   0  0  0  0  0  0  0  0  0  0  0  0
  -21.0070  -28.3206   24.0793 H   0  0  0  0  0  0  0  0  0  0  0  0
  -20.5555  -26.2518   23.3550 H   0  0  0  0  0  0  0  0  0  0  0  0
  -21.5974  -26.8362   22.0454 H   0  0  0  0  0  0  0  0  0  0  0  0
  -19.6810  -25.6422   21.1488 H   0  0  0  0  0  0  0  0  0  0  0  0
  -19.6406  -27.3343   20.7034 H   0  0  0  0  0  0  0  0  0  0  0  0
  -17.4282  -26.6888   21.4113 H   0  0  0  0  0  0  0  0  0  0  0  0
  -18.0803  -26.0130   22.9049 H   0  0  0  0  0  0  0  0  0  0  0  0
  -19.7265  -30.6774   24.2204 H   0  0  0  0  0  0  0  0  0  0  0  0
  -17.5064  -31.5856   24.4483 H   0  0  0  0  0  0  0  0  0  0  0  0
  -15.5878  -30.2839   23.7407 H   0  0  0  0  0  0  0  0  0  0  0  0
  -15.9120  -28.0941   22.7766 H   0  0  0  0  0  0  0  0  0  0  0  0
  -24.5787  -30.7757   25.6817 H   0  0  0  0  0  0  0  0  0  0  0  0
  -25.0041  -32.2289   26.5536 H   0  0  0  0  0  0  0  0  0  0  0  0
  -25.8166  -30.7245   26.9138 H   0  0  0  0  0  0  0  0  0  0  0  0
  -26.2892  -29.7335   24.0803 H   0  0  0  0  0  0  0  0  0  0  0  0
  -27.4336  -29.7484   25.4006 H   0  0  0  0  0  0  0  0  0  0  0  0
  -27.8466  -30.4994   23.8779 H   0  0  0  0  0  0  0  0  0  0  0  0
  -27.2251  -33.3632   26.1242 H   0  0  0  0  0  0  0  0  0  0  0  0
  -28.3902  -32.6065   25.0645 H   0  0  0  0  0  0  0  0  0  0  0  0
  -27.9772  -31.8555   26.5872 H   0  0  0  0  0  0  0  0  0  0  0  0
  -28.2744  -38.0016   24.6863 H   0  0  0  0  0  0  0  0  0  0  0  0
  -28.0396  -36.2711   24.7461 H   0  0  0  0  0  0  0  0  0  0  0  0
  -27.1773  -37.3087   25.8564 H   0  0  0  0  0  0  0  0  0  0  0  0
  -20.9627  -29.9365   21.7352 H   0  0  0  0  0  0  0  0  0  0  0  0
  -26.0447  -38.2561   24.0273 H   0  0  0  0  0  0  0  0  0  0  0  0
  -28.5992  -17.5722   22.9602 H   0  0  0  0  0  0  0  0  0  0  0  0
  -31.9243  -19.2846   24.8786 H   0  0  0  0  0  0  0  0  0  0  0  0
  -32.4672  -16.1522   22.1287 H   0  0  0  0  0  0  0  0  0  0  0  0
  -27.6316  -23.0822   26.3172 H   0  0  0  0  0  0  0  0  0  0  0  0
  -28.5388  -22.8105   24.8488 H   0  0  0  0  0  0  0  0  0  0  0  0
  -29.3780  -23.0505   26.3624 H   0  0  0  0  0  0  0  0  0  0  0  0
  -26.3646  -21.5055   28.3897 H   0  0  0  0  0  0  0  0  0  0  0  0
  -25.3482  -20.5982   27.6226 H   0  0  0  0  0  0  0  0  0  0  0  0
  -28.3317  -19.3370   24.5220 H   0  0  0  0  0  0  0  0  0  0  0  0
  -28.9683  -15.9148   21.3086 H   0  0  0  0  0  0  0  0  0  0  0  0
  -28.3953  -18.6501   26.7155 H   0  0  0  0  0  0  0  0  0  0  0  0
  1 25  1  0
  1 30  2  0
  1 83  1  0
  2  3  1  0
  2 25  1  0
  2 87  1  0
  2 88  1  0
  3  4  1  0
  3 89  1  0
  3 90  1  0
  4  5  1  0
  4 91  1  0
  4 92  1  0
  5  6  1  0
  5 26  1  0
  5 93  1  6
  6 25  1  0
  6 94  1  0
  6 95  1  0
  7  8  2  0
  7 26  1  0
  7 29  1  0
  8  9  1  0
  8 22  1  0
  9 10  1  0
  9 27  2  0
 10 11  2  0
 10 15  1  0
 11 12  1  0
 11 96  1  0
 12 13  2  0
 12 97  1  0
 13 14  1  0
 13 31  1  0
 14 15  2  0
 14 98  1  0
 15 99  1  0
 16 17  2  0
 16 21  1  0
 16 31  1  0
 17 18  1  0
 17100  1  0
 18 19  2  0
 18101  1  0
 19 20  1  0
 19 24  1  0
 20 21  2  0
 20102  1  0
 21 23  1  0
 22 28  1  0
 22 32  2  0
 26 27  1  0
 28103  1  0
 28104  1  0
 29105  1  0
 29106  1  0
 33 34  1  0
 33 66  1  0
 33 70  2  0
 34 36  1  0
 34 59  1  0
 34107  1  6
 35 44  2  0
 35 45  1  0
 35 68  1  0
 36 56  1  0
 36108  1  0
 37 39  1  0
 37 47  1  0
 37 66  1  0
 37109  1  6
 38 43  2  0
 38 46  1  0
 38 47  1  0
 39 64  1  0
 39 67  2  0
 40 52  1  0
 40 53  2  0
 40 58  1  0
 41110  1  0
 41111  1  0
 41112  1  0
 42 43  1  0
 42 66  1  0
 42113  1  0
 42114  1  0
 43 44  1  0
 44115  1  0
 45 46  2  0
 45116  1  0
 46117  1  0
 47118  1  0
 47119  1  0
 48 41  1  0
 48 56  1  0
 48 65  1  0
 48120  1  1
 49 50  1  0
 49 53  1  0
 49 64  1  0
 49121  1  1
 50 51  1  0
 50122  1  0
 50123  1  0
 51 52  1  0
 51124  1  0
 51125  1  0
 52126  1  0
 52127  1  0
 53 54  1  0
 54 55  2  0
 54128  1  0
 55 57  1  0
 55129  1  0
 56 69  2  0
 57 58  2  0
 57130  1  0
 58131  1  0
 59 60  1  0
 59 61  1  0
 59 62  1  0
 60132  1  0
 60133  1  0
 60134  1  0
 61135  1  0
 61136  1  0
 61137  1  0
 62138  1  0
 62139  1  0
 62140  1  0
 63 65  1  0
 63141  1  0
 63142  1  0
 63143  1  0
 64144  1  0
 65145  1  0
 68 81  1  0
 71 74  2  0
 71 75  1  0
 71146  1  0
 72 74  1  0
 72 76  2  0
 72147  1  0
 73 75  2  0
 73 76  1  0
 73148  1  0
 74 82  1  0
 75 83  1  0
 76 86  1  0
 77 78  2  0
 77 79  1  0
 77 80  1  0
 78 81  1  0
 78 85  1  0
 79 82  1  0
 79 84  2  0
 80149  1  0
 80150  1  0
 80151  1  0
 81152  1  0
 81153  1  0
 82154  1  0
 83155  1  0
 85156  1  0
M  ISO  4   1 100  68 101  81 101  83 100
M  END
$$$$
75
     RDKit          3D

157165  0  0  0  0  0  0  0  0999 V2000
  -30.7652  -14.3608   20.6636 C   0  0  0  0  0  0  0  0  0100  0  0
  -30.4392  -12.2669   19.3775 C   0  0  0  0  0  0  0  0  0101  0  0
  -29.4791  -12.5281   18.1977 C   0  0  0  0  0  0  0  0  0102  0  0
  -27.9985  -12.3963   18.6038 C   0  0  0  0  0  0  0  0  0103  0  0
  -27.6639  -13.2170   19.8820 C   0  0  2  0  0  0  0  0  0104  0  0
  -28.6795  -12.9602   21.0279 C   0  0  0  0  0  0  0  0  0105  0  0
  -25.2633  -13.8245   20.5754 C   0  0  0  0  0  0  0  0  0106  0  0
  -24.1645  -13.0409   20.9408 C   0  0  0  0  0  0  0  0  0107  0  0
  -24.6400  -11.7009   20.8697 C   0  0  0  0  0  0  0  0  0108  0  0
  -23.9005  -10.4085   21.0420 C   0  0  0  0  0  0  0  0  0109  0  0
  -24.3588   -9.4123   21.9123 C   0  0  0  0  0  0  0  0  0110  0  0
  -23.6296   -8.2350   22.0803 C   0  0  0  0  0  0  0  0  0111  0  0
  -22.4385   -8.0419   21.3657 C   0  0  0  0  0  0  0  0  0112  0  0
  -22.0103   -9.0167   20.4678 C   0  0  0  0  0  0  0  0  0113  0  0
  -22.7317  -10.1925   20.3102 C   0  0  0  0  0  0  0  0  0114  0  0
  -21.6857   -6.0709   22.5391 C   0  0  0  0  0  0  0  0  0115  0  0
  -21.4064   -6.5490   23.8264 C   0  0  0  0  0  0  0  0  0116  0  0
  -21.3635   -5.6677   24.9085 C   0  0  0  0  0  0  0  0  0117  0  0
  -21.5973   -4.3067   24.7088 C   0  0  0  0  0  0  0  0  0118  0  0
  -21.8700   -3.8284   23.4282 C   0  0  0  0  0  0  0  0  0119  0  0
  -21.9144   -4.7056   22.3460 C   0  0  0  0  0  0  0  0  0120  0  0
  -22.8194  -13.5263   21.1763 C   0  0  0  0  0  0  0  0  0121  0  0
  -22.1559   -4.2206   21.1063 F   0  0  0  0  0  0  0  0  0122  0  0
  -21.5628   -3.4510   25.7555 F   0  0  0  0  0  0  0  0  0123  0  0
  -30.0261  -13.1803   20.4553 N   0  0  0  0  0  0  0  0  0124  0  0
  -26.2911  -12.9356   20.3443 N   0  0  0  0  0  0  0  0  0125  0  0
  -25.9236  -11.6675   20.5847 N   0  0  0  0  0  0  0  0  0126  0  0
  -22.0708  -12.7905   22.0005 N   0  0  0  0  0  0  0  0  0127  0  0
  -25.4117  -15.1773   20.4097 N   0  0  0  0  0  0  0  0  0128  0  0
  -31.7916  -14.6724   20.0536 O   0  0  0  0  0  0  0  0  0129  0  0
  -21.6670   -6.9022   21.4423 O   0  0  0  0  0  0  0  0  0130  0  0
  -22.3946  -14.5564   20.6568 O   0  0  0  0  0  0  0  0  0131  0  0
  -24.6048  -31.8614   23.2223 C   0  0  0  0  0  0  0  0  0100  0  0
  -25.8822  -32.4841   23.8616 C   0  0  1  0  0  0  0  0  0101  0  0
  -27.2536  -27.5042   20.1156 C   0  0  0  0  0  0  0  0  0102  0  0
  -25.5726  -33.8762   24.2210 N   0  0  0  0  0  0  0  0  0103  0  0
  -23.4066  -30.4859   21.5461 C   0  0  2  0  0  0  0  0  0104  0  0
  -24.8467  -28.9636   20.1247 C   0  0  0  0  0  0  0  0  0105  0  0
  -22.7412  -29.4652   22.5052 C   0  0  0  0  0  0  0  0  0106  0  0
  -18.0167  -28.1302   22.8626 C   0  0  0  0  0  0  0  0  0107  0  0
  -24.1342  -36.7390   23.2568 C   0  0  0  0  0  0  0  0  0108  0  0
  -25.9141  -30.8882   21.3456 C   0  0  0  0  0  0  0  0  0109  0  0
  -25.9930  -29.5029   20.7208 C   0  0  0  0  0  0  0  0  0110  0  0
  -27.1758  -28.7612   20.7331 C   0  0  0  0  0  0  0  0  0111  0  0
  -26.1032  -26.9836   19.5230 C   0  0  0  0  0  0  0  0  0112  0  0
  -24.9097  -27.7011   19.5331 C   0  0  0  0  0  0  0  0  0113  0  0
  -23.5715  -29.7899   20.1582 C   0  0  0  0  0  0  0  0  0114  0  0
  -25.3990  -36.3212   24.0232 C   0  0  1  0  0  0  0  0  0115  0  0
  -20.5793  -28.3813   23.1004 C   0  0  2  0  0  0  0  0  0116  0  0
  -20.6548  -26.9392   22.5411 C   0  0  0  0  0  0  0  0  0117  0  0
  -19.5615  -26.6407   21.5143 C   0  0  0  0  0  0  0  0  0118  0  0
  -18.1797  -26.7818   22.1673 C   0  0  0  0  0  0  0  0  0119  0  0
  -19.1385  -28.8769   23.2988 C   0  0  0  0  0  0  0  0  0120  0  0
  -18.9183  -30.1286   23.8878 C   0  0  0  0  0  0  0  0  0121  0  0
  -17.6396  -30.6493   24.0352 C   0  0  0  0  0  0  0  0  0122  0  0
  -25.9153  -34.9582   23.4993 C   0  0  0  0  0  0  0  0  0123  0  0
  -16.5415  -29.9068   23.6254 C   0  0  0  0  0  0  0  0  0124  0  0
  -16.7331  -28.6521   23.0586 C   0  0  0  0  0  0  0  0  0125  0  0
  -26.4583  -31.6439   25.0683 C   0  0  0  0  0  0  0  0  0126  0  0
  -25.3807  -31.3179   26.1374 C   0  0  0  0  0  0  0  0  0127  0  0
  -27.0530  -30.3024   24.5680 C   0  0  0  0  0  0  0  0  0128  0  0
  -27.6014  -32.4281   25.7651 C   0  0  0  0  0  0  0  0  0129  0  0
  -27.5629  -37.2220   24.8621 C   0  0  0  0  0  0  0  0  0130  0  0
  -21.4133  -29.3375   22.3735 N   0  0  0  0  0  0  0  0  0131  0  0
  -26.4706  -37.3372   23.9061 N   0  0  0  0  0  0  0  0  0132  0  0
  -24.6674  -31.0544   22.1178 N   0  0  0  0  0  0  0  0  0133  0  0
  -23.4259  -28.8150   23.2971 O   0  0  0  0  0  0  0  0  0134  0  0
  -28.3948  -26.7345   20.0089 O   0  0  0  0  0  0  0  0  0135  0  0
  -26.5870  -34.9065   22.4671 O   0  0  0  0  0  0  0  0  0136  0  0
  -23.5365  -32.1254   23.7833 O   0  0  0  0  0  0  0  0  0137  0  0
  -31.3728  -17.3973   20.7528 C   0  0  0  0  0  0  0  0  0  0  0  0
  -30.4578  -16.8105   21.6121 C   0  0  0  0  0  0  0  0  0  0  0  0
  -29.7851  -17.6343   22.5077 C   0  0  0  0  0  0  0  0  0  0  0  0
  -30.0442  -19.0003   22.5166 C   0  0  0  0  0  0  0  0  0  0  0  0
  -30.9779  -19.4890   21.6170 C   0  0  0  0  0  0  0  0  0  0  0  0
  -31.7362  -23.8610   20.0395 C   0  0  0  0  0  0  0  0  0  0  0  0
  -32.0810  -23.0602   21.0640 C   0  0  0  0  0  0  0  0  0  0  0  0
  -32.1120  -21.5821   20.8144 C   0  0  0  0  0  0  0  0  0  0  0  0
  -32.4133  -23.4790   22.4620 C   0  0  0  0  0  0  0  0  0  0  0  0
  -32.9028  -26.0312   19.6555 C   0  0  0  0  0  0  0  0  0  0  0  0
  -31.6038  -25.3572   20.0763 C   0  0  1  0  0  0  0  0  0  1  0  0
  -31.6512  -18.7200   20.7321 N   0  0  0  0  0  0  0  0  0  0  0  0
  -30.2167  -15.4147   21.5775 N   0  0  0  0  0  0  0  0  0  0  0  0
  -31.2377  -20.8808   21.6320 N   0  0  0  0  0  0  0  0  0  0  0  0
  -32.8301  -21.1436   19.9217 O   0  0  0  0  0  0  0  0  0  0  0  0
  -28.8883  -17.1238   23.3634 F   0  0  0  0  0  0  0  0  0  0  0  0
  -29.4041  -19.8054   23.3739 F   0  0  0  0  0  0  0  0  0  0  0  0
  -31.4485  -12.4701   19.0860 H   0  0  0  0  0  0  0  0  0  0  0  0
  -30.3970  -11.2460   19.6950 H   0  0  0  0  0  0  0  0  0  0  0  0
  -29.6870  -11.8204   17.4226 H   0  0  0  0  0  0  0  0  0  0  0  0
  -29.6375  -13.5326   17.8649 H   0  0  0  0  0  0  0  0  0  0  0  0
  -27.7830  -11.3650   18.7904 H   0  0  0  0  0  0  0  0  0  0  0  0
  -27.4028  -12.7801   17.8021 H   0  0  0  0  0  0  0  0  0  0  0  0
  -27.7353  -14.2503   19.6136 H   0  0  0  0  0  0  0  0  0  0  0  0
  -28.5890  -11.9550   21.3832 H   0  0  0  0  0  0  0  0  0  0  0  0
  -28.5005  -13.6134   21.8562 H   0  0  0  0  0  0  0  0  0  0  0  0
  -25.2399   -9.5495   22.4318 H   0  0  0  0  0  0  0  0  0  0  0  0
  -23.9663   -7.5070   22.7297 H   0  0  0  0  0  0  0  0  0  0  0  0
  -21.1515   -8.8641   19.9162 H   0  0  0  0  0  0  0  0  0  0  0  0
  -22.4016  -10.9115   19.6476 H   0  0  0  0  0  0  0  0  0  0  0  0
  -21.2319   -7.5552   23.9750 H   0  0  0  0  0  0  0  0  0  0  0  0
  -21.1589   -6.0228   25.8556 H   0  0  0  0  0  0  0  0  0  0  0  0
  -22.0396   -2.8212   23.2809 H   0  0  0  0  0  0  0  0  0  0  0  0
  -22.4401  -11.9703   22.4008 H   0  0  0  0  0  0  0  0  0  0  0  0
  -21.1493  -13.0679   22.2082 H   0  0  0  0  0  0  0  0  0  0  0  0
  -24.6538  -15.7807   20.5848 H   0  0  0  0  0  0  0  0  0  0  0  0
  -26.2762  -15.5453   20.1156 H   0  0  0  0  0  0  0  0  0  0  0  0
  -26.6778  -32.4663   23.1464 H   0  0  0  0  0  0  0  0  0  0  0  0
  -25.0747  -34.0282   25.0566 H   0  0  0  0  0  0  0  0  0  0  0  0
  -22.7881  -31.3489   21.4131 H   0  0  0  0  0  0  0  0  0  0  0  0
  -23.3854  -35.9823   23.3648 H   0  0  0  0  0  0  0  0  0  0  0  0
  -24.3696  -36.8624   22.2204 H   0  0  0  0  0  0  0  0  0  0  0  0
  -23.7669  -37.6632   23.6516 H   0  0  0  0  0  0  0  0  0  0  0  0
  -25.9445  -31.6237   20.5691 H   0  0  0  0  0  0  0  0  0  0  0  0
  -26.7436  -31.0079   22.0108 H   0  0  0  0  0  0  0  0  0  0  0  0
  -28.0090  -29.1452   21.2057 H   0  0  0  0  0  0  0  0  0  0  0  0
  -26.1369  -26.0560   19.0719 H   0  0  0  0  0  0  0  0  0  0  0  0
  -24.0652  -27.2961   19.0997 H   0  0  0  0  0  0  0  0  0  0  0  0
  -23.6156  -30.5365   19.3930 H   0  0  0  0  0  0  0  0  0  0  0  0
  -22.7355  -29.1425   19.9945 H   0  0  0  0  0  0  0  0  0  0  0  0
  -25.1353  -36.2335   25.0565 H   0  0  0  0  0  0  0  0  0  0  0  0
  -21.0070  -28.3206   24.0793 H   0  0  0  0  0  0  0  0  0  0  0  0
  -20.5555  -26.2518   23.3550 H   0  0  0  0  0  0  0  0  0  0  0  0
  -21.5974  -26.8362   22.0454 H   0  0  0  0  0  0  0  0  0  0  0  0
  -19.6810  -25.6422   21.1488 H   0  0  0  0  0  0  0  0  0  0  0  0
  -19.6406  -27.3343   20.7034 H   0  0  0  0  0  0  0  0  0  0  0  0
  -17.4282  -26.6888   21.4113 H   0  0  0  0  0  0  0  0  0  0  0  0
  -18.0803  -26.0130   22.9049 H   0  0  0  0  0  0  0  0  0  0  0  0
  -19.7265  -30.6774   24.2204 H   0  0  0  0  0  0  0  0  0  0  0  0
  -17.5064  -31.5856   24.4483 H   0  0  0  0  0  0  0  0  0  0  0  0
  -15.5878  -30.2839   23.7407 H   0  0  0  0  0  0  0  0  0  0  0  0
  -15.9120  -28.0941   22.7766 H   0  0  0  0  0  0  0  0  0  0  0  0
  -24.5787  -30.7757   25.6817 H   0  0  0  0  0  0  0  0  0  0  0  0
  -25.0041  -32.2289   26.5536 H   0  0  0  0  0  0  0  0  0  0  0  0
  -25.8166  -30.7245   26.9138 H   0  0  0  0  0  0  0  0  0  0  0  0
  -26.2892  -29.7335   24.0803 H   0  0  0  0  0  0  0  0  0  0  0  0
  -27.4336  -29.7484   25.4006 H   0  0  0  0  0  0  0  0  0  0  0  0
  -27.8466  -30.4994   23.8779 H   0  0  0  0  0  0  0  0  0  0  0  0
  -27.2251  -33.3632   26.1242 H   0  0  0  0  0  0  0  0  0  0  0  0
  -28.3902  -32.6065   25.0645 H   0  0  0  0  0  0  0  0  0  0  0  0
  -27.9772  -31.8555   26.5872 H   0  0  0  0  0  0  0  0  0  0  0  0
  -28.2744  -38.0016   24.6863 H   0  0  0  0  0  0  0  0  0  0  0  0
  -28.0396  -36.2711   24.7461 H   0  0  0  0  0  0  0  0  0  0  0  0
  -27.1773  -37.3087   25.8564 H   0  0  0  0  0  0  0  0  0  0  0  0
  -20.9627  -29.9365   21.7352 H   0  0  0  0  0  0  0  0  0  0  0  0
  -26.0447  -38.2561   24.0273 H   0  0  0  0  0  0  0  0  0  0  0  0
  -31.8726  -16.7869   20.0875 H   0  0  0  0  0  0  0  0  0  0  0  0
  -31.5429  -23.4007   19.1363 H   0  0  0  0  0  0  0  0  0  0  0  0
  -32.3637  -24.5453   22.5362 H   0  0  0  0  0  0  0  0  0  0  0  0
  -33.4014  -23.1499   22.7076 H   0  0  0  0  0  0  0  0  0  0  0  0
  -31.7123  -23.0412   23.1416 H   0  0  0  0  0  0  0  0  0  0  0  0
  -33.7179  -25.3517   19.7926 H   0  0  0  0  0  0  0  0  0  0  0  0
  -33.0617  -26.9041   20.2536 H   0  0  0  0  0  0  0  0  0  0  0  0
  -32.8416  -26.3114   18.6247 H   0  0  0  0  0  0  0  0  0  0  0  0
  -31.5368  -25.8319   21.0329 H   0  0  0  0  0  0  0  0  0  0  0  0
  -29.5901  -15.0851   22.2616 H   0  0  0  0  0  0  0  0  0  0  0  0
  -30.7421  -21.4105   22.2976 H   0  0  0  0  0  0  0  0  0  0  0  0
  1 25  1  0
  1 30  2  0
  1 83  1  0
  2  3  1  0
  2 25  1  0
  2 88  1  0
  2 89  1  0
  3  4  1  0
  3 90  1  0
  3 91  1  0
  4  5  1  0
  4 92  1  0
  4 93  1  0
  5  6  1  0
  5 26  1  0
  5 94  1  6
  6 25  1  0
  6 95  1  0
  6 96  1  0
  7  8  2  0
  7 26  1  0
  7 29  1  0
  8  9  1  0
  8 22  1  0
  9 10  1  0
  9 27  2  0
 10 11  2  0
 10 15  1  0
 11 12  1  0
 11 97  1  0
 12 13  2  0
 12 98  1  0
 13 14  1  0
 13 31  1  0
 14 15  2  0
 14 99  1  0
 15100  1  0
 16 17  2  0
 16 21  1  0
 16 31  1  0
 17 18  1  0
 17101  1  0
 18 19  2  0
 18102  1  0
 19 20  1  0
 19 24  1  0
 20 21  2  0
 20103  1  0
 21 23  1  0
 22 28  1  0
 22 32  2  0
 26 27  1  0
 28104  1  0
 28105  1  0
 29106  1  0
 29107  1  0
 33 34  1  0
 33 66  1  0
 33 70  2  0
 34 36  1  0
 34 59  1  0
 34108  1  6
 35 44  2  0
 35 45  1  0
 35 68  1  0
 36 56  1  0
 36109  1  0
 37 39  1  0
 37 47  1  0
 37 66  1  0
 37110  1  6
 38 43  2  0
 38 46  1  0
 38 47  1  0
 39 64  1  0
 39 67  2  0
 40 52  1  0
 40 53  2  0
 40 58  1  0
 41111  1  0
 41112  1  0
 41113  1  0
 42 43  1  0
 42 66  1  0
 42114  1  0
 42115  1  0
 43 44  1  0
 44116  1  0
 45 46  2  0
 45117  1  0
 46118  1  0
 47119  1  0
 47120  1  0
 48 41  1  0
 48 56  1  0
 48 65  1  0
 48121  1  1
 49 50  1  0
 49 53  1  0
 49 64  1  0
 49122  1  1
 50 51  1  0
 50123  1  0
 50124  1  0
 51 52  1  0
 51125  1  0
 51126  1  0
 52127  1  0
 52128  1  0
 53 54  1  0
 54 55  2  0
 54129  1  0
 55 57  1  0
 55130  1  0
 56 69  2  0
 57 58  2  0
 57131  1  0
 58132  1  0
 59 60  1  0
 59 61  1  0
 59 62  1  0
 60133  1  0
 60134  1  0
 60135  1  0
 61136  1  0
 61137  1  0
 61138  1  0
 62139  1  0
 62140  1  0
 62141  1  0
 63 65  1  0
 63142  1  0
 63143  1  0
 63144  1  0
 64145  1  0
 65146  1  0
 68 81  1  0
 71 72  2  0
 71 82  1  0
 71147  1  0
 72 73  1  0
 72 83  1  0
 73 74  2  0
 73 86  1  0
 74 75  1  0
 74 87  1  0
 75 82  2  0
 75 84  1  0
 76 77  2  0
 76 81  1  0
 76148  1  0
 77 78  1  0
 77 79  1  0
 78 84  1  0
 78 85  2  0
 79149  1  0
 79150  1  0
 79151  1  0
 80152  1  0
 80153  1  0
 80154  1  0
 81 80  1  0
 81155  1  1
 83156  1  0
 84157  1  0
M  ISO  4   1 100  68 101  81 101  83 100
M  END
$$$$
76
     RDKit          3D

157165  0  0  0  0  0  0  0  0999 V2000
  -30.7652  -14.3608   20.6636 C   0  0  0  0  0  0  0  0  0100  0  0
  -30.4392  -12.2669   19.3775 C   0  0  0  0  0  0  0  0  0101  0  0
  -29.4791  -12.5281   18.1977 C   0  0  0  0  0  0  0  0  0102  0  0
  -27.9985  -12.3963   18.6038 C   0  0  0  0  0  0  0  0  0103  0  0
  -27.6639  -13.2170   19.8820 C   0  0  2  0  0  0  0  0  0104  0  0
  -28.6795  -12.9602   21.0279 C   0  0  0  0  0  0  0  0  0105  0  0
  -25.2633  -13.8245   20.5754 C   0  0  0  0  0  0  0  0  0106  0  0
  -24.1645  -13.0409   20.9408 C   0  0  0  0  0  0  0  0  0107  0  0
  -24.6400  -11.7009   20.8697 C   0  0  0  0  0  0  0  0  0108  0  0
  -23.9005  -10.4085   21.0420 C   0  0  0  0  0  0  0  0  0109  0  0
  -24.3588   -9.4123   21.9123 C   0  0  0  0  0  0  0  0  0110  0  0
  -23.6296   -8.2350   22.0803 C   0  0  0  0  0  0  0  0  0111  0  0
  -22.4385   -8.0419   21.3657 C   0  0  0  0  0  0  0  0  0112  0  0
  -22.0103   -9.0167   20.4678 C   0  0  0  0  0  0  0  0  0113  0  0
  -22.7317  -10.1925   20.3102 C   0  0  0  0  0  0  0  0  0114  0  0
  -21.6857   -6.0709   22.5391 C   0  0  0  0  0  0  0  0  0115  0  0
  -21.4064   -6.5490   23.8264 C   0  0  0  0  0  0  0  0  0116  0  0
  -21.3635   -5.6677   24.9085 C   0  0  0  0  0  0  0  0  0117  0  0
  -21.5973   -4.3067   24.7088 C   0  0  0  0  0  0  0  0  0118  0  0
  -21.8700   -3.8284   23.4282 C   0  0  0  0  0  0  0  0  0119  0  0
  -21.9144   -4.7056   22.3460 C   0  0  0  0  0  0  0  0  0120  0  0
  -22.8194  -13.5263   21.1763 C   0  0  0  0  0  0  0  0  0121  0  0
  -22.1559   -4.2206   21.1063 F   0  0  0  0  0  0  0  0  0122  0  0
  -21.5628   -3.4510   25.7555 F   0  0  0  0  0  0  0  0  0123  0  0
  -30.0261  -13.1803   20.4553 N   0  0  0  0  0  0  0  0  0124  0  0
  -26.2911  -12.9356   20.3443 N   0  0  0  0  0  0  0  0  0125  0  0
  -25.9236  -11.6675   20.5847 N   0  0  0  0  0  0  0  0  0126  0  0
  -22.0708  -12.7905   22.0005 N   0  0  0  0  0  0  0  0  0127  0  0
  -25.4117  -15.1773   20.4097 N   0  0  0  0  0  0  0  0  0128  0  0
  -31.7916  -14.6724   20.0536 O   0  0  0  0  0  0  0  0  0129  0  0
  -21.6670   -6.9022   21.4423 O   0  0  0  0  0  0  0  0  0130  0  0
  -22.3946  -14.5564   20.6568 O   0  0  0  0  0  0  0  0  0131  0  0
  -24.6048  -31.8614   23.2223 C   0  0  0  0  0  0  0  0  0100  0  0
  -25.8822  -32.4841   23.8616 C   0  0  1  0  0  0  0  0  0101  0  0
  -27.2536  -27.5042   20.1156 C   0  0  0  0  0  0  0  0  0102  0  0
  -25.5726  -33.8762   24.2210 N   0  0  0  0  0  0  0  0  0103  0  0
  -23.4066  -30.4859   21.5461 C   0  0  2  0  0  0  0  0  0104  0  0
  -24.8467  -28.9636   20.1247 C   0  0  0  0  0  0  0  0  0105  0  0
  -22.7412  -29.4652   22.5052 C   0  0  0  0  0  0  0  0  0106  0  0
  -18.0167  -28.1302   22.8626 C   0  0  0  0  0  0  0  0  0107  0  0
  -24.1342  -36.7390   23.2568 C   0  0  0  0  0  0  0  0  0108  0  0
  -25.9141  -30.8882   21.3456 C   0  0  0  0  0  0  0  0  0109  0  0
  -25.9930  -29.5029   20.7208 C   0  0  0  0  0  0  0  0  0110  0  0
  -27.1758  -28.7612   20.7331 C   0  0  0  0  0  0  0  0  0111  0  0
  -26.1032  -26.9836   19.5230 C   0  0  0  0  0  0  0  0  0112  0  0
  -24.9097  -27.7011   19.5331 C   0  0  0  0  0  0  0  0  0113  0  0
  -23.5715  -29.7899   20.1582 C   0  0  0  0  0  0  0  0  0114  0  0
  -25.3990  -36.3212   24.0232 C   0  0  1  0  0  0  0  0  0115  0  0
  -20.5793  -28.3813   23.1004 C   0  0  2  0  0  0  0  0  0116  0  0
  -20.6548  -26.9392   22.5411 C   0  0  0  0  0  0  0  0  0117  0  0
  -19.5615  -26.6407   21.5143 C   0  0  0  0  0  0  0  0  0118  0  0
  -18.1797  -26.7818   22.1673 C   0  0  0  0  0  0  0  0  0119  0  0
  -19.1385  -28.8769   23.2988 C   0  0  0  0  0  0  0  0  0120  0  0
  -18.9183  -30.1286   23.8878 C   0  0  0  0  0  0  0  0  0121  0  0
  -17.6396  -30.6493   24.0352 C   0  0  0  0  0  0  0  0  0122  0  0
  -25.9153  -34.9582   23.4993 C   0  0  0  0  0  0  0  0  0123  0  0
  -16.5415  -29.9068   23.6254 C   0  0  0  0  0  0  0  0  0124  0  0
  -16.7331  -28.6521   23.0586 C   0  0  0  0  0  0  0  0  0125  0  0
  -26.4583  -31.6439   25.0683 C   0  0  0  0  0  0  0  0  0126  0  0
  -25.3807  -31.3179   26.1374 C   0  0  0  0  0  0  0  0  0127  0  0
  -27.0530  -30.3024   24.5680 C   0  0  0  0  0  0  0  0  0128  0  0
  -27.6014  -32.4281   25.7651 C   0  0  0  0  0  0  0  0  0129  0  0
  -27.5629  -37.2220   24.8621 C   0  0  0  0  0  0  0  0  0130  0  0
  -21.4133  -29.3375   22.3735 N   0  0  0  0  0  0  0  0  0131  0  0
  -26.4706  -37.3372   23.9061 N   0  0  0  0  0  0  0  0  0132  0  0
  -24.6674  -31.0544   22.1178 N   0  0  0  0  0  0  0  0  0133  0  0
  -23.4259  -28.8150   23.2971 O   0  0  0  0  0  0  0  0  0134  0  0
  -28.3948  -26.7345   20.0089 O   0  0  0  0  0  0  0  0  0135  0  0
  -26.5870  -34.9065   22.4671 O   0  0  0  0  0  0  0  0  0136  0  0
  -23.5365  -32.1254   23.7833 O   0  0  0  0  0  0  0  0  0137  0  0
  -30.5818  -16.8508   23.8499 C   0  0  0  0  0  0  0  0  0  0  0  0
  -32.1222  -18.6927   23.7115 C   0  0  0  0  0  0  0  0  0  0  0  0
  -31.1372  -17.9982   24.4050 C   0  0  0  0  0  0  0  0  0  0  0  0
  -31.0422  -16.4426   22.6084 C   0  0  0  0  0  0  0  0  0  0  0  0
  -32.5138  -18.2019   22.4763 C   0  0  0  0  0  0  0  0  0  0  0  0
  -25.7745  -18.7786   25.8419 C   0  0  0  0  0  0  0  0  0  1  0  0
  -26.9894  -19.3333   25.7086 C   0  0  0  0  0  0  0  0  0  0  0  0
  -28.1860  -18.4404   25.8308 C   0  0  0  0  0  0  0  0  0  0  0  0
  -34.0090  -18.5176   20.5039 C   0  0  0  0  0  0  0  0  0  0  0  0
  -30.6752  -18.4856   25.7478 C   0  0  0  0  0  0  0  0  0  0  0  0
  -31.9973  -17.0909   21.9048 N   0  0  0  0  0  0  0  0  0  0  0  0
  -30.4701  -15.2723   22.0510 N   0  0  0  0  0  0  0  0  0  0  0  0
  -33.5186  -18.9202   21.7816 N   0  0  0  0  0  0  0  0  0  0  0  0
  -29.3799  -19.1236   25.6755 N   0  0  0  0  0  0  0  0  0  0  0  0
  -28.0845  -17.2355   26.0442 O   0  0  0  0  0  0  0  0  0  0  0  0
  -27.2095  -20.6712   25.4653 O   0  0  0  0  0  0  0  0  0  0  0  0
  -31.4485  -12.4701   19.0860 H   0  0  0  0  0  0  0  0  0  0  0  0
  -30.3970  -11.2460   19.6950 H   0  0  0  0  0  0  0  0  0  0  0  0
  -29.6870  -11.8204   17.4226 H   0  0  0  0  0  0  0  0  0  0  0  0
  -29.6375  -13.5326   17.8649 H   0  0  0  0  0  0  0  0  0  0  0  0
  -27.7830  -11.3650   18.7904 H   0  0  0  0  0  0  0  0  0  0  0  0
  -27.4028  -12.7801   17.8021 H   0  0  0  0  0  0  0  0  0  0  0  0
  -27.7353  -14.2503   19.6136 H   0  0  0  0  0  0  0  0  0  0  0  0
  -28.5890  -11.9550   21.3832 H   0  0  0  0  0  0  0  0  0  0  0  0
  -28.5005  -13.6134   21.8562 H   0  0  0  0  0  0  0  0  0  0  0  0
  -25.2399   -9.5495   22.4318 H   0  0  0  0  0  0  0  0  0  0  0  0
  -23.9663   -7.5070   22.7297 H   0  0  0  0  0  0  0  0  0  0  0  0
  -21.1515   -8.8641   19.9162 H   0  0  0  0  0  0  0  0  0  0  0  0
  -22.4016  -10.9115   19.6476 H   0  0  0  0  0  0  0  0  0  0  0  0
  -21.2319   -7.5552   23.9750 H   0  0  0  0  0  0  0  0  0  0  0  0
  -21.1589   -6.0228   25.8556 H   0  0  0  0  0  0  0  0  0  0  0  0
  -22.0396   -2.8212   23.2809 H   0  0  0  0  0  0  0  0  0  0  0  0
  -22.4401  -11.9703   22.4008 H   0  0  0  0  0  0  0  0  0  0  0  0
  -21.1493  -13.0679   22.2082 H   0  0  0  0  0  0  0  0  0  0  0  0
  -24.6538  -15.7807   20.5848 H   0  0  0  0  0  0  0  0  0  0  0  0
  -26.2762  -15.5453   20.1156 H   0  0  0  0  0  0  0  0  0  0  0  0
  -26.6778  -32.4663   23.1464 H   0  0  0  0  0  0  0  0  0  0  0  0
  -25.0747  -34.0282   25.0566 H   0  0  0  0  0  0  0  0  0  0  0  0
  -22.7881  -31.3489   21.4131 H   0  0  0  0  0  0  0  0  0  0  0  0
  -23.3854  -35.9823   23.3648 H   0  0  0  0  0  0  0  0  0  0  0  0
  -24.3696  -36.8624   22.2204 H   0  0  0  0  0  0  0  0  0  0  0  0
  -23.7669  -37.6632   23.6516 H   0  0  0  0  0  0  0  0  0  0  0  0
  -25.9445  -31.6237   20.5691 H   0  0  0  0  0  0  0  0  0  0  0  0
  -26.7436  -31.0079   22.0108 H   0  0  0  0  0  0  0  0  0  0  0  0
  -28.0090  -29.1452   21.2057 H   0  0  0  0  0  0  0  0  0  0  0  0
  -26.1369  -26.0560   19.0719 H   0  0  0  0  0  0  0  0  0  0  0  0
  -24.0652  -27.2961   19.0997 H   0  0  0  0  0  0  0  0  0  0  0  0
  -23.6156  -30.5365   19.3930 H   0  0  0  0  0  0  0  0  0  0  0  0
  -22.7355  -29.1425   19.9945 H   0  0  0  0  0  0  0  0  0  0  0  0
  -25.1353  -36.2335   25.0565 H   0  0  0  0  0  0  0  0  0  0  0  0
  -21.0070  -28.3206   24.0793 H   0  0  0  0  0  0  0  0  0  0  0  0
  -20.5555  -26.2518   23.3550 H   0  0  0  0  0  0  0  0  0  0  0  0
  -21.5974  -26.8362   22.0454 H   0  0  0  0  0  0  0  0  0  0  0  0
  -19.6810  -25.6422   21.1488 H   0  0  0  0  0  0  0  0  0  0  0  0
  -19.6406  -27.3343   20.7034 H   0  0  0  0  0  0  0  0  0  0  0  0
  -17.4282  -26.6888   21.4113 H   0  0  0  0  0  0  0  0  0  0  0  0
  -18.0803  -26.0130   22.9049 H   0  0  0  0  0  0  0  0  0  0  0  0
  -19.7265  -30.6774   24.2204 H   0  0  0  0  0  0  0  0  0  0  0  0
  -17.5064  -31.5856   24.4483 H   0  0  0  0  0  0  0  0  0  0  0  0
  -15.5878  -30.2839   23.7407 H   0  0  0  0  0  0  0  0  0  0  0  0
  -15.9120  -28.0941   22.7766 H   0  0  0  0  0  0  0  0  0  0  0  0
  -24.5787  -30.7757   25.6817 H   0  0  0  0  0  0  0  0  0  0  0  0
  -25.0041  -32.2289   26.5536 H   0  0  0  0  0  0  0  0  0  0  0  0
  -25.8166  -30.7245   26.9138 H   0  0  0  0  0  0  0  0  0  0  0  0
  -26.2892  -29.7335   24.0803 H   0  0  0  0  0  0  0  0  0  0  0  0
  -27.4336  -29.7484   25.4006 H   0  0  0  0  0  0  0  0  0  0  0  0
  -27.8466  -30.4994   23.8779 H   0  0  0  0  0  0  0  0  0  0  0  0
  -27.2251  -33.3632   26.1242 H   0  0  0  0  0  0  0  0  0  0  0  0
  -28.3902  -32.6065   25.0645 H   0  0  0  0  0  0  0  0  0  0  0  0
  -27.9772  -31.8555   26.5872 H   0  0  0  0  0  0  0  0  0  0  0  0
  -28.2744  -38.0016   24.6863 H   0  0  0  0  0  0  0  0  0  0  0  0
  -28.0396  -36.2711   24.7461 H   0  0  0  0  0  0  0  0  0  0  0  0
  -27.1773  -37.3087   25.8564 H   0  0  0  0  0  0  0  0  0  0  0  0
  -20.9627  -29.9365   21.7352 H   0  0  0  0  0  0  0  0  0  0  0  0
  -26.0447  -38.2561   24.0273 H   0  0  0  0  0  0  0  0  0  0  0  0
  -29.8496  -16.3198   24.3469 H   0  0  0  0  0  0  0  0  0  0  0  0
  -32.5481  -19.5467   24.1043 H   0  0  0  0  0  0  0  0  0  0  0  0
  -25.1065  -18.0929   26.2275 H   0  0  0  0  0  0  0  0  0  0  0  0
  -34.7590  -19.2069   20.1763 H   0  0  0  0  0  0  0  0  0  0  0  0
  -33.2032  -18.5061   19.8000 H   0  0  0  0  0  0  0  0  0  0  0  0
  -34.4327  -17.5378   20.5770 H   0  0  0  0  0  0  0  0  0  0  0  0
  -31.3872  -19.1906   26.1232 H   0  0  0  0  0  0  0  0  0  0  0  0
  -30.5909  -17.6385   26.3961 H   0  0  0  0  0  0  0  0  0  0  0  0
  -29.7350  -14.9099   22.5965 H   0  0  0  0  0  0  0  0  0  0  0  0
  -33.8934  -19.7299   22.1976 H   0  0  0  0  0  0  0  0  0  0  0  0
  -29.3452  -20.0930   25.5073 H   0  0  0  0  0  0  0  0  0  0  0  0
  -26.4837  -21.2581   25.3832 H   0  0  0  0  0  0  0  0  0  0  0  0
  1 25  1  0
  1 30  2  0
  1 82  1  0
  2  3  1  0
  2 25  1  0
  2 87  1  0
  2 88  1  0
  3  4  1  0
  3 89  1  0
  3 90  1  0
  4  5  1  0
  4 91  1  0
  4 92  1  0
  5  6  1  0
  5 26  1  0
  5 93  1  6
  6 25  1  0
  6 94  1  0
  6 95  1  0
  7  8  2  0
  7 26  1  0
  7 29  1  0
  8  9  1  0
  8 22  1  0
  9 10  1  0
  9 27  2  0
 10 11  2  0
 10 15  1  0
 11 12  1  0
 11 96  1  0
 12 13  2  0
 12 97  1  0
 13 14  1  0
 13 31  1  0
 14 15  2  0
 14 98  1  0
 15 99  1  0
 16 17  2  0
 16 21  1  0
 16 31  1  0
 17 18  1  0
 17100  1  0
 18 19  2  0
 18101  1  0
 19 20  1  0
 19 24  1  0
 20 21  2  0
 20102  1  0
 21 23  1  0
 22 28  1  0
 22 32  2  0
 26 27  1  0
 28103  1  0
 28104  1  0
 29105  1  0
 29106  1  0
 33 34  1  0
 33 66  1  0
 33 70  2  0
 34 36  1  0
 34 59  1  0
 34107  1  6
 35 44  2  0
 35 45  1  0
 35 68  1  0
 36 56  1  0
 36108  1  0
 37 39  1  0
 37 47  1  0
 37 66  1  0
 37109  1  6
 38 43  2  0
 38 46  1  0
 38 47  1  0
 39 64  1  0
 39 67  2  0
 40 52  1  0
 40 53  2  0
 40 58  1  0
 41110  1  0
 41111  1  0
 41112  1  0
 42 43  1  0
 42 66  1  0
 42113  1  0
 42114  1  0
 43 44  1  0
 44115  1  0
 45 46  2  0
 45116  1  0
 46117  1  0
 47118  1  0
 47119  1  0
 48 41  1  0
 48 56  1  0
 48 65  1  0
 48120  1  1
 49 50  1  0
 49 53  1  0
 49 64  1  0
 49121  1  1
 50 51  1  0
 50122  1  0
 50123  1  0
 51 52  1  0
 51124  1  0
 51125  1  0
 52126  1  0
 52127  1  0
 53 54  1  0
 54 55  2  0
 54128  1  0
 55 57  1  0
 55129  1  0
 56 69  2  0
 57 58  2  0
 57130  1  0
 58131  1  0
 59 60  1  0
 59 61  1  0
 59 62  1  0
 60132  1  0
 60133  1  0
 60134  1  0
 61135  1  0
 61136  1  0
 61137  1  0
 62138  1  0
 62139  1  0
 62140  1  0
 63 65  1  0
 63141  1  0
 63142  1  0
 63143  1  0
 64144  1  0
 65145  1  0
 68 76  1  0
 71 73  2  0
 71 74  1  0
 71146  1  0
 72 73  1  0
 72 75  2  0
 72147  1  0
 73 80  1  0
 74 81  2  0
 74 82  1  0
 75 81  1  0
 75 83  1  0
 76 77  2  0
 76148  1  0
 77 78  1  0
 77 86  1  0
 78 84  1  0
 78 85  2  0
 79 83  1  0
 79149  1  0
 79150  1  0
 79151  1  0
 80 84  1  0
 80152  1  0
 80153  1  0
 82154  1  0
 83155  1  0
 84156  1  0
 86157  1  0
M  ISO  4   1 100  68 101  76 101  82 100
M  END
$$$$
77
     RDKit          3D

158166  0  0  0  0  0  0  0  0999 V2000
  -30.7652  -14.3608   20.6636 C   0  0  0  0  0  0  0  0  0100  0  0
  -30.4392  -12.2669   19.3775 C   0  0  0  0  0  0  0  0  0101  0  0
  -29.4791  -12.5281   18.1977 C   0  0  0  0  0  0  0  0  0102  0  0
  -27.9985  -12.3963   18.6038 C   0  0  0  0  0  0  0  0  0103  0  0
  -27.6639  -13.2170   19.8820 C   0  0  2  0  0  0  0  0  0104  0  0
  -28.6795  -12.9602   21.0279 C   0  0  0  0  0  0  0  0  0105  0  0
  -25.2633  -13.8245   20.5754 C   0  0  0  0  0  0  0  0  0106  0  0
  -24.1645  -13.0409   20.9408 C   0  0  0  0  0  0  0  0  0107  0  0
  -24.6400  -11.7009   20.8697 C   0  0  0  0  0  0  0  0  0108  0  0
  -23.9005  -10.4085   21.0420 C   0  0  0  0  0  0  0  0  0109  0  0
  -24.3588   -9.4123   21.9123 C   0  0  0  0  0  0  0  0  0110  0  0
  -23.6296   -8.2350   22.0803 C   0  0  0  0  0  0  0  0  0111  0  0
  -22.4385   -8.0419   21.3657 C   0  0  0  0  0  0  0  0  0112  0  0
  -22.0103   -9.0167   20.4678 C   0  0  0  0  0  0  0  0  0113  0  0
  -22.7317  -10.1925   20.3102 C   0  0  0  0  0  0  0  0  0114  0  0
  -21.6857   -6.0709   22.5391 C   0  0  0  0  0  0  0  0  0115  0  0
  -21.4064   -6.5490   23.8264 C   0  0  0  0  0  0  0  0  0116  0  0
  -21.3635   -5.6677   24.9085 C   0  0  0  0  0  0  0  0  0117  0  0
  -21.5973   -4.3067   24.7088 C   0  0  0  0  0  0  0  0  0118  0  0
  -21.8700   -3.8284   23.4282 C   0  0  0  0  0  0  0  0  0119  0  0
  -21.9144   -4.7056   22.3460 C   0  0  0  0  0  0  0  0  0120  0  0
  -22.8194  -13.5263   21.1763 C   0  0  0  0  0  0  0  0  0121  0  0
  -22.1559   -4.2206   21.1063 F   0  0  0  0  0  0  0  0  0122  0  0
  -21.5628   -3.4510   25.7555 F   0  0  0  0  0  0  0  0  0123  0  0
  -30.0261  -13.1803   20.4553 N   0  0  0  0  0  0  0  0  0124  0  0
  -26.2911  -12.9356   20.3443 N   0  0  0  0  0  0  0  0  0125  0  0
  -25.9236  -11.6675   20.5847 N   0  0  0  0  0  0  0  0  0126  0  0
  -22.0708  -12.7905   22.0005 N   0  0  0  0  0  0  0  0  0127  0  0
  -25.4117  -15.1773   20.4097 N   0  0  0  0  0  0  0  0  0128  0  0
  -31.7916  -14.6724   20.0536 O   0  0  0  0  0  0  0  0  0129  0  0
  -21.6670   -6.9022   21.4423 O   0  0  0  0  0  0  0  0  0130  0  0
  -22.3946  -14.5564   20.6568 O   0  0  0  0  0  0  0  0  0131  0  0
  -24.6048  -31.8614   23.2223 C   0  0  0  0  0  0  0  0  0100  0  0
  -25.8822  -32.4841   23.8616 C   0  0  1  0  0  0  0  0  0101  0  0
  -27.2536  -27.5042   20.1156 C   0  0  0  0  0  0  0  0  0102  0  0
  -25.5726  -33.8762   24.2210 N   0  0  0  0  0  0  0  0  0103  0  0
  -23.4066  -30.4859   21.5461 C   0  0  2  0  0  0  0  0  0104  0  0
  -24.8467  -28.9636   20.1247 C   0  0  0  0  0  0  0  0  0105  0  0
  -22.7412  -29.4652   22.5052 C   0  0  0  0  0  0  0  0  0106  0  0
  -18.0167  -28.1302   22.8626 C   0  0  0  0  0  0  0  0  0107  0  0
  -24.1342  -36.7390   23.2568 C   0  0  0  0  0  0  0  0  0108  0  0
  -25.9141  -30.8882   21.3456 C   0  0  0  0  0  0  0  0  0109  0  0
  -25.9930  -29.5029   20.7208 C   0  0  0  0  0  0  0  0  0110  0  0
  -27.1758  -28.7612   20.7331 C   0  0  0  0  0  0  0  0  0111  0  0
  -26.1032  -26.9836   19.5230 C   0  0  0  0  0  0  0  0  0112  0  0
  -24.9097  -27.7011   19.5331 C   0  0  0  0  0  0  0  0  0113  0  0
  -23.5715  -29.7899   20.1582 C   0  0  0  0  0  0  0  0  0114  0  0
  -25.3990  -36.3212   24.0232 C   0  0  1  0  0  0  0  0  0115  0  0
  -20.5793  -28.3813   23.1004 C   0  0  2  0  0  0  0  0  0116  0  0
  -20.6548  -26.9392   22.5411 C   0  0  0  0  0  0  0  0  0117  0  0
  -19.5615  -26.6407   21.5143 C   0  0  0  0  0  0  0  0  0118  0  0
  -18.1797  -26.7818   22.1673 C   0  0  0  0  0  0  0  0  0119  0  0
  -19.1385  -28.8769   23.2988 C   0  0  0  0  0  0  0  0  0120  0  0
  -18.9183  -30.1286   23.8878 C   0  0  0  0  0  0  0  0  0121  0  0
  -17.6396  -30.6493   24.0352 C   0  0  0  0  0  0  0  0  0122  0  0
  -25.9153  -34.9582   23.4993 C   0  0  0  0  0  0  0  0  0123  0  0
  -16.5415  -29.9068   23.6254 C   0  0  0  0  0  0  0  0  0124  0  0
  -16.7331  -28.6521   23.0586 C   0  0  0  0  0  0  0  0  0125  0  0
  -26.4583  -31.6439   25.0683 C   0  0  0  0  0  0  0  0  0126  0  0
  -25.3807  -31.3179   26.1374 C   0  0  0  0  0  0  0  0  0127  0  0
  -27.0530  -30.3024   24.5680 C   0  0  0  0  0  0  0  0  0128  0  0
  -27.6014  -32.4281   25.7651 C   0  0  0  0  0  0  0  0  0129  0  0
  -27.5629  -37.2220   24.8621 C   0  0  0  0  0  0  0  0  0130  0  0
  -21.4133  -29.3375   22.3735 N   0  0  0  0  0  0  0  0  0131  0  0
  -26.4706  -37.3372   23.9061 N   0  0  0  0  0  0  0  0  0132  0  0
  -24.6674  -31.0544   22.1178 N   0  0  0  0  0  0  0  0  0133  0  0
  -23.4259  -28.8150   23.2971 O   0  0  0  0  0  0  0  0  0134  0  0
  -28.3948  -26.7345   20.0089 O   0  0  0  0  0  0  0  0  0135  0  0
  -26.5870  -34.9065   22.4671 O   0  0  0  0  0  0  0  0  0136  0  0
  -23.5365  -32.1254   23.7833 O   0  0  0  0  0  0  0  0  0137  0  0
  -30.8038  -18.8849   20.1539 C   0  0  0  0  0  0  0  0  0  0  0  0
  -31.0192  -20.2630   20.1532 C   0  0  0  0  0  0  0  0  0  0  0  0
  -28.6197  -19.2266   21.1285 C   0  0  0  0  0  0  0  0  0  0  0  0
  -28.8351  -20.6048   21.1279 C   0  0  0  0  0  0  0  0  0  0  0  0
  -29.6040  -18.3667   20.6415 C   0  0  0  0  0  0  0  0  0  0  0  0
  -30.0349  -21.1230   20.6403 C   0  0  0  0  0  0  0  0  0  0  0  0
  -27.7876  -21.4760   21.6462 C   0  0  0  0  0  0  0  0  0  0  0  0
  -31.3078  -24.6495   20.3229 C   0  0  0  0  0  0  0  0  0  0  0  0
  -31.4067  -23.1586   20.1748 C   0  0  0  0  0  0  0  0  0  0  0  0
  -26.3696  -21.0083   21.5075 C   0  0  0  0  0  0  0  0  0  0  0  0
  -31.8535  -25.2345   21.6070 C   0  0  0  0  0  0  0  0  0  0  0  0
  -31.1203  -26.5017   22.0202 C   0  0  0  0  0  0  0  0  0  1  0  0
  -30.2757  -22.5166   20.6310 N   0  0  0  0  0  0  0  0  0  0  0  0
  -29.3862  -16.9666   20.6425 N   0  0  0  0  0  0  0  0  0  0  0  0
  -27.9818  -22.5664   22.1833 O   0  0  0  0  0  0  0  0  0  0  0  0
  -30.8086  -25.2717   19.3976 O   0  0  0  0  0  0  0  0  0  0  0  0
  -32.4269  -22.7269   19.6643 O   0  0  0  0  0  0  0  0  0  0  0  0
  -31.4485  -12.4701   19.0860 H   0  0  0  0  0  0  0  0  0  0  0  0
  -30.3970  -11.2460   19.6950 H   0  0  0  0  0  0  0  0  0  0  0  0
  -29.6870  -11.8204   17.4226 H   0  0  0  0  0  0  0  0  0  0  0  0
  -29.6375  -13.5326   17.8649 H   0  0  0  0  0  0  0  0  0  0  0  0
  -27.7830  -11.3650   18.7904 H   0  0  0  0  0  0  0  0  0  0  0  0
  -27.4028  -12.7801   17.8021 H   0  0  0  0  0  0  0  0  0  0  0  0
  -27.7353  -14.2503   19.6136 H   0  0  0  0  0  0  0  0  0  0  0  0
  -28.5890  -11.9550   21.3832 H   0  0  0  0  0  0  0  0  0  0  0  0
  -28.5005  -13.6134   21.8562 H   0  0  0  0  0  0  0  0  0  0  0  0
  -25.2399   -9.5495   22.4318 H   0  0  0  0  0  0  0  0  0  0  0  0
  -23.9663   -7.5070   22.7297 H   0  0  0  0  0  0  0  0  0  0  0  0
  -21.1515   -8.8641   19.9162 H   0  0  0  0  0  0  0  0  0  0  0  0
  -22.4016  -10.9115   19.6476 H   0  0  0  0  0  0  0  0  0  0  0  0
  -21.2319   -7.5552   23.9750 H   0  0  0  0  0  0  0  0  0  0  0  0
  -21.1589   -6.0228   25.8556 H   0  0  0  0  0  0  0  0  0  0  0  0
  -22.0396   -2.8212   23.2809 H   0  0  0  0  0  0  0  0  0  0  0  0
  -22.4401  -11.9703   22.4008 H   0  0  0  0  0  0  0  0  0  0  0  0
  -21.1493  -13.0679   22.2082 H   0  0  0  0  0  0  0  0  0  0  0  0
  -24.6538  -15.7807   20.5848 H   0  0  0  0  0  0  0  0  0  0  0  0
  -26.2762  -15.5453   20.1156 H   0  0  0  0  0  0  0  0  0  0  0  0
  -26.6778  -32.4663   23.1464 H   0  0  0  0  0  0  0  0  0  0  0  0
  -25.0747  -34.0282   25.0566 H   0  0  0  0  0  0  0  0  0  0  0  0
  -22.7881  -31.3489   21.4131 H   0  0  0  0  0  0  0  0  0  0  0  0
  -23.3854  -35.9823   23.3648 H   0  0  0  0  0  0  0  0  0  0  0  0
  -24.3696  -36.8624   22.2204 H   0  0  0  0  0  0  0  0  0  0  0  0
  -23.7669  -37.6632   23.6516 H   0  0  0  0  0  0  0  0  0  0  0  0
  -25.9445  -31.6237   20.5691 H   0  0  0  0  0  0  0  0  0  0  0  0
  -26.7436  -31.0079   22.0108 H   0  0  0  0  0  0  0  0  0  0  0  0
  -28.0090  -29.1452   21.2057 H   0  0  0  0  0  0  0  0  0  0  0  0
  -26.1369  -26.0560   19.0719 H   0  0  0  0  0  0  0  0  0  0  0  0
  -24.0652  -27.2961   19.0997 H   0  0  0  0  0  0  0  0  0  0  0  0
  -23.6156  -30.5365   19.3930 H   0  0  0  0  0  0  0  0  0  0  0  0
  -22.7355  -29.1425   19.9945 H   0  0  0  0  0  0  0  0  0  0  0  0
  -25.1353  -36.2335   25.0565 H   0  0  0  0  0  0  0  0  0  0  0  0
  -21.0070  -28.3206   24.0793 H   0  0  0  0  0  0  0  0  0  0  0  0
  -20.5555  -26.2518   23.3550 H   0  0  0  0  0  0  0  0  0  0  0  0
  -21.5974  -26.8362   22.0454 H   0  0  0  0  0  0  0  0  0  0  0  0
  -19.6810  -25.6422   21.1488 H   0  0  0  0  0  0  0  0  0  0  0  0
  -19.6406  -27.3343   20.7034 H   0  0  0  0  0  0  0  0  0  0  0  0
  -17.4282  -26.6888   21.4113 H   0  0  0  0  0  0  0  0  0  0  0  0
  -18.0803  -26.0130   22.9049 H   0  0  0  0  0  0  0  0  0  0  0  0
  -19.7265  -30.6774   24.2204 H   0  0  0  0  0  0  0  0  0  0  0  0
  -17.5064  -31.5856   24.4483 H   0  0  0  0  0  0  0  0  0  0  0  0
  -15.5878  -30.2839   23.7407 H   0  0  0  0  0  0  0  0  0  0  0  0
  -15.9120  -28.0941   22.7766 H   0  0  0  0  0  0  0  0  0  0  0  0
  -24.5787  -30.7757   25.6817 H   0  0  0  0  0  0  0  0  0  0  0  0
  -25.0041  -32.2289   26.5536 H   0  0  0  0  0  0  0  0  0  0  0  0
  -25.8166  -30.7245   26.9138 H   0  0  0  0  0  0  0  0  0  0  0  0
  -26.2892  -29.7335   24.0803 H   0  0  0  0  0  0  0  0  0  0  0  0
  -27.4336  -29.7484   25.4006 H   0  0  0  0  0  0  0  0  0  0  0  0
  -27.8466  -30.4994   23.8779 H   0  0  0  0  0  0  0  0  0  0  0  0
  -27.2251  -33.3632   26.1242 H   0  0  0  0  0  0  0  0  0  0  0  0
  -28.3902  -32.6065   25.0645 H   0  0  0  0  0  0  0  0  0  0  0  0
  -27.9772  -31.8555   26.5872 H   0  0  0  0  0  0  0  0  0  0  0  0
  -28.2744  -38.0016   24.6863 H   0  0  0  0  0  0  0  0  0  0  0  0
  -28.0396  -36.2711   24.7461 H   0  0  0  0  0  0  0  0  0  0  0  0
  -27.1773  -37.3087   25.8564 H   0  0  0  0  0  0  0  0  0  0  0  0
  -20.9627  -29.9365   21.7352 H   0  0  0  0  0  0  0  0  0  0  0  0
  -26.0447  -38.2561   24.0273 H   0  0  0  0  0  0  0  0  0  0  0  0
  -31.5321  -18.2486   19.7937 H   0  0  0  0  0  0  0  0  0  0  0  0
  -31.9068  -20.6464   19.7923 H   0  0  0  0  0  0  0  0  0  0  0  0
  -27.7321  -18.8432   21.4893 H   0  0  0  0  0  0  0  0  0  0  0  0
  -26.3547  -20.0528   21.0262 H   0  0  0  0  0  0  0  0  0  0  0  0
  -25.8177  -21.7122   20.9202 H   0  0  0  0  0  0  0  0  0  0  0  0
  -25.9246  -20.9262   22.4771 H   0  0  0  0  0  0  0  0  0  0  0  0
  -32.8888  -25.4658   21.4673 H   0  0  0  0  0  0  0  0  0  0  0  0
  -31.7168  -24.5092   22.3817 H   0  0  0  0  0  0  0  0  0  0  0  0
  -31.7523  -27.3548   21.8869 H   0  0  0  0  0  0  0  0  0  0  0  0
  -30.8387  -26.4674   23.0519 H   0  0  0  0  0  0  0  0  0  0  0  0
  -29.5590  -23.0891   20.9885 H   0  0  0  0  0  0  0  0  0  0  0  0
  -28.4153  -16.8037   20.6324 H   0  0  0  0  0  0  0  0  0  0  0  0
  1 25  1  0
  1 30  2  0
  1 84  1  0
  2  3  1  0
  2 25  1  0
  2 88  1  0
  2 89  1  0
  3  4  1  0
  3 90  1  0
  3 91  1  0
  4  5  1  0
  4 92  1  0
  4 93  1  0
  5  6  1  0
  5 26  1  0
  5 94  1  6
  6 25  1  0
  6 95  1  0
  6 96  1  0
  7  8  2  0
  7 26  1  0
  7 29  1  0
  8  9  1  0
  8 22  1  0
  9 10  1  0
  9 27  2  0
 10 11  2  0
 10 15  1  0
 11 12  1  0
 11 97  1  0
 12 13  2  0
 12 98  1  0
 13 14  1  0
 13 31  1  0
 14 15  2  0
 14 99  1  0
 15100  1  0
 16 17  2  0
 16 21  1  0
 16 31  1  0
 17 18  1  0
 17101  1  0
 18 19  2  0
 18102  1  0
 19 20  1  0
 19 24  1  0
 20 21  2  0
 20103  1  0
 21 23  1  0
 22 28  1  0
 22 32  2  0
 26 27  1  0
 28104  1  0
 28105  1  0
 29106  1  0
 29107  1  0
 33 34  1  0
 33 66  1  0
 33 70  2  0
 34 36  1  0
 34 59  1  0
 34108  1  6
 35 44  2  0
 35 45  1  0
 35 68  1  0
 36 56  1  0
 36109  1  0
 37 39  1  0
 37 47  1  0
 37 66  1  0
 37110  1  6
 38 43  2  0
 38 46  1  0
 38 47  1  0
 39 64  1  0
 39 67  2  0
 40 52  1  0
 40 53  2  0
 40 58  1  0
 41111  1  0
 41112  1  0
 41113  1  0
 42 43  1  0
 42 66  1  0
 42114  1  0
 42115  1  0
 43 44  1  0
 44116  1  0
 45 46  2  0
 45117  1  0
 46118  1  0
 47119  1  0
 47120  1  0
 48 41  1  0
 48 56  1  0
 48 65  1  0
 48121  1  1
 49 50  1  0
 49 53  1  0
 49 64  1  0
 49122  1  1
 50 51  1  0
 50123  1  0
 50124  1  0
 51 52  1  0
 51125  1  0
 51126  1  0
 52127  1  0
 52128  1  0
 53 54  1  0
 54 55  2  0
 54129  1  0
 55 57  1  0
 55130  1  0
 56 69  2  0
 57 58  2  0
 57131  1  0
 58132  1  0
 59 60  1  0
 59 61  1  0
 59 62  1  0
 60133  1  0
 60134  1  0
 60135  1  0
 61136  1  0
 61137  1  0
 61138  1  0
 62139  1  0
 62140  1  0
 62141  1  0
 63 65  1  0
 63142  1  0
 63143  1  0
 63144  1  0
 64145  1  0
 65146  1  0
 68 82  1  0
 71 72  2  0
 71 75  1  0
 71147  1  0
 72 76  1  0
 72148  1  0
 73 74  1  0
 73 75  2  0
 73149  1  0
 74 76  2  0
 74 77  1  0
 75 84  1  0
 76 83  1  0
 77 80  1  0
 77 85  2  0
 78 79  1  0
 78 81  1  0
 78 86  2  0
 79 83  1  0
 79 87  2  0
 80150  1  0
 80151  1  0
 80152  1  0
 81 82  1  0
 81153  1  0
 81154  1  0
 82155  1  0
 82156  1  0
 83157  1  0
 84158  1  0
M  ISO  4   1 100  68 101  82 101  84 100
M  END
$$$$
78
     RDKit          3D

160168  0  0  0  0  0  0  0  0999 V2000
  -30.7652  -14.3608   20.6636 C   0  0  0  0  0  0  0  0  0100  0  0
  -30.4392  -12.2669   19.3775 C   0  0  0  0  0  0  0  0  0101  0  0
  -29.4791  -12.5281   18.1977 C   0  0  0  0  0  0  0  0  0102  0  0
  -27.9985  -12.3963   18.6038 C   0  0  0  0  0  0  0  0  0103  0  0
  -27.6639  -13.2170   19.8820 C   0  0  2  0  0  0  0  0  0104  0  0
  -28.6795  -12.9602   21.0279 C   0  0  0  0  0  0  0  0  0105  0  0
  -25.2633  -13.8245   20.5754 C   0  0  0  0  0  0  0  0  0106  0  0
  -24.1645  -13.0409   20.9408 C   0  0  0  0  0  0  0  0  0107  0  0
  -24.6400  -11.7009   20.8697 C   0  0  0  0  0  0  0  0  0108  0  0
  -23.9005  -10.4085   21.0420 C   0  0  0  0  0  0  0  0  0109  0  0
  -24.3588   -9.4123   21.9123 C   0  0  0  0  0  0  0  0  0110  0  0
  -23.6296   -8.2350   22.0803 C   0  0  0  0  0  0  0  0  0111  0  0
  -22.4385   -8.0419   21.3657 C   0  0  0  0  0  0  0  0  0112  0  0
  -22.0103   -9.0167   20.4678 C   0  0  0  0  0  0  0  0  0113  0  0
  -22.7317  -10.1925   20.3102 C   0  0  0  0  0  0  0  0  0114  0  0
  -21.6857   -6.0709   22.5391 C   0  0  0  0  0  0  0  0  0115  0  0
  -21.4064   -6.5490   23.8264 C   0  0  0  0  0  0  0  0  0116  0  0
  -21.3635   -5.6677   24.9085 C   0  0  0  0  0  0  0  0  0117  0  0
  -21.5973   -4.3067   24.7088 C   0  0  0  0  0  0  0  0  0118  0  0
  -21.8700   -3.8284   23.4282 C   0  0  0  0  0  0  0  0  0119  0  0
  -21.9144   -4.7056   22.3460 C   0  0  0  0  0  0  0  0  0120  0  0
  -22.8194  -13.5263   21.1763 C   0  0  0  0  0  0  0  0  0121  0  0
  -22.1559   -4.2206   21.1063 F   0  0  0  0  0  0  0  0  0122  0  0
  -21.5628   -3.4510   25.7555 F   0  0  0  0  0  0  0  0  0123  0  0
  -30.0261  -13.1803   20.4553 N   0  0  0  0  0  0  0  0  0124  0  0
  -26.2911  -12.9356   20.3443 N   0  0  0  0  0  0  0  0  0125  0  0
  -25.9236  -11.6675   20.5847 N   0  0  0  0  0  0  0  0  0126  0  0
  -22.0708  -12.7905   22.0005 N   0  0  0  0  0  0  0  0  0127  0  0
  -25.4117  -15.1773   20.4097 N   0  0  0  0  0  0  0  0  0128  0  0
  -31.7916  -14.6724   20.0536 O   0  0  0  0  0  0  0  0  0129  0  0
  -21.6670   -6.9022   21.4423 O   0  0  0  0  0  0  0  0  0130  0  0
  -22.3946  -14.5564   20.6568 O   0  0  0  0  0  0  0  0  0131  0  0
  -24.6048  -31.8614   23.2223 C   0  0  0  0  0  0  0  0  0100  0  0
  -25.8822  -32.4841   23.8616 C   0  0  1  0  0  0  0  0  0101  0  0
  -27.2536  -27.5042   20.1156 C   0  0  0  0  0  0  0  0  0102  0  0
  -25.5726  -33.8762   24.2210 N   0  0  0  0  0  0  0  0  0103  0  0
  -23.4066  -30.4859   21.5461 C   0  0  2  0  0  0  0  0  0104  0  0
  -24.8467  -28.9636   20.1247 C   0  0  0  0  0  0  0  0  0105  0  0
  -22.7412  -29.4652   22.5052 C   0  0  0  0  0  0  0  0  0106  0  0
  -18.0167  -28.1302   22.8626 C   0  0  0  0  0  0  0  0  0107  0  0
  -24.1342  -36.7390   23.2568 C   0  0  0  0  0  0  0  0  0108  0  0
  -25.9141  -30.8882   21.3456 C   0  0  0  0  0  0  0  0  0109  0  0
  -25.9930  -29.5029   20.7208 C   0  0  0  0  0  0  0  0  0110  0  0
  -27.1758  -28.7612   20.7331 C   0  0  0  0  0  0  0  0  0111  0  0
  -26.1032  -26.9836   19.5230 C   0  0  0  0  0  0  0  0  0112  0  0
  -24.9097  -27.7011   19.5331 C   0  0  0  0  0  0  0  0  0113  0  0
  -23.5715  -29.7899   20.1582 C   0  0  0  0  0  0  0  0  0114  0  0
  -25.3990  -36.3212   24.0232 C   0  0  1  0  0  0  0  0  0115  0  0
  -20.5793  -28.3813   23.1004 C   0  0  2  0  0  0  0  0  0116  0  0
  -20.6548  -26.9392   22.5411 C   0  0  0  0  0  0  0  0  0117  0  0
  -19.5615  -26.6407   21.5143 C   0  0  0  0  0  0  0  0  0118  0  0
  -18.1797  -26.7818   22.1673 C   0  0  0  0  0  0  0  0  0119  0  0
  -19.1385  -28.8769   23.2988 C   0  0  0  0  0  0  0  0  0120  0  0
  -18.9183  -30.1286   23.8878 C   0  0  0  0  0  0  0  0  0121  0  0
  -17.6396  -30.6493   24.0352 C   0  0  0  0  0  0  0  0  0122  0  0
  -25.9153  -34.9582   23.4993 C   0  0  0  0  0  0  0  0  0123  0  0
  -16.5415  -29.9068   23.6254 C   0  0  0  0  0  0  0  0  0124  0  0
  -16.7331  -28.6521   23.0586 C   0  0  0  0  0  0  0  0  0125  0  0
  -26.4583  -31.6439   25.0683 C   0  0  0  0  0  0  0  0  0126  0  0
  -25.3807  -31.3179   26.1374 C   0  0  0  0  0  0  0  0  0127  0  0
  -27.0530  -30.3024   24.5680 C   0  0  0  0  0  0  0  0  0128  0  0
  -27.6014  -32.4281   25.7651 C   0  0  0  0  0  0  0  0  0129  0  0
  -27.5629  -37.2220   24.8621 C   0  0  0  0  0  0  0  0  0130  0  0
  -21.4133  -29.3375   22.3735 N   0  0  0  0  0  0  0  0  0131  0  0
  -26.4706  -37.3372   23.9061 N   0  0  0  0  0  0  0  0  0132  0  0
  -24.6674  -31.0544   22.1178 N   0  0  0  0  0  0  0  0  0133  0  0
  -23.4259  -28.8150   23.2971 O   0  0  0  0  0  0  0  0  0134  0  0
  -28.3948  -26.7345   20.0089 O   0  0  0  0  0  0  0  0  0135  0  0
  -26.5870  -34.9065   22.4671 O   0  0  0  0  0  0  0  0  0136  0  0
  -23.5365  -32.1254   23.7833 O   0  0  0  0  0  0  0  0  0137  0  0
  -29.7608  -18.6734   23.2990 C   0  0  0  0  0  0  0  0  0  0  0  0
  -28.0938  -20.1058   22.3901 C   0  0  0  0  0  0  0  0  0  0  0  0
  -29.8469  -18.0404   22.0640 C   0  0  0  0  0  0  0  0  0  0  0  0
  -28.8701  -19.7267   23.4734 C   0  0  0  0  0  0  0  0  0  0  0  0
  -29.0268  -18.4948   21.0438 C   0  0  0  0  0  0  0  0  0  0  0  0
  -27.9974  -21.9405   26.3751 C   0  0  0  0  0  0  0  0  0  0  0  0
  -28.3791  -18.1559   18.6376 C   0  0  0  0  0  0  0  0  0  0  0  0
  -28.7625  -17.2456   17.4980 C   0  0  0  0  0  0  0  0  0  0  0  0
  -30.8032  -16.9114   21.8807 C   0  0  0  0  0  0  0  0  0  0  0  0
  -27.8604  -21.4734   24.9415 C   0  0  0  0  0  0  0  0  0  0  0  0
  -27.1066  -23.1010   26.7738 C   0  0  0  0  0  0  0  0  0  1  0  0
  -28.1495  -19.5149   21.1754 N   0  0  0  0  0  0  0  0  0  0  0  0
  -28.7615  -20.3770   24.6942 N   0  0  0  0  0  0  0  0  0  0  0  0
  -29.1057  -17.8634   19.7944 N   0  0  0  0  0  0  0  0  0  0  0  0
  -30.1405  -15.6867   21.4912 N   0  0  0  0  0  0  0  0  0  0  0  0
  -28.7769  -21.4207   27.1726 O   0  0  0  0  0  0  0  0  0  0  0  0
  -27.5266  -19.0252   18.4876 O   0  0  0  0  0  0  0  0  0  0  0  0
  -31.4485  -12.4701   19.0860 H   0  0  0  0  0  0  0  0  0  0  0  0
  -30.3970  -11.2460   19.6950 H   0  0  0  0  0  0  0  0  0  0  0  0
  -29.6870  -11.8204   17.4226 H   0  0  0  0  0  0  0  0  0  0  0  0
  -29.6375  -13.5326   17.8649 H   0  0  0  0  0  0  0  0  0  0  0  0
  -27.7830  -11.3650   18.7904 H   0  0  0  0  0  0  0  0  0  0  0  0
  -27.4028  -12.7801   17.8021 H   0  0  0  0  0  0  0  0  0  0  0  0
  -27.7353  -14.2503   19.6136 H   0  0  0  0  0  0  0  0  0  0  0  0
  -28.5890  -11.9550   21.3832 H   0  0  0  0  0  0  0  0  0  0  0  0
  -28.5005  -13.6134   21.8562 H   0  0  0  0  0  0  0  0  0  0  0  0
  -25.2399   -9.5495   22.4318 H   0  0  0  0  0  0  0  0  0  0  0  0
  -23.9663   -7.5070   22.7297 H   0  0  0  0  0  0  0  0  0  0  0  0
  -21.1515   -8.8641   19.9162 H   0  0  0  0  0  0  0  0  0  0  0  0
  -22.4016  -10.9115   19.6476 H   0  0  0  0  0  0  0  0  0  0  0  0
  -21.2319   -7.5552   23.9750 H   0  0  0  0  0  0  0  0  0  0  0  0
  -21.1589   -6.0228   25.8556 H   0  0  0  0  0  0  0  0  0  0  0  0
  -22.0396   -2.8212   23.2809 H   0  0  0  0  0  0  0  0  0  0  0  0
  -22.4401  -11.9703   22.4008 H   0  0  0  0  0  0  0  0  0  0  0  0
  -21.1493  -13.0679   22.2082 H   0  0  0  0  0  0  0  0  0  0  0  0
  -24.6538  -15.7807   20.5848 H   0  0  0  0  0  0  0  0  0  0  0  0
  -26.2762  -15.5453   20.1156 H   0  0  0  0  0  0  0  0  0  0  0  0
  -26.6778  -32.4663   23.1464 H   0  0  0  0  0  0  0  0  0  0  0  0
  -25.0747  -34.0282   25.0566 H   0  0  0  0  0  0  0  0  0  0  0  0
  -22.7881  -31.3489   21.4131 H   0  0  0  0  0  0  0  0  0  0  0  0
  -23.3854  -35.9823   23.3648 H   0  0  0  0  0  0  0  0  0  0  0  0
  -24.3696  -36.8624   22.2204 H   0  0  0  0  0  0  0  0  0  0  0  0
  -23.7669  -37.6632   23.6516 H   0  0  0  0  0  0  0  0  0  0  0  0
  -25.9445  -31.6237   20.5691 H   0  0  0  0  0  0  0  0  0  0  0  0
  -26.7436  -31.0079   22.0108 H   0  0  0  0  0  0  0  0  0  0  0  0
  -28.0090  -29.1452   21.2057 H   0  0  0  0  0  0  0  0  0  0  0  0
  -26.1369  -26.0560   19.0719 H   0  0  0  0  0  0  0  0  0  0  0  0
  -24.0652  -27.2961   19.0997 H   0  0  0  0  0  0  0  0  0  0  0  0
  -23.6156  -30.5365   19.3930 H   0  0  0  0  0  0  0  0  0  0  0  0
  -22.7355  -29.1425   19.9945 H   0  0  0  0  0  0  0  0  0  0  0  0
  -25.1353  -36.2335   25.0565 H   0  0  0  0  0  0  0  0  0  0  0  0
  -21.0070  -28.3206   24.0793 H   0  0  0  0  0  0  0  0  0  0  0  0
  -20.5555  -26.2518   23.3550 H   0  0  0  0  0  0  0  0  0  0  0  0
  -21.5974  -26.8362   22.0454 H   0  0  0  0  0  0  0  0  0  0  0  0
  -19.6810  -25.6422   21.1488 H   0  0  0  0  0  0  0  0  0  0  0  0
  -19.6406  -27.3343   20.7034 H   0  0  0  0  0  0  0  0  0  0  0  0
  -17.4282  -26.6888   21.4113 H   0  0  0  0  0  0  0  0  0  0  0  0
  -18.0803  -26.0130   22.9049 H   0  0  0  0  0  0  0  0  0  0  0  0
  -19.7265  -30.6774   24.2204 H   0  0  0  0  0  0  0  0  0  0  0  0
  -17.5064  -31.5856   24.4483 H   0  0  0  0  0  0  0  0  0  0  0  0
  -15.5878  -30.2839   23.7407 H   0  0  0  0  0  0  0  0  0  0  0  0
  -15.9120  -28.0941   22.7766 H   0  0  0  0  0  0  0  0  0  0  0  0
  -24.5787  -30.7757   25.6817 H   0  0  0  0  0  0  0  0  0  0  0  0
  -25.0041  -32.2289   26.5536 H   0  0  0  0  0  0  0  0  0  0  0  0
  -25.8166  -30.7245   26.9138 H   0  0  0  0  0  0  0  0  0  0  0  0
  -26.2892  -29.7335   24.0803 H   0  0  0  0  0  0  0  0  0  0  0  0
  -27.4336  -29.7484   25.4006 H   0  0  0  0  0  0  0  0  0  0  0  0
  -27.8466  -30.4994   23.8779 H   0  0  0  0  0  0  0  0  0  0  0  0
  -27.2251  -33.3632   26.1242 H   0  0  0  0  0  0  0  0  0  0  0  0
  -28.3902  -32.6065   25.0645 H   0  0  0  0  0  0  0  0  0  0  0  0
  -27.9772  -31.8555   26.5872 H   0  0  0  0  0  0  0  0  0  0  0  0
  -28.2744  -38.0016   24.6863 H   0  0  0  0  0  0  0  0  0  0  0  0
  -28.0396  -36.2711   24.7461 H   0  0  0  0  0  0  0  0  0  0  0  0
  -27.1773  -37.3087   25.8564 H   0  0  0  0  0  0  0  0  0  0  0  0
  -20.9627  -29.9365   21.7352 H   0  0  0  0  0  0  0  0  0  0  0  0
  -26.0447  -38.2561   24.0273 H   0  0  0  0  0  0  0  0  0  0  0  0
  -30.3556  -18.3627   24.0830 H   0  0  0  0  0  0  0  0  0  0  0  0
  -27.4323  -20.8874   22.5184 H   0  0  0  0  0  0  0  0  0  0  0  0
  -29.5164  -16.5611   17.8265 H   0  0  0  0  0  0  0  0  0  0  0  0
  -29.1412  -17.8306   16.6861 H   0  0  0  0  0  0  0  0  0  0  0  0
  -27.9019  -16.6992   17.1729 H   0  0  0  0  0  0  0  0  0  0  0  0
  -31.3192  -16.7447   22.8031 H   0  0  0  0  0  0  0  0  0  0  0  0
  -31.4798  -17.1804   21.0966 H   0  0  0  0  0  0  0  0  0  0  0  0
  -28.0957  -22.2817   24.2811 H   0  0  0  0  0  0  0  0  0  0  0  0
  -26.8553  -21.1481   24.7718 H   0  0  0  0  0  0  0  0  0  0  0  0
  -27.4609  -23.6417   27.6265 H   0  0  0  0  0  0  0  0  0  0  0  0
  -26.1008  -22.9093   27.0845 H   0  0  0  0  0  0  0  0  0  0  0  0
  -29.3337  -20.0713   25.4347 H   0  0  0  0  0  0  0  0  0  0  0  0
  -29.7518  -17.1239   19.7237 H   0  0  0  0  0  0  0  0  0  0  0  0
  -29.1918  -15.6189   21.7455 H   0  0  0  0  0  0  0  0  0  0  0  0
  1 25  1  0
  1 30  2  0
  1 85  1  0
  2  3  1  0
  2 25  1  0
  2 88  1  0
  2 89  1  0
  3  4  1  0
  3 90  1  0
  3 91  1  0
  4  5  1  0
  4 92  1  0
  4 93  1  0
  5  6  1  0
  5 26  1  0
  5 94  1  6
  6 25  1  0
  6 95  1  0
  6 96  1  0
  7  8  2  0
  7 26  1  0
  7 29  1  0
  8  9  1  0
  8 22  1  0
  9 10  1  0
  9 27  2  0
 10 11  2  0
 10 15  1  0
 11 12  1  0
 11 97  1  0
 12 13  2  0
 12 98  1  0
 13 14  1  0
 13 31  1  0
 14 15  2  0
 14 99  1  0
 15100  1  0
 16 17  2  0
 16 21  1  0
 16 31  1  0
 17 18  1  0
 17101  1  0
 18 19  2  0
 18102  1  0
 19 20  1  0
 19 24  1  0
 20 21  2  0
 20103  1  0
 21 23  1  0
 22 28  1  0
 22 32  2  0
 26 27  1  0
 28104  1  0
 28105  1  0
 29106  1  0
 29107  1  0
 33 34  1  0
 33 66  1  0
 33 70  2  0
 34 36  1  0
 34 59  1  0
 34108  1  6
 35 44  2  0
 35 45  1  0
 35 68  1  0
 36 56  1  0
 36109  1  0
 37 39  1  0
 37 47  1  0
 37 66  1  0
 37110  1  6
 38 43  2  0
 38 46  1  0
 38 47  1  0
 39 64  1  0
 39 67  2  0
 40 52  1  0
 40 53  2  0
 40 58  1  0
 41111  1  0
 41112  1  0
 41113  1  0
 42 43  1  0
 42 66  1  0
 42114  1  0
 42115  1  0
 43 44  1  0
 44116  1  0
 45 46  2  0
 45117  1  0
 46118  1  0
 47119  1  0
 47120  1  0
 48 41  1  0
 48 56  1  0
 48 65  1  0
 48121  1  1
 49 50  1  0
 49 53  1  0
 49 64  1  0
 49122  1  1
 50 51  1  0
 50123  1  0
 50124  1  0
 51 52  1  0
 51125  1  0
 51126  1  0
 52127  1  0
 52128  1  0
 53 54  1  0
 54 55  2  0
 54129  1  0
 55 57  1  0
 55130  1  0
 56 69  2  0
 57 58  2  0
 57131  1  0
 58132  1  0
 59 60  1  0
 59 61  1  0
 59 62  1  0
 60133  1  0
 60134  1  0
 60135  1  0
 61136  1  0
 61137  1  0
 61138  1  0
 62139  1  0
 62140  1  0
 62141  1  0
 63 65  1  0
 63142  1  0
 63143  1  0
 63144  1  0
 64145  1  0
 65146  1  0
 68 81  1  0
 71 73  2  0
 71 74  1  0
 71147  1  0
 72 74  2  0
 72 82  1  0
 72148  1  0
 73 75  1  0
 73 79  1  0
 74 83  1  0
 75 82  2  0
 75 84  1  0
 76 80  1  0
 76 81  1  0
 76 86  2  0
 77 78  1  0
 77 84  1  0
 77 87  2  0
 78149  1  0
 78150  1  0
 78151  1  0
 79 85  1  0
 79152  1  0
 79153  1  0
 80 83  1  0
 80154  1  0
 80155  1  0
 81156  1  0
 81157  1  0
 83158  1  0
 84159  1  0
 85160  1  0
M  ISO  4   1 100  68 101  81 101  85 100
M  END
$$$$
79
     RDKit          3D

153161  0  0  0  0  0  0  0  0999 V2000
  -30.7652  -14.3608   20.6636 C   0  0  0  0  0  0  0  0  0100  0  0
  -30.4392  -12.2669   19.3775 C   0  0  0  0  0  0  0  0  0101  0  0
  -29.4791  -12.5281   18.1977 C   0  0  0  0  0  0  0  0  0102  0  0
  -27.9985  -12.3963   18.6038 C   0  0  0  0  0  0  0  0  0103  0  0
  -27.6639  -13.2170   19.8820 C   0  0  2  0  0  0  0  0  0104  0  0
  -28.6795  -12.9602   21.0279 C   0  0  0  0  0  0  0  0  0105  0  0
  -25.2633  -13.8245   20.5754 C   0  0  0  0  0  0  0  0  0106  0  0
  -24.1645  -13.0409   20.9408 C   0  0  0  0  0  0  0  0  0107  0  0
  -24.6400  -11.7009   20.8697 C   0  0  0  0  0  0  0  0  0108  0  0
  -23.9005  -10.4085   21.0420 C   0  0  0  0  0  0  0  0  0109  0  0
  -24.3588   -9.4123   21.9123 C   0  0  0  0  0  0  0  0  0110  0  0
  -23.6296   -8.2350   22.0803 C   0  0  0  0  0  0  0  0  0111  0  0
  -22.4385   -8.0419   21.3657 C   0  0  0  0  0  0  0  0  0112  0  0
  -22.0103   -9.0167   20.4678 C   0  0  0  0  0  0  0  0  0113  0  0
  -22.7317  -10.1925   20.3102 C   0  0  0  0  0  0  0  0  0114  0  0
  -21.6857   -6.0709   22.5391 C   0  0  0  0  0  0  0  0  0115  0  0
  -21.4064   -6.5490   23.8264 C   0  0  0  0  0  0  0  0  0116  0  0
  -21.3635   -5.6677   24.9085 C   0  0  0  0  0  0  0  0  0117  0  0
  -21.5973   -4.3067   24.7088 C   0  0  0  0  0  0  0  0  0118  0  0
  -21.8700   -3.8284   23.4282 C   0  0  0  0  0  0  0  0  0119  0  0
  -21.9144   -4.7056   22.3460 C   0  0  0  0  0  0  0  0  0120  0  0
  -22.8194  -13.5263   21.1763 C   0  0  0  0  0  0  0  0  0121  0  0
  -22.1559   -4.2206   21.1063 F   0  0  0  0  0  0  0  0  0122  0  0
  -21.5628   -3.4510   25.7555 F   0  0  0  0  0  0  0  0  0123  0  0
  -30.0261  -13.1803   20.4553 N   0  0  0  0  0  0  0  0  0124  0  0
  -26.2911  -12.9356   20.3443 N   0  0  0  0  0  0  0  0  0125  0  0
  -25.9236  -11.6675   20.5847 N   0  0  0  0  0  0  0  0  0126  0  0
  -22.0708  -12.7905   22.0005 N   0  0  0  0  0  0  0  0  0127  0  0
  -25.4117  -15.1773   20.4097 N   0  0  0  0  0  0  0  0  0128  0  0
  -31.7916  -14.6724   20.0536 O   0  0  0  0  0  0  0  0  0129  0  0
  -21.6670   -6.9022   21.4423 O   0  0  0  0  0  0  0  0  0130  0  0
  -22.3946  -14.5564   20.6568 O   0  0  0  0  0  0  0  0  0131  0  0
  -24.6048  -31.8614   23.2223 C   0  0  0  0  0  0  0  0  0100  0  0
  -25.8822  -32.4841   23.8616 C   0  0  1  0  0  0  0  0  0101  0  0
  -27.2536  -27.5042   20.1156 C   0  0  0  0  0  0  0  0  0102  0  0
  -25.5726  -33.8762   24.2210 N   0  0  0  0  0  0  0  0  0103  0  0
  -23.4066  -30.4859   21.5461 C   0  0  2  0  0  0  0  0  0104  0  0
  -24.8467  -28.9636   20.1247 C   0  0  0  0  0  0  0  0  0105  0  0
  -22.7412  -29.4652   22.5052 C   0  0  0  0  0  0  0  0  0106  0  0
  -18.0167  -28.1302   22.8626 C   0  0  0  0  0  0  0  0  0107  0  0
  -24.1342  -36.7390   23.2568 C   0  0  0  0  0  0  0  0  0108  0  0
  -25.9141  -30.8882   21.3456 C   0  0  0  0  0  0  0  0  0109  0  0
  -25.9930  -29.5029   20.7208 C   0  0  0  0  0  0  0  0  0110  0  0
  -27.1758  -28.7612   20.7331 C   0  0  0  0  0  0  0  0  0111  0  0
  -26.1032  -26.9836   19.5230 C   0  0  0  0  0  0  0  0  0112  0  0
  -24.9097  -27.7011   19.5331 C   0  0  0  0  0  0  0  0  0113  0  0
  -23.5715  -29.7899   20.1582 C   0  0  0  0  0  0  0  0  0114  0  0
  -25.3990  -36.3212   24.0232 C   0  0  1  0  0  0  0  0  0115  0  0
  -20.5793  -28.3813   23.1004 C   0  0  2  0  0  0  0  0  0116  0  0
  -20.6548  -26.9392   22.5411 C   0  0  0  0  0  0  0  0  0117  0  0
  -19.5615  -26.6407   21.5143 C   0  0  0  0  0  0  0  0  0118  0  0
  -18.1797  -26.7818   22.1673 C   0  0  0  0  0  0  0  0  0119  0  0
  -19.1385  -28.8769   23.2988 C   0  0  0  0  0  0  0  0  0120  0  0
  -18.9183  -30.1286   23.8878 C   0  0  0  0  0  0  0  0  0121  0  0
  -17.6396  -30.6493   24.0352 C   0  0  0  0  0  0  0  0  0122  0  0
  -25.9153  -34.9582   23.4993 C   0  0  0  0  0  0  0  0  0123  0  0
  -16.5415  -29.9068   23.6254 C   0  0  0  0  0  0  0  0  0124  0  0
  -16.7331  -28.6521   23.0586 C   0  0  0  0  0  0  0  0  0125  0  0
  -26.4583  -31.6439   25.0683 C   0  0  0  0  0  0  0  0  0126  0  0
  -25.3807  -31.3179   26.1374 C   0  0  0  0  0  0  0  0  0127  0  0
  -27.0530  -30.3024   24.5680 C   0  0  0  0  0  0  0  0  0128  0  0
  -27.6014  -32.4281   25.7651 C   0  0  0  0  0  0  0  0  0129  0  0
  -27.5629  -37.2220   24.8621 C   0  0  0  0  0  0  0  0  0130  0  0
  -21.4133  -29.3375   22.3735 N   0  0  0  0  0  0  0  0  0131  0  0
  -26.4706  -37.3372   23.9061 N   0  0  0  0  0  0  0  0  0132  0  0
  -24.6674  -31.0544   22.1178 N   0  0  0  0  0  0  0  0  0133  0  0
  -23.4259  -28.8150   23.2971 O   0  0  0  0  0  0  0  0  0134  0  0
  -28.3948  -26.7345   20.0089 O   0  0  0  0  0  0  0  0  0135  0  0
  -26.5870  -34.9065   22.4671 O   0  0  0  0  0  0  0  0  0136  0  0
  -23.5365  -32.1254   23.7833 O   0  0  0  0  0  0  0  0  0137  0  0
  -29.4545  -18.0303   22.5221 C   0  0  0  0  0  0  0  0  0  0  0  0
  -31.7087  -17.2023   22.2581 C   0  0  0  0  0  0  0  0  0  0  0  0
  -29.9337  -19.0894   23.2930 C   0  0  0  0  0  0  0  0  0  0  0  0
  -30.3420  -17.0867   22.0047 C   0  0  0  0  0  0  0  0  0  0  0  0
  -32.1880  -18.2614   23.0289 C   0  0  0  0  0  0  0  0  0  0  0  0
  -31.3005  -19.2050   23.5464 C   0  0  0  0  0  0  0  0  0  0  0  0
  -28.9862  -20.0932   23.8423 C   0  0  0  0  0  0  0  0  0  0  0  0
  -27.1793  -22.6288   22.8767 C   0  0  0  0  0  0  0  0  0  0  0  0
  -26.8393  -21.2832   23.4810 C   0  0  0  0  0  0  0  0  0  0  0  0
  -26.7707  -23.8408   23.6898 C   0  0  0  0  0  0  0  0  0  1  0  0
  -29.8557  -16.0111   21.2209 N   0  0  0  0  0  0  0  0  0  0  0  0
  -27.8348  -20.3281   23.0950 N   0  0  0  0  0  0  0  0  0  0  0  0
  -29.2638  -20.6693   24.8909 O   0  0  0  0  0  0  0  0  0  0  0  0
  -27.7066  -22.7384   21.7701 O   0  0  0  0  0  0  0  0  0  0  0  0
  -33.5004  -18.3725   23.2723 F   0  0  0  0  0  0  0  0  0  0  0  0
  -31.7721  -20.2185   24.2860 F   0  0  0  0  0  0  0  0  0  0  0  0
  -31.4485  -12.4701   19.0860 H   0  0  0  0  0  0  0  0  0  0  0  0
  -30.3970  -11.2460   19.6950 H   0  0  0  0  0  0  0  0  0  0  0  0
  -29.6870  -11.8204   17.4226 H   0  0  0  0  0  0  0  0  0  0  0  0
  -29.6375  -13.5326   17.8649 H   0  0  0  0  0  0  0  0  0  0  0  0
  -27.7830  -11.3650   18.7904 H   0  0  0  0  0  0  0  0  0  0  0  0
  -27.4028  -12.7801   17.8021 H   0  0  0  0  0  0  0  0  0  0  0  0
  -27.7353  -14.2503   19.6136 H   0  0  0  0  0  0  0  0  0  0  0  0
  -28.5890  -11.9550   21.3832 H   0  0  0  0  0  0  0  0  0  0  0  0
  -28.5005  -13.6134   21.8562 H   0  0  0  0  0  0  0  0  0  0  0  0
  -25.2399   -9.5495   22.4318 H   0  0  0  0  0  0  0  0  0  0  0  0
  -23.9663   -7.5070   22.7297 H   0  0  0  0  0  0  0  0  0  0  0  0
  -21.1515   -8.8641   19.9162 H   0  0  0  0  0  0  0  0  0  0  0  0
  -22.4016  -10.9115   19.6476 H   0  0  0  0  0  0  0  0  0  0  0  0
  -21.2319   -7.5552   23.9750 H   0  0  0  0  0  0  0  0  0  0  0  0
  -21.1589   -6.0228   25.8556 H   0  0  0  0  0  0  0  0  0  0  0  0
  -22.0396   -2.8212   23.2809 H   0  0  0  0  0  0  0  0  0  0  0  0
  -22.4401  -11.9703   22.4008 H   0  0  0  0  0  0  0  0  0  0  0  0
  -21.1493  -13.0679   22.2082 H   0  0  0  0  0  0  0  0  0  0  0  0
  -24.6538  -15.7807   20.5848 H   0  0  0  0  0  0  0  0  0  0  0  0
  -26.2762  -15.5453   20.1156 H   0  0  0  0  0  0  0  0  0  0  0  0
  -26.6778  -32.4663   23.1464 H   0  0  0  0  0  0  0  0  0  0  0  0
  -25.0747  -34.0282   25.0566 H   0  0  0  0  0  0  0  0  0  0  0  0
  -22.7881  -31.3489   21.4131 H   0  0  0  0  0  0  0  0  0  0  0  0
  -23.3854  -35.9823   23.3648 H   0  0  0  0  0  0  0  0  0  0  0  0
  -24.3696  -36.8624   22.2204 H   0  0  0  0  0  0  0  0  0  0  0  0
  -23.7669  -37.6632   23.6516 H   0  0  0  0  0  0  0  0  0  0  0  0
  -25.9445  -31.6237   20.5691 H   0  0  0  0  0  0  0  0  0  0  0  0
  -26.7436  -31.0079   22.0108 H   0  0  0  0  0  0  0  0  0  0  0  0
  -28.0090  -29.1452   21.2057 H   0  0  0  0  0  0  0  0  0  0  0  0
  -26.1369  -26.0560   19.0719 H   0  0  0  0  0  0  0  0  0  0  0  0
  -24.0652  -27.2961   19.0997 H   0  0  0  0  0  0  0  0  0  0  0  0
  -23.6156  -30.5365   19.3930 H   0  0  0  0  0  0  0  0  0  0  0  0
  -22.7355  -29.1425   19.9945 H   0  0  0  0  0  0  0  0  0  0  0  0
  -25.1353  -36.2335   25.0565 H   0  0  0  0  0  0  0  0  0  0  0  0
  -21.0070  -28.3206   24.0793 H   0  0  0  0  0  0  0  0  0  0  0  0
  -20.5555  -26.2518   23.3550 H   0  0  0  0  0  0  0  0  0  0  0  0
  -21.5974  -26.8362   22.0454 H   0  0  0  0  0  0  0  0  0  0  0  0
  -19.6810  -25.6422   21.1488 H   0  0  0  0  0  0  0  0  0  0  0  0
  -19.6406  -27.3343   20.7034 H   0  0  0  0  0  0  0  0  0  0  0  0
  -17.4282  -26.6888   21.4113 H   0  0  0  0  0  0  0  0  0  0  0  0
  -18.0803  -26.0130   22.9049 H   0  0  0  0  0  0  0  0  0  0  0  0
  -19.7265  -30.6774   24.2204 H   0  0  0  0  0  0  0  0  0  0  0  0
  -17.5064  -31.5856   24.4483 H   0  0  0  0  0  0  0  0  0  0  0  0
  -15.5878  -30.2839   23.7407 H   0  0  0  0  0  0  0  0  0  0  0  0
  -15.9120  -28.0941   22.7766 H   0  0  0  0  0  0  0  0  0  0  0  0
  -24.5787  -30.7757   25.6817 H   0  0  0  0  0  0  0  0  0  0  0  0
  -25.0041  -32.2289   26.5536 H   0  0  0  0  0  0  0  0  0  0  0  0
  -25.8166  -30.7245   26.9138 H   0  0  0  0  0  0  0  0  0  0  0  0
  -26.2892  -29.7335   24.0803 H   0  0  0  0  0  0  0  0  0  0  0  0
  -27.4336  -29.7484   25.4006 H   0  0  0  0  0  0  0  0  0  0  0  0
  -27.8466  -30.4994   23.8779 H   0  0  0  0  0  0  0  0  0  0  0  0
  -27.2251  -33.3632   26.1242 H   0  0  0  0  0  0  0  0  0  0  0  0
  -28.3902  -32.6065   25.0645 H   0  0  0  0  0  0  0  0  0  0  0  0
  -27.9772  -31.8555   26.5872 H   0  0  0  0  0  0  0  0  0  0  0  0
  -28.2744  -38.0016   24.6863 H   0  0  0  0  0  0  0  0  0  0  0  0
  -28.0396  -36.2711   24.7461 H   0  0  0  0  0  0  0  0  0  0  0  0
  -27.1773  -37.3087   25.8564 H   0  0  0  0  0  0  0  0  0  0  0  0
  -20.9627  -29.9365   21.7352 H   0  0  0  0  0  0  0  0  0  0  0  0
  -26.0447  -38.2561   24.0273 H   0  0  0  0  0  0  0  0  0  0  0  0
  -28.4433  -17.9448   22.3345 H   0  0  0  0  0  0  0  0  0  0  0  0
  -32.3653  -16.5042   21.8753 H   0  0  0  0  0  0  0  0  0  0  0  0
  -25.8811  -20.9640   23.1275 H   0  0  0  0  0  0  0  0  0  0  0  0
  -26.8137  -21.3644   24.5476 H   0  0  0  0  0  0  0  0  0  0  0  0
  -27.3051  -23.9555   24.6097 H   0  0  0  0  0  0  0  0  0  0  0  0
  -25.7756  -23.9393   24.0705 H   0  0  0  0  0  0  0  0  0  0  0  0
  -28.9262  -16.1042   20.9101 H   0  0  0  0  0  0  0  0  0  0  0  0
  -27.6991  -19.8156   22.2655 H   0  0  0  0  0  0  0  0  0  0  0  0
  1 25  1  0
  1 30  2  0
  1 81  1  0
  2  3  1  0
  2 25  1  0
  2 87  1  0
  2 88  1  0
  3  4  1  0
  3 89  1  0
  3 90  1  0
  4  5  1  0
  4 91  1  0
  4 92  1  0
  5  6  1  0
  5 26  1  0
  5 93  1  6
  6 25  1  0
  6 94  1  0
  6 95  1  0
  7  8  2  0
  7 26  1  0
  7 29  1  0
  8  9  1  0
  8 22  1  0
  9 10  1  0
  9 27  2  0
 10 11  2  0
 10 15  1  0
 11 12  1  0
 11 96  1  0
 12 13  2  0
 12 97  1  0
 13 14  1  0
 13 31  1  0
 14 15  2  0
 14 98  1  0
 15 99  1  0
 16 17  2  0
 16 21  1  0
 16 31  1  0
 17 18  1  0
 17100  1  0
 18 19  2  0
 18101  1  0
 19 20  1  0
 19 24  1  0
 20 21  2  0
 20102  1  0
 21 23  1  0
 22 28  1  0
 22 32  2  0
 26 27  1  0
 28103  1  0
 28104  1  0
 29105  1  0
 29106  1  0
 33 34  1  0
 33 66  1  0
 33 70  2  0
 34 36  1  0
 34 59  1  0
 34107  1  6
 35 44  2  0
 35 45  1  0
 35 68  1  0
 36 56  1  0
 36108  1  0
 37 39  1  0
 37 47  1  0
 37 66  1  0
 37109  1  6
 38 43  2  0
 38 46  1  0
 38 47  1  0
 39 64  1  0
 39 67  2  0
 40 52  1  0
 40 53  2  0
 40 58  1  0
 41110  1  0
 41111  1  0
 41112  1  0
 42 43  1  0
 42 66  1  0
 42113  1  0
 42114  1  0
 43 44  1  0
 44115  1  0
 45 46  2  0
 45116  1  0
 46117  1  0
 47118  1  0
 47119  1  0
 48 41  1  0
 48 56  1  0
 48 65  1  0
 48120  1  1
 49 50  1  0
 49 53  1  0
 49 64  1  0
 49121  1  1
 50 51  1  0
 50122  1  0
 50123  1  0
 51 52  1  0
 51124  1  0
 51125  1  0
 52126  1  0
 52127  1  0
 53 54  1  0
 54 55  2  0
 54128  1  0
 55 57  1  0
 55129  1  0
 56 69  2  0
 57 58  2  0
 57130  1  0
 58131  1  0
 59 60  1  0
 59 61  1  0
 59 62  1  0
 60132  1  0
 60133  1  0
 60134  1  0
 61135  1  0
 61136  1  0
 61137  1  0
 62138  1  0
 62139  1  0
 62140  1  0
 63 65  1  0
 63141  1  0
 63142  1  0
 63143  1  0
 64144  1  0
 65145  1  0
 68 80  1  0
 71 73  2  0
 71 74  1  0
 71146  1  0
 72 74  2  0
 72 75  1  0
 72147  1  0
 73 76  1  0
 73 77  1  0
 74 81  1  0
 75 76  2  0
 75 85  1  0
 76 86  1  0
 77 82  1  0
 77 83  2  0
 78 79  1  0
 78 80  1  0
 78 84  2  0
 79 82  1  0
 79148  1  0
 79149  1  0
 80150  1  0
 80151  1  0
 81152  1  0
 82153  1  0
M  ISO  4   1 100  68 101  80 101  81 100
M  END
$$$$
80
     RDKit          3D

157165  0  0  0  0  0  0  0  0999 V2000
  -30.7652  -14.3608   20.6636 C   0  0  0  0  0  0  0  0  0100  0  0
  -30.4392  -12.2669   19.3775 C   0  0  0  0  0  0  0  0  0101  0  0
  -29.4791  -12.5281   18.1977 C   0  0  0  0  0  0  0  0  0102  0  0
  -27.9985  -12.3963   18.6038 C   0  0  0  0  0  0  0  0  0103  0  0
  -27.6639  -13.2170   19.8820 C   0  0  2  0  0  0  0  0  0104  0  0
  -28.6795  -12.9602   21.0279 C   0  0  0  0  0  0  0  0  0105  0  0
  -25.2633  -13.8245   20.5754 C   0  0  0  0  0  0  0  0  0106  0  0
  -24.1645  -13.0409   20.9408 C   0  0  0  0  0  0  0  0  0107  0  0
  -24.6400  -11.7009   20.8697 C   0  0  0  0  0  0  0  0  0108  0  0
  -23.9005  -10.4085   21.0420 C   0  0  0  0  0  0  0  0  0109  0  0
  -24.3588   -9.4123   21.9123 C   0  0  0  0  0  0  0  0  0110  0  0
  -23.6296   -8.2350   22.0803 C   0  0  0  0  0  0  0  0  0111  0  0
  -22.4385   -8.0419   21.3657 C   0  0  0  0  0  0  0  0  0112  0  0
  -22.0103   -9.0167   20.4678 C   0  0  0  0  0  0  0  0  0113  0  0
  -22.7317  -10.1925   20.3102 C   0  0  0  0  0  0  0  0  0114  0  0
  -21.6857   -6.0709   22.5391 C   0  0  0  0  0  0  0  0  0115  0  0
  -21.4064   -6.5490   23.8264 C   0  0  0  0  0  0  0  0  0116  0  0
  -21.3635   -5.6677   24.9085 C   0  0  0  0  0  0  0  0  0117  0  0
  -21.5973   -4.3067   24.7088 C   0  0  0  0  0  0  0  0  0118  0  0
  -21.8700   -3.8284   23.4282 C   0  0  0  0  0  0  0  0  0119  0  0
  -21.9144   -4.7056   22.3460 C   0  0  0  0  0  0  0  0  0120  0  0
  -22.8194  -13.5263   21.1763 C   0  0  0  0  0  0  0  0  0121  0  0
  -22.1559   -4.2206   21.1063 F   0  0  0  0  0  0  0  0  0122  0  0
  -21.5628   -3.4510   25.7555 F   0  0  0  0  0  0  0  0  0123  0  0
  -30.0261  -13.1803   20.4553 N   0  0  0  0  0  0  0  0  0124  0  0
  -26.2911  -12.9356   20.3443 N   0  0  0  0  0  0  0  0  0125  0  0
  -25.9236  -11.6675   20.5847 N   0  0  0  0  0  0  0  0  0126  0  0
  -22.0708  -12.7905   22.0005 N   0  0  0  0  0  0  0  0  0127  0  0
  -25.4117  -15.1773   20.4097 N   0  0  0  0  0  0  0  0  0128  0  0
  -31.7916  -14.6724   20.0536 O   0  0  0  0  0  0  0  0  0129  0  0
  -21.6670   -6.9022   21.4423 O   0  0  0  0  0  0  0  0  0130  0  0
  -22.3946  -14.5564   20.6568 O   0  0  0  0  0  0  0  0  0131  0  0
  -24.6048  -31.8614   23.2223 C   0  0  0  0  0  0  0  0  0100  0  0
  -25.8822  -32.4841   23.8616 C   0  0  1  0  0  0  0  0  0101  0  0
  -27.2536  -27.5042   20.1156 C   0  0  0  0  0  0  0  0  0102  0  0
  -25.5726  -33.8762   24.2210 N   0  0  0  0  0  0  0  0  0103  0  0
  -23.4066  -30.4859   21.5461 C   0  0  2  0  0  0  0  0  0104  0  0
  -24.8467  -28.9636   20.1247 C   0  0  0  0  0  0  0  0  0105  0  0
  -22.7412  -29.4652   22.5052 C   0  0  0  0  0  0  0  0  0106  0  0
  -18.0167  -28.1302   22.8626 C   0  0  0  0  0  0  0  0  0107  0  0
  -24.1342  -36.7390   23.2568 C   0  0  0  0  0  0  0  0  0108  0  0
  -25.9141  -30.8882   21.3456 C   0  0  0  0  0  0  0  0  0109  0  0
  -25.9930  -29.5029   20.7208 C   0  0  0  0  0  0  0  0  0110  0  0
  -27.1758  -28.7612   20.7331 C   0  0  0  0  0  0  0  0  0111  0  0
  -26.1032  -26.9836   19.5230 C   0  0  0  0  0  0  0  0  0112  0  0
  -24.9097  -27.7011   19.5331 C   0  0  0  0  0  0  0  0  0113  0  0
  -23.5715  -29.7899   20.1582 C   0  0  0  0  0  0  0  0  0114  0  0
  -25.3990  -36.3212   24.0232 C   0  0  1  0  0  0  0  0  0115  0  0
  -20.5793  -28.3813   23.1004 C   0  0  2  0  0  0  0  0  0116  0  0
  -20.6548  -26.9392   22.5411 C   0  0  0  0  0  0  0  0  0117  0  0
  -19.5615  -26.6407   21.5143 C   0  0  0  0  0  0  0  0  0118  0  0
  -18.1797  -26.7818   22.1673 C   0  0  0  0  0  0  0  0  0119  0  0
  -19.1385  -28.8769   23.2988 C   0  0  0  0  0  0  0  0  0120  0  0
  -18.9183  -30.1286   23.8878 C   0  0  0  0  0  0  0  0  0121  0  0
  -17.6396  -30.6493   24.0352 C   0  0  0  0  0  0  0  0  0122  0  0
  -25.9153  -34.9582   23.4993 C   0  0  0  0  0  0  0  0  0123  0  0
  -16.5415  -29.9068   23.6254 C   0  0  0  0  0  0  0  0  0124  0  0
  -16.7331  -28.6521   23.0586 C   0  0  0  0  0  0  0  0  0125  0  0
  -26.4583  -31.6439   25.0683 C   0  0  0  0  0  0  0  0  0126  0  0
  -25.3807  -31.3179   26.1374 C   0  0  0  0  0  0  0  0  0127  0  0
  -27.0530  -30.3024   24.5680 C   0  0  0  0  0  0  0  0  0128  0  0
  -27.6014  -32.4281   25.7651 C   0  0  0  0  0  0  0  0  0129  0  0
  -27.5629  -37.2220   24.8621 C   0  0  0  0  0  0  0  0  0130  0  0
  -21.4133  -29.3375   22.3735 N   0  0  0  0  0  0  0  0  0131  0  0
  -26.4706  -37.3372   23.9061 N   0  0  0  0  0  0  0  0  0132  0  0
  -24.6674  -31.0544   22.1178 N   0  0  0  0  0  0  0  0  0133  0  0
  -23.4259  -28.8150   23.2971 O   0  0  0  0  0  0  0  0  0134  0  0
  -28.3948  -26.7345   20.0089 O   0  0  0  0  0  0  0  0  0135  0  0
  -26.5870  -34.9065   22.4671 O   0  0  0  0  0  0  0  0  0136  0  0
  -23.5365  -32.1254   23.7833 O   0  0  0  0  0  0  0  0  0137  0  0
  -27.5389  -20.5092   13.3496 C   0  0  0  0  0  0  0  0  0  0  0  0
  -27.4285  -20.0192   14.6461 C   0  0  0  0  0  0  0  0  0  0  0  0
  -27.6277  -21.8802   13.1357 C   0  0  0  0  0  0  0  0  0  0  0  0
  -27.4117  -20.9345   15.6861 C   0  0  0  0  0  0  0  0  0  0  0  0
  -27.6018  -22.7123   14.2434 C   0  0  0  0  0  0  0  0  0  0  0  0
  -27.7886  -26.4375   14.5218 C   0  0  0  0  0  0  0  0  0  0  0  0
  -27.7841  -27.6174   15.4741 C   0  0  0  0  0  0  0  0  0  0  0  0
  -27.1711  -21.7143   10.6884 C   0  0  0  0  0  0  0  0  0  0  0  0
  -27.6757  -25.0527   15.1050 C   0  0  0  0  0  0  0  0  0  0  0  0
  -27.6627  -27.3446   16.9519 C   0  0  0  0  0  0  0  0  0  1  0  0
  -27.4958  -22.2732   15.5176 N   0  0  0  0  0  0  0  0  0  0  0  0
  -27.7374  -22.3778   11.8237 N   0  0  0  0  0  0  0  0  0  0  0  0
  -27.3005  -20.4251   17.0037 N   0  0  0  0  0  0  0  0  0  0  0  0
  -27.6911  -24.0809   14.0396 N   0  0  0  0  0  0  0  0  0  0  0  0
  -27.8859  -26.6871   13.3268 O   0  0  0  0  0  0  0  0  0  0  0  0
  -27.8777  -28.7364   14.9862 O   0  0  0  0  0  0  0  0  0  0  0  0
  -31.4485  -12.4701   19.0860 H   0  0  0  0  0  0  0  0  0  0  0  0
  -30.3970  -11.2460   19.6950 H   0  0  0  0  0  0  0  0  0  0  0  0
  -29.6870  -11.8204   17.4226 H   0  0  0  0  0  0  0  0  0  0  0  0
  -29.6375  -13.5326   17.8649 H   0  0  0  0  0  0  0  0  0  0  0  0
  -27.7830  -11.3650   18.7904 H   0  0  0  0  0  0  0  0  0  0  0  0
  -27.4028  -12.7801   17.8021 H   0  0  0  0  0  0  0  0  0  0  0  0
  -27.7353  -14.2503   19.6136 H   0  0  0  0  0  0  0  0  0  0  0  0
  -28.5890  -11.9550   21.3832 H   0  0  0  0  0  0  0  0  0  0  0  0
  -28.5005  -13.6134   21.8562 H   0  0  0  0  0  0  0  0  0  0  0  0
  -25.2399   -9.5495   22.4318 H   0  0  0  0  0  0  0  0  0  0  0  0
  -23.9663   -7.5070   22.7297 H   0  0  0  0  0  0  0  0  0  0  0  0
  -21.1515   -8.8641   19.9162 H   0  0  0  0  0  0  0  0  0  0  0  0
  -22.4016  -10.9115   19.6476 H   0  0  0  0  0  0  0  0  0  0  0  0
  -21.2319   -7.5552   23.9750 H   0  0  0  0  0  0  0  0  0  0  0  0
  -21.1589   -6.0228   25.8556 H   0  0  0  0  0  0  0  0  0  0  0  0
  -22.0396   -2.8212   23.2809 H   0  0  0  0  0  0  0  0  0  0  0  0
  -22.4401  -11.9703   22.4008 H   0  0  0  0  0  0  0  0  0  0  0  0
  -21.1493  -13.0679   22.2082 H   0  0  0  0  0  0  0  0  0  0  0  0
  -24.6538  -15.7807   20.5848 H   0  0  0  0  0  0  0  0  0  0  0  0
  -26.2762  -15.5453   20.1156 H   0  0  0  0  0  0  0  0  0  0  0  0
  -26.6778  -32.4663   23.1464 H   0  0  0  0  0  0  0  0  0  0  0  0
  -25.0747  -34.0282   25.0566 H   0  0  0  0  0  0  0  0  0  0  0  0
  -22.7881  -31.3489   21.4131 H   0  0  0  0  0  0  0  0  0  0  0  0
  -23.3854  -35.9823   23.3648 H   0  0  0  0  0  0  0  0  0  0  0  0
  -24.3696  -36.8624   22.2204 H   0  0  0  0  0  0  0  0  0  0  0  0
  -23.7669  -37.6632   23.6516 H   0  0  0  0  0  0  0  0  0  0  0  0
  -25.9445  -31.6237   20.5691 H   0  0  0  0  0  0  0  0  0  0  0  0
  -26.7436  -31.0079   22.0108 H   0  0  0  0  0  0  0  0  0  0  0  0
  -28.0090  -29.1452   21.2057 H   0  0  0  0  0  0  0  0  0  0  0  0
  -26.1369  -26.0560   19.0719 H   0  0  0  0  0  0  0  0  0  0  0  0
  -24.0652  -27.2961   19.0997 H   0  0  0  0  0  0  0  0  0  0  0  0
  -23.6156  -30.5365   19.3930 H   0  0  0  0  0  0  0  0  0  0  0  0
  -22.7355  -29.1425   19.9945 H   0  0  0  0  0  0  0  0  0  0  0  0
  -25.1353  -36.2335   25.0565 H   0  0  0  0  0  0  0  0  0  0  0  0
  -21.0070  -28.3206   24.0793 H   0  0  0  0  0  0  0  0  0  0  0  0
  -20.5555  -26.2518   23.3550 H   0  0  0  0  0  0  0  0  0  0  0  0
  -21.5974  -26.8362   22.0454 H   0  0  0  0  0  0  0  0  0  0  0  0
  -19.6810  -25.6422   21.1488 H   0  0  0  0  0  0  0  0  0  0  0  0
  -19.6406  -27.3343   20.7034 H   0  0  0  0  0  0  0  0  0  0  0  0
  -17.4282  -26.6888   21.4113 H   0  0  0  0  0  0  0  0  0  0  0  0
  -18.0803  -26.0130   22.9049 H   0  0  0  0  0  0  0  0  0  0  0  0
  -19.7265  -30.6774   24.2204 H   0  0  0  0  0  0  0  0  0  0  0  0
  -17.5064  -31.5856   24.4483 H   0  0  0  0  0  0  0  0  0  0  0  0
  -15.5878  -30.2839   23.7407 H   0  0  0  0  0  0  0  0  0  0  0  0
  -15.9120  -28.0941   22.7766 H   0  0  0  0  0  0  0  0  0  0  0  0
  -24.5787  -30.7757   25.6817 H   0  0  0  0  0  0  0  0  0  0  0  0
  -25.0041  -32.2289   26.5536 H   0  0  0  0  0  0  0  0  0  0  0  0
  -25.8166  -30.7245   26.9138 H   0  0  0  0  0  0  0  0  0  0  0  0
  -26.2892  -29.7335   24.0803 H   0  0  0  0  0  0  0  0  0  0  0  0
  -27.4336  -29.7484   25.4006 H   0  0  0  0  0  0  0  0  0  0  0  0
  -27.8466  -30.4994   23.8779 H   0  0  0  0  0  0  0  0  0  0  0  0
  -27.2251  -33.3632   26.1242 H   0  0  0  0  0  0  0  0  0  0  0  0
  -28.3902  -32.6065   25.0645 H   0  0  0  0  0  0  0  0  0  0  0  0
  -27.9772  -31.8555   26.5872 H   0  0  0  0  0  0  0  0  0  0  0  0
  -28.2744  -38.0016   24.6863 H   0  0  0  0  0  0  0  0  0  0  0  0
  -28.0396  -36.2711   24.7461 H   0  0  0  0  0  0  0  0  0  0  0  0
  -27.1773  -37.3087   25.8564 H   0  0  0  0  0  0  0  0  0  0  0  0
  -20.9627  -29.9365   21.7352 H   0  0  0  0  0  0  0  0  0  0  0  0
  -26.0447  -38.2561   24.0273 H   0  0  0  0  0  0  0  0  0  0  0  0
  -27.5549  -19.8579   12.5492 H   0  0  0  0  0  0  0  0  0  0  0  0
  -27.3612  -19.0056   14.8280 H   0  0  0  0  0  0  0  0  0  0  0  0
  -27.3828  -22.2777    9.8037 H   0  0  0  0  0  0  0  0  0  0  0  0
  -26.1117  -21.6331   10.8145 H   0  0  0  0  0  0  0  0  0  0  0  0
  -27.5956  -20.7362   10.5985 H   0  0  0  0  0  0  0  0  0  0  0  0
  -26.7594  -24.9691   15.6511 H   0  0  0  0  0  0  0  0  0  0  0  0
  -28.5001  -24.8741   15.7633 H   0  0  0  0  0  0  0  0  0  0  0  0
  -27.0074  -26.5060   16.8411 H   0  0  0  0  0  0  0  0  0  0  0  0
  -28.0405  -28.3327   17.1127 H   0  0  0  0  0  0  0  0  0  0  0  0
  -28.2258  -23.2205   11.6801 H   0  0  0  0  0  0  0  0  0  0  0  0
  -26.6695  -20.9242   17.5711 H   0  0  0  0  0  0  0  0  0  0  0  0
  -27.7695  -24.4080   13.1144 H   0  0  0  0  0  0  0  0  0  0  0  0
  1 25  1  0
  1 30  2  0
  1 83  1  0
  2  3  1  0
  2 25  1  0
  2 87  1  0
  2 88  1  0
  3  4  1  0
  3 89  1  0
  3 90  1  0
  4  5  1  0
  4 91  1  0
  4 92  1  0
  5  6  1  0
  5 26  1  0
  5 93  1  6
  6 25  1  0
  6 94  1  0
  6 95  1  0
  7  8  2  0
  7 26  1  0
  7 29  1  0
  8  9  1  0
  8 22  1  0
  9 10  1  0
  9 27  2  0
 10 11  2  0
 10 15  1  0
 11 12  1  0
 11 96  1  0
 12 13  2  0
 12 97  1  0
 13 14  1  0
 13 31  1  0
 14 15  2  0
 14 98  1  0
 15 99  1  0
 16 17  2  0
 16 21  1  0
 16 31  1  0
 17 18  1  0
 17100  1  0
 18 19  2  0
 18101  1  0
 19 20  1  0
 19 24  1  0
 20 21  2  0
 20102  1  0
 21 23  1  0
 22 28  1  0
 22 32  2  0
 26 27  1  0
 28103  1  0
 28104  1  0
 29105  1  0
 29106  1  0
 33 34  1  0
 33 66  1  0
 33 70  2  0
 34 36  1  0
 34 59  1  0
 34107  1  6
 35 44  2  0
 35 45  1  0
 35 68  1  0
 36 56  1  0
 36108  1  0
 37 39  1  0
 37 47  1  0
 37 66  1  0
 37109  1  6
 38 43  2  0
 38 46  1  0
 38 47  1  0
 39 64  1  0
 39 67  2  0
 40 52  1  0
 40 53  2  0
 40 58  1  0
 41110  1  0
 41111  1  0
 41112  1  0
 42 43  1  0
 42 66  1  0
 42113  1  0
 42114  1  0
 43 44  1  0
 44115  1  0
 45 46  2  0
 45116  1  0
 46117  1  0
 47118  1  0
 47119  1  0
 48 41  1  0
 48 56  1  0
 48 65  1  0
 48120  1  1
 49 50  1  0
 49 53  1  0
 49 64  1  0
 49121  1  1
 50 51  1  0
 50122  1  0
 50123  1  0
 51 52  1  0
 51124  1  0
 51125  1  0
 52126  1  0
 52127  1  0
 53 54  1  0
 54 55  2  0
 54128  1  0
 55 57  1  0
 55129  1  0
 56 69  2  0
 57 58  2  0
 57130  1  0
 58131  1  0
 59 60  1  0
 59 61  1  0
 59 62  1  0
 60132  1  0
 60133  1  0
 60134  1  0
 61135  1  0
 61136  1  0
 61137  1  0
 62138  1  0
 62139  1  0
 62140  1  0
 63 65  1  0
 63141  1  0
 63142  1  0
 63143  1  0
 64144  1  0
 65145  1  0
 68 80  1  0
 71 72  2  0
 71 73  1  0
 71146  1  0
 72 74  1  0
 72147  1  0
 73 75  2  0
 73 82  1  0
 74 81  2  0
 74 83  1  0
 75 81  1  0
 75 84  1  0
 76 77  1  0
 76 79  1  0
 76 85  2  0
 77 80  1  0
 77 86  2  0
 78 82  1  0
 78148  1  0
 78149  1  0
 78150  1  0
 79 84  1  0
 79151  1  0
 79152  1  0
 80153  1  0
 80154  1  0
 82155  1  0
 83156  1  0
 84157  1  0
M  ISO  4   1 100  68 101  80 101  83 100
M  END
$$$$
81
     RDKit          3D

160168  0  0  0  0  0  0  0  0999 V2000
  -30.7652  -14.3608   20.6636 C   0  0  0  0  0  0  0  0  0100  0  0
  -30.4392  -12.2669   19.3775 C   0  0  0  0  0  0  0  0  0101  0  0
  -29.4791  -12.5281   18.1977 C   0  0  0  0  0  0  0  0  0102  0  0
  -27.9985  -12.3963   18.6038 C   0  0  0  0  0  0  0  0  0103  0  0
  -27.6639  -13.2170   19.8820 C   0  0  2  0  0  0  0  0  0104  0  0
  -28.6795  -12.9602   21.0279 C   0  0  0  0  0  0  0  0  0105  0  0
  -25.2633  -13.8245   20.5754 C   0  0  0  0  0  0  0  0  0106  0  0
  -24.1645  -13.0409   20.9408 C   0  0  0  0  0  0  0  0  0107  0  0
  -24.6400  -11.7009   20.8697 C   0  0  0  0  0  0  0  0  0108  0  0
  -23.9005  -10.4085   21.0420 C   0  0  0  0  0  0  0  0  0109  0  0
  -24.3588   -9.4123   21.9123 C   0  0  0  0  0  0  0  0  0110  0  0
  -23.6296   -8.2350   22.0803 C   0  0  0  0  0  0  0  0  0111  0  0
  -22.4385   -8.0419   21.3657 C   0  0  0  0  0  0  0  0  0112  0  0
  -22.0103   -9.0167   20.4678 C   0  0  0  0  0  0  0  0  0113  0  0
  -22.7317  -10.1925   20.3102 C   0  0  0  0  0  0  0  0  0114  0  0
  -21.6857   -6.0709   22.5391 C   0  0  0  0  0  0  0  0  0115  0  0
  -21.4064   -6.5490   23.8264 C   0  0  0  0  0  0  0  0  0116  0  0
  -21.3635   -5.6677   24.9085 C   0  0  0  0  0  0  0  0  0117  0  0
  -21.5973   -4.3067   24.7088 C   0  0  0  0  0  0  0  0  0118  0  0
  -21.8700   -3.8284   23.4282 C   0  0  0  0  0  0  0  0  0119  0  0
  -21.9144   -4.7056   22.3460 C   0  0  0  0  0  0  0  0  0120  0  0
  -22.8194  -13.5263   21.1763 C   0  0  0  0  0  0  0  0  0121  0  0
  -22.1559   -4.2206   21.1063 F   0  0  0  0  0  0  0  0  0122  0  0
  -21.5628   -3.4510   25.7555 F   0  0  0  0  0  0  0  0  0123  0  0
  -30.0261  -13.1803   20.4553 N   0  0  0  0  0  0  0  0  0124  0  0
  -26.2911  -12.9356   20.3443 N   0  0  0  0  0  0  0  0  0125  0  0
  -25.9236  -11.6675   20.5847 N   0  0  0  0  0  0  0  0  0126  0  0
  -22.0708  -12.7905   22.0005 N   0  0  0  0  0  0  0  0  0127  0  0
  -25.4117  -15.1773   20.4097 N   0  0  0  0  0  0  0  0  0128  0  0
  -31.7916  -14.6724   20.0536 O   0  0  0  0  0  0  0  0  0129  0  0
  -21.6670   -6.9022   21.4423 O   0  0  0  0  0  0  0  0  0130  0  0
  -22.3946  -14.5564   20.6568 O   0  0  0  0  0  0  0  0  0131  0  0
  -24.6048  -31.8614   23.2223 C   0  0  0  0  0  0  0  0  0100  0  0
  -25.8822  -32.4841   23.8616 C   0  0  1  0  0  0  0  0  0101  0  0
  -27.2536  -27.5042   20.1156 C   0  0  0  0  0  0  0  0  0102  0  0
  -25.5726  -33.8762   24.2210 N   0  0  0  0  0  0  0  0  0103  0  0
  -23.4066  -30.4859   21.5461 C   0  0  2  0  0  0  0  0  0104  0  0
  -24.8467  -28.9636   20.1247 C   0  0  0  0  0  0  0  0  0105  0  0
  -22.7412  -29.4652   22.5052 C   0  0  0  0  0  0  0  0  0106  0  0
  -18.0167  -28.1302   22.8626 C   0  0  0  0  0  0  0  0  0107  0  0
  -24.1342  -36.7390   23.2568 C   0  0  0  0  0  0  0  0  0108  0  0
  -25.9141  -30.8882   21.3456 C   0  0  0  0  0  0  0  0  0109  0  0
  -25.9930  -29.5029   20.7208 C   0  0  0  0  0  0  0  0  0110  0  0
  -27.1758  -28.7612   20.7331 C   0  0  0  0  0  0  0  0  0111  0  0
  -26.1032  -26.9836   19.5230 C   0  0  0  0  0  0  0  0  0112  0  0
  -24.9097  -27.7011   19.5331 C   0  0  0  0  0  0  0  0  0113  0  0
  -23.5715  -29.7899   20.1582 C   0  0  0  0  0  0  0  0  0114  0  0
  -25.3990  -36.3212   24.0232 C   0  0  1  0  0  0  0  0  0115  0  0
  -20.5793  -28.3813   23.1004 C   0  0  2  0  0  0  0  0  0116  0  0
  -20.6548  -26.9392   22.5411 C   0  0  0  0  0  0  0  0  0117  0  0
  -19.5615  -26.6407   21.5143 C   0  0  0  0  0  0  0  0  0118  0  0
  -18.1797  -26.7818   22.1673 C   0  0  0  0  0  0  0  0  0119  0  0
  -19.1385  -28.8769   23.2988 C   0  0  0  0  0  0  0  0  0120  0  0
  -18.9183  -30.1286   23.8878 C   0  0  0  0  0  0  0  0  0121  0  0
  -17.6396  -30.6493   24.0352 C   0  0  0  0  0  0  0  0  0122  0  0
  -25.9153  -34.9582   23.4993 C   0  0  0  0  0  0  0  0  0123  0  0
  -16.5415  -29.9068   23.6254 C   0  0  0  0  0  0  0  0  0124  0  0
  -16.7331  -28.6521   23.0586 C   0  0  0  0  0  0  0  0  0125  0  0
  -26.4583  -31.6439   25.0683 C   0  0  0  0  0  0  0  0  0126  0  0
  -25.3807  -31.3179   26.1374 C   0  0  0  0  0  0  0  0  0127  0  0
  -27.0530  -30.3024   24.5680 C   0  0  0  0  0  0  0  0  0128  0  0
  -27.6014  -32.4281   25.7651 C   0  0  0  0  0  0  0  0  0129  0  0
  -27.5629  -37.2220   24.8621 C   0  0  0  0  0  0  0  0  0130  0  0
  -21.4133  -29.3375   22.3735 N   0  0  0  0  0  0  0  0  0131  0  0
  -26.4706  -37.3372   23.9061 N   0  0  0  0  0  0  0  0  0132  0  0
  -24.6674  -31.0544   22.1178 N   0  0  0  0  0  0  0  0  0133  0  0
  -23.4259  -28.8150   23.2971 O   0  0  0  0  0  0  0  0  0134  0  0
  -28.3948  -26.7345   20.0089 O   0  0  0  0  0  0  0  0  0135  0  0
  -26.5870  -34.9065   22.4671 O   0  0  0  0  0  0  0  0  0136  0  0
  -23.5365  -32.1254   23.7833 O   0  0  0  0  0  0  0  0  0137  0  0
  -31.3399  -17.5388   20.7647 C   0  0  0  0  0  0  0  0  0  0  0  0
  -30.4502  -16.9211   21.6437 C   0  0  0  0  0  0  0  0  0  0  0  0
  -30.0051  -19.0525   22.6908 C   0  0  0  0  0  0  0  0  0  0  0  0
  -31.5623  -18.9133   20.8488 C   0  0  0  0  0  0  0  0  0  0  0  0
  -29.7828  -17.6780   22.6067 C   0  0  0  0  0  0  0  0  0  0  0  0
  -30.8948  -19.6701   21.8119 C   0  0  0  0  0  0  0  0  0  0  0  0
  -27.3559  -20.9213   24.4643 C   0  0  0  0  0  0  0  0  0  0  0  0
  -23.6424  -21.9603   25.0452 C   0  0  0  0  0  0  0  0  0  0  0  0
  -25.8888  -20.8587   24.8718 C   0  0  0  0  0  0  0  0  0  0  0  0
  -27.9639  -19.6087   24.0137 C   0  0  0  0  0  0  0  0  0  0  0  0
  -25.1818  -22.5728   23.1291 C   0  0  0  0  0  0  0  0  0  1  0  0
  -25.0932  -22.1422   24.5970 C   0  0  1  0  0  0  0  0  0  0  0  0
  -30.2267  -15.5247   21.5563 N   0  0  0  0  0  0  0  0  0  0  0  0
  -29.3440  -19.8057   23.6504 N   0  0  0  0  0  0  0  0  0  0  0  0
  -28.0139  -21.9578   24.5448 O   0  0  0  0  0  0  0  0  0  0  0  0
  -32.4181  -19.5062   20.0062 F   0  0  0  0  0  0  0  0  0  0  0  0
  -28.9277  -17.0839   23.4532 F   0  0  0  0  0  0  0  0  0  0  0  0
  -31.1165  -20.9903   21.8841 F   0  0  0  0  0  0  0  0  0  0  0  0
  -25.6206  -23.1432   25.3637 F   0  0  0  0  0  0  0  0  0  0  0  0
  -31.4485  -12.4701   19.0860 H   0  0  0  0  0  0  0  0  0  0  0  0
  -30.3970  -11.2460   19.6950 H   0  0  0  0  0  0  0  0  0  0  0  0
  -29.6870  -11.8204   17.4226 H   0  0  0  0  0  0  0  0  0  0  0  0
  -29.6375  -13.5326   17.8649 H   0  0  0  0  0  0  0  0  0  0  0  0
  -27.7830  -11.3650   18.7904 H   0  0  0  0  0  0  0  0  0  0  0  0
  -27.4028  -12.7801   17.8021 H   0  0  0  0  0  0  0  0  0  0  0  0
  -27.7353  -14.2503   19.6136 H   0  0  0  0  0  0  0  0  0  0  0  0
  -28.5890  -11.9550   21.3832 H   0  0  0  0  0  0  0  0  0  0  0  0
  -28.5005  -13.6134   21.8562 H   0  0  0  0  0  0  0  0  0  0  0  0
  -25.2399   -9.5495   22.4318 H   0  0  0  0  0  0  0  0  0  0  0  0
  -23.9663   -7.5070   22.7297 H   0  0  0  0  0  0  0  0  0  0  0  0
  -21.1515   -8.8641   19.9162 H   0  0  0  0  0  0  0  0  0  0  0  0
  -22.4016  -10.9115   19.6476 H   0  0  0  0  0  0  0  0  0  0  0  0
  -21.2319   -7.5552   23.9750 H   0  0  0  0  0  0  0  0  0  0  0  0
  -21.1589   -6.0228   25.8556 H   0  0  0  0  0  0  0  0  0  0  0  0
  -22.0396   -2.8212   23.2809 H   0  0  0  0  0  0  0  0  0  0  0  0
  -22.4401  -11.9703   22.4008 H   0  0  0  0  0  0  0  0  0  0  0  0
  -21.1493  -13.0679   22.2082 H   0  0  0  0  0  0  0  0  0  0  0  0
  -24.6538  -15.7807   20.5848 H   0  0  0  0  0  0  0  0  0  0  0  0
  -26.2762  -15.5453   20.1156 H   0  0  0  0  0  0  0  0  0  0  0  0
  -26.6778  -32.4663   23.1464 H   0  0  0  0  0  0  0  0  0  0  0  0
  -25.0747  -34.0282   25.0566 H   0  0  0  0  0  0  0  0  0  0  0  0
  -22.7881  -31.3489   21.4131 H   0  0  0  0  0  0  0  0  0  0  0  0
  -23.3854  -35.9823   23.3648 H   0  0  0  0  0  0  0  0  0  0  0  0
  -24.3696  -36.8624   22.2204 H   0  0  0  0  0  0  0  0  0  0  0  0
  -23.7669  -37.6632   23.6516 H   0  0  0  0  0  0  0  0  0  0  0  0
  -25.9445  -31.6237   20.5691 H   0  0  0  0  0  0  0  0  0  0  0  0
  -26.7436  -31.0079   22.0108 H   0  0  0  0  0  0  0  0  0  0  0  0
  -28.0090  -29.1452   21.2057 H   0  0  0  0  0  0  0  0  0  0  0  0
  -26.1369  -26.0560   19.0719 H   0  0  0  0  0  0  0  0  0  0  0  0
  -24.0652  -27.2961   19.0997 H   0  0  0  0  0  0  0  0  0  0  0  0
  -23.6156  -30.5365   19.3930 H   0  0  0  0  0  0  0  0  0  0  0  0
  -22.7355  -29.1425   19.9945 H   0  0  0  0  0  0  0  0  0  0  0  0
  -25.1353  -36.2335   25.0565 H   0  0  0  0  0  0  0  0  0  0  0  0
  -21.0070  -28.3206   24.0793 H   0  0  0  0  0  0  0  0  0  0  0  0
  -20.5555  -26.2518   23.3550 H   0  0  0  0  0  0  0  0  0  0  0  0
  -21.5974  -26.8362   22.0454 H   0  0  0  0  0  0  0  0  0  0  0  0
  -19.6810  -25.6422   21.1488 H   0  0  0  0  0  0  0  0  0  0  0  0
  -19.6406  -27.3343   20.7034 H   0  0  0  0  0  0  0  0  0  0  0  0
  -17.4282  -26.6888   21.4113 H   0  0  0  0  0  0  0  0  0  0  0  0
  -18.0803  -26.0130   22.9049 H   0  0  0  0  0  0  0  0  0  0  0  0
  -19.7265  -30.6774   24.2204 H   0  0  0  0  0  0  0  0  0  0  0  0
  -17.5064  -31.5856   24.4483 H   0  0  0  0  0  0  0  0  0  0  0  0
  -15.5878  -30.2839   23.7407 H   0  0  0  0  0  0  0  0  0  0  0  0
  -15.9120  -28.0941   22.7766 H   0  0  0  0  0  0  0  0  0  0  0  0
  -24.5787  -30.7757   25.6817 H   0  0  0  0  0  0  0  0  0  0  0  0
  -25.0041  -32.2289   26.5536 H   0  0  0  0  0  0  0  0  0  0  0  0
  -25.8166  -30.7245   26.9138 H   0  0  0  0  0  0  0  0  0  0  0  0
  -26.2892  -29.7335   24.0803 H   0  0  0  0  0  0  0  0  0  0  0  0
  -27.4336  -29.7484   25.4006 H   0  0  0  0  0  0  0  0  0  0  0  0
  -27.8466  -30.4994   23.8779 H   0  0  0  0  0  0  0  0  0  0  0  0
  -27.2251  -33.3632   26.1242 H   0  0  0  0  0  0  0  0  0  0  0  0
  -28.3902  -32.6065   25.0645 H   0  0  0  0  0  0  0  0  0  0  0  0
  -27.9772  -31.8555   26.5872 H   0  0  0  0  0  0  0  0  0  0  0  0
  -28.2744  -38.0016   24.6863 H   0  0  0  0  0  0  0  0  0  0  0  0
  -28.0396  -36.2711   24.7461 H   0  0  0  0  0  0  0  0  0  0  0  0
  -27.1773  -37.3087   25.8564 H   0  0  0  0  0  0  0  0  0  0  0  0
  -20.9627  -29.9365   21.7352 H   0  0  0  0  0  0  0  0  0  0  0  0
  -26.0447  -38.2561   24.0273 H   0  0  0  0  0  0  0  0  0  0  0  0
  -31.8336  -16.9789   20.0521 H   0  0  0  0  0  0  0  0  0  0  0  0
  -23.1861  -21.1823   24.4695 H   0  0  0  0  0  0  0  0  0  0  0  0
  -23.1063  -22.8745   24.8977 H   0  0  0  0  0  0  0  0  0  0  0  0
  -23.6198  -21.6968   26.0820 H   0  0  0  0  0  0  0  0  0  0  0  0
  -25.8425  -20.6558   25.9214 H   0  0  0  0  0  0  0  0  0  0  0  0
  -25.4412  -20.0913   24.2754 H   0  0  0  0  0  0  0  0  0  0  0  0
  -27.4235  -19.2397   23.1671 H   0  0  0  0  0  0  0  0  0  0  0  0
  -27.9084  -18.9017   24.8150 H   0  0  0  0  0  0  0  0  0  0  0  0
  -24.1704  -22.8367   22.9002 H   0  0  0  0  0  0  0  0  0  0  0  0
  -25.7923  -21.7464   22.8304 H   0  0  0  0  0  0  0  0  0  0  0  0
  -29.5716  -15.2109   22.2208 H   0  0  0  0  0  0  0  0  0  0  0  0
  -29.8474  -20.5162   24.1098 H   0  0  0  0  0  0  0  0  0  0  0  0
  1 25  1  0
  1 30  2  0
  1 83  1  0
  2  3  1  0
  2 25  1  0
  2 90  1  0
  2 91  1  0
  3  4  1  0
  3 92  1  0
  3 93  1  0
  4  5  1  0
  4 94  1  0
  4 95  1  0
  5  6  1  0
  5 26  1  0
  5 96  1  6
  6 25  1  0
  6 97  1  0
  6 98  1  0
  7  8  2  0
  7 26  1  0
  7 29  1  0
  8  9  1  0
  8 22  1  0
  9 10  1  0
  9 27  2  0
 10 11  2  0
 10 15  1  0
 11 12  1  0
 11 99  1  0
 12 13  2  0
 12100  1  0
 13 14  1  0
 13 31  1  0
 14 15  2  0
 14101  1  0
 15102  1  0
 16 17  2  0
 16 21  1  0
 16 31  1  0
 17 18  1  0
 17103  1  0
 18 19  2  0
 18104  1  0
 19 20  1  0
 19 24  1  0
 20 21  2  0
 20105  1  0
 21 23  1  0
 22 28  1  0
 22 32  2  0
 26 27  1  0
 28106  1  0
 28107  1  0
 29108  1  0
 29109  1  0
 33 34  1  0
 33 66  1  0
 33 70  2  0
 34 36  1  0
 34 59  1  0
 34110  1  6
 35 44  2  0
 35 45  1  0
 35 68  1  0
 36 56  1  0
 36111  1  0
 37 39  1  0
 37 47  1  0
 37 66  1  0
 37112  1  6
 38 43  2  0
 38 46  1  0
 38 47  1  0
 39 64  1  0
 39 67  2  0
 40 52  1  0
 40 53  2  0
 40 58  1  0
 41113  1  0
 41114  1  0
 41115  1  0
 42 43  1  0
 42 66  1  0
 42116  1  0
 42117  1  0
 43 44  1  0
 44118  1  0
 45 46  2  0
 45119  1  0
 46120  1  0
 47121  1  0
 47122  1  0
 48 41  1  0
 48 56  1  0
 48 65  1  0
 48123  1  1
 49 50  1  0
 49 53  1  0
 49 64  1  0
 49124  1  1
 50 51  1  0
 50125  1  0
 50126  1  0
 51 52  1  0
 51127  1  0
 51128  1  0
 52129  1  0
 52130  1  0
 53 54  1  0
 54 55  2  0
 54131  1  0
 55 57  1  0
 55132  1  0
 56 69  2  0
 57 58  2  0
 57133  1  0
 58134  1  0
 59 60  1  0
 59 61  1  0
 59 62  1  0
 60135  1  0
 60136  1  0
 60137  1  0
 61138  1  0
 61139  1  0
 61140  1  0
 62141  1  0
 62142  1  0
 62143  1  0
 63 65  1  0
 63144  1  0
 63145  1  0
 63146  1  0
 64147  1  0
 65148  1  0
 68 81  1  0
 71 72  2  0
 71 74  1  0
 71149  1  0
 72 75  1  0
 72 83  1  0
 73 75  2  0
 73 76  1  0
 73 84  1  0
 74 76  2  0
 74 86  1  0
 75 87  1  0
 76 88  1  0
 77 79  1  0
 77 80  1  0
 77 85  2  0
 78150  1  0
 78151  1  0
 78152  1  0
 79 82  1  0
 79153  1  0
 79154  1  0
 80 84  1  0
 80155  1  0
 80156  1  0
 81 82  1  0
 81157  1  0
 81158  1  0
 82 78  1  0
 82 89  1  1
 83159  1  0
 84160  1  0
M  ISO  4   1 100  68 101  81 101  83 100
M  END
$$$$
82
     RDKit          3D

159167  0  0  0  0  0  0  0  0999 V2000
  -30.7652  -14.3608   20.6636 C   0  0  0  0  0  0  0  0  0100  0  0
  -30.4392  -12.2669   19.3775 C   0  0  0  0  0  0  0  0  0101  0  0
  -29.4791  -12.5281   18.1977 C   0  0  0  0  0  0  0  0  0102  0  0
  -27.9985  -12.3963   18.6038 C   0  0  0  0  0  0  0  0  0103  0  0
  -27.6639  -13.2170   19.8820 C   0  0  2  0  0  0  0  0  0104  0  0
  -28.6795  -12.9602   21.0279 C   0  0  0  0  0  0  0  0  0105  0  0
  -25.2633  -13.8245   20.5754 C   0  0  0  0  0  0  0  0  0106  0  0
  -24.1645  -13.0409   20.9408 C   0  0  0  0  0  0  0  0  0107  0  0
  -24.6400  -11.7009   20.8697 C   0  0  0  0  0  0  0  0  0108  0  0
  -23.9005  -10.4085   21.0420 C   0  0  0  0  0  0  0  0  0109  0  0
  -24.3588   -9.4123   21.9123 C   0  0  0  0  0  0  0  0  0110  0  0
  -23.6296   -8.2350   22.0803 C   0  0  0  0  0  0  0  0  0111  0  0
  -22.4385   -8.0419   21.3657 C   0  0  0  0  0  0  0  0  0112  0  0
  -22.0103   -9.0167   20.4678 C   0  0  0  0  0  0  0  0  0113  0  0
  -22.7317  -10.1925   20.3102 C   0  0  0  0  0  0  0  0  0114  0  0
  -21.6857   -6.0709   22.5391 C   0  0  0  0  0  0  0  0  0115  0  0
  -21.4064   -6.5490   23.8264 C   0  0  0  0  0  0  0  0  0116  0  0
  -21.3635   -5.6677   24.9085 C   0  0  0  0  0  0  0  0  0117  0  0
  -21.5973   -4.3067   24.7088 C   0  0  0  0  0  0  0  0  0118  0  0
  -21.8700   -3.8284   23.4282 C   0  0  0  0  0  0  0  0  0119  0  0
  -21.9144   -4.7056   22.3460 C   0  0  0  0  0  0  0  0  0120  0  0
  -22.8194  -13.5263   21.1763 C   0  0  0  0  0  0  0  0  0121  0  0
  -22.1559   -4.2206   21.1063 F   0  0  0  0  0  0  0  0  0122  0  0
  -21.5628   -3.4510   25.7555 F   0  0  0  0  0  0  0  0  0123  0  0
  -30.0261  -13.1803   20.4553 N   0  0  0  0  0  0  0  0  0124  0  0
  -26.2911  -12.9356   20.3443 N   0  0  0  0  0  0  0  0  0125  0  0
  -25.9236  -11.6675   20.5847 N   0  0  0  0  0  0  0  0  0126  0  0
  -22.0708  -12.7905   22.0005 N   0  0  0  0  0  0  0  0  0127  0  0
  -25.4117  -15.1773   20.4097 N   0  0  0  0  0  0  0  0  0128  0  0
  -31.7916  -14.6724   20.0536 O   0  0  0  0  0  0  0  0  0129  0  0
  -21.6670   -6.9022   21.4423 O   0  0  0  0  0  0  0  0  0130  0  0
  -22.3946  -14.5564   20.6568 O   0  0  0  0  0  0  0  0  0131  0  0
  -24.6048  -31.8614   23.2223 C   0  0  0  0  0  0  0  0  0100  0  0
  -25.8822  -32.4841   23.8616 C   0  0  1  0  0  0  0  0  0101  0  0
  -27.2536  -27.5042   20.1156 C   0  0  0  0  0  0  0  0  0102  0  0
  -25.5726  -33.8762   24.2210 N   0  0  0  0  0  0  0  0  0103  0  0
  -23.4066  -30.4859   21.5461 C   0  0  2  0  0  0  0  0  0104  0  0
  -24.8467  -28.9636   20.1247 C   0  0  0  0  0  0  0  0  0105  0  0
  -22.7412  -29.4652   22.5052 C   0  0  0  0  0  0  0  0  0106  0  0
  -18.0167  -28.1302   22.8626 C   0  0  0  0  0  0  0  0  0107  0  0
  -24.1342  -36.7390   23.2568 C   0  0  0  0  0  0  0  0  0108  0  0
  -25.9141  -30.8882   21.3456 C   0  0  0  0  0  0  0  0  0109  0  0
  -25.9930  -29.5029   20.7208 C   0  0  0  0  0  0  0  0  0110  0  0
  -27.1758  -28.7612   20.7331 C   0  0  0  0  0  0  0  0  0111  0  0
  -26.1032  -26.9836   19.5230 C   0  0  0  0  0  0  0  0  0112  0  0
  -24.9097  -27.7011   19.5331 C   0  0  0  0  0  0  0  0  0113  0  0
  -23.5715  -29.7899   20.1582 C   0  0  0  0  0  0  0  0  0114  0  0
  -25.3990  -36.3212   24.0232 C   0  0  1  0  0  0  0  0  0115  0  0
  -20.5793  -28.3813   23.1004 C   0  0  2  0  0  0  0  0  0116  0  0
  -20.6548  -26.9392   22.5411 C   0  0  0  0  0  0  0  0  0117  0  0
  -19.5615  -26.6407   21.5143 C   0  0  0  0  0  0  0  0  0118  0  0
  -18.1797  -26.7818   22.1673 C   0  0  0  0  0  0  0  0  0119  0  0
  -19.1385  -28.8769   23.2988 C   0  0  0  0  0  0  0  0  0120  0  0
  -18.9183  -30.1286   23.8878 C   0  0  0  0  0  0  0  0  0121  0  0
  -17.6396  -30.6493   24.0352 C   0  0  0  0  0  0  0  0  0122  0  0
  -25.9153  -34.9582   23.4993 C   0  0  0  0  0  0  0  0  0123  0  0
  -16.5415  -29.9068   23.6254 C   0  0  0  0  0  0  0  0  0124  0  0
  -16.7331  -28.6521   23.0586 C   0  0  0  0  0  0  0  0  0125  0  0
  -26.4583  -31.6439   25.0683 C   0  0  0  0  0  0  0  0  0126  0  0
  -25.3807  -31.3179   26.1374 C   0  0  0  0  0  0  0  0  0127  0  0
  -27.0530  -30.3024   24.5680 C   0  0  0  0  0  0  0  0  0128  0  0
  -27.6014  -32.4281   25.7651 C   0  0  0  0  0  0  0  0  0129  0  0
  -27.5629  -37.2220   24.8621 C   0  0  0  0  0  0  0  0  0130  0  0
  -21.4133  -29.3375   22.3735 N   0  0  0  0  0  0  0  0  0131  0  0
  -26.4706  -37.3372   23.9061 N   0  0  0  0  0  0  0  0  0132  0  0
  -24.6674  -31.0544   22.1178 N   0  0  0  0  0  0  0  0  0133  0  0
  -23.4259  -28.8150   23.2971 O   0  0  0  0  0  0  0  0  0134  0  0
  -28.3948  -26.7345   20.0089 O   0  0  0  0  0  0  0  0  0135  0  0
  -26.5870  -34.9065   22.4671 O   0  0  0  0  0  0  0  0  0136  0  0
  -23.5365  -32.1254   23.7833 O   0  0  0  0  0  0  0  0  0137  0  0
  -29.1446  -19.2773   21.4398 C   0  0  0  0  0  0  0  0  0  0  0  0
  -27.6256  -20.3281   19.3491 C   0  0  0  0  0  0  0  0  0  0  0  0
  -29.0372  -20.6590   21.2817 C   0  0  0  0  0  0  0  0  0  0  0  0
  -28.4926  -18.4210   20.5525 C   0  0  0  0  0  0  0  0  0  0  0  0
  -28.2776  -21.1844   20.2364 C   0  0  0  0  0  0  0  0  0  0  0  0
  -27.7331  -18.9464   19.5072 C   0  0  0  0  0  0  0  0  0  0  0  0
  -26.2144  -25.4595   19.3686 C   0  0  0  0  0  0  0  0  0  0  0  0
  -27.4356  -23.2508   19.0770 C   0  0  0  0  0  0  0  0  0  0  0  0
  -31.1475  -21.9199   21.7657 C   0  0  0  0  0  0  0  0  0  0  0  0
  -27.5472  -24.7573   19.2118 C   0  0  0  0  0  0  0  0  0  0  0  0
  -26.2666  -26.9733   19.4157 C   0  0  0  0  0  0  0  0  0  1  0  0
  -29.7465  -21.5527   22.2468 C   0  0  1  0  0  0  0  0  0  0  0  0
  -28.1568  -22.5835   20.0583 N   0  0  0  0  0  0  0  0  0  0  0  0
  -28.6033  -17.0177   20.7145 N   0  0  0  0  0  0  0  0  0  0  0  0
  -25.1546  -24.8417   19.4598 O   0  0  0  0  0  0  0  0  0  0  0  0
  -26.7421  -22.7590   18.1907 O   0  0  0  0  0  0  0  0  0  0  0  0
  -27.1019  -18.1321   18.6494 F   0  0  0  0  0  0  0  0  0  0  0  0
  -29.0815  -22.7296   22.4783 F   0  0  0  0  0  0  0  0  0  0  0  0
  -31.4485  -12.4701   19.0860 H   0  0  0  0  0  0  0  0  0  0  0  0
  -30.3970  -11.2460   19.6950 H   0  0  0  0  0  0  0  0  0  0  0  0
  -29.6870  -11.8204   17.4226 H   0  0  0  0  0  0  0  0  0  0  0  0
  -29.6375  -13.5326   17.8649 H   0  0  0  0  0  0  0  0  0  0  0  0
  -27.7830  -11.3650   18.7904 H   0  0  0  0  0  0  0  0  0  0  0  0
  -27.4028  -12.7801   17.8021 H   0  0  0  0  0  0  0  0  0  0  0  0
  -27.7353  -14.2503   19.6136 H   0  0  0  0  0  0  0  0  0  0  0  0
  -28.5890  -11.9550   21.3832 H   0  0  0  0  0  0  0  0  0  0  0  0
  -28.5005  -13.6134   21.8562 H   0  0  0  0  0  0  0  0  0  0  0  0
  -25.2399   -9.5495   22.4318 H   0  0  0  0  0  0  0  0  0  0  0  0
  -23.9663   -7.5070   22.7297 H   0  0  0  0  0  0  0  0  0  0  0  0
  -21.1515   -8.8641   19.9162 H   0  0  0  0  0  0  0  0  0  0  0  0
  -22.4016  -10.9115   19.6476 H   0  0  0  0  0  0  0  0  0  0  0  0
  -21.2319   -7.5552   23.9750 H   0  0  0  0  0  0  0  0  0  0  0  0
  -21.1589   -6.0228   25.8556 H   0  0  0  0  0  0  0  0  0  0  0  0
  -22.0396   -2.8212   23.2809 H   0  0  0  0  0  0  0  0  0  0  0  0
  -22.4401  -11.9703   22.4008 H   0  0  0  0  0  0  0  0  0  0  0  0
  -21.1493  -13.0679   22.2082 H   0  0  0  0  0  0  0  0  0  0  0  0
  -24.6538  -15.7807   20.5848 H   0  0  0  0  0  0  0  0  0  0  0  0
  -26.2762  -15.5453   20.1156 H   0  0  0  0  0  0  0  0  0  0  0  0
  -26.6778  -32.4663   23.1464 H   0  0  0  0  0  0  0  0  0  0  0  0
  -25.0747  -34.0282   25.0566 H   0  0  0  0  0  0  0  0  0  0  0  0
  -22.7881  -31.3489   21.4131 H   0  0  0  0  0  0  0  0  0  0  0  0
  -23.3854  -35.9823   23.3648 H   0  0  0  0  0  0  0  0  0  0  0  0
  -24.3696  -36.8624   22.2204 H   0  0  0  0  0  0  0  0  0  0  0  0
  -23.7669  -37.6632   23.6516 H   0  0  0  0  0  0  0  0  0  0  0  0
  -25.9445  -31.6237   20.5691 H   0  0  0  0  0  0  0  0  0  0  0  0
  -26.7436  -31.0079   22.0108 H   0  0  0  0  0  0  0  0  0  0  0  0
  -28.0090  -29.1452   21.2057 H   0  0  0  0  0  0  0  0  0  0  0  0
  -26.1369  -26.0560   19.0719 H   0  0  0  0  0  0  0  0  0  0  0  0
  -24.0652  -27.2961   19.0997 H   0  0  0  0  0  0  0  0  0  0  0  0
  -23.6156  -30.5365   19.3930 H   0  0  0  0  0  0  0  0  0  0  0  0
  -22.7355  -29.1425   19.9945 H   0  0  0  0  0  0  0  0  0  0  0  0
  -25.1353  -36.2335   25.0565 H   0  0  0  0  0  0  0  0  0  0  0  0
  -21.0070  -28.3206   24.0793 H   0  0  0  0  0  0  0  0  0  0  0  0
  -20.5555  -26.2518   23.3550 H   0  0  0  0  0  0  0  0  0  0  0  0
  -21.5974  -26.8362   22.0454 H   0  0  0  0  0  0  0  0  0  0  0  0
  -19.6810  -25.6422   21.1488 H   0  0  0  0  0  0  0  0  0  0  0  0
  -19.6406  -27.3343   20.7034 H   0  0  0  0  0  0  0  0  0  0  0  0
  -17.4282  -26.6888   21.4113 H   0  0  0  0  0  0  0  0  0  0  0  0
  -18.0803  -26.0130   22.9049 H   0  0  0  0  0  0  0  0  0  0  0  0
  -19.7265  -30.6774   24.2204 H   0  0  0  0  0  0  0  0  0  0  0  0
  -17.5064  -31.5856   24.4483 H   0  0  0  0  0  0  0  0  0  0  0  0
  -15.5878  -30.2839   23.7407 H   0  0  0  0  0  0  0  0  0  0  0  0
  -15.9120  -28.0941   22.7766 H   0  0  0  0  0  0  0  0  0  0  0  0
  -24.5787  -30.7757   25.6817 H   0  0  0  0  0  0  0  0  0  0  0  0
  -25.0041  -32.2289   26.5536 H   0  0  0  0  0  0  0  0  0  0  0  0
  -25.8166  -30.7245   26.9138 H   0  0  0  0  0  0  0  0  0  0  0  0
  -26.2892  -29.7335   24.0803 H   0  0  0  0  0  0  0  0  0  0  0  0
  -27.4336  -29.7484   25.4006 H   0  0  0  0  0  0  0  0  0  0  0  0
  -27.8466  -30.4994   23.8779 H   0  0  0  0  0  0  0  0  0  0  0  0
  -27.2251  -33.3632   26.1242 H   0  0  0  0  0  0  0  0  0  0  0  0
  -28.3902  -32.6065   25.0645 H   0  0  0  0  0  0  0  0  0  0  0  0
  -27.9772  -31.8555   26.5872 H   0  0  0  0  0  0  0  0  0  0  0  0
  -28.2744  -38.0016   24.6863 H   0  0  0  0  0  0  0  0  0  0  0  0
  -28.0396  -36.2711   24.7461 H   0  0  0  0  0  0  0  0  0  0  0  0
  -27.1773  -37.3087   25.8564 H   0  0  0  0  0  0  0  0  0  0  0  0
  -20.9627  -29.9365   21.7352 H   0  0  0  0  0  0  0  0  0  0  0  0
  -26.0447  -38.2561   24.0273 H   0  0  0  0  0  0  0  0  0  0  0  0
  -29.7065  -18.8886   22.2133 H   0  0  0  0  0  0  0  0  0  0  0  0
  -27.0637  -20.7168   18.5757 H   0  0  0  0  0  0  0  0  0  0  0  0
  -31.7037  -21.0265   21.5723 H   0  0  0  0  0  0  0  0  0  0  0  0
  -31.6447  -22.4934   22.5199 H   0  0  0  0  0  0  0  0  0  0  0  0
  -31.0763  -22.4972   20.8676 H   0  0  0  0  0  0  0  0  0  0  0  0
  -28.1461  -24.9753   20.0713 H   0  0  0  0  0  0  0  0  0  0  0  0
  -27.9841  -25.1189   18.3045 H   0  0  0  0  0  0  0  0  0  0  0  0
  -25.6396  -27.4234   20.1568 H   0  0  0  0  0  0  0  0  0  0  0  0
  -25.9665  -27.5835   18.5896 H   0  0  0  0  0  0  0  0  0  0  0  0
  -29.7939  -20.9816   23.1504 H   0  0  0  0  0  0  0  0  0  0  0  0
  -28.6395  -23.1483   20.7043 H   0  0  0  0  0  0  0  0  0  0  0  0
  -27.7066  -16.6694   20.9240 H   0  0  0  0  0  0  0  0  0  0  0  0
  1 25  1  0
  1 30  2  0
  1 84  1  0
  2  3  1  0
  2 25  1  0
  2 89  1  0
  2 90  1  0
  3  4  1  0
  3 91  1  0
  3 92  1  0
  4  5  1  0
  4 93  1  0
  4 94  1  0
  5  6  1  0
  5 26  1  0
  5 95  1  6
  6 25  1  0
  6 96  1  0
  6 97  1  0
  7  8  2  0
  7 26  1  0
  7 29  1  0
  8  9  1  0
  8 22  1  0
  9 10  1  0
  9 27  2  0
 10 11  2  0
 10 15  1  0
 11 12  1  0
 11 98  1  0
 12 13  2  0
 12 99  1  0
 13 14  1  0
 13 31  1  0
 14 15  2  0
 14100  1  0
 15101  1  0
 16 17  2  0
 16 21  1  0
 16 31  1  0
 17 18  1  0
 17102  1  0
 18 19  2  0
 18103  1  0
 19 20  1  0
 19 24  1  0
 20 21  2  0
 20104  1  0
 21 23  1  0
 22 28  1  0
 22 32  2  0
 26 27  1  0
 28105  1  0
 28106  1  0
 29107  1  0
 29108  1  0
 33 34  1  0
 33 66  1  0
 33 70  2  0
 34 36  1  0
 34 59  1  0
 34109  1  6
 35 44  2  0
 35 45  1  0
 35 68  1  0
 36 56  1  0
 36110  1  0
 37 39  1  0
 37 47  1  0
 37 66  1  0
 37111  1  6
 38 43  2  0
 38 46  1  0
 38 47  1  0
 39 64  1  0
 39 67  2  0
 40 52  1  0
 40 53  2  0
 40 58  1  0
 41112  1  0
 41113  1  0
 41114  1  0
 42 43  1  0
 42 66  1  0
 42115  1  0
 42116  1  0
 43 44  1  0
 44117  1  0
 45 46  2  0
 45118  1  0
 46119  1  0
 47120  1  0
 47121  1  0
 48 41  1  0
 48 56  1  0
 48 65  1  0
 48122  1  1
 49 50  1  0
 49 53  1  0
 49 64  1  0
 49123  1  1
 50 51  1  0
 50124  1  0
 50125  1  0
 51 52  1  0
 51126  1  0
 51127  1  0
 52128  1  0
 52129  1  0
 53 54  1  0
 54 55  2  0
 54130  1  0
 55 57  1  0
 55131  1  0
 56 69  2  0
 57 58  2  0
 57132  1  0
 58133  1  0
 59 60  1  0
 59 61  1  0
 59 62  1  0
 60134  1  0
 60135  1  0
 60136  1  0
 61137  1  0
 61138  1  0
 61139  1  0
 62140  1  0
 62141  1  0
 62142  1  0
 63 65  1  0
 63143  1  0
 63144  1  0
 63145  1  0
 64146  1  0
 65147  1  0
 68 81  1  0
 71 73  2  0
 71 74  1  0
 71148  1  0
 72 75  2  0
 72 76  1  0
 72149  1  0
 73 75  1  0
 73 82  1  0
 74 76  2  0
 74 84  1  0
 75 83  1  0
 76 87  1  0
 77 80  1  0
 77 81  1  0
 77 85  2  0
 78 80  1  0
 78 83  1  0
 78 86  2  0
 79150  1  0
 79151  1  0
 79152  1  0
 80153  1  0
 80154  1  0
 81155  1  0
 81156  1  0
 82 79  1  0
 82 88  1  0
 82157  1  1
 83158  1  0
 84159  1  0
M  ISO  4   1 100  68 101  81 101  84 100
M  END
$$$$
83
     RDKit          3D

156164  0  0  0  0  0  0  0  0999 V2000
  -30.7652  -14.3608   20.6636 C   0  0  0  0  0  0  0  0  0100  0  0
  -30.4392  -12.2669   19.3775 C   0  0  0  0  0  0  0  0  0101  0  0
  -29.4791  -12.5281   18.1977 C   0  0  0  0  0  0  0  0  0102  0  0
  -27.9985  -12.3963   18.6038 C   0  0  0  0  0  0  0  0  0103  0  0
  -27.6639  -13.2170   19.8820 C   0  0  2  0  0  0  0  0  0104  0  0
  -28.6795  -12.9602   21.0279 C   0  0  0  0  0  0  0  0  0105  0  0
  -25.2633  -13.8245   20.5754 C   0  0  0  0  0  0  0  0  0106  0  0
  -24.1645  -13.0409   20.9408 C   0  0  0  0  0  0  0  0  0107  0  0
  -24.6400  -11.7009   20.8697 C   0  0  0  0  0  0  0  0  0108  0  0
  -23.9005  -10.4085   21.0420 C   0  0  0  0  0  0  0  0  0109  0  0
  -24.3588   -9.4123   21.9123 C   0  0  0  0  0  0  0  0  0110  0  0
  -23.6296   -8.2350   22.0803 C   0  0  0  0  0  0  0  0  0111  0  0
  -22.4385   -8.0419   21.3657 C   0  0  0  0  0  0  0  0  0112  0  0
  -22.0103   -9.0167   20.4678 C   0  0  0  0  0  0  0  0  0113  0  0
  -22.7317  -10.1925   20.3102 C   0  0  0  0  0  0  0  0  0114  0  0
  -21.6857   -6.0709   22.5391 C   0  0  0  0  0  0  0  0  0115  0  0
  -21.4064   -6.5490   23.8264 C   0  0  0  0  0  0  0  0  0116  0  0
  -21.3635   -5.6677   24.9085 C   0  0  0  0  0  0  0  0  0117  0  0
  -21.5973   -4.3067   24.7088 C   0  0  0  0  0  0  0  0  0118  0  0
  -21.8700   -3.8284   23.4282 C   0  0  0  0  0  0  0  0  0119  0  0
  -21.9144   -4.7056   22.3460 C   0  0  0  0  0  0  0  0  0120  0  0
  -22.8194  -13.5263   21.1763 C   0  0  0  0  0  0  0  0  0121  0  0
  -22.1559   -4.2206   21.1063 F   0  0  0  0  0  0  0  0  0122  0  0
  -21.5628   -3.4510   25.7555 F   0  0  0  0  0  0  0  0  0123  0  0
  -30.0261  -13.1803   20.4553 N   0  0  0  0  0  0  0  0  0124  0  0
  -26.2911  -12.9356   20.3443 N   0  0  0  0  0  0  0  0  0125  0  0
  -25.9236  -11.6675   20.5847 N   0  0  0  0  0  0  0  0  0126  0  0
  -22.0708  -12.7905   22.0005 N   0  0  0  0  0  0  0  0  0127  0  0
  -25.4117  -15.1773   20.4097 N   0  0  0  0  0  0  0  0  0128  0  0
  -31.7916  -14.6724   20.0536 O   0  0  0  0  0  0  0  0  0129  0  0
  -21.6670   -6.9022   21.4423 O   0  0  0  0  0  0  0  0  0130  0  0
  -22.3946  -14.5564   20.6568 O   0  0  0  0  0  0  0  0  0131  0  0
  -24.6048  -31.8614   23.2223 C   0  0  0  0  0  0  0  0  0100  0  0
  -25.8822  -32.4841   23.8616 C   0  0  1  0  0  0  0  0  0101  0  0
  -27.2536  -27.5042   20.1156 C   0  0  0  0  0  0  0  0  0102  0  0
  -25.5726  -33.8762   24.2210 N   0  0  0  0  0  0  0  0  0103  0  0
  -23.4066  -30.4859   21.5461 C   0  0  2  0  0  0  0  0  0104  0  0
  -24.8467  -28.9636   20.1247 C   0  0  0  0  0  0  0  0  0105  0  0
  -22.7412  -29.4652   22.5052 C   0  0  0  0  0  0  0  0  0106  0  0
  -18.0167  -28.1302   22.8626 C   0  0  0  0  0  0  0  0  0107  0  0
  -24.1342  -36.7390   23.2568 C   0  0  0  0  0  0  0  0  0108  0  0
  -25.9141  -30.8882   21.3456 C   0  0  0  0  0  0  0  0  0109  0  0
  -25.9930  -29.5029   20.7208 C   0  0  0  0  0  0  0  0  0110  0  0
  -27.1758  -28.7612   20.7331 C   0  0  0  0  0  0  0  0  0111  0  0
  -26.1032  -26.9836   19.5230 C   0  0  0  0  0  0  0  0  0112  0  0
  -24.9097  -27.7011   19.5331 C   0  0  0  0  0  0  0  0  0113  0  0
  -23.5715  -29.7899   20.1582 C   0  0  0  0  0  0  0  0  0114  0  0
  -25.3990  -36.3212   24.0232 C   0  0  1  0  0  0  0  0  0115  0  0
  -20.5793  -28.3813   23.1004 C   0  0  2  0  0  0  0  0  0116  0  0
  -20.6548  -26.9392   22.5411 C   0  0  0  0  0  0  0  0  0117  0  0
  -19.5615  -26.6407   21.5143 C   0  0  0  0  0  0  0  0  0118  0  0
  -18.1797  -26.7818   22.1673 C   0  0  0  0  0  0  0  0  0119  0  0
  -19.1385  -28.8769   23.2988 C   0  0  0  0  0  0  0  0  0120  0  0
  -18.9183  -30.1286   23.8878 C   0  0  0  0  0  0  0  0  0121  0  0
  -17.6396  -30.6493   24.0352 C   0  0  0  0  0  0  0  0  0122  0  0
  -25.9153  -34.9582   23.4993 C   0  0  0  0  0  0  0  0  0123  0  0
  -16.5415  -29.9068   23.6254 C   0  0  0  0  0  0  0  0  0124  0  0
  -16.7331  -28.6521   23.0586 C   0  0  0  0  0  0  0  0  0125  0  0
  -26.4583  -31.6439   25.0683 C   0  0  0  0  0  0  0  0  0126  0  0
  -25.3807  -31.3179   26.1374 C   0  0  0  0  0  0  0  0  0127  0  0
  -27.0530  -30.3024   24.5680 C   0  0  0  0  0  0  0  0  0128  0  0
  -27.6014  -32.4281   25.7651 C   0  0  0  0  0  0  0  0  0129  0  0
  -27.5629  -37.2220   24.8621 C   0  0  0  0  0  0  0  0  0130  0  0
  -21.4133  -29.3375   22.3735 N   0  0  0  0  0  0  0  0  0131  0  0
  -26.4706  -37.3372   23.9061 N   0  0  0  0  0  0  0  0  0132  0  0
  -24.6674  -31.0544   22.1178 N   0  0  0  0  0  0  0  0  0133  0  0
  -23.4259  -28.8150   23.2971 O   0  0  0  0  0  0  0  0  0134  0  0
  -28.3948  -26.7345   20.0089 O   0  0  0  0  0  0  0  0  0135  0  0
  -26.5870  -34.9065   22.4671 O   0  0  0  0  0  0  0  0  0136  0  0
  -23.5365  -32.1254   23.7833 O   0  0  0  0  0  0  0  0  0137  0  0
  -32.0582  -16.6140   22.5504 C   0  0  0  0  0  0  0  0  0  0  0  0
  -32.6445  -17.4990   23.4551 C   0  0  0  0  0  0  0  0  0  0  0  0
  -29.8732  -17.4624   23.1363 C   0  0  0  0  0  0  0  0  0  0  0  0
  -30.4595  -18.3475   24.0411 C   0  0  0  0  0  0  0  0  0  0  0  0
  -30.6725  -16.5957   22.3909 C   0  0  0  0  0  0  0  0  0  0  0  0
  -31.8452  -18.3657   24.2005 C   0  0  0  0  0  0  0  0  0  0  0  0
  -29.6111  -19.2634   24.8295 C   0  0  0  0  0  0  0  0  0  0  0  0
  -27.4382  -23.0638   25.7577 C   0  0  0  0  0  0  0  0  0  0  0  0
  -29.3781  -21.4370   25.9776 C   0  0  0  0  0  0  0  0  0  0  0  0
  -28.5808  -22.3465   25.0519 C   0  0  2  0  0  0  0  0  0  1  0  0
  -28.3770  -18.8660   25.1396 N   0  0  0  0  0  0  0  0  0  0  0  0
  -30.0772  -15.6957   21.4726 N   0  0  0  0  0  0  0  0  0  0  0  0
  -30.1198  -20.4467   25.1922 N   0  0  0  0  0  0  0  0  0  0  0  0
  -32.4175  -19.2124   25.0677 F   0  0  0  0  0  0  0  0  0  0  0  0
  -31.4485  -12.4701   19.0860 H   0  0  0  0  0  0  0  0  0  0  0  0
  -30.3970  -11.2460   19.6950 H   0  0  0  0  0  0  0  0  0  0  0  0
  -29.6870  -11.8204   17.4226 H   0  0  0  0  0  0  0  0  0  0  0  0
  -29.6375  -13.5326   17.8649 H   0  0  0  0  0  0  0  0  0  0  0  0
  -27.7830  -11.3650   18.7904 H   0  0  0  0  0  0  0  0  0  0  0  0
  -27.4028  -12.7801   17.8021 H   0  0  0  0  0  0  0  0  0  0  0  0
  -27.7353  -14.2503   19.6136 H   0  0  0  0  0  0  0  0  0  0  0  0
  -28.5890  -11.9550   21.3832 H   0  0  0  0  0  0  0  0  0  0  0  0
  -28.5005  -13.6134   21.8562 H   0  0  0  0  0  0  0  0  0  0  0  0
  -25.2399   -9.5495   22.4318 H   0  0  0  0  0  0  0  0  0  0  0  0
  -23.9663   -7.5070   22.7297 H   0  0  0  0  0  0  0  0  0  0  0  0
  -21.1515   -8.8641   19.9162 H   0  0  0  0  0  0  0  0  0  0  0  0
  -22.4016  -10.9115   19.6476 H   0  0  0  0  0  0  0  0  0  0  0  0
  -21.2319   -7.5552   23.9750 H   0  0  0  0  0  0  0  0  0  0  0  0
  -21.1589   -6.0228   25.8556 H   0  0  0  0  0  0  0  0  0  0  0  0
  -22.0396   -2.8212   23.2809 H   0  0  0  0  0  0  0  0  0  0  0  0
  -22.4401  -11.9703   22.4008 H   0  0  0  0  0  0  0  0  0  0  0  0
  -21.1493  -13.0679   22.2082 H   0  0  0  0  0  0  0  0  0  0  0  0
  -24.6538  -15.7807   20.5848 H   0  0  0  0  0  0  0  0  0  0  0  0
  -26.2762  -15.5453   20.1156 H   0  0  0  0  0  0  0  0  0  0  0  0
  -26.6778  -32.4663   23.1464 H   0  0  0  0  0  0  0  0  0  0  0  0
  -25.0747  -34.0282   25.0566 H   0  0  0  0  0  0  0  0  0  0  0  0
  -22.7881  -31.3489   21.4131 H   0  0  0  0  0  0  0  0  0  0  0  0
  -23.3854  -35.9823   23.3648 H   0  0  0  0  0  0  0  0  0  0  0  0
  -24.3696  -36.8624   22.2204 H   0  0  0  0  0  0  0  0  0  0  0  0
  -23.7669  -37.6632   23.6516 H   0  0  0  0  0  0  0  0  0  0  0  0
  -25.9445  -31.6237   20.5691 H   0  0  0  0  0  0  0  0  0  0  0  0
  -26.7436  -31.0079   22.0108 H   0  0  0  0  0  0  0  0  0  0  0  0
  -28.0090  -29.1452   21.2057 H   0  0  0  0  0  0  0  0  0  0  0  0
  -26.1369  -26.0560   19.0719 H   0  0  0  0  0  0  0  0  0  0  0  0
  -24.0652  -27.2961   19.0997 H   0  0  0  0  0  0  0  0  0  0  0  0
  -23.6156  -30.5365   19.3930 H   0  0  0  0  0  0  0  0  0  0  0  0
  -22.7355  -29.1425   19.9945 H   0  0  0  0  0  0  0  0  0  0  0  0
  -25.1353  -36.2335   25.0565 H   0  0  0  0  0  0  0  0  0  0  0  0
  -21.0070  -28.3206   24.0793 H   0  0  0  0  0  0  0  0  0  0  0  0
  -20.5555  -26.2518   23.3550 H   0  0  0  0  0  0  0  0  0  0  0  0
  -21.5974  -26.8362   22.0454 H   0  0  0  0  0  0  0  0  0  0  0  0
  -19.6810  -25.6422   21.1488 H   0  0  0  0  0  0  0  0  0  0  0  0
  -19.6406  -27.3343   20.7034 H   0  0  0  0  0  0  0  0  0  0  0  0
  -17.4282  -26.6888   21.4113 H   0  0  0  0  0  0  0  0  0  0  0  0
  -18.0803  -26.0130   22.9049 H   0  0  0  0  0  0  0  0  0  0  0  0
  -19.7265  -30.6774   24.2204 H   0  0  0  0  0  0  0  0  0  0  0  0
  -17.5064  -31.5856   24.4483 H   0  0  0  0  0  0  0  0  0  0  0  0
  -15.5878  -30.2839   23.7407 H   0  0  0  0  0  0  0  0  0  0  0  0
  -15.9120  -28.0941   22.7766 H   0  0  0  0  0  0  0  0  0  0  0  0
  -24.5787  -30.7757   25.6817 H   0  0  0  0  0  0  0  0  0  0  0  0
  -25.0041  -32.2289   26.5536 H   0  0  0  0  0  0  0  0  0  0  0  0
  -25.8166  -30.7245   26.9138 H   0  0  0  0  0  0  0  0  0  0  0  0
  -26.2892  -29.7335   24.0803 H   0  0  0  0  0  0  0  0  0  0  0  0
  -27.4336  -29.7484   25.4006 H   0  0  0  0  0  0  0  0  0  0  0  0
  -27.8466  -30.4994   23.8779 H   0  0  0  0  0  0  0  0  0  0  0  0
  -27.2251  -33.3632   26.1242 H   0  0  0  0  0  0  0  0  0  0  0  0
  -28.3902  -32.6065   25.0645 H   0  0  0  0  0  0  0  0  0  0  0  0
  -27.9772  -31.8555   26.5872 H   0  0  0  0  0  0  0  0  0  0  0  0
  -28.2744  -38.0016   24.6863 H   0  0  0  0  0  0  0  0  0  0  0  0
  -28.0396  -36.2711   24.7461 H   0  0  0  0  0  0  0  0  0  0  0  0
  -27.1773  -37.3087   25.8564 H   0  0  0  0  0  0  0  0  0  0  0  0
  -20.9627  -29.9365   21.7352 H   0  0  0  0  0  0  0  0  0  0  0  0
  -26.0447  -38.2561   24.0273 H   0  0  0  0  0  0  0  0  0  0  0  0
  -32.6496  -15.9727   21.9990 H   0  0  0  0  0  0  0  0  0  0  0  0
  -33.6697  -17.5126   23.5730 H   0  0  0  0  0  0  0  0  0  0  0  0
  -28.8480  -17.4488   23.0184 H   0  0  0  0  0  0  0  0  0  0  0  0
  -27.2134  -22.5605   26.6748 H   0  0  0  0  0  0  0  0  0  0  0  0
  -26.5729  -23.0617   25.1283 H   0  0  0  0  0  0  0  0  0  0  0  0
  -27.7253  -24.0733   25.9660 H   0  0  0  0  0  0  0  0  0  0  0  0
  -28.7079  -20.9324   26.6417 H   0  0  0  0  0  0  0  0  0  0  0  0
  -30.0701  -22.0285   26.5399 H   0  0  0  0  0  0  0  0  0  0  0  0
  -28.9887  -21.4977   24.5440 H   0  0  0  0  0  0  0  0  0  0  0  0
  -28.0556  -17.9832   24.8454 H   0  0  0  0  0  0  0  0  0  0  0  0
  -27.7870  -19.4553   25.6628 H   0  0  0  0  0  0  0  0  0  0  0  0
  -29.1284  -15.8655   21.2723 H   0  0  0  0  0  0  0  0  0  0  0  0
  -31.0400  -20.6632   24.9172 H   0  0  0  0  0  0  0  0  0  0  0  0
  1 25  1  0
  1 30  2  0
  1 82  1  0
  2  3  1  0
  2 25  1  0
  2 85  1  0
  2 86  1  0
  3  4  1  0
  3 87  1  0
  3 88  1  0
  4  5  1  0
  4 89  1  0
  4 90  1  0
  5  6  1  0
  5 26  1  0
  5 91  1  6
  6 25  1  0
  6 92  1  0
  6 93  1  0
  7  8  2  0
  7 26  1  0
  7 29  1  0
  8  9  1  0
  8 22  1  0
  9 10  1  0
  9 27  2  0
 10 11  2  0
 10 15  1  0
 11 12  1  0
 11 94  1  0
 12 13  2  0
 12 95  1  0
 13 14  1  0
 13 31  1  0
 14 15  2  0
 14 96  1  0
 15 97  1  0
 16 17  2  0
 16 21  1  0
 16 31  1  0
 17 18  1  0
 17 98  1  0
 18 19  2  0
 18 99  1  0
 19 20  1  0
 19 24  1  0
 20 21  2  0
 20100  1  0
 21 23  1  0
 22 28  1  0
 22 32  2  0
 26 27  1  0
 28101  1  0
 28102  1  0
 29103  1  0
 29104  1  0
 33 34  1  0
 33 66  1  0
 33 70  2  0
 34 36  1  0
 34 59  1  0
 34105  1  6
 35 44  2  0
 35 45  1  0
 35 68  1  0
 36 56  1  0
 36106  1  0
 37 39  1  0
 37 47  1  0
 37 66  1  0
 37107  1  6
 38 43  2  0
 38 46  1  0
 38 47  1  0
 39 64  1  0
 39 67  2  0
 40 52  1  0
 40 53  2  0
 40 58  1  0
 41108  1  0
 41109  1  0
 41110  1  0
 42 43  1  0
 42 66  1  0
 42111  1  0
 42112  1  0
 43 44  1  0
 44113  1  0
 45 46  2  0
 45114  1  0
 46115  1  0
 47116  1  0
 47117  1  0
 48 41  1  0
 48 56  1  0
 48 65  1  0
 48118  1  1
 49 50  1  0
 49 53  1  0
 49 64  1  0
 49119  1  1
 50 51  1  0
 50120  1  0
 50121  1  0
 51 52  1  0
 51122  1  0
 51123  1  0
 52124  1  0
 52125  1  0
 53 54  1  0
 54 55  2  0
 54126  1  0
 55 57  1  0
 55127  1  0
 56 69  2  0
 57 58  2  0
 57128  1  0
 58129  1  0
 59 60  1  0
 59 61  1  0
 59 62  1  0
 60130  1  0
 60131  1  0
 60132  1  0
 61133  1  0
 61134  1  0
 61135  1  0
 62136  1  0
 62137  1  0
 62138  1  0
 63 65  1  0
 63139  1  0
 63140  1  0
 63141  1  0
 64142  1  0
 65143  1  0
 68 80  1  0
 71 72  2  0
 71 75  1  0
 71144  1  0
 72 76  1  0
 72145  1  0
 73 74  1  0
 73 75  2  0
 73146  1  0
 74 76  2  0
 74 77  1  0
 75 82  1  0
 76 84  1  0
 77 81  1  0
 77 83  2  0
 78147  1  0
 78148  1  0
 78149  1  0
 79 80  1  0
 79 83  1  0
 79150  1  0
 79151  1  0
 80 78  1  0
 80152  1  6
 81153  1  0
 81154  1  0
 82155  1  0
 83156  1  0
M  CHG  1  83   1
M  ISO  4   1 100  68 101  80 101  82 100
M  END
$$$$
84
     RDKit          3D

154162  0  0  0  0  0  0  0  0999 V2000
  -30.7652  -14.3608   20.6636 C   0  0  0  0  0  0  0  0  0100  0  0
  -30.4392  -12.2669   19.3775 C   0  0  0  0  0  0  0  0  0101  0  0
  -29.4791  -12.5281   18.1977 C   0  0  0  0  0  0  0  0  0102  0  0
  -27.9985  -12.3963   18.6038 C   0  0  0  0  0  0  0  0  0103  0  0
  -27.6639  -13.2170   19.8820 C   0  0  2  0  0  0  0  0  0104  0  0
  -28.6795  -12.9602   21.0279 C   0  0  0  0  0  0  0  0  0105  0  0
  -25.2633  -13.8245   20.5754 C   0  0  0  0  0  0  0  0  0106  0  0
  -24.1645  -13.0409   20.9408 C   0  0  0  0  0  0  0  0  0107  0  0
  -24.6400  -11.7009   20.8697 C   0  0  0  0  0  0  0  0  0108  0  0
  -23.9005  -10.4085   21.0420 C   0  0  0  0  0  0  0  0  0109  0  0
  -24.3588   -9.4123   21.9123 C   0  0  0  0  0  0  0  0  0110  0  0
  -23.6296   -8.2350   22.0803 C   0  0  0  0  0  0  0  0  0111  0  0
  -22.4385   -8.0419   21.3657 C   0  0  0  0  0  0  0  0  0112  0  0
  -22.0103   -9.0167   20.4678 C   0  0  0  0  0  0  0  0  0113  0  0
  -22.7317  -10.1925   20.3102 C   0  0  0  0  0  0  0  0  0114  0  0
  -21.6857   -6.0709   22.5391 C   0  0  0  0  0  0  0  0  0115  0  0
  -21.4064   -6.5490   23.8264 C   0  0  0  0  0  0  0  0  0116  0  0
  -21.3635   -5.6677   24.9085 C   0  0  0  0  0  0  0  0  0117  0  0
  -21.5973   -4.3067   24.7088 C   0  0  0  0  0  0  0  0  0118  0  0
  -21.8700   -3.8284   23.4282 C   0  0  0  0  0  0  0  0  0119  0  0
  -21.9144   -4.7056   22.3460 C   0  0  0  0  0  0  0  0  0120  0  0
  -22.8194  -13.5263   21.1763 C   0  0  0  0  0  0  0  0  0121  0  0
  -22.1559   -4.2206   21.1063 F   0  0  0  0  0  0  0  0  0122  0  0
  -21.5628   -3.4510   25.7555 F   0  0  0  0  0  0  0  0  0123  0  0
  -30.0261  -13.1803   20.4553 N   0  0  0  0  0  0  0  0  0124  0  0
  -26.2911  -12.9356   20.3443 N   0  0  0  0  0  0  0  0  0125  0  0
  -25.9236  -11.6675   20.5847 N   0  0  0  0  0  0  0  0  0126  0  0
  -22.0708  -12.7905   22.0005 N   0  0  0  0  0  0  0  0  0127  0  0
  -25.4117  -15.1773   20.4097 N   0  0  0  0  0  0  0  0  0128  0  0
  -31.7916  -14.6724   20.0536 O   0  0  0  0  0  0  0  0  0129  0  0
  -21.6670   -6.9022   21.4423 O   0  0  0  0  0  0  0  0  0130  0  0
  -22.3946  -14.5564   20.6568 O   0  0  0  0  0  0  0  0  0131  0  0
  -24.6048  -31.8614   23.2223 C   0  0  0  0  0  0  0  0  0100  0  0
  -25.8822  -32.4841   23.8616 C   0  0  1  0  0  0  0  0  0101  0  0
  -27.2536  -27.5042   20.1156 C   0  0  0  0  0  0  0  0  0102  0  0
  -25.5726  -33.8762   24.2210 N   0  0  0  0  0  0  0  0  0103  0  0
  -23.4066  -30.4859   21.5461 C   0  0  2  0  0  0  0  0  0104  0  0
  -24.8467  -28.9636   20.1247 C   0  0  0  0  0  0  0  0  0105  0  0
  -22.7412  -29.4652   22.5052 C   0  0  0  0  0  0  0  0  0106  0  0
  -18.0167  -28.1302   22.8626 C   0  0  0  0  0  0  0  0  0107  0  0
  -24.1342  -36.7390   23.2568 C   0  0  0  0  0  0  0  0  0108  0  0
  -25.9141  -30.8882   21.3456 C   0  0  0  0  0  0  0  0  0109  0  0
  -25.9930  -29.5029   20.7208 C   0  0  0  0  0  0  0  0  0110  0  0
  -27.1758  -28.7612   20.7331 C   0  0  0  0  0  0  0  0  0111  0  0
  -26.1032  -26.9836   19.5230 C   0  0  0  0  0  0  0  0  0112  0  0
  -24.9097  -27.7011   19.5331 C   0  0  0  0  0  0  0  0  0113  0  0
  -23.5715  -29.7899   20.1582 C   0  0  0  0  0  0  0  0  0114  0  0
  -25.3990  -36.3212   24.0232 C   0  0  1  0  0  0  0  0  0115  0  0
  -20.5793  -28.3813   23.1004 C   0  0  2  0  0  0  0  0  0116  0  0
  -20.6548  -26.9392   22.5411 C   0  0  0  0  0  0  0  0  0117  0  0
  -19.5615  -26.6407   21.5143 C   0  0  0  0  0  0  0  0  0118  0  0
  -18.1797  -26.7818   22.1673 C   0  0  0  0  0  0  0  0  0119  0  0
  -19.1385  -28.8769   23.2988 C   0  0  0  0  0  0  0  0  0120  0  0
  -18.9183  -30.1286   23.8878 C   0  0  0  0  0  0  0  0  0121  0  0
  -17.6396  -30.6493   24.0352 C   0  0  0  0  0  0  0  0  0122  0  0
  -25.9153  -34.9582   23.4993 C   0  0  0  0  0  0  0  0  0123  0  0
  -16.5415  -29.9068   23.6254 C   0  0  0  0  0  0  0  0  0124  0  0
  -16.7331  -28.6521   23.0586 C   0  0  0  0  0  0  0  0  0125  0  0
  -26.4583  -31.6439   25.0683 C   0  0  0  0  0  0  0  0  0126  0  0
  -25.3807  -31.3179   26.1374 C   0  0  0  0  0  0  0  0  0127  0  0
  -27.0530  -30.3024   24.5680 C   0  0  0  0  0  0  0  0  0128  0  0
  -27.6014  -32.4281   25.7651 C   0  0  0  0  0  0  0  0  0129  0  0
  -27.5629  -37.2220   24.8621 C   0  0  0  0  0  0  0  0  0130  0  0
  -21.4133  -29.3375   22.3735 N   0  0  0  0  0  0  0  0  0131  0  0
  -26.4706  -37.3372   23.9061 N   0  0  0  0  0  0  0  0  0132  0  0
  -24.6674  -31.0544   22.1178 N   0  0  0  0  0  0  0  0  0133  0  0
  -23.4259  -28.8150   23.2971 O   0  0  0  0  0  0  0  0  0134  0  0
  -28.3948  -26.7345   20.0089 O   0  0  0  0  0  0  0  0  0135  0  0
  -26.5870  -34.9065   22.4671 O   0  0  0  0  0  0  0  0  0136  0  0
  -23.5365  -32.1254   23.7833 O   0  0  0  0  0  0  0  0  0137  0  0
  -30.1005  -17.4127   23.0224 C   0  0  0  0  0  0  0  0  0  0  0  0
  -32.0870  -17.0194   21.7751 C   0  0  0  0  0  0  0  0  0  0  0  0
  -30.8110  -16.6146   22.1327 C   0  0  0  0  0  0  0  0  0  0  0  0
  -30.6795  -18.5747   23.5202 C   0  0  0  0  0  0  0  0  0  0  0  0
  -31.9614  -18.8916   23.1007 C   0  0  0  0  0  0  0  0  0  0  0  0
  -28.2410  -20.2379   25.8538 C   0  0  0  0  0  0  0  0  0  0  0  0
  -28.6866  -19.1591   24.9092 C   0  0  0  0  0  0  0  0  0  0  0  0
  -27.4804  -21.3940   25.2422 C   0  0  0  0  0  0  0  0  0  0  0  0
  -28.2970  -22.1284   24.1895 C   0  0  0  0  0  0  0  0  0  1  0  0
  -32.6826  -18.1413   22.2378 N   0  0  0  0  0  0  0  0  0  0  0  0
  -32.5596  -20.0749   23.6027 N   0  0  0  0  0  0  0  0  0  0  0  0
  -29.9568  -19.3867   24.4252 N   0  0  0  0  0  0  0  0  0  0  0  0
  -30.2485  -15.4245   21.6086 N   0  0  0  0  0  0  0  0  0  0  0  0
  -28.5148  -20.0948   27.0358 O   0  0  0  0  0  0  0  0  0  0  0  0
  -27.9055  -18.2415   24.7205 O   0  0  0  0  0  0  0  0  0  0  0  0
  -31.4485  -12.4701   19.0860 H   0  0  0  0  0  0  0  0  0  0  0  0
  -30.3970  -11.2460   19.6950 H   0  0  0  0  0  0  0  0  0  0  0  0
  -29.6870  -11.8204   17.4226 H   0  0  0  0  0  0  0  0  0  0  0  0
  -29.6375  -13.5326   17.8649 H   0  0  0  0  0  0  0  0  0  0  0  0
  -27.7830  -11.3650   18.7904 H   0  0  0  0  0  0  0  0  0  0  0  0
  -27.4028  -12.7801   17.8021 H   0  0  0  0  0  0  0  0  0  0  0  0
  -27.7353  -14.2503   19.6136 H   0  0  0  0  0  0  0  0  0  0  0  0
  -28.5890  -11.9550   21.3832 H   0  0  0  0  0  0  0  0  0  0  0  0
  -28.5005  -13.6134   21.8562 H   0  0  0  0  0  0  0  0  0  0  0  0
  -25.2399   -9.5495   22.4318 H   0  0  0  0  0  0  0  0  0  0  0  0
  -23.9663   -7.5070   22.7297 H   0  0  0  0  0  0  0  0  0  0  0  0
  -21.1515   -8.8641   19.9162 H   0  0  0  0  0  0  0  0  0  0  0  0
  -22.4016  -10.9115   19.6476 H   0  0  0  0  0  0  0  0  0  0  0  0
  -21.2319   -7.5552   23.9750 H   0  0  0  0  0  0  0  0  0  0  0  0
  -21.1589   -6.0228   25.8556 H   0  0  0  0  0  0  0  0  0  0  0  0
  -22.0396   -2.8212   23.2809 H   0  0  0  0  0  0  0  0  0  0  0  0
  -22.4401  -11.9703   22.4008 H   0  0  0  0  0  0  0  0  0  0  0  0
  -21.1493  -13.0679   22.2082 H   0  0  0  0  0  0  0  0  0  0  0  0
  -24.6538  -15.7807   20.5848 H   0  0  0  0  0  0  0  0  0  0  0  0
  -26.2762  -15.5453   20.1156 H   0  0  0  0  0  0  0  0  0  0  0  0
  -26.6778  -32.4663   23.1464 H   0  0  0  0  0  0  0  0  0  0  0  0
  -25.0747  -34.0282   25.0566 H   0  0  0  0  0  0  0  0  0  0  0  0
  -22.7881  -31.3489   21.4131 H   0  0  0  0  0  0  0  0  0  0  0  0
  -23.3854  -35.9823   23.3648 H   0  0  0  0  0  0  0  0  0  0  0  0
  -24.3696  -36.8624   22.2204 H   0  0  0  0  0  0  0  0  0  0  0  0
  -23.7669  -37.6632   23.6516 H   0  0  0  0  0  0  0  0  0  0  0  0
  -25.9445  -31.6237   20.5691 H   0  0  0  0  0  0  0  0  0  0  0  0
  -26.7436  -31.0079   22.0108 H   0  0  0  0  0  0  0  0  0  0  0  0
  -28.0090  -29.1452   21.2057 H   0  0  0  0  0  0  0  0  0  0  0  0
  -26.1369  -26.0560   19.0719 H   0  0  0  0  0  0  0  0  0  0  0  0
  -24.0652  -27.2961   19.0997 H   0  0  0  0  0  0  0  0  0  0  0  0
  -23.6156  -30.5365   19.3930 H   0  0  0  0  0  0  0  0  0  0  0  0
  -22.7355  -29.1425   19.9945 H   0  0  0  0  0  0  0  0  0  0  0  0
  -25.1353  -36.2335   25.0565 H   0  0  0  0  0  0  0  0  0  0  0  0
  -21.0070  -28.3206   24.0793 H   0  0  0  0  0  0  0  0  0  0  0  0
  -20.5555  -26.2518   23.3550 H   0  0  0  0  0  0  0  0  0  0  0  0
  -21.5974  -26.8362   22.0454 H   0  0  0  0  0  0  0  0  0  0  0  0
  -19.6810  -25.6422   21.1488 H   0  0  0  0  0  0  0  0  0  0  0  0
  -19.6406  -27.3343   20.7034 H   0  0  0  0  0  0  0  0  0  0  0  0
  -17.4282  -26.6888   21.4113 H   0  0  0  0  0  0  0  0  0  0  0  0
  -18.0803  -26.0130   22.9049 H   0  0  0  0  0  0  0  0  0  0  0  0
  -19.7265  -30.6774   24.2204 H   0  0  0  0  0  0  0  0  0  0  0  0
  -17.5064  -31.5856   24.4483 H   0  0  0  0  0  0  0  0  0  0  0  0
  -15.5878  -30.2839   23.7407 H   0  0  0  0  0  0  0  0  0  0  0  0
  -15.9120  -28.0941   22.7766 H   0  0  0  0  0  0  0  0  0  0  0  0
  -24.5787  -30.7757   25.6817 H   0  0  0  0  0  0  0  0  0  0  0  0
  -25.0041  -32.2289   26.5536 H   0  0  0  0  0  0  0  0  0  0  0  0
  -25.8166  -30.7245   26.9138 H   0  0  0  0  0  0  0  0  0  0  0  0
  -26.2892  -29.7335   24.0803 H   0  0  0  0  0  0  0  0  0  0  0  0
  -27.4336  -29.7484   25.4006 H   0  0  0  0  0  0  0  0  0  0  0  0
  -27.8466  -30.4994   23.8779 H   0  0  0  0  0  0  0  0  0  0  0  0
  -27.2251  -33.3632   26.1242 H   0  0  0  0  0  0  0  0  0  0  0  0
  -28.3902  -32.6065   25.0645 H   0  0  0  0  0  0  0  0  0  0  0  0
  -27.9772  -31.8555   26.5872 H   0  0  0  0  0  0  0  0  0  0  0  0
  -28.2744  -38.0016   24.6863 H   0  0  0  0  0  0  0  0  0  0  0  0
  -28.0396  -36.2711   24.7461 H   0  0  0  0  0  0  0  0  0  0  0  0
  -27.1773  -37.3087   25.8564 H   0  0  0  0  0  0  0  0  0  0  0  0
  -20.9627  -29.9365   21.7352 H   0  0  0  0  0  0  0  0  0  0  0  0
  -26.0447  -38.2561   24.0273 H   0  0  0  0  0  0  0  0  0  0  0  0
  -29.1472  -17.1437   23.3121 H   0  0  0  0  0  0  0  0  0  0  0  0
  -32.6153  -16.4279   21.1148 H   0  0  0  0  0  0  0  0  0  0  0  0
  -27.2192  -22.0831   26.0179 H   0  0  0  0  0  0  0  0  0  0  0  0
  -26.6097  -20.9970   24.7635 H   0  0  0  0  0  0  0  0  0  0  0  0
  -28.5554  -21.3055   23.5563 H   0  0  0  0  0  0  0  0  0  0  0  0
  -28.6634  -22.7986   24.9389 H   0  0  0  0  0  0  0  0  0  0  0  0
  -32.0653  -20.6471   24.2332 H   0  0  0  0  0  0  0  0  0  0  0  0
  -33.4693  -20.3244   23.3208 H   0  0  0  0  0  0  0  0  0  0  0  0
  -30.4093  -20.2012   24.7432 H   0  0  0  0  0  0  0  0  0  0  0  0
  -29.3317  -15.2540   21.9244 H   0  0  0  0  0  0  0  0  0  0  0  0
  1 25  1  0
  1 30  2  0
  1 83  1  0
  2  3  1  0
  2 25  1  0
  2 86  1  0
  2 87  1  0
  3  4  1  0
  3 88  1  0
  3 89  1  0
  4  5  1  0
  4 90  1  0
  4 91  1  0
  5  6  1  0
  5 26  1  0
  5 92  1  6
  6 25  1  0
  6 93  1  0
  6 94  1  0
  7  8  2  0
  7 26  1  0
  7 29  1  0
  8  9  1  0
  8 22  1  0
  9 10  1  0
  9 27  2  0
 10 11  2  0
 10 15  1  0
 11 12  1  0
 11 95  1  0
 12 13  2  0
 12 96  1  0
 13 14  1  0
 13 31  1  0
 14 15  2  0
 14 97  1  0
 15 98  1  0
 16 17  2  0
 16 21  1  0
 16 31  1  0
 17 18  1  0
 17 99  1  0
 18 19  2  0
 18100  1  0
 19 20  1  0
 19 24  1  0
 20 21  2  0
 20101  1  0
 21 23  1  0
 22 28  1  0
 22 32  2  0
 26 27  1  0
 28102  1  0
 28103  1  0
 29104  1  0
 29105  1  0
 33 34  1  0
 33 66  1  0
 33 70  2  0
 34 36  1  0
 34 59  1  0
 34106  1  6
 35 44  2  0
 35 45  1  0
 35 68  1  0
 36 56  1  0
 36107  1  0
 37 39  1  0
 37 47  1  0
 37 66  1  0
 37108  1  6
 38 43  2  0
 38 46  1  0
 38 47  1  0
 39 64  1  0
 39 67  2  0
 40 52  1  0
 40 53  2  0
 40 58  1  0
 41109  1  0
 41110  1  0
 41111  1  0
 42 43  1  0
 42 66  1  0
 42112  1  0
 42113  1  0
 43 44  1  0
 44114  1  0
 45 46  2  0
 45115  1  0
 46116  1  0
 47117  1  0
 47118  1  0
 48 41  1  0
 48 56  1  0
 48 65  1  0
 48119  1  1
 49 50  1  0
 49 53  1  0
 49 64  1  0
 49120  1  1
 50 51  1  0
 50121  1  0
 50122  1  0
 51 52  1  0
 51123  1  0
 51124  1  0
 52125  1  0
 52126  1  0
 53 54  1  0
 54 55  2  0
 54127  1  0
 55 57  1  0
 55128  1  0
 56 69  2  0
 57 58  2  0
 57129  1  0
 58130  1  0
 59 60  1  0
 59 61  1  0
 59 62  1  0
 60131  1  0
 60132  1  0
 60133  1  0
 61134  1  0
 61135  1  0
 61136  1  0
 62137  1  0
 62138  1  0
 62139  1  0
 63 65  1  0
 63140  1  0
 63141  1  0
 63142  1  0
 64143  1  0
 65144  1  0
 68 79  1  0
 71 73  2  0
 71 74  1  0
 71145  1  0
 72 73  1  0
 72 80  2  0
 72146  1  0
 73 83  1  0
 74 75  2  0
 74 82  1  0
 75 80  1  0
 75 81  1  0
 76 77  1  0
 76 78  1  0
 76 84  2  0
 77 82  1  0
 77 85  2  0
 78 79  1  0
 78147  1  0
 78148  1  0
 79149  1  0
 79150  1  0
 81151  1  0
 81152  1  0
 82153  1  0
 83154  1  0
M  ISO  4   1 100  68 101  79 101  83 100
M  END
$$$$
85
     RDKit          3D

152160  0  0  0  0  0  0  0  0999 V2000
  -30.7652  -14.3608   20.6636 C   0  0  0  0  0  0  0  0  0100  0  0
  -30.4392  -12.2669   19.3775 C   0  0  0  0  0  0  0  0  0101  0  0
  -29.4791  -12.5281   18.1977 C   0  0  0  0  0  0  0  0  0102  0  0
  -27.9985  -12.3963   18.6038 C   0  0  0  0  0  0  0  0  0103  0  0
  -27.6639  -13.2170   19.8820 C   0  0  2  0  0  0  0  0  0104  0  0
  -28.6795  -12.9602   21.0279 C   0  0  0  0  0  0  0  0  0105  0  0
  -25.2633  -13.8245   20.5754 C   0  0  0  0  0  0  0  0  0106  0  0
  -24.1645  -13.0409   20.9408 C   0  0  0  0  0  0  0  0  0107  0  0
  -24.6400  -11.7009   20.8697 C   0  0  0  0  0  0  0  0  0108  0  0
  -23.9005  -10.4085   21.0420 C   0  0  0  0  0  0  0  0  0109  0  0
  -24.3588   -9.4123   21.9123 C   0  0  0  0  0  0  0  0  0110  0  0
  -23.6296   -8.2350   22.0803 C   0  0  0  0  0  0  0  0  0111  0  0
  -22.4385   -8.0419   21.3657 C   0  0  0  0  0  0  0  0  0112  0  0
  -22.0103   -9.0167   20.4678 C   0  0  0  0  0  0  0  0  0113  0  0
  -22.7317  -10.1925   20.3102 C   0  0  0  0  0  0  0  0  0114  0  0
  -21.6857   -6.0709   22.5391 C   0  0  0  0  0  0  0  0  0115  0  0
  -21.4064   -6.5490   23.8264 C   0  0  0  0  0  0  0  0  0116  0  0
  -21.3635   -5.6677   24.9085 C   0  0  0  0  0  0  0  0  0117  0  0
  -21.5973   -4.3067   24.7088 C   0  0  0  0  0  0  0  0  0118  0  0
  -21.8700   -3.8284   23.4282 C   0  0  0  0  0  0  0  0  0119  0  0
  -21.9144   -4.7056   22.3460 C   0  0  0  0  0  0  0  0  0120  0  0
  -22.8194  -13.5263   21.1763 C   0  0  0  0  0  0  0  0  0121  0  0
  -22.1559   -4.2206   21.1063 F   0  0  0  0  0  0  0  0  0122  0  0
  -21.5628   -3.4510   25.7555 F   0  0  0  0  0  0  0  0  0123  0  0
  -30.0261  -13.1803   20.4553 N   0  0  0  0  0  0  0  0  0124  0  0
  -26.2911  -12.9356   20.3443 N   0  0  0  0  0  0  0  0  0125  0  0
  -25.9236  -11.6675   20.5847 N   0  0  0  0  0  0  0  0  0126  0  0
  -22.0708  -12.7905   22.0005 N   0  0  0  0  0  0  0  0  0127  0  0
  -25.4117  -15.1773   20.4097 N   0  0  0  0  0  0  0  0  0128  0  0
  -31.7916  -14.6724   20.0536 O   0  0  0  0  0  0  0  0  0129  0  0
  -21.6670   -6.9022   21.4423 O   0  0  0  0  0  0  0  0  0130  0  0
  -22.3946  -14.5564   20.6568 O   0  0  0  0  0  0  0  0  0131  0  0
  -24.6048  -31.8614   23.2223 C   0  0  0  0  0  0  0  0  0100  0  0
  -25.8822  -32.4841   23.8616 C   0  0  1  0  0  0  0  0  0101  0  0
  -27.2536  -27.5042   20.1156 C   0  0  0  0  0  0  0  0  0102  0  0
  -25.5726  -33.8762   24.2210 N   0  0  0  0  0  0  0  0  0103  0  0
  -23.4066  -30.4859   21.5461 C   0  0  2  0  0  0  0  0  0104  0  0
  -24.8467  -28.9636   20.1247 C   0  0  0  0  0  0  0  0  0105  0  0
  -22.7412  -29.4652   22.5052 C   0  0  0  0  0  0  0  0  0106  0  0
  -18.0167  -28.1302   22.8626 C   0  0  0  0  0  0  0  0  0107  0  0
  -24.1342  -36.7390   23.2568 C   0  0  0  0  0  0  0  0  0108  0  0
  -25.9141  -30.8882   21.3456 C   0  0  0  0  0  0  0  0  0109  0  0
  -25.9930  -29.5029   20.7208 C   0  0  0  0  0  0  0  0  0110  0  0
  -27.1758  -28.7612   20.7331 C   0  0  0  0  0  0  0  0  0111  0  0
  -26.1032  -26.9836   19.5230 C   0  0  0  0  0  0  0  0  0112  0  0
  -24.9097  -27.7011   19.5331 C   0  0  0  0  0  0  0  0  0113  0  0
  -23.5715  -29.7899   20.1582 C   0  0  0  0  0  0  0  0  0114  0  0
  -25.3990  -36.3212   24.0232 C   0  0  1  0  0  0  0  0  0115  0  0
  -20.5793  -28.3813   23.1004 C   0  0  2  0  0  0  0  0  0116  0  0
  -20.6548  -26.9392   22.5411 C   0  0  0  0  0  0  0  0  0117  0  0
  -19.5615  -26.6407   21.5143 C   0  0  0  0  0  0  0  0  0118  0  0
  -18.1797  -26.7818   22.1673 C   0  0  0  0  0  0  0  0  0119  0  0
  -19.1385  -28.8769   23.2988 C   0  0  0  0  0  0  0  0  0120  0  0
  -18.9183  -30.1286   23.8878 C   0  0  0  0  0  0  0  0  0121  0  0
  -17.6396  -30.6493   24.0352 C   0  0  0  0  0  0  0  0  0122  0  0
  -25.9153  -34.9582   23.4993 C   0  0  0  0  0  0  0  0  0123  0  0
  -16.5415  -29.9068   23.6254 C   0  0  0  0  0  0  0  0  0124  0  0
  -16.7331  -28.6521   23.0586 C   0  0  0  0  0  0  0  0  0125  0  0
  -26.4583  -31.6439   25.0683 C   0  0  0  0  0  0  0  0  0126  0  0
  -25.3807  -31.3179   26.1374 C   0  0  0  0  0  0  0  0  0127  0  0
  -27.0530  -30.3024   24.5680 C   0  0  0  0  0  0  0  0  0128  0  0
  -27.6014  -32.4281   25.7651 C   0  0  0  0  0  0  0  0  0129  0  0
  -27.5629  -37.2220   24.8621 C   0  0  0  0  0  0  0  0  0130  0  0
  -21.4133  -29.3375   22.3735 N   0  0  0  0  0  0  0  0  0131  0  0
  -26.4706  -37.3372   23.9061 N   0  0  0  0  0  0  0  0  0132  0  0
  -24.6674  -31.0544   22.1178 N   0  0  0  0  0  0  0  0  0133  0  0
  -23.4259  -28.8150   23.2971 O   0  0  0  0  0  0  0  0  0134  0  0
  -28.3948  -26.7345   20.0089 O   0  0  0  0  0  0  0  0  0135  0  0
  -26.5870  -34.9065   22.4671 O   0  0  0  0  0  0  0  0  0136  0  0
  -23.5365  -32.1254   23.7833 O   0  0  0  0  0  0  0  0  0137  0  0
  -26.3327  -18.2855   18.7925 C   0  0  0  0  0  0  0  0  0  0  0  0
  -28.1654  -20.2696   19.1800 C   0  0  0  0  0  0  0  0  0  0  0  0
  -26.0847  -19.5532   18.2779 C   0  0  0  0  0  0  0  0  0  0  0  0
  -27.0135  -20.5697   18.4709 C   0  0  0  0  0  0  0  0  0  0  0  0
  -27.5152  -18.0876   19.4870 C   0  0  0  0  0  0  0  0  0  0  0  0
  -27.3746  -25.4009   17.9149 C   0  0  0  0  0  0  0  0  0  1  0  0
  -27.0745  -24.1911   17.4274 C   0  0  0  0  0  0  0  0  0  0  0  0
  -27.6456  -22.9757   18.0945 C   0  0  0  0  0  0  0  0  0  0  0  0
  -24.8175  -19.7952   17.5252 C   0  0  0  0  0  0  0  0  0  0  0  0
  -28.4412  -19.0504   19.6949 N   0  0  0  0  0  0  0  0  0  0  0  0
  -26.8055  -21.8777   17.9707 N   0  0  0  0  0  0  0  0  0  0  0  0
  -27.7583  -16.7934   20.0102 N   0  0  0  0  0  0  0  0  0  0  0  0
  -28.7314  -23.0207   18.6628 O   0  0  0  0  0  0  0  0  0  0  0  0
  -26.2553  -24.0151   16.3307 O   0  0  0  0  0  0  0  0  0  0  0  0
  -25.0813  -20.2179   16.2617 F   0  0  0  0  0  0  0  0  0  0  0  0
  -24.0869  -20.7756   18.1164 F   0  0  0  0  0  0  0  0  0  0  0  0
  -31.4485  -12.4701   19.0860 H   0  0  0  0  0  0  0  0  0  0  0  0
  -30.3970  -11.2460   19.6950 H   0  0  0  0  0  0  0  0  0  0  0  0
  -29.6870  -11.8204   17.4226 H   0  0  0  0  0  0  0  0  0  0  0  0
  -29.6375  -13.5326   17.8649 H   0  0  0  0  0  0  0  0  0  0  0  0
  -27.7830  -11.3650   18.7904 H   0  0  0  0  0  0  0  0  0  0  0  0
  -27.4028  -12.7801   17.8021 H   0  0  0  0  0  0  0  0  0  0  0  0
  -27.7353  -14.2503   19.6136 H   0  0  0  0  0  0  0  0  0  0  0  0
  -28.5890  -11.9550   21.3832 H   0  0  0  0  0  0  0  0  0  0  0  0
  -28.5005  -13.6134   21.8562 H   0  0  0  0  0  0  0  0  0  0  0  0
  -25.2399   -9.5495   22.4318 H   0  0  0  0  0  0  0  0  0  0  0  0
  -23.9663   -7.5070   22.7297 H   0  0  0  0  0  0  0  0  0  0  0  0
  -21.1515   -8.8641   19.9162 H   0  0  0  0  0  0  0  0  0  0  0  0
  -22.4016  -10.9115   19.6476 H   0  0  0  0  0  0  0  0  0  0  0  0
  -21.2319   -7.5552   23.9750 H   0  0  0  0  0  0  0  0  0  0  0  0
  -21.1589   -6.0228   25.8556 H   0  0  0  0  0  0  0  0  0  0  0  0
  -22.0396   -2.8212   23.2809 H   0  0  0  0  0  0  0  0  0  0  0  0
  -22.4401  -11.9703   22.4008 H   0  0  0  0  0  0  0  0  0  0  0  0
  -21.1493  -13.0679   22.2082 H   0  0  0  0  0  0  0  0  0  0  0  0
  -24.6538  -15.7807   20.5848 H   0  0  0  0  0  0  0  0  0  0  0  0
  -26.2762  -15.5453   20.1156 H   0  0  0  0  0  0  0  0  0  0  0  0
  -26.6778  -32.4663   23.1464 H   0  0  0  0  0  0  0  0  0  0  0  0
  -25.0747  -34.0282   25.0566 H   0  0  0  0  0  0  0  0  0  0  0  0
  -22.7881  -31.3489   21.4131 H   0  0  0  0  0  0  0  0  0  0  0  0
  -23.3854  -35.9823   23.3648 H   0  0  0  0  0  0  0  0  0  0  0  0
  -24.3696  -36.8624   22.2204 H   0  0  0  0  0  0  0  0  0  0  0  0
  -23.7669  -37.6632   23.6516 H   0  0  0  0  0  0  0  0  0  0  0  0
  -25.9445  -31.6237   20.5691 H   0  0  0  0  0  0  0  0  0  0  0  0
  -26.7436  -31.0079   22.0108 H   0  0  0  0  0  0  0  0  0  0  0  0
  -28.0090  -29.1452   21.2057 H   0  0  0  0  0  0  0  0  0  0  0  0
  -26.1369  -26.0560   19.0719 H   0  0  0  0  0  0  0  0  0  0  0  0
  -24.0652  -27.2961   19.0997 H   0  0  0  0  0  0  0  0  0  0  0  0
  -23.6156  -30.5365   19.3930 H   0  0  0  0  0  0  0  0  0  0  0  0
  -22.7355  -29.1425   19.9945 H   0  0  0  0  0  0  0  0  0  0  0  0
  -25.1353  -36.2335   25.0565 H   0  0  0  0  0  0  0  0  0  0  0  0
  -21.0070  -28.3206   24.0793 H   0  0  0  0  0  0  0  0  0  0  0  0
  -20.5555  -26.2518   23.3550 H   0  0  0  0  0  0  0  0  0  0  0  0
  -21.5974  -26.8362   22.0454 H   0  0  0  0  0  0  0  0  0  0  0  0
  -19.6810  -25.6422   21.1488 H   0  0  0  0  0  0  0  0  0  0  0  0
  -19.6406  -27.3343   20.7034 H   0  0  0  0  0  0  0  0  0  0  0  0
  -17.4282  -26.6888   21.4113 H   0  0  0  0  0  0  0  0  0  0  0  0
  -18.0803  -26.0130   22.9049 H   0  0  0  0  0  0  0  0  0  0  0  0
  -19.7265  -30.6774   24.2204 H   0  0  0  0  0  0  0  0  0  0  0  0
  -17.5064  -31.5856   24.4483 H   0  0  0  0  0  0  0  0  0  0  0  0
  -15.5878  -30.2839   23.7407 H   0  0  0  0  0  0  0  0  0  0  0  0
  -15.9120  -28.0941   22.7766 H   0  0  0  0  0  0  0  0  0  0  0  0
  -24.5787  -30.7757   25.6817 H   0  0  0  0  0  0  0  0  0  0  0  0
  -25.0041  -32.2289   26.5536 H   0  0  0  0  0  0  0  0  0  0  0  0
  -25.8166  -30.7245   26.9138 H   0  0  0  0  0  0  0  0  0  0  0  0
  -26.2892  -29.7335   24.0803 H   0  0  0  0  0  0  0  0  0  0  0  0
  -27.4336  -29.7484   25.4006 H   0  0  0  0  0  0  0  0  0  0  0  0
  -27.8466  -30.4994   23.8779 H   0  0  0  0  0  0  0  0  0  0  0  0
  -27.2251  -33.3632   26.1242 H   0  0  0  0  0  0  0  0  0  0  0  0
  -28.3902  -32.6065   25.0645 H   0  0  0  0  0  0  0  0  0  0  0  0
  -27.9772  -31.8555   26.5872 H   0  0  0  0  0  0  0  0  0  0  0  0
  -28.2744  -38.0016   24.6863 H   0  0  0  0  0  0  0  0  0  0  0  0
  -28.0396  -36.2711   24.7461 H   0  0  0  0  0  0  0  0  0  0  0  0
  -27.1773  -37.3087   25.8564 H   0  0  0  0  0  0  0  0  0  0  0  0
  -20.9627  -29.9365   21.7352 H   0  0  0  0  0  0  0  0  0  0  0  0
  -26.0447  -38.2561   24.0273 H   0  0  0  0  0  0  0  0  0  0  0  0
  -25.6573  -17.5163   18.6613 H   0  0  0  0  0  0  0  0  0  0  0  0
  -28.8555  -21.0233   19.3240 H   0  0  0  0  0  0  0  0  0  0  0  0
  -27.1076  -26.0981   17.2025 H   0  0  0  0  0  0  0  0  0  0  0  0
  -24.2811  -18.8694   17.5157 H   0  0  0  0  0  0  0  0  0  0  0  0
  -25.9666  -22.0259   17.4772 H   0  0  0  0  0  0  0  0  0  0  0  0
  -26.9137  -16.3772   20.2979 H   0  0  0  0  0  0  0  0  0  0  0  0
  -25.8866  -24.7594   15.8971 H   0  0  0  0  0  0  0  0  0  0  0  0
  1 25  1  0
  1 30  2  0
  1 82  1  0
  2  3  1  0
  2 25  1  0
  2 87  1  0
  2 88  1  0
  3  4  1  0
  3 89  1  0
  3 90  1  0
  4  5  1  0
  4 91  1  0
  4 92  1  0
  5  6  1  0
  5 26  1  0
  5 93  1  6
  6 25  1  0
  6 94  1  0
  6 95  1  0
  7  8  2  0
  7 26  1  0
  7 29  1  0
  8  9  1  0
  8 22  1  0
  9 10  1  0
  9 27  2  0
 10 11  2  0
 10 15  1  0
 11 12  1  0
 11 96  1  0
 12 13  2  0
 12 97  1  0
 13 14  1  0
 13 31  1  0
 14 15  2  0
 14 98  1  0
 15 99  1  0
 16 17  2  0
 16 21  1  0
 16 31  1  0
 17 18  1  0
 17100  1  0
 18 19  2  0
 18101  1  0
 19 20  1  0
 19 24  1  0
 20 21  2  0
 20102  1  0
 21 23  1  0
 22 28  1  0
 22 32  2  0
 26 27  1  0
 28103  1  0
 28104  1  0
 29105  1  0
 29106  1  0
 33 34  1  0
 33 66  1  0
 33 70  2  0
 34 36  1  0
 34 59  1  0
 34107  1  6
 35 44  2  0
 35 45  1  0
 35 68  1  0
 36 56  1  0
 36108  1  0
 37 39  1  0
 37 47  1  0
 37 66  1  0
 37109  1  6
 38 43  2  0
 38 46  1  0
 38 47  1  0
 39 64  1  0
 39 67  2  0
 40 52  1  0
 40 53  2  0
 40 58  1  0
 41110  1  0
 41111  1  0
 41112  1  0
 42 43  1  0
 42 66  1  0
 42113  1  0
 42114  1  0
 43 44  1  0
 44115  1  0
 45 46  2  0
 45116  1  0
 46117  1  0
 47118  1  0
 47119  1  0
 48 41  1  0
 48 56  1  0
 48 65  1  0
 48120  1  1
 49 50  1  0
 49 53  1  0
 49 64  1  0
 49121  1  1
 50 51  1  0
 50122  1  0
 50123  1  0
 51 52  1  0
 51124  1  0
 51125  1  0
 52126  1  0
 52127  1  0
 53 54  1  0
 54 55  2  0
 54128  1  0
 55 57  1  0
 55129  1  0
 56 69  2  0
 57 58  2  0
 57130  1  0
 58131  1  0
 59 60  1  0
 59 61  1  0
 59 62  1  0
 60132  1  0
 60133  1  0
 60134  1  0
 61135  1  0
 61136  1  0
 61137  1  0
 62138  1  0
 62139  1  0
 62140  1  0
 63 65  1  0
 63141  1  0
 63142  1  0
 63143  1  0
 64144  1  0
 65145  1  0
 68 76  1  0
 71 73  2  0
 71 75  1  0
 71146  1  0
 72 74  2  0
 72 80  1  0
 72147  1  0
 73 74  1  0
 73 79  1  0
 74 81  1  0
 75 80  2  0
 75 82  1  0
 76 77  2  0
 76148  1  0
 77 78  1  0
 77 84  1  0
 78 81  1  0
 78 83  2  0
 79 85  1  0
 79 86  1  0
 79149  1  0
 81150  1  0
 82151  1  0
 84152  1  0
M  ISO  4   1 100  68 101  76 101  82 100
M  END
$$$$
86
     RDKit          3D

151159  0  0  0  0  0  0  0  0999 V2000
  -30.7652  -14.3608   20.6636 C   0  0  0  0  0  0  0  0  0100  0  0
  -30.4392  -12.2669   19.3775 C   0  0  0  0  0  0  0  0  0101  0  0
  -29.4791  -12.5281   18.1977 C   0  0  0  0  0  0  0  0  0102  0  0
  -27.9985  -12.3963   18.6038 C   0  0  0  0  0  0  0  0  0103  0  0
  -27.6639  -13.2170   19.8820 C   0  0  2  0  0  0  0  0  0104  0  0
  -28.6795  -12.9602   21.0279 C   0  0  0  0  0  0  0  0  0105  0  0
  -25.2633  -13.8245   20.5754 C   0  0  0  0  0  0  0  0  0106  0  0
  -24.1645  -13.0409   20.9408 C   0  0  0  0  0  0  0  0  0107  0  0
  -24.6400  -11.7009   20.8697 C   0  0  0  0  0  0  0  0  0108  0  0
  -23.9005  -10.4085   21.0420 C   0  0  0  0  0  0  0  0  0109  0  0
  -24.3588   -9.4123   21.9123 C   0  0  0  0  0  0  0  0  0110  0  0
  -23.6296   -8.2350   22.0803 C   0  0  0  0  0  0  0  0  0111  0  0
  -22.4385   -8.0419   21.3657 C   0  0  0  0  0  0  0  0  0112  0  0
  -22.0103   -9.0167   20.4678 C   0  0  0  0  0  0  0  0  0113  0  0
  -22.7317  -10.1925   20.3102 C   0  0  0  0  0  0  0  0  0114  0  0
  -21.6857   -6.0709   22.5391 C   0  0  0  0  0  0  0  0  0115  0  0
  -21.4064   -6.5490   23.8264 C   0  0  0  0  0  0  0  0  0116  0  0
  -21.3635   -5.6677   24.9085 C   0  0  0  0  0  0  0  0  0117  0  0
  -21.5973   -4.3067   24.7088 C   0  0  0  0  0  0  0  0  0118  0  0
  -21.8700   -3.8284   23.4282 C   0  0  0  0  0  0  0  0  0119  0  0
  -21.9144   -4.7056   22.3460 C   0  0  0  0  0  0  0  0  0120  0  0
  -22.8194  -13.5263   21.1763 C   0  0  0  0  0  0  0  0  0121  0  0
  -22.1559   -4.2206   21.1063 F   0  0  0  0  0  0  0  0  0122  0  0
  -21.5628   -3.4510   25.7555 F   0  0  0  0  0  0  0  0  0123  0  0
  -30.0261  -13.1803   20.4553 N   0  0  0  0  0  0  0  0  0124  0  0
  -26.2911  -12.9356   20.3443 N   0  0  0  0  0  0  0  0  0125  0  0
  -25.9236  -11.6675   20.5847 N   0  0  0  0  0  0  0  0  0126  0  0
  -22.0708  -12.7905   22.0005 N   0  0  0  0  0  0  0  0  0127  0  0
  -25.4117  -15.1773   20.4097 N   0  0  0  0  0  0  0  0  0128  0  0
  -31.7916  -14.6724   20.0536 O   0  0  0  0  0  0  0  0  0129  0  0
  -21.6670   -6.9022   21.4423 O   0  0  0  0  0  0  0  0  0130  0  0
  -22.3946  -14.5564   20.6568 O   0  0  0  0  0  0  0  0  0131  0  0
  -24.6048  -31.8614   23.2223 C   0  0  0  0  0  0  0  0  0100  0  0
  -25.8822  -32.4841   23.8616 C   0  0  1  0  0  0  0  0  0101  0  0
  -27.2536  -27.5042   20.1156 C   0  0  0  0  0  0  0  0  0102  0  0
  -25.5726  -33.8762   24.2210 N   0  0  0  0  0  0  0  0  0103  0  0
  -23.4066  -30.4859   21.5461 C   0  0  2  0  0  0  0  0  0104  0  0
  -24.8467  -28.9636   20.1247 C   0  0  0  0  0  0  0  0  0105  0  0
  -22.7412  -29.4652   22.5052 C   0  0  0  0  0  0  0  0  0106  0  0
  -18.0167  -28.1302   22.8626 C   0  0  0  0  0  0  0  0  0107  0  0
  -24.1342  -36.7390   23.2568 C   0  0  0  0  0  0  0  0  0108  0  0
  -25.9141  -30.8882   21.3456 C   0  0  0  0  0  0  0  0  0109  0  0
  -25.9930  -29.5029   20.7208 C   0  0  0  0  0  0  0  0  0110  0  0
  -27.1758  -28.7612   20.7331 C   0  0  0  0  0  0  0  0  0111  0  0
  -26.1032  -26.9836   19.5230 C   0  0  0  0  0  0  0  0  0112  0  0
  -24.9097  -27.7011   19.5331 C   0  0  0  0  0  0  0  0  0113  0  0
  -23.5715  -29.7899   20.1582 C   0  0  0  0  0  0  0  0  0114  0  0
  -25.3990  -36.3212   24.0232 C   0  0  1  0  0  0  0  0  0115  0  0
  -20.5793  -28.3813   23.1004 C   0  0  2  0  0  0  0  0  0116  0  0
  -20.6548  -26.9392   22.5411 C   0  0  0  0  0  0  0  0  0117  0  0
  -19.5615  -26.6407   21.5143 C   0  0  0  0  0  0  0  0  0118  0  0
  -18.1797  -26.7818   22.1673 C   0  0  0  0  0  0  0  0  0119  0  0
  -19.1385  -28.8769   23.2988 C   0  0  0  0  0  0  0  0  0120  0  0
  -18.9183  -30.1286   23.8878 C   0  0  0  0  0  0  0  0  0121  0  0
  -17.6396  -30.6493   24.0352 C   0  0  0  0  0  0  0  0  0122  0  0
  -25.9153  -34.9582   23.4993 C   0  0  0  0  0  0  0  0  0123  0  0
  -16.5415  -29.9068   23.6254 C   0  0  0  0  0  0  0  0  0124  0  0
  -16.7331  -28.6521   23.0586 C   0  0  0  0  0  0  0  0  0125  0  0
  -26.4583  -31.6439   25.0683 C   0  0  0  0  0  0  0  0  0126  0  0
  -25.3807  -31.3179   26.1374 C   0  0  0  0  0  0  0  0  0127  0  0
  -27.0530  -30.3024   24.5680 C   0  0  0  0  0  0  0  0  0128  0  0
  -27.6014  -32.4281   25.7651 C   0  0  0  0  0  0  0  0  0129  0  0
  -27.5629  -37.2220   24.8621 C   0  0  0  0  0  0  0  0  0130  0  0
  -21.4133  -29.3375   22.3735 N   0  0  0  0  0  0  0  0  0131  0  0
  -26.4706  -37.3372   23.9061 N   0  0  0  0  0  0  0  0  0132  0  0
  -24.6674  -31.0544   22.1178 N   0  0  0  0  0  0  0  0  0133  0  0
  -23.4259  -28.8150   23.2971 O   0  0  0  0  0  0  0  0  0134  0  0
  -28.3948  -26.7345   20.0089 O   0  0  0  0  0  0  0  0  0135  0  0
  -26.5870  -34.9065   22.4671 O   0  0  0  0  0  0  0  0  0136  0  0
  -23.5365  -32.1254   23.7833 O   0  0  0  0  0  0  0  0  0137  0  0
  -27.4030  -19.8165   14.8750 C   0  0  0  0  0  0  0  0  0  0  0  0
  -27.3773  -20.6856   15.9434 C   0  0  0  0  0  0  0  0  0  0  0  0
  -27.5985  -22.4539   14.5100 C   0  0  0  0  0  0  0  0  0  0  0  0
  -27.6250  -21.5845   13.4418 C   0  0  0  0  0  0  0  0  0  0  0  0
  -27.8213  -26.1844   14.6637 C   0  0  0  0  0  0  0  0  0  0  0  0
  -27.8205  -27.3959   15.5754 C   0  0  0  0  0  0  0  0  0  0  0  0
  -27.6889  -24.8214   15.2925 C   0  0  0  0  0  0  0  0  0  0  0  0
  -27.6832  -27.1747   17.0605 C   0  0  0  0  0  0  0  0  0  1  0  0
  -27.5273  -20.2503   13.6050 N   0  0  0  0  0  0  0  0  0  0  0  0
  -27.4746  -22.0200   15.7800 N   0  0  0  0  0  0  0  0  0  0  0  0
  -27.2441  -20.1498   17.2483 N   0  0  0  0  0  0  0  0  0  0  0  0
  -27.7038  -23.8138   14.2608 N   0  0  0  0  0  0  0  0  0  0  0  0
  -27.9318  -26.3922   13.4619 O   0  0  0  0  0  0  0  0  0  0  0  0
  -27.9300  -28.4967   15.0507 O   0  0  0  0  0  0  0  0  0  0  0  0
  -27.7501  -22.0543   12.1913 F   0  0  0  0  0  0  0  0  0  0  0  0
  -31.4485  -12.4701   19.0860 H   0  0  0  0  0  0  0  0  0  0  0  0
  -30.3970  -11.2460   19.6950 H   0  0  0  0  0  0  0  0  0  0  0  0
  -29.6870  -11.8204   17.4226 H   0  0  0  0  0  0  0  0  0  0  0  0
  -29.6375  -13.5326   17.8649 H   0  0  0  0  0  0  0  0  0  0  0  0
  -27.7830  -11.3650   18.7904 H   0  0  0  0  0  0  0  0  0  0  0  0
  -27.4028  -12.7801   17.8021 H   0  0  0  0  0  0  0  0  0  0  0  0
  -27.7353  -14.2503   19.6136 H   0  0  0  0  0  0  0  0  0  0  0  0
  -28.5890  -11.9550   21.3832 H   0  0  0  0  0  0  0  0  0  0  0  0
  -28.5005  -13.6134   21.8562 H   0  0  0  0  0  0  0  0  0  0  0  0
  -25.2399   -9.5495   22.4318 H   0  0  0  0  0  0  0  0  0  0  0  0
  -23.9663   -7.5070   22.7297 H   0  0  0  0  0  0  0  0  0  0  0  0
  -21.1515   -8.8641   19.9162 H   0  0  0  0  0  0  0  0  0  0  0  0
  -22.4016  -10.9115   19.6476 H   0  0  0  0  0  0  0  0  0  0  0  0
  -21.2319   -7.5552   23.9750 H   0  0  0  0  0  0  0  0  0  0  0  0
  -21.1589   -6.0228   25.8556 H   0  0  0  0  0  0  0  0  0  0  0  0
  -22.0396   -2.8212   23.2809 H   0  0  0  0  0  0  0  0  0  0  0  0
  -22.4401  -11.9703   22.4008 H   0  0  0  0  0  0  0  0  0  0  0  0
  -21.1493  -13.0679   22.2082 H   0  0  0  0  0  0  0  0  0  0  0  0
  -24.6538  -15.7807   20.5848 H   0  0  0  0  0  0  0  0  0  0  0  0
  -26.2762  -15.5453   20.1156 H   0  0  0  0  0  0  0  0  0  0  0  0
  -26.6778  -32.4663   23.1464 H   0  0  0  0  0  0  0  0  0  0  0  0
  -25.0747  -34.0282   25.0566 H   0  0  0  0  0  0  0  0  0  0  0  0
  -22.7881  -31.3489   21.4131 H   0  0  0  0  0  0  0  0  0  0  0  0
  -23.3854  -35.9823   23.3648 H   0  0  0  0  0  0  0  0  0  0  0  0
  -24.3696  -36.8624   22.2204 H   0  0  0  0  0  0  0  0  0  0  0  0
  -23.7669  -37.6632   23.6516 H   0  0  0  0  0  0  0  0  0  0  0  0
  -25.9445  -31.6237   20.5691 H   0  0  0  0  0  0  0  0  0  0  0  0
  -26.7436  -31.0079   22.0108 H   0  0  0  0  0  0  0  0  0  0  0  0
  -28.0090  -29.1452   21.2057 H   0  0  0  0  0  0  0  0  0  0  0  0
  -26.1369  -26.0560   19.0719 H   0  0  0  0  0  0  0  0  0  0  0  0
  -24.0652  -27.2961   19.0997 H   0  0  0  0  0  0  0  0  0  0  0  0
  -23.6156  -30.5365   19.3930 H   0  0  0  0  0  0  0  0  0  0  0  0
  -22.7355  -29.1425   19.9945 H   0  0  0  0  0  0  0  0  0  0  0  0
  -25.1353  -36.2335   25.0565 H   0  0  0  0  0  0  0  0  0  0  0  0
  -21.0070  -28.3206   24.0793 H   0  0  0  0  0  0  0  0  0  0  0  0
  -20.5555  -26.2518   23.3550 H   0  0  0  0  0  0  0  0  0  0  0  0
  -21.5974  -26.8362   22.0454 H   0  0  0  0  0  0  0  0  0  0  0  0
  -19.6810  -25.6422   21.1488 H   0  0  0  0  0  0  0  0  0  0  0  0
  -19.6406  -27.3343   20.7034 H   0  0  0  0  0  0  0  0  0  0  0  0
  -17.4282  -26.6888   21.4113 H   0  0  0  0  0  0  0  0  0  0  0  0
  -18.0803  -26.0130   22.9049 H   0  0  0  0  0  0  0  0  0  0  0  0
  -19.7265  -30.6774   24.2204 H   0  0  0  0  0  0  0  0  0  0  0  0
  -17.5064  -31.5856   24.4483 H   0  0  0  0  0  0  0  0  0  0  0  0
  -15.5878  -30.2839   23.7407 H   0  0  0  0  0  0  0  0  0  0  0  0
  -15.9120  -28.0941   22.7766 H   0  0  0  0  0  0  0  0  0  0  0  0
  -24.5787  -30.7757   25.6817 H   0  0  0  0  0  0  0  0  0  0  0  0
  -25.0041  -32.2289   26.5536 H   0  0  0  0  0  0  0  0  0  0  0  0
  -25.8166  -30.7245   26.9138 H   0  0  0  0  0  0  0  0  0  0  0  0
  -26.2892  -29.7335   24.0803 H   0  0  0  0  0  0  0  0  0  0  0  0
  -27.4336  -29.7484   25.4006 H   0  0  0  0  0  0  0  0  0  0  0  0
  -27.8466  -30.4994   23.8779 H   0  0  0  0  0  0  0  0  0  0  0  0
  -27.2251  -33.3632   26.1242 H   0  0  0  0  0  0  0  0  0  0  0  0
  -28.3902  -32.6065   25.0645 H   0  0  0  0  0  0  0  0  0  0  0  0
  -27.9772  -31.8555   26.5872 H   0  0  0  0  0  0  0  0  0  0  0  0
  -28.2744  -38.0016   24.6863 H   0  0  0  0  0  0  0  0  0  0  0  0
  -28.0396  -36.2711   24.7461 H   0  0  0  0  0  0  0  0  0  0  0  0
  -27.1773  -37.3087   25.8564 H   0  0  0  0  0  0  0  0  0  0  0  0
  -20.9627  -29.9365   21.7352 H   0  0  0  0  0  0  0  0  0  0  0  0
  -26.0447  -38.2561   24.0273 H   0  0  0  0  0  0  0  0  0  0  0  0
  -27.3247  -18.8029   15.0523 H   0  0  0  0  0  0  0  0  0  0  0  0
  -26.7669  -24.7656   15.8326 H   0  0  0  0  0  0  0  0  0  0  0  0
  -28.5055  -24.6570   15.9641 H   0  0  0  0  0  0  0  0  0  0  0  0
  -27.0661  -26.3047   16.9755 H   0  0  0  0  0  0  0  0  0  0  0  0
  -28.0005  -28.1885   17.1887 H   0  0  0  0  0  0  0  0  0  0  0  0
  -26.5784  -20.6088   17.8100 H   0  0  0  0  0  0  0  0  0  0  0  0
  -27.7939  -24.1085   13.3258 H   0  0  0  0  0  0  0  0  0  0  0  0
  1 25  1  0
  1 30  2  0
  1 81  1  0
  2  3  1  0
  2 25  1  0
  2 86  1  0
  2 87  1  0
  3  4  1  0
  3 88  1  0
  3 89  1  0
  4  5  1  0
  4 90  1  0
  4 91  1  0
  5  6  1  0
  5 26  1  0
  5 92  1  6
  6 25  1  0
  6 93  1  0
  6 94  1  0
  7  8  2  0
  7 26  1  0
  7 29  1  0
  8  9  1  0
  8 22  1  0
  9 10  1  0
  9 27  2  0
 10 11  2  0
 10 15  1  0
 11 12  1  0
 11 95  1  0
 12 13  2  0
 12 96  1  0
 13 14  1  0
 13 31  1  0
 14 15  2  0
 14 97  1  0
 15 98  1  0
 16 17  2  0
 16 21  1  0
 16 31  1  0
 17 18  1  0
 17 99  1  0
 18 19  2  0
 18100  1  0
 19 20  1  0
 19 24  1  0
 20 21  2  0
 20101  1  0
 21 23  1  0
 22 28  1  0
 22 32  2  0
 26 27  1  0
 28102  1  0
 28103  1  0
 29104  1  0
 29105  1  0
 33 34  1  0
 33 66  1  0
 33 70  2  0
 34 36  1  0
 34 59  1  0
 34106  1  6
 35 44  2  0
 35 45  1  0
 35 68  1  0
 36 56  1  0
 36107  1  0
 37 39  1  0
 37 47  1  0
 37 66  1  0
 37108  1  6
 38 43  2  0
 38 46  1  0
 38 47  1  0
 39 64  1  0
 39 67  2  0
 40 52  1  0
 40 53  2  0
 40 58  1  0
 41109  1  0
 41110  1  0
 41111  1  0
 42 43  1  0
 42 66  1  0
 42112  1  0
 42113  1  0
 43 44  1  0
 44114  1  0
 45 46  2  0
 45115  1  0
 46116  1  0
 47117  1  0
 47118  1  0
 48 41  1  0
 48 56  1  0
 48 65  1  0
 48119  1  1
 49 50  1  0
 49 53  1  0
 49 64  1  0
 49120  1  1
 50 51  1  0
 50121  1  0
 50122  1  0
 51 52  1  0
 51123  1  0
 51124  1  0
 52125  1  0
 52126  1  0
 53 54  1  0
 54 55  2  0
 54127  1  0
 55 57  1  0
 55128  1  0
 56 69  2  0
 57 58  2  0
 57129  1  0
 58130  1  0
 59 60  1  0
 59 61  1  0
 59 62  1  0
 60131  1  0
 60132  1  0
 60133  1  0
 61134  1  0
 61135  1  0
 61136  1  0
 62137  1  0
 62138  1  0
 62139  1  0
 63 65  1  0
 63140  1  0
 63141  1  0
 63142  1  0
 64143  1  0
 65144  1  0
 68 78  1  0
 71 72  2  0
 71 79  1  0
 71145  1  0
 72 80  1  0
 72 81  1  0
 73 74  1  0
 73 80  2  0
 73 82  1  0
 74 79  2  0
 74 85  1  0
 75 76  1  0
 75 77  1  0
 75 83  2  0
 76 78  1  0
 76 84  2  0
 77 82  1  0
 77146  1  0
 77147  1  0
 78148  1  0
 78149  1  0
 81150  1  0
 82151  1  0
M  ISO  4   1 100  68 101  78 101  81 100
M  END
$$$$
87
     RDKit          3D

156164  0  0  0  0  0  0  0  0999 V2000
  -30.7652  -14.3608   20.6636 C   0  0  0  0  0  0  0  0  0100  0  0
  -30.4392  -12.2669   19.3775 C   0  0  0  0  0  0  0  0  0101  0  0
  -29.4791  -12.5281   18.1977 C   0  0  0  0  0  0  0  0  0102  0  0
  -27.9985  -12.3963   18.6038 C   0  0  0  0  0  0  0  0  0103  0  0
  -27.6639  -13.2170   19.8820 C   0  0  2  0  0  0  0  0  0104  0  0
  -28.6795  -12.9602   21.0279 C   0  0  0  0  0  0  0  0  0105  0  0
  -25.2633  -13.8245   20.5754 C   0  0  0  0  0  0  0  0  0106  0  0
  -24.1645  -13.0409   20.9408 C   0  0  0  0  0  0  0  0  0107  0  0
  -24.6400  -11.7009   20.8697 C   0  0  0  0  0  0  0  0  0108  0  0
  -23.9005  -10.4085   21.0420 C   0  0  0  0  0  0  0  0  0109  0  0
  -24.3588   -9.4123   21.9123 C   0  0  0  0  0  0  0  0  0110  0  0
  -23.6296   -8.2350   22.0803 C   0  0  0  0  0  0  0  0  0111  0  0
  -22.4385   -8.0419   21.3657 C   0  0  0  0  0  0  0  0  0112  0  0
  -22.0103   -9.0167   20.4678 C   0  0  0  0  0  0  0  0  0113  0  0
  -22.7317  -10.1925   20.3102 C   0  0  0  0  0  0  0  0  0114  0  0
  -21.6857   -6.0709   22.5391 C   0  0  0  0  0  0  0  0  0115  0  0
  -21.4064   -6.5490   23.8264 C   0  0  0  0  0  0  0  0  0116  0  0
  -21.3635   -5.6677   24.9085 C   0  0  0  0  0  0  0  0  0117  0  0
  -21.5973   -4.3067   24.7088 C   0  0  0  0  0  0  0  0  0118  0  0
  -21.8700   -3.8284   23.4282 C   0  0  0  0  0  0  0  0  0119  0  0
  -21.9144   -4.7056   22.3460 C   0  0  0  0  0  0  0  0  0120  0  0
  -22.8194  -13.5263   21.1763 C   0  0  0  0  0  0  0  0  0121  0  0
  -22.1559   -4.2206   21.1063 F   0  0  0  0  0  0  0  0  0122  0  0
  -21.5628   -3.4510   25.7555 F   0  0  0  0  0  0  0  0  0123  0  0
  -30.0261  -13.1803   20.4553 N   0  0  0  0  0  0  0  0  0124  0  0
  -26.2911  -12.9356   20.3443 N   0  0  0  0  0  0  0  0  0125  0  0
  -25.9236  -11.6675   20.5847 N   0  0  0  0  0  0  0  0  0126  0  0
  -22.0708  -12.7905   22.0005 N   0  0  0  0  0  0  0  0  0127  0  0
  -25.4117  -15.1773   20.4097 N   0  0  0  0  0  0  0  0  0128  0  0
  -31.7916  -14.6724   20.0536 O   0  0  0  0  0  0  0  0  0129  0  0
  -21.6670   -6.9022   21.4423 O   0  0  0  0  0  0  0  0  0130  0  0
  -22.3946  -14.5564   20.6568 O   0  0  0  0  0  0  0  0  0131  0  0
  -24.6048  -31.8614   23.2223 C   0  0  0  0  0  0  0  0  0100  0  0
  -25.8822  -32.4841   23.8616 C   0  0  1  0  0  0  0  0  0101  0  0
  -27.2536  -27.5042   20.1156 C   0  0  0  0  0  0  0  0  0102  0  0
  -25.5726  -33.8762   24.2210 N   0  0  0  0  0  0  0  0  0103  0  0
  -23.4066  -30.4859   21.5461 C   0  0  2  0  0  0  0  0  0104  0  0
  -24.8467  -28.9636   20.1247 C   0  0  0  0  0  0  0  0  0105  0  0
  -22.7412  -29.4652   22.5052 C   0  0  0  0  0  0  0  0  0106  0  0
  -18.0167  -28.1302   22.8626 C   0  0  0  0  0  0  0  0  0107  0  0
  -24.1342  -36.7390   23.2568 C   0  0  0  0  0  0  0  0  0108  0  0
  -25.9141  -30.8882   21.3456 C   0  0  0  0  0  0  0  0  0109  0  0
  -25.9930  -29.5029   20.7208 C   0  0  0  0  0  0  0  0  0110  0  0
  -27.1758  -28.7612   20.7331 C   0  0  0  0  0  0  0  0  0111  0  0
  -26.1032  -26.9836   19.5230 C   0  0  0  0  0  0  0  0  0112  0  0
  -24.9097  -27.7011   19.5331 C   0  0  0  0  0  0  0  0  0113  0  0
  -23.5715  -29.7899   20.1582 C   0  0  0  0  0  0  0  0  0114  0  0
  -25.3990  -36.3212   24.0232 C   0  0  1  0  0  0  0  0  0115  0  0
  -20.5793  -28.3813   23.1004 C   0  0  2  0  0  0  0  0  0116  0  0
  -20.6548  -26.9392   22.5411 C   0  0  0  0  0  0  0  0  0117  0  0
  -19.5615  -26.6407   21.5143 C   0  0  0  0  0  0  0  0  0118  0  0
  -18.1797  -26.7818   22.1673 C   0  0  0  0  0  0  0  0  0119  0  0
  -19.1385  -28.8769   23.2988 C   0  0  0  0  0  0  0  0  0120  0  0
  -18.9183  -30.1286   23.8878 C   0  0  0  0  0  0  0  0  0121  0  0
  -17.6396  -30.6493   24.0352 C   0  0  0  0  0  0  0  0  0122  0  0
  -25.9153  -34.9582   23.4993 C   0  0  0  0  0  0  0  0  0123  0  0
  -16.5415  -29.9068   23.6254 C   0  0  0  0  0  0  0  0  0124  0  0
  -16.7331  -28.6521   23.0586 C   0  0  0  0  0  0  0  0  0125  0  0
  -26.4583  -31.6439   25.0683 C   0  0  0  0  0  0  0  0  0126  0  0
  -25.3807  -31.3179   26.1374 C   0  0  0  0  0  0  0  0  0127  0  0
  -27.0530  -30.3024   24.5680 C   0  0  0  0  0  0  0  0  0128  0  0
  -27.6014  -32.4281   25.7651 C   0  0  0  0  0  0  0  0  0129  0  0
  -27.5629  -37.2220   24.8621 C   0  0  0  0  0  0  0  0  0130  0  0
  -21.4133  -29.3375   22.3735 N   0  0  0  0  0  0  0  0  0131  0  0
  -26.4706  -37.3372   23.9061 N   0  0  0  0  0  0  0  0  0132  0  0
  -24.6674  -31.0544   22.1178 N   0  0  0  0  0  0  0  0  0133  0  0
  -23.4259  -28.8150   23.2971 O   0  0  0  0  0  0  0  0  0134  0  0
  -28.3948  -26.7345   20.0089 O   0  0  0  0  0  0  0  0  0135  0  0
  -26.5870  -34.9065   22.4671 O   0  0  0  0  0  0  0  0  0136  0  0
  -23.5365  -32.1254   23.7833 O   0  0  0  0  0  0  0  0  0137  0  0
  -31.9920  -21.4988   21.5391 C   0  0  0  0  0  0  0  0  0  0  0  0
  -32.6106  -22.5636   22.2558 C   0  0  0  0  0  0  0  0  0  0  0  0
  -30.7459  -21.8481   21.0669 C   0  0  0  0  0  0  0  0  0  0  0  0
  -31.8138  -23.6865   22.3038 C   0  0  0  0  0  0  0  0  0  0  0  0
  -31.8646  -27.1639   23.6803 C   0  0  0  0  0  0  0  0  0  0  0  0
  -31.0980  -28.4662   23.8036 C   0  0  0  0  0  0  0  0  0  0  0  0
  -32.6151  -20.1685   21.3250 C   0  0  0  0  0  0  0  0  0  0  0  0
  -31.2212  -26.0288   22.9264 C   0  0  0  0  0  0  0  0  0  0  0  0
  -29.7363  -28.5593   23.1630 C   0  0  0  0  0  0  0  0  0  1  0  0
  -33.9561  -22.4691   22.8768 C   0  0  0  0  0  0  0  0  0  0  0  0
  -29.7933  -21.1156   20.3162 N   0  0  0  0  0  0  0  0  0  0  0  0
  -32.1103  -24.8934   22.9186 N   0  0  0  0  0  0  0  0  0  0  0  0
  -32.9689  -27.1159   24.2076 O   0  0  0  0  0  0  0  0  0  0  0  0
  -31.6325  -29.3792   24.4198 O   0  0  0  0  0  0  0  0  0  0  0  0
  -34.5631  -21.2550   22.7014 F   0  0  0  0  0  0  0  0  0  0  0  0
  -34.8537  -23.3823   22.3940 F   0  0  0  0  0  0  0  0  0  0  0  0
  -33.9323  -22.6677   24.2295 F   0  0  0  0  0  0  0  0  0  0  0  0
  -30.3266  -23.4542   21.4875 S   0  0  0  0  0  0  0  0  0  0  0  0
  -31.4485  -12.4701   19.0860 H   0  0  0  0  0  0  0  0  0  0  0  0
  -30.3970  -11.2460   19.6950 H   0  0  0  0  0  0  0  0  0  0  0  0
  -29.6870  -11.8204   17.4226 H   0  0  0  0  0  0  0  0  0  0  0  0
  -29.6375  -13.5326   17.8649 H   0  0  0  0  0  0  0  0  0  0  0  0
  -27.7830  -11.3650   18.7904 H   0  0  0  0  0  0  0  0  0  0  0  0
  -27.4028  -12.7801   17.8021 H   0  0  0  0  0  0  0  0  0  0  0  0
  -27.7353  -14.2503   19.6136 H   0  0  0  0  0  0  0  0  0  0  0  0
  -28.5890  -11.9550   21.3832 H   0  0  0  0  0  0  0  0  0  0  0  0
  -28.5005  -13.6134   21.8562 H   0  0  0  0  0  0  0  0  0  0  0  0
  -25.2399   -9.5495   22.4318 H   0  0  0  0  0  0  0  0  0  0  0  0
  -23.9663   -7.5070   22.7297 H   0  0  0  0  0  0  0  0  0  0  0  0
  -21.1515   -8.8641   19.9162 H   0  0  0  0  0  0  0  0  0  0  0  0
  -22.4016  -10.9115   19.6476 H   0  0  0  0  0  0  0  0  0  0  0  0
  -21.2319   -7.5552   23.9750 H   0  0  0  0  0  0  0  0  0  0  0  0
  -21.1589   -6.0228   25.8556 H   0  0  0  0  0  0  0  0  0  0  0  0
  -22.0396   -2.8212   23.2809 H   0  0  0  0  0  0  0  0  0  0  0  0
  -22.4401  -11.9703   22.4008 H   0  0  0  0  0  0  0  0  0  0  0  0
  -21.1493  -13.0679   22.2082 H   0  0  0  0  0  0  0  0  0  0  0  0
  -24.6538  -15.7807   20.5848 H   0  0  0  0  0  0  0  0  0  0  0  0
  -26.2762  -15.5453   20.1156 H   0  0  0  0  0  0  0  0  0  0  0  0
  -26.6778  -32.4663   23.1464 H   0  0  0  0  0  0  0  0  0  0  0  0
  -25.0747  -34.0282   25.0566 H   0  0  0  0  0  0  0  0  0  0  0  0
  -22.7881  -31.3489   21.4131 H   0  0  0  0  0  0  0  0  0  0  0  0
  -23.3854  -35.9823   23.3648 H   0  0  0  0  0  0  0  0  0  0  0  0
  -24.3696  -36.8624   22.2204 H   0  0  0  0  0  0  0  0  0  0  0  0
  -23.7669  -37.6632   23.6516 H   0  0  0  0  0  0  0  0  0  0  0  0
  -25.9445  -31.6237   20.5691 H   0  0  0  0  0  0  0  0  0  0  0  0
  -26.7436  -31.0079   22.0108 H   0  0  0  0  0  0  0  0  0  0  0  0
  -28.0090  -29.1452   21.2057 H   0  0  0  0  0  0  0  0  0  0  0  0
  -26.1369  -26.0560   19.0719 H   0  0  0  0  0  0  0  0  0  0  0  0
  -24.0652  -27.2961   19.0997 H   0  0  0  0  0  0  0  0  0  0  0  0
  -23.6156  -30.5365   19.3930 H   0  0  0  0  0  0  0  0  0  0  0  0
  -22.7355  -29.1425   19.9945 H   0  0  0  0  0  0  0  0  0  0  0  0
  -25.1353  -36.2335   25.0565 H   0  0  0  0  0  0  0  0  0  0  0  0
  -21.0070  -28.3206   24.0793 H   0  0  0  0  0  0  0  0  0  0  0  0
  -20.5555  -26.2518   23.3550 H   0  0  0  0  0  0  0  0  0  0  0  0
  -21.5974  -26.8362   22.0454 H   0  0  0  0  0  0  0  0  0  0  0  0
  -19.6810  -25.6422   21.1488 H   0  0  0  0  0  0  0  0  0  0  0  0
  -19.6406  -27.3343   20.7034 H   0  0  0  0  0  0  0  0  0  0  0  0
  -17.4282  -26.6888   21.4113 H   0  0  0  0  0  0  0  0  0  0  0  0
  -18.0803  -26.0130   22.9049 H   0  0  0  0  0  0  0  0  0  0  0  0
  -19.7265  -30.6774   24.2204 H   0  0  0  0  0  0  0  0  0  0  0  0
  -17.5064  -31.5856   24.4483 H   0  0  0  0  0  0  0  0  0  0  0  0
  -15.5878  -30.2839   23.7407 H   0  0  0  0  0  0  0  0  0  0  0  0
  -15.9120  -28.0941   22.7766 H   0  0  0  0  0  0  0  0  0  0  0  0
  -24.5787  -30.7757   25.6817 H   0  0  0  0  0  0  0  0  0  0  0  0
  -25.0041  -32.2289   26.5536 H   0  0  0  0  0  0  0  0  0  0  0  0
  -25.8166  -30.7245   26.9138 H   0  0  0  0  0  0  0  0  0  0  0  0
  -26.2892  -29.7335   24.0803 H   0  0  0  0  0  0  0  0  0  0  0  0
  -27.4336  -29.7484   25.4006 H   0  0  0  0  0  0  0  0  0  0  0  0
  -27.8466  -30.4994   23.8779 H   0  0  0  0  0  0  0  0  0  0  0  0
  -27.2251  -33.3632   26.1242 H   0  0  0  0  0  0  0  0  0  0  0  0
  -28.3902  -32.6065   25.0645 H   0  0  0  0  0  0  0  0  0  0  0  0
  -27.9772  -31.8555   26.5872 H   0  0  0  0  0  0  0  0  0  0  0  0
  -28.2744  -38.0016   24.6863 H   0  0  0  0  0  0  0  0  0  0  0  0
  -28.0396  -36.2711   24.7461 H   0  0  0  0  0  0  0  0  0  0  0  0
  -27.1773  -37.3087   25.8564 H   0  0  0  0  0  0  0  0  0  0  0  0
  -20.9627  -29.9365   21.7352 H   0  0  0  0  0  0  0  0  0  0  0  0
  -26.0447  -38.2561   24.0273 H   0  0  0  0  0  0  0  0  0  0  0  0
  -33.5796  -20.1478   21.7878 H   0  0  0  0  0  0  0  0  0  0  0  0
  -32.7191  -19.9881   20.2755 H   0  0  0  0  0  0  0  0  0  0  0  0
  -31.9957  -19.4107   21.7575 H   0  0  0  0  0  0  0  0  0  0  0  0
  -31.0244  -26.3349   21.9202 H   0  0  0  0  0  0  0  0  0  0  0  0
  -30.3019  -25.7593   23.4029 H   0  0  0  0  0  0  0  0  0  0  0  0
  -29.6173  -29.5990   22.9400 H   0  0  0  0  0  0  0  0  0  0  0  0
  -29.1839  -28.0149   23.9001 H   0  0  0  0  0  0  0  0  0  0  0  0
  -29.0682  -21.5354   19.7993 H   0  0  0  0  0  0  0  0  0  0  0  0
  -32.9777  -24.9802   23.3761 H   0  0  0  0  0  0  0  0  0  0  0  0
  1 25  1  0
  1 30  2  0
  1 81  1  0
  2  3  1  0
  2 25  1  0
  2 89  1  0
  2 90  1  0
  3  4  1  0
  3 91  1  0
  3 92  1  0
  4  5  1  0
  4 93  1  0
  4 94  1  0
  5  6  1  0
  5 26  1  0
  5 95  1  6
  6 25  1  0
  6 96  1  0
  6 97  1  0
  7  8  2  0
  7 26  1  0
  7 29  1  0
  8  9  1  0
  8 22  1  0
  9 10  1  0
  9 27  2  0
 10 11  2  0
 10 15  1  0
 11 12  1  0
 11 98  1  0
 12 13  2  0
 12 99  1  0
 13 14  1  0
 13 31  1  0
 14 15  2  0
 14100  1  0
 15101  1  0
 16 17  2  0
 16 21  1  0
 16 31  1  0
 17 18  1  0
 17102  1  0
 18 19  2  0
 18103  1  0
 19 20  1  0
 19 24  1  0
 20 21  2  0
 20104  1  0
 21 23  1  0
 22 28  1  0
 22 32  2  0
 26 27  1  0
 28105  1  0
 28106  1  0
 29107  1  0
 29108  1  0
 33 34  1  0
 33 66  1  0
 33 70  2  0
 34 36  1  0
 34 59  1  0
 34109  1  6
 35 44  2  0
 35 45  1  0
 35 68  1  0
 36 56  1  0
 36110  1  0
 37 39  1  0
 37 47  1  0
 37 66  1  0
 37111  1  6
 38 43  2  0
 38 46  1  0
 38 47  1  0
 39 64  1  0
 39 67  2  0
 40 52  1  0
 40 53  2  0
 40 58  1  0
 41112  1  0
 41113  1  0
 41114  1  0
 42 43  1  0
 42 66  1  0
 42115  1  0
 42116  1  0
 43 44  1  0
 44117  1  0
 45 46  2  0
 45118  1  0
 46119  1  0
 47120  1  0
 47121  1  0
 48 41  1  0
 48 56  1  0
 48 65  1  0
 48122  1  1
 49 50  1  0
 49 53  1  0
 49 64  1  0
 49123  1  1
 50 51  1  0
 50124  1  0
 50125  1  0
 51 52  1  0
 51126  1  0
 51127  1  0
 52128  1  0
 52129  1  0
 53 54  1  0
 54 55  2  0
 54130  1  0
 55 57  1  0
 55131  1  0
 56 69  2  0
 57 58  2  0
 57132  1  0
 58133  1  0
 59 60  1  0
 59 61  1  0
 59 62  1  0
 60134  1  0
 60135  1  0
 60136  1  0
 61137  1  0
 61138  1  0
 61139  1  0
 62140  1  0
 62141  1  0
 62142  1  0
 63 65  1  0
 63143  1  0
 63144  1  0
 63145  1  0
 64146  1  0
 65147  1  0
 68 79  1  0
 71 72  1  0
 71 73  2  0
 71 77  1  0
 72 74  2  0
 72 80  1  0
 73 81  1  0
 73 88  1  0
 74 82  1  0
 74 88  1  0
 75 76  1  0
 75 78  1  0
 75 83  2  0
 76 79  1  0
 76 84  2  0
 77148  1  0
 77149  1  0
 77150  1  0
 78 82  1  0
 78151  1  0
 78152  1  0
 79153  1  0
 79154  1  0
 80 85  1  0
 80 86  1  0
 80 87  1  0
 81155  1  0
 82156  1  0
M  ISO  4   1 100  68 101  79 101  81 100
M  END
$$$$
88
     RDKit          3D

163171  0  0  0  0  0  0  0  0999 V2000
  -30.7652  -14.3608   20.6636 C   0  0  0  0  0  0  0  0  0100  0  0
  -30.4392  -12.2669   19.3775 C   0  0  0  0  0  0  0  0  0101  0  0
  -29.4791  -12.5281   18.1977 C   0  0  0  0  0  0  0  0  0102  0  0
  -27.9985  -12.3963   18.6038 C   0  0  0  0  0  0  0  0  0103  0  0
  -27.6639  -13.2170   19.8820 C   0  0  2  0  0  0  0  0  0104  0  0
  -28.6795  -12.9602   21.0279 C   0  0  0  0  0  0  0  0  0105  0  0
  -25.2633  -13.8245   20.5754 C   0  0  0  0  0  0  0  0  0106  0  0
  -24.1645  -13.0409   20.9408 C   0  0  0  0  0  0  0  0  0107  0  0
  -24.6400  -11.7009   20.8697 C   0  0  0  0  0  0  0  0  0108  0  0
  -23.9005  -10.4085   21.0420 C   0  0  0  0  0  0  0  0  0109  0  0
  -24.3588   -9.4123   21.9123 C   0  0  0  0  0  0  0  0  0110  0  0
  -23.6296   -8.2350   22.0803 C   0  0  0  0  0  0  0  0  0111  0  0
  -22.4385   -8.0419   21.3657 C   0  0  0  0  0  0  0  0  0112  0  0
  -22.0103   -9.0167   20.4678 C   0  0  0  0  0  0  0  0  0113  0  0
  -22.7317  -10.1925   20.3102 C   0  0  0  0  0  0  0  0  0114  0  0
  -21.6857   -6.0709   22.5391 C   0  0  0  0  0  0  0  0  0115  0  0
  -21.4064   -6.5490   23.8264 C   0  0  0  0  0  0  0  0  0116  0  0
  -21.3635   -5.6677   24.9085 C   0  0  0  0  0  0  0  0  0117  0  0
  -21.5973   -4.3067   24.7088 C   0  0  0  0  0  0  0  0  0118  0  0
  -21.8700   -3.8284   23.4282 C   0  0  0  0  0  0  0  0  0119  0  0
  -21.9144   -4.7056   22.3460 C   0  0  0  0  0  0  0  0  0120  0  0
  -22.8194  -13.5263   21.1763 C   0  0  0  0  0  0  0  0  0121  0  0
  -22.1559   -4.2206   21.1063 F   0  0  0  0  0  0  0  0  0122  0  0
  -21.5628   -3.4510   25.7555 F   0  0  0  0  0  0  0  0  0123  0  0
  -30.0261  -13.1803   20.4553 N   0  0  0  0  0  0  0  0  0124  0  0
  -26.2911  -12.9356   20.3443 N   0  0  0  0  0  0  0  0  0125  0  0
  -25.9236  -11.6675   20.5847 N   0  0  0  0  0  0  0  0  0126  0  0
  -22.0708  -12.7905   22.0005 N   0  0  0  0  0  0  0  0  0127  0  0
  -25.4117  -15.1773   20.4097 N   0  0  0  0  0  0  0  0  0128  0  0
  -31.7916  -14.6724   20.0536 O   0  0  0  0  0  0  0  0  0129  0  0
  -21.6670   -6.9022   21.4423 O   0  0  0  0  0  0  0  0  0130  0  0
  -22.3946  -14.5564   20.6568 O   0  0  0  0  0  0  0  0  0131  0  0
  -24.6048  -31.8614   23.2223 C   0  0  0  0  0  0  0  0  0100  0  0
  -25.8822  -32.4841   23.8616 C   0  0  1  0  0  0  0  0  0101  0  0
  -27.2536  -27.5042   20.1156 C   0  0  0  0  0  0  0  0  0102  0  0
  -25.5726  -33.8762   24.2210 N   0  0  0  0  0  0  0  0  0103  0  0
  -23.4066  -30.4859   21.5461 C   0  0  2  0  0  0  0  0  0104  0  0
  -24.8467  -28.9636   20.1247 C   0  0  0  0  0  0  0  0  0105  0  0
  -22.7412  -29.4652   22.5052 C   0  0  0  0  0  0  0  0  0106  0  0
  -18.0167  -28.1302   22.8626 C   0  0  0  0  0  0  0  0  0107  0  0
  -24.1342  -36.7390   23.2568 C   0  0  0  0  0  0  0  0  0108  0  0
  -25.9141  -30.8882   21.3456 C   0  0  0  0  0  0  0  0  0109  0  0
  -25.9930  -29.5029   20.7208 C   0  0  0  0  0  0  0  0  0110  0  0
  -27.1758  -28.7612   20.7331 C   0  0  0  0  0  0  0  0  0111  0  0
  -26.1032  -26.9836   19.5230 C   0  0  0  0  0  0  0  0  0112  0  0
  -24.9097  -27.7011   19.5331 C   0  0  0  0  0  0  0  0  0113  0  0
  -23.5715  -29.7899   20.1582 C   0  0  0  0  0  0  0  0  0114  0  0
  -25.3990  -36.3212   24.0232 C   0  0  1  0  0  0  0  0  0115  0  0
  -20.5793  -28.3813   23.1004 C   0  0  2  0  0  0  0  0  0116  0  0
  -20.6548  -26.9392   22.5411 C   0  0  0  0  0  0  0  0  0117  0  0
  -19.5615  -26.6407   21.5143 C   0  0  0  0  0  0  0  0  0118  0  0
  -18.1797  -26.7818   22.1673 C   0  0  0  0  0  0  0  0  0119  0  0
  -19.1385  -28.8769   23.2988 C   0  0  0  0  0  0  0  0  0120  0  0
  -18.9183  -30.1286   23.8878 C   0  0  0  0  0  0  0  0  0121  0  0
  -17.6396  -30.6493   24.0352 C   0  0  0  0  0  0  0  0  0122  0  0
  -25.9153  -34.9582   23.4993 C   0  0  0  0  0  0  0  0  0123  0  0
  -16.5415  -29.9068   23.6254 C   0  0  0  0  0  0  0  0  0124  0  0
  -16.7331  -28.6521   23.0586 C   0  0  0  0  0  0  0  0  0125  0  0
  -26.4583  -31.6439   25.0683 C   0  0  0  0  0  0  0  0  0126  0  0
  -25.3807  -31.3179   26.1374 C   0  0  0  0  0  0  0  0  0127  0  0
  -27.0530  -30.3024   24.5680 C   0  0  0  0  0  0  0  0  0128  0  0
  -27.6014  -32.4281   25.7651 C   0  0  0  0  0  0  0  0  0129  0  0
  -27.5629  -37.2220   24.8621 C   0  0  0  0  0  0  0  0  0130  0  0
  -21.4133  -29.3375   22.3735 N   0  0  0  0  0  0  0  0  0131  0  0
  -26.4706  -37.3372   23.9061 N   0  0  0  0  0  0  0  0  0132  0  0
  -24.6674  -31.0544   22.1178 N   0  0  0  0  0  0  0  0  0133  0  0
  -23.4259  -28.8150   23.2971 O   0  0  0  0  0  0  0  0  0134  0  0
  -28.3948  -26.7345   20.0089 O   0  0  0  0  0  0  0  0  0135  0  0
  -26.5870  -34.9065   22.4671 O   0  0  0  0  0  0  0  0  0136  0  0
  -23.5365  -32.1254   23.7833 O   0  0  0  0  0  0  0  0  0137  0  0
  -31.5462  -17.7687   21.7251 C   0  0  0  0  0  0  0  0  0  0  0  0
  -31.7484  -19.1411   21.8199 C   0  0  0  0  0  0  0  0  0  0  0  0
  -30.9745  -20.0067   21.0550 C   0  0  0  0  0  0  0  0  0  0  0  0
  -30.0193  -19.4540   20.2171 C   0  0  0  0  0  0  0  0  0  0  0  0
  -30.5653  -17.3162   20.8574 C   0  0  0  0  0  0  0  0  0  0  0  0
  -28.1032  -20.6739   19.9649 C   0  0  0  0  0  0  0  0  0  0  0  0
  -26.8817  -22.8748   19.9466 C   0  0  0  0  0  0  0  0  0  0  0  0
  -32.7922  -19.6794   22.7382 C   0  0  0  0  0  0  0  0  0  0  0  0
  -26.0679  -19.5718   18.1987 C   0  0  0  0  0  0  0  0  0  0  0  0
  -28.0821  -23.7882   20.1674 C   0  0  0  0  0  0  0  0  0  0  0  0
  -27.7283  -25.0661   20.9131 C   0  0  0  0  0  0  0  0  0  1  0  0
  -27.1627  -21.5741   19.2140 C   0  0  2  0  0  0  0  0  0  0  0  0
  -29.7939  -18.1264   20.0982 N   0  0  0  0  0  0  0  0  0  0  0  0
  -29.2116  -20.2854   19.4235 N   0  0  0  0  0  0  0  0  0  0  0  0
  -30.3668  -15.9154   20.7667 N   0  0  0  0  0  0  0  0  0  0  0  0
  -25.8934  -20.8305   18.9672 N   0  0  0  0  0  0  0  0  0  0  0  0
  -25.7525  -23.1708   20.3364 O   0  0  0  0  0  0  0  0  0  0  0  0
  -31.1475  -21.3330   21.1266 F   0  0  0  0  0  0  0  0  0  0  0  0
  -31.4485  -12.4701   19.0860 H   0  0  0  0  0  0  0  0  0  0  0  0
  -30.3970  -11.2460   19.6950 H   0  0  0  0  0  0  0  0  0  0  0  0
  -29.6870  -11.8204   17.4226 H   0  0  0  0  0  0  0  0  0  0  0  0
  -29.6375  -13.5326   17.8649 H   0  0  0  0  0  0  0  0  0  0  0  0
  -27.7830  -11.3650   18.7904 H   0  0  0  0  0  0  0  0  0  0  0  0
  -27.4028  -12.7801   17.8021 H   0  0  0  0  0  0  0  0  0  0  0  0
  -27.7353  -14.2503   19.6136 H   0  0  0  0  0  0  0  0  0  0  0  0
  -28.5890  -11.9550   21.3832 H   0  0  0  0  0  0  0  0  0  0  0  0
  -28.5005  -13.6134   21.8562 H   0  0  0  0  0  0  0  0  0  0  0  0
  -25.2399   -9.5495   22.4318 H   0  0  0  0  0  0  0  0  0  0  0  0
  -23.9663   -7.5070   22.7297 H   0  0  0  0  0  0  0  0  0  0  0  0
  -21.1515   -8.8641   19.9162 H   0  0  0  0  0  0  0  0  0  0  0  0
  -22.4016  -10.9115   19.6476 H   0  0  0  0  0  0  0  0  0  0  0  0
  -21.2319   -7.5552   23.9750 H   0  0  0  0  0  0  0  0  0  0  0  0
  -21.1589   -6.0228   25.8556 H   0  0  0  0  0  0  0  0  0  0  0  0
  -22.0396   -2.8212   23.2809 H   0  0  0  0  0  0  0  0  0  0  0  0
  -22.4401  -11.9703   22.4008 H   0  0  0  0  0  0  0  0  0  0  0  0
  -21.1493  -13.0679   22.2082 H   0  0  0  0  0  0  0  0  0  0  0  0
  -24.6538  -15.7807   20.5848 H   0  0  0  0  0  0  0  0  0  0  0  0
  -26.2762  -15.5453   20.1156 H   0  0  0  0  0  0  0  0  0  0  0  0
  -26.6778  -32.4663   23.1464 H   0  0  0  0  0  0  0  0  0  0  0  0
  -25.0747  -34.0282   25.0566 H   0  0  0  0  0  0  0  0  0  0  0  0
  -22.7881  -31.3489   21.4131 H   0  0  0  0  0  0  0  0  0  0  0  0
  -23.3854  -35.9823   23.3648 H   0  0  0  0  0  0  0  0  0  0  0  0
  -24.3696  -36.8624   22.2204 H   0  0  0  0  0  0  0  0  0  0  0  0
  -23.7669  -37.6632   23.6516 H   0  0  0  0  0  0  0  0  0  0  0  0
  -25.9445  -31.6237   20.5691 H   0  0  0  0  0  0  0  0  0  0  0  0
  -26.7436  -31.0079   22.0108 H   0  0  0  0  0  0  0  0  0  0  0  0
  -28.0090  -29.1452   21.2057 H   0  0  0  0  0  0  0  0  0  0  0  0
  -26.1369  -26.0560   19.0719 H   0  0  0  0  0  0  0  0  0  0  0  0
  -24.0652  -27.2961   19.0997 H   0  0  0  0  0  0  0  0  0  0  0  0
  -23.6156  -30.5365   19.3930 H   0  0  0  0  0  0  0  0  0  0  0  0
  -22.7355  -29.1425   19.9945 H   0  0  0  0  0  0  0  0  0  0  0  0
  -25.1353  -36.2335   25.0565 H   0  0  0  0  0  0  0  0  0  0  0  0
  -21.0070  -28.3206   24.0793 H   0  0  0  0  0  0  0  0  0  0  0  0
  -20.5555  -26.2518   23.3550 H   0  0  0  0  0  0  0  0  0  0  0  0
  -21.5974  -26.8362   22.0454 H   0  0  0  0  0  0  0  0  0  0  0  0
  -19.6810  -25.6422   21.1488 H   0  0  0  0  0  0  0  0  0  0  0  0
  -19.6406  -27.3343   20.7034 H   0  0  0  0  0  0  0  0  0  0  0  0
  -17.4282  -26.6888   21.4113 H   0  0  0  0  0  0  0  0  0  0  0  0
  -18.0803  -26.0130   22.9049 H   0  0  0  0  0  0  0  0  0  0  0  0
  -19.7265  -30.6774   24.2204 H   0  0  0  0  0  0  0  0  0  0  0  0
  -17.5064  -31.5856   24.4483 H   0  0  0  0  0  0  0  0  0  0  0  0
  -15.5878  -30.2839   23.7407 H   0  0  0  0  0  0  0  0  0  0  0  0
  -15.9120  -28.0941   22.7766 H   0  0  0  0  0  0  0  0  0  0  0  0
  -24.5787  -30.7757   25.6817 H   0  0  0  0  0  0  0  0  0  0  0  0
  -25.0041  -32.2289   26.5536 H   0  0  0  0  0  0  0  0  0  0  0  0
  -25.8166  -30.7245   26.9138 H   0  0  0  0  0  0  0  0  0  0  0  0
  -26.2892  -29.7335   24.0803 H   0  0  0  0  0  0  0  0  0  0  0  0
  -27.4336  -29.7484   25.4006 H   0  0  0  0  0  0  0  0  0  0  0  0
  -27.8466  -30.4994   23.8779 H   0  0  0  0  0  0  0  0  0  0  0  0
  -27.2251  -33.3632   26.1242 H   0  0  0  0  0  0  0  0  0  0  0  0
  -28.3902  -32.6065   25.0645 H   0  0  0  0  0  0  0  0  0  0  0  0
  -27.9772  -31.8555   26.5872 H   0  0  0  0  0  0  0  0  0  0  0  0
  -28.2744  -38.0016   24.6863 H   0  0  0  0  0  0  0  0  0  0  0  0
  -28.0396  -36.2711   24.7461 H   0  0  0  0  0  0  0  0  0  0  0  0
  -27.1773  -37.3087   25.8564 H   0  0  0  0  0  0  0  0  0  0  0  0
  -20.9627  -29.9365   21.7352 H   0  0  0  0  0  0  0  0  0  0  0  0
  -26.0447  -38.2561   24.0273 H   0  0  0  0  0  0  0  0  0  0  0  0
  -32.1090  -17.1080   22.2834 H   0  0  0  0  0  0  0  0  0  0  0  0
  -27.8628  -20.3636   20.9193 H   0  0  0  0  0  0  0  0  0  0  0  0
  -33.2800  -18.8687   23.2380 H   0  0  0  0  0  0  0  0  0  0  0  0
  -32.3342  -20.3207   23.4619 H   0  0  0  0  0  0  0  0  0  0  0  0
  -33.5116  -20.2351   22.1738 H   0  0  0  0  0  0  0  0  0  0  0  0
  -25.1165  -19.1009   18.0647 H   0  0  0  0  0  0  0  0  0  0  0  0
  -26.7192  -18.9138   18.7351 H   0  0  0  0  0  0  0  0  0  0  0  0
  -26.4938  -19.7938   17.2426 H   0  0  0  0  0  0  0  0  0  0  0  0
  -28.4898  -24.0517   19.2139 H   0  0  0  0  0  0  0  0  0  0  0  0
  -28.7860  -23.2515   20.7686 H   0  0  0  0  0  0  0  0  0  0  0  0
  -28.1578  -25.0169   21.8919 H   0  0  0  0  0  0  0  0  0  0  0  0
  -26.6605  -25.1286   20.9407 H   0  0  0  0  0  0  0  0  0  0  0  0
  -27.6271  -21.8472   18.2895 H   0  0  0  0  0  0  0  0  0  0  0  0
  -29.3838  -15.8612   20.7670 H   0  0  0  0  0  0  0  0  0  0  0  0
  -25.4766  -20.6000   19.8692 H   0  0  0  0  0  0  0  0  0  0  0  0
  -25.3004  -21.4396   18.4035 H   0  0  0  0  0  0  0  0  0  0  0  0
  1 25  1  0
  1 30  2  0
  1 85  1  0
  2  3  1  0
  2 25  1  0
  2 89  1  0
  2 90  1  0
  3  4  1  0
  3 91  1  0
  3 92  1  0
  4  5  1  0
  4 93  1  0
  4 94  1  0
  5  6  1  0
  5 26  1  0
  5 95  1  6
  6 25  1  0
  6 96  1  0
  6 97  1  0
  7  8  2  0
  7 26  1  0
  7 29  1  0
  8  9  1  0
  8 22  1  0
  9 10  1  0
  9 27  2  0
 10 11  2  0
 10 15  1  0
 11 12  1  0
 11 98  1  0
 12 13  2  0
 12 99  1  0
 13 14  1  0
 13 31  1  0
 14 15  2  0
 14100  1  0
 15101  1  0
 16 17  2  0
 16 21  1  0
 16 31  1  0
 17 18  1  0
 17102  1  0
 18 19  2  0
 18103  1  0
 19 20  1  0
 19 24  1  0
 20 21  2  0
 20104  1  0
 21 23  1  0
 22 28  1  0
 22 32  2  0
 26 27  1  0
 28105  1  0
 28106  1  0
 29107  1  0
 29108  1  0
 33 34  1  0
 33 66  1  0
 33 70  2  0
 34 36  1  0
 34 59  1  0
 34109  1  6
 35 44  2  0
 35 45  1  0
 35 68  1  0
 36 56  1  0
 36110  1  0
 37 39  1  0
 37 47  1  0
 37 66  1  0
 37111  1  6
 38 43  2  0
 38 46  1  0
 38 47  1  0
 39 64  1  0
 39 67  2  0
 40 52  1  0
 40 53  2  0
 40 58  1  0
 41112  1  0
 41113  1  0
 41114  1  0
 42 43  1  0
 42 66  1  0
 42115  1  0
 42116  1  0
 43 44  1  0
 44117  1  0
 45 46  2  0
 45118  1  0
 46119  1  0
 47120  1  0
 47121  1  0
 48 41  1  0
 48 56  1  0
 48 65  1  0
 48122  1  1
 49 50  1  0
 49 53  1  0
 49 64  1  0
 49123  1  1
 50 51  1  0
 50124  1  0
 50125  1  0
 51 52  1  0
 51126  1  0
 51127  1  0
 52128  1  0
 52129  1  0
 53 54  1  0
 54 55  2  0
 54130  1  0
 55 57  1  0
 55131  1  0
 56 69  2  0
 57 58  2  0
 57132  1  0
 58133  1  0
 59 60  1  0
 59 61  1  0
 59 62  1  0
 60134  1  0
 60135  1  0
 60136  1  0
 61137  1  0
 61138  1  0
 61139  1  0
 62140  1  0
 62141  1  0
 62142  1  0
 63 65  1  0
 63143  1  0
 63144  1  0
 63145  1  0
 64146  1  0
 65147  1  0
 68 81  1  0
 71 72  2  0
 71 75  1  0
 71148  1  0
 72 73  1  0
 72 78  1  0
 73 74  2  0
 73 88  1  0
 74 83  1  0
 74 84  1  0
 75 83  2  0
 75 85  1  0
 76 82  1  0
 76 84  2  0
 76149  1  0
 77 80  1  0
 77 82  1  0
 77 87  2  0
 78150  1  0
 78151  1  0
 78152  1  0
 79 86  1  0
 79153  1  0
 79154  1  0
 79155  1  0
 80 81  1  0
 80156  1  0
 80157  1  0
 81158  1  0
 81159  1  0
 82 86  1  0
 82160  1  6
 85161  1  0
 86162  1  0
 86163  1  0
M  CHG  1  86   1
M  ISO  4   1 100  68 101  81 101  85 100
M  END
$$$$
89
     RDKit          3D

162170  0  0  0  0  0  0  0  0999 V2000
  -30.7652  -14.3608   20.6636 C   0  0  0  0  0  0  0  0  0100  0  0
  -30.4392  -12.2669   19.3775 C   0  0  0  0  0  0  0  0  0101  0  0
  -29.4791  -12.5281   18.1977 C   0  0  0  0  0  0  0  0  0102  0  0
  -27.9985  -12.3963   18.6038 C   0  0  0  0  0  0  0  0  0103  0  0
  -27.6639  -13.2170   19.8820 C   0  0  2  0  0  0  0  0  0104  0  0
  -28.6795  -12.9602   21.0279 C   0  0  0  0  0  0  0  0  0105  0  0
  -25.2633  -13.8245   20.5754 C   0  0  0  0  0  0  0  0  0106  0  0
  -24.1645  -13.0409   20.9408 C   0  0  0  0  0  0  0  0  0107  0  0
  -24.6400  -11.7009   20.8697 C   0  0  0  0  0  0  0  0  0108  0  0
  -23.9005  -10.4085   21.0420 C   0  0  0  0  0  0  0  0  0109  0  0
  -24.3588   -9.4123   21.9123 C   0  0  0  0  0  0  0  0  0110  0  0
  -23.6296   -8.2350   22.0803 C   0  0  0  0  0  0  0  0  0111  0  0
  -22.4385   -8.0419   21.3657 C   0  0  0  0  0  0  0  0  0112  0  0
  -22.0103   -9.0167   20.4678 C   0  0  0  0  0  0  0  0  0113  0  0
  -22.7317  -10.1925   20.3102 C   0  0  0  0  0  0  0  0  0114  0  0
  -21.6857   -6.0709   22.5391 C   0  0  0  0  0  0  0  0  0115  0  0
  -21.4064   -6.5490   23.8264 C   0  0  0  0  0  0  0  0  0116  0  0
  -21.3635   -5.6677   24.9085 C   0  0  0  0  0  0  0  0  0117  0  0
  -21.5973   -4.3067   24.7088 C   0  0  0  0  0  0  0  0  0118  0  0
  -21.8700   -3.8284   23.4282 C   0  0  0  0  0  0  0  0  0119  0  0
  -21.9144   -4.7056   22.3460 C   0  0  0  0  0  0  0  0  0120  0  0
  -22.8194  -13.5263   21.1763 C   0  0  0  0  0  0  0  0  0121  0  0
  -22.1559   -4.2206   21.1063 F   0  0  0  0  0  0  0  0  0122  0  0
  -21.5628   -3.4510   25.7555 F   0  0  0  0  0  0  0  0  0123  0  0
  -30.0261  -13.1803   20.4553 N   0  0  0  0  0  0  0  0  0124  0  0
  -26.2911  -12.9356   20.3443 N   0  0  0  0  0  0  0  0  0125  0  0
  -25.9236  -11.6675   20.5847 N   0  0  0  0  0  0  0  0  0126  0  0
  -22.0708  -12.7905   22.0005 N   0  0  0  0  0  0  0  0  0127  0  0
  -25.4117  -15.1773   20.4097 N   0  0  0  0  0  0  0  0  0128  0  0
  -31.7916  -14.6724   20.0536 O   0  0  0  0  0  0  0  0  0129  0  0
  -21.6670   -6.9022   21.4423 O   0  0  0  0  0  0  0  0  0130  0  0
  -22.3946  -14.5564   20.6568 O   0  0  0  0  0  0  0  0  0131  0  0
  -24.6048  -31.8614   23.2223 C   0  0  0  0  0  0  0  0  0100  0  0
  -25.8822  -32.4841   23.8616 C   0  0  1  0  0  0  0  0  0101  0  0
  -27.2536  -27.5042   20.1156 C   0  0  0  0  0  0  0  0  0102  0  0
  -25.5726  -33.8762   24.2210 N   0  0  0  0  0  0  0  0  0103  0  0
  -23.4066  -30.4859   21.5461 C   0  0  2  0  0  0  0  0  0104  0  0
  -24.8467  -28.9636   20.1247 C   0  0  0  0  0  0  0  0  0105  0  0
  -22.7412  -29.4652   22.5052 C   0  0  0  0  0  0  0  0  0106  0  0
  -18.0167  -28.1302   22.8626 C   0  0  0  0  0  0  0  0  0107  0  0
  -24.1342  -36.7390   23.2568 C   0  0  0  0  0  0  0  0  0108  0  0
  -25.9141  -30.8882   21.3456 C   0  0  0  0  0  0  0  0  0109  0  0
  -25.9930  -29.5029   20.7208 C   0  0  0  0  0  0  0  0  0110  0  0
  -27.1758  -28.7612   20.7331 C   0  0  0  0  0  0  0  0  0111  0  0
  -26.1032  -26.9836   19.5230 C   0  0  0  0  0  0  0  0  0112  0  0
  -24.9097  -27.7011   19.5331 C   0  0  0  0  0  0  0  0  0113  0  0
  -23.5715  -29.7899   20.1582 C   0  0  0  0  0  0  0  0  0114  0  0
  -25.3990  -36.3212   24.0232 C   0  0  1  0  0  0  0  0  0115  0  0
  -20.5793  -28.3813   23.1004 C   0  0  2  0  0  0  0  0  0116  0  0
  -20.6548  -26.9392   22.5411 C   0  0  0  0  0  0  0  0  0117  0  0
  -19.5615  -26.6407   21.5143 C   0  0  0  0  0  0  0  0  0118  0  0
  -18.1797  -26.7818   22.1673 C   0  0  0  0  0  0  0  0  0119  0  0
  -19.1385  -28.8769   23.2988 C   0  0  0  0  0  0  0  0  0120  0  0
  -18.9183  -30.1286   23.8878 C   0  0  0  0  0  0  0  0  0121  0  0
  -17.6396  -30.6493   24.0352 C   0  0  0  0  0  0  0  0  0122  0  0
  -25.9153  -34.9582   23.4993 C   0  0  0  0  0  0  0  0  0123  0  0
  -16.5415  -29.9068   23.6254 C   0  0  0  0  0  0  0  0  0124  0  0
  -16.7331  -28.6521   23.0586 C   0  0  0  0  0  0  0  0  0125  0  0
  -26.4583  -31.6439   25.0683 C   0  0  0  0  0  0  0  0  0126  0  0
  -25.3807  -31.3179   26.1374 C   0  0  0  0  0  0  0  0  0127  0  0
  -27.0530  -30.3024   24.5680 C   0  0  0  0  0  0  0  0  0128  0  0
  -27.6014  -32.4281   25.7651 C   0  0  0  0  0  0  0  0  0129  0  0
  -27.5629  -37.2220   24.8621 C   0  0  0  0  0  0  0  0  0130  0  0
  -21.4133  -29.3375   22.3735 N   0  0  0  0  0  0  0  0  0131  0  0
  -26.4706  -37.3372   23.9061 N   0  0  0  0  0  0  0  0  0132  0  0
  -24.6674  -31.0544   22.1178 N   0  0  0  0  0  0  0  0  0133  0  0
  -23.4259  -28.8150   23.2971 O   0  0  0  0  0  0  0  0  0134  0  0
  -28.3948  -26.7345   20.0089 O   0  0  0  0  0  0  0  0  0135  0  0
  -26.5870  -34.9065   22.4671 O   0  0  0  0  0  0  0  0  0136  0  0
  -23.5365  -32.1254   23.7833 O   0  0  0  0  0  0  0  0  0137  0  0
  -25.3959  -12.8917   19.2289 C   0  0  0  0  0  0  0  0  0  0  0  0
  -23.2886  -12.1482   20.1473 C   0  0  0  0  0  0  0  0  0  0  0  0
  -25.4636  -13.8946   20.1960 C   0  0  0  0  0  0  0  0  0  0  0  0
  -23.3563  -13.1510   21.1145 C   0  0  0  0  0  0  0  0  0  0  0  0
  -24.4439  -14.0242   21.1388 C   0  0  0  0  0  0  0  0  0  0  0  0
  -24.3084  -12.0186   19.2045 C   0  0  0  0  0  0  0  0  0  0  0  0
  -20.0225  -13.5951   22.5459 C   0  0  0  0  0  0  0  0  0  0  0  0
  -19.4650  -14.7309   21.7355 C   0  0  0  0  0  0  0  0  0  0  0  0
  -19.5211  -12.5846   25.9890 C   0  0  0  0  0  0  0  0  0  0  0  0
  -21.0146  -12.7044   21.8511 C   0  0  0  0  0  0  0  0  0  0  0  0
  -20.2275  -16.0267   21.7988 C   0  0  0  0  0  0  0  0  0  1  0  0
  -20.1279  -12.4605   24.6065 C   0  0  0  0  0  0  0  0  0  0  0  0
  -19.6087  -13.5247   23.7625 N   0  0  0  0  0  0  0  0  0  0  0  0
  -24.5121  -15.0420   22.1207 N   0  0  0  0  0  0  0  0  0  0  0  0
  -26.5790  -14.7684   20.1986 N   0  0  0  0  0  0  0  0  0  0  0  0
  -22.3295  -13.2605   22.0414 N   0  0  0  0  0  0  0  0  0  0  0  0
  -18.4557  -14.5211   21.0810 O   0  0  0  0  0  0  0  0  0  0  0  0
  -24.2432  -11.0557   18.2757 F   0  0  0  0  0  0  0  0  0  0  0  0
  -31.4485  -12.4701   19.0860 H   0  0  0  0  0  0  0  0  0  0  0  0
  -30.3970  -11.2460   19.6950 H   0  0  0  0  0  0  0  0  0  0  0  0
  -29.6870  -11.8204   17.4226 H   0  0  0  0  0  0  0  0  0  0  0  0
  -29.6375  -13.5326   17.8649 H   0  0  0  0  0  0  0  0  0  0  0  0
  -27.7830  -11.3650   18.7904 H   0  0  0  0  0  0  0  0  0  0  0  0
  -27.4028  -12.7801   17.8021 H   0  0  0  0  0  0  0  0  0  0  0  0
  -27.7353  -14.2503   19.6136 H   0  0  0  0  0  0  0  0  0  0  0  0
  -28.5890  -11.9550   21.3832 H   0  0  0  0  0  0  0  0  0  0  0  0
  -28.5005  -13.6134   21.8562 H   0  0  0  0  0  0  0  0  0  0  0  0
  -25.2399   -9.5495   22.4318 H   0  0  0  0  0  0  0  0  0  0  0  0
  -23.9663   -7.5070   22.7297 H   0  0  0  0  0  0  0  0  0  0  0  0
  -21.1515   -8.8641   19.9162 H   0  0  0  0  0  0  0  0  0  0  0  0
  -22.4016  -10.9115   19.6476 H   0  0  0  0  0  0  0  0  0  0  0  0
  -21.2319   -7.5552   23.9750 H   0  0  0  0  0  0  0  0  0  0  0  0
  -21.1589   -6.0228   25.8556 H   0  0  0  0  0  0  0  0  0  0  0  0
  -22.0396   -2.8212   23.2809 H   0  0  0  0  0  0  0  0  0  0  0  0
  -22.4401  -11.9703   22.4008 H   0  0  0  0  0  0  0  0  0  0  0  0
  -21.1493  -13.0679   22.2082 H   0  0  0  0  0  0  0  0  0  0  0  0
  -24.6538  -15.7807   20.5848 H   0  0  0  0  0  0  0  0  0  0  0  0
  -26.2762  -15.5453   20.1156 H   0  0  0  0  0  0  0  0  0  0  0  0
  -26.6778  -32.4663   23.1464 H   0  0  0  0  0  0  0  0  0  0  0  0
  -25.0747  -34.0282   25.0566 H   0  0  0  0  0  0  0  0  0  0  0  0
  -22.7881  -31.3489   21.4131 H   0  0  0  0  0  0  0  0  0  0  0  0
  -23.3854  -35.9823   23.3648 H   0  0  0  0  0  0  0  0  0  0  0  0
  -24.3696  -36.8624   22.2204 H   0  0  0  0  0  0  0  0  0  0  0  0
  -23.7669  -37.6632   23.6516 H   0  0  0  0  0  0  0  0  0  0  0  0
  -25.9445  -31.6237   20.5691 H   0  0  0  0  0  0  0  0  0  0  0  0
  -26.7436  -31.0079   22.0108 H   0  0  0  0  0  0  0  0  0  0  0  0
  -28.0090  -29.1452   21.2057 H   0  0  0  0  0  0  0  0  0  0  0  0
  -26.1369  -26.0560   19.0719 H   0  0  0  0  0  0  0  0  0  0  0  0
  -24.0652  -27.2961   19.0997 H   0  0  0  0  0  0  0  0  0  0  0  0
  -23.6156  -30.5365   19.3930 H   0  0  0  0  0  0  0  0  0  0  0  0
  -22.7355  -29.1425   19.9945 H   0  0  0  0  0  0  0  0  0  0  0  0
  -25.1353  -36.2335   25.0565 H   0  0  0  0  0  0  0  0  0  0  0  0
  -21.0070  -28.3206   24.0793 H   0  0  0  0  0  0  0  0  0  0  0  0
  -20.5555  -26.2518   23.3550 H   0  0  0  0  0  0  0  0  0  0  0  0
  -21.5974  -26.8362   22.0454 H   0  0  0  0  0  0  0  0  0  0  0  0
  -19.6810  -25.6422   21.1488 H   0  0  0  0  0  0  0  0  0  0  0  0
  -19.6406  -27.3343   20.7034 H   0  0  0  0  0  0  0  0  0  0  0  0
  -17.4282  -26.6888   21.4113 H   0  0  0  0  0  0  0  0  0  0  0  0
  -18.0803  -26.0130   22.9049 H   0  0  0  0  0  0  0  0  0  0  0  0
  -19.7265  -30.6774   24.2204 H   0  0  0  0  0  0  0  0  0  0  0  0
  -17.5064  -31.5856   24.4483 H   0  0  0  0  0  0  0  0  0  0  0  0
  -15.5878  -30.2839   23.7407 H   0  0  0  0  0  0  0  0  0  0  0  0
  -15.9120  -28.0941   22.7766 H   0  0  0  0  0  0  0  0  0  0  0  0
  -24.5787  -30.7757   25.6817 H   0  0  0  0  0  0  0  0  0  0  0  0
  -25.0041  -32.2289   26.5536 H   0  0  0  0  0  0  0  0  0  0  0  0
  -25.8166  -30.7245   26.9138 H   0  0  0  0  0  0  0  0  0  0  0  0
  -26.2892  -29.7335   24.0803 H   0  0  0  0  0  0  0  0  0  0  0  0
  -27.4336  -29.7484   25.4006 H   0  0  0  0  0  0  0  0  0  0  0  0
  -27.8466  -30.4994   23.8779 H   0  0  0  0  0  0  0  0  0  0  0  0
  -27.2251  -33.3632   26.1242 H   0  0  0  0  0  0  0  0  0  0  0  0
  -28.3902  -32.6065   25.0645 H   0  0  0  0  0  0  0  0  0  0  0  0
  -27.9772  -31.8555   26.5872 H   0  0  0  0  0  0  0  0  0  0  0  0
  -28.2744  -38.0016   24.6863 H   0  0  0  0  0  0  0  0  0  0  0  0
  -28.0396  -36.2711   24.7461 H   0  0  0  0  0  0  0  0  0  0  0  0
  -27.1773  -37.3087   25.8564 H   0  0  0  0  0  0  0  0  0  0  0  0
  -20.9627  -29.9365   21.7352 H   0  0  0  0  0  0  0  0  0  0  0  0
  -26.0447  -38.2561   24.0273 H   0  0  0  0  0  0  0  0  0  0  0  0
  -26.1504  -12.7957   18.5314 H   0  0  0  0  0  0  0  0  0  0  0  0
  -22.4840  -11.5022   20.1292 H   0  0  0  0  0  0  0  0  0  0  0  0
  -19.8990  -11.8041   26.6158 H   0  0  0  0  0  0  0  0  0  0  0  0
  -18.4565  -12.5026   25.9199 H   0  0  0  0  0  0  0  0  0  0  0  0
  -19.7792  -13.5348   26.4078 H   0  0  0  0  0  0  0  0  0  0  0  0
  -20.7891  -12.6571   20.8062 H   0  0  0  0  0  0  0  0  0  0  0  0
  -20.9697  -11.7150   22.2559 H   0  0  0  0  0  0  0  0  0  0  0  0
  -20.5616  -15.8568   22.8010 H   0  0  0  0  0  0  0  0  0  0  0  0
  -19.7413  -16.3037   20.8868 H   0  0  0  0  0  0  0  0  0  0  0  0
  -19.8699  -11.5111   24.1857 H   0  0  0  0  0  0  0  0  0  0  0  0
  -21.1930  -12.5388   24.6716 H   0  0  0  0  0  0  0  0  0  0  0  0
  -25.2795  -15.6585   22.1382 H   0  0  0  0  0  0  0  0  0  0  0  0
  -23.7921  -15.1332   22.7859 H   0  0  0  0  0  0  0  0  0  0  0  0
  -26.3134  -15.7057   20.0566 H   0  0  0  0  0  0  0  0  0  0  0  0
  -22.5104  -13.7468   22.8781 H   0  0  0  0  0  0  0  0  0  0  0  0
  1 25  1  0
  1 30  2  0
  1 85  1  0
  2  3  1  0
  2 25  1  0
  2 89  1  0
  2 90  1  0
  3  4  1  0
  3 91  1  0
  3 92  1  0
  4  5  1  0
  4 93  1  0
  4 94  1  0
  5  6  1  0
  5 26  1  0
  5 95  1  6
  6 25  1  0
  6 96  1  0
  6 97  1  0
  7  8  2  0
  7 26  1  0
  7 29  1  0
  8  9  1  0
  8 22  1  0
  9 10  1  0
  9 27  2  0
 10 11  2  0
 10 15  1  0
 11 12  1  0
 11 98  1  0
 12 13  2  0
 12 99  1  0
 13 14  1  0
 13 31  1  0
 14 15  2  0
 14100  1  0
 15101  1  0
 16 17  2  0
 16 21  1  0
 16 31  1  0
 17 18  1  0
 17102  1  0
 18 19  2  0
 18103  1  0
 19 20  1  0
 19 24  1  0
 20 21  2  0
 20104  1  0
 21 23  1  0
 22 28  1  0
 22 32  2  0
 26 27  1  0
 28105  1  0
 28106  1  0
 29107  1  0
 29108  1  0
 33 34  1  0
 33 66  1  0
 33 70  2  0
 34 36  1  0
 34 59  1  0
 34109  1  6
 35 44  2  0
 35 45  1  0
 35 68  1  0
 36 56  1  0
 36110  1  0
 37 39  1  0
 37 47  1  0
 37 66  1  0
 37111  1  6
 38 43  2  0
 38 46  1  0
 38 47  1  0
 39 64  1  0
 39 67  2  0
 40 52  1  0
 40 53  2  0
 40 58  1  0
 41112  1  0
 41113  1  0
 41114  1  0
 42 43  1  0
 42 66  1  0
 42115  1  0
 42116  1  0
 43 44  1  0
 44117  1  0
 45 46  2  0
 45118  1  0
 46119  1  0
 47120  1  0
 47121  1  0
 48 41  1  0
 48 56  1  0
 48 65  1  0
 48122  1  1
 49 50  1  0
 49 53  1  0
 49 64  1  0
 49123  1  1
 50 51  1  0
 50124  1  0
 50125  1  0
 51 52  1  0
 51126  1  0
 51127  1  0
 52128  1  0
 52129  1  0
 53 54  1  0
 54 55  2  0
 54130  1  0
 55 57  1  0
 55131  1  0
 56 69  2  0
 57 58  2  0
 57132  1  0
 58133  1  0
 59 60  1  0
 59 61  1  0
 59 62  1  0
 60134  1  0
 60135  1  0
 60136  1  0
 61137  1  0
 61138  1  0
 61139  1  0
 62140  1  0
 62141  1  0
 62142  1  0
 63 65  1  0
 63143  1  0
 63144  1  0
 63145  1  0
 64146  1  0
 65147  1  0
 68 81  1  0
 71 73  2  0
 71 76  1  0
 71148  1  0
 72 74  1  0
 72 76  2  0
 72149  1  0
 73 75  1  0
 73 85  1  0
 74 75  2  0
 74 86  1  0
 75 84  1  0
 76 88  1  0
 77 78  1  0
 77 80  1  0
 77 83  2  0
 78 81  1  0
 78 87  2  0
 79 82  1  0
 79150  1  0
 79151  1  0
 79152  1  0
 80 86  1  0
 80153  1  0
 80154  1  0
 81155  1  0
 81156  1  0
 82 83  1  0
 82157  1  0
 82158  1  0
 84159  1  0
 84160  1  0
 85161  1  0
 86162  1  0
M  ISO  4   1 100  68 101  81 101  85 100
M  END
$$$$
90
     RDKit          3D

162170  0  0  0  0  0  0  0  0999 V2000
  -30.7652  -14.3608   20.6636 C   0  0  0  0  0  0  0  0  0100  0  0
  -30.4392  -12.2669   19.3775 C   0  0  0  0  0  0  0  0  0101  0  0
  -29.4791  -12.5281   18.1977 C   0  0  0  0  0  0  0  0  0102  0  0
  -27.9985  -12.3963   18.6038 C   0  0  0  0  0  0  0  0  0103  0  0
  -27.6639  -13.2170   19.8820 C   0  0  2  0  0  0  0  0  0104  0  0
  -28.6795  -12.9602   21.0279 C   0  0  0  0  0  0  0  0  0105  0  0
  -25.2633  -13.8245   20.5754 C   0  0  0  0  0  0  0  0  0106  0  0
  -24.1645  -13.0409   20.9408 C   0  0  0  0  0  0  0  0  0107  0  0
  -24.6400  -11.7009   20.8697 C   0  0  0  0  0  0  0  0  0108  0  0
  -23.9005  -10.4085   21.0420 C   0  0  0  0  0  0  0  0  0109  0  0
  -24.3588   -9.4123   21.9123 C   0  0  0  0  0  0  0  0  0110  0  0
  -23.6296   -8.2350   22.0803 C   0  0  0  0  0  0  0  0  0111  0  0
  -22.4385   -8.0419   21.3657 C   0  0  0  0  0  0  0  0  0112  0  0
  -22.0103   -9.0167   20.4678 C   0  0  0  0  0  0  0  0  0113  0  0
  -22.7317  -10.1925   20.3102 C   0  0  0  0  0  0  0  0  0114  0  0
  -21.6857   -6.0709   22.5391 C   0  0  0  0  0  0  0  0  0115  0  0
  -21.4064   -6.5490   23.8264 C   0  0  0  0  0  0  0  0  0116  0  0
  -21.3635   -5.6677   24.9085 C   0  0  0  0  0  0  0  0  0117  0  0
  -21.5973   -4.3067   24.7088 C   0  0  0  0  0  0  0  0  0118  0  0
  -21.8700   -3.8284   23.4282 C   0  0  0  0  0  0  0  0  0119  0  0
  -21.9144   -4.7056   22.3460 C   0  0  0  0  0  0  0  0  0120  0  0
  -22.8194  -13.5263   21.1763 C   0  0  0  0  0  0  0  0  0121  0  0
  -22.1559   -4.2206   21.1063 F   0  0  0  0  0  0  0  0  0122  0  0
  -21.5628   -3.4510   25.7555 F   0  0  0  0  0  0  0  0  0123  0  0
  -30.0261  -13.1803   20.4553 N   0  0  0  0  0  0  0  0  0124  0  0
  -26.2911  -12.9356   20.3443 N   0  0  0  0  0  0  0  0  0125  0  0
  -25.9236  -11.6675   20.5847 N   0  0  0  0  0  0  0  0  0126  0  0
  -22.0708  -12.7905   22.0005 N   0  0  0  0  0  0  0  0  0127  0  0
  -25.4117  -15.1773   20.4097 N   0  0  0  0  0  0  0  0  0128  0  0
  -31.7916  -14.6724   20.0536 O   0  0  0  0  0  0  0  0  0129  0  0
  -21.6670   -6.9022   21.4423 O   0  0  0  0  0  0  0  0  0130  0  0
  -22.3946  -14.5564   20.6568 O   0  0  0  0  0  0  0  0  0131  0  0
  -24.6048  -31.8614   23.2223 C   0  0  0  0  0  0  0  0  0100  0  0
  -25.8822  -32.4841   23.8616 C   0  0  1  0  0  0  0  0  0101  0  0
  -27.2536  -27.5042   20.1156 C   0  0  0  0  0  0  0  0  0102  0  0
  -25.5726  -33.8762   24.2210 N   0  0  0  0  0  0  0  0  0103  0  0
  -23.4066  -30.4859   21.5461 C   0  0  2  0  0  0  0  0  0104  0  0
  -24.8467  -28.9636   20.1247 C   0  0  0  0  0  0  0  0  0105  0  0
  -22.7412  -29.4652   22.5052 C   0  0  0  0  0  0  0  0  0106  0  0
  -18.0167  -28.1302   22.8626 C   0  0  0  0  0  0  0  0  0107  0  0
  -24.1342  -36.7390   23.2568 C   0  0  0  0  0  0  0  0  0108  0  0
  -25.9141  -30.8882   21.3456 C   0  0  0  0  0  0  0  0  0109  0  0
  -25.9930  -29.5029   20.7208 C   0  0  0  0  0  0  0  0  0110  0  0
  -27.1758  -28.7612   20.7331 C   0  0  0  0  0  0  0  0  0111  0  0
  -26.1032  -26.9836   19.5230 C   0  0  0  0  0  0  0  0  0112  0  0
  -24.9097  -27.7011   19.5331 C   0  0  0  0  0  0  0  0  0113  0  0
  -23.5715  -29.7899   20.1582 C   0  0  0  0  0  0  0  0  0114  0  0
  -25.3990  -36.3212   24.0232 C   0  0  1  0  0  0  0  0  0115  0  0
  -20.5793  -28.3813   23.1004 C   0  0  2  0  0  0  0  0  0116  0  0
  -20.6548  -26.9392   22.5411 C   0  0  0  0  0  0  0  0  0117  0  0
  -19.5615  -26.6407   21.5143 C   0  0  0  0  0  0  0  0  0118  0  0
  -18.1797  -26.7818   22.1673 C   0  0  0  0  0  0  0  0  0119  0  0
  -19.1385  -28.8769   23.2988 C   0  0  0  0  0  0  0  0  0120  0  0
  -18.9183  -30.1286   23.8878 C   0  0  0  0  0  0  0  0  0121  0  0
  -17.6396  -30.6493   24.0352 C   0  0  0  0  0  0  0  0  0122  0  0
  -25.9153  -34.9582   23.4993 C   0  0  0  0  0  0  0  0  0123  0  0
  -16.5415  -29.9068   23.6254 C   0  0  0  0  0  0  0  0  0124  0  0
  -16.7331  -28.6521   23.0586 C   0  0  0  0  0  0  0  0  0125  0  0
  -26.4583  -31.6439   25.0683 C   0  0  0  0  0  0  0  0  0126  0  0
  -25.3807  -31.3179   26.1374 C   0  0  0  0  0  0  0  0  0127  0  0
  -27.0530  -30.3024   24.5680 C   0  0  0  0  0  0  0  0  0128  0  0
  -27.6014  -32.4281   25.7651 C   0  0  0  0  0  0  0  0  0129  0  0
  -27.5629  -37.2220   24.8621 C   0  0  0  0  0  0  0  0  0130  0  0
  -21.4133  -29.3375   22.3735 N   0  0  0  0  0  0  0  0  0131  0  0
  -26.4706  -37.3372   23.9061 N   0  0  0  0  0  0  0  0  0132  0  0
  -24.6674  -31.0544   22.1178 N   0  0  0  0  0  0  0  0  0133  0  0
  -23.4259  -28.8150   23.2971 O   0  0  0  0  0  0  0  0  0134  0  0
  -28.3948  -26.7345   20.0089 O   0  0  0  0  0  0  0  0  0135  0  0
  -26.5870  -34.9065   22.4671 O   0  0  0  0  0  0  0  0  0136  0  0
  -23.5365  -32.1254   23.7833 O   0  0  0  0  0  0  0  0  0137  0  0
  -29.1749  -18.1378   22.8546 C   0  0  0  0  0  0  0  0  0  0  0  0
  -29.2564  -19.0948   20.6378 C   0  0  0  0  0  0  0  0  0  0  0  0
  -29.5859  -18.0689   21.5235 C   0  0  0  0  0  0  0  0  0  0  0  0
  -28.4340  -19.2326   23.3000 C   0  0  0  0  0  0  0  0  0  0  0  0
  -28.5156  -20.1896   21.0831 C   0  0  0  0  0  0  0  0  0  0  0  0
  -28.1044  -20.2585   22.4143 C   0  0  0  0  0  0  0  0  0  0  0  0
  -31.5057  -14.8705   21.1187 C   0  0  0  0  0  0  0  0  0  0  0  0
  -28.2589  -18.3718   25.6564 C   0  0  0  0  0  0  0  0  0  0  0  0
  -27.6452  -18.8132   26.9613 C   0  0  0  0  0  0  0  0  0  0  0  0
  -30.7072  -15.8761   21.9239 C   0  0  0  0  0  0  0  0  0  0  0  0
  -30.8511  -12.7916   22.4122 C   0  0  0  0  0  0  0  0  0  1  0  0
  -31.9964  -13.6340   21.8683 C   0  0  1  0  0  0  0  0  0  0  0  0
  -28.0240  -19.2986   24.6321 N   0  0  0  0  0  0  0  0  0  0  0  0
  -28.1813  -21.2297   20.1809 N   0  0  0  0  0  0  0  0  0  0  0  0
  -30.3223  -16.9797   21.0810 N   0  0  0  0  0  0  0  0  0  0  0  0
  -31.7567  -15.0371   19.9245 O   0  0  0  0  0  0  0  0  0  0  0  0
  -28.8786  -17.3158   25.5792 O   0  0  0  0  0  0  0  0  0  0  0  0
  -32.7753  -12.8301   20.9961 O   0  0  0  0  0  0  0  0  0  0  0  0
  -27.3910  -21.3114   22.8424 F   0  0  0  0  0  0  0  0  0  0  0  0
  -31.4485  -12.4701   19.0860 H   0  0  0  0  0  0  0  0  0  0  0  0
  -30.3970  -11.2460   19.6950 H   0  0  0  0  0  0  0  0  0  0  0  0
  -29.6870  -11.8204   17.4226 H   0  0  0  0  0  0  0  0  0  0  0  0
  -29.6375  -13.5326   17.8649 H   0  0  0  0  0  0  0  0  0  0  0  0
  -27.7830  -11.3650   18.7904 H   0  0  0  0  0  0  0  0  0  0  0  0
  -27.4028  -12.7801   17.8021 H   0  0  0  0  0  0  0  0  0  0  0  0
  -27.7353  -14.2503   19.6136 H   0  0  0  0  0  0  0  0  0  0  0  0
  -28.5890  -11.9550   21.3832 H   0  0  0  0  0  0  0  0  0  0  0  0
  -28.5005  -13.6134   21.8562 H   0  0  0  0  0  0  0  0  0  0  0  0
  -25.2399   -9.5495   22.4318 H   0  0  0  0  0  0  0  0  0  0  0  0
  -23.9663   -7.5070   22.7297 H   0  0  0  0  0  0  0  0  0  0  0  0
  -21.1515   -8.8641   19.9162 H   0  0  0  0  0  0  0  0  0  0  0  0
  -22.4016  -10.9115   19.6476 H   0  0  0  0  0  0  0  0  0  0  0  0
  -21.2319   -7.5552   23.9750 H   0  0  0  0  0  0  0  0  0  0  0  0
  -21.1589   -6.0228   25.8556 H   0  0  0  0  0  0  0  0  0  0  0  0
  -22.0396   -2.8212   23.2809 H   0  0  0  0  0  0  0  0  0  0  0  0
  -22.4401  -11.9703   22.4008 H   0  0  0  0  0  0  0  0  0  0  0  0
  -21.1493  -13.0679   22.2082 H   0  0  0  0  0  0  0  0  0  0  0  0
  -24.6538  -15.7807   20.5848 H   0  0  0  0  0  0  0  0  0  0  0  0
  -26.2762  -15.5453   20.1156 H   0  0  0  0  0  0  0  0  0  0  0  0
  -26.6778  -32.4663   23.1464 H   0  0  0  0  0  0  0  0  0  0  0  0
  -25.0747  -34.0282   25.0566 H   0  0  0  0  0  0  0  0  0  0  0  0
  -22.7881  -31.3489   21.4131 H   0  0  0  0  0  0  0  0  0  0  0  0
  -23.3854  -35.9823   23.3648 H   0  0  0  0  0  0  0  0  0  0  0  0
  -24.3696  -36.8624   22.2204 H   0  0  0  0  0  0  0  0  0  0  0  0
  -23.7669  -37.6632   23.6516 H   0  0  0  0  0  0  0  0  0  0  0  0
  -25.9445  -31.6237   20.5691 H   0  0  0  0  0  0  0  0  0  0  0  0
  -26.7436  -31.0079   22.0108 H   0  0  0  0  0  0  0  0  0  0  0  0
  -28.0090  -29.1452   21.2057 H   0  0  0  0  0  0  0  0  0  0  0  0
  -26.1369  -26.0560   19.0719 H   0  0  0  0  0  0  0  0  0  0  0  0
  -24.0652  -27.2961   19.0997 H   0  0  0  0  0  0  0  0  0  0  0  0
  -23.6156  -30.5365   19.3930 H   0  0  0  0  0  0  0  0  0  0  0  0
  -22.7355  -29.1425   19.9945 H   0  0  0  0  0  0  0  0  0  0  0  0
  -25.1353  -36.2335   25.0565 H   0  0  0  0  0  0  0  0  0  0  0  0
  -21.0070  -28.3206   24.0793 H   0  0  0  0  0  0  0  0  0  0  0  0
  -20.5555  -26.2518   23.3550 H   0  0  0  0  0  0  0  0  0  0  0  0
  -21.5974  -26.8362   22.0454 H   0  0  0  0  0  0  0  0  0  0  0  0
  -19.6810  -25.6422   21.1488 H   0  0  0  0  0  0  0  0  0  0  0  0
  -19.6406  -27.3343   20.7034 H   0  0  0  0  0  0  0  0  0  0  0  0
  -17.4282  -26.6888   21.4113 H   0  0  0  0  0  0  0  0  0  0  0  0
  -18.0803  -26.0130   22.9049 H   0  0  0  0  0  0  0  0  0  0  0  0
  -19.7265  -30.6774   24.2204 H   0  0  0  0  0  0  0  0  0  0  0  0
  -17.5064  -31.5856   24.4483 H   0  0  0  0  0  0  0  0  0  0  0  0
  -15.5878  -30.2839   23.7407 H   0  0  0  0  0  0  0  0  0  0  0  0
  -15.9120  -28.0941   22.7766 H   0  0  0  0  0  0  0  0  0  0  0  0
  -24.5787  -30.7757   25.6817 H   0  0  0  0  0  0  0  0  0  0  0  0
  -25.0041  -32.2289   26.5536 H   0  0  0  0  0  0  0  0  0  0  0  0
  -25.8166  -30.7245   26.9138 H   0  0  0  0  0  0  0  0  0  0  0  0
  -26.2892  -29.7335   24.0803 H   0  0  0  0  0  0  0  0  0  0  0  0
  -27.4336  -29.7484   25.4006 H   0  0  0  0  0  0  0  0  0  0  0  0
  -27.8466  -30.4994   23.8779 H   0  0  0  0  0  0  0  0  0  0  0  0
  -27.2251  -33.3632   26.1242 H   0  0  0  0  0  0  0  0  0  0  0  0
  -28.3902  -32.6065   25.0645 H   0  0  0  0  0  0  0  0  0  0  0  0
  -27.9772  -31.8555   26.5872 H   0  0  0  0  0  0  0  0  0  0  0  0
  -28.2744  -38.0016   24.6863 H   0  0  0  0  0  0  0  0  0  0  0  0
  -28.0396  -36.2711   24.7461 H   0  0  0  0  0  0  0  0  0  0  0  0
  -27.1773  -37.3087   25.8564 H   0  0  0  0  0  0  0  0  0  0  0  0
  -20.9627  -29.9365   21.7352 H   0  0  0  0  0  0  0  0  0  0  0  0
  -26.0447  -38.2561   24.0273 H   0  0  0  0  0  0  0  0  0  0  0  0
  -29.4189  -17.3788   23.5099 H   0  0  0  0  0  0  0  0  0  0  0  0
  -29.5607  -19.0439   19.6530 H   0  0  0  0  0  0  0  0  0  0  0  0
  -27.1515  -19.7525   26.8236 H   0  0  0  0  0  0  0  0  0  0  0  0
  -28.4131  -18.9186   27.6990 H   0  0  0  0  0  0  0  0  0  0  0  0
  -26.9356  -18.0817   27.2872 H   0  0  0  0  0  0  0  0  0  0  0  0
  -31.3057  -16.2389   22.7332 H   0  0  0  0  0  0  0  0  0  0  0  0
  -29.8287  -15.4026   22.3098 H   0  0  0  0  0  0  0  0  0  0  0  0
  -30.8930  -12.4271   23.4173 H   0  0  0  0  0  0  0  0  0  0  0  0
  -30.3766  -11.8865   22.0951 H   0  0  0  0  0  0  0  0  0  0  0  0
  -32.5783  -13.9778   22.6978 H   0  0  0  0  0  0  0  0  0  0  0  0
  -27.5047  -20.0962   24.8838 H   0  0  0  0  0  0  0  0  0  0  0  0
  -27.8774  -22.0927   19.8175 H   0  0  0  0  0  0  0  0  0  0  0  0
  -30.5980  -16.9595   20.1361 H   0  0  0  0  0  0  0  0  0  0  0  0
  -32.2260  -12.5319   20.2543 H   0  0  0  0  0  0  0  0  0  0  0  0
  1 25  1  0
  1 30  2  0
  1 84  1  0
  2  3  1  0
  2 25  1  0
  2 90  1  0
  2 91  1  0
  3  4  1  0
  3 92  1  0
  3 93  1  0
  4  5  1  0
  4 94  1  0
  4 95  1  0
  5  6  1  0
  5 26  1  0
  5 96  1  6
  6 25  1  0
  6 97  1  0
  6 98  1  0
  7  8  2  0
  7 26  1  0
  7 29  1  0
  8  9  1  0
  8 22  1  0
  9 10  1  0
  9 27  2  0
 10 11  2  0
 10 15  1  0
 11 12  1  0
 11 99  1  0
 12 13  2  0
 12100  1  0
 13 14  1  0
 13 31  1  0
 14 15  2  0
 14101  1  0
 15102  1  0
 16 17  2  0
 16 21  1  0
 16 31  1  0
 17 18  1  0
 17103  1  0
 18 19  2  0
 18104  1  0
 19 20  1  0
 19 24  1  0
 20 21  2  0
 20105  1  0
 21 23  1  0
 22 28  1  0
 22 32  2  0
 26 27  1  0
 28106  1  0
 28107  1  0
 29108  1  0
 29109  1  0
 33 34  1  0
 33 66  1  0
 33 70  2  0
 34 36  1  0
 34 59  1  0
 34110  1  6
 35 44  2  0
 35 45  1  0
 35 68  1  0
 36 56  1  0
 36111  1  0
 37 39  1  0
 37 47  1  0
 37 66  1  0
 37112  1  6
 38 43  2  0
 38 46  1  0
 38 47  1  0
 39 64  1  0
 39 67  2  0
 40 52  1  0
 40 53  2  0
 40 58  1  0
 41113  1  0
 41114  1  0
 41115  1  0
 42 43  1  0
 42 66  1  0
 42116  1  0
 42117  1  0
 43 44  1  0
 44118  1  0
 45 46  2  0
 45119  1  0
 46120  1  0
 47121  1  0
 47122  1  0
 48 41  1  0
 48 56  1  0
 48 65  1  0
 48123  1  1
 49 50  1  0
 49 53  1  0
 49 64  1  0
 49124  1  1
 50 51  1  0
 50125  1  0
 50126  1  0
 51 52  1  0
 51127  1  0
 51128  1  0
 52129  1  0
 52130  1  0
 53 54  1  0
 54 55  2  0
 54131  1  0
 55 57  1  0
 55132  1  0
 56 69  2  0
 57 58  2  0
 57133  1  0
 58134  1  0
 59 60  1  0
 59 61  1  0
 59 62  1  0
 60135  1  0
 60136  1  0
 60137  1  0
 61138  1  0
 61139  1  0
 61140  1  0
 62141  1  0
 62142  1  0
 62143  1  0
 63 65  1  0
 63144  1  0
 63145  1  0
 63146  1  0
 64147  1  0
 65148  1  0
 68 81  1  0
 71 73  2  0
 71 74  1  0
 71149  1  0
 72 73  1  0
 72 75  2  0
 72150  1  0
 73 85  1  0
 74 76  2  0
 74 83  1  0
 75 76  1  0
 75 84  1  0
 76 89  1  0
 77 80  1  0
 77 82  1  0
 77 86  2  0
 78 79  1  0
 78 83  1  0
 78 87  2  0
 79151  1  0
 79152  1  0
 79153  1  0
 80 85  1  0
 80154  1  0
 80155  1  0
 81 82  1  0
 81156  1  0
 81157  1  0
 82 88  1  0
 82158  1  1
 83159  1  0
 84160  1  0
 85161  1  0
 88162  1  0
M  ISO  4   1 100  68 101  81 101  84 100
M  END
$$$$
91
     RDKit          3D

159167  0  0  0  0  0  0  0  0999 V2000
  -30.7652  -14.3608   20.6636 C   0  0  0  0  0  0  0  0  0100  0  0
  -30.4392  -12.2669   19.3775 C   0  0  0  0  0  0  0  0  0101  0  0
  -29.4791  -12.5281   18.1977 C   0  0  0  0  0  0  0  0  0102  0  0
  -27.9985  -12.3963   18.6038 C   0  0  0  0  0  0  0  0  0103  0  0
  -27.6639  -13.2170   19.8820 C   0  0  2  0  0  0  0  0  0104  0  0
  -28.6795  -12.9602   21.0279 C   0  0  0  0  0  0  0  0  0105  0  0
  -25.2633  -13.8245   20.5754 C   0  0  0  0  0  0  0  0  0106  0  0
  -24.1645  -13.0409   20.9408 C   0  0  0  0  0  0  0  0  0107  0  0
  -24.6400  -11.7009   20.8697 C   0  0  0  0  0  0  0  0  0108  0  0
  -23.9005  -10.4085   21.0420 C   0  0  0  0  0  0  0  0  0109  0  0
  -24.3588   -9.4123   21.9123 C   0  0  0  0  0  0  0  0  0110  0  0
  -23.6296   -8.2350   22.0803 C   0  0  0  0  0  0  0  0  0111  0  0
  -22.4385   -8.0419   21.3657 C   0  0  0  0  0  0  0  0  0112  0  0
  -22.0103   -9.0167   20.4678 C   0  0  0  0  0  0  0  0  0113  0  0
  -22.7317  -10.1925   20.3102 C   0  0  0  0  0  0  0  0  0114  0  0
  -21.6857   -6.0709   22.5391 C   0  0  0  0  0  0  0  0  0115  0  0
  -21.4064   -6.5490   23.8264 C   0  0  0  0  0  0  0  0  0116  0  0
  -21.3635   -5.6677   24.9085 C   0  0  0  0  0  0  0  0  0117  0  0
  -21.5973   -4.3067   24.7088 C   0  0  0  0  0  0  0  0  0118  0  0
  -21.8700   -3.8284   23.4282 C   0  0  0  0  0  0  0  0  0119  0  0
  -21.9144   -4.7056   22.3460 C   0  0  0  0  0  0  0  0  0120  0  0
  -22.8194  -13.5263   21.1763 C   0  0  0  0  0  0  0  0  0121  0  0
  -22.1559   -4.2206   21.1063 F   0  0  0  0  0  0  0  0  0122  0  0
  -21.5628   -3.4510   25.7555 F   0  0  0  0  0  0  0  0  0123  0  0
  -30.0261  -13.1803   20.4553 N   0  0  0  0  0  0  0  0  0124  0  0
  -26.2911  -12.9356   20.3443 N   0  0  0  0  0  0  0  0  0125  0  0
  -25.9236  -11.6675   20.5847 N   0  0  0  0  0  0  0  0  0126  0  0
  -22.0708  -12.7905   22.0005 N   0  0  0  0  0  0  0  0  0127  0  0
  -25.4117  -15.1773   20.4097 N   0  0  0  0  0  0  0  0  0128  0  0
  -31.7916  -14.6724   20.0536 O   0  0  0  0  0  0  0  0  0129  0  0
  -21.6670   -6.9022   21.4423 O   0  0  0  0  0  0  0  0  0130  0  0
  -22.3946  -14.5564   20.6568 O   0  0  0  0  0  0  0  0  0131  0  0
  -24.6048  -31.8614   23.2223 C   0  0  0  0  0  0  0  0  0100  0  0
  -25.8822  -32.4841   23.8616 C   0  0  1  0  0  0  0  0  0101  0  0
  -27.2536  -27.5042   20.1156 C   0  0  0  0  0  0  0  0  0102  0  0
  -25.5726  -33.8762   24.2210 N   0  0  0  0  0  0  0  0  0103  0  0
  -23.4066  -30.4859   21.5461 C   0  0  2  0  0  0  0  0  0104  0  0
  -24.8467  -28.9636   20.1247 C   0  0  0  0  0  0  0  0  0105  0  0
  -22.7412  -29.4652   22.5052 C   0  0  0  0  0  0  0  0  0106  0  0
  -18.0167  -28.1302   22.8626 C   0  0  0  0  0  0  0  0  0107  0  0
  -24.1342  -36.7390   23.2568 C   0  0  0  0  0  0  0  0  0108  0  0
  -25.9141  -30.8882   21.3456 C   0  0  0  0  0  0  0  0  0109  0  0
  -25.9930  -29.5029   20.7208 C   0  0  0  0  0  0  0  0  0110  0  0
  -27.1758  -28.7612   20.7331 C   0  0  0  0  0  0  0  0  0111  0  0
  -26.1032  -26.9836   19.5230 C   0  0  0  0  0  0  0  0  0112  0  0
  -24.9097  -27.7011   19.5331 C   0  0  0  0  0  0  0  0  0113  0  0
  -23.5715  -29.7899   20.1582 C   0  0  0  0  0  0  0  0  0114  0  0
  -25.3990  -36.3212   24.0232 C   0  0  1  0  0  0  0  0  0115  0  0
  -20.5793  -28.3813   23.1004 C   0  0  2  0  0  0  0  0  0116  0  0
  -20.6548  -26.9392   22.5411 C   0  0  0  0  0  0  0  0  0117  0  0
  -19.5615  -26.6407   21.5143 C   0  0  0  0  0  0  0  0  0118  0  0
  -18.1797  -26.7818   22.1673 C   0  0  0  0  0  0  0  0  0119  0  0
  -19.1385  -28.8769   23.2988 C   0  0  0  0  0  0  0  0  0120  0  0
  -18.9183  -30.1286   23.8878 C   0  0  0  0  0  0  0  0  0121  0  0
  -17.6396  -30.6493   24.0352 C   0  0  0  0  0  0  0  0  0122  0  0
  -25.9153  -34.9582   23.4993 C   0  0  0  0  0  0  0  0  0123  0  0
  -16.5415  -29.9068   23.6254 C   0  0  0  0  0  0  0  0  0124  0  0
  -16.7331  -28.6521   23.0586 C   0  0  0  0  0  0  0  0  0125  0  0
  -26.4583  -31.6439   25.0683 C   0  0  0  0  0  0  0  0  0126  0  0
  -25.3807  -31.3179   26.1374 C   0  0  0  0  0  0  0  0  0127  0  0
  -27.0530  -30.3024   24.5680 C   0  0  0  0  0  0  0  0  0128  0  0
  -27.6014  -32.4281   25.7651 C   0  0  0  0  0  0  0  0  0129  0  0
  -27.5629  -37.2220   24.8621 C   0  0  0  0  0  0  0  0  0130  0  0
  -21.4133  -29.3375   22.3735 N   0  0  0  0  0  0  0  0  0131  0  0
  -26.4706  -37.3372   23.9061 N   0  0  0  0  0  0  0  0  0132  0  0
  -24.6674  -31.0544   22.1178 N   0  0  0  0  0  0  0  0  0133  0  0
  -23.4259  -28.8150   23.2971 O   0  0  0  0  0  0  0  0  0134  0  0
  -28.3948  -26.7345   20.0089 O   0  0  0  0  0  0  0  0  0135  0  0
  -26.5870  -34.9065   22.4671 O   0  0  0  0  0  0  0  0  0136  0  0
  -23.5365  -32.1254   23.7833 O   0  0  0  0  0  0  0  0  0137  0  0
  -29.3482  -24.5755   18.2851 C   0  0  0  0  0  0  0  0  0  0  0  0
  -30.0081  -25.3465   19.2190 C   0  0  0  0  0  0  0  0  0  0  0  0
  -29.6968  -23.0300   19.8016 C   0  0  0  0  0  0  0  0  0  0  0  0
  -31.0446  -27.3926   20.2513 C   0  0  0  0  0  0  0  0  0  0  0  0
  -28.8266  -25.0428   16.9842 C   0  0  0  0  0  0  0  0  0  0  0  0
  -31.6995  -29.9364   22.1191 C   0  0  0  0  0  0  0  0  0  0  0  0
  -30.5247  -31.2637   20.3614 C   0  0  0  0  0  0  0  0  0  0  0  0
  -31.2546  -28.8627   19.9115 C   0  0  0  0  0  0  0  0  0  0  0  0
  -29.3196  -29.3919   21.5126 C   0  0  0  0  0  0  0  0  0  1  0  0
  -30.6848  -29.8543   20.9581 C   0  0  0  0  0  0  0  0  0  0  0  0
  -29.1691  -23.2468   18.6173 N   0  0  0  0  0  0  0  0  0  0  0  0
  -30.3719  -26.7138   19.2436 N   0  0  0  0  0  0  0  0  0  0  0  0
  -29.7379  -21.8101   20.5221 N   0  0  0  0  0  0  0  0  0  0  0  0
  -31.4484  -26.9381   21.3183 O   0  0  0  0  0  0  0  0  0  0  0  0
  -30.4243  -24.3794   20.5728 S   0  0  0  0  0  0  0  0  0  0  0  0
  -31.4485  -12.4701   19.0860 H   0  0  0  0  0  0  0  0  0  0  0  0
  -30.3970  -11.2460   19.6950 H   0  0  0  0  0  0  0  0  0  0  0  0
  -29.6870  -11.8204   17.4226 H   0  0  0  0  0  0  0  0  0  0  0  0
  -29.6375  -13.5326   17.8649 H   0  0  0  0  0  0  0  0  0  0  0  0
  -27.7830  -11.3650   18.7904 H   0  0  0  0  0  0  0  0  0  0  0  0
  -27.4028  -12.7801   17.8021 H   0  0  0  0  0  0  0  0  0  0  0  0
  -27.7353  -14.2503   19.6136 H   0  0  0  0  0  0  0  0  0  0  0  0
  -28.5890  -11.9550   21.3832 H   0  0  0  0  0  0  0  0  0  0  0  0
  -28.5005  -13.6134   21.8562 H   0  0  0  0  0  0  0  0  0  0  0  0
  -25.2399   -9.5495   22.4318 H   0  0  0  0  0  0  0  0  0  0  0  0
  -23.9663   -7.5070   22.7297 H   0  0  0  0  0  0  0  0  0  0  0  0
  -21.1515   -8.8641   19.9162 H   0  0  0  0  0  0  0  0  0  0  0  0
  -22.4016  -10.9115   19.6476 H   0  0  0  0  0  0  0  0  0  0  0  0
  -21.2319   -7.5552   23.9750 H   0  0  0  0  0  0  0  0  0  0  0  0
  -21.1589   -6.0228   25.8556 H   0  0  0  0  0  0  0  0  0  0  0  0
  -22.0396   -2.8212   23.2809 H   0  0  0  0  0  0  0  0  0  0  0  0
  -22.4401  -11.9703   22.4008 H   0  0  0  0  0  0  0  0  0  0  0  0
  -21.1493  -13.0679   22.2082 H   0  0  0  0  0  0  0  0  0  0  0  0
  -24.6538  -15.7807   20.5848 H   0  0  0  0  0  0  0  0  0  0  0  0
  -26.2762  -15.5453   20.1156 H   0  0  0  0  0  0  0  0  0  0  0  0
  -26.6778  -32.4663   23.1464 H   0  0  0  0  0  0  0  0  0  0  0  0
  -25.0747  -34.0282   25.0566 H   0  0  0  0  0  0  0  0  0  0  0  0
  -22.7881  -31.3489   21.4131 H   0  0  0  0  0  0  0  0  0  0  0  0
  -23.3854  -35.9823   23.3648 H   0  0  0  0  0  0  0  0  0  0  0  0
  -24.3696  -36.8624   22.2204 H   0  0  0  0  0  0  0  0  0  0  0  0
  -23.7669  -37.6632   23.6516 H   0  0  0  0  0  0  0  0  0  0  0  0
  -25.9445  -31.6237   20.5691 H   0  0  0  0  0  0  0  0  0  0  0  0
  -26.7436  -31.0079   22.0108 H   0  0  0  0  0  0  0  0  0  0  0  0
  -28.0090  -29.1452   21.2057 H   0  0  0  0  0  0  0  0  0  0  0  0
  -26.1369  -26.0560   19.0719 H   0  0  0  0  0  0  0  0  0  0  0  0
  -24.0652  -27.2961   19.0997 H   0  0  0  0  0  0  0  0  0  0  0  0
  -23.6156  -30.5365   19.3930 H   0  0  0  0  0  0  0  0  0  0  0  0
  -22.7355  -29.1425   19.9945 H   0  0  0  0  0  0  0  0  0  0  0  0
  -25.1353  -36.2335   25.0565 H   0  0  0  0  0  0  0  0  0  0  0  0
  -21.0070  -28.3206   24.0793 H   0  0  0  0  0  0  0  0  0  0  0  0
  -20.5555  -26.2518   23.3550 H   0  0  0  0  0  0  0  0  0  0  0  0
  -21.5974  -26.8362   22.0454 H   0  0  0  0  0  0  0  0  0  0  0  0
  -19.6810  -25.6422   21.1488 H   0  0  0  0  0  0  0  0  0  0  0  0
  -19.6406  -27.3343   20.7034 H   0  0  0  0  0  0  0  0  0  0  0  0
  -17.4282  -26.6888   21.4113 H   0  0  0  0  0  0  0  0  0  0  0  0
  -18.0803  -26.0130   22.9049 H   0  0  0  0  0  0  0  0  0  0  0  0
  -19.7265  -30.6774   24.2204 H   0  0  0  0  0  0  0  0  0  0  0  0
  -17.5064  -31.5856   24.4483 H   0  0  0  0  0  0  0  0  0  0  0  0
  -15.5878  -30.2839   23.7407 H   0  0  0  0  0  0  0  0  0  0  0  0
  -15.9120  -28.0941   22.7766 H   0  0  0  0  0  0  0  0  0  0  0  0
  -24.5787  -30.7757   25.6817 H   0  0  0  0  0  0  0  0  0  0  0  0
  -25.0041  -32.2289   26.5536 H   0  0  0  0  0  0  0  0  0  0  0  0
  -25.8166  -30.7245   26.9138 H   0  0  0  0  0  0  0  0  0  0  0  0
  -26.2892  -29.7335   24.0803 H   0  0  0  0  0  0  0  0  0  0  0  0
  -27.4336  -29.7484   25.4006 H   0  0  0  0  0  0  0  0  0  0  0  0
  -27.8466  -30.4994   23.8779 H   0  0  0  0  0  0  0  0  0  0  0  0
  -27.2251  -33.3632   26.1242 H   0  0  0  0  0  0  0  0  0  0  0  0
  -28.3902  -32.6065   25.0645 H   0  0  0  0  0  0  0  0  0  0  0  0
  -27.9772  -31.8555   26.5872 H   0  0  0  0  0  0  0  0  0  0  0  0
  -28.2744  -38.0016   24.6863 H   0  0  0  0  0  0  0  0  0  0  0  0
  -28.0396  -36.2711   24.7461 H   0  0  0  0  0  0  0  0  0  0  0  0
  -27.1773  -37.3087   25.8564 H   0  0  0  0  0  0  0  0  0  0  0  0
  -20.9627  -29.9365   21.7352 H   0  0  0  0  0  0  0  0  0  0  0  0
  -26.0447  -38.2561   24.0273 H   0  0  0  0  0  0  0  0  0  0  0  0
  -29.0387  -26.0852   16.8685 H   0  0  0  0  0  0  0  0  0  0  0  0
  -27.7685  -24.8879   16.9477 H   0  0  0  0  0  0  0  0  0  0  0  0
  -29.2949  -24.4938   16.1942 H   0  0  0  0  0  0  0  0  0  0  0  0
  -32.6482  -30.2564   21.7417 H   0  0  0  0  0  0  0  0  0  0  0  0
  -31.8025  -28.9723   22.5716 H   0  0  0  0  0  0  0  0  0  0  0  0
  -31.3510  -30.6374   22.8485 H   0  0  0  0  0  0  0  0  0  0  0  0
  -31.4650  -31.5957   19.9734 H   0  0  0  0  0  0  0  0  0  0  0  0
  -30.1952  -31.9384   21.1237 H   0  0  0  0  0  0  0  0  0  0  0  0
  -29.8026  -31.2370   19.5722 H   0  0  0  0  0  0  0  0  0  0  0  0
  -30.7805  -29.0593   18.9726 H   0  0  0  0  0  0  0  0  0  0  0  0
  -32.3126  -29.0207   19.8884 H   0  0  0  0  0  0  0  0  0  0  0  0
  -28.5926  -30.1611   21.3553 H   0  0  0  0  0  0  0  0  0  0  0  0
  -29.4110  -29.1933   22.5600 H   0  0  0  0  0  0  0  0  0  0  0  0
  -30.1187  -27.2456   18.4547 H   0  0  0  0  0  0  0  0  0  0  0  0
  -29.5333  -22.0569   21.4530 H   0  0  0  0  0  0  0  0  0  0  0  0
  1 25  1  0
  1 30  2  0
  1 83  1  0
  2  3  1  0
  2 25  1  0
  2 86  1  0
  2 87  1  0
  3  4  1  0
  3 88  1  0
  3 89  1  0
  4  5  1  0
  4 90  1  0
  4 91  1  0
  5  6  1  0
  5 26  1  0
  5 92  1  6
  6 25  1  0
  6 93  1  0
  6 94  1  0
  7  8  2  0
  7 26  1  0
  7 29  1  0
  8  9  1  0
  8 22  1  0
  9 10  1  0
  9 27  2  0
 10 11  2  0
 10 15  1  0
 11 12  1  0
 11 95  1  0
 12 13  2  0
 12 96  1  0
 13 14  1  0
 13 31  1  0
 14 15  2  0
 14 97  1  0
 15 98  1  0
 16 17  2  0
 16 21  1  0
 16 31  1  0
 17 18  1  0
 17 99  1  0
 18 19  2  0
 18100  1  0
 19 20  1  0
 19 24  1  0
 20 21  2  0
 20101  1  0
 21 23  1  0
 22 28  1  0
 22 32  2  0
 26 27  1  0
 28102  1  0
 28103  1  0
 29104  1  0
 29105  1  0
 33 34  1  0
 33 66  1  0
 33 70  2  0
 34 36  1  0
 34 59  1  0
 34106  1  6
 35 44  2  0
 35 45  1  0
 35 68  1  0
 36 56  1  0
 36107  1  0
 37 39  1  0
 37 47  1  0
 37 66  1  0
 37108  1  6
 38 43  2  0
 38 46  1  0
 38 47  1  0
 39 64  1  0
 39 67  2  0
 40 52  1  0
 40 53  2  0
 40 58  1  0
 41109  1  0
 41110  1  0
 41111  1  0
 42 43  1  0
 42 66  1  0
 42112  1  0
 42113  1  0
 43 44  1  0
 44114  1  0
 45 46  2  0
 45115  1  0
 46116  1  0
 47117  1  0
 47118  1  0
 48 41  1  0
 48 56  1  0
 48 65  1  0
 48119  1  1
 49 50  1  0
 49 53  1  0
 49 64  1  0
 49120  1  1
 50 51  1  0
 50121  1  0
 50122  1  0
 51 52  1  0
 51123  1  0
 51124  1  0
 52125  1  0
 52126  1  0
 53 54  1  0
 54 55  2  0
 54127  1  0
 55 57  1  0
 55128  1  0
 56 69  2  0
 57 58  2  0
 57129  1  0
 58130  1  0
 59 60  1  0
 59 61  1  0
 59 62  1  0
 60131  1  0
 60132  1  0
 60133  1  0
 61134  1  0
 61135  1  0
 61136  1  0
 62137  1  0
 62138  1  0
 62139  1  0
 63 65  1  0
 63140  1  0
 63141  1  0
 63142  1  0
 64143  1  0
 65144  1  0
 68 79  1  0
 71 72  2  0
 71 75  1  0
 71 81  1  0
 72 82  1  0
 72 85  1  0
 73 81  2  0
 73 83  1  0
 73 85  1  0
 74 78  1  0
 74 82  1  0
 74 84  2  0
 75145  1  0
 75146  1  0
 75147  1  0
 76148  1  0
 76149  1  0
 76150  1  0
 77 80  1  0
 77151  1  0
 77152  1  0
 77153  1  0
 78 80  1  0
 78154  1  0
 78155  1  0
 79 80  1  0
 79156  1  0
 79157  1  0
 80 76  1  0
 82158  1  0
 83159  1  0
M  ISO  4   1 100  68 101  79 101  83 100
M  END
$$$$
92
     RDKit          3D

150158  0  0  0  0  0  0  0  0999 V2000
  -30.7652  -14.3608   20.6636 C   0  0  0  0  0  0  0  0  0100  0  0
  -30.4392  -12.2669   19.3775 C   0  0  0  0  0  0  0  0  0101  0  0
  -29.4791  -12.5281   18.1977 C   0  0  0  0  0  0  0  0  0102  0  0
  -27.9985  -12.3963   18.6038 C   0  0  0  0  0  0  0  0  0103  0  0
  -27.6639  -13.2170   19.8820 C   0  0  2  0  0  0  0  0  0104  0  0
  -28.6795  -12.9602   21.0279 C   0  0  0  0  0  0  0  0  0105  0  0
  -25.2633  -13.8245   20.5754 C   0  0  0  0  0  0  0  0  0106  0  0
  -24.1645  -13.0409   20.9408 C   0  0  0  0  0  0  0  0  0107  0  0
  -24.6400  -11.7009   20.8697 C   0  0  0  0  0  0  0  0  0108  0  0
  -23.9005  -10.4085   21.0420 C   0  0  0  0  0  0  0  0  0109  0  0
  -24.3588   -9.4123   21.9123 C   0  0  0  0  0  0  0  0  0110  0  0
  -23.6296   -8.2350   22.0803 C   0  0  0  0  0  0  0  0  0111  0  0
  -22.4385   -8.0419   21.3657 C   0  0  0  0  0  0  0  0  0112  0  0
  -22.0103   -9.0167   20.4678 C   0  0  0  0  0  0  0  0  0113  0  0
  -22.7317  -10.1925   20.3102 C   0  0  0  0  0  0  0  0  0114  0  0
  -21.6857   -6.0709   22.5391 C   0  0  0  0  0  0  0  0  0115  0  0
  -21.4064   -6.5490   23.8264 C   0  0  0  0  0  0  0  0  0116  0  0
  -21.3635   -5.6677   24.9085 C   0  0  0  0  0  0  0  0  0117  0  0
  -21.5973   -4.3067   24.7088 C   0  0  0  0  0  0  0  0  0118  0  0
  -21.8700   -3.8284   23.4282 C   0  0  0  0  0  0  0  0  0119  0  0
  -21.9144   -4.7056   22.3460 C   0  0  0  0  0  0  0  0  0120  0  0
  -22.8194  -13.5263   21.1763 C   0  0  0  0  0  0  0  0  0121  0  0
  -22.1559   -4.2206   21.1063 F   0  0  0  0  0  0  0  0  0122  0  0
  -21.5628   -3.4510   25.7555 F   0  0  0  0  0  0  0  0  0123  0  0
  -30.0261  -13.1803   20.4553 N   0  0  0  0  0  0  0  0  0124  0  0
  -26.2911  -12.9356   20.3443 N   0  0  0  0  0  0  0  0  0125  0  0
  -25.9236  -11.6675   20.5847 N   0  0  0  0  0  0  0  0  0126  0  0
  -22.0708  -12.7905   22.0005 N   0  0  0  0  0  0  0  0  0127  0  0
  -25.4117  -15.1773   20.4097 N   0  0  0  0  0  0  0  0  0128  0  0
  -31.7916  -14.6724   20.0536 O   0  0  0  0  0  0  0  0  0129  0  0
  -21.6670   -6.9022   21.4423 O   0  0  0  0  0  0  0  0  0130  0  0
  -22.3946  -14.5564   20.6568 O   0  0  0  0  0  0  0  0  0131  0  0
  -24.6048  -31.8614   23.2223 C   0  0  0  0  0  0  0  0  0100  0  0
  -25.8822  -32.4841   23.8616 C   0  0  1  0  0  0  0  0  0101  0  0
  -27.2536  -27.5042   20.1156 C   0  0  0  0  0  0  0  0  0102  0  0
  -25.5726  -33.8762   24.2210 N   0  0  0  0  0  0  0  0  0103  0  0
  -23.4066  -30.4859   21.5461 C   0  0  2  0  0  0  0  0  0104  0  0
  -24.8467  -28.9636   20.1247 C   0  0  0  0  0  0  0  0  0105  0  0
  -22.7412  -29.4652   22.5052 C   0  0  0  0  0  0  0  0  0106  0  0
  -18.0167  -28.1302   22.8626 C   0  0  0  0  0  0  0  0  0107  0  0
  -24.1342  -36.7390   23.2568 C   0  0  0  0  0  0  0  0  0108  0  0
  -25.9141  -30.8882   21.3456 C   0  0  0  0  0  0  0  0  0109  0  0
  -25.9930  -29.5029   20.7208 C   0  0  0  0  0  0  0  0  0110  0  0
  -27.1758  -28.7612   20.7331 C   0  0  0  0  0  0  0  0  0111  0  0
  -26.1032  -26.9836   19.5230 C   0  0  0  0  0  0  0  0  0112  0  0
  -24.9097  -27.7011   19.5331 C   0  0  0  0  0  0  0  0  0113  0  0
  -23.5715  -29.7899   20.1582 C   0  0  0  0  0  0  0  0  0114  0  0
  -25.3990  -36.3212   24.0232 C   0  0  1  0  0  0  0  0  0115  0  0
  -20.5793  -28.3813   23.1004 C   0  0  2  0  0  0  0  0  0116  0  0
  -20.6548  -26.9392   22.5411 C   0  0  0  0  0  0  0  0  0117  0  0
  -19.5615  -26.6407   21.5143 C   0  0  0  0  0  0  0  0  0118  0  0
  -18.1797  -26.7818   22.1673 C   0  0  0  0  0  0  0  0  0119  0  0
  -19.1385  -28.8769   23.2988 C   0  0  0  0  0  0  0  0  0120  0  0
  -18.9183  -30.1286   23.8878 C   0  0  0  0  0  0  0  0  0121  0  0
  -17.6396  -30.6493   24.0352 C   0  0  0  0  0  0  0  0  0122  0  0
  -25.9153  -34.9582   23.4993 C   0  0  0  0  0  0  0  0  0123  0  0
  -16.5415  -29.9068   23.6254 C   0  0  0  0  0  0  0  0  0124  0  0
  -16.7331  -28.6521   23.0586 C   0  0  0  0  0  0  0  0  0125  0  0
  -26.4583  -31.6439   25.0683 C   0  0  0  0  0  0  0  0  0126  0  0
  -25.3807  -31.3179   26.1374 C   0  0  0  0  0  0  0  0  0127  0  0
  -27.0530  -30.3024   24.5680 C   0  0  0  0  0  0  0  0  0128  0  0
  -27.6014  -32.4281   25.7651 C   0  0  0  0  0  0  0  0  0129  0  0
  -27.5629  -37.2220   24.8621 C   0  0  0  0  0  0  0  0  0130  0  0
  -21.4133  -29.3375   22.3735 N   0  0  0  0  0  0  0  0  0131  0  0
  -26.4706  -37.3372   23.9061 N   0  0  0  0  0  0  0  0  0132  0  0
  -24.6674  -31.0544   22.1178 N   0  0  0  0  0  0  0  0  0133  0  0
  -23.4259  -28.8150   23.2971 O   0  0  0  0  0  0  0  0  0134  0  0
  -28.3948  -26.7345   20.0089 O   0  0  0  0  0  0  0  0  0135  0  0
  -26.5870  -34.9065   22.4671 O   0  0  0  0  0  0  0  0  0136  0  0
  -23.5365  -32.1254   23.7833 O   0  0  0  0  0  0  0  0  0137  0  0
  -32.0648  -16.6062   22.5519 C   0  0  0  0  0  0  0  0  0  0  0  0
  -32.6526  -17.4898   23.4571 C   0  0  0  0  0  0  0  0  0  0  0  0
  -29.8810  -17.4552   23.1413 C   0  0  0  0  0  0  0  0  0  0  0  0
  -30.6790  -16.5889   22.3940 C   0  0  0  0  0  0  0  0  0  0  0  0
  -30.4688  -18.3388   24.0465 C   0  0  0  0  0  0  0  0  0  0  0  0
  -31.8546  -18.3561   24.2044 C   0  0  0  0  0  0  0  0  0  0  0  0
  -26.5700  -20.2361   26.2781 C   0  0  0  0  0  0  0  0  0  1  0  0
  -27.7803  -20.3791   25.7246 C   0  0  0  0  0  0  0  0  0  0  0  0
  -28.2736  -19.3304   24.7732 C   0  0  0  0  0  0  0  0  0  0  0  0
  -29.6568  -19.2173   24.8036 N   0  0  0  0  0  0  0  0  0  0  0  0
  -30.0821  -15.6912   21.4744 N   0  0  0  0  0  0  0  0  0  0  0  0
  -27.4902  -18.6881   24.0821 O   0  0  0  0  0  0  0  0  0  0  0  0
  -28.5967  -21.4587   25.9939 O   0  0  0  0  0  0  0  0  0  0  0  0
  -32.4307  -19.2006   25.0715 F   0  0  0  0  0  0  0  0  0  0  0  0
  -31.4485  -12.4701   19.0860 H   0  0  0  0  0  0  0  0  0  0  0  0
  -30.3970  -11.2460   19.6950 H   0  0  0  0  0  0  0  0  0  0  0  0
  -29.6870  -11.8204   17.4226 H   0  0  0  0  0  0  0  0  0  0  0  0
  -29.6375  -13.5326   17.8649 H   0  0  0  0  0  0  0  0  0  0  0  0
  -27.7830  -11.3650   18.7904 H   0  0  0  0  0  0  0  0  0  0  0  0
  -27.4028  -12.7801   17.8021 H   0  0  0  0  0  0  0  0  0  0  0  0
  -27.7353  -14.2503   19.6136 H   0  0  0  0  0  0  0  0  0  0  0  0
  -28.5890  -11.9550   21.3832 H   0  0  0  0  0  0  0  0  0  0  0  0
  -28.5005  -13.6134   21.8562 H   0  0  0  0  0  0  0  0  0  0  0  0
  -25.2399   -9.5495   22.4318 H   0  0  0  0  0  0  0  0  0  0  0  0
  -23.9663   -7.5070   22.7297 H   0  0  0  0  0  0  0  0  0  0  0  0
  -21.1515   -8.8641   19.9162 H   0  0  0  0  0  0  0  0  0  0  0  0
  -22.4016  -10.9115   19.6476 H   0  0  0  0  0  0  0  0  0  0  0  0
  -21.2319   -7.5552   23.9750 H   0  0  0  0  0  0  0  0  0  0  0  0
  -21.1589   -6.0228   25.8556 H   0  0  0  0  0  0  0  0  0  0  0  0
  -22.0396   -2.8212   23.2809 H   0  0  0  0  0  0  0  0  0  0  0  0
  -22.4401  -11.9703   22.4008 H   0  0  0  0  0  0  0  0  0  0  0  0
  -21.1493  -13.0679   22.2082 H   0  0  0  0  0  0  0  0  0  0  0  0
  -24.6538  -15.7807   20.5848 H   0  0  0  0  0  0  0  0  0  0  0  0
  -26.2762  -15.5453   20.1156 H   0  0  0  0  0  0  0  0  0  0  0  0
  -26.6778  -32.4663   23.1464 H   0  0  0  0  0  0  0  0  0  0  0  0
  -25.0747  -34.0282   25.0566 H   0  0  0  0  0  0  0  0  0  0  0  0
  -22.7881  -31.3489   21.4131 H   0  0  0  0  0  0  0  0  0  0  0  0
  -23.3854  -35.9823   23.3648 H   0  0  0  0  0  0  0  0  0  0  0  0
  -24.3696  -36.8624   22.2204 H   0  0  0  0  0  0  0  0  0  0  0  0
  -23.7669  -37.6632   23.6516 H   0  0  0  0  0  0  0  0  0  0  0  0
  -25.9445  -31.6237   20.5691 H   0  0  0  0  0  0  0  0  0  0  0  0
  -26.7436  -31.0079   22.0108 H   0  0  0  0  0  0  0  0  0  0  0  0
  -28.0090  -29.1452   21.2057 H   0  0  0  0  0  0  0  0  0  0  0  0
  -26.1369  -26.0560   19.0719 H   0  0  0  0  0  0  0  0  0  0  0  0
  -24.0652  -27.2961   19.0997 H   0  0  0  0  0  0  0  0  0  0  0  0
  -23.6156  -30.5365   19.3930 H   0  0  0  0  0  0  0  0  0  0  0  0
  -22.7355  -29.1425   19.9945 H   0  0  0  0  0  0  0  0  0  0  0  0
  -25.1353  -36.2335   25.0565 H   0  0  0  0  0  0  0  0  0  0  0  0
  -21.0070  -28.3206   24.0793 H   0  0  0  0  0  0  0  0  0  0  0  0
  -20.5555  -26.2518   23.3550 H   0  0  0  0  0  0  0  0  0  0  0  0
  -21.5974  -26.8362   22.0454 H   0  0  0  0  0  0  0  0  0  0  0  0
  -19.6810  -25.6422   21.1488 H   0  0  0  0  0  0  0  0  0  0  0  0
  -19.6406  -27.3343   20.7034 H   0  0  0  0  0  0  0  0  0  0  0  0
  -17.4282  -26.6888   21.4113 H   0  0  0  0  0  0  0  0  0  0  0  0
  -18.0803  -26.0130   22.9049 H   0  0  0  0  0  0  0  0  0  0  0  0
  -19.7265  -30.6774   24.2204 H   0  0  0  0  0  0  0  0  0  0  0  0
  -17.5064  -31.5856   24.4483 H   0  0  0  0  0  0  0  0  0  0  0  0
  -15.5878  -30.2839   23.7407 H   0  0  0  0  0  0  0  0  0  0  0  0
  -15.9120  -28.0941   22.7766 H   0  0  0  0  0  0  0  0  0  0  0  0
  -24.5787  -30.7757   25.6817 H   0  0  0  0  0  0  0  0  0  0  0  0
  -25.0041  -32.2289   26.5536 H   0  0  0  0  0  0  0  0  0  0  0  0
  -25.8166  -30.7245   26.9138 H   0  0  0  0  0  0  0  0  0  0  0  0
  -26.2892  -29.7335   24.0803 H   0  0  0  0  0  0  0  0  0  0  0  0
  -27.4336  -29.7484   25.4006 H   0  0  0  0  0  0  0  0  0  0  0  0
  -27.8466  -30.4994   23.8779 H   0  0  0  0  0  0  0  0  0  0  0  0
  -27.2251  -33.3632   26.1242 H   0  0  0  0  0  0  0  0  0  0  0  0
  -28.3902  -32.6065   25.0645 H   0  0  0  0  0  0  0  0  0  0  0  0
  -27.9772  -31.8555   26.5872 H   0  0  0  0  0  0  0  0  0  0  0  0
  -28.2744  -38.0016   24.6863 H   0  0  0  0  0  0  0  0  0  0  0  0
  -28.0396  -36.2711   24.7461 H   0  0  0  0  0  0  0  0  0  0  0  0
  -27.1773  -37.3087   25.8564 H   0  0  0  0  0  0  0  0  0  0  0  0
  -20.9627  -29.9365   21.7352 H   0  0  0  0  0  0  0  0  0  0  0  0
  -26.0447  -38.2561   24.0273 H   0  0  0  0  0  0  0  0  0  0  0  0
  -32.6552  -15.9653   21.9990 H   0  0  0  0  0  0  0  0  0  0  0  0
  -33.6779  -17.5026   23.5739 H   0  0  0  0  0  0  0  0  0  0  0  0
  -28.8557  -17.4424   23.0245 H   0  0  0  0  0  0  0  0  0  0  0  0
  -25.9209  -19.7578   26.9223 H   0  0  0  0  0  0  0  0  0  0  0  0
  -30.1284  -19.8185   25.4244 H   0  0  0  0  0  0  0  0  0  0  0  0
  -29.1332  -15.8625   21.2756 H   0  0  0  0  0  0  0  0  0  0  0  0
  -28.3102  -22.1268   26.5851 H   0  0  0  0  0  0  0  0  0  0  0  0
  1 25  1  0
  1 30  2  0
  1 81  1  0
  2  3  1  0
  2 25  1  0
  2 85  1  0
  2 86  1  0
  3  4  1  0
  3 87  1  0
  3 88  1  0
  4  5  1  0
  4 89  1  0
  4 90  1  0
  5  6  1  0
  5 26  1  0
  5 91  1  6
  6 25  1  0
  6 92  1  0
  6 93  1  0
  7  8  2  0
  7 26  1  0
  7 29  1  0
  8  9  1  0
  8 22  1  0
  9 10  1  0
  9 27  2  0
 10 11  2  0
 10 15  1  0
 11 12  1  0
 11 94  1  0
 12 13  2  0
 12 95  1  0
 13 14  1  0
 13 31  1  0
 14 15  2  0
 14 96  1  0
 15 97  1  0
 16 17  2  0
 16 21  1  0
 16 31  1  0
 17 18  1  0
 17 98  1  0
 18 19  2  0
 18 99  1  0
 19 20  1  0
 19 24  1  0
 20 21  2  0
 20100  1  0
 21 23  1  0
 22 28  1  0
 22 32  2  0
 26 27  1  0
 28101  1  0
 28102  1  0
 29103  1  0
 29104  1  0
 33 34  1  0
 33 66  1  0
 33 70  2  0
 34 36  1  0
 34 59  1  0
 34105  1  6
 35 44  2  0
 35 45  1  0
 35 68  1  0
 36 56  1  0
 36106  1  0
 37 39  1  0
 37 47  1  0
 37 66  1  0
 37107  1  6
 38 43  2  0
 38 46  1  0
 38 47  1  0
 39 64  1  0
 39 67  2  0
 40 52  1  0
 40 53  2  0
 40 58  1  0
 41108  1  0
 41109  1  0
 41110  1  0
 42 43  1  0
 42 66  1  0
 42111  1  0
 42112  1  0
 43 44  1  0
 44113  1  0
 45 46  2  0
 45114  1  0
 46115  1  0
 47116  1  0
 47117  1  0
 48 41  1  0
 48 56  1  0
 48 65  1  0
 48118  1  1
 49 50  1  0
 49 53  1  0
 49 64  1  0
 49119  1  1
 50 51  1  0
 50120  1  0
 50121  1  0
 51 52  1  0
 51122  1  0
 51123  1  0
 52124  1  0
 52125  1  0
 53 54  1  0
 54 55  2  0
 54126  1  0
 55 57  1  0
 55127  1  0
 56 69  2  0
 57 58  2  0
 57128  1  0
 58129  1  0
 59 60  1  0
 59 61  1  0
 59 62  1  0
 60130  1  0
 60131  1  0
 60132  1  0
 61133  1  0
 61134  1  0
 61135  1  0
 62136  1  0
 62137  1  0
 62138  1  0
 63 65  1  0
 63139  1  0
 63140  1  0
 63141  1  0
 64142  1  0
 65143  1  0
 68 77  1  0
 71 72  2  0
 71 74  1  0
 71144  1  0
 72 76  1  0
 72145  1  0
 73 74  2  0
 73 75  1  0
 73146  1  0
 74 81  1  0
 75 76  2  0
 75 80  1  0
 76 84  1  0
 77 78  2  0
 77147  1  0
 78 79  1  0
 78 83  1  0
 79 80  1  0
 79 82  2  0
 80148  1  0
 81149  1  0
 83150  1  0
M  ISO  4   1 100  68 101  77 101  81 100
M  END
$$$$
93
     RDKit          3D

167175  0  0  0  0  0  0  0  0999 V2000
  -30.7652  -14.3608   20.6636 C   0  0  0  0  0  0  0  0  0100  0  0
  -30.4392  -12.2669   19.3775 C   0  0  0  0  0  0  0  0  0101  0  0
  -29.4791  -12.5281   18.1977 C   0  0  0  0  0  0  0  0  0102  0  0
  -27.9985  -12.3963   18.6038 C   0  0  0  0  0  0  0  0  0103  0  0
  -27.6639  -13.2170   19.8820 C   0  0  2  0  0  0  0  0  0104  0  0
  -28.6795  -12.9602   21.0279 C   0  0  0  0  0  0  0  0  0105  0  0
  -25.2633  -13.8245   20.5754 C   0  0  0  0  0  0  0  0  0106  0  0
  -24.1645  -13.0409   20.9408 C   0  0  0  0  0  0  0  0  0107  0  0
  -24.6400  -11.7009   20.8697 C   0  0  0  0  0  0  0  0  0108  0  0
  -23.9005  -10.4085   21.0420 C   0  0  0  0  0  0  0  0  0109  0  0
  -24.3588   -9.4123   21.9123 C   0  0  0  0  0  0  0  0  0110  0  0
  -23.6296   -8.2350   22.0803 C   0  0  0  0  0  0  0  0  0111  0  0
  -22.4385   -8.0419   21.3657 C   0  0  0  0  0  0  0  0  0112  0  0
  -22.0103   -9.0167   20.4678 C   0  0  0  0  0  0  0  0  0113  0  0
  -22.7317  -10.1925   20.3102 C   0  0  0  0  0  0  0  0  0114  0  0
  -21.6857   -6.0709   22.5391 C   0  0  0  0  0  0  0  0  0115  0  0
  -21.4064   -6.5490   23.8264 C   0  0  0  0  0  0  0  0  0116  0  0
  -21.3635   -5.6677   24.9085 C   0  0  0  0  0  0  0  0  0117  0  0
  -21.5973   -4.3067   24.7088 C   0  0  0  0  0  0  0  0  0118  0  0
  -21.8700   -3.8284   23.4282 C   0  0  0  0  0  0  0  0  0119  0  0
  -21.9144   -4.7056   22.3460 C   0  0  0  0  0  0  0  0  0120  0  0
  -22.8194  -13.5263   21.1763 C   0  0  0  0  0  0  0  0  0121  0  0
  -22.1559   -4.2206   21.1063 F   0  0  0  0  0  0  0  0  0122  0  0
  -21.5628   -3.4510   25.7555 F   0  0  0  0  0  0  0  0  0123  0  0
  -30.0261  -13.1803   20.4553 N   0  0  0  0  0  0  0  0  0124  0  0
  -26.2911  -12.9356   20.3443 N   0  0  0  0  0  0  0  0  0125  0  0
  -25.9236  -11.6675   20.5847 N   0  0  0  0  0  0  0  0  0126  0  0
  -22.0708  -12.7905   22.0005 N   0  0  0  0  0  0  0  0  0127  0  0
  -25.4117  -15.1773   20.4097 N   0  0  0  0  0  0  0  0  0128  0  0
  -31.7916  -14.6724   20.0536 O   0  0  0  0  0  0  0  0  0129  0  0
  -21.6670   -6.9022   21.4423 O   0  0  0  0  0  0  0  0  0130  0  0
  -22.3946  -14.5564   20.6568 O   0  0  0  0  0  0  0  0  0131  0  0
  -24.6048  -31.8614   23.2223 C   0  0  0  0  0  0  0  0  0100  0  0
  -25.8822  -32.4841   23.8616 C   0  0  1  0  0  0  0  0  0101  0  0
  -27.2536  -27.5042   20.1156 C   0  0  0  0  0  0  0  0  0102  0  0
  -25.5726  -33.8762   24.2210 N   0  0  0  0  0  0  0  0  0103  0  0
  -23.4066  -30.4859   21.5461 C   0  0  2  0  0  0  0  0  0104  0  0
  -24.8467  -28.9636   20.1247 C   0  0  0  0  0  0  0  0  0105  0  0
  -22.7412  -29.4652   22.5052 C   0  0  0  0  0  0  0  0  0106  0  0
  -18.0167  -28.1302   22.8626 C   0  0  0  0  0  0  0  0  0107  0  0
  -24.1342  -36.7390   23.2568 C   0  0  0  0  0  0  0  0  0108  0  0
  -25.9141  -30.8882   21.3456 C   0  0  0  0  0  0  0  0  0109  0  0
  -25.9930  -29.5029   20.7208 C   0  0  0  0  0  0  0  0  0110  0  0
  -27.1758  -28.7612   20.7331 C   0  0  0  0  0  0  0  0  0111  0  0
  -26.1032  -26.9836   19.5230 C   0  0  0  0  0  0  0  0  0112  0  0
  -24.9097  -27.7011   19.5331 C   0  0  0  0  0  0  0  0  0113  0  0
  -23.5715  -29.7899   20.1582 C   0  0  0  0  0  0  0  0  0114  0  0
  -25.3990  -36.3212   24.0232 C   0  0  1  0  0  0  0  0  0115  0  0
  -20.5793  -28.3813   23.1004 C   0  0  2  0  0  0  0  0  0116  0  0
  -20.6548  -26.9392   22.5411 C   0  0  0  0  0  0  0  0  0117  0  0
  -19.5615  -26.6407   21.5143 C   0  0  0  0  0  0  0  0  0118  0  0
  -18.1797  -26.7818   22.1673 C   0  0  0  0  0  0  0  0  0119  0  0
  -19.1385  -28.8769   23.2988 C   0  0  0  0  0  0  0  0  0120  0  0
  -18.9183  -30.1286   23.8878 C   0  0  0  0  0  0  0  0  0121  0  0
  -17.6396  -30.6493   24.0352 C   0  0  0  0  0  0  0  0  0122  0  0
  -25.9153  -34.9582   23.4993 C   0  0  0  0  0  0  0  0  0123  0  0
  -16.5415  -29.9068   23.6254 C   0  0  0  0  0  0  0  0  0124  0  0
  -16.7331  -28.6521   23.0586 C   0  0  0  0  0  0  0  0  0125  0  0
  -26.4583  -31.6439   25.0683 C   0  0  0  0  0  0  0  0  0126  0  0
  -25.3807  -31.3179   26.1374 C   0  0  0  0  0  0  0  0  0127  0  0
  -27.0530  -30.3024   24.5680 C   0  0  0  0  0  0  0  0  0128  0  0
  -27.6014  -32.4281   25.7651 C   0  0  0  0  0  0  0  0  0129  0  0
  -27.5629  -37.2220   24.8621 C   0  0  0  0  0  0  0  0  0130  0  0
  -21.4133  -29.3375   22.3735 N   0  0  0  0  0  0  0  0  0131  0  0
  -26.4706  -37.3372   23.9061 N   0  0  0  0  0  0  0  0  0132  0  0
  -24.6674  -31.0544   22.1178 N   0  0  0  0  0  0  0  0  0133  0  0
  -23.4259  -28.8150   23.2971 O   0  0  0  0  0  0  0  0  0134  0  0
  -28.3948  -26.7345   20.0089 O   0  0  0  0  0  0  0  0  0135  0  0
  -26.5870  -34.9065   22.4671 O   0  0  0  0  0  0  0  0  0136  0  0
  -23.5365  -32.1254   23.7833 O   0  0  0  0  0  0  0  0  0137  0  0
  -27.3243  -21.0818   16.9136 C   0  0  0  0  0  0  0  0  0  0  0  0
  -27.1532  -19.8763   16.2332 C   0  0  0  0  0  0  0  0  0  0  0  0
  -27.7336  -21.0781   18.2471 C   0  0  0  0  0  0  0  0  0  0  0  0
  -27.8005  -18.6632   18.2199 C   0  0  0  0  0  0  0  0  0  0  0  0
  -27.3912  -18.6670   16.8863 C   0  0  0  0  0  0  0  0  0  0  0  0
  -27.9717  -19.8688   18.9002 C   0  0  0  0  0  0  0  0  0  0  0  0
  -27.9129  -22.3554   18.9629 C   0  0  0  0  0  0  0  0  0  0  0  0
  -30.3834  -26.6036   20.2509 C   0  0  0  0  0  0  0  0  0  0  0  0
  -28.6053  -25.4833   18.8231 C   0  0  0  0  0  0  0  0  0  0  0  0
  -30.8006  -25.4267   21.0951 C   0  0  0  0  0  0  0  0  0  0  0  0
  -25.2080  -22.9845   20.2644 C   0  0  0  0  0  0  0  0  0  0  0  0
  -24.7125  -24.5055   18.3353 C   0  0  0  0  0  0  0  0  0  0  0  0
  -27.0504  -23.5608   18.5640 C   0  0  1  0  0  0  0  0  0  0  0  0
  -28.9437  -26.6269   19.7617 C   0  0  1  0  0  0  0  0  0  1  0  0
  -25.5471  -23.3100   18.8058 C   0  0  0  0  0  0  0  0  0  0  0  0
  -28.0424  -17.4345   18.8827 N   0  0  0  0  0  0  0  0  0  0  0  0
  -27.5532  -24.7083   19.2834 N   0  0  0  0  0  0  0  0  0  0  0  0
  -28.7253  -22.4743   19.8845 O   0  0  0  0  0  0  0  0  0  0  0  0
  -31.1812  -27.5025   19.9837 O   0  0  0  0  0  0  0  0  0  0  0  0
  -29.2213  -25.2940   17.7762 O   0  0  0  0  0  0  0  0  0  0  0  0
  -27.2234  -17.5146   16.2223 F   0  0  0  0  0  0  0  0  0  0  0  0
  -28.3653  -19.8655   20.1830 F   0  0  0  0  0  0  0  0  0  0  0  0
  -31.4485  -12.4701   19.0860 H   0  0  0  0  0  0  0  0  0  0  0  0
  -30.3970  -11.2460   19.6950 H   0  0  0  0  0  0  0  0  0  0  0  0
  -29.6870  -11.8204   17.4226 H   0  0  0  0  0  0  0  0  0  0  0  0
  -29.6375  -13.5326   17.8649 H   0  0  0  0  0  0  0  0  0  0  0  0
  -27.7830  -11.3650   18.7904 H   0  0  0  0  0  0  0  0  0  0  0  0
  -27.4028  -12.7801   17.8021 H   0  0  0  0  0  0  0  0  0  0  0  0
  -27.7353  -14.2503   19.6136 H   0  0  0  0  0  0  0  0  0  0  0  0
  -28.5890  -11.9550   21.3832 H   0  0  0  0  0  0  0  0  0  0  0  0
  -28.5005  -13.6134   21.8562 H   0  0  0  0  0  0  0  0  0  0  0  0
  -25.2399   -9.5495   22.4318 H   0  0  0  0  0  0  0  0  0  0  0  0
  -23.9663   -7.5070   22.7297 H   0  0  0  0  0  0  0  0  0  0  0  0
  -21.1515   -8.8641   19.9162 H   0  0  0  0  0  0  0  0  0  0  0  0
  -22.4016  -10.9115   19.6476 H   0  0  0  0  0  0  0  0  0  0  0  0
  -21.2319   -7.5552   23.9750 H   0  0  0  0  0  0  0  0  0  0  0  0
  -21.1589   -6.0228   25.8556 H   0  0  0  0  0  0  0  0  0  0  0  0
  -22.0396   -2.8212   23.2809 H   0  0  0  0  0  0  0  0  0  0  0  0
  -22.4401  -11.9703   22.4008 H   0  0  0  0  0  0  0  0  0  0  0  0
  -21.1493  -13.0679   22.2082 H   0  0  0  0  0  0  0  0  0  0  0  0
  -24.6538  -15.7807   20.5848 H   0  0  0  0  0  0  0  0  0  0  0  0
  -26.2762  -15.5453   20.1156 H   0  0  0  0  0  0  0  0  0  0  0  0
  -26.6778  -32.4663   23.1464 H   0  0  0  0  0  0  0  0  0  0  0  0
  -25.0747  -34.0282   25.0566 H   0  0  0  0  0  0  0  0  0  0  0  0
  -22.7881  -31.3489   21.4131 H   0  0  0  0  0  0  0  0  0  0  0  0
  -23.3854  -35.9823   23.3648 H   0  0  0  0  0  0  0  0  0  0  0  0
  -24.3696  -36.8624   22.2204 H   0  0  0  0  0  0  0  0  0  0  0  0
  -23.7669  -37.6632   23.6516 H   0  0  0  0  0  0  0  0  0  0  0  0
  -25.9445  -31.6237   20.5691 H   0  0  0  0  0  0  0  0  0  0  0  0
  -26.7436  -31.0079   22.0108 H   0  0  0  0  0  0  0  0  0  0  0  0
  -28.0090  -29.1452   21.2057 H   0  0  0  0  0  0  0  0  0  0  0  0
  -26.1369  -26.0560   19.0719 H   0  0  0  0  0  0  0  0  0  0  0  0
  -24.0652  -27.2961   19.0997 H   0  0  0  0  0  0  0  0  0  0  0  0
  -23.6156  -30.5365   19.3930 H   0  0  0  0  0  0  0  0  0  0  0  0
  -22.7355  -29.1425   19.9945 H   0  0  0  0  0  0  0  0  0  0  0  0
  -25.1353  -36.2335   25.0565 H   0  0  0  0  0  0  0  0  0  0  0  0
  -21.0070  -28.3206   24.0793 H   0  0  0  0  0  0  0  0  0  0  0  0
  -20.5555  -26.2518   23.3550 H   0  0  0  0  0  0  0  0  0  0  0  0
  -21.5974  -26.8362   22.0454 H   0  0  0  0  0  0  0  0  0  0  0  0
  -19.6810  -25.6422   21.1488 H   0  0  0  0  0  0  0  0  0  0  0  0
  -19.6406  -27.3343   20.7034 H   0  0  0  0  0  0  0  0  0  0  0  0
  -17.4282  -26.6888   21.4113 H   0  0  0  0  0  0  0  0  0  0  0  0
  -18.0803  -26.0130   22.9049 H   0  0  0  0  0  0  0  0  0  0  0  0
  -19.7265  -30.6774   24.2204 H   0  0  0  0  0  0  0  0  0  0  0  0
  -17.5064  -31.5856   24.4483 H   0  0  0  0  0  0  0  0  0  0  0  0
  -15.5878  -30.2839   23.7407 H   0  0  0  0  0  0  0  0  0  0  0  0
  -15.9120  -28.0941   22.7766 H   0  0  0  0  0  0  0  0  0  0  0  0
  -24.5787  -30.7757   25.6817 H   0  0  0  0  0  0  0  0  0  0  0  0
  -25.0041  -32.2289   26.5536 H   0  0  0  0  0  0  0  0  0  0  0  0
  -25.8166  -30.7245   26.9138 H   0  0  0  0  0  0  0  0  0  0  0  0
  -26.2892  -29.7335   24.0803 H   0  0  0  0  0  0  0  0  0  0  0  0
  -27.4336  -29.7484   25.4006 H   0  0  0  0  0  0  0  0  0  0  0  0
  -27.8466  -30.4994   23.8779 H   0  0  0  0  0  0  0  0  0  0  0  0
  -27.2251  -33.3632   26.1242 H   0  0  0  0  0  0  0  0  0  0  0  0
  -28.3902  -32.6065   25.0645 H   0  0  0  0  0  0  0  0  0  0  0  0
  -27.9772  -31.8555   26.5872 H   0  0  0  0  0  0  0  0  0  0  0  0
  -28.2744  -38.0016   24.6863 H   0  0  0  0  0  0  0  0  0  0  0  0
  -28.0396  -36.2711   24.7461 H   0  0  0  0  0  0  0  0  0  0  0  0
  -27.1773  -37.3087   25.8564 H   0  0  0  0  0  0  0  0  0  0  0  0
  -20.9627  -29.9365   21.7352 H   0  0  0  0  0  0  0  0  0  0  0  0
  -26.0447  -38.2561   24.0273 H   0  0  0  0  0  0  0  0  0  0  0  0
  -27.1481  -21.9765   16.4304 H   0  0  0  0  0  0  0  0  0  0  0  0
  -26.8505  -19.8791   15.2466 H   0  0  0  0  0  0  0  0  0  0  0  0
  -29.9716  -24.7605   21.2128 H   0  0  0  0  0  0  0  0  0  0  0  0
  -31.1196  -25.7724   22.0562 H   0  0  0  0  0  0  0  0  0  0  0  0
  -31.6068  -24.9118   20.6157 H   0  0  0  0  0  0  0  0  0  0  0  0
  -24.1544  -22.8232   20.3582 H   0  0  0  0  0  0  0  0  0  0  0  0
  -25.5007  -23.8020   20.8896 H   0  0  0  0  0  0  0  0  0  0  0  0
  -25.7321  -22.1010   20.5638 H   0  0  0  0  0  0  0  0  0  0  0  0
  -23.6758  -24.3087   18.5128 H   0  0  0  0  0  0  0  0  0  0  0  0
  -24.8717  -24.6619   17.2888 H   0  0  0  0  0  0  0  0  0  0  0  0
  -25.0070  -25.3808   18.8756 H   0  0  0  0  0  0  0  0  0  0  0  0
  -27.1243  -23.7375   17.5113 H   0  0  0  0  0  0  0  0  0  0  0  0
  -29.2403  -27.6385   19.5783 H   0  0  0  0  0  0  0  0  0  0  0  0
  -25.3004  -22.4443   18.2274 H   0  0  0  0  0  0  0  0  0  0  0  0
  -27.1420  -17.0632   19.0265 H   0  0  0  0  0  0  0  0  0  0  0  0
  -27.1295  -24.9502   20.1385 H   0  0  0  0  0  0  0  0  0  0  0  0
  1 25  1  0
  1 30  2  0
  1 86  1  0
  2  3  1  0
  2 25  1  0
  2 93  1  0
  2 94  1  0
  3  4  1  0
  3 95  1  0
  3 96  1  0
  4  5  1  0
  4 97  1  0
  4 98  1  0
  5  6  1  0
  5 26  1  0
  5 99  1  6
  6 25  1  0
  6100  1  0
  6101  1  0
  7  8  2  0
  7 26  1  0
  7 29  1  0
  8  9  1  0
  8 22  1  0
  9 10  1  0
  9 27  2  0
 10 11  2  0
 10 15  1  0
 11 12  1  0
 11102  1  0
 12 13  2  0
 12103  1  0
 13 14  1  0
 13 31  1  0
 14 15  2  0
 14104  1  0
 15105  1  0
 16 17  2  0
 16 21  1  0
 16 31  1  0
 17 18  1  0
 17106  1  0
 18 19  2  0
 18107  1  0
 19 20  1  0
 19 24  1  0
 20 21  2  0
 20108  1  0
 21 23  1  0
 22 28  1  0
 22 32  2  0
 26 27  1  0
 28109  1  0
 28110  1  0
 29111  1  0
 29112  1  0
 33 34  1  0
 33 66  1  0
 33 70  2  0
 34 36  1  0
 34 59  1  0
 34113  1  6
 35 44  2  0
 35 45  1  0
 35 68  1  0
 36 56  1  0
 36114  1  0
 37 39  1  0
 37 47  1  0
 37 66  1  0
 37115  1  6
 38 43  2  0
 38 46  1  0
 38 47  1  0
 39 64  1  0
 39 67  2  0
 40 52  1  0
 40 53  2  0
 40 58  1  0
 41116  1  0
 41117  1  0
 41118  1  0
 42 43  1  0
 42 66  1  0
 42119  1  0
 42120  1  0
 43 44  1  0
 44121  1  0
 45 46  2  0
 45122  1  0
 46123  1  0
 47124  1  0
 47125  1  0
 48 41  1  0
 48 56  1  0
 48 65  1  0
 48126  1  1
 49 50  1  0
 49 53  1  0
 49 64  1  0
 49127  1  1
 50 51  1  0
 50128  1  0
 50129  1  0
 51 52  1  0
 51130  1  0
 51131  1  0
 52132  1  0
 52133  1  0
 53 54  1  0
 54 55  2  0
 54134  1  0
 55 57  1  0
 55135  1  0
 56 69  2  0
 57 58  2  0
 57136  1  0
 58137  1  0
 59 60  1  0
 59 61  1  0
 59 62  1  0
 60138  1  0
 60139  1  0
 60140  1  0
 61141  1  0
 61142  1  0
 61143  1  0
 62144  1  0
 62145  1  0
 62146  1  0
 63 65  1  0
 63147  1  0
 63148  1  0
 63149  1  0
 64150  1  0
 65151  1  0
 71 72  2  0
 71 73  1  0
 71152  1  0
 72 75  1  0
 72153  1  0
 73 76  2  0
 73 77  1  0
 74 75  2  0
 74 76  1  0
 74 86  1  0
 75 91  1  0
 76 92  1  0
 77 83  1  0
 77 88  2  0
 78 80  1  0
 78 84  1  0
 78 89  2  0
 79 84  1  0
 79 87  1  0
 79 90  2  0
 80154  1  0
 80155  1  0
 80156  1  0
 81157  1  0
 81158  1  0
 81159  1  0
 82 85  1  0
 82160  1  0
 82161  1  0
 82162  1  0
 83 85  1  0
 83 87  1  0
 83163  1  6
 84 68  1  0
 84164  1  6
 85 81  1  0
 85165  1  0
 86166  1  0
 87167  1  0
M  ISO  4   1 100  68 101  84 101  86 100
M  END
$$$$
94
     RDKit          3D

156164  0  0  0  0  0  0  0  0999 V2000
  -30.7652  -14.3608   20.6636 C   0  0  0  0  0  0  0  0  0100  0  0
  -30.4392  -12.2669   19.3775 C   0  0  0  0  0  0  0  0  0101  0  0
  -29.4791  -12.5281   18.1977 C   0  0  0  0  0  0  0  0  0102  0  0
  -27.9985  -12.3963   18.6038 C   0  0  0  0  0  0  0  0  0103  0  0
  -27.6639  -13.2170   19.8820 C   0  0  2  0  0  0  0  0  0104  0  0
  -28.6795  -12.9602   21.0279 C   0  0  0  0  0  0  0  0  0105  0  0
  -25.2633  -13.8245   20.5754 C   0  0  0  0  0  0  0  0  0106  0  0
  -24.1645  -13.0409   20.9408 C   0  0  0  0  0  0  0  0  0107  0  0
  -24.6400  -11.7009   20.8697 C   0  0  0  0  0  0  0  0  0108  0  0
  -23.9005  -10.4085   21.0420 C   0  0  0  0  0  0  0  0  0109  0  0
  -24.3588   -9.4123   21.9123 C   0  0  0  0  0  0  0  0  0110  0  0
  -23.6296   -8.2350   22.0803 C   0  0  0  0  0  0  0  0  0111  0  0
  -22.4385   -8.0419   21.3657 C   0  0  0  0  0  0  0  0  0112  0  0
  -22.0103   -9.0167   20.4678 C   0  0  0  0  0  0  0  0  0113  0  0
  -22.7317  -10.1925   20.3102 C   0  0  0  0  0  0  0  0  0114  0  0
  -21.6857   -6.0709   22.5391 C   0  0  0  0  0  0  0  0  0115  0  0
  -21.4064   -6.5490   23.8264 C   0  0  0  0  0  0  0  0  0116  0  0
  -21.3635   -5.6677   24.9085 C   0  0  0  0  0  0  0  0  0117  0  0
  -21.5973   -4.3067   24.7088 C   0  0  0  0  0  0  0  0  0118  0  0
  -21.8700   -3.8284   23.4282 C   0  0  0  0  0  0  0  0  0119  0  0
  -21.9144   -4.7056   22.3460 C   0  0  0  0  0  0  0  0  0120  0  0
  -22.8194  -13.5263   21.1763 C   0  0  0  0  0  0  0  0  0121  0  0
  -22.1559   -4.2206   21.1063 F   0  0  0  0  0  0  0  0  0122  0  0
  -21.5628   -3.4510   25.7555 F   0  0  0  0  0  0  0  0  0123  0  0
  -30.0261  -13.1803   20.4553 N   0  0  0  0  0  0  0  0  0124  0  0
  -26.2911  -12.9356   20.3443 N   0  0  0  0  0  0  0  0  0125  0  0
  -25.9236  -11.6675   20.5847 N   0  0  0  0  0  0  0  0  0126  0  0
  -22.0708  -12.7905   22.0005 N   0  0  0  0  0  0  0  0  0127  0  0
  -25.4117  -15.1773   20.4097 N   0  0  0  0  0  0  0  0  0128  0  0
  -31.7916  -14.6724   20.0536 O   0  0  0  0  0  0  0  0  0129  0  0
  -21.6670   -6.9022   21.4423 O   0  0  0  0  0  0  0  0  0130  0  0
  -22.3946  -14.5564   20.6568 O   0  0  0  0  0  0  0  0  0131  0  0
  -24.6048  -31.8614   23.2223 C   0  0  0  0  0  0  0  0  0100  0  0
  -25.8822  -32.4841   23.8616 C   0  0  1  0  0  0  0  0  0101  0  0
  -27.2536  -27.5042   20.1156 C   0  0  0  0  0  0  0  0  0102  0  0
  -25.5726  -33.8762   24.2210 N   0  0  0  0  0  0  0  0  0103  0  0
  -23.4066  -30.4859   21.5461 C   0  0  2  0  0  0  0  0  0104  0  0
  -24.8467  -28.9636   20.1247 C   0  0  0  0  0  0  0  0  0105  0  0
  -22.7412  -29.4652   22.5052 C   0  0  0  0  0  0  0  0  0106  0  0
  -18.0167  -28.1302   22.8626 C   0  0  0  0  0  0  0  0  0107  0  0
  -24.1342  -36.7390   23.2568 C   0  0  0  0  0  0  0  0  0108  0  0
  -25.9141  -30.8882   21.3456 C   0  0  0  0  0  0  0  0  0109  0  0
  -25.9930  -29.5029   20.7208 C   0  0  0  0  0  0  0  0  0110  0  0
  -27.1758  -28.7612   20.7331 C   0  0  0  0  0  0  0  0  0111  0  0
  -26.1032  -26.9836   19.5230 C   0  0  0  0  0  0  0  0  0112  0  0
  -24.9097  -27.7011   19.5331 C   0  0  0  0  0  0  0  0  0113  0  0
  -23.5715  -29.7899   20.1582 C   0  0  0  0  0  0  0  0  0114  0  0
  -25.3990  -36.3212   24.0232 C   0  0  1  0  0  0  0  0  0115  0  0
  -20.5793  -28.3813   23.1004 C   0  0  2  0  0  0  0  0  0116  0  0
  -20.6548  -26.9392   22.5411 C   0  0  0  0  0  0  0  0  0117  0  0
  -19.5615  -26.6407   21.5143 C   0  0  0  0  0  0  0  0  0118  0  0
  -18.1797  -26.7818   22.1673 C   0  0  0  0  0  0  0  0  0119  0  0
  -19.1385  -28.8769   23.2988 C   0  0  0  0  0  0  0  0  0120  0  0
  -18.9183  -30.1286   23.8878 C   0  0  0  0  0  0  0  0  0121  0  0
  -17.6396  -30.6493   24.0352 C   0  0  0  0  0  0  0  0  0122  0  0
  -25.9153  -34.9582   23.4993 C   0  0  0  0  0  0  0  0  0123  0  0
  -16.5415  -29.9068   23.6254 C   0  0  0  0  0  0  0  0  0124  0  0
  -16.7331  -28.6521   23.0586 C   0  0  0  0  0  0  0  0  0125  0  0
  -26.4583  -31.6439   25.0683 C   0  0  0  0  0  0  0  0  0126  0  0
  -25.3807  -31.3179   26.1374 C   0  0  0  0  0  0  0  0  0127  0  0
  -27.0530  -30.3024   24.5680 C   0  0  0  0  0  0  0  0  0128  0  0
  -27.6014  -32.4281   25.7651 C   0  0  0  0  0  0  0  0  0129  0  0
  -27.5629  -37.2220   24.8621 C   0  0  0  0  0  0  0  0  0130  0  0
  -21.4133  -29.3375   22.3735 N   0  0  0  0  0  0  0  0  0131  0  0
  -26.4706  -37.3372   23.9061 N   0  0  0  0  0  0  0  0  0132  0  0
  -24.6674  -31.0544   22.1178 N   0  0  0  0  0  0  0  0  0133  0  0
  -23.4259  -28.8150   23.2971 O   0  0  0  0  0  0  0  0  0134  0  0
  -28.3948  -26.7345   20.0089 O   0  0  0  0  0  0  0  0  0135  0  0
  -26.5870  -34.9065   22.4671 O   0  0  0  0  0  0  0  0  0136  0  0
  -23.5365  -32.1254   23.7833 O   0  0  0  0  0  0  0  0  0137  0  0
  -29.6368  -22.9030   19.3573 C   0  0  0  0  0  0  0  0  0  0  0  0
  -31.0727  -23.7164   21.0699 C   0  0  0  0  0  0  0  0  0  0  0  0
  -30.3868  -22.6551   20.5015 C   0  0  0  0  0  0  0  0  0  0  0  0
  -29.5961  -24.1864   18.8240 C   0  0  0  0  0  0  0  0  0  0  0  0
  -30.3171  -25.1792   19.4676 C   0  0  0  0  0  0  0  0  0  0  0  0
  -30.9092  -27.6287   19.3880 C   0  0  0  0  0  0  0  0  0  0  0  0
  -31.1061  -28.6485   17.0904 C   0  0  0  0  0  0  0  0  0  0  0  0
  -31.3203  -30.1174   19.1284 C   0  0  0  0  0  0  0  0  0  0  0  0
  -29.0898  -29.1431   18.4735 C   0  0  0  0  0  0  0  0  0  1  0  0
  -30.6149  -28.8879   18.5291 C   0  0  0  0  0  0  0  0  0  0  0  0
  -31.0571  -24.9765   20.5807 N   0  0  0  0  0  0  0  0  0  0  0  0
  -30.4473  -21.3576   21.0687 N   0  0  0  0  0  0  0  0  0  0  0  0
  -30.2717  -26.4839   18.9183 N   0  0  0  0  0  0  0  0  0  0  0  0
  -31.6326  -27.6929   20.3803 O   0  0  0  0  0  0  0  0  0  0  0  0
  -28.8801  -24.4392   17.7210 F   0  0  0  0  0  0  0  0  0  0  0  0
  -31.4485  -12.4701   19.0860 H   0  0  0  0  0  0  0  0  0  0  0  0
  -30.3970  -11.2460   19.6950 H   0  0  0  0  0  0  0  0  0  0  0  0
  -29.6870  -11.8204   17.4226 H   0  0  0  0  0  0  0  0  0  0  0  0
  -29.6375  -13.5326   17.8649 H   0  0  0  0  0  0  0  0  0  0  0  0
  -27.7830  -11.3650   18.7904 H   0  0  0  0  0  0  0  0  0  0  0  0
  -27.4028  -12.7801   17.8021 H   0  0  0  0  0  0  0  0  0  0  0  0
  -27.7353  -14.2503   19.6136 H   0  0  0  0  0  0  0  0  0  0  0  0
  -28.5890  -11.9550   21.3832 H   0  0  0  0  0  0  0  0  0  0  0  0
  -28.5005  -13.6134   21.8562 H   0  0  0  0  0  0  0  0  0  0  0  0
  -25.2399   -9.5495   22.4318 H   0  0  0  0  0  0  0  0  0  0  0  0
  -23.9663   -7.5070   22.7297 H   0  0  0  0  0  0  0  0  0  0  0  0
  -21.1515   -8.8641   19.9162 H   0  0  0  0  0  0  0  0  0  0  0  0
  -22.4016  -10.9115   19.6476 H   0  0  0  0  0  0  0  0  0  0  0  0
  -21.2319   -7.5552   23.9750 H   0  0  0  0  0  0  0  0  0  0  0  0
  -21.1589   -6.0228   25.8556 H   0  0  0  0  0  0  0  0  0  0  0  0
  -22.0396   -2.8212   23.2809 H   0  0  0  0  0  0  0  0  0  0  0  0
  -22.4401  -11.9703   22.4008 H   0  0  0  0  0  0  0  0  0  0  0  0
  -21.1493  -13.0679   22.2082 H   0  0  0  0  0  0  0  0  0  0  0  0
  -24.6538  -15.7807   20.5848 H   0  0  0  0  0  0  0  0  0  0  0  0
  -26.2762  -15.5453   20.1156 H   0  0  0  0  0  0  0  0  0  0  0  0
  -26.6778  -32.4663   23.1464 H   0  0  0  0  0  0  0  0  0  0  0  0
  -25.0747  -34.0282   25.0566 H   0  0  0  0  0  0  0  0  0  0  0  0
  -22.7881  -31.3489   21.4131 H   0  0  0  0  0  0  0  0  0  0  0  0
  -23.3854  -35.9823   23.3648 H   0  0  0  0  0  0  0  0  0  0  0  0
  -24.3696  -36.8624   22.2204 H   0  0  0  0  0  0  0  0  0  0  0  0
  -23.7669  -37.6632   23.6516 H   0  0  0  0  0  0  0  0  0  0  0  0
  -25.9445  -31.6237   20.5691 H   0  0  0  0  0  0  0  0  0  0  0  0
  -26.7436  -31.0079   22.0108 H   0  0  0  0  0  0  0  0  0  0  0  0
  -28.0090  -29.1452   21.2057 H   0  0  0  0  0  0  0  0  0  0  0  0
  -26.1369  -26.0560   19.0719 H   0  0  0  0  0  0  0  0  0  0  0  0
  -24.0652  -27.2961   19.0997 H   0  0  0  0  0  0  0  0  0  0  0  0
  -23.6156  -30.5365   19.3930 H   0  0  0  0  0  0  0  0  0  0  0  0
  -22.7355  -29.1425   19.9945 H   0  0  0  0  0  0  0  0  0  0  0  0
  -25.1353  -36.2335   25.0565 H   0  0  0  0  0  0  0  0  0  0  0  0
  -21.0070  -28.3206   24.0793 H   0  0  0  0  0  0  0  0  0  0  0  0
  -20.5555  -26.2518   23.3550 H   0  0  0  0  0  0  0  0  0  0  0  0
  -21.5974  -26.8362   22.0454 H   0  0  0  0  0  0  0  0  0  0  0  0
  -19.6810  -25.6422   21.1488 H   0  0  0  0  0  0  0  0  0  0  0  0
  -19.6406  -27.3343   20.7034 H   0  0  0  0  0  0  0  0  0  0  0  0
  -17.4282  -26.6888   21.4113 H   0  0  0  0  0  0  0  0  0  0  0  0
  -18.0803  -26.0130   22.9049 H   0  0  0  0  0  0  0  0  0  0  0  0
  -19.7265  -30.6774   24.2204 H   0  0  0  0  0  0  0  0  0  0  0  0
  -17.5064  -31.5856   24.4483 H   0  0  0  0  0  0  0  0  0  0  0  0
  -15.5878  -30.2839   23.7407 H   0  0  0  0  0  0  0  0  0  0  0  0
  -15.9120  -28.0941   22.7766 H   0  0  0  0  0  0  0  0  0  0  0  0
  -24.5787  -30.7757   25.6817 H   0  0  0  0  0  0  0  0  0  0  0  0
  -25.0041  -32.2289   26.5536 H   0  0  0  0  0  0  0  0  0  0  0  0
  -25.8166  -30.7245   26.9138 H   0  0  0  0  0  0  0  0  0  0  0  0
  -26.2892  -29.7335   24.0803 H   0  0  0  0  0  0  0  0  0  0  0  0
  -27.4336  -29.7484   25.4006 H   0  0  0  0  0  0  0  0  0  0  0  0
  -27.8466  -30.4994   23.8779 H   0  0  0  0  0  0  0  0  0  0  0  0
  -27.2251  -33.3632   26.1242 H   0  0  0  0  0  0  0  0  0  0  0  0
  -28.3902  -32.6065   25.0645 H   0  0  0  0  0  0  0  0  0  0  0  0
  -27.9772  -31.8555   26.5872 H   0  0  0  0  0  0  0  0  0  0  0  0
  -28.2744  -38.0016   24.6863 H   0  0  0  0  0  0  0  0  0  0  0  0
  -28.0396  -36.2711   24.7461 H   0  0  0  0  0  0  0  0  0  0  0  0
  -27.1773  -37.3087   25.8564 H   0  0  0  0  0  0  0  0  0  0  0  0
  -20.9627  -29.9365   21.7352 H   0  0  0  0  0  0  0  0  0  0  0  0
  -26.0447  -38.2561   24.0273 H   0  0  0  0  0  0  0  0  0  0  0  0
  -29.1124  -22.1375   18.9057 H   0  0  0  0  0  0  0  0  0  0  0  0
  -31.6299  -23.5336   21.9191 H   0  0  0  0  0  0  0  0  0  0  0  0
  -32.1609  -28.4688   17.0989 H   0  0  0  0  0  0  0  0  0  0  0  0
  -30.8961  -29.5114   16.4936 H   0  0  0  0  0  0  0  0  0  0  0  0
  -30.6028  -27.7989   16.6784 H   0  0  0  0  0  0  0  0  0  0  0  0
  -32.3748  -29.9402   19.1665 H   0  0  0  0  0  0  0  0  0  0  0  0
  -30.9521  -30.2929   20.1176 H   0  0  0  0  0  0  0  0  0  0  0  0
  -31.1244  -30.9739   18.5177 H   0  0  0  0  0  0  0  0  0  0  0  0
  -28.6991  -29.1325   17.4775 H   0  0  0  0  0  0  0  0  0  0  0  0
  -28.7258  -30.0853   18.8267 H   0  0  0  0  0  0  0  0  0  0  0  0
  -30.4417  -21.5308   22.0378 H   0  0  0  0  0  0  0  0  0  0  0  0
  -29.7240  -26.5943   18.1077 H   0  0  0  0  0  0  0  0  0  0  0  0
  1 25  1  0
  1 30  2  0
  1 82  1  0
  2  3  1  0
  2 25  1  0
  2 86  1  0
  2 87  1  0
  3  4  1  0
  3 88  1  0
  3 89  1  0
  4  5  1  0
  4 90  1  0
  4 91  1  0
  5  6  1  0
  5 26  1  0
  5 92  1  6
  6 25  1  0
  6 93  1  0
  6 94  1  0
  7  8  2  0
  7 26  1  0
  7 29  1  0
  8  9  1  0
  8 22  1  0
  9 10  1  0
  9 27  2  0
 10 11  2  0
 10 15  1  0
 11 12  1  0
 11 95  1  0
 12 13  2  0
 12 96  1  0
 13 14  1  0
 13 31  1  0
 14 15  2  0
 14 97  1  0
 15 98  1  0
 16 17  2  0
 16 21  1  0
 16 31  1  0
 17 18  1  0
 17 99  1  0
 18 19  2  0
 18100  1  0
 19 20  1  0
 19 24  1  0
 20 21  2  0
 20101  1  0
 21 23  1  0
 22 28  1  0
 22 32  2  0
 26 27  1  0
 28102  1  0
 28103  1  0
 29104  1  0
 29105  1  0
 33 34  1  0
 33 66  1  0
 33 70  2  0
 34 36  1  0
 34 59  1  0
 34106  1  6
 35 44  2  0
 35 45  1  0
 35 68  1  0
 36 56  1  0
 36107  1  0
 37 39  1  0
 37 47  1  0
 37 66  1  0
 37108  1  6
 38 43  2  0
 38 46  1  0
 38 47  1  0
 39 64  1  0
 39 67  2  0
 40 52  1  0
 40 53  2  0
 40 58  1  0
 41109  1  0
 41110  1  0
 41111  1  0
 42 43  1  0
 42 66  1  0
 42112  1  0
 42113  1  0
 43 44  1  0
 44114  1  0
 45 46  2  0
 45115  1  0
 46116  1  0
 47117  1  0
 47118  1  0
 48 41  1  0
 48 56  1  0
 48 65  1  0
 48119  1  1
 49 50  1  0
 49 53  1  0
 49 64  1  0
 49120  1  1
 50 51  1  0
 50121  1  0
 50122  1  0
 51 52  1  0
 51123  1  0
 51124  1  0
 52125  1  0
 52126  1  0
 53 54  1  0
 54 55  2  0
 54127  1  0
 55 57  1  0
 55128  1  0
 56 69  2  0
 57 58  2  0
 57129  1  0
 58130  1  0
 59 60  1  0
 59 61  1  0
 59 62  1  0
 60131  1  0
 60132  1  0
 60133  1  0
 61134  1  0
 61135  1  0
 61136  1  0
 62137  1  0
 62138  1  0
 62139  1  0
 63 65  1  0
 63140  1  0
 63141  1  0
 63142  1  0
 64143  1  0
 65144  1  0
 68 79  1  0
 71 73  2  0
 71 74  1  0
 71145  1  0
 72 73  1  0
 72 81  2  0
 72146  1  0
 73 82  1  0
 74 75  2  0
 74 85  1  0
 75 81  1  0
 75 83  1  0
 76 80  1  0
 76 83  1  0
 76 84  2  0
 77147  1  0
 77148  1  0
 77149  1  0
 78 80  1  0
 78150  1  0
 78151  1  0
 78152  1  0
 79 80  1  0
 79153  1  0
 79154  1  0
 80 77  1  0
 82155  1  0
 83156  1  0
M  ISO  4   1 100  68 101  79 101  82 100
M  END
$$$$
95
     RDKit          3D

158166  0  0  0  0  0  0  0  0999 V2000
  -30.7652  -14.3608   20.6636 C   0  0  0  0  0  0  0  0  0100  0  0
  -30.4392  -12.2669   19.3775 C   0  0  0  0  0  0  0  0  0101  0  0
  -29.4791  -12.5281   18.1977 C   0  0  0  0  0  0  0  0  0102  0  0
  -27.9985  -12.3963   18.6038 C   0  0  0  0  0  0  0  0  0103  0  0
  -27.6639  -13.2170   19.8820 C   0  0  2  0  0  0  0  0  0104  0  0
  -28.6795  -12.9602   21.0279 C   0  0  0  0  0  0  0  0  0105  0  0
  -25.2633  -13.8245   20.5754 C   0  0  0  0  0  0  0  0  0106  0  0
  -24.1645  -13.0409   20.9408 C   0  0  0  0  0  0  0  0  0107  0  0
  -24.6400  -11.7009   20.8697 C   0  0  0  0  0  0  0  0  0108  0  0
  -23.9005  -10.4085   21.0420 C   0  0  0  0  0  0  0  0  0109  0  0
  -24.3588   -9.4123   21.9123 C   0  0  0  0  0  0  0  0  0110  0  0
  -23.6296   -8.2350   22.0803 C   0  0  0  0  0  0  0  0  0111  0  0
  -22.4385   -8.0419   21.3657 C   0  0  0  0  0  0  0  0  0112  0  0
  -22.0103   -9.0167   20.4678 C   0  0  0  0  0  0  0  0  0113  0  0
  -22.7317  -10.1925   20.3102 C   0  0  0  0  0  0  0  0  0114  0  0
  -21.6857   -6.0709   22.5391 C   0  0  0  0  0  0  0  0  0115  0  0
  -21.4064   -6.5490   23.8264 C   0  0  0  0  0  0  0  0  0116  0  0
  -21.3635   -5.6677   24.9085 C   0  0  0  0  0  0  0  0  0117  0  0
  -21.5973   -4.3067   24.7088 C   0  0  0  0  0  0  0  0  0118  0  0
  -21.8700   -3.8284   23.4282 C   0  0  0  0  0  0  0  0  0119  0  0
  -21.9144   -4.7056   22.3460 C   0  0  0  0  0  0  0  0  0120  0  0
  -22.8194  -13.5263   21.1763 C   0  0  0  0  0  0  0  0  0121  0  0
  -22.1559   -4.2206   21.1063 F   0  0  0  0  0  0  0  0  0122  0  0
  -21.5628   -3.4510   25.7555 F   0  0  0  0  0  0  0  0  0123  0  0
  -30.0261  -13.1803   20.4553 N   0  0  0  0  0  0  0  0  0124  0  0
  -26.2911  -12.9356   20.3443 N   0  0  0  0  0  0  0  0  0125  0  0
  -25.9236  -11.6675   20.5847 N   0  0  0  0  0  0  0  0  0126  0  0
  -22.0708  -12.7905   22.0005 N   0  0  0  0  0  0  0  0  0127  0  0
  -25.4117  -15.1773   20.4097 N   0  0  0  0  0  0  0  0  0128  0  0
  -31.7916  -14.6724   20.0536 O   0  0  0  0  0  0  0  0  0129  0  0
  -21.6670   -6.9022   21.4423 O   0  0  0  0  0  0  0  0  0130  0  0
  -22.3946  -14.5564   20.6568 O   0  0  0  0  0  0  0  0  0131  0  0
  -24.6048  -31.8614   23.2223 C   0  0  0  0  0  0  0  0  0100  0  0
  -25.8822  -32.4841   23.8616 C   0  0  1  0  0  0  0  0  0101  0  0
  -27.2536  -27.5042   20.1156 C   0  0  0  0  0  0  0  0  0102  0  0
  -25.5726  -33.8762   24.2210 N   0  0  0  0  0  0  0  0  0103  0  0
  -23.4066  -30.4859   21.5461 C   0  0  2  0  0  0  0  0  0104  0  0
  -24.8467  -28.9636   20.1247 C   0  0  0  0  0  0  0  0  0105  0  0
  -22.7412  -29.4652   22.5052 C   0  0  0  0  0  0  0  0  0106  0  0
  -18.0167  -28.1302   22.8626 C   0  0  0  0  0  0  0  0  0107  0  0
  -24.1342  -36.7390   23.2568 C   0  0  0  0  0  0  0  0  0108  0  0
  -25.9141  -30.8882   21.3456 C   0  0  0  0  0  0  0  0  0109  0  0
  -25.9930  -29.5029   20.7208 C   0  0  0  0  0  0  0  0  0110  0  0
  -27.1758  -28.7612   20.7331 C   0  0  0  0  0  0  0  0  0111  0  0
  -26.1032  -26.9836   19.5230 C   0  0  0  0  0  0  0  0  0112  0  0
  -24.9097  -27.7011   19.5331 C   0  0  0  0  0  0  0  0  0113  0  0
  -23.5715  -29.7899   20.1582 C   0  0  0  0  0  0  0  0  0114  0  0
  -25.3990  -36.3212   24.0232 C   0  0  1  0  0  0  0  0  0115  0  0
  -20.5793  -28.3813   23.1004 C   0  0  2  0  0  0  0  0  0116  0  0
  -20.6548  -26.9392   22.5411 C   0  0  0  0  0  0  0  0  0117  0  0
  -19.5615  -26.6407   21.5143 C   0  0  0  0  0  0  0  0  0118  0  0
  -18.1797  -26.7818   22.1673 C   0  0  0  0  0  0  0  0  0119  0  0
  -19.1385  -28.8769   23.2988 C   0  0  0  0  0  0  0  0  0120  0  0
  -18.9183  -30.1286   23.8878 C   0  0  0  0  0  0  0  0  0121  0  0
  -17.6396  -30.6493   24.0352 C   0  0  0  0  0  0  0  0  0122  0  0
  -25.9153  -34.9582   23.4993 C   0  0  0  0  0  0  0  0  0123  0  0
  -16.5415  -29.9068   23.6254 C   0  0  0  0  0  0  0  0  0124  0  0
  -16.7331  -28.6521   23.0586 C   0  0  0  0  0  0  0  0  0125  0  0
  -26.4583  -31.6439   25.0683 C   0  0  0  0  0  0  0  0  0126  0  0
  -25.3807  -31.3179   26.1374 C   0  0  0  0  0  0  0  0  0127  0  0
  -27.0530  -30.3024   24.5680 C   0  0  0  0  0  0  0  0  0128  0  0
  -27.6014  -32.4281   25.7651 C   0  0  0  0  0  0  0  0  0129  0  0
  -27.5629  -37.2220   24.8621 C   0  0  0  0  0  0  0  0  0130  0  0
  -21.4133  -29.3375   22.3735 N   0  0  0  0  0  0  0  0  0131  0  0
  -26.4706  -37.3372   23.9061 N   0  0  0  0  0  0  0  0  0132  0  0
  -24.6674  -31.0544   22.1178 N   0  0  0  0  0  0  0  0  0133  0  0
  -23.4259  -28.8150   23.2971 O   0  0  0  0  0  0  0  0  0134  0  0
  -28.3948  -26.7345   20.0089 O   0  0  0  0  0  0  0  0  0135  0  0
  -26.5870  -34.9065   22.4671 O   0  0  0  0  0  0  0  0  0136  0  0
  -23.5365  -32.1254   23.7833 O   0  0  0  0  0  0  0  0  0137  0  0
  -31.6148  -19.5029   22.5463 C   0  0  0  0  0  0  0  0  0  0  0  0
  -31.8883  -17.3270   21.5326 C   0  0  0  0  0  0  0  0  0  0  0  0
  -30.2312  -19.3939   22.4070 C   0  0  0  0  0  0  0  0  0  0  0  0
  -30.5046  -17.2180   21.3933 C   0  0  0  0  0  0  0  0  0  0  0  0
  -32.4433  -18.4694   22.1091 C   0  0  0  0  0  0  0  0  0  0  0  0
  -29.6761  -18.2515   21.8305 C   0  0  0  0  0  0  0  0  0  0  0  0
  -29.3570  -20.4897   22.8715 C   0  0  0  0  0  0  0  0  0  0  0  0
  -26.3414  -21.5291   22.7440 C   0  0  0  0  0  0  0  0  0  0  0  0
  -25.5496  -22.2445   23.8217 C   0  0  0  0  0  0  0  0  0  1  0  0
  -27.6429  -22.1794   22.3202 C   0  0  2  0  0  0  0  0  0  0  0  0
  -27.4645  -23.0674   21.1125 C   0  0  0  0  0  0  0  0  0  0  0  0
  -29.9439  -16.0563   20.8070 N   0  0  0  0  0  0  0  0  0  0  0  0
  -28.5621  -21.0981   21.9787 N   0  0  0  0  0  0  0  0  0  0  0  0
  -29.4013  -20.8251   24.1609 N   0  0  0  0  0  0  0  0  0  0  0  0
  -25.9371  -20.4836   22.2344 O   0  0  0  0  0  0  0  0  0  0  0  0
  -33.7718  -18.5740   22.2430 F   0  0  0  0  0  0  0  0  0  0  0  0
  -28.3452  -18.1482   21.6969 F   0  0  0  0  0  0  0  0  0  0  0  0
  -28.6430  -23.5845   20.7031 F   0  0  0  0  0  0  0  0  0  0  0  0
  -26.6271  -24.0956   21.3667 F   0  0  0  0  0  0  0  0  0  0  0  0
  -26.9525  -22.3671   20.0753 F   0  0  0  0  0  0  0  0  0  0  0  0
  -31.4485  -12.4701   19.0860 H   0  0  0  0  0  0  0  0  0  0  0  0
  -30.3970  -11.2460   19.6950 H   0  0  0  0  0  0  0  0  0  0  0  0
  -29.6870  -11.8204   17.4226 H   0  0  0  0  0  0  0  0  0  0  0  0
  -29.6375  -13.5326   17.8649 H   0  0  0  0  0  0  0  0  0  0  0  0
  -27.7830  -11.3650   18.7904 H   0  0  0  0  0  0  0  0  0  0  0  0
  -27.4028  -12.7801   17.8021 H   0  0  0  0  0  0  0  0  0  0  0  0
  -27.7353  -14.2503   19.6136 H   0  0  0  0  0  0  0  0  0  0  0  0
  -28.5890  -11.9550   21.3832 H   0  0  0  0  0  0  0  0  0  0  0  0
  -28.5005  -13.6134   21.8562 H   0  0  0  0  0  0  0  0  0  0  0  0
  -25.2399   -9.5495   22.4318 H   0  0  0  0  0  0  0  0  0  0  0  0
  -23.9663   -7.5070   22.7297 H   0  0  0  0  0  0  0  0  0  0  0  0
  -21.1515   -8.8641   19.9162 H   0  0  0  0  0  0  0  0  0  0  0  0
  -22.4016  -10.9115   19.6476 H   0  0  0  0  0  0  0  0  0  0  0  0
  -21.2319   -7.5552   23.9750 H   0  0  0  0  0  0  0  0  0  0  0  0
  -21.1589   -6.0228   25.8556 H   0  0  0  0  0  0  0  0  0  0  0  0
  -22.0396   -2.8212   23.2809 H   0  0  0  0  0  0  0  0  0  0  0  0
  -22.4401  -11.9703   22.4008 H   0  0  0  0  0  0  0  0  0  0  0  0
  -21.1493  -13.0679   22.2082 H   0  0  0  0  0  0  0  0  0  0  0  0
  -24.6538  -15.7807   20.5848 H   0  0  0  0  0  0  0  0  0  0  0  0
  -26.2762  -15.5453   20.1156 H   0  0  0  0  0  0  0  0  0  0  0  0
  -26.6778  -32.4663   23.1464 H   0  0  0  0  0  0  0  0  0  0  0  0
  -25.0747  -34.0282   25.0566 H   0  0  0  0  0  0  0  0  0  0  0  0
  -22.7881  -31.3489   21.4131 H   0  0  0  0  0  0  0  0  0  0  0  0
  -23.3854  -35.9823   23.3648 H   0  0  0  0  0  0  0  0  0  0  0  0
  -24.3696  -36.8624   22.2204 H   0  0  0  0  0  0  0  0  0  0  0  0
  -23.7669  -37.6632   23.6516 H   0  0  0  0  0  0  0  0  0  0  0  0
  -25.9445  -31.6237   20.5691 H   0  0  0  0  0  0  0  0  0  0  0  0
  -26.7436  -31.0079   22.0108 H   0  0  0  0  0  0  0  0  0  0  0  0
  -28.0090  -29.1452   21.2057 H   0  0  0  0  0  0  0  0  0  0  0  0
  -26.1369  -26.0560   19.0719 H   0  0  0  0  0  0  0  0  0  0  0  0
  -24.0652  -27.2961   19.0997 H   0  0  0  0  0  0  0  0  0  0  0  0
  -23.6156  -30.5365   19.3930 H   0  0  0  0  0  0  0  0  0  0  0  0
  -22.7355  -29.1425   19.9945 H   0  0  0  0  0  0  0  0  0  0  0  0
  -25.1353  -36.2335   25.0565 H   0  0  0  0  0  0  0  0  0  0  0  0
  -21.0070  -28.3206   24.0793 H   0  0  0  0  0  0  0  0  0  0  0  0
  -20.5555  -26.2518   23.3550 H   0  0  0  0  0  0  0  0  0  0  0  0
  -21.5974  -26.8362   22.0454 H   0  0  0  0  0  0  0  0  0  0  0  0
  -19.6810  -25.6422   21.1488 H   0  0  0  0  0  0  0  0  0  0  0  0
  -19.6406  -27.3343   20.7034 H   0  0  0  0  0  0  0  0  0  0  0  0
  -17.4282  -26.6888   21.4113 H   0  0  0  0  0  0  0  0  0  0  0  0
  -18.0803  -26.0130   22.9049 H   0  0  0  0  0  0  0  0  0  0  0  0
  -19.7265  -30.6774   24.2204 H   0  0  0  0  0  0  0  0  0  0  0  0
  -17.5064  -31.5856   24.4483 H   0  0  0  0  0  0  0  0  0  0  0  0
  -15.5878  -30.2839   23.7407 H   0  0  0  0  0  0  0  0  0  0  0  0
  -15.9120  -28.0941   22.7766 H   0  0  0  0  0  0  0  0  0  0  0  0
  -24.5787  -30.7757   25.6817 H   0  0  0  0  0  0  0  0  0  0  0  0
  -25.0041  -32.2289   26.5536 H   0  0  0  0  0  0  0  0  0  0  0  0
  -25.8166  -30.7245   26.9138 H   0  0  0  0  0  0  0  0  0  0  0  0
  -26.2892  -29.7335   24.0803 H   0  0  0  0  0  0  0  0  0  0  0  0
  -27.4336  -29.7484   25.4006 H   0  0  0  0  0  0  0  0  0  0  0  0
  -27.8466  -30.4994   23.8779 H   0  0  0  0  0  0  0  0  0  0  0  0
  -27.2251  -33.3632   26.1242 H   0  0  0  0  0  0  0  0  0  0  0  0
  -28.3902  -32.6065   25.0645 H   0  0  0  0  0  0  0  0  0  0  0  0
  -27.9772  -31.8555   26.5872 H   0  0  0  0  0  0  0  0  0  0  0  0
  -28.2744  -38.0016   24.6863 H   0  0  0  0  0  0  0  0  0  0  0  0
  -28.0396  -36.2711   24.7461 H   0  0  0  0  0  0  0  0  0  0  0  0
  -27.1773  -37.3087   25.8564 H   0  0  0  0  0  0  0  0  0  0  0  0
  -20.9627  -29.9365   21.7352 H   0  0  0  0  0  0  0  0  0  0  0  0
  -26.0447  -38.2561   24.0273 H   0  0  0  0  0  0  0  0  0  0  0  0
  -32.0255  -20.3482   22.9728 H   0  0  0  0  0  0  0  0  0  0  0  0
  -32.5013  -16.5624   21.2091 H   0  0  0  0  0  0  0  0  0  0  0  0
  -25.8880  -22.1584   24.8331 H   0  0  0  0  0  0  0  0  0  0  0  0
  -24.5228  -22.1363   24.1025 H   0  0  0  0  0  0  0  0  0  0  0  0
  -28.0094  -22.7933   23.1163 H   0  0  0  0  0  0  0  0  0  0  0  0
  -29.0354  -16.1411   20.4373 H   0  0  0  0  0  0  0  0  0  0  0  0
  -28.6007  -20.7989   21.0416 H   0  0  0  0  0  0  0  0  0  0  0  0
  -30.0037  -20.3451   24.7740 H   0  0  0  0  0  0  0  0  0  0  0  0
  -28.8316  -21.5528   24.5001 H   0  0  0  0  0  0  0  0  0  0  0  0
  1 25  1  0
  1 30  2  0
  1 82  1  0
  2  3  1  0
  2 25  1  0
  2 91  1  0
  2 92  1  0
  3  4  1  0
  3 93  1  0
  3 94  1  0
  4  5  1  0
  4 95  1  0
  4 96  1  0
  5  6  1  0
  5 26  1  0
  5 97  1  6
  6 25  1  0
  6 98  1  0
  6 99  1  0
  7  8  2  0
  7 26  1  0
  7 29  1  0
  8  9  1  0
  8 22  1  0
  9 10  1  0
  9 27  2  0
 10 11  2  0
 10 15  1  0
 11 12  1  0
 11100  1  0
 12 13  2  0
 12101  1  0
 13 14  1  0
 13 31  1  0
 14 15  2  0
 14102  1  0
 15103  1  0
 16 17  2  0
 16 21  1  0
 16 31  1  0
 17 18  1  0
 17104  1  0
 18 19  2  0
 18105  1  0
 19 20  1  0
 19 24  1  0
 20 21  2  0
 20106  1  0
 21 23  1  0
 22 28  1  0
 22 32  2  0
 26 27  1  0
 28107  1  0
 28108  1  0
 29109  1  0
 29110  1  0
 33 34  1  0
 33 66  1  0
 33 70  2  0
 34 36  1  0
 34 59  1  0
 34111  1  6
 35 44  2  0
 35 45  1  0
 35 68  1  0
 36 56  1  0
 36112  1  0
 37 39  1  0
 37 47  1  0
 37 66  1  0
 37113  1  6
 38 43  2  0
 38 46  1  0
 38 47  1  0
 39 64  1  0
 39 67  2  0
 40 52  1  0
 40 53  2  0
 40 58  1  0
 41114  1  0
 41115  1  0
 41116  1  0
 42 43  1  0
 42 66  1  0
 42117  1  0
 42118  1  0
 43 44  1  0
 44119  1  0
 45 46  2  0
 45120  1  0
 46121  1  0
 47122  1  0
 47123  1  0
 48 41  1  0
 48 56  1  0
 48 65  1  0
 48124  1  1
 49 50  1  0
 49 53  1  0
 49 64  1  0
 49125  1  1
 50 51  1  0
 50126  1  0
 50127  1  0
 51 52  1  0
 51128  1  0
 51129  1  0
 52130  1  0
 52131  1  0
 53 54  1  0
 54 55  2  0
 54132  1  0
 55 57  1  0
 55133  1  0
 56 69  2  0
 57 58  2  0
 57134  1  0
 58135  1  0
 59 60  1  0
 59 61  1  0
 59 62  1  0
 60136  1  0
 60137  1  0
 60138  1  0
 61139  1  0
 61140  1  0
 61141  1  0
 62142  1  0
 62143  1  0
 62144  1  0
 63 65  1  0
 63145  1  0
 63146  1  0
 63147  1  0
 64148  1  0
 65149  1  0
 68 79  1  0
 71 73  2  0
 71 75  1  0
 71150  1  0
 72 74  1  0
 72 75  2  0
 72151  1  0
 73 76  1  0
 73 77  1  0
 74 76  2  0
 74 82  1  0
 75 86  1  0
 76 87  1  0
 77 83  1  0
 77 84  2  0
 78 79  1  0
 78 80  1  0
 78 85  2  0
 79152  1  0
 79153  1  0
 80 81  1  0
 80 83  1  0
 80154  1  1
 81 88  1  0
 81 89  1  0
 81 90  1  0
 82155  1  0
 83156  1  0
 84157  1  0
 84158  1  0
M  CHG  1  84   1
M  ISO  4   1 100  68 101  79 101  82 100
M  END
$$$$
96
     RDKit          3D

159167  0  0  0  0  0  0  0  0999 V2000
  -30.7652  -14.3608   20.6636 C   0  0  0  0  0  0  0  0  0100  0  0
  -30.4392  -12.2669   19.3775 C   0  0  0  0  0  0  0  0  0101  0  0
  -29.4791  -12.5281   18.1977 C   0  0  0  0  0  0  0  0  0102  0  0
  -27.9985  -12.3963   18.6038 C   0  0  0  0  0  0  0  0  0103  0  0
  -27.6639  -13.2170   19.8820 C   0  0  2  0  0  0  0  0  0104  0  0
  -28.6795  -12.9602   21.0279 C   0  0  0  0  0  0  0  0  0105  0  0
  -25.2633  -13.8245   20.5754 C   0  0  0  0  0  0  0  0  0106  0  0
  -24.1645  -13.0409   20.9408 C   0  0  0  0  0  0  0  0  0107  0  0
  -24.6400  -11.7009   20.8697 C   0  0  0  0  0  0  0  0  0108  0  0
  -23.9005  -10.4085   21.0420 C   0  0  0  0  0  0  0  0  0109  0  0
  -24.3588   -9.4123   21.9123 C   0  0  0  0  0  0  0  0  0110  0  0
  -23.6296   -8.2350   22.0803 C   0  0  0  0  0  0  0  0  0111  0  0
  -22.4385   -8.0419   21.3657 C   0  0  0  0  0  0  0  0  0112  0  0
  -22.0103   -9.0167   20.4678 C   0  0  0  0  0  0  0  0  0113  0  0
  -22.7317  -10.1925   20.3102 C   0  0  0  0  0  0  0  0  0114  0  0
  -21.6857   -6.0709   22.5391 C   0  0  0  0  0  0  0  0  0115  0  0
  -21.4064   -6.5490   23.8264 C   0  0  0  0  0  0  0  0  0116  0  0
  -21.3635   -5.6677   24.9085 C   0  0  0  0  0  0  0  0  0117  0  0
  -21.5973   -4.3067   24.7088 C   0  0  0  0  0  0  0  0  0118  0  0
  -21.8700   -3.8284   23.4282 C   0  0  0  0  0  0  0  0  0119  0  0
  -21.9144   -4.7056   22.3460 C   0  0  0  0  0  0  0  0  0120  0  0
  -22.8194  -13.5263   21.1763 C   0  0  0  0  0  0  0  0  0121  0  0
  -22.1559   -4.2206   21.1063 F   0  0  0  0  0  0  0  0  0122  0  0
  -21.5628   -3.4510   25.7555 F   0  0  0  0  0  0  0  0  0123  0  0
  -30.0261  -13.1803   20.4553 N   0  0  0  0  0  0  0  0  0124  0  0
  -26.2911  -12.9356   20.3443 N   0  0  0  0  0  0  0  0  0125  0  0
  -25.9236  -11.6675   20.5847 N   0  0  0  0  0  0  0  0  0126  0  0
  -22.0708  -12.7905   22.0005 N   0  0  0  0  0  0  0  0  0127  0  0
  -25.4117  -15.1773   20.4097 N   0  0  0  0  0  0  0  0  0128  0  0
  -31.7916  -14.6724   20.0536 O   0  0  0  0  0  0  0  0  0129  0  0
  -21.6670   -6.9022   21.4423 O   0  0  0  0  0  0  0  0  0130  0  0
  -22.3946  -14.5564   20.6568 O   0  0  0  0  0  0  0  0  0131  0  0
  -24.6048  -31.8614   23.2223 C   0  0  0  0  0  0  0  0  0100  0  0
  -25.8822  -32.4841   23.8616 C   0  0  1  0  0  0  0  0  0101  0  0
  -27.2536  -27.5042   20.1156 C   0  0  0  0  0  0  0  0  0102  0  0
  -25.5726  -33.8762   24.2210 N   0  0  0  0  0  0  0  0  0103  0  0
  -23.4066  -30.4859   21.5461 C   0  0  2  0  0  0  0  0  0104  0  0
  -24.8467  -28.9636   20.1247 C   0  0  0  0  0  0  0  0  0105  0  0
  -22.7412  -29.4652   22.5052 C   0  0  0  0  0  0  0  0  0106  0  0
  -18.0167  -28.1302   22.8626 C   0  0  0  0  0  0  0  0  0107  0  0
  -24.1342  -36.7390   23.2568 C   0  0  0  0  0  0  0  0  0108  0  0
  -25.9141  -30.8882   21.3456 C   0  0  0  0  0  0  0  0  0109  0  0
  -25.9930  -29.5029   20.7208 C   0  0  0  0  0  0  0  0  0110  0  0
  -27.1758  -28.7612   20.7331 C   0  0  0  0  0  0  0  0  0111  0  0
  -26.1032  -26.9836   19.5230 C   0  0  0  0  0  0  0  0  0112  0  0
  -24.9097  -27.7011   19.5331 C   0  0  0  0  0  0  0  0  0113  0  0
  -23.5715  -29.7899   20.1582 C   0  0  0  0  0  0  0  0  0114  0  0
  -25.3990  -36.3212   24.0232 C   0  0  1  0  0  0  0  0  0115  0  0
  -20.5793  -28.3813   23.1004 C   0  0  2  0  0  0  0  0  0116  0  0
  -20.6548  -26.9392   22.5411 C   0  0  0  0  0  0  0  0  0117  0  0
  -19.5615  -26.6407   21.5143 C   0  0  0  0  0  0  0  0  0118  0  0
  -18.1797  -26.7818   22.1673 C   0  0  0  0  0  0  0  0  0119  0  0
  -19.1385  -28.8769   23.2988 C   0  0  0  0  0  0  0  0  0120  0  0
  -18.9183  -30.1286   23.8878 C   0  0  0  0  0  0  0  0  0121  0  0
  -17.6396  -30.6493   24.0352 C   0  0  0  0  0  0  0  0  0122  0  0
  -25.9153  -34.9582   23.4993 C   0  0  0  0  0  0  0  0  0123  0  0
  -16.5415  -29.9068   23.6254 C   0  0  0  0  0  0  0  0  0124  0  0
  -16.7331  -28.6521   23.0586 C   0  0  0  0  0  0  0  0  0125  0  0
  -26.4583  -31.6439   25.0683 C   0  0  0  0  0  0  0  0  0126  0  0
  -25.3807  -31.3179   26.1374 C   0  0  0  0  0  0  0  0  0127  0  0
  -27.0530  -30.3024   24.5680 C   0  0  0  0  0  0  0  0  0128  0  0
  -27.6014  -32.4281   25.7651 C   0  0  0  0  0  0  0  0  0129  0  0
  -27.5629  -37.2220   24.8621 C   0  0  0  0  0  0  0  0  0130  0  0
  -21.4133  -29.3375   22.3735 N   0  0  0  0  0  0  0  0  0131  0  0
  -26.4706  -37.3372   23.9061 N   0  0  0  0  0  0  0  0  0132  0  0
  -24.6674  -31.0544   22.1178 N   0  0  0  0  0  0  0  0  0133  0  0
  -23.4259  -28.8150   23.2971 O   0  0  0  0  0  0  0  0  0134  0  0
  -28.3948  -26.7345   20.0089 O   0  0  0  0  0  0  0  0  0135  0  0
  -26.5870  -34.9065   22.4671 O   0  0  0  0  0  0  0  0  0136  0  0
  -23.5365  -32.1254   23.7833 O   0  0  0  0  0  0  0  0  0137  0  0
  -31.9486  -17.2525   21.3775 C   0  0  0  0  0  0  0  0  0  0  0  0
  -29.7992  -18.2338   21.6488 C   0  0  0  0  0  0  0  0  0  0  0  0
  -30.5731  -17.1517   21.2447 C   0  0  0  0  0  0  0  0  0  0  0  0
  -30.4156  -19.3677   22.1660 C   0  0  0  0  0  0  0  0  0  0  0  0
  -31.7982  -19.3693   22.2578 C   0  0  0  0  0  0  0  0  0  0  0  0
  -30.0655  -21.8281   22.5760 C   0  0  0  0  0  0  0  0  0  0  0  0
  -27.8408  -18.3979   20.0918 C   0  0  0  0  0  0  0  0  0  0  0  0
  -26.7065  -23.7407   22.6305 C   0  0  0  0  0  0  0  0  0  0  0  0
  -28.3082  -18.1790   21.5261 C   0  0  0  0  0  0  0  0  0  0  0  0
  -28.9544  -22.7198   23.1218 C   0  0  0  0  0  0  0  0  0  0  0  0
  -28.0154  -23.2405   22.0337 C   0  0  2  0  0  0  0  0  0  1  0  0
  -32.5834  -18.3373   21.8755 N   0  0  0  0  0  0  0  0  0  0  0  0
  -29.6698  -20.4932   22.5899 N   0  0  0  0  0  0  0  0  0  0  0  0
  -29.9943  -15.9735   20.7113 N   0  0  0  0  0  0  0  0  0  0  0  0
  -31.1383  -22.2819   22.1920 O   0  0  0  0  0  0  0  0  0  0  0  0
  -32.4180  -20.4528   22.7544 F   0  0  0  0  0  0  0  0  0  0  0  0
  -31.4485  -12.4701   19.0860 H   0  0  0  0  0  0  0  0  0  0  0  0
  -30.3970  -11.2460   19.6950 H   0  0  0  0  0  0  0  0  0  0  0  0
  -29.6870  -11.8204   17.4226 H   0  0  0  0  0  0  0  0  0  0  0  0
  -29.6375  -13.5326   17.8649 H   0  0  0  0  0  0  0  0  0  0  0  0
  -27.7830  -11.3650   18.7904 H   0  0  0  0  0  0  0  0  0  0  0  0
  -27.4028  -12.7801   17.8021 H   0  0  0  0  0  0  0  0  0  0  0  0
  -27.7353  -14.2503   19.6136 H   0  0  0  0  0  0  0  0  0  0  0  0
  -28.5890  -11.9550   21.3832 H   0  0  0  0  0  0  0  0  0  0  0  0
  -28.5005  -13.6134   21.8562 H   0  0  0  0  0  0  0  0  0  0  0  0
  -25.2399   -9.5495   22.4318 H   0  0  0  0  0  0  0  0  0  0  0  0
  -23.9663   -7.5070   22.7297 H   0  0  0  0  0  0  0  0  0  0  0  0
  -21.1515   -8.8641   19.9162 H   0  0  0  0  0  0  0  0  0  0  0  0
  -22.4016  -10.9115   19.6476 H   0  0  0  0  0  0  0  0  0  0  0  0
  -21.2319   -7.5552   23.9750 H   0  0  0  0  0  0  0  0  0  0  0  0
  -21.1589   -6.0228   25.8556 H   0  0  0  0  0  0  0  0  0  0  0  0
  -22.0396   -2.8212   23.2809 H   0  0  0  0  0  0  0  0  0  0  0  0
  -22.4401  -11.9703   22.4008 H   0  0  0  0  0  0  0  0  0  0  0  0
  -21.1493  -13.0679   22.2082 H   0  0  0  0  0  0  0  0  0  0  0  0
  -24.6538  -15.7807   20.5848 H   0  0  0  0  0  0  0  0  0  0  0  0
  -26.2762  -15.5453   20.1156 H   0  0  0  0  0  0  0  0  0  0  0  0
  -26.6778  -32.4663   23.1464 H   0  0  0  0  0  0  0  0  0  0  0  0
  -25.0747  -34.0282   25.0566 H   0  0  0  0  0  0  0  0  0  0  0  0
  -22.7881  -31.3489   21.4131 H   0  0  0  0  0  0  0  0  0  0  0  0
  -23.3854  -35.9823   23.3648 H   0  0  0  0  0  0  0  0  0  0  0  0
  -24.3696  -36.8624   22.2204 H   0  0  0  0  0  0  0  0  0  0  0  0
  -23.7669  -37.6632   23.6516 H   0  0  0  0  0  0  0  0  0  0  0  0
  -25.9445  -31.6237   20.5691 H   0  0  0  0  0  0  0  0  0  0  0  0
  -26.7436  -31.0079   22.0108 H   0  0  0  0  0  0  0  0  0  0  0  0
  -28.0090  -29.1452   21.2057 H   0  0  0  0  0  0  0  0  0  0  0  0
  -26.1369  -26.0560   19.0719 H   0  0  0  0  0  0  0  0  0  0  0  0
  -24.0652  -27.2961   19.0997 H   0  0  0  0  0  0  0  0  0  0  0  0
  -23.6156  -30.5365   19.3930 H   0  0  0  0  0  0  0  0  0  0  0  0
  -22.7355  -29.1425   19.9945 H   0  0  0  0  0  0  0  0  0  0  0  0
  -25.1353  -36.2335   25.0565 H   0  0  0  0  0  0  0  0  0  0  0  0
  -21.0070  -28.3206   24.0793 H   0  0  0  0  0  0  0  0  0  0  0  0
  -20.5555  -26.2518   23.3550 H   0  0  0  0  0  0  0  0  0  0  0  0
  -21.5974  -26.8362   22.0454 H   0  0  0  0  0  0  0  0  0  0  0  0
  -19.6810  -25.6422   21.1488 H   0  0  0  0  0  0  0  0  0  0  0  0
  -19.6406  -27.3343   20.7034 H   0  0  0  0  0  0  0  0  0  0  0  0
  -17.4282  -26.6888   21.4113 H   0  0  0  0  0  0  0  0  0  0  0  0
  -18.0803  -26.0130   22.9049 H   0  0  0  0  0  0  0  0  0  0  0  0
  -19.7265  -30.6774   24.2204 H   0  0  0  0  0  0  0  0  0  0  0  0
  -17.5064  -31.5856   24.4483 H   0  0  0  0  0  0  0  0  0  0  0  0
  -15.5878  -30.2839   23.7407 H   0  0  0  0  0  0  0  0  0  0  0  0
  -15.9120  -28.0941   22.7766 H   0  0  0  0  0  0  0  0  0  0  0  0
  -24.5787  -30.7757   25.6817 H   0  0  0  0  0  0  0  0  0  0  0  0
  -25.0041  -32.2289   26.5536 H   0  0  0  0  0  0  0  0  0  0  0  0
  -25.8166  -30.7245   26.9138 H   0  0  0  0  0  0  0  0  0  0  0  0
  -26.2892  -29.7335   24.0803 H   0  0  0  0  0  0  0  0  0  0  0  0
  -27.4336  -29.7484   25.4006 H   0  0  0  0  0  0  0  0  0  0  0  0
  -27.8466  -30.4994   23.8779 H   0  0  0  0  0  0  0  0  0  0  0  0
  -27.2251  -33.3632   26.1242 H   0  0  0  0  0  0  0  0  0  0  0  0
  -28.3902  -32.6065   25.0645 H   0  0  0  0  0  0  0  0  0  0  0  0
  -27.9772  -31.8555   26.5872 H   0  0  0  0  0  0  0  0  0  0  0  0
  -28.2744  -38.0016   24.6863 H   0  0  0  0  0  0  0  0  0  0  0  0
  -28.0396  -36.2711   24.7461 H   0  0  0  0  0  0  0  0  0  0  0  0
  -27.1773  -37.3087   25.8564 H   0  0  0  0  0  0  0  0  0  0  0  0
  -20.9627  -29.9365   21.7352 H   0  0  0  0  0  0  0  0  0  0  0  0
  -26.0447  -38.2561   24.0273 H   0  0  0  0  0  0  0  0  0  0  0  0
  -32.5240  -16.4500   21.0778 H   0  0  0  0  0  0  0  0  0  0  0  0
  -26.7725  -18.3502   20.0536 H   0  0  0  0  0  0  0  0  0  0  0  0
  -28.2545  -17.6382   19.4620 H   0  0  0  0  0  0  0  0  0  0  0  0
  -28.1673  -19.3589   19.7530 H   0  0  0  0  0  0  0  0  0  0  0  0
  -26.2996  -22.9911   23.2766 H   0  0  0  0  0  0  0  0  0  0  0  0
  -26.0120  -23.9484   21.8435 H   0  0  0  0  0  0  0  0  0  0  0  0
  -26.8883  -24.6340   23.1907 H   0  0  0  0  0  0  0  0  0  0  0  0
  -27.8830  -18.9396   22.1471 H   0  0  0  0  0  0  0  0  0  0  0  0
  -27.9888  -17.2043   21.8309 H   0  0  0  0  0  0  0  0  0  0  0  0
  -29.4013  -23.5573   23.6155 H   0  0  0  0  0  0  0  0  0  0  0  0
  -28.3685  -22.1260   23.7919 H   0  0  0  0  0  0  0  0  0  0  0  0
  -28.1694  -22.3778   21.4197 H   0  0  0  0  0  0  0  0  0  0  0  0
  -28.7659  -20.3111   22.9348 H   0  0  0  0  0  0  0  0  0  0  0  0
  -29.0882  -16.0495   20.3338 H   0  0  0  0  0  0  0  0  0  0  0  0
  1 25  1  0
  1 30  2  0
  1 84  1  0
  2  3  1  0
  2 25  1  0
  2 87  1  0
  2 88  1  0
  3  4  1  0
  3 89  1  0
  3 90  1  0
  4  5  1  0
  4 91  1  0
  4 92  1  0
  5  6  1  0
  5 26  1  0
  5 93  1  6
  6 25  1  0
  6 94  1  0
  6 95  1  0
  7  8  2  0
  7 26  1  0
  7 29  1  0
  8  9  1  0
  8 22  1  0
  9 10  1  0
  9 27  2  0
 10 11  2  0
 10 15  1  0
 11 12  1  0
 11 96  1  0
 12 13  2  0
 12 97  1  0
 13 14  1  0
 13 31  1  0
 14 15  2  0
 14 98  1  0
 15 99  1  0
 16 17  2  0
 16 21  1  0
 16 31  1  0
 17 18  1  0
 17100  1  0
 18 19  2  0
 18101  1  0
 19 20  1  0
 19 24  1  0
 20 21  2  0
 20102  1  0
 21 23  1  0
 22 28  1  0
 22 32  2  0
 26 27  1  0
 28103  1  0
 28104  1  0
 29105  1  0
 29106  1  0
 33 34  1  0
 33 66  1  0
 33 70  2  0
 34 36  1  0
 34 59  1  0
 34107  1  6
 35 44  2  0
 35 45  1  0
 35 68  1  0
 36 56  1  0
 36108  1  0
 37 39  1  0
 37 47  1  0
 37 66  1  0
 37109  1  6
 38 43  2  0
 38 46  1  0
 38 47  1  0
 39 64  1  0
 39 67  2  0
 40 52  1  0
 40 53  2  0
 40 58  1  0
 41110  1  0
 41111  1  0
 41112  1  0
 42 43  1  0
 42 66  1  0
 42113  1  0
 42114  1  0
 43 44  1  0
 44115  1  0
 45 46  2  0
 45116  1  0
 46117  1  0
 47118  1  0
 47119  1  0
 48 41  1  0
 48 56  1  0
 48 65  1  0
 48120  1  1
 49 50  1  0
 49 53  1  0
 49 64  1  0
 49121  1  1
 50 51  1  0
 50122  1  0
 50123  1  0
 51 52  1  0
 51124  1  0
 51125  1  0
 52126  1  0
 52127  1  0
 53 54  1  0
 54 55  2  0
 54128  1  0
 55 57  1  0
 55129  1  0
 56 69  2  0
 57 58  2  0
 57130  1  0
 58131  1  0
 59 60  1  0
 59 61  1  0
 59 62  1  0
 60132  1  0
 60133  1  0
 60134  1  0
 61135  1  0
 61136  1  0
 61137  1  0
 62138  1  0
 62139  1  0
 62140  1  0
 63 65  1  0
 63141  1  0
 63142  1  0
 63143  1  0
 64144  1  0
 65145  1  0
 68 81  1  0
 71 73  2  0
 71 82  1  0
 71146  1  0
 72 73  1  0
 72 74  2  0
 72 79  1  0
 73 84  1  0
 74 75  1  0
 74 83  1  0
 75 82  2  0
 75 86  1  0
 76 80  1  0
 76 83  1  0
 76 85  2  0
 77 79  1  0
 77147  1  0
 77148  1  0
 77149  1  0
 78150  1  0
 78151  1  0
 78152  1  0
 79153  1  0
 79154  1  0
 80 81  1  0
 80155  1  0
 80156  1  0
 81 78  1  0
 81157  1  6
 83158  1  0
 84159  1  0
M  ISO  4   1 100  68 101  81 101  84 100
M  END
$$$$
97
     RDKit          3D

157165  0  0  0  0  0  0  0  0999 V2000
  -30.7652  -14.3608   20.6636 C   0  0  0  0  0  0  0  0  0100  0  0
  -30.4392  -12.2669   19.3775 C   0  0  0  0  0  0  0  0  0101  0  0
  -29.4791  -12.5281   18.1977 C   0  0  0  0  0  0  0  0  0102  0  0
  -27.9985  -12.3963   18.6038 C   0  0  0  0  0  0  0  0  0103  0  0
  -27.6639  -13.2170   19.8820 C   0  0  2  0  0  0  0  0  0104  0  0
  -28.6795  -12.9602   21.0279 C   0  0  0  0  0  0  0  0  0105  0  0
  -25.2633  -13.8245   20.5754 C   0  0  0  0  0  0  0  0  0106  0  0
  -24.1645  -13.0409   20.9408 C   0  0  0  0  0  0  0  0  0107  0  0
  -24.6400  -11.7009   20.8697 C   0  0  0  0  0  0  0  0  0108  0  0
  -23.9005  -10.4085   21.0420 C   0  0  0  0  0  0  0  0  0109  0  0
  -24.3588   -9.4123   21.9123 C   0  0  0  0  0  0  0  0  0110  0  0
  -23.6296   -8.2350   22.0803 C   0  0  0  0  0  0  0  0  0111  0  0
  -22.4385   -8.0419   21.3657 C   0  0  0  0  0  0  0  0  0112  0  0
  -22.0103   -9.0167   20.4678 C   0  0  0  0  0  0  0  0  0113  0  0
  -22.7317  -10.1925   20.3102 C   0  0  0  0  0  0  0  0  0114  0  0
  -21.6857   -6.0709   22.5391 C   0  0  0  0  0  0  0  0  0115  0  0
  -21.4064   -6.5490   23.8264 C   0  0  0  0  0  0  0  0  0116  0  0
  -21.3635   -5.6677   24.9085 C   0  0  0  0  0  0  0  0  0117  0  0
  -21.5973   -4.3067   24.7088 C   0  0  0  0  0  0  0  0  0118  0  0
  -21.8700   -3.8284   23.4282 C   0  0  0  0  0  0  0  0  0119  0  0
  -21.9144   -4.7056   22.3460 C   0  0  0  0  0  0  0  0  0120  0  0
  -22.8194  -13.5263   21.1763 C   0  0  0  0  0  0  0  0  0121  0  0
  -22.1559   -4.2206   21.1063 F   0  0  0  0  0  0  0  0  0122  0  0
  -21.5628   -3.4510   25.7555 F   0  0  0  0  0  0  0  0  0123  0  0
  -30.0261  -13.1803   20.4553 N   0  0  0  0  0  0  0  0  0124  0  0
  -26.2911  -12.9356   20.3443 N   0  0  0  0  0  0  0  0  0125  0  0
  -25.9236  -11.6675   20.5847 N   0  0  0  0  0  0  0  0  0126  0  0
  -22.0708  -12.7905   22.0005 N   0  0  0  0  0  0  0  0  0127  0  0
  -25.4117  -15.1773   20.4097 N   0  0  0  0  0  0  0  0  0128  0  0
  -31.7916  -14.6724   20.0536 O   0  0  0  0  0  0  0  0  0129  0  0
  -21.6670   -6.9022   21.4423 O   0  0  0  0  0  0  0  0  0130  0  0
  -22.3946  -14.5564   20.6568 O   0  0  0  0  0  0  0  0  0131  0  0
  -24.6048  -31.8614   23.2223 C   0  0  0  0  0  0  0  0  0100  0  0
  -25.8822  -32.4841   23.8616 C   0  0  1  0  0  0  0  0  0101  0  0
  -27.2536  -27.5042   20.1156 C   0  0  0  0  0  0  0  0  0102  0  0
  -25.5726  -33.8762   24.2210 N   0  0  0  0  0  0  0  0  0103  0  0
  -23.4066  -30.4859   21.5461 C   0  0  2  0  0  0  0  0  0104  0  0
  -24.8467  -28.9636   20.1247 C   0  0  0  0  0  0  0  0  0105  0  0
  -22.7412  -29.4652   22.5052 C   0  0  0  0  0  0  0  0  0106  0  0
  -18.0167  -28.1302   22.8626 C   0  0  0  0  0  0  0  0  0107  0  0
  -24.1342  -36.7390   23.2568 C   0  0  0  0  0  0  0  0  0108  0  0
  -25.9141  -30.8882   21.3456 C   0  0  0  0  0  0  0  0  0109  0  0
  -25.9930  -29.5029   20.7208 C   0  0  0  0  0  0  0  0  0110  0  0
  -27.1758  -28.7612   20.7331 C   0  0  0  0  0  0  0  0  0111  0  0
  -26.1032  -26.9836   19.5230 C   0  0  0  0  0  0  0  0  0112  0  0
  -24.9097  -27.7011   19.5331 C   0  0  0  0  0  0  0  0  0113  0  0
  -23.5715  -29.7899   20.1582 C   0  0  0  0  0  0  0  0  0114  0  0
  -25.3990  -36.3212   24.0232 C   0  0  1  0  0  0  0  0  0115  0  0
  -20.5793  -28.3813   23.1004 C   0  0  2  0  0  0  0  0  0116  0  0
  -20.6548  -26.9392   22.5411 C   0  0  0  0  0  0  0  0  0117  0  0
  -19.5615  -26.6407   21.5143 C   0  0  0  0  0  0  0  0  0118  0  0
  -18.1797  -26.7818   22.1673 C   0  0  0  0  0  0  0  0  0119  0  0
  -19.1385  -28.8769   23.2988 C   0  0  0  0  0  0  0  0  0120  0  0
  -18.9183  -30.1286   23.8878 C   0  0  0  0  0  0  0  0  0121  0  0
  -17.6396  -30.6493   24.0352 C   0  0  0  0  0  0  0  0  0122  0  0
  -25.9153  -34.9582   23.4993 C   0  0  0  0  0  0  0  0  0123  0  0
  -16.5415  -29.9068   23.6254 C   0  0  0  0  0  0  0  0  0124  0  0
  -16.7331  -28.6521   23.0586 C   0  0  0  0  0  0  0  0  0125  0  0
  -26.4583  -31.6439   25.0683 C   0  0  0  0  0  0  0  0  0126  0  0
  -25.3807  -31.3179   26.1374 C   0  0  0  0  0  0  0  0  0127  0  0
  -27.0530  -30.3024   24.5680 C   0  0  0  0  0  0  0  0  0128  0  0
  -27.6014  -32.4281   25.7651 C   0  0  0  0  0  0  0  0  0129  0  0
  -27.5629  -37.2220   24.8621 C   0  0  0  0  0  0  0  0  0130  0  0
  -21.4133  -29.3375   22.3735 N   0  0  0  0  0  0  0  0  0131  0  0
  -26.4706  -37.3372   23.9061 N   0  0  0  0  0  0  0  0  0132  0  0
  -24.6674  -31.0544   22.1178 N   0  0  0  0  0  0  0  0  0133  0  0
  -23.4259  -28.8150   23.2971 O   0  0  0  0  0  0  0  0  0134  0  0
  -28.3948  -26.7345   20.0089 O   0  0  0  0  0  0  0  0  0135  0  0
  -26.5870  -34.9065   22.4671 O   0  0  0  0  0  0  0  0  0136  0  0
  -23.5365  -32.1254   23.7833 O   0  0  0  0  0  0  0  0  0137  0  0
  -23.5258  -15.3321   19.6443 C   0  0  0  0  0  0  0  0  0  0  0  0
  -23.5730  -16.7455   21.6031 C   0  0  0  0  0  0  0  0  0  0  0  0
  -22.1644  -15.1024   19.8428 C   0  0  0  0  0  0  0  0  0  0  0  0
  -24.2301  -16.1536   20.5245 C   0  0  0  0  0  0  0  0  0  0  0  0
  -21.5072  -15.6943   20.9214 C   0  0  0  0  0  0  0  0  0  0  0  0
  -22.2115  -16.5159   21.8016 C   0  0  0  0  0  0  0  0  0  0  0  0
  -21.1341  -14.9112   17.5748 C   0  0  0  0  0  0  0  0  0  0  0  0
  -21.6341  -16.3241   17.4377 C   0  0  0  0  0  0  0  0  0  0  0  0
  -20.0491  -12.9366   16.8670 C   0  0  0  0  0  0  0  0  0  0  0  0
  -21.4292  -14.2111   18.8776 C   0  0  0  0  0  0  0  0  0  0  0  0
  -20.6929  -17.4088   17.8880 C   0  0  0  0  0  0  0  0  0  1  0  0
  -20.4919  -14.3038   16.6386 N   0  0  0  0  0  0  0  0  0  0  0  0
  -20.1294  -15.4715   21.1356 N   0  0  0  0  0  0  0  0  0  0  0  0
  -25.6131  -16.3872   20.3231 N   0  0  0  0  0  0  0  0  0  0  0  0
  -22.7542  -16.4922   16.9803 O   0  0  0  0  0  0  0  0  0  0  0  0
  -21.5906  -17.0907   22.8416 F   0  0  0  0  0  0  0  0  0  0  0  0
  -31.4485  -12.4701   19.0860 H   0  0  0  0  0  0  0  0  0  0  0  0
  -30.3970  -11.2460   19.6950 H   0  0  0  0  0  0  0  0  0  0  0  0
  -29.6870  -11.8204   17.4226 H   0  0  0  0  0  0  0  0  0  0  0  0
  -29.6375  -13.5326   17.8649 H   0  0  0  0  0  0  0  0  0  0  0  0
  -27.7830  -11.3650   18.7904 H   0  0  0  0  0  0  0  0  0  0  0  0
  -27.4028  -12.7801   17.8021 H   0  0  0  0  0  0  0  0  0  0  0  0
  -27.7353  -14.2503   19.6136 H   0  0  0  0  0  0  0  0  0  0  0  0
  -28.5890  -11.9550   21.3832 H   0  0  0  0  0  0  0  0  0  0  0  0
  -28.5005  -13.6134   21.8562 H   0  0  0  0  0  0  0  0  0  0  0  0
  -25.2399   -9.5495   22.4318 H   0  0  0  0  0  0  0  0  0  0  0  0
  -23.9663   -7.5070   22.7297 H   0  0  0  0  0  0  0  0  0  0  0  0
  -21.1515   -8.8641   19.9162 H   0  0  0  0  0  0  0  0  0  0  0  0
  -22.4016  -10.9115   19.6476 H   0  0  0  0  0  0  0  0  0  0  0  0
  -21.2319   -7.5552   23.9750 H   0  0  0  0  0  0  0  0  0  0  0  0
  -21.1589   -6.0228   25.8556 H   0  0  0  0  0  0  0  0  0  0  0  0
  -22.0396   -2.8212   23.2809 H   0  0  0  0  0  0  0  0  0  0  0  0
  -22.4401  -11.9703   22.4008 H   0  0  0  0  0  0  0  0  0  0  0  0
  -21.1493  -13.0679   22.2082 H   0  0  0  0  0  0  0  0  0  0  0  0
  -24.6538  -15.7807   20.5848 H   0  0  0  0  0  0  0  0  0  0  0  0
  -26.2762  -15.5453   20.1156 H   0  0  0  0  0  0  0  0  0  0  0  0
  -26.6778  -32.4663   23.1464 H   0  0  0  0  0  0  0  0  0  0  0  0
  -25.0747  -34.0282   25.0566 H   0  0  0  0  0  0  0  0  0  0  0  0
  -22.7881  -31.3489   21.4131 H   0  0  0  0  0  0  0  0  0  0  0  0
  -23.3854  -35.9823   23.3648 H   0  0  0  0  0  0  0  0  0  0  0  0
  -24.3696  -36.8624   22.2204 H   0  0  0  0  0  0  0  0  0  0  0  0
  -23.7669  -37.6632   23.6516 H   0  0  0  0  0  0  0  0  0  0  0  0
  -25.9445  -31.6237   20.5691 H   0  0  0  0  0  0  0  0  0  0  0  0
  -26.7436  -31.0079   22.0108 H   0  0  0  0  0  0  0  0  0  0  0  0
  -28.0090  -29.1452   21.2057 H   0  0  0  0  0  0  0  0  0  0  0  0
  -26.1369  -26.0560   19.0719 H   0  0  0  0  0  0  0  0  0  0  0  0
  -24.0652  -27.2961   19.0997 H   0  0  0  0  0  0  0  0  0  0  0  0
  -23.6156  -30.5365   19.3930 H   0  0  0  0  0  0  0  0  0  0  0  0
  -22.7355  -29.1425   19.9945 H   0  0  0  0  0  0  0  0  0  0  0  0
  -25.1353  -36.2335   25.0565 H   0  0  0  0  0  0  0  0  0  0  0  0
  -21.0070  -28.3206   24.0793 H   0  0  0  0  0  0  0  0  0  0  0  0
  -20.5555  -26.2518   23.3550 H   0  0  0  0  0  0  0  0  0  0  0  0
  -21.5974  -26.8362   22.0454 H   0  0  0  0  0  0  0  0  0  0  0  0
  -19.6810  -25.6422   21.1488 H   0  0  0  0  0  0  0  0  0  0  0  0
  -19.6406  -27.3343   20.7034 H   0  0  0  0  0  0  0  0  0  0  0  0
  -17.4282  -26.6888   21.4113 H   0  0  0  0  0  0  0  0  0  0  0  0
  -18.0803  -26.0130   22.9049 H   0  0  0  0  0  0  0  0  0  0  0  0
  -19.7265  -30.6774   24.2204 H   0  0  0  0  0  0  0  0  0  0  0  0
  -17.5064  -31.5856   24.4483 H   0  0  0  0  0  0  0  0  0  0  0  0
  -15.5878  -30.2839   23.7407 H   0  0  0  0  0  0  0  0  0  0  0  0
  -15.9120  -28.0941   22.7766 H   0  0  0  0  0  0  0  0  0  0  0  0
  -24.5787  -30.7757   25.6817 H   0  0  0  0  0  0  0  0  0  0  0  0
  -25.0041  -32.2289   26.5536 H   0  0  0  0  0  0  0  0  0  0  0  0
  -25.8166  -30.7245   26.9138 H   0  0  0  0  0  0  0  0  0  0  0  0
  -26.2892  -29.7335   24.0803 H   0  0  0  0  0  0  0  0  0  0  0  0
  -27.4336  -29.7484   25.4006 H   0  0  0  0  0  0  0  0  0  0  0  0
  -27.8466  -30.4994   23.8779 H   0  0  0  0  0  0  0  0  0  0  0  0
  -27.2251  -33.3632   26.1242 H   0  0  0  0  0  0  0  0  0  0  0  0
  -28.3902  -32.6065   25.0645 H   0  0  0  0  0  0  0  0  0  0  0  0
  -27.9772  -31.8555   26.5872 H   0  0  0  0  0  0  0  0  0  0  0  0
  -28.2744  -38.0016   24.6863 H   0  0  0  0  0  0  0  0  0  0  0  0
  -28.0396  -36.2711   24.7461 H   0  0  0  0  0  0  0  0  0  0  0  0
  -27.1773  -37.3087   25.8564 H   0  0  0  0  0  0  0  0  0  0  0  0
  -20.9627  -29.9365   21.7352 H   0  0  0  0  0  0  0  0  0  0  0  0
  -26.0447  -38.2561   24.0273 H   0  0  0  0  0  0  0  0  0  0  0  0
  -24.0120  -14.8943   18.8462 H   0  0  0  0  0  0  0  0  0  0  0  0
  -24.0941  -17.3533   22.2543 H   0  0  0  0  0  0  0  0  0  0  0  0
  -19.5351  -12.5786   15.9995 H   0  0  0  0  0  0  0  0  0  0  0  0
  -19.3888  -12.9114   17.7086 H   0  0  0  0  0  0  0  0  0  0  0  0
  -20.8978  -12.3145   17.0608 H   0  0  0  0  0  0  0  0  0  0  0  0
  -20.5052  -13.9070   19.3234 H   0  0  0  0  0  0  0  0  0  0  0  0
  -22.0528  -13.3678   18.6658 H   0  0  0  0  0  0  0  0  0  0  0  0
  -20.1703  -17.1258   18.7778 H   0  0  0  0  0  0  0  0  0  0  0  0
  -19.9244  -17.6358   17.1789 H   0  0  0  0  0  0  0  0  0  0  0  0
  -19.6228  -14.8934   20.5205 H   0  0  0  0  0  0  0  0  0  0  0  0
  -19.6754  -15.8943   21.9001 H   0  0  0  0  0  0  0  0  0  0  0  0
  -25.6946  -17.3032   19.9715 H   0  0  0  0  0  0  0  0  0  0  0  0
  1 25  1  0
  1 30  2  0
  1 84  1  0
  2  3  1  0
  2 25  1  0
  2 87  1  0
  2 88  1  0
  3  4  1  0
  3 89  1  0
  3 90  1  0
  4  5  1  0
  4 91  1  0
  4 92  1  0
  5  6  1  0
  5 26  1  0
  5 93  1  6
  6 25  1  0
  6 94  1  0
  6 95  1  0
  7  8  2  0
  7 26  1  0
  7 29  1  0
  8  9  1  0
  8 22  1  0
  9 10  1  0
  9 27  2  0
 10 11  2  0
 10 15  1  0
 11 12  1  0
 11 96  1  0
 12 13  2  0
 12 97  1  0
 13 14  1  0
 13 31  1  0
 14 15  2  0
 14 98  1  0
 15 99  1  0
 16 17  2  0
 16 21  1  0
 16 31  1  0
 17 18  1  0
 17100  1  0
 18 19  2  0
 18101  1  0
 19 20  1  0
 19 24  1  0
 20 21  2  0
 20102  1  0
 21 23  1  0
 22 28  1  0
 22 32  2  0
 26 27  1  0
 28103  1  0
 28104  1  0
 29105  1  0
 29106  1  0
 33 34  1  0
 33 66  1  0
 33 70  2  0
 34 36  1  0
 34 59  1  0
 34107  1  6
 35 44  2  0
 35 45  1  0
 35 68  1  0
 36 56  1  0
 36108  1  0
 37 39  1  0
 37 47  1  0
 37 66  1  0
 37109  1  6
 38 43  2  0
 38 46  1  0
 38 47  1  0
 39 64  1  0
 39 67  2  0
 40 52  1  0
 40 53  2  0
 40 58  1  0
 41110  1  0
 41111  1  0
 41112  1  0
 42 43  1  0
 42 66  1  0
 42113  1  0
 42114  1  0
 43 44  1  0
 44115  1  0
 45 46  2  0
 45116  1  0
 46117  1  0
 47118  1  0
 47119  1  0
 48 41  1  0
 48 56  1  0
 48 65  1  0
 48120  1  1
 49 50  1  0
 49 53  1  0
 49 64  1  0
 49121  1  1
 50 51  1  0
 50122  1  0
 50123  1  0
 51 52  1  0
 51124  1  0
 51125  1  0
 52126  1  0
 52127  1  0
 53 54  1  0
 54 55  2  0
 54128  1  0
 55 57  1  0
 55129  1  0
 56 69  2  0
 57 58  2  0
 57130  1  0
 58131  1  0
 59 60  1  0
 59 61  1  0
 59 62  1  0
 60132  1  0
 60133  1  0
 60134  1  0
 61135  1  0
 61136  1  0
 61137  1  0
 62138  1  0
 62139  1  0
 62140  1  0
 63 65  1  0
 63141  1  0
 63142  1  0
 63143  1  0
 64144  1  0
 65145  1  0
 68 81  1  0
 71 73  2  0
 71 74  1  0
 71146  1  0
 72 74  2  0
 72 76  1  0
 72147  1  0
 73 75  1  0
 73 80  1  0
 74 84  1  0
 75 76  2  0
 75 83  1  0
 76 86  1  0
 77 78  1  0
 77 80  1  0
 77 82  2  0
 78 81  1  0
 78 85  2  0
 79 82  1  0
 79148  1  0
 79149  1  0
 79150  1  0
 80151  1  0
 80152  1  0
 81153  1  0
 81154  1  0
 83155  1  0
 83156  1  0
 84157  1  0
M  ISO  4   1 100  68 101  81 101  84 100
M  END
$$$$
98
     RDKit          3D

153161  0  0  0  0  0  0  0  0999 V2000
  -30.7652  -14.3608   20.6636 C   0  0  0  0  0  0  0  0  0100  0  0
  -30.4392  -12.2669   19.3775 C   0  0  0  0  0  0  0  0  0101  0  0
  -29.4791  -12.5281   18.1977 C   0  0  0  0  0  0  0  0  0102  0  0
  -27.9985  -12.3963   18.6038 C   0  0  0  0  0  0  0  0  0103  0  0
  -27.6639  -13.2170   19.8820 C   0  0  2  0  0  0  0  0  0104  0  0
  -28.6795  -12.9602   21.0279 C   0  0  0  0  0  0  0  0  0105  0  0
  -25.2633  -13.8245   20.5754 C   0  0  0  0  0  0  0  0  0106  0  0
  -24.1645  -13.0409   20.9408 C   0  0  0  0  0  0  0  0  0107  0  0
  -24.6400  -11.7009   20.8697 C   0  0  0  0  0  0  0  0  0108  0  0
  -23.9005  -10.4085   21.0420 C   0  0  0  0  0  0  0  0  0109  0  0
  -24.3588   -9.4123   21.9123 C   0  0  0  0  0  0  0  0  0110  0  0
  -23.6296   -8.2350   22.0803 C   0  0  0  0  0  0  0  0  0111  0  0
  -22.4385   -8.0419   21.3657 C   0  0  0  0  0  0  0  0  0112  0  0
  -22.0103   -9.0167   20.4678 C   0  0  0  0  0  0  0  0  0113  0  0
  -22.7317  -10.1925   20.3102 C   0  0  0  0  0  0  0  0  0114  0  0
  -21.6857   -6.0709   22.5391 C   0  0  0  0  0  0  0  0  0115  0  0
  -21.4064   -6.5490   23.8264 C   0  0  0  0  0  0  0  0  0116  0  0
  -21.3635   -5.6677   24.9085 C   0  0  0  0  0  0  0  0  0117  0  0
  -21.5973   -4.3067   24.7088 C   0  0  0  0  0  0  0  0  0118  0  0
  -21.8700   -3.8284   23.4282 C   0  0  0  0  0  0  0  0  0119  0  0
  -21.9144   -4.7056   22.3460 C   0  0  0  0  0  0  0  0  0120  0  0
  -22.8194  -13.5263   21.1763 C   0  0  0  0  0  0  0  0  0121  0  0
  -22.1559   -4.2206   21.1063 F   0  0  0  0  0  0  0  0  0122  0  0
  -21.5628   -3.4510   25.7555 F   0  0  0  0  0  0  0  0  0123  0  0
  -30.0261  -13.1803   20.4553 N   0  0  0  0  0  0  0  0  0124  0  0
  -26.2911  -12.9356   20.3443 N   0  0  0  0  0  0  0  0  0125  0  0
  -25.9236  -11.6675   20.5847 N   0  0  0  0  0  0  0  0  0126  0  0
  -22.0708  -12.7905   22.0005 N   0  0  0  0  0  0  0  0  0127  0  0
  -25.4117  -15.1773   20.4097 N   0  0  0  0  0  0  0  0  0128  0  0
  -31.7916  -14.6724   20.0536 O   0  0  0  0  0  0  0  0  0129  0  0
  -21.6670   -6.9022   21.4423 O   0  0  0  0  0  0  0  0  0130  0  0
  -22.3946  -14.5564   20.6568 O   0  0  0  0  0  0  0  0  0131  0  0
  -24.6048  -31.8614   23.2223 C   0  0  0  0  0  0  0  0  0100  0  0
  -25.8822  -32.4841   23.8616 C   0  0  1  0  0  0  0  0  0101  0  0
  -27.2536  -27.5042   20.1156 C   0  0  0  0  0  0  0  0  0102  0  0
  -25.5726  -33.8762   24.2210 N   0  0  0  0  0  0  0  0  0103  0  0
  -23.4066  -30.4859   21.5461 C   0  0  2  0  0  0  0  0  0104  0  0
  -24.8467  -28.9636   20.1247 C   0  0  0  0  0  0  0  0  0105  0  0
  -22.7412  -29.4652   22.5052 C   0  0  0  0  0  0  0  0  0106  0  0
  -18.0167  -28.1302   22.8626 C   0  0  0  0  0  0  0  0  0107  0  0
  -24.1342  -36.7390   23.2568 C   0  0  0  0  0  0  0  0  0108  0  0
  -25.9141  -30.8882   21.3456 C   0  0  0  0  0  0  0  0  0109  0  0
  -25.9930  -29.5029   20.7208 C   0  0  0  0  0  0  0  0  0110  0  0
  -27.1758  -28.7612   20.7331 C   0  0  0  0  0  0  0  0  0111  0  0
  -26.1032  -26.9836   19.5230 C   0  0  0  0  0  0  0  0  0112  0  0
  -24.9097  -27.7011   19.5331 C   0  0  0  0  0  0  0  0  0113  0  0
  -23.5715  -29.7899   20.1582 C   0  0  0  0  0  0  0  0  0114  0  0
  -25.3990  -36.3212   24.0232 C   0  0  1  0  0  0  0  0  0115  0  0
  -20.5793  -28.3813   23.1004 C   0  0  2  0  0  0  0  0  0116  0  0
  -20.6548  -26.9392   22.5411 C   0  0  0  0  0  0  0  0  0117  0  0
  -19.5615  -26.6407   21.5143 C   0  0  0  0  0  0  0  0  0118  0  0
  -18.1797  -26.7818   22.1673 C   0  0  0  0  0  0  0  0  0119  0  0
  -19.1385  -28.8769   23.2988 C   0  0  0  0  0  0  0  0  0120  0  0
  -18.9183  -30.1286   23.8878 C   0  0  0  0  0  0  0  0  0121  0  0
  -17.6396  -30.6493   24.0352 C   0  0  0  0  0  0  0  0  0122  0  0
  -25.9153  -34.9582   23.4993 C   0  0  0  0  0  0  0  0  0123  0  0
  -16.5415  -29.9068   23.6254 C   0  0  0  0  0  0  0  0  0124  0  0
  -16.7331  -28.6521   23.0586 C   0  0  0  0  0  0  0  0  0125  0  0
  -26.4583  -31.6439   25.0683 C   0  0  0  0  0  0  0  0  0126  0  0
  -25.3807  -31.3179   26.1374 C   0  0  0  0  0  0  0  0  0127  0  0
  -27.0530  -30.3024   24.5680 C   0  0  0  0  0  0  0  0  0128  0  0
  -27.6014  -32.4281   25.7651 C   0  0  0  0  0  0  0  0  0129  0  0
  -27.5629  -37.2220   24.8621 C   0  0  0  0  0  0  0  0  0130  0  0
  -21.4133  -29.3375   22.3735 N   0  0  0  0  0  0  0  0  0131  0  0
  -26.4706  -37.3372   23.9061 N   0  0  0  0  0  0  0  0  0132  0  0
  -24.6674  -31.0544   22.1178 N   0  0  0  0  0  0  0  0  0133  0  0
  -23.4259  -28.8150   23.2971 O   0  0  0  0  0  0  0  0  0134  0  0
  -28.3948  -26.7345   20.0089 O   0  0  0  0  0  0  0  0  0135  0  0
  -26.5870  -34.9065   22.4671 O   0  0  0  0  0  0  0  0  0136  0  0
  -23.5365  -32.1254   23.7833 O   0  0  0  0  0  0  0  0  0137  0  0
  -31.3172  -19.0822   20.6099 C   0  0  0  0  0  0  0  0  0  0  0  0
  -31.1479  -17.6977   20.6034 C   0  0  0  0  0  0  0  0  0  0  0  0
  -30.5867  -19.8700   21.4996 C   0  0  0  0  0  0  0  0  0  0  0  0
  -30.2480  -17.1009   21.4864 C   0  0  0  0  0  0  0  0  0  0  0  0
  -29.6868  -19.2732   22.3826 C   0  0  0  0  0  0  0  0  0  0  0  0
  -29.5175  -17.8887   22.3761 C   0  0  0  0  0  0  0  0  0  0  0  0
  -28.1480  -22.0161   24.4072 C   0  0  0  0  0  0  0  0  0  0  0  0
  -28.1146  -23.5111   24.6579 C   0  0  0  0  0  0  0  0  0  0  0  0
  -29.0752  -21.4948   23.3399 C   0  0  0  0  0  0  0  0  0  0  0  0
  -29.0123  -24.3963   23.8310 C   0  0  0  0  0  0  0  0  0  1  0  0
  -30.0783  -15.6942   21.4770 N   0  0  0  0  0  0  0  0  0  0  0  0
  -28.9621  -20.0590   23.2659 N   0  0  0  0  0  0  0  0  0  0  0  0
  -27.4110  -21.3199   25.0941 O   0  0  0  0  0  0  0  0  0  0  0  0
  -27.3558  -23.9204   25.5271 O   0  0  0  0  0  0  0  0  0  0  0  0
  -28.6516  -17.3149   23.2257 F   0  0  0  0  0  0  0  0  0  0  0  0
  -31.4485  -12.4701   19.0860 H   0  0  0  0  0  0  0  0  0  0  0  0
  -30.3970  -11.2460   19.6950 H   0  0  0  0  0  0  0  0  0  0  0  0
  -29.6870  -11.8204   17.4226 H   0  0  0  0  0  0  0  0  0  0  0  0
  -29.6375  -13.5326   17.8649 H   0  0  0  0  0  0  0  0  0  0  0  0
  -27.7830  -11.3650   18.7904 H   0  0  0  0  0  0  0  0  0  0  0  0
  -27.4028  -12.7801   17.8021 H   0  0  0  0  0  0  0  0  0  0  0  0
  -27.7353  -14.2503   19.6136 H   0  0  0  0  0  0  0  0  0  0  0  0
  -28.5890  -11.9550   21.3832 H   0  0  0  0  0  0  0  0  0  0  0  0
  -28.5005  -13.6134   21.8562 H   0  0  0  0  0  0  0  0  0  0  0  0
  -25.2399   -9.5495   22.4318 H   0  0  0  0  0  0  0  0  0  0  0  0
  -23.9663   -7.5070   22.7297 H   0  0  0  0  0  0  0  0  0  0  0  0
  -21.1515   -8.8641   19.9162 H   0  0  0  0  0  0  0  0  0  0  0  0
  -22.4016  -10.9115   19.6476 H   0  0  0  0  0  0  0  0  0  0  0  0
  -21.2319   -7.5552   23.9750 H   0  0  0  0  0  0  0  0  0  0  0  0
  -21.1589   -6.0228   25.8556 H   0  0  0  0  0  0  0  0  0  0  0  0
  -22.0396   -2.8212   23.2809 H   0  0  0  0  0  0  0  0  0  0  0  0
  -22.4401  -11.9703   22.4008 H   0  0  0  0  0  0  0  0  0  0  0  0
  -21.1493  -13.0679   22.2082 H   0  0  0  0  0  0  0  0  0  0  0  0
  -24.6538  -15.7807   20.5848 H   0  0  0  0  0  0  0  0  0  0  0  0
  -26.2762  -15.5453   20.1156 H   0  0  0  0  0  0  0  0  0  0  0  0
  -26.6778  -32.4663   23.1464 H   0  0  0  0  0  0  0  0  0  0  0  0
  -25.0747  -34.0282   25.0566 H   0  0  0  0  0  0  0  0  0  0  0  0
  -22.7881  -31.3489   21.4131 H   0  0  0  0  0  0  0  0  0  0  0  0
  -23.3854  -35.9823   23.3648 H   0  0  0  0  0  0  0  0  0  0  0  0
  -24.3696  -36.8624   22.2204 H   0  0  0  0  0  0  0  0  0  0  0  0
  -23.7669  -37.6632   23.6516 H   0  0  0  0  0  0  0  0  0  0  0  0
  -25.9445  -31.6237   20.5691 H   0  0  0  0  0  0  0  0  0  0  0  0
  -26.7436  -31.0079   22.0108 H   0  0  0  0  0  0  0  0  0  0  0  0
  -28.0090  -29.1452   21.2057 H   0  0  0  0  0  0  0  0  0  0  0  0
  -26.1369  -26.0560   19.0719 H   0  0  0  0  0  0  0  0  0  0  0  0
  -24.0652  -27.2961   19.0997 H   0  0  0  0  0  0  0  0  0  0  0  0
  -23.6156  -30.5365   19.3930 H   0  0  0  0  0  0  0  0  0  0  0  0
  -22.7355  -29.1425   19.9945 H   0  0  0  0  0  0  0  0  0  0  0  0
  -25.1353  -36.2335   25.0565 H   0  0  0  0  0  0  0  0  0  0  0  0
  -21.0070  -28.3206   24.0793 H   0  0  0  0  0  0  0  0  0  0  0  0
  -20.5555  -26.2518   23.3550 H   0  0  0  0  0  0  0  0  0  0  0  0
  -21.5974  -26.8362   22.0454 H   0  0  0  0  0  0  0  0  0  0  0  0
  -19.6810  -25.6422   21.1488 H   0  0  0  0  0  0  0  0  0  0  0  0
  -19.6406  -27.3343   20.7034 H   0  0  0  0  0  0  0  0  0  0  0  0
  -17.4282  -26.6888   21.4113 H   0  0  0  0  0  0  0  0  0  0  0  0
  -18.0803  -26.0130   22.9049 H   0  0  0  0  0  0  0  0  0  0  0  0
  -19.7265  -30.6774   24.2204 H   0  0  0  0  0  0  0  0  0  0  0  0
  -17.5064  -31.5856   24.4483 H   0  0  0  0  0  0  0  0  0  0  0  0
  -15.5878  -30.2839   23.7407 H   0  0  0  0  0  0  0  0  0  0  0  0
  -15.9120  -28.0941   22.7766 H   0  0  0  0  0  0  0  0  0  0  0  0
  -24.5787  -30.7757   25.6817 H   0  0  0  0  0  0  0  0  0  0  0  0
  -25.0041  -32.2289   26.5536 H   0  0  0  0  0  0  0  0  0  0  0  0
  -25.8166  -30.7245   26.9138 H   0  0  0  0  0  0  0  0  0  0  0  0
  -26.2892  -29.7335   24.0803 H   0  0  0  0  0  0  0  0  0  0  0  0
  -27.4336  -29.7484   25.4006 H   0  0  0  0  0  0  0  0  0  0  0  0
  -27.8466  -30.4994   23.8779 H   0  0  0  0  0  0  0  0  0  0  0  0
  -27.2251  -33.3632   26.1242 H   0  0  0  0  0  0  0  0  0  0  0  0
  -28.3902  -32.6065   25.0645 H   0  0  0  0  0  0  0  0  0  0  0  0
  -27.9772  -31.8555   26.5872 H   0  0  0  0  0  0  0  0  0  0  0  0
  -28.2744  -38.0016   24.6863 H   0  0  0  0  0  0  0  0  0  0  0  0
  -28.0396  -36.2711   24.7461 H   0  0  0  0  0  0  0  0  0  0  0  0
  -27.1773  -37.3087   25.8564 H   0  0  0  0  0  0  0  0  0  0  0  0
  -20.9627  -29.9365   21.7352 H   0  0  0  0  0  0  0  0  0  0  0  0
  -26.0447  -38.2561   24.0273 H   0  0  0  0  0  0  0  0  0  0  0  0
  -31.9829  -19.5237   19.9565 H   0  0  0  0  0  0  0  0  0  0  0  0
  -31.6885  -17.1149   19.9453 H   0  0  0  0  0  0  0  0  0  0  0  0
  -30.7120  -20.8943   21.5045 H   0  0  0  0  0  0  0  0  0  0  0  0
  -30.0829  -21.7614   23.5813 H   0  0  0  0  0  0  0  0  0  0  0  0
  -28.8099  -21.9231   22.3959 H   0  0  0  0  0  0  0  0  0  0  0  0
  -29.8378  -23.7572   23.5965 H   0  0  0  0  0  0  0  0  0  0  0  0
  -28.9622  -25.2420   24.4846 H   0  0  0  0  0  0  0  0  0  0  0  0
  -29.3775  -15.4107   22.1077 H   0  0  0  0  0  0  0  0  0  0  0  0
  -28.3343  -19.6109   23.8777 H   0  0  0  0  0  0  0  0  0  0  0  0
  1 25  1  0
  1 30  2  0
  1 81  1  0
  2  3  1  0
  2 25  1  0
  2 86  1  0
  2 87  1  0
  3  4  1  0
  3 88  1  0
  3 89  1  0
  4  5  1  0
  4 90  1  0
  4 91  1  0
  5  6  1  0
  5 26  1  0
  5 92  1  6
  6 25  1  0
  6 93  1  0
  6 94  1  0
  7  8  2  0
  7 26  1  0
  7 29  1  0
  8  9  1  0
  8 22  1  0
  9 10  1  0
  9 27  2  0
 10 11  2  0
 10 15  1  0
 11 12  1  0
 11 95  1  0
 12 13  2  0
 12 96  1  0
 13 14  1  0
 13 31  1  0
 14 15  2  0
 14 97  1  0
 15 98  1  0
 16 17  2  0
 16 21  1  0
 16 31  1  0
 17 18  1  0
 17 99  1  0
 18 19  2  0
 18100  1  0
 19 20  1  0
 19 24  1  0
 20 21  2  0
 20101  1  0
 21 23  1  0
 22 28  1  0
 22 32  2  0
 26 27  1  0
 28102  1  0
 28103  1  0
 29104  1  0
 29105  1  0
 33 34  1  0
 33 66  1  0
 33 70  2  0
 34 36  1  0
 34 59  1  0
 34106  1  6
 35 44  2  0
 35 45  1  0
 35 68  1  0
 36 56  1  0
 36107  1  0
 37 39  1  0
 37 47  1  0
 37 66  1  0
 37108  1  6
 38 43  2  0
 38 46  1  0
 38 47  1  0
 39 64  1  0
 39 67  2  0
 40 52  1  0
 40 53  2  0
 40 58  1  0
 41109  1  0
 41110  1  0
 41111  1  0
 42 43  1  0
 42 66  1  0
 42112  1  0
 42113  1  0
 43 44  1  0
 44114  1  0
 45 46  2  0
 45115  1  0
 46116  1  0
 47117  1  0
 47118  1  0
 48 41  1  0
 48 56  1  0
 48 65  1  0
 48119  1  1
 49 50  1  0
 49 53  1  0
 49 64  1  0
 49120  1  1
 50 51  1  0
 50121  1  0
 50122  1  0
 51 52  1  0
 51123  1  0
 51124  1  0
 52125  1  0
 52126  1  0
 53 54  1  0
 54 55  2  0
 54127  1  0
 55 57  1  0
 55128  1  0
 56 69  2  0
 57 58  2  0
 57129  1  0
 58130  1  0
 59 60  1  0
 59 61  1  0
 59 62  1  0
 60131  1  0
 60132  1  0
 60133  1  0
 61134  1  0
 61135  1  0
 61136  1  0
 62137  1  0
 62138  1  0
 62139  1  0
 63 65  1  0
 63140  1  0
 63141  1  0
 63142  1  0
 64143  1  0
 65144  1  0
 68 80  1  0
 71 72  2  0
 71 73  1  0
 71145  1  0
 72 74  1  0
 72146  1  0
 73 75  2  0
 73147  1  0
 74 76  2  0
 74 81  1  0
 75 76  1  0
 75 82  1  0
 76 85  1  0
 77 78  1  0
 77 79  1  0
 77 83  2  0
 78 80  1  0
 78 84  2  0
 79 82  1  0
 79148  1  0
 79149  1  0
 80150  1  0
 80151  1  0
 81152  1  0
 82153  1  0
M  ISO  4   1 100  68 101  80 101  81 100
M  END
$$$$
