0
                    3D
 Structure written by MMmdl.
162171  0  0  1  0            999 V2000
  -30.6048  -14.7923   20.5637 C   0  0  0  0  0  0
  -30.4455  -12.5147   19.4905 C   0  0  0  0  0  0
  -29.5179  -12.5454   18.2512 C   0  0  0  0  0  0
  -28.0471  -12.3394   18.6522 C   0  0  0  0  0  0
  -27.6436  -13.2263   19.8585 C   0  0  2  0  0  0
  -28.6762  -13.1210   20.9961 C   0  0  0  0  0  0
  -25.2477  -13.8153   20.5548 C   0  0  0  0  0  0
  -24.1804  -13.0423   20.9183 C   0  0  0  0  0  0
  -24.6372  -11.6893   20.8754 C   0  0  0  0  0  0
  -23.9058  -10.4277   21.0429 C   0  0  0  0  0  0
  -24.3612   -9.4192   21.9198 C   0  0  0  0  0  0
  -23.6294   -8.2228   22.0762 C   0  0  0  0  0  0
  -22.4270   -8.0260   21.3559 C   0  0  0  0  0  0
  -21.9895   -9.0239   20.4667 C   0  0  0  0  0  0
  -22.7220  -10.2120   20.3082 C   0  0  0  0  0  0
  -21.6842   -6.0730   22.5281 C   0  0  0  0  0  0
  -21.3995   -6.5634   23.8221 C   0  0  0  0  0  0
  -21.3647   -5.6792   24.9186 C   0  0  0  0  0  0
  -21.6042   -4.3064   24.7236 C   0  0  0  0  0  0
  -21.8829   -3.8141   23.4364 C   0  0  0  0  0  0
  -21.9198   -4.6955   22.3404 C   0  0  0  0  0  0
  -22.7826  -13.5204   21.1894 C   0  0  0  0  0  0
  -22.1673   -4.2137   21.0973 F   0  0  0  0  0  0
  -21.5629   -3.4557   25.7730 F   0  0  0  0  0  0
  -29.9848  -13.5461   20.4649 N   0  0  0  0  0  0
  -26.2912  -12.9347   20.3229 N   0  0  0  0  0  0
  -25.9308  -11.6514   20.5758 N   0  0  0  0  0  0
  -22.0484  -12.8194   22.0449 N   0  0  0  0  0  0
  -25.4146  -15.1841   20.3687 N   0  0  0  0  0  0
  -31.7190  -14.9254   20.0442 O   0  0  0  0  0  0
  -21.6628   -6.8860   21.4225 O   0  0  0  0  0  0
  -22.3528  -14.5528   20.6739 O   0  0  0  0  0  0
  -24.6348  -31.8550   23.2035 C   0  0  0  0  0  0
  -25.9169  -32.4752   23.8367 C   0  0  1  0  0  0
  -27.2125  -27.2492   20.1379 C   0  0  0  0  0  0
  -25.5989  -33.8561   24.2299 N   0  0  0  0  0  0
  -23.4295  -30.4863   21.5463 C   0  0  2  0  0  0
  -24.8765  -28.9410   20.1037 C   0  0  0  0  0  0
  -22.7516  -29.4614   22.4891 C   0  0  0  0  0  0
  -18.0317  -28.1369   22.8467 C   0  0  0  0  0  0
  -24.1516  -36.7304   23.2636 C   0  0  0  0  0  0
  -25.9796  -30.7665   21.3870 C   0  0  0  0  0  0
  -26.0486  -29.3917   20.7251 C   0  0  0  0  0  0
  -27.2180  -28.5587   20.7322 C   0  0  0  0  0  0
  -26.0191  -26.8907   19.4606 C   0  0  0  0  0  0
  -24.8702  -27.6996   19.4558 C   0  0  0  0  0  0
  -23.6494  -29.8325   20.1570 C   0  0  0  0  0  0
  -25.4135  -36.3068   24.0326 C   0  0  1  0  0  0
  -20.5917  -28.3703   23.1252 C   0  0  2  0  0  0
  -20.6820  -26.9427   22.5392 C   0  0  0  0  0  0
  -19.5785  -26.6376   21.5201 C   0  0  0  0  0  0
  -18.1966  -26.7911   22.1603 C   0  0  0  0  0  0
  -19.1564  -28.8853   23.2856 C   0  0  0  0  0  0
  -18.9466  -30.1452   23.8882 C   0  0  0  0  0  0
  -17.6463  -30.6573   24.0558 C   0  0  0  0  0  0
  -25.9061  -34.9437   23.5105 C   0  0  0  0  0  0
  -16.5366  -29.9058   23.6327 C   0  0  0  0  0  0
  -16.7299  -28.6475   23.0345 C   0  0  0  0  0  0
  -26.4560  -31.6540   25.0735 C   0  0  0  0  0  0
  -25.3804  -31.3643   26.1462 C   0  0  0  0  0  0
  -27.0421  -30.2966   24.6198 C   0  0  0  0  0  0
  -27.6108  -32.4293   25.7518 C   0  0  0  0  0  0
  -27.5602  -37.1817   24.8460 C   0  0  0  0  0  0
  -21.4222  -29.3051   22.3634 N   0  0  0  0  0  0
  -26.4322  -37.3764   23.9391 N   0  0  0  0  0  0
  -24.7009  -31.0521   22.1008 N   0  0  0  0  0  0
  -23.4217  -28.8154   23.2990 O   0  0  0  0  0  0
  -28.2770  -26.3069   20.2388 O   0  0  0  0  0  0
  -26.5596  -34.8902   22.4649 O   0  0  0  0  0  0
  -23.5502  -32.1400   23.7318 O   0  0  0  0  0  0
  -28.5740  -18.1593   18.4870 C   0  0  0  0  0  0
  -28.6572  -19.4635   18.9997 C   0  0  0  0  0  0
  -29.0556  -17.0529   19.2088 C   0  0  0  0  0  0
  -29.2799  -19.7464   20.2322 C   0  0  0  0  0  0
  -29.6643  -17.1891   20.4774 C   0  0  0  0  0  0
  -29.8212  -18.5823   20.9427 C   0  0  0  0  0  0
  -30.0758  -23.4033   20.7022 C   0  0  0  0  0  0
  -28.7745  -23.5746   20.4302 C   0  0  0  0  0  0
  -30.4151  -21.9611   20.7894 C   0  0  0  0  0  0
  -27.8990  -16.1707   24.1091 C   0  0  0  0  0  0
  -28.6723  -16.6107   23.0977 C   0  0  0  0  0  0
  -29.7235  -15.7605   22.5354 C   0  0  0  0  0  0
  -28.1627  -22.1621   20.4150 C   0  0  0  0  0  0
  -31.1292  -24.4888   20.7930 C   0  0  0  0  0  0
  -27.8930  -24.8565   20.0689 C   0  0  0  0  0  0
  -29.3003  -21.1957   20.6194 N   0  0  0  0  0  0
  -29.9988  -15.8989   21.1971 N   0  0  0  0  0  0
  -31.5448  -21.4986   20.9605 O   0  0  0  0  0  0
  -30.3296  -14.9494   23.2488 O   0  0  0  0  0  0
  -30.4298  -18.8032   22.1297 F   0  0  0  0  0  0
  -31.4788  -12.6771   19.1779 H   0  0  0  0  0  0
  -30.4365  -11.5278   19.9620 H   0  0  0  0  0  0
  -29.8198  -11.7730   17.5444 H   0  0  0  0  0  0
  -29.6232  -13.4984   17.7321 H   0  0  0  0  0  0
  -27.9135  -11.2870   18.9091 H   0  0  0  0  0  0
  -27.3879  -12.5275   17.8040 H   0  0  0  0  0  0
  -27.6475  -14.2543   19.5007 H   0  0  0  0  0  0
  -28.7334  -12.0915   21.3547 H   0  0  0  0  0  0
  -28.3326  -13.6919   21.8520 H   0  0  0  0  0  0
  -25.2739   -9.5664   22.4781 H   0  0  0  0  0  0
  -23.9989   -7.4611   22.7466 H   0  0  0  0  0  0
  -21.0823   -8.8767   19.8964 H   0  0  0  0  0  0
  -22.3671  -10.9679   19.6200 H   0  0  0  0  0  0
  -21.1977   -7.6144   23.9700 H   0  0  0  0  0  0
  -21.1456   -6.0529   25.9070 H   0  0  0  0  0  0
  -22.0618   -2.7601   23.2862 H   0  0  0  0  0  0
  -22.4098  -11.9828   22.4783 H   0  0  0  0  0  0
  -21.1106  -13.1267   22.2702 H   0  0  0  0  0  0
  -24.6063  -15.7954   20.3484 H   0  0  0  0  0  0
  -26.2081  -15.5665   19.8720 H   0  0  0  0  0  0
  -26.7234  -32.5400   23.1099 H   0  0  0  0  0  0
  -25.0247  -33.9707   25.0522 H   0  0  0  0  0  0
  -22.7247  -31.3093   21.4059 H   0  0  0  0  0  0
  -23.3771  -35.9651   23.3287 H   0  0  0  0  0  0
  -24.3614  -36.8940   22.2056 H   0  0  0  0  0  0
  -23.7294  -37.6514   23.6668 H   0  0  0  0  0  0
  -26.1258  -31.5307   20.6225 H   0  0  0  0  0  0
  -26.8527  -30.8073   22.0251 H   0  0  0  0  0  0
  -28.1070  -28.8941   21.2497 H   0  0  0  0  0  0
  -25.9225  -25.9560   18.9329 H   0  0  0  0  0  0
  -23.9793  -27.3597   18.9466 H   0  0  0  0  0  0
  -23.7804  -30.6181   19.4117 H   0  0  0  0  0  0
  -22.7658  -29.2766   19.8409 H   0  0  0  0  0  0
  -25.1322  -36.1933   25.0828 H   0  0  0  0  0  0
  -21.0015  -28.3297   24.1371 H   0  0  0  0  0  0
  -20.5738  -26.2322   23.3597 H   0  0  0  0  0  0
  -21.6685  -26.7465   22.1173 H   0  0  0  0  0  0
  -19.6962  -25.6282   21.1240 H   0  0  0  0  0  0
  -19.6723  -27.3186   20.6723 H   0  0  0  0  0  0
  -17.4248  -26.6672   21.3998 H   0  0  0  0  0  0
  -18.0359  -26.0048   22.8986 H   0  0  0  0  0  0
  -19.7947  -30.7272   24.2246 H   0  0  0  0  0  0
  -17.5014  -31.6244   24.5166 H   0  0  0  0  0  0
  -15.5363  -30.2941   23.7646 H   0  0  0  0  0  0
  -15.8700  -28.0777   22.7056 H   0  0  0  0  0  0
  -24.5948  -30.7049   25.7761 H   0  0  0  0  0  0
  -24.9055  -32.2793   26.5006 H   0  0  0  0  0  0
  -25.8147  -30.8710   27.0160 H   0  0  0  0  0  0
  -26.2995  -29.6680   24.1274 H   0  0  0  0  0  0
  -27.4178  -29.7262   25.4696 H   0  0  0  0  0  0
  -27.8849  -30.4261   23.9407 H   0  0  0  0  0  0
  -27.2690  -33.3556   26.2154 H   0  0  0  0  0  0
  -28.3893  -32.6909   25.0335 H   0  0  0  0  0  0
  -28.0815  -31.8385   26.5387 H   0  0  0  0  0  0
  -28.2596  -38.0127   24.7498 H   0  0  0  0  0  0
  -28.1114  -36.2659   24.6296 H   0  0  0  0  0  0
  -27.2309  -37.1479   25.8854 H   0  0  0  0  0  0
  -20.9414  -29.8789   21.6843 H   0  0  0  0  0  0
  -26.0199  -38.2853   24.1337 H   0  0  0  0  0  0
  -28.1261  -18.0051   17.5148 H   0  0  0  0  0  0
  -28.2693  -20.2648   18.3882 H   0  0  0  0  0  0
  -28.9180  -16.0772   18.7741 H   0  0  0  0  0  0
  -27.1543  -16.8199   24.5507 H   0  0  0  0  0  0
  -27.9848  -15.1663   24.5075 H   0  0  0  0  0  0
  -28.4924  -17.6121   22.7576 H   0  0  0  0  0  0
  -27.6142  -22.0046   19.4874 H   0  0  0  0  0  0
  -27.4539  -22.0709   21.2409 H   0  0  0  0  0  0
  -31.9266  -24.1991   21.4797 H   0  0  0  0  0  0
  -30.7032  -25.4240   21.1567 H   0  0  0  0  0  0
  -31.5757  -24.6743   19.8158 H   0  0  0  0  0  0
  -26.9608  -24.7019   20.6135 H   0  0  0  0  0  0
  -27.6585  -24.7121   19.0148 H   0  0  0  0  0  0
  1 25  1  0  0  0
  1 30  2  0  0  0
  1 87  1  0  0  0
  2  3  1  0  0  0
  2 25  1  0  0  0
  2 91  1  0  0  0
  2 92  1  0  0  0
  3  4  1  0  0  0
  3 93  1  0  0  0
  3 94  1  0  0  0
  4  5  1  0  0  0
  4 95  1  0  0  0
  4 96  1  0  0  0
  5  6  1  0  0  0
  5 26  1  0  0  0
  5 97  1  0  0  0
  6 25  1  0  0  0
  6 98  1  0  0  0
  6 99  1  0  0  0
  7  8  2  0  0  0
  7 26  1  0  0  0
  7 29  1  0  0  0
  8  9  1  0  0  0
  8 22  1  0  0  0
  9 10  1  0  0  0
  9 27  2  0  0  0
 10 11  2  0  0  0
 10 15  1  0  0  0
 11 12  1  0  0  0
 11100  1  0  0  0
 12 13  2  0  0  0
 12101  1  0  0  0
 13 14  1  0  0  0
 13 31  1  0  0  0
 14 15  2  0  0  0
 14102  1  0  0  0
 15103  1  0  0  0
 16 17  2  0  0  0
 16 21  1  0  0  0
 16 31  1  0  0  0
 17 18  1  0  0  0
 17104  1  0  0  0
 18 19  2  0  0  0
 18105  1  0  0  0
 19 20  1  0  0  0
 19 24  1  0  0  0
 20 21  2  0  0  0
 20106  1  0  0  0
 21 23  1  0  0  0
 22 28  1  0  0  0
 22 32  2  0  0  0
 26 27  1  0  0  0
 28107  1  0  0  0
 28108  1  0  0  0
 29109  1  0  0  0
 29110  1  0  0  0
 33 34  1  0  0  0
 33 66  1  0  0  0
 33 70  2  0  0  0
 34 36  1  0  0  0
 34 59  1  0  0  0
 34111  1  0  0  0
 35 44  2  0  0  0
 35 45  1  0  0  0
 35 68  1  0  0  0
 36 56  1  0  0  0
 36112  1  0  0  0
 37 39  1  0  0  0
 37 47  1  0  0  0
 37 66  1  0  0  0
 37113  1  0  0  0
 38 43  2  0  0  0
 38 46  1  0  0  0
 38 47  1  0  0  0
 39 64  1  0  0  0
 39 67  2  0  0  0
 40 52  1  0  0  0
 40 53  2  0  0  0
 40 58  1  0  0  0
 41114  1  0  0  0
 41115  1  0  0  0
 41116  1  0  0  0
 41 48  1  0  0  0
 42 43  1  0  0  0
 42 66  1  0  0  0
 42117  1  0  0  0
 42118  1  0  0  0
 43 44  1  0  0  0
 44119  1  0  0  0
 45 46  2  0  0  0
 45120  1  0  0  0
 46121  1  0  0  0
 47122  1  0  0  0
 47123  1  0  0  0
 48 56  1  0  0  0
 48 65  1  0  0  0
 48124  1  0  0  0
 49 50  1  0  0  0
 49 53  1  0  0  0
 49 64  1  0  0  0
 49125  1  0  0  0
 50 51  1  0  0  0
 50126  1  0  0  0
 50127  1  0  0  0
 51 52  1  0  0  0
 51128  1  0  0  0
 51129  1  0  0  0
 52130  1  0  0  0
 52131  1  0  0  0
 53 54  1  0  0  0
 54 55  2  0  0  0
 54132  1  0  0  0
 55 57  1  0  0  0
 55133  1  0  0  0
 56 69  2  0  0  0
 57 58  2  0  0  0
 57134  1  0  0  0
 58135  1  0  0  0
 59 60  1  0  0  0
 59 61  1  0  0  0
 59 62  1  0  0  0
 60136  1  0  0  0
 60137  1  0  0  0
 60138  1  0  0  0
 61139  1  0  0  0
 61140  1  0  0  0
 61141  1  0  0  0
 62142  1  0  0  0
 62143  1  0  0  0
 62144  1  0  0  0
 63 65  1  0  0  0
 63145  1  0  0  0
 63146  1  0  0  0
 63147  1  0  0  0
 64148  1  0  0  0
 65149  1  0  0  0
 68 85  1  0  0  0
 71 72  2  0  0  0
 71 73  1  0  0  0
 71150  1  0  0  0
 72 74  1  0  0  0
 72151  1  0  0  0
 73 75  2  0  0  0
 73152  1  0  0  0
 74 76  2  0  0  0
 74 86  1  0  0  0
 75 76  1  0  0  0
 75 87  1  0  0  0
 76 90  1  0  0  0
 77 78  2  0  0  0
 77 79  1  0  0  0
 77 84  1  0  0  0
 78 83  1  0  0  0
 78 85  1  0  0  0
 79 86  1  0  0  0
 79 88  2  0  0  0
 80 81  2  0  0  0
 80153  1  0  0  0
 80154  1  0  0  0
 81 82  1  0  0  0
 81155  1  0  0  0
 82 87  1  0  0  0
 82 89  2  0  0  0
 83 86  1  0  0  0
 83156  1  0  0  0
 83157  1  0  0  0
 84158  1  0  0  0
 84159  1  0  0  0
 84160  1  0  0  0
 85161  1  0  0  0
 85162  1  0  0  0
M  ISO  4   1 100  68 101  85 101  87 100
M  END
> <chiral flag>
0

> <version>
0

> <s_m_source_file>
/data/baiqing/PycharmProjects/Reinvent-master-3.2/result/LINK_invent/BTK/process_docking_weight1_custom_product_contain_oxygen_bond_distance_aromatic_linkinvent_7_9_3/rearranged_h_0076.sdf

> <i_m_source_file_index>
1

> <r_mmod_Potential_Energy-OPLS-2005>
442.805999755859

> <r_mmod_Stretch_Energy-OPLS-2005>
154.906265258789

> <r_mmod_Bend_Energy-OPLS-2005>
240.745590209961

> <r_mmod_Torsional_Energy-OPLS-2005>
353.305328369141

> <r_mmod_Improper_Torsional_Energy-OPLS-2005>
5.17685222625732

> <r_mmod_Van_der_Waal_Energy-OPLS-2005>
163.017974853516

> <r_mmod_Electrostatic_Energy-OPLS-2005>
-361.025360107422

> <r_mmod_Solvation_Energy-OPLS-2005>
-215.428314208984

> <b_mmod_Minimization_Converged-OPLS-2005>
0

> <r_mmod_RMS_Derivative-OPLS-2005>
7.24805355072021

$$$$
1
                    3D
 Structure written by MMmdl.
158167  0  0  1  0            999 V2000
  -30.5902  -14.7802   20.4725 C   0  0  0  0  0  0
  -30.4395  -12.4836   19.4735 C   0  0  0  0  0  0
  -29.5128  -12.5114   18.2383 C   0  0  0  0  0  0
  -28.0398  -12.3225   18.6546 C   0  0  0  0  0  0
  -27.6380  -13.2299   19.8468 C   0  0  2  0  0  0
  -28.6825  -13.1782   20.9824 C   0  0  0  0  0  0
  -25.2511  -13.8194   20.5730 C   0  0  0  0  0  0
  -24.1798  -13.0433   20.9229 C   0  0  0  0  0  0
  -24.6383  -11.6908   20.8746 C   0  0  0  0  0  0
  -23.9068  -10.4280   21.0405 C   0  0  0  0  0  0
  -24.3625   -9.4198   21.9189 C   0  0  0  0  0  0
  -23.6289   -8.2234   22.0751 C   0  0  0  0  0  0
  -22.4265   -8.0283   21.3544 C   0  0  0  0  0  0
  -21.9905   -9.0250   20.4641 C   0  0  0  0  0  0
  -22.7238  -10.2126   20.3053 C   0  0  0  0  0  0
  -21.6846   -6.0744   22.5284 C   0  0  0  0  0  0
  -21.4005   -6.5641   23.8221 C   0  0  0  0  0  0
  -21.3660   -5.6787   24.9177 C   0  0  0  0  0  0
  -21.6040   -4.3046   24.7221 C   0  0  0  0  0  0
  -21.8821   -3.8150   23.4338 C   0  0  0  0  0  0
  -21.9178   -4.6969   22.3400 C   0  0  0  0  0  0
  -22.7815  -13.5215   21.1871 C   0  0  0  0  0  0
  -22.1650   -4.2162   21.0971 F   0  0  0  0  0  0
  -21.5629   -3.4524   25.7729 F   0  0  0  0  0  0
  -29.9772  -13.5472   20.3953 N   0  0  0  0  0  0
  -26.2920  -12.9389   20.3270 N   0  0  0  0  0  0
  -25.9300  -11.6533   20.5731 N   0  0  0  0  0  0
  -22.0454  -12.8204   22.0429 N   0  0  0  0  0  0
  -25.4190  -15.1933   20.4221 N   0  0  0  0  0  0
  -31.7842  -14.8765   20.1707 O   0  0  0  0  0  0
  -21.6624   -6.8888   21.4249 O   0  0  0  0  0  0
  -22.3504  -14.5520   20.6702 O   0  0  0  0  0  0
  -24.6312  -31.8557   23.1988 C   0  0  0  0  0  0
  -25.9134  -32.4754   23.8335 C   0  0  1  0  0  0
  -27.2147  -27.2482   20.1426 C   0  0  0  0  0  0
  -25.5934  -33.8561   24.2256 N   0  0  0  0  0  0
  -23.4289  -30.4766   21.5425 C   0  0  2  0  0  0
  -24.8765  -28.9178   20.1182 C   0  0  0  0  0  0
  -22.7496  -29.4604   22.4918 C   0  0  0  0  0  0
  -18.0314  -28.1378   22.8484 C   0  0  0  0  0  0
  -24.1491  -36.7280   23.2637 C   0  0  0  0  0  0
  -25.9756  -30.7624   21.3828 C   0  0  0  0  0  0
  -26.0480  -29.3814   20.7317 C   0  0  0  0  0  0
  -27.2231  -28.5585   20.7329 C   0  0  0  0  0  0
  -26.0279  -26.8609   19.4926 C   0  0  0  0  0  0
  -24.8718  -27.6639   19.4868 C   0  0  0  0  0  0
  -23.6488  -29.8081   20.1602 C   0  0  0  0  0  0
  -25.4123  -36.3075   24.0324 C   0  0  1  0  0  0
  -20.5904  -28.3705   23.1268 C   0  0  2  0  0  0
  -20.6793  -26.9425   22.5409 C   0  0  0  0  0  0
  -19.5766  -26.6374   21.5212 C   0  0  0  0  0  0
  -18.1945  -26.7919   22.1628 C   0  0  0  0  0  0
  -19.1561  -28.8855   23.2875 C   0  0  0  0  0  0
  -18.9477  -30.1453   23.8894 C   0  0  0  0  0  0
  -17.6472  -30.6569   24.0568 C   0  0  0  0  0  0
  -25.9061  -34.9442   23.5092 C   0  0  0  0  0  0
  -16.5365  -29.9076   23.6323 C   0  0  0  0  0  0
  -16.7302  -28.6493   23.0354 C   0  0  0  0  0  0
  -26.4506  -31.6574   25.0719 C   0  0  0  0  0  0
  -25.3720  -31.3731   26.1427 C   0  0  0  0  0  0
  -27.0351  -30.2986   24.6213 C   0  0  0  0  0  0
  -27.6057  -32.4326   25.7491 C   0  0  0  0  0  0
  -27.5587  -37.1798   24.8465 C   0  0  0  0  0  0
  -21.4202  -29.3059   22.3657 N   0  0  0  0  0  0
  -26.4291  -37.3778   23.9406 N   0  0  0  0  0  0
  -24.6977  -31.0493   22.0982 N   0  0  0  0  0  0
  -23.4187  -28.8138   23.3023 O   0  0  0  0  0  0
  -28.3008  -26.3439   20.1115 O   0  0  0  0  0  0
  -26.5630  -34.8913   22.4659 O   0  0  0  0  0  0
  -23.5460  -32.1410   23.7255 O   0  0  0  0  0  0
  -30.6761  -20.0901   21.5724 C   0  0  0  0  0  0
  -31.4535  -19.0136   22.0468 C   0  0  0  0  0  0
  -29.2990  -18.4900   20.3913 C   0  0  0  0  0  0
  -29.5520  -19.9014   20.7353 C   0  0  0  0  0  0
  -30.0907  -17.3501   20.8627 C   0  0  0  0  0  0
  -31.1679  -17.6747   21.7199 C   0  0  0  0  0  0
  -28.9430  -22.4882   20.7239 C   0  0  0  0  0  0
  -28.2078  -23.5918   20.3016 C   0  0  0  0  0  0
  -26.6606  -21.8859   19.2260 C   0  0  0  0  0  0
  -25.3666  -21.5412   19.1083 C   0  0  0  0  0  0
  -27.0843  -23.3529   19.3038 C   0  0  0  0  0  0
  -27.7552  -20.8222   19.3204 C   0  0  0  0  0  0
  -28.2499  -25.0765   20.9253 C   0  0  0  0  0  0
  -28.7919  -21.0964   20.3214 N   0  0  0  0  0  0
  -29.7800  -15.9089   20.6033 N   0  0  0  0  0  0
  -31.9192  -16.7041   22.2913 F   0  0  0  0  0  0
  -31.4758  -12.6274   19.1649 H   0  0  0  0  0  0
  -30.4050  -11.5120   19.9692 H   0  0  0  0  0  0
  -29.8059  -11.7354   17.5307 H   0  0  0  0  0  0
  -29.6258  -13.4634   17.7173 H   0  0  0  0  0  0
  -27.9097  -11.2744   18.9273 H   0  0  0  0  0  0
  -27.3783  -12.4979   17.8057 H   0  0  0  0  0  0
  -27.6250  -14.2460   19.4528 H   0  0  0  0  0  0
  -28.7307  -12.1818   21.4222 H   0  0  0  0  0  0
  -28.4090  -13.8587   21.7903 H   0  0  0  0  0  0
  -25.2767   -9.5663   22.4769 H   0  0  0  0  0  0
  -23.9995   -7.4615   22.7464 H   0  0  0  0  0  0
  -21.0840   -8.8763   19.8946 H   0  0  0  0  0  0
  -22.3694  -10.9669   19.6163 H   0  0  0  0  0  0
  -21.2001   -7.6150   23.9731 H   0  0  0  0  0  0
  -21.1490   -6.0514   25.9085 H   0  0  0  0  0  0
  -22.0600   -2.7615   23.2830 H   0  0  0  0  0  0
  -22.4041  -11.9864   22.4836 H   0  0  0  0  0  0
  -21.1082  -13.1261   22.2642 H   0  0  0  0  0  0
  -24.6480  -15.8395   20.5498 H   0  0  0  0  0  0
  -26.2619  -15.6452   20.0936 H   0  0  0  0  0  0
  -26.7197  -32.5414   23.1073 H   0  0  0  0  0  0
  -25.0084  -33.9712   25.0404 H   0  0  0  0  0  0
  -22.7255  -31.2992   21.3947 H   0  0  0  0  0  0
  -23.3763  -35.9604   23.3296 H   0  0  0  0  0  0
  -24.3574  -36.8908   22.2052 H   0  0  0  0  0  0
  -23.7235  -37.6475   23.6664 H   0  0  0  0  0  0
  -26.1144  -31.5195   20.6096 H   0  0  0  0  0  0
  -26.8536  -30.8149   22.0149 H   0  0  0  0  0  0
  -28.1236  -28.9116   21.2154 H   0  0  0  0  0  0
  -25.9887  -25.9192   18.9722 H   0  0  0  0  0  0
  -23.9801  -27.3040   18.9925 H   0  0  0  0  0  0
  -23.7770  -30.5844   19.4053 H   0  0  0  0  0  0
  -22.7668  -29.2426   19.8550 H   0  0  0  0  0  0
  -25.1304  -36.1930   25.0818 H   0  0  0  0  0  0
  -20.9998  -28.3303   24.1389 H   0  0  0  0  0  0
  -20.5723  -26.2302   23.3602 H   0  0  0  0  0  0
  -21.6658  -26.7469   22.1184 H   0  0  0  0  0  0
  -19.6925  -25.6273   21.1259 H   0  0  0  0  0  0
  -19.6694  -27.3177   20.6732 H   0  0  0  0  0  0
  -17.4224  -26.6667   21.4029 H   0  0  0  0  0  0
  -18.0355  -26.0063   22.9033 H   0  0  0  0  0  0
  -19.7949  -30.7277   24.2266 H   0  0  0  0  0  0
  -17.5033  -31.6242   24.5169 H   0  0  0  0  0  0
  -15.5361  -30.2972   23.7638 H   0  0  0  0  0  0
  -15.8718  -28.0798   22.7057 H   0  0  0  0  0  0
  -24.5900  -30.7075   25.7752 H   0  0  0  0  0  0
  -24.8890  -32.2894   26.4833 H   0  0  0  0  0  0
  -25.8018  -30.8923   27.0216 H   0  0  0  0  0  0
  -26.2934  -29.6730   24.1225 H   0  0  0  0  0  0
  -27.4010  -29.7261   25.4743 H   0  0  0  0  0  0
  -27.8826  -30.4250   23.9471 H   0  0  0  0  0  0
  -27.2662  -33.3639   26.2042 H   0  0  0  0  0  0
  -28.3872  -32.6869   25.0317 H   0  0  0  0  0  0
  -28.0713  -31.8464   26.5423 H   0  0  0  0  0  0
  -28.2605  -38.0100   24.7513 H   0  0  0  0  0  0
  -28.1081  -36.2621   24.6292 H   0  0  0  0  0  0
  -27.2285  -37.1449   25.8865 H   0  0  0  0  0  0
  -20.9381  -29.8787   21.6868 H   0  0  0  0  0  0
  -26.0173  -38.2849   24.1418 H   0  0  0  0  0  0
  -30.9774  -21.0747   21.8902 H   0  0  0  0  0  0
  -32.2856  -19.2208   22.7034 H   0  0  0  0  0  0
  -28.4647  -18.2427   19.7544 H   0  0  0  0  0  0
  -29.6804  -22.6446   21.4965 H   0  0  0  0  0  0
  -24.5849  -22.2848   19.0525 H   0  0  0  0  0  0
  -25.0611  -20.5055   19.0637 H   0  0  0  0  0  0
  -27.3898  -23.7149   18.3219 H   0  0  0  0  0  0
  -26.2124  -23.9246   19.6191 H   0  0  0  0  0  0
  -28.2315  -20.7295   18.3443 H   0  0  0  0  0  0
  -27.2543  -19.8791   19.5305 H   0  0  0  0  0  0
  -29.1214  -25.1146   21.5802 H   0  0  0  0  0  0
  -27.3973  -25.1481   21.6008 H   0  0  0  0  0  0
  -28.7958  -15.6979   20.5711 H   0  0  0  0  0  0
  1 25  1  0  0  0
  1 30  2  0  0  0
  1 85  1  0  0  0
  2  3  1  0  0  0
  2 25  1  0  0  0
  2 87  1  0  0  0
  2 88  1  0  0  0
  3  4  1  0  0  0
  3 89  1  0  0  0
  3 90  1  0  0  0
  4  5  1  0  0  0
  4 91  1  0  0  0
  4 92  1  0  0  0
  5  6  1  0  0  0
  5 26  1  0  0  0
  5 93  1  0  0  0
  6 25  1  0  0  0
  6 94  1  0  0  0
  6 95  1  0  0  0
  7  8  2  0  0  0
  7 26  1  0  0  0
  7 29  1  0  0  0
  8  9  1  0  0  0
  8 22  1  0  0  0
  9 10  1  0  0  0
  9 27  2  0  0  0
 10 11  2  0  0  0
 10 15  1  0  0  0
 11 12  1  0  0  0
 11 96  1  0  0  0
 12 13  2  0  0  0
 12 97  1  0  0  0
 13 14  1  0  0  0
 13 31  1  0  0  0
 14 15  2  0  0  0
 14 98  1  0  0  0
 15 99  1  0  0  0
 16 17  2  0  0  0
 16 21  1  0  0  0
 16 31  1  0  0  0
 17 18  1  0  0  0
 17100  1  0  0  0
 18 19  2  0  0  0
 18101  1  0  0  0
 19 20  1  0  0  0
 19 24  1  0  0  0
 20 21  2  0  0  0
 20102  1  0  0  0
 21 23  1  0  0  0
 22 28  1  0  0  0
 22 32  2  0  0  0
 26 27  1  0  0  0
 28103  1  0  0  0
 28104  1  0  0  0
 29105  1  0  0  0
 29106  1  0  0  0
 33 34  1  0  0  0
 33 66  1  0  0  0
 33 70  2  0  0  0
 34 36  1  0  0  0
 34 59  1  0  0  0
 34107  1  0  0  0
 35 44  2  0  0  0
 35 45  1  0  0  0
 35 68  1  0  0  0
 36 56  1  0  0  0
 36108  1  0  0  0
 37 39  1  0  0  0
 37 47  1  0  0  0
 37 66  1  0  0  0
 37109  1  0  0  0
 38 43  2  0  0  0
 38 46  1  0  0  0
 38 47  1  0  0  0
 39 64  1  0  0  0
 39 67  2  0  0  0
 40 52  1  0  0  0
 40 53  2  0  0  0
 40 58  1  0  0  0
 41110  1  0  0  0
 41111  1  0  0  0
 41112  1  0  0  0
 41 48  1  0  0  0
 42 43  1  0  0  0
 42 66  1  0  0  0
 42113  1  0  0  0
 42114  1  0  0  0
 43 44  1  0  0  0
 44115  1  0  0  0
 45 46  2  0  0  0
 45116  1  0  0  0
 46117  1  0  0  0
 47118  1  0  0  0
 47119  1  0  0  0
 48 56  1  0  0  0
 48 65  1  0  0  0
 48120  1  0  0  0
 49 50  1  0  0  0
 49 53  1  0  0  0
 49 64  1  0  0  0
 49121  1  0  0  0
 50 51  1  0  0  0
 50122  1  0  0  0
 50123  1  0  0  0
 51 52  1  0  0  0
 51124  1  0  0  0
 51125  1  0  0  0
 52126  1  0  0  0
 52127  1  0  0  0
 53 54  1  0  0  0
 54 55  2  0  0  0
 54128  1  0  0  0
 55 57  1  0  0  0
 55129  1  0  0  0
 56 69  2  0  0  0
 57 58  2  0  0  0
 57130  1  0  0  0
 58131  1  0  0  0
 59 60  1  0  0  0
 59 61  1  0  0  0
 59 62  1  0  0  0
 60132  1  0  0  0
 60133  1  0  0  0
 60134  1  0  0  0
 61135  1  0  0  0
 61136  1  0  0  0
 61137  1  0  0  0
 62138  1  0  0  0
 62139  1  0  0  0
 62140  1  0  0  0
 63 65  1  0  0  0
 63141  1  0  0  0
 63142  1  0  0  0
 63143  1  0  0  0
 64144  1  0  0  0
 65145  1  0  0  0
 68 83  1  0  0  0
 71 72  2  0  0  0
 71 74  1  0  0  0
 71146  1  0  0  0
 72 76  1  0  0  0
 72147  1  0  0  0
 73 74  2  0  0  0
 73 75  1  0  0  0
 73148  1  0  0  0
 74 84  1  0  0  0
 75 76  2  0  0  0
 75 85  1  0  0  0
 76 86  1  0  0  0
 77 78  2  0  0  0
 77 84  1  0  0  0
 77149  1  0  0  0
 78 81  1  0  0  0
 78 83  1  0  0  0
 79 80  2  0  0  0
 79 81  1  0  0  0
 79 82  1  0  0  0
 80150  1  0  0  0
 80151  1  0  0  0
 81152  1  0  0  0
 81153  1  0  0  0
 82 84  1  0  0  0
 82154  1  0  0  0
 82155  1  0  0  0
 83156  1  0  0  0
 83157  1  0  0  0
 85158  1  0  0  0
M  ISO  4   1 100  68 101  83 101  85 100
M  END
> <chiral flag>
0

> <version>
0

> <s_m_source_file>
/data/baiqing/PycharmProjects/Reinvent-master-3.2/result/LINK_invent/BTK/process_docking_weight1_custom_product_contain_oxygen_bond_distance_aromatic_linkinvent_7_9_3/rearranged_h_0076.sdf

> <i_m_source_file_index>
2

> <r_mmod_Potential_Energy-OPLS-2005>
198.250122070312

> <r_mmod_Stretch_Energy-OPLS-2005>
142.746871948242

> <r_mmod_Bend_Energy-OPLS-2005>
170.618743896484

> <r_mmod_Torsional_Energy-OPLS-2005>
229.69319152832

> <r_mmod_Improper_Torsional_Energy-OPLS-2005>
7.6382269859314

> <r_mmod_Van_der_Waal_Energy-OPLS-2005>
152.799591064453

> <r_mmod_Electrostatic_Energy-OPLS-2005>
-386.158477783203

> <r_mmod_Solvation_Energy-OPLS-2005>
-215.402694702148

> <b_mmod_Minimization_Converged-OPLS-2005>
0

> <r_mmod_RMS_Derivative-OPLS-2005>
2.36950469017029

$$$$
2
                    3D
 Structure written by MMmdl.
164173  0  0  1  0            999 V2000
  -30.6308  -14.7597   20.3720 C   0  0  0  0  0  0
  -30.4428  -12.4318   19.4579 C   0  0  0  0  0  0
  -29.4974  -12.3548   18.2385 C   0  0  0  0  0  0
  -28.0201  -12.2406   18.6658 C   0  0  0  0  0  0
  -27.6293  -13.1733   19.8409 C   0  0  2  0  0  0
  -28.7013  -13.2036   20.9522 C   0  0  0  0  0  0
  -25.2580  -13.8073   20.5752 C   0  0  0  0  0  0
  -24.1802  -13.0401   20.9258 C   0  0  0  0  0  0
  -24.6313  -11.6850   20.8824 C   0  0  0  0  0  0
  -23.8986  -10.4258   21.0444 C   0  0  0  0  0  0
  -24.3572   -9.4172   21.9186 C   0  0  0  0  0  0
  -23.6252   -8.2209   22.0750 C   0  0  0  0  0  0
  -22.4247   -8.0251   21.3532 C   0  0  0  0  0  0
  -21.9870   -9.0232   20.4652 C   0  0  0  0  0  0
  -22.7175  -10.2115   20.3074 C   0  0  0  0  0  0
  -21.6824   -6.0728   22.5265 C   0  0  0  0  0  0
  -21.3955   -6.5636   23.8194 C   0  0  0  0  0  0
  -21.3627   -5.6798   24.9164 C   0  0  0  0  0  0
  -21.6047   -4.3065   24.7217 C   0  0  0  0  0  0
  -21.8842   -3.8154   23.4337 C   0  0  0  0  0  0
  -21.9199   -4.6967   22.3394 C   0  0  0  0  0  0
  -22.7840  -13.5234   21.1893 C   0  0  0  0  0  0
  -22.1689   -4.2162   21.0970 F   0  0  0  0  0  0
  -21.5648   -3.4547   25.7726 F   0  0  0  0  0  0
  -29.9821  -13.5410   20.3141 N   0  0  0  0  0  0
  -26.2904  -12.9108   20.3402 N   0  0  0  0  0  0
  -25.9220  -11.6328   20.5910 N   0  0  0  0  0  0
  -22.0459  -12.8228   22.0433 N   0  0  0  0  0  0
  -25.4388  -15.1788   20.4084 N   0  0  0  0  0  0
  -31.8614  -14.7891   20.3006 O   0  0  0  0  0  0
  -21.6612   -6.8856   21.4221 O   0  0  0  0  0  0
  -22.3547  -14.5547   20.6732 O   0  0  0  0  0  0
  -24.6270  -31.8591   23.2032 C   0  0  0  0  0  0
  -25.9114  -32.4774   23.8361 C   0  0  1  0  0  0
  -27.2315  -27.3185   20.1236 C   0  0  0  0  0  0
  -25.5926  -33.8573   24.2300 N   0  0  0  0  0  0
  -23.4224  -30.4834   21.5450 C   0  0  2  0  0  0
  -24.8709  -28.9411   20.1105 C   0  0  0  0  0  0
  -22.7485  -29.4613   22.4922 C   0  0  0  0  0  0
  -18.0295  -28.1372   22.8478 C   0  0  0  0  0  0
  -24.1481  -36.7269   23.2646 C   0  0  0  0  0  0
  -25.9651  -30.7904   21.3769 C   0  0  0  0  0  0
  -26.0396  -29.4197   20.7155 C   0  0  0  0  0  0
  -27.2230  -28.6226   20.7087 C   0  0  0  0  0  0
  -26.0375  -26.8942   19.4936 C   0  0  0  0  0  0
  -24.8726  -27.6831   19.4894 C   0  0  0  0  0  0
  -23.6389  -29.8207   20.1594 C   0  0  0  0  0  0
  -25.4104  -36.3076   24.0345 C   0  0  1  0  0  0
  -20.5896  -28.3675   23.1272 C   0  0  2  0  0  0
  -20.6778  -26.9393   22.5407 C   0  0  0  0  0  0
  -19.5754  -26.6370   21.5207 C   0  0  0  0  0  0
  -18.1935  -26.7917   22.1611 C   0  0  0  0  0  0
  -19.1546  -28.8843   23.2877 C   0  0  0  0  0  0
  -18.9468  -30.1440   23.8899 C   0  0  0  0  0  0
  -17.6464  -30.6572   24.0561 C   0  0  0  0  0  0
  -25.9046  -34.9446   23.5121 C   0  0  0  0  0  0
  -16.5359  -29.9071   23.6323 C   0  0  0  0  0  0
  -16.7278  -28.6490   23.0352 C   0  0  0  0  0  0
  -26.4492  -31.6575   25.0728 C   0  0  0  0  0  0
  -25.3730  -31.3706   26.1459 C   0  0  0  0  0  0
  -27.0338  -30.2995   24.6193 C   0  0  0  0  0  0
  -27.6055  -32.4311   25.7488 C   0  0  0  0  0  0
  -27.5574  -37.1786   24.8468 C   0  0  0  0  0  0
  -21.4202  -29.3027   22.3660 N   0  0  0  0  0  0
  -26.4281  -37.3771   23.9424 N   0  0  0  0  0  0
  -24.6899  -31.0614   22.0976 N   0  0  0  0  0  0
  -23.4209  -28.8158   23.3013 O   0  0  0  0  0  0
  -28.3498  -26.4682   20.1882 O   0  0  0  0  0  0
  -26.5621  -34.8910   22.4689 O   0  0  0  0  0  0
  -23.5429  -32.1382   23.7361 O   0  0  0  0  0  0
  -29.0004  -19.5021   21.0052 C   0  0  0  0  0  0
  -31.3041  -19.4615   20.3656 C   0  0  0  0  0  0
  -28.9699  -18.0745   20.9388 C   0  0  0  0  0  0
  -31.2720  -18.0374   20.2682 C   0  0  0  0  0  0
  -30.1613  -20.2563   20.6925 C   0  0  0  0  0  0
  -30.0866  -17.2935   20.5086 C   0  0  0  0  0  0
  -29.1454  -22.6359   20.4556 C   0  0  0  0  0  0
  -29.2675  -24.0095   20.4243 C   0  0  0  0  0  0
  -31.5472  -23.6983   21.4447 C   0  0  0  0  0  0
  -32.3249  -24.0991   22.4639 C   0  0  0  0  0  0
  -29.5954  -15.6377   16.4123 C   0  0  0  0  0  0
  -30.1244  -15.6862   17.6487 C   0  0  0  0  0  0
  -29.2821  -15.9709   18.8075 C   0  0  0  0  0  0
  -30.6077  -24.6586   20.7288 C   0  0  0  0  0  0
  -31.5392  -22.2543   20.9556 C   0  0  0  0  0  0
  -28.1188  -25.0091   20.0465 C   0  0  0  0  0  0
  -30.1946  -21.7071   20.7227 N   0  0  0  0  0  0
  -29.9132  -15.9115   20.0127 N   0  0  0  0  0  0
  -28.1059  -16.3456   18.7096 O   0  0  0  0  0  0
  -31.4719  -12.5730   19.1233 H   0  0  0  0  0  0
  -30.4292  -11.4946   20.0167 H   0  0  0  0  0  0
  -29.7601  -11.4908   17.6270 H   0  0  0  0  0  0
  -29.6301  -13.2043   17.5834 H   0  0  0  0  0  0
  -27.8580  -11.2031   18.9588 H   0  0  0  0  0  0
  -27.3674  -12.4152   17.8096 H   0  0  0  0  0  0
  -27.5596  -14.1505   19.4025 H   0  0  0  0  0  0
  -28.7629  -12.2429   21.4668 H   0  0  0  0  0  0
  -28.4460  -13.9488   21.7079 H   0  0  0  0  0  0
  -25.2718   -9.5647   22.4750 H   0  0  0  0  0  0
  -23.9957   -7.4616   22.7482 H   0  0  0  0  0  0
  -21.0787   -8.8743   19.8975 H   0  0  0  0  0  0
  -22.3612  -10.9664   19.6209 H   0  0  0  0  0  0
  -21.1864   -7.6133   23.9679 H   0  0  0  0  0  0
  -21.1424   -6.0526   25.9065 H   0  0  0  0  0  0
  -22.0636   -2.7620   23.2837 H   0  0  0  0  0  0
  -22.4032  -11.9854   22.4791 H   0  0  0  0  0  0
  -21.1112  -13.1322   22.2673 H   0  0  0  0  0  0
  -24.6731  -15.8386   20.4954 H   0  0  0  0  0  0
  -26.2801  -15.5998   20.0250 H   0  0  0  0  0  0
  -26.7196  -32.5445   23.1122 H   0  0  0  0  0  0
  -25.0067  -33.9705   25.0445 H   0  0  0  0  0  0
  -22.7162  -31.3044   21.4023 H   0  0  0  0  0  0
  -23.3754  -35.9588   23.3311 H   0  0  0  0  0  0
  -24.3573  -36.8879   22.2057 H   0  0  0  0  0  0
  -23.7216  -37.6465   23.6660 H   0  0  0  0  0  0
  -26.1089  -31.5581   20.6152 H   0  0  0  0  0  0
  -26.8407  -30.8307   22.0129 H   0  0  0  0  0  0
  -28.1187  -28.9869   21.1928 H   0  0  0  0  0  0
  -25.9717  -25.9323   19.0078 H   0  0  0  0  0  0
  -23.9777  -27.3092   19.0116 H   0  0  0  0  0  0
  -23.7616  -30.5999   19.4057 H   0  0  0  0  0  0
  -22.7587  -29.2522   19.8533 H   0  0  0  0  0  0
  -25.1278  -36.1930   25.0838 H   0  0  0  0  0  0
  -20.9992  -28.3259   24.1389 H   0  0  0  0  0  0
  -20.5663  -26.2288   23.3613 H   0  0  0  0  0  0
  -21.6654  -26.7407   22.1212 H   0  0  0  0  0  0
  -19.6915  -25.6286   21.1233 H   0  0  0  0  0  0
  -19.6691  -27.3187   20.6743 H   0  0  0  0  0  0
  -17.4203  -26.6672   21.4019 H   0  0  0  0  0  0
  -18.0323  -26.0062   22.9002 H   0  0  0  0  0  0
  -19.7945  -30.7256   24.2280 H   0  0  0  0  0  0
  -17.5019  -31.6251   24.5162 H   0  0  0  0  0  0
  -15.5360  -30.2971   23.7643 H   0  0  0  0  0  0
  -15.8681  -28.0801   22.7071 H   0  0  0  0  0  0
  -24.5911  -30.7047   25.7786 H   0  0  0  0  0  0
  -24.8913  -32.2866   26.4886 H   0  0  0  0  0  0
  -25.8059  -30.8878   27.0231 H   0  0  0  0  0  0
  -26.2909  -29.6736   24.1233 H   0  0  0  0  0  0
  -27.4050  -29.7259   25.4698 H   0  0  0  0  0  0
  -27.8778  -30.4278   23.9413 H   0  0  0  0  0  0
  -27.2667  -33.3607   26.2072 H   0  0  0  0  0  0
  -28.3842  -32.6877   25.0295 H   0  0  0  0  0  0
  -28.0750  -31.8437   26.5389 H   0  0  0  0  0  0
  -28.2599  -38.0078   24.7523 H   0  0  0  0  0  0
  -28.1065  -36.2614   24.6282 H   0  0  0  0  0  0
  -27.2304  -37.1422   25.8876 H   0  0  0  0  0  0
  -20.9386  -29.8728   21.6841 H   0  0  0  0  0  0
  -26.0164  -38.2847   24.1427 H   0  0  0  0  0  0
  -28.0952  -20.0216   21.2828 H   0  0  0  0  0  0
  -32.2392  -19.9358   20.1063 H   0  0  0  0  0  0
  -28.0231  -17.5853   21.1216 H   0  0  0  0  0  0
  -32.1577  -17.5319   19.9094 H   0  0  0  0  0  0
  -28.2010  -22.1646   20.2179 H   0  0  0  0  0  0
  -32.3202  -25.1239   22.8071 H   0  0  0  0  0  0
  -32.9842  -23.4104   22.9727 H   0  0  0  0  0  0
  -30.2145  -15.4338   15.5516 H   0  0  0  0  0  0
  -28.5389  -15.7959   16.2361 H   0  0  0  0  0  0
  -31.1856  -15.5216   17.7653 H   0  0  0  0  0  0
  -30.4627  -25.5508   21.3384 H   0  0  0  0  0  0
  -31.0593  -24.9742   19.7882 H   0  0  0  0  0  0
  -32.0798  -21.6437   21.6808 H   0  0  0  0  0  0
  -32.1009  -22.2210   20.0212 H   0  0  0  0  0  0
  -27.2479  -24.7205   20.6375 H   0  0  0  0  0  0
  -27.8751  -24.8059   19.0037 H   0  0  0  0  0  0
  1 25  1  0  0  0
  1 30  2  0  0  0
  1 88  1  0  0  0
  2  3  1  0  0  0
  2 25  1  0  0  0
  2 90  1  0  0  0
  2 91  1  0  0  0
  3  4  1  0  0  0
  3 92  1  0  0  0
  3 93  1  0  0  0
  4  5  1  0  0  0
  4 94  1  0  0  0
  4 95  1  0  0  0
  5  6  1  0  0  0
  5 26  1  0  0  0
  5 96  1  0  0  0
  6 25  1  0  0  0
  6 97  1  0  0  0
  6 98  1  0  0  0
  7  8  2  0  0  0
  7 26  1  0  0  0
  7 29  1  0  0  0
  8  9  1  0  0  0
  8 22  1  0  0  0
  9 10  1  0  0  0
  9 27  2  0  0  0
 10 11  2  0  0  0
 10 15  1  0  0  0
 11 12  1  0  0  0
 11 99  1  0  0  0
 12 13  2  0  0  0
 12100  1  0  0  0
 13 14  1  0  0  0
 13 31  1  0  0  0
 14 15  2  0  0  0
 14101  1  0  0  0
 15102  1  0  0  0
 16 17  2  0  0  0
 16 21  1  0  0  0
 16 31  1  0  0  0
 17 18  1  0  0  0
 17103  1  0  0  0
 18 19  2  0  0  0
 18104  1  0  0  0
 19 20  1  0  0  0
 19 24  1  0  0  0
 20 21  2  0  0  0
 20105  1  0  0  0
 21 23  1  0  0  0
 22 28  1  0  0  0
 22 32  2  0  0  0
 26 27  1  0  0  0
 28106  1  0  0  0
 28107  1  0  0  0
 29108  1  0  0  0
 29109  1  0  0  0
 33 34  1  0  0  0
 33 66  1  0  0  0
 33 70  2  0  0  0
 34 36  1  0  0  0
 34 59  1  0  0  0
 34110  1  0  0  0
 35 44  2  0  0  0
 35 45  1  0  0  0
 35 68  1  0  0  0
 36 56  1  0  0  0
 36111  1  0  0  0
 37 39  1  0  0  0
 37 47  1  0  0  0
 37 66  1  0  0  0
 37112  1  0  0  0
 38 43  2  0  0  0
 38 46  1  0  0  0
 38 47  1  0  0  0
 39 64  1  0  0  0
 39 67  2  0  0  0
 40 52  1  0  0  0
 40 53  2  0  0  0
 40 58  1  0  0  0
 41113  1  0  0  0
 41114  1  0  0  0
 41115  1  0  0  0
 41 48  1  0  0  0
 42 43  1  0  0  0
 42 66  1  0  0  0
 42116  1  0  0  0
 42117  1  0  0  0
 43 44  1  0  0  0
 44118  1  0  0  0
 45 46  2  0  0  0
 45119  1  0  0  0
 46120  1  0  0  0
 47121  1  0  0  0
 47122  1  0  0  0
 48 56  1  0  0  0
 48 65  1  0  0  0
 48123  1  0  0  0
 49 50  1  0  0  0
 49 53  1  0  0  0
 49 64  1  0  0  0
 49124  1  0  0  0
 50 51  1  0  0  0
 50125  1  0  0  0
 50126  1  0  0  0
 51 52  1  0  0  0
 51127  1  0  0  0
 51128  1  0  0  0
 52129  1  0  0  0
 52130  1  0  0  0
 53 54  1  0  0  0
 54 55  2  0  0  0
 54131  1  0  0  0
 55 57  1  0  0  0
 55132  1  0  0  0
 56 69  2  0  0  0
 57 58  2  0  0  0
 57133  1  0  0  0
 58134  1  0  0  0
 59 60  1  0  0  0
 59 61  1  0  0  0
 59 62  1  0  0  0
 60135  1  0  0  0
 60136  1  0  0  0
 60137  1  0  0  0
 61138  1  0  0  0
 61139  1  0  0  0
 61140  1  0  0  0
 62141  1  0  0  0
 62142  1  0  0  0
 62143  1  0  0  0
 63 65  1  0  0  0
 63144  1  0  0  0
 63145  1  0  0  0
 63146  1  0  0  0
 64147  1  0  0  0
 65148  1  0  0  0
 68 86  1  0  0  0
 71 73  2  0  0  0
 71 75  1  0  0  0
 71149  1  0  0  0
 72 74  1  0  0  0
 72 75  2  0  0  0
 72150  1  0  0  0
 73 76  1  0  0  0
 73151  1  0  0  0
 74 76  2  0  0  0
 74152  1  0  0  0
 75 87  1  0  0  0
 76 88  1  0  0  0
 77 78  2  0  0  0
 77 87  1  0  0  0
 77153  1  0  0  0
 78 84  1  0  0  0
 78 86  1  0  0  0
 79 80  2  0  0  0
 79 84  1  0  0  0
 79 85  1  0  0  0
 80154  1  0  0  0
 80155  1  0  0  0
 81 82  2  0  0  0
 81156  1  0  0  0
 81157  1  0  0  0
 82 83  1  0  0  0
 82158  1  0  0  0
 83 88  1  0  0  0
 83 89  2  0  0  0
 84159  1  0  0  0
 84160  1  0  0  0
 85 87  1  0  0  0
 85161  1  0  0  0
 85162  1  0  0  0
 86163  1  0  0  0
 86164  1  0  0  0
M  ISO  4   1 100  68 101  86 101  88 100
M  END
> <chiral flag>
0

> <version>
0

> <s_m_source_file>
/data/baiqing/PycharmProjects/Reinvent-master-3.2/result/LINK_invent/BTK/process_docking_weight1_custom_product_contain_oxygen_bond_distance_aromatic_linkinvent_7_9_3/rearranged_h_0076.sdf

> <i_m_source_file_index>
3

> <r_mmod_Potential_Energy-OPLS-2005>
341.256134033203

> <r_mmod_Stretch_Energy-OPLS-2005>
95.7312393188477

> <r_mmod_Bend_Energy-OPLS-2005>
146.342697143555

> <r_mmod_Torsional_Energy-OPLS-2005>
356.900024414062

> <r_mmod_Improper_Torsional_Energy-OPLS-2005>
20.6871757507324

> <r_mmod_Van_der_Waal_Energy-OPLS-2005>
181.232574462891

> <r_mmod_Electrostatic_Energy-OPLS-2005>
-363.915740966797

> <r_mmod_Solvation_Energy-OPLS-2005>
-186.864883422852

> <b_mmod_Minimization_Converged-OPLS-2005>
0

> <r_mmod_RMS_Derivative-OPLS-2005>
1.9582986831665

$$$$
3
                    3D
 Structure written by MMmdl.
158167  0  0  1  0            999 V2000
  -30.5993  -14.7951   20.3976 C   0  0  0  0  0  0
  -30.4397  -12.4691   19.4894 C   0  0  0  0  0  0
  -29.5174  -12.4481   18.2494 C   0  0  0  0  0  0
  -28.0403  -12.3069   18.6640 C   0  0  0  0  0  0
  -27.6419  -13.2340   19.8433 C   0  0  2  0  0  0
  -28.6874  -13.2070   20.9793 C   0  0  0  0  0  0
  -25.2531  -13.8197   20.5705 C   0  0  0  0  0  0
  -24.1814  -13.0448   20.9209 C   0  0  0  0  0  0
  -24.6404  -11.6926   20.8756 C   0  0  0  0  0  0
  -23.9082  -10.4297   21.0414 C   0  0  0  0  0  0
  -24.3631   -9.4206   21.9185 C   0  0  0  0  0  0
  -23.6301   -8.2240   22.0748 C   0  0  0  0  0  0
  -22.4278   -8.0285   21.3541 C   0  0  0  0  0  0
  -21.9920   -9.0266   20.4645 C   0  0  0  0  0  0
  -22.7255  -10.2146   20.3058 C   0  0  0  0  0  0
  -21.6857   -6.0739   22.5268 C   0  0  0  0  0  0
  -21.4019   -6.5639   23.8206 C   0  0  0  0  0  0
  -21.3657   -5.6789   24.9164 C   0  0  0  0  0  0
  -21.6042   -4.3051   24.7213 C   0  0  0  0  0  0
  -21.8821   -3.8149   23.4332 C   0  0  0  0  0  0
  -21.9198   -4.6966   22.3392 C   0  0  0  0  0  0
  -22.7838  -13.5232   21.1872 C   0  0  0  0  0  0
  -22.1668   -4.2158   21.0970 F   0  0  0  0  0  0
  -21.5627   -3.4532   25.7724 F   0  0  0  0  0  0
  -29.9838  -13.5590   20.3875 N   0  0  0  0  0  0
  -26.2954  -12.9412   20.3274 N   0  0  0  0  0  0
  -25.9337  -11.6557   20.5774 N   0  0  0  0  0  0
  -22.0485  -12.8218   22.0424 N   0  0  0  0  0  0
  -25.4250  -15.1914   20.4129 N   0  0  0  0  0  0
  -31.8007  -14.8666   20.1222 O   0  0  0  0  0  0
  -21.6642   -6.8881   21.4232 O   0  0  0  0  0  0
  -22.3522  -14.5544   20.6731 O   0  0  0  0  0  0
  -24.6353  -31.8526   23.1965 C   0  0  0  0  0  0
  -25.9163  -32.4739   23.8315 C   0  0  1  0  0  0
  -27.2220  -27.2301   20.1194 C   0  0  0  0  0  0
  -25.5946  -33.8542   24.2235 N   0  0  0  0  0  0
  -23.4328  -30.4756   21.5415 C   0  0  2  0  0  0
  -24.8798  -28.9230   20.1082 C   0  0  0  0  0  0
  -22.7526  -29.4584   22.4903 C   0  0  0  0  0  0
  -18.0296  -28.1399   22.8477 C   0  0  0  0  0  0
  -24.1491  -36.7281   23.2637 C   0  0  0  0  0  0
  -25.9826  -30.7544   21.3826 C   0  0  0  0  0  0
  -26.0528  -29.3752   20.7230 C   0  0  0  0  0  0
  -27.2207  -28.5401   20.7220 C   0  0  0  0  0  0
  -26.0164  -26.8585   19.4765 C   0  0  0  0  0  0
  -24.8696  -27.6742   19.4750 C   0  0  0  0  0  0
  -23.6529  -29.8134   20.1567 C   0  0  0  0  0  0
  -25.4116  -36.3059   24.0319 C   0  0  1  0  0  0
  -20.5902  -28.3708   23.1267 C   0  0  2  0  0  0
  -20.6784  -26.9424   22.5412 C   0  0  0  0  0  0
  -19.5758  -26.6391   21.5216 C   0  0  0  0  0  0
  -18.1937  -26.7939   22.1623 C   0  0  0  0  0  0
  -19.1549  -28.8871   23.2864 C   0  0  0  0  0  0
  -18.9468  -30.1472   23.8881 C   0  0  0  0  0  0
  -17.6464  -30.6594   24.0568 C   0  0  0  0  0  0
  -25.9064  -34.9432   23.5081 C   0  0  0  0  0  0
  -16.5357  -29.9090   23.6336 C   0  0  0  0  0  0
  -16.7282  -28.6516   23.0343 C   0  0  0  0  0  0
  -26.4508  -31.6573   25.0720 C   0  0  0  0  0  0
  -25.3717  -31.3737   26.1432 C   0  0  0  0  0  0
  -27.0353  -30.2980   24.6233 C   0  0  0  0  0  0
  -27.6057  -32.4314   25.7500 C   0  0  0  0  0  0
  -27.5579  -37.1792   24.8459 C   0  0  0  0  0  0
  -21.4229  -29.3047   22.3654 N   0  0  0  0  0  0
  -26.4285  -37.3763   23.9412 N   0  0  0  0  0  0
  -24.7029  -31.0460   22.0963 N   0  0  0  0  0  0
  -23.4213  -28.8124   23.3014 O   0  0  0  0  0  0
  -28.3193  -26.3252   20.2178 O   0  0  0  0  0  0
  -26.5641  -34.8914   22.4655 O   0  0  0  0  0  0
  -23.5496  -32.1364   23.7242 O   0  0  0  0  0  0
  -30.1789  -18.6326   17.8134 C   0  0  0  0  0  0
  -29.8609  -19.8343   18.4624 C   0  0  0  0  0  0
  -29.5598  -18.5832   20.5189 C   0  0  0  0  0  0
  -30.1651  -17.3883   18.4763 C   0  0  0  0  0  0
  -29.5031  -19.8758   19.8230 C   0  0  0  0  0  0
  -29.8991  -17.3017   19.8771 C   0  0  0  0  0  0
  -28.6719  -22.3450   19.6000 C   0  0  0  0  0  0
  -28.7821  -23.5822   20.1811 C   0  0  0  0  0  0
  -29.3967  -23.2665   21.4551 C   0  0  0  0  0  0
  -29.7259  -24.1720   22.3891 C   0  0  0  0  0  0
  -29.6366  -21.7442   21.5802 C   0  0  0  0  0  0
  -30.3463  -16.1701   17.5857 C   0  0  0  0  0  0
  -28.3752  -24.9874   19.5081 C   0  0  0  0  0  0
  -29.1094  -21.1924   20.3266 N   0  0  0  0  0  0
  -29.8223  -15.9501   20.5377 N   0  0  0  0  0  0
  -31.4786  -12.5947   19.1785 H   0  0  0  0  0  0
  -30.4009  -11.5121   20.0109 H   0  0  0  0  0  0
  -29.7940  -11.6190   17.5965 H   0  0  0  0  0  0
  -29.6570  -13.3452   17.6528 H   0  0  0  0  0  0
  -27.8917  -11.2664   18.9556 H   0  0  0  0  0  0
  -27.3863  -12.4781   17.8084 H   0  0  0  0  0  0
  -27.6275  -14.2454   19.4367 H   0  0  0  0  0  0
  -28.7319  -12.2228   21.4472 H   0  0  0  0  0  0
  -28.4191  -13.9095   21.7695 H   0  0  0  0  0  0
  -25.2772   -9.5683   22.4768 H   0  0  0  0  0  0
  -24.0013   -7.4624   22.7459 H   0  0  0  0  0  0
  -21.0856   -8.8795   19.8943 H   0  0  0  0  0  0
  -22.3716  -10.9695   19.6176 H   0  0  0  0  0  0
  -21.2016   -7.6146   23.9710 H   0  0  0  0  0  0
  -21.1477   -6.0516   25.9069 H   0  0  0  0  0  0
  -22.0609   -2.7614   23.2822 H   0  0  0  0  0  0
  -22.4119  -11.9876   22.4800 H   0  0  0  0  0  0
  -21.1102  -13.1238   22.2637 H   0  0  0  0  0  0
  -24.6606  -15.8478   20.5243 H   0  0  0  0  0  0
  -26.2754  -15.6280   20.0813 H   0  0  0  0  0  0
  -26.7229  -32.5368   23.1051 H   0  0  0  0  0  0
  -25.0076  -33.9665   25.0370 H   0  0  0  0  0  0
  -22.7307  -31.2989   21.3954 H   0  0  0  0  0  0
  -23.3754  -35.9613   23.3287 H   0  0  0  0  0  0
  -24.3584  -36.8923   22.2056 H   0  0  0  0  0  0
  -23.7246  -37.6475   23.6680 H   0  0  0  0  0  0
  -26.1262  -31.5131   20.6118 H   0  0  0  0  0  0
  -26.8588  -30.8023   22.0177 H   0  0  0  0  0  0
  -28.1141  -28.8814   21.2255 H   0  0  0  0  0  0
  -25.8844  -25.9095   18.9879 H   0  0  0  0  0  0
  -23.9708  -27.3198   18.9888 H   0  0  0  0  0  0
  -23.7853  -30.5916   19.4044 H   0  0  0  0  0  0
  -22.7697  -29.2523   19.8459 H   0  0  0  0  0  0
  -25.1298  -36.1894   25.0810 H   0  0  0  0  0  0
  -20.9983  -28.3291   24.1393 H   0  0  0  0  0  0
  -20.5693  -26.2315   23.3617 H   0  0  0  0  0  0
  -21.6650  -26.7453   22.1200 H   0  0  0  0  0  0
  -19.6919  -25.6300   21.1254 H   0  0  0  0  0  0
  -19.6696  -27.3200   20.6744 H   0  0  0  0  0  0
  -17.4205  -26.6685   21.4028 H   0  0  0  0  0  0
  -18.0335  -26.0091   22.9031 H   0  0  0  0  0  0
  -19.7944  -30.7299   24.2239 H   0  0  0  0  0  0
  -17.5018  -31.6268   24.5186 H   0  0  0  0  0  0
  -15.5355  -30.2985   23.7673 H   0  0  0  0  0  0
  -15.8683  -28.0840   22.7048 H   0  0  0  0  0  0
  -24.5901  -30.7073   25.7762 H   0  0  0  0  0  0
  -24.8897  -32.2910   26.4823 H   0  0  0  0  0  0
  -25.8023  -30.8938   27.0231 H   0  0  0  0  0  0
  -26.2942  -29.6723   24.1247 H   0  0  0  0  0  0
  -27.4006  -29.7249   25.4765 H   0  0  0  0  0  0
  -27.8836  -30.4238   23.9501 H   0  0  0  0  0  0
  -27.2663  -33.3620   26.2060 H   0  0  0  0  0  0
  -28.3880  -32.6859   25.0336 H   0  0  0  0  0  0
  -28.0713  -31.8447   26.5430 H   0  0  0  0  0  0
  -28.2579  -38.0105   24.7520 H   0  0  0  0  0  0
  -28.1091  -36.2635   24.6261 H   0  0  0  0  0  0
  -27.2304  -37.1415   25.8863 H   0  0  0  0  0  0
  -20.9431  -29.8762   21.6840 H   0  0  0  0  0  0
  -26.0158  -38.2833   24.1423 H   0  0  0  0  0  0
  -30.3947  -18.6773   16.7549 H   0  0  0  0  0  0
  -29.8795  -20.7391   17.8721 H   0  0  0  0  0  0
  -29.2914  -18.5678   21.5651 H   0  0  0  0  0  0
  -28.2574  -22.1667   18.6165 H   0  0  0  0  0  0
  -29.5398  -25.2266   22.2456 H   0  0  0  0  0  0
  -30.1925  -23.8706   23.3160 H   0  0  0  0  0  0
  -29.1111  -21.3331   22.4437 H   0  0  0  0  0  0
  -30.7017  -21.5303   21.6850 H   0  0  0  0  0  0
  -30.3276  -16.4341   16.5277 H   0  0  0  0  0  0
  -29.5196  -15.4826   17.7470 H   0  0  0  0  0  0
  -31.2952  -15.6683   17.7681 H   0  0  0  0  0  0
  -27.4844  -24.7630   18.9358 H   0  0  0  0  0  0
  -29.1289  -25.1389   18.7355 H   0  0  0  0  0  0
  -28.9448  -15.7775   21.0053 H   0  0  0  0  0  0
  1 25  1  0  0  0
  1 30  2  0  0  0
  1 85  1  0  0  0
  2  3  1  0  0  0
  2 25  1  0  0  0
  2 86  1  0  0  0
  2 87  1  0  0  0
  3  4  1  0  0  0
  3 88  1  0  0  0
  3 89  1  0  0  0
  4  5  1  0  0  0
  4 90  1  0  0  0
  4 91  1  0  0  0
  5  6  1  0  0  0
  5 26  1  0  0  0
  5 92  1  0  0  0
  6 25  1  0  0  0
  6 93  1  0  0  0
  6 94  1  0  0  0
  7  8  2  0  0  0
  7 26  1  0  0  0
  7 29  1  0  0  0
  8  9  1  0  0  0
  8 22  1  0  0  0
  9 10  1  0  0  0
  9 27  2  0  0  0
 10 11  2  0  0  0
 10 15  1  0  0  0
 11 12  1  0  0  0
 11 95  1  0  0  0
 12 13  2  0  0  0
 12 96  1  0  0  0
 13 14  1  0  0  0
 13 31  1  0  0  0
 14 15  2  0  0  0
 14 97  1  0  0  0
 15 98  1  0  0  0
 16 17  2  0  0  0
 16 21  1  0  0  0
 16 31  1  0  0  0
 17 18  1  0  0  0
 17 99  1  0  0  0
 18 19  2  0  0  0
 18100  1  0  0  0
 19 20  1  0  0  0
 19 24  1  0  0  0
 20 21  2  0  0  0
 20101  1  0  0  0
 21 23  1  0  0  0
 22 28  1  0  0  0
 22 32  2  0  0  0
 26 27  1  0  0  0
 28102  1  0  0  0
 28103  1  0  0  0
 29104  1  0  0  0
 29105  1  0  0  0
 33 34  1  0  0  0
 33 66  1  0  0  0
 33 70  2  0  0  0
 34 36  1  0  0  0
 34 59  1  0  0  0
 34106  1  0  0  0
 35 44  2  0  0  0
 35 45  1  0  0  0
 35 68  1  0  0  0
 36 56  1  0  0  0
 36107  1  0  0  0
 37 39  1  0  0  0
 37 47  1  0  0  0
 37 66  1  0  0  0
 37108  1  0  0  0
 38 43  2  0  0  0
 38 46  1  0  0  0
 38 47  1  0  0  0
 39 64  1  0  0  0
 39 67  2  0  0  0
 40 52  1  0  0  0
 40 53  2  0  0  0
 40 58  1  0  0  0
 41109  1  0  0  0
 41110  1  0  0  0
 41111  1  0  0  0
 41 48  1  0  0  0
 42 43  1  0  0  0
 42 66  1  0  0  0
 42112  1  0  0  0
 42113  1  0  0  0
 43 44  1  0  0  0
 44114  1  0  0  0
 45 46  2  0  0  0
 45115  1  0  0  0
 46116  1  0  0  0
 47117  1  0  0  0
 47118  1  0  0  0
 48 56  1  0  0  0
 48 65  1  0  0  0
 48119  1  0  0  0
 49 50  1  0  0  0
 49 53  1  0  0  0
 49 64  1  0  0  0
 49120  1  0  0  0
 50 51  1  0  0  0
 50121  1  0  0  0
 50122  1  0  0  0
 51 52  1  0  0  0
 51123  1  0  0  0
 51124  1  0  0  0
 52125  1  0  0  0
 52126  1  0  0  0
 53 54  1  0  0  0
 54 55  2  0  0  0
 54127  1  0  0  0
 55 57  1  0  0  0
 55128  1  0  0  0
 56 69  2  0  0  0
 57 58  2  0  0  0
 57129  1  0  0  0
 58130  1  0  0  0
 59 60  1  0  0  0
 59 61  1  0  0  0
 59 62  1  0  0  0
 60131  1  0  0  0
 60132  1  0  0  0
 60133  1  0  0  0
 61134  1  0  0  0
 61135  1  0  0  0
 61136  1  0  0  0
 62137  1  0  0  0
 62138  1  0  0  0
 62139  1  0  0  0
 63 65  1  0  0  0
 63140  1  0  0  0
 63141  1  0  0  0
 63142  1  0  0  0
 64143  1  0  0  0
 65144  1  0  0  0
 68 83  1  0  0  0
 71 72  2  0  0  0
 71 74  1  0  0  0
 71145  1  0  0  0
 72 75  1  0  0  0
 72146  1  0  0  0
 73 75  2  0  0  0
 73 76  1  0  0  0
 73147  1  0  0  0
 74 76  2  0  0  0
 74 82  1  0  0  0
 75 84  1  0  0  0
 76 85  1  0  0  0
 77 78  2  0  0  0
 77 84  1  0  0  0
 77148  1  0  0  0
 78 79  1  0  0  0
 78 83  1  0  0  0
 79 80  2  0  0  0
 79 81  1  0  0  0
 80149  1  0  0  0
 80150  1  0  0  0
 81 84  1  0  0  0
 81151  1  0  0  0
 81152  1  0  0  0
 82153  1  0  0  0
 82154  1  0  0  0
 82155  1  0  0  0
 83156  1  0  0  0
 83157  1  0  0  0
 85158  1  0  0  0
M  ISO  4   1 100  68 101  83 101  85 100
M  END
> <chiral flag>
0

> <version>
0

> <s_m_source_file>
/data/baiqing/PycharmProjects/Reinvent-master-3.2/result/LINK_invent/BTK/process_docking_weight1_custom_product_contain_oxygen_bond_distance_aromatic_linkinvent_7_9_3/rearranged_h_0076.sdf

> <i_m_source_file_index>
4

> <r_mmod_Potential_Energy-OPLS-2005>
352.540618896484

> <r_mmod_Stretch_Energy-OPLS-2005>
141.824310302734

> <r_mmod_Bend_Energy-OPLS-2005>
280.209930419922

> <r_mmod_Torsional_Energy-OPLS-2005>
241.883895874023

> <r_mmod_Improper_Torsional_Energy-OPLS-2005>
6.85378551483154

> <r_mmod_Van_der_Waal_Energy-OPLS-2005>
141.747695922852

> <r_mmod_Electrostatic_Energy-OPLS-2005>
-358.568786621094

> <r_mmod_Solvation_Energy-OPLS-2005>
-211.297286987305

> <b_mmod_Minimization_Converged-OPLS-2005>
0

> <r_mmod_RMS_Derivative-OPLS-2005>
1.23995578289032

$$$$
4
                    3D
 Structure written by MMmdl.
168177  0  0  1  0            999 V2000
  -29.9556  -16.6967   20.2613 C   0  0  0  0  0  0
  -30.3939  -13.7530   19.7192 C   0  0  0  0  0  0
  -29.6488  -12.9813   18.5233 C   0  0  0  0  0  0
  -28.2768  -12.4277   18.9240 C   0  0  0  0  0  0
  -27.6241  -13.4700   19.8439 C   0  0  2  0  0  0
  -28.5859  -14.1339   20.9499 C   0  0  0  0  0  0
  -25.2354  -13.8505   20.5876 C   0  0  0  0  0  0
  -24.1821  -13.0462   20.9290 C   0  0  0  0  0  0
  -24.6737  -11.7037   20.8622 C   0  0  0  0  0  0
  -23.9376  -10.4267   21.0173 C   0  0  0  0  0  0
  -24.3728   -9.4174   21.9048 C   0  0  0  0  0  0
  -23.6306   -8.2267   22.0736 C   0  0  0  0  0  0
  -22.4293   -8.0293   21.3550 C   0  0  0  0  0  0
  -21.9975   -9.0248   20.4615 C   0  0  0  0  0  0
  -22.7433  -10.2075   20.2925 C   0  0  0  0  0  0
  -21.6826   -6.0724   22.5310 C   0  0  0  0  0  0
  -21.3994   -6.5644   23.8232 C   0  0  0  0  0  0
  -21.3687   -5.6806   24.9197 C   0  0  0  0  0  0
  -21.6060   -4.3066   24.7247 C   0  0  0  0  0  0
  -21.8810   -3.8158   23.4365 C   0  0  0  0  0  0
  -21.9158   -4.6958   22.3417 C   0  0  0  0  0  0
  -22.7747  -13.5044   21.1886 C   0  0  0  0  0  0
  -22.1639   -4.2161   21.0982 F   0  0  0  0  0  0
  -21.5635   -3.4540   25.7744 F   0  0  0  0  0  0
  -29.7309  -15.0602   20.4397 N   0  0  0  0  0  0
  -26.3080  -13.0244   20.3386 N   0  0  0  0  0  0
  -25.9806  -11.7137   20.5592 N   0  0  0  0  0  0
  -22.0500  -12.7966   22.0466 N   0  0  0  0  0  0
  -25.3756  -15.2225   20.4353 N   0  0  0  0  0  0
  -30.3659  -16.2938   19.1392 O   0  0  0  0  0  0
  -21.6637   -6.8884   21.4280 O   0  0  0  0  0  0
  -22.3298  -14.5254   20.6682 O   0  0  0  0  0  0
  -24.7552  -31.7086   23.0863 C   0  0  0  0  0  0
  -25.9749  -32.4044   23.7681 C   0  0  1  0  0  0
  -27.3601  -25.9921   20.2834 C   0  0  0  0  0  0
  -25.6010  -33.7907   24.1495 N   0  0  0  0  0  0
  -23.6225  -30.2656   21.4594 C   0  0  2  0  0  0
  -25.1115  -28.4438   20.1534 C   0  0  0  0  0  0
  -22.8096  -29.3810   22.4509 C   0  0  0  0  0  0
  -18.0388  -28.1467   22.8404 C   0  0  0  0  0  0
  -24.1497  -36.6977   23.2647 C   0  0  0  0  0  0
  -26.2277  -30.2103   21.4612 C   0  0  0  0  0  0
  -26.3104  -28.6873   20.8350 C   0  0  0  0  0  0
  -27.3744  -27.5202   20.8446 C   0  0  0  0  0  0
  -26.1125  -26.1383   19.5389 C   0  0  0  0  0  0
  -25.0978  -27.1966   19.4798 C   0  0  0  0  0  0
  -23.9266  -29.4732   20.1364 C   0  0  0  0  0  0
  -25.4157  -36.2648   24.0220 C   0  0  1  0  0  0
  -20.6060  -28.3858   23.0994 C   0  0  2  0  0  0
  -20.6818  -26.9442   22.5406 C   0  0  0  0  0  0
  -19.5816  -26.6348   21.5215 C   0  0  0  0  0  0
  -18.1998  -26.7976   22.1593 C   0  0  0  0  0  0
  -19.1667  -28.9009   23.2666 C   0  0  0  0  0  0
  -18.9569  -30.1579   23.8744 C   0  0  0  0  0  0
  -17.6548  -30.6627   24.0542 C   0  0  0  0  0  0
  -25.9206  -34.9063   23.4757 C   0  0  0  0  0  0
  -16.5438  -29.9090   23.6371 C   0  0  0  0  0  0
  -16.7367  -28.6522   23.0377 C   0  0  0  0  0  0
  -26.4707  -31.6396   25.0597 C   0  0  0  0  0  0
  -25.3576  -31.3918   26.1068 C   0  0  0  0  0  0
  -27.0770  -30.2665   24.7008 C   0  0  0  0  0  0
  -27.6014  -32.4420   25.7482 C   0  0  0  0  0  0
  -27.5581  -37.1558   24.8404 C   0  0  0  0  0  0
  -21.4675  -29.2937   22.3205 N   0  0  0  0  0  0
  -26.4191  -37.3520   23.9492 N   0  0  0  0  0  0
  -24.9002  -30.7790   22.0538 N   0  0  0  0  0  0
  -23.4163  -28.7580   23.3241 O   0  0  0  0  0  0
  -28.2938  -24.4769   20.3592 O   0  0  0  0  0  0
  -26.5963  -34.8793   22.4449 O   0  0  0  0  0  0
  -23.6409  -32.0473   23.5328 O   0  0  0  0  0  0
  -34.3602  -17.6104   22.4976 C   0  0  0  0  0  0
  -33.7649  -16.3377   22.7315 C   0  0  0  0  0  0
  -33.4600  -18.7170   22.3863 C   0  0  0  0  0  0
  -32.3965  -16.3764   23.0653 C   0  0  0  0  0  0
  -32.0174  -18.4632   22.5793 C   0  0  0  0  0  0
  -32.0309  -17.5697   23.6707 C   0  0  0  0  0  0
  -28.5581  -18.6038   21.7946 C   0  0  0  0  0  0
  -32.0144  -20.7308   20.9607 C   0  0  0  0  0  0
  -31.2043  -19.8273   21.5973 C   0  0  0  0  0  0
  -29.6976  -16.9207   22.6856 C   0  0  0  0  0  0
  -30.9206  -18.8550   19.2247 C   0  0  0  0  0  0
  -32.3374  -17.1060   20.2669 C   0  0  0  0  0  0
  -29.1615  -19.9855   20.2857 C   0  0  2  0  0  0
  -27.2292  -22.1750   21.1390 C   0  0  0  0  0  0
  -27.9928  -22.3813   18.6981 C   0  0  0  0  0  0
  -28.4080  -22.3242   20.1745 C   0  0  0  0  0  0
  -31.5364  -16.2257   21.9862 N   0  0  0  0  0  0
  -30.8871  -18.3463   21.4027 N   0  0  0  0  0  0
  -27.4422  -18.7929   22.2754 O   0  0  0  0  0  0
  -32.6915  -17.9256   24.7997 F   0  0  0  0  0  0
  -31.3807  -14.0466   19.3871 H   0  0  0  0  0  0
  -30.6709  -13.0260   20.4849 H   0  0  0  0  0  0
  -30.2941  -12.1933   18.1223 H   0  0  0  0  0  0
  -29.4991  -13.6679   17.6969 H   0  0  0  0  0  0
  -28.4005  -11.4834   19.4591 H   0  0  0  0  0  0
  -27.6576  -12.2137   18.0483 H   0  0  0  0  0  0
  -27.3805  -14.2640   19.1303 H   0  0  0  0  0  0
  -28.9635  -13.3805   21.6463 H   0  0  0  0  0  0
  -27.9538  -14.7568   21.5764 H   0  0  0  0  0  0
  -25.2854   -9.5588   22.4629 H   0  0  0  0  0  0
  -23.9991   -7.4621   22.7434 H   0  0  0  0  0  0
  -21.0927   -8.8700   19.8870 H   0  0  0  0  0  0
  -22.3863  -10.9512   19.5957 H   0  0  0  0  0  0
  -21.2002   -7.6154   23.9749 H   0  0  0  0  0  0
  -21.1540   -6.0523   25.9104 H   0  0  0  0  0  0
  -22.0563   -2.7625   23.2861 H   0  0  0  0  0  0
  -22.4201  -11.9689   22.4859 H   0  0  0  0  0  0
  -21.1071  -13.0811   22.2677 H   0  0  0  0  0  0
  -24.5980  -15.8623   20.5637 H   0  0  0  0  0  0
  -26.2245  -15.6658   20.1127 H   0  0  0  0  0  0
  -26.7921  -32.4424   23.0472 H   0  0  0  0  0  0
  -24.9928  -33.8832   24.9494 H   0  0  0  0  0  0
  -22.9942  -31.1165   21.1896 H   0  0  0  0  0  0
  -23.3890  -35.9163   23.2928 H   0  0  0  0  0  0
  -24.3619  -36.9086   22.2160 H   0  0  0  0  0  0
  -23.7088  -37.5915   23.7046 H   0  0  0  0  0  0
  -26.4900  -30.8906   20.6505 H   0  0  0  0  0  0
  -27.0528  -30.3176   22.1476 H   0  0  0  0  0  0
  -28.2625  -27.7644   21.4109 H   0  0  0  0  0  0
  -25.8586  -25.2535   18.9764 H   0  0  0  0  0  0
  -24.2285  -26.9777   18.8771 H   0  0  0  0  0  0
  -24.1402  -30.1938   19.3449 H   0  0  0  0  0  0
  -23.0261  -28.9518   19.8074 H   0  0  0  0  0  0
  -25.1380  -36.1236   25.0691 H   0  0  0  0  0  0
  -21.0127  -28.3569   24.1144 H   0  0  0  0  0  0
  -20.5608  -26.2525   23.3755 H   0  0  0  0  0  0
  -21.6680  -26.7271   22.1290 H   0  0  0  0  0  0
  -19.6960  -25.6222   21.1357 H   0  0  0  0  0  0
  -19.6789  -27.3073   20.6689 H   0  0  0  0  0  0
  -17.4273  -26.6735   21.3993 H   0  0  0  0  0  0
  -18.0354  -26.0156   22.9022 H   0  0  0  0  0  0
  -19.8060  -30.7421   24.2043 H   0  0  0  0  0  0
  -17.5113  -31.6292   24.5177 H   0  0  0  0  0  0
  -15.5440  -30.2955   23.7791 H   0  0  0  0  0  0
  -15.8777  -28.0809   22.7162 H   0  0  0  0  0  0
  -24.5878  -30.7150   25.7339 H   0  0  0  0  0  0
  -24.8654  -32.3207   26.3962 H   0  0  0  0  0  0
  -25.7589  -30.9436   27.0167 H   0  0  0  0  0  0
  -26.3623  -29.6058   24.2100 H   0  0  0  0  0  0
  -27.4025  -29.7396   25.5990 H   0  0  0  0  0  0
  -27.9649  -30.3657   24.0761 H   0  0  0  0  0  0
  -27.2467  -33.3899   26.1534 H   0  0  0  0  0  0
  -28.4100  -32.6670   25.0519 H   0  0  0  0  0  0
  -28.0350  -31.8881   26.5821 H   0  0  0  0  0  0
  -28.2273  -38.0149   24.7831 H   0  0  0  0  0  0
  -28.1388  -36.2716   24.5739 H   0  0  0  0  0  0
  -27.2379  -37.0557   25.8785 H   0  0  0  0  0  0
  -21.0163  -29.8476   21.6050 H   0  0  0  0  0  0
  -25.9929  -38.2460   24.1754 H   0  0  0  0  0  0
  -35.3688  -17.6854   22.1046 H   0  0  0  0  0  0
  -34.2110  -15.4393   22.3232 H   0  0  0  0  0  0
  -33.9019  -19.4919   21.7782 H   0  0  0  0  0  0
  -32.0211  -21.7718   21.2709 H   0  0  0  0  0  0
  -32.6854  -20.4749   20.1479 H   0  0  0  0  0  0
  -30.6070  -20.2663   22.3936 H   0  0  0  0  0  0
  -29.0193  -16.0732   22.7427 H   0  0  0  0  0  0
  -29.7472  -17.1691   23.7465 H   0  0  0  0  0  0
  -30.4805  -18.4524   18.3092 H   0  0  0  0  0  0
  -31.5853  -19.5609   18.7167 H   0  0  0  0  0  0
  -32.6124  -16.2793   19.6013 H   0  0  0  0  0  0
  -33.3402  -17.5260   20.2736 H   0  0  0  0  0  0
  -28.4026  -19.6776   19.5723 H   0  0  0  0  0  0
  -26.5915  -21.3358   20.8613 H   0  0  0  0  0  0
  -26.6038  -23.0687   21.1889 H   0  0  0  0  0  0
  -27.6080  -21.9786   22.1416 H   0  0  0  0  0  0
  -27.4467  -21.4851   18.4136 H   0  0  0  0  0  0
  -28.8703  -22.4466   18.0507 H   0  0  0  0  0  0
  -27.3441  -23.2329   18.4774 H   0  0  0  0  0  0
  1 25  1  0  0  0
  1 30  2  0  0  0
  1 88  1  0  0  0
  2  3  1  0  0  0
  2 25  1  0  0  0
  2 91  1  0  0  0
  2 92  1  0  0  0
  3  4  1  0  0  0
  3 93  1  0  0  0
  3 94  1  0  0  0
  4  5  1  0  0  0
  4 95  1  0  0  0
  4 96  1  0  0  0
  5  6  1  0  0  0
  5 26  1  0  0  0
  5 97  1  0  0  0
  6 25  1  0  0  0
  6 98  1  0  0  0
  6 99  1  0  0  0
  7  8  2  0  0  0
  7 26  1  0  0  0
  7 29  1  0  0  0
  8  9  1  0  0  0
  8 22  1  0  0  0
  9 10  1  0  0  0
  9 27  2  0  0  0
 10 11  2  0  0  0
 10 15  1  0  0  0
 11 12  1  0  0  0
 11100  1  0  0  0
 12 13  2  0  0  0
 12101  1  0  0  0
 13 14  1  0  0  0
 13 31  1  0  0  0
 14 15  2  0  0  0
 14102  1  0  0  0
 15103  1  0  0  0
 16 17  2  0  0  0
 16 21  1  0  0  0
 16 31  1  0  0  0
 17 18  1  0  0  0
 17104  1  0  0  0
 18 19  2  0  0  0
 18105  1  0  0  0
 19 20  1  0  0  0
 19 24  1  0  0  0
 20 21  2  0  0  0
 20106  1  0  0  0
 21 23  1  0  0  0
 22 28  1  0  0  0
 22 32  2  0  0  0
 26 27  1  0  0  0
 28107  1  0  0  0
 28108  1  0  0  0
 29109  1  0  0  0
 29110  1  0  0  0
 33 34  1  0  0  0
 33 66  1  0  0  0
 33 70  2  0  0  0
 34 36  1  0  0  0
 34 59  1  0  0  0
 34111  1  0  0  0
 35 44  2  0  0  0
 35 45  1  0  0  0
 35 68  1  0  0  0
 36 56  1  0  0  0
 36112  1  0  0  0
 37 39  1  0  0  0
 37 47  1  0  0  0
 37 66  1  0  0  0
 37113  1  0  0  0
 38 43  2  0  0  0
 38 46  1  0  0  0
 38 47  1  0  0  0
 39 64  1  0  0  0
 39 67  2  0  0  0
 40 52  1  0  0  0
 40 53  2  0  0  0
 40 58  1  0  0  0
 41114  1  0  0  0
 41115  1  0  0  0
 41116  1  0  0  0
 41 48  1  0  0  0
 42 43  1  0  0  0
 42 66  1  0  0  0
 42117  1  0  0  0
 42118  1  0  0  0
 43 44  1  0  0  0
 44119  1  0  0  0
 45 46  2  0  0  0
 45120  1  0  0  0
 46121  1  0  0  0
 47122  1  0  0  0
 47123  1  0  0  0
 48 56  1  0  0  0
 48 65  1  0  0  0
 48124  1  0  0  0
 49 50  1  0  0  0
 49 53  1  0  0  0
 49 64  1  0  0  0
 49125  1  0  0  0
 50 51  1  0  0  0
 50126  1  0  0  0
 50127  1  0  0  0
 51 52  1  0  0  0
 51128  1  0  0  0
 51129  1  0  0  0
 52130  1  0  0  0
 52131  1  0  0  0
 53 54  1  0  0  0
 54 55  2  0  0  0
 54132  1  0  0  0
 55 57  1  0  0  0
 55133  1  0  0  0
 56 69  2  0  0  0
 57 58  2  0  0  0
 57134  1  0  0  0
 58135  1  0  0  0
 59 60  1  0  0  0
 59 61  1  0  0  0
 59 62  1  0  0  0
 60136  1  0  0  0
 60137  1  0  0  0
 60138  1  0  0  0
 61139  1  0  0  0
 61140  1  0  0  0
 61141  1  0  0  0
 62142  1  0  0  0
 62143  1  0  0  0
 62144  1  0  0  0
 63 65  1  0  0  0
 63145  1  0  0  0
 63146  1  0  0  0
 63147  1  0  0  0
 64148  1  0  0  0
 65149  1  0  0  0
 68 86  1  0  0  0
 71 72  2  0  0  0
 71 73  1  0  0  0
 71150  1  0  0  0
 72 74  1  0  0  0
 72151  1  0  0  0
 73 75  2  0  0  0
 73152  1  0  0  0
 74 76  2  0  0  0
 74 87  1  0  0  0
 75 76  1  0  0  0
 75 88  1  0  0  0
 76 90  1  0  0  0
 77 80  1  0  0  0
 77 83  1  0  0  0
 77 89  2  0  0  0
 78 79  2  0  0  0
 78153  1  0  0  0
 78154  1  0  0  0
 79 88  1  0  0  0
 79155  1  0  0  0
 80 87  1  0  0  0
 80156  1  0  0  0
 80157  1  0  0  0
 81 82  1  0  0  0
 81158  1  0  0  0
 81159  1  0  0  0
 81 83  1  0  0  0
 82 87  1  0  0  0
 82160  1  0  0  0
 82161  1  0  0  0
 83 86  1  0  0  0
 83162  1  0  0  0
 84163  1  0  0  0
 84164  1  0  0  0
 84165  1  0  0  0
 84 86  1  0  0  0
 85 86  1  0  0  0
 85166  1  0  0  0
 85167  1  0  0  0
 85168  1  0  0  0
M  ISO  4   1 100  68 101  86 101  88 100
M  END
> <chiral flag>
0

> <version>
0

> <s_m_source_file>
/data/baiqing/PycharmProjects/Reinvent-master-3.2/result/LINK_invent/BTK/process_docking_weight1_custom_product_contain_oxygen_bond_distance_aromatic_linkinvent_7_9_3/rearranged_h_0076.sdf

> <i_m_source_file_index>
5

> <r_mmod_Potential_Energy-OPLS-2005>
16141.890625

> <r_mmod_Stretch_Energy-OPLS-2005>
8550.6796875

> <r_mmod_Bend_Energy-OPLS-2005>
1628.9794921875

> <r_mmod_Torsional_Energy-OPLS-2005>
660.319396972656

> <r_mmod_Improper_Torsional_Energy-OPLS-2005>
146.874725341797

> <r_mmod_Van_der_Waal_Energy-OPLS-2005>
2356.49243164062

> <r_mmod_Electrostatic_Energy-OPLS-2005>
-226.444839477539

> <r_mmod_Solvation_Energy-OPLS-2005>
-206.394287109375

> <b_mmod_Minimization_Converged-OPLS-2005>
0

> <r_mmod_RMS_Derivative-OPLS-2005>
16.3544883728027

$$$$
5
                    3D
 Structure written by MMmdl.
162171  0  0  1  0            999 V2000
  -30.5825  -14.7005   20.4837 C   0  0  0  0  0  0
  -30.4493  -12.4275   19.4595 C   0  0  0  0  0  0
  -29.5150  -12.5122   18.2299 C   0  0  0  0  0  0
  -28.0388  -12.3379   18.6408 C   0  0  0  0  0  0
  -27.6542  -13.2155   19.8607 C   0  0  2  0  0  0
  -28.6987  -13.0846   20.9922 C   0  0  0  0  0  0
  -25.2624  -13.8201   20.5721 C   0  0  0  0  0  0
  -24.1883  -13.0482   20.9266 C   0  0  0  0  0  0
  -24.6410  -11.6936   20.8762 C   0  0  0  0  0  0
  -23.9063  -10.4316   21.0409 C   0  0  0  0  0  0
  -24.3614   -9.4225   21.9177 C   0  0  0  0  0  0
  -23.6297   -8.2257   22.0750 C   0  0  0  0  0  0
  -22.4280   -8.0289   21.3541 C   0  0  0  0  0  0
  -21.9910   -9.0265   20.4646 C   0  0  0  0  0  0
  -22.7236  -10.2151   20.3058 C   0  0  0  0  0  0
  -21.6859   -6.0734   22.5273 C   0  0  0  0  0  0
  -21.4017   -6.5637   23.8205 C   0  0  0  0  0  0
  -21.3662   -5.6792   24.9168 C   0  0  0  0  0  0
  -21.6047   -4.3057   24.7220 C   0  0  0  0  0  0
  -21.8821   -3.8146   23.4343 C   0  0  0  0  0  0
  -21.9196   -4.6961   22.3399 C   0  0  0  0  0  0
  -22.7902  -13.5280   21.1895 C   0  0  0  0  0  0
  -22.1665   -4.2147   21.0975 F   0  0  0  0  0  0
  -21.5628   -3.4543   25.7731 F   0  0  0  0  0  0
  -30.0089  -13.4520   20.4297 N   0  0  0  0  0  0
  -26.2998  -12.9348   20.3283 N   0  0  0  0  0  0
  -25.9323  -11.6516   20.5732 N   0  0  0  0  0  0
  -22.0511  -12.8263   22.0417 N   0  0  0  0  0  0
  -25.4431  -15.1922   20.4046 N   0  0  0  0  0  0
  -31.7413  -14.8859   20.0984 O   0  0  0  0  0  0
  -21.6651   -6.8881   21.4235 O   0  0  0  0  0  0
  -22.3616  -14.5584   20.6717 O   0  0  0  0  0  0
  -24.6288  -31.8581   23.1998 C   0  0  0  0  0  0
  -25.9118  -32.4778   23.8346 C   0  0  1  0  0  0
  -27.2247  -27.2871   20.1174 C   0  0  0  0  0  0
  -25.5916  -33.8578   24.2265 N   0  0  0  0  0  0
  -23.4252  -30.4804   21.5436 C   0  0  2  0  0  0
  -24.8729  -28.9340   20.1093 C   0  0  0  0  0  0
  -22.7487  -29.4619   22.4925 C   0  0  0  0  0  0
  -18.0289  -28.1397   22.8496 C   0  0  0  0  0  0
  -24.1483  -36.7287   23.2637 C   0  0  0  0  0  0
  -25.9696  -30.7774   21.3784 C   0  0  0  0  0  0
  -26.0436  -29.4028   20.7188 C   0  0  0  0  0  0
  -27.2203  -28.5903   20.7150 C   0  0  0  0  0  0
  -26.0320  -26.8898   19.4681 C   0  0  0  0  0  0
  -24.8714  -27.6847   19.4739 C   0  0  0  0  0  0
  -23.6426  -29.8166   20.1594 C   0  0  0  0  0  0
  -25.4115  -36.3087   24.0326 C   0  0  1  0  0  0
  -20.5892  -28.3705   23.1275 C   0  0  2  0  0  0
  -20.6769  -26.9424   22.5408 C   0  0  0  0  0  0
  -19.5744  -26.6394   21.5214 C   0  0  0  0  0  0
  -18.1932  -26.7942   22.1633 C   0  0  0  0  0  0
  -19.1543  -28.8869   23.2881 C   0  0  0  0  0  0
  -18.9470  -30.1466   23.8905 C   0  0  0  0  0  0
  -17.6469  -30.6599   24.0573 C   0  0  0  0  0  0
  -25.9050  -34.9454   23.5101 C   0  0  0  0  0  0
  -16.5359  -29.9100   23.6331 C   0  0  0  0  0  0
  -16.7276  -28.6515   23.0362 C   0  0  0  0  0  0
  -26.4486  -31.6600   25.0729 C   0  0  0  0  0  0
  -25.3710  -31.3747   26.1455 C   0  0  0  0  0  0
  -27.0324  -30.3013   24.6208 C   0  0  0  0  0  0
  -27.6042  -32.4330   25.7507 C   0  0  0  0  0  0
  -27.5579  -37.1805   24.8466 C   0  0  0  0  0  0
  -21.4198  -29.3054   22.3665 N   0  0  0  0  0  0
  -26.4291  -37.3784   23.9414 N   0  0  0  0  0  0
  -24.6939  -31.0553   22.0974 N   0  0  0  0  0  0
  -23.4194  -28.8153   23.3018 O   0  0  0  0  0  0
  -28.3248  -26.4032   20.1880 O   0  0  0  0  0  0
  -26.5634  -34.8923   22.4676 O   0  0  0  0  0  0
  -23.5437  -32.1395   23.7293 O   0  0  0  0  0  0
  -30.4810  -19.4669   20.0280 C   0  0  0  0  0  0
  -30.6394  -18.0365   20.0770 C   0  0  0  0  0  0
  -28.4940  -19.3166   21.2919 C   0  0  0  0  0  0
  -29.4113  -20.1950   20.6433 C   0  0  0  0  0  0
  -29.7062  -17.1937   20.7419 C   0  0  0  0  0  0
  -28.6166  -17.8897   21.3372 C   0  0  0  0  0  0
  -28.4283  -22.6171   21.2932 C   0  0  0  0  0  0
  -27.4151  -17.0287   23.2862 C   0  0  0  0  0  0
  -29.5640  -22.5786   19.5682 C   0  0  0  0  0  0
  -29.1141  -23.7987   20.4766 C   0  0  2  0  0  0
  -26.3053  -16.0937   23.7424 C   0  0  0  0  0  0
  -30.1996  -24.4692   21.3252 C   0  0  0  0  0  0
  -28.0973  -24.9369   19.9610 C   0  0  0  0  0  0
  -29.2690  -21.6710   20.6857 N   0  0  0  0  0  0
  -27.5932  -17.1338   21.9642 N   0  0  0  0  0  0
  -29.7342  -15.7198   20.8510 N   0  0  0  0  0  0
  -27.5121  -22.4886   22.0776 O   0  0  0  0  0  0
  -28.0972  -17.6338   24.1170 O   0  0  0  0  0  0
  -31.4872  -12.5727   19.1550 H   0  0  0  0  0  0
  -30.4063  -11.4358   19.9116 H   0  0  0  0  0  0
  -29.7907  -11.7541   17.4955 H   0  0  0  0  0  0
  -29.6450  -13.4766   17.7357 H   0  0  0  0  0  0
  -27.8857  -11.2853   18.8830 H   0  0  0  0  0  0
  -27.3829  -12.5544   17.7968 H   0  0  0  0  0  0
  -27.6691  -14.2474   19.5106 H   0  0  0  0  0  0
  -28.7263  -12.0629   21.3740 H   0  0  0  0  0  0
  -28.4323  -13.7104   21.8452 H   0  0  0  0  0  0
  -25.2759   -9.5705   22.4750 H   0  0  0  0  0  0
  -24.0014   -7.4648   22.7462 H   0  0  0  0  0  0
  -21.0846   -8.8782   19.8945 H   0  0  0  0  0  0
  -22.3689  -10.9691   19.6169 H   0  0  0  0  0  0
  -21.2010   -7.6145   23.9707 H   0  0  0  0  0  0
  -21.1482   -6.0521   25.9069 H   0  0  0  0  0  0
  -22.0598   -2.7609   23.2841 H   0  0  0  0  0  0
  -22.4111  -11.9919   22.4810 H   0  0  0  0  0  0
  -21.1113  -13.1270   22.2577 H   0  0  0  0  0  0
  -24.5850  -15.7334   20.3760 H   0  0  0  0  0  0
  -26.0698  -15.4656   19.6581 H   0  0  0  0  0  0
  -26.7189  -32.5449   23.1096 H   0  0  0  0  0  0
  -25.0045  -33.9716   25.0399 H   0  0  0  0  0  0
  -22.7221  -31.3032   21.3986 H   0  0  0  0  0  0
  -23.3749  -35.9615   23.3307 H   0  0  0  0  0  0
  -24.3562  -36.8906   22.2048 H   0  0  0  0  0  0
  -23.7227  -37.6486   23.6661 H   0  0  0  0  0  0
  -26.1051  -31.5393   20.6092 H   0  0  0  0  0  0
  -26.8474  -30.8263   22.0113 H   0  0  0  0  0  0
  -28.1154  -28.9403   21.2101 H   0  0  0  0  0  0
  -25.9640  -25.9414   18.9574 H   0  0  0  0  0  0
  -23.9777  -27.3232   18.9841 H   0  0  0  0  0  0
  -23.7656  -30.5933   19.4035 H   0  0  0  0  0  0
  -22.7619  -29.2482   19.8543 H   0  0  0  0  0  0
  -25.1292  -36.1937   25.0817 H   0  0  0  0  0  0
  -20.9999  -28.3285   24.1389 H   0  0  0  0  0  0
  -20.5666  -26.2320   23.3611 H   0  0  0  0  0  0
  -21.6641  -26.7445   22.1210 H   0  0  0  0  0  0
  -19.6896  -25.6305   21.1246 H   0  0  0  0  0  0
  -19.6676  -27.3199   20.6739 H   0  0  0  0  0  0
  -17.4193  -26.6696   21.4038 H   0  0  0  0  0  0
  -18.0333  -26.0083   22.9024 H   0  0  0  0  0  0
  -19.7945  -30.7286   24.2280 H   0  0  0  0  0  0
  -17.5023  -31.6281   24.5176 H   0  0  0  0  0  0
  -15.5359  -30.3011   23.7649 H   0  0  0  0  0  0
  -15.8673  -28.0827   22.7092 H   0  0  0  0  0  0
  -24.5886  -30.7090   25.7795 H   0  0  0  0  0  0
  -24.8895  -32.2917   26.4867 H   0  0  0  0  0  0
  -25.8027  -30.8943   27.0243 H   0  0  0  0  0  0
  -26.2903  -29.6777   24.1211 H   0  0  0  0  0  0
  -27.3977  -29.7263   25.4727 H   0  0  0  0  0  0
  -27.8797  -30.4281   23.9465 H   0  0  0  0  0  0
  -27.2655  -33.3635   26.2076 H   0  0  0  0  0  0
  -28.3868  -32.6886   25.0349 H   0  0  0  0  0  0
  -28.0700  -31.8462   26.5435 H   0  0  0  0  0  0
  -28.2608  -38.0089   24.7521 H   0  0  0  0  0  0
  -28.1063  -36.2628   24.6291 H   0  0  0  0  0  0
  -27.2296  -37.1459   25.8866 H   0  0  0  0  0  0
  -20.9374  -29.8794   21.6888 H   0  0  0  0  0  0
  -26.0168  -38.2857   24.1416 H   0  0  0  0  0  0
  -31.2441  -20.0314   19.5103 H   0  0  0  0  0  0
  -31.4957  -17.5944   19.5873 H   0  0  0  0  0  0
  -27.6412  -19.7572   21.7878 H   0  0  0  0  0  0
  -30.6156  -22.5964   19.2768 H   0  0  0  0  0  0
  -28.9159  -22.4071   18.7047 H   0  0  0  0  0  0
  -26.4522  -15.0985   23.3221 H   0  0  0  0  0  0
  -25.3356  -16.4664   23.4129 H   0  0  0  0  0  0
  -26.2901  -16.0061   24.8292 H   0  0  0  0  0  0
  -30.8625  -23.7411   21.7952 H   0  0  0  0  0  0
  -29.7664  -25.0750   22.1216 H   0  0  0  0  0  0
  -30.8215  -25.1248   20.7158 H   0  0  0  0  0  0
  -27.1231  -24.7025   20.3913 H   0  0  0  0  0  0
  -27.9702  -24.8101   18.8855 H   0  0  0  0  0  0
  -26.9823  -16.5798   21.3740 H   0  0  0  0  0  0
  -28.8773  -15.3463   21.2260 H   0  0  0  0  0  0
  1 25  1  0  0  0
  1 30  2  0  0  0
  1 86  1  0  0  0
  2  3  1  0  0  0
  2 25  1  0  0  0
  2 89  1  0  0  0
  2 90  1  0  0  0
  3  4  1  0  0  0
  3 91  1  0  0  0
  3 92  1  0  0  0
  4  5  1  0  0  0
  4 93  1  0  0  0
  4 94  1  0  0  0
  5  6  1  0  0  0
  5 26  1  0  0  0
  5 95  1  0  0  0
  6 25  1  0  0  0
  6 96  1  0  0  0
  6 97  1  0  0  0
  7  8  2  0  0  0
  7 26  1  0  0  0
  7 29  1  0  0  0
  8  9  1  0  0  0
  8 22  1  0  0  0
  9 10  1  0  0  0
  9 27  2  0  0  0
 10 11  2  0  0  0
 10 15  1  0  0  0
 11 12  1  0  0  0
 11 98  1  0  0  0
 12 13  2  0  0  0
 12 99  1  0  0  0
 13 14  1  0  0  0
 13 31  1  0  0  0
 14 15  2  0  0  0
 14100  1  0  0  0
 15101  1  0  0  0
 16 17  2  0  0  0
 16 21  1  0  0  0
 16 31  1  0  0  0
 17 18  1  0  0  0
 17102  1  0  0  0
 18 19  2  0  0  0
 18103  1  0  0  0
 19 20  1  0  0  0
 19 24  1  0  0  0
 20 21  2  0  0  0
 20104  1  0  0  0
 21 23  1  0  0  0
 22 28  1  0  0  0
 22 32  2  0  0  0
 26 27  1  0  0  0
 28105  1  0  0  0
 28106  1  0  0  0
 29107  1  0  0  0
 29108  1  0  0  0
 33 34  1  0  0  0
 33 66  1  0  0  0
 33 70  2  0  0  0
 34 36  1  0  0  0
 34 59  1  0  0  0
 34109  1  0  0  0
 35 44  2  0  0  0
 35 45  1  0  0  0
 35 68  1  0  0  0
 36 56  1  0  0  0
 36110  1  0  0  0
 37 39  1  0  0  0
 37 47  1  0  0  0
 37 66  1  0  0  0
 37111  1  0  0  0
 38 43  2  0  0  0
 38 46  1  0  0  0
 38 47  1  0  0  0
 39 64  1  0  0  0
 39 67  2  0  0  0
 40 52  1  0  0  0
 40 53  2  0  0  0
 40 58  1  0  0  0
 41112  1  0  0  0
 41113  1  0  0  0
 41114  1  0  0  0
 41 48  1  0  0  0
 42 43  1  0  0  0
 42 66  1  0  0  0
 42115  1  0  0  0
 42116  1  0  0  0
 43 44  1  0  0  0
 44117  1  0  0  0
 45 46  2  0  0  0
 45118  1  0  0  0
 46119  1  0  0  0
 47120  1  0  0  0
 47121  1  0  0  0
 48 56  1  0  0  0
 48 65  1  0  0  0
 48122  1  0  0  0
 49 50  1  0  0  0
 49 53  1  0  0  0
 49 64  1  0  0  0
 49123  1  0  0  0
 50 51  1  0  0  0
 50124  1  0  0  0
 50125  1  0  0  0
 51 52  1  0  0  0
 51126  1  0  0  0
 51127  1  0  0  0
 52128  1  0  0  0
 52129  1  0  0  0
 53 54  1  0  0  0
 54 55  2  0  0  0
 54130  1  0  0  0
 55 57  1  0  0  0
 55131  1  0  0  0
 56 69  2  0  0  0
 57 58  2  0  0  0
 57132  1  0  0  0
 58133  1  0  0  0
 59 60  1  0  0  0
 59 61  1  0  0  0
 59 62  1  0  0  0
 60134  1  0  0  0
 60135  1  0  0  0
 60136  1  0  0  0
 61137  1  0  0  0
 61138  1  0  0  0
 61139  1  0  0  0
 62140  1  0  0  0
 62141  1  0  0  0
 62142  1  0  0  0
 63 65  1  0  0  0
 63143  1  0  0  0
 63144  1  0  0  0
 63145  1  0  0  0
 64146  1  0  0  0
 65147  1  0  0  0
 68 83  1  0  0  0
 71 72  2  0  0  0
 71 74  1  0  0  0
 71148  1  0  0  0
 72 75  1  0  0  0
 72149  1  0  0  0
 73 74  2  0  0  0
 73 76  1  0  0  0
 73150  1  0  0  0
 74 84  1  0  0  0
 75 76  2  0  0  0
 75 86  1  0  0  0
 76 85  1  0  0  0
 77 80  1  0  0  0
 77 84  1  0  0  0
 77 87  2  0  0  0
 78 81  1  0  0  0
 78 85  1  0  0  0
 78 88  2  0  0  0
 79 80  1  0  0  0
 79 84  1  0  0  0
 79151  1  0  0  0
 79152  1  0  0  0
 80 82  1  0  0  0
 80 83  1  0  0  0
 81153  1  0  0  0
 81154  1  0  0  0
 81155  1  0  0  0
 82156  1  0  0  0
 82157  1  0  0  0
 82158  1  0  0  0
 83159  1  0  0  0
 83160  1  0  0  0
 85161  1  0  0  0
 86162  1  0  0  0
M  ISO  4   1 100  68 101  83 101  86 100
M  END
> <chiral flag>
0

> <version>
0

> <s_m_source_file>
/data/baiqing/PycharmProjects/Reinvent-master-3.2/result/LINK_invent/BTK/process_docking_weight1_custom_product_contain_oxygen_bond_distance_aromatic_linkinvent_7_9_3/rearranged_h_0076.sdf

> <i_m_source_file_index>
6

> <r_mmod_Potential_Energy-OPLS-2005>
24.2618274688721

> <r_mmod_Stretch_Energy-OPLS-2005>
101.492370605469

> <r_mmod_Bend_Energy-OPLS-2005>
187.30989074707

> <r_mmod_Torsional_Energy-OPLS-2005>
283.107238769531

> <r_mmod_Improper_Torsional_Energy-OPLS-2005>
10.375602722168

> <r_mmod_Van_der_Waal_Energy-OPLS-2005>
133.482620239258

> <r_mmod_Electrostatic_Energy-OPLS-2005>
-513.089782714844

> <r_mmod_Solvation_Energy-OPLS-2005>
-247.859146118164

> <b_mmod_Minimization_Converged-OPLS-2005>
0

> <r_mmod_RMS_Derivative-OPLS-2005>
1.23983132839203

$$$$
6
                    3D
 Structure written by MMmdl.
159168  0  0  1  0            999 V2000
  -30.6443  -14.6506   20.5451 C   0  0  0  0  0  0
  -30.4412  -12.4140   19.4626 C   0  0  0  0  0  0
  -29.5110  -12.5235   18.2322 C   0  0  0  0  0  0
  -28.0311  -12.3565   18.6304 C   0  0  0  0  0  0
  -27.6553  -13.2145   19.8668 C   0  0  2  0  0  0
  -28.6944  -13.0319   20.9909 C   0  0  0  0  0  0
  -25.2573  -13.8177   20.5678 C   0  0  0  0  0  0
  -24.1838  -13.0436   20.9171 C   0  0  0  0  0  0
  -24.6404  -11.6914   20.8728 C   0  0  0  0  0  0
  -23.9069  -10.4301   21.0410 C   0  0  0  0  0  0
  -24.3623   -9.4226   21.9190 C   0  0  0  0  0  0
  -23.6307   -8.2257   22.0756 C   0  0  0  0  0  0
  -22.4288   -8.0285   21.3538 C   0  0  0  0  0  0
  -21.9928   -9.0260   20.4637 C   0  0  0  0  0  0
  -22.7252  -10.2141   20.3056 C   0  0  0  0  0  0
  -21.6844   -6.0748   22.5278 C   0  0  0  0  0  0
  -21.4010   -6.5646   23.8216 C   0  0  0  0  0  0
  -21.3656   -5.6800   24.9179 C   0  0  0  0  0  0
  -21.6045   -4.3061   24.7230 C   0  0  0  0  0  0
  -21.8820   -3.8158   23.4345 C   0  0  0  0  0  0
  -21.9189   -4.6977   22.3402 C   0  0  0  0  0  0
  -22.7863  -13.5225   21.1849 C   0  0  0  0  0  0
  -22.1655   -4.2175   21.0975 F   0  0  0  0  0  0
  -21.5632   -3.4545   25.7741 F   0  0  0  0  0  0
  -30.0129  -13.4247   20.4576 N   0  0  0  0  0  0
  -26.2995  -12.9349   20.3317 N   0  0  0  0  0  0
  -25.9325  -11.6502   20.5727 N   0  0  0  0  0  0
  -22.0509  -12.8213   22.0415 N   0  0  0  0  0  0
  -25.4298  -15.1902   20.4108 N   0  0  0  0  0  0
  -31.7451  -14.8302   20.0121 O   0  0  0  0  0  0
  -21.6634   -6.8894   21.4240 O   0  0  0  0  0  0
  -22.3540  -14.5524   20.6706 O   0  0  0  0  0  0
  -24.6256  -31.8578   23.2011 C   0  0  0  0  0  0
  -25.9112  -32.4766   23.8330 C   0  0  1  0  0  0
  -27.2412  -27.3327   20.1300 C   0  0  0  0  0  0
  -25.5939  -33.8550   24.2270 N   0  0  0  0  0  0
  -23.4186  -30.4775   21.5442 C   0  0  2  0  0  0
  -24.8708  -28.9264   20.1167 C   0  0  0  0  0  0
  -22.7448  -29.4624   22.4972 C   0  0  0  0  0  0
  -18.0257  -28.1382   22.8484 C   0  0  0  0  0  0
  -24.1479  -36.7257   23.2652 C   0  0  0  0  0  0
  -25.9558  -30.7965   21.3663 C   0  0  0  0  0  0
  -26.0369  -29.4215   20.7154 C   0  0  0  0  0  0
  -27.2271  -28.6384   20.7035 C   0  0  0  0  0  0
  -26.0548  -26.8759   19.5192 C   0  0  0  0  0  0
  -24.8818  -27.6598   19.5079 C   0  0  0  0  0  0
  -23.6322  -29.8005   20.1638 C   0  0  0  0  0  0
  -25.4108  -36.3043   24.0322 C   0  0  1  0  0  0
  -20.5855  -28.3693   23.1274 C   0  0  2  0  0  0
  -20.6757  -26.9429   22.5386 C   0  0  0  0  0  0
  -19.5724  -26.6376   21.5198 C   0  0  0  0  0  0
  -18.1894  -26.7928   22.1612 C   0  0  0  0  0  0
  -19.1514  -28.8859   23.2858 C   0  0  0  0  0  0
  -18.9456  -30.1475   23.8866 C   0  0  0  0  0  0
  -17.6460  -30.6604   24.0560 C   0  0  0  0  0  0
  -25.9046  -34.9427   23.5090 C   0  0  0  0  0  0
  -16.5336  -29.9100   23.6363 C   0  0  0  0  0  0
  -16.7254  -28.6505   23.0391 C   0  0  0  0  0  0
  -26.4533  -31.6586   25.0695 C   0  0  0  0  0  0
  -25.3786  -31.3633   26.1416 C   0  0  0  0  0  0
  -27.0506  -30.3075   24.6117 C   0  0  0  0  0  0
  -27.6046  -32.4394   25.7481 C   0  0  0  0  0  0
  -27.5555  -37.1776   24.8478 C   0  0  0  0  0  0
  -21.4159  -29.3051   22.3688 N   0  0  0  0  0  0
  -26.4284  -37.3744   23.9405 N   0  0  0  0  0  0
  -24.6852  -31.0597   22.0951 N   0  0  0  0  0  0
  -23.4157  -28.8189   23.3077 O   0  0  0  0  0  0
  -28.3804  -26.5208   20.1278 O   0  0  0  0  0  0
  -26.5610  -34.8896   22.4651 O   0  0  0  0  0  0
  -23.5435  -32.1379   23.7350 O   0  0  0  0  0  0
  -29.3622  -18.3436   21.6124 C   0  0  0  0  0  0
  -29.1628  -19.6838   21.1631 C   0  0  0  0  0  0
  -30.1596  -17.7010   19.4642 C   0  0  0  0  0  0
  -29.8497  -17.2832   20.7847 C   0  0  0  0  0  0
  -29.4332  -20.0964   19.8348 C   0  0  0  0  0  0
  -29.9770  -19.0451   19.0084 C   0  0  0  0  0  0
  -28.9093  -22.6469   20.1405 C   0  0  0  0  0  0
  -28.5835  -23.9041   19.6568 C   0  0  0  0  0  0
  -28.3991  -23.9806   18.2098 C   0  0  0  0  0  0
  -28.5210  -25.1179   17.4993 C   0  0  0  0  0  0
  -29.9675  -15.8359   21.3440 C   0  0  0  0  0  0
  -28.0100  -22.7006   17.4989 C   0  0  0  0  0  0
  -28.9061  -21.5240   17.9230 C   0  0  0  0  0  0
  -28.2725  -25.1251   20.6114 C   0  0  0  0  0  0
  -29.5506  -15.6223   22.5237 N   0  0  0  0  0  0
  -29.1306  -21.4489   19.3769 N   0  0  0  0  0  0
  -30.3587  -19.2943   17.7309 F   0  0  0  0  0  0
  -31.4808  -12.5442   19.1593 H   0  0  0  0  0  0
  -30.3938  -11.4147   19.8976 H   0  0  0  0  0  0
  -29.7823  -11.7731   17.4887 H   0  0  0  0  0  0
  -29.6508  -13.4953   17.7569 H   0  0  0  0  0  0
  -27.8633  -11.3009   18.8485 H   0  0  0  0  0  0
  -27.3823  -12.5998   17.7881 H   0  0  0  0  0  0
  -27.6849  -14.2570   19.5510 H   0  0  0  0  0  0
  -28.7243  -11.9878   21.3064 H   0  0  0  0  0  0
  -28.3894  -13.5740   21.8812 H   0  0  0  0  0  0
  -25.2772   -9.5696   22.4765 H   0  0  0  0  0  0
  -24.0012   -7.4644   22.7480 H   0  0  0  0  0  0
  -21.0866   -8.8791   19.8928 H   0  0  0  0  0  0
  -22.3737  -10.9688   19.6157 H   0  0  0  0  0  0
  -21.2000   -7.6152   23.9728 H   0  0  0  0  0  0
  -21.1469   -6.0525   25.9080 H   0  0  0  0  0  0
  -22.0603   -2.7623   23.2840 H   0  0  0  0  0  0
  -22.4113  -11.9841   22.4752 H   0  0  0  0  0  0
  -21.1126  -13.1243   22.2642 H   0  0  0  0  0  0
  -24.6727  -15.8529   20.5373 H   0  0  0  0  0  0
  -26.2932  -15.6302   20.1172 H   0  0  0  0  0  0
  -26.7185  -32.5458   23.1076 H   0  0  0  0  0  0
  -25.0194  -33.9706   25.0492 H   0  0  0  0  0  0
  -22.7109  -31.2956   21.3948 H   0  0  0  0  0  0
  -23.3747  -35.9581   23.3305 H   0  0  0  0  0  0
  -24.3560  -36.8920   22.2070 H   0  0  0  0  0  0
  -23.7229  -37.6437   23.6719 H   0  0  0  0  0  0
  -26.0723  -31.5568   20.5930 H   0  0  0  0  0  0
  -26.8403  -30.8559   21.9883 H   0  0  0  0  0  0
  -28.1294  -29.0208   21.1601 H   0  0  0  0  0  0
  -26.0369  -25.9028   19.0486 H   0  0  0  0  0  0
  -23.9901  -27.2745   19.0335 H   0  0  0  0  0  0
  -23.7318  -30.5678   19.3949 H   0  0  0  0  0  0
  -22.7556  -29.2151   19.8820 H   0  0  0  0  0  0
  -25.1282  -36.1899   25.0816 H   0  0  0  0  0  0
  -20.9919  -28.3286   24.1407 H   0  0  0  0  0  0
  -20.5706  -26.2296   23.3571 H   0  0  0  0  0  0
  -21.6625  -26.7488   22.1158 H   0  0  0  0  0  0
  -19.6887  -25.6276   21.1249 H   0  0  0  0  0  0
  -19.6659  -27.3160   20.6697 H   0  0  0  0  0  0
  -17.4167  -26.6709   21.4005 H   0  0  0  0  0  0
  -18.0270  -26.0048   22.8989 H   0  0  0  0  0  0
  -19.7932  -30.7296   24.2210 H   0  0  0  0  0  0
  -17.5019  -31.6294   24.5153 H   0  0  0  0  0  0
  -15.5344  -30.3014   23.7705 H   0  0  0  0  0  0
  -15.8640  -28.0824   22.7161 H   0  0  0  0  0  0
  -24.5960  -30.7018   25.7689 H   0  0  0  0  0  0
  -24.8979  -32.2767   26.4927 H   0  0  0  0  0  0
  -25.8113  -30.8718   27.0143 H   0  0  0  0  0  0
  -26.3125  -29.6673   24.1271 H   0  0  0  0  0  0
  -27.4480  -29.7442   25.4577 H   0  0  0  0  0  0
  -27.8824  -30.4469   23.9195 H   0  0  0  0  0  0
  -27.2621  -33.3724   26.1968 H   0  0  0  0  0  0
  -28.3897  -32.6934   25.0339 H   0  0  0  0  0  0
  -28.0686  -31.8607   26.5479 H   0  0  0  0  0  0
  -28.2559  -38.0092   24.7577 H   0  0  0  0  0  0
  -28.1085  -36.2620   24.6292 H   0  0  0  0  0  0
  -27.2245  -37.1420   25.8878 H   0  0  0  0  0  0
  -20.9354  -29.8780   21.6895 H   0  0  0  0  0  0
  -26.0147  -38.2807   24.1438 H   0  0  0  0  0  0
  -29.1062  -18.1442   22.6425 H   0  0  0  0  0  0
  -28.7620  -20.3949   21.8689 H   0  0  0  0  0  0
  -30.5458  -16.9816   18.7574 H   0  0  0  0  0  0
  -29.0199  -22.5006   21.2051 H   0  0  0  0  0  0
  -28.8139  -26.0593   17.9313 H   0  0  0  0  0  0
  -28.3496  -25.1284   16.4330 H   0  0  0  0  0  0
  -28.0473  -22.8285   16.4158 H   0  0  0  0  0  0
  -26.9728  -22.4756   17.7506 H   0  0  0  0  0  0
  -29.8740  -21.6217   17.4277 H   0  0  0  0  0  0
  -28.4371  -20.6122   17.5476 H   0  0  0  0  0  0
  -28.9622  -25.0484   21.4532 H   0  0  0  0  0  0
  -27.2861  -24.9578   21.0456 H   0  0  0  0  0  0
  -29.1574  -16.4597   22.9316 H   0  0  0  0  0  0
  1 25  1  0  0  0
  1 30  2  0  0  0
  1 81  1  0  0  0
  2  3  1  0  0  0
  2 25  1  0  0  0
  2 88  1  0  0  0
  2 89  1  0  0  0
  3  4  1  0  0  0
  3 90  1  0  0  0
  3 91  1  0  0  0
  4  5  1  0  0  0
  4 92  1  0  0  0
  4 93  1  0  0  0
  5  6  1  0  0  0
  5 26  1  0  0  0
  5 94  1  0  0  0
  6 25  1  0  0  0
  6 95  1  0  0  0
  6 96  1  0  0  0
  7  8  2  0  0  0
  7 26  1  0  0  0
  7 29  1  0  0  0
  8  9  1  0  0  0
  8 22  1  0  0  0
  9 10  1  0  0  0
  9 27  2  0  0  0
 10 11  2  0  0  0
 10 15  1  0  0  0
 11 12  1  0  0  0
 11 97  1  0  0  0
 12 13  2  0  0  0
 12 98  1  0  0  0
 13 14  1  0  0  0
 13 31  1  0  0  0
 14 15  2  0  0  0
 14 99  1  0  0  0
 15100  1  0  0  0
 16 17  2  0  0  0
 16 21  1  0  0  0
 16 31  1  0  0  0
 17 18  1  0  0  0
 17101  1  0  0  0
 18 19  2  0  0  0
 18102  1  0  0  0
 19 20  1  0  0  0
 19 24  1  0  0  0
 20 21  2  0  0  0
 20103  1  0  0  0
 21 23  1  0  0  0
 22 28  1  0  0  0
 22 32  2  0  0  0
 26 27  1  0  0  0
 28104  1  0  0  0
 28105  1  0  0  0
 29106  1  0  0  0
 29107  1  0  0  0
 33 34  1  0  0  0
 33 66  1  0  0  0
 33 70  2  0  0  0
 34 36  1  0  0  0
 34 59  1  0  0  0
 34108  1  0  0  0
 35 44  2  0  0  0
 35 45  1  0  0  0
 35 68  1  0  0  0
 36 56  1  0  0  0
 36109  1  0  0  0
 37 39  1  0  0  0
 37 47  1  0  0  0
 37 66  1  0  0  0
 37110  1  0  0  0
 38 43  2  0  0  0
 38 46  1  0  0  0
 38 47  1  0  0  0
 39 64  1  0  0  0
 39 67  2  0  0  0
 40 52  1  0  0  0
 40 53  2  0  0  0
 40 58  1  0  0  0
 41111  1  0  0  0
 41112  1  0  0  0
 41113  1  0  0  0
 41 48  1  0  0  0
 42 43  1  0  0  0
 42 66  1  0  0  0
 42114  1  0  0  0
 42115  1  0  0  0
 43 44  1  0  0  0
 44116  1  0  0  0
 45 46  2  0  0  0
 45117  1  0  0  0
 46118  1  0  0  0
 47119  1  0  0  0
 47120  1  0  0  0
 48 56  1  0  0  0
 48 65  1  0  0  0
 48121  1  0  0  0
 49 50  1  0  0  0
 49 53  1  0  0  0
 49 64  1  0  0  0
 49122  1  0  0  0
 50 51  1  0  0  0
 50123  1  0  0  0
 50124  1  0  0  0
 51 52  1  0  0  0
 51125  1  0  0  0
 51126  1  0  0  0
 52127  1  0  0  0
 52128  1  0  0  0
 53 54  1  0  0  0
 54 55  2  0  0  0
 54129  1  0  0  0
 55 57  1  0  0  0
 55130  1  0  0  0
 56 69  2  0  0  0
 57 58  2  0  0  0
 57131  1  0  0  0
 58132  1  0  0  0
 59 60  1  0  0  0
 59 61  1  0  0  0
 59 62  1  0  0  0
 60133  1  0  0  0
 60134  1  0  0  0
 60135  1  0  0  0
 61136  1  0  0  0
 61137  1  0  0  0
 61138  1  0  0  0
 62139  1  0  0  0
 62140  1  0  0  0
 62141  1  0  0  0
 63 65  1  0  0  0
 63142  1  0  0  0
 63143  1  0  0  0
 63144  1  0  0  0
 64145  1  0  0  0
 65146  1  0  0  0
 68 84  1  0  0  0
 71 72  2  0  0  0
 71 74  1  0  0  0
 71147  1  0  0  0
 72 75  1  0  0  0
 72148  1  0  0  0
 73 74  2  0  0  0
 73 76  1  0  0  0
 73149  1  0  0  0
 74 81  1  0  0  0
 75 76  2  0  0  0
 75 86  1  0  0  0
 76 87  1  0  0  0
 77 78  2  0  0  0
 77 86  1  0  0  0
 77150  1  0  0  0
 78 79  1  0  0  0
 78 84  1  0  0  0
 79 80  2  0  0  0
 79 82  1  0  0  0
 80151  1  0  0  0
 80152  1  0  0  0
 81 85  2  0  0  0
 82 83  1  0  0  0
 82153  1  0  0  0
 82154  1  0  0  0
 83 86  1  0  0  0
 83155  1  0  0  0
 83156  1  0  0  0
 84157  1  0  0  0
 84158  1  0  0  0
 85159  1  0  0  0
M  ISO  4   1 100  68 101  81 100  84 101
M  END
> <chiral flag>
0

> <version>
0

> <s_m_source_file>
/data/baiqing/PycharmProjects/Reinvent-master-3.2/result/LINK_invent/BTK/process_docking_weight1_custom_product_contain_oxygen_bond_distance_aromatic_linkinvent_7_9_3/rearranged_h_0076.sdf

> <i_m_source_file_index>
7

> <r_mmod_Potential_Energy-OPLS-2005>
315.636138916016

> <r_mmod_Stretch_Energy-OPLS-2005>
104.816741943359

> <r_mmod_Bend_Energy-OPLS-2005>
166.240600585938

> <r_mmod_Torsional_Energy-OPLS-2005>
218.351669311523

> <r_mmod_Improper_Torsional_Energy-OPLS-2005>
2.48363590240479

> <r_mmod_Van_der_Waal_Energy-OPLS-2005>
175.318344116211

> <r_mmod_Electrostatic_Energy-OPLS-2005>
-199.313995361328

> <r_mmod_Solvation_Energy-OPLS-2005>
-195.608001708984

> <b_mmod_Minimization_Converged-OPLS-2005>
0

> <r_mmod_RMS_Derivative-OPLS-2005>
2.42603325843811

$$$$
7
                    3D
 Structure written by MMmdl.
162171  0  0  1  0            999 V2000
  -30.6559  -14.5407   20.5605 C   0  0  0  0  0  0
  -30.4373  -12.3448   19.4328 C   0  0  0  0  0  0
  -29.5038  -12.5162   18.2142 C   0  0  0  0  0  0
  -28.0242  -12.3676   18.6231 C   0  0  0  0  0  0
  -27.6626  -13.2091   19.8763 C   0  0  2  0  0  0
  -28.7050  -12.9941   20.9975 C   0  0  0  0  0  0
  -25.2561  -13.8146   20.5618 C   0  0  0  0  0  0
  -24.1832  -13.0427   20.9173 C   0  0  0  0  0  0
  -24.6399  -11.6900   20.8743 C   0  0  0  0  0  0
  -23.9066  -10.4288   21.0408 C   0  0  0  0  0  0
  -24.3614   -9.4204   21.9186 C   0  0  0  0  0  0
  -23.6287   -8.2240   22.0757 C   0  0  0  0  0  0
  -22.4269   -8.0281   21.3548 C   0  0  0  0  0  0
  -21.9905   -9.0257   20.4651 C   0  0  0  0  0  0
  -22.7238  -10.2132   20.3058 C   0  0  0  0  0  0
  -21.6853   -6.0731   22.5278 C   0  0  0  0  0  0
  -21.4016   -6.5634   23.8211 C   0  0  0  0  0  0
  -21.3658   -5.6787   24.9173 C   0  0  0  0  0  0
  -21.6042   -4.3052   24.7224 C   0  0  0  0  0  0
  -21.8821   -3.8145   23.4346 C   0  0  0  0  0  0
  -21.9193   -4.6960   22.3401 C   0  0  0  0  0  0
  -22.7854  -13.5231   21.1834 C   0  0  0  0  0  0
  -22.1663   -4.2145   21.0979 F   0  0  0  0  0  0
  -21.5626   -3.4537   25.7738 F   0  0  0  0  0  0
  -30.0338  -13.3289   20.4528 N   0  0  0  0  0  0
  -26.3026  -12.9333   20.3358 N   0  0  0  0  0  0
  -25.9333  -11.6492   20.5779 N   0  0  0  0  0  0
  -22.0495  -12.8240   22.0402 N   0  0  0  0  0  0
  -25.4207  -15.1850   20.3895 N   0  0  0  0  0  0
  -31.7776  -14.7474   20.0872 O   0  0  0  0  0  0
  -21.6637   -6.8876   21.4240 O   0  0  0  0  0  0
  -22.3540  -14.5539   20.6686 O   0  0  0  0  0  0
  -24.6202  -31.8640   23.2072 C   0  0  0  0  0  0
  -25.9074  -32.4800   23.8380 C   0  0  1  0  0  0
  -27.2344  -27.3832   20.0863 C   0  0  0  0  0  0
  -25.5910  -33.8602   24.2307 N   0  0  0  0  0  0
  -23.4100  -30.4886   21.5496 C   0  0  2  0  0  0
  -24.8547  -28.9515   20.1132 C   0  0  0  0  0  0
  -22.7437  -29.4638   22.4970 C   0  0  0  0  0  0
  -18.0277  -28.1377   22.8486 C   0  0  0  0  0  0
  -24.1488  -36.7306   23.2636 C   0  0  0  0  0  0
  -25.9459  -30.8119   21.3695 C   0  0  0  0  0  0
  -26.0197  -29.4442   20.7120 C   0  0  0  0  0  0
  -27.2077  -28.6668   20.6978 C   0  0  0  0  0  0
  -26.0338  -26.9127   19.5024 C   0  0  0  0  0  0
  -24.8589  -27.6858   19.5084 C   0  0  0  0  0  0
  -23.6201  -29.8245   20.1639 C   0  0  0  0  0  0
  -25.4107  -36.3097   24.0333 C   0  0  1  0  0  0
  -20.5871  -28.3668   23.1304 C   0  0  2  0  0  0
  -20.6767  -26.9400   22.5413 C   0  0  0  0  0  0
  -19.5746  -26.6381   21.5208 C   0  0  0  0  0  0
  -18.1925  -26.7922   22.1620 C   0  0  0  0  0  0
  -19.1528  -28.8841   23.2890 C   0  0  0  0  0  0
  -18.9453  -30.1446   23.8902 C   0  0  0  0  0  0
  -17.6455  -30.6579   24.0564 C   0  0  0  0  0  0
  -25.9041  -34.9464   23.5118 C   0  0  0  0  0  0
  -16.5345  -29.9079   23.6329 C   0  0  0  0  0  0
  -16.7266  -28.6498   23.0346 C   0  0  0  0  0  0
  -26.4481  -31.6593   25.0728 C   0  0  0  0  0  0
  -25.3735  -31.3713   26.1471 C   0  0  0  0  0  0
  -27.0318  -30.3026   24.6144 C   0  0  0  0  0  0
  -27.6052  -32.4320   25.7489 C   0  0  0  0  0  0
  -27.5584  -37.1800   24.8456 C   0  0  0  0  0  0
  -21.4158  -29.3031   22.3707 N   0  0  0  0  0  0
  -26.4288  -37.3788   23.9414 N   0  0  0  0  0  0
  -24.6773  -31.0704   22.0994 N   0  0  0  0  0  0
  -23.4185  -28.8174   23.3025 O   0  0  0  0  0  0
  -28.4012  -26.6208   20.1215 O   0  0  0  0  0  0
  -26.5605  -34.8922   22.4682 O   0  0  0  0  0  0
  -23.5381  -32.1413   23.7438 O   0  0  0  0  0  0
  -30.6510  -19.1061   20.0595 C   0  0  0  0  0  0
  -30.7956  -17.7015   20.2223 C   0  0  0  0  0  0
  -28.6374  -19.0567   21.3779 C   0  0  0  0  0  0
  -28.7845  -17.6573   21.5673 C   0  0  0  0  0  0
  -29.5557  -19.8200   20.6162 C   0  0  0  0  0  0
  -29.8595  -16.9444   20.9710 C   0  0  0  0  0  0
  -28.9425  -24.1215   19.7735 C   0  0  0  0  0  0
  -30.1925  -23.5902   19.8692 C   0  0  0  0  0  0
  -27.7961  -23.2116   20.0230 C   0  0  0  0  0  0
  -30.5073  -22.1128   20.1901 C   0  0  0  0  0  0
  -28.0222  -21.6806   20.0294 C   0  0  0  0  0  0
  -27.7691  -16.9379   22.4421 C   0  0  0  0  0  0
  -31.4525  -24.3904   19.5745 C   0  0  0  0  0  0
  -28.6090  -25.5253   19.1852 C   0  0  0  0  0  0
  -29.3610  -21.2267   20.4420 N   0  0  0  0  0  0
  -29.9125  -15.5095   21.1521 N   0  0  0  0  0  0
  -26.6487  -23.6261   20.2038 O   0  0  0  0  0  0
  -31.4791  -12.4652   19.1300 H   0  0  0  0  0  0
  -30.3611  -11.3337   19.8358 H   0  0  0  0  0  0
  -29.7526  -11.7859   17.4431 H   0  0  0  0  0  0
  -29.6630  -13.4983   17.7655 H   0  0  0  0  0  0
  -27.8412  -11.3114   18.8232 H   0  0  0  0  0  0
  -27.3745  -12.6358   17.7893 H   0  0  0  0  0  0
  -27.7035  -14.2569   19.5773 H   0  0  0  0  0  0
  -28.6963  -11.9535   21.3255 H   0  0  0  0  0  0
  -28.4525  -13.5749   21.8854 H   0  0  0  0  0  0
  -25.2761   -9.5676   22.4761 H   0  0  0  0  0  0
  -23.9997   -7.4629   22.7475 H   0  0  0  0  0  0
  -21.0837   -8.8776   19.8956 H   0  0  0  0  0  0
  -22.3700  -10.9671   19.6166 H   0  0  0  0  0  0
  -21.2010   -7.6141   23.9712 H   0  0  0  0  0  0
  -21.1478   -6.0520   25.9075 H   0  0  0  0  0  0
  -22.0602   -2.7607   23.2849 H   0  0  0  0  0  0
  -22.4104  -11.9904   22.4796 H   0  0  0  0  0  0
  -21.1116  -13.1279   22.2603 H   0  0  0  0  0  0
  -24.6457  -15.8330   20.4776 H   0  0  0  0  0  0
  -26.2598  -15.6206   20.0296 H   0  0  0  0  0  0
  -26.7141  -32.5488   23.1132 H   0  0  0  0  0  0
  -25.0064  -33.9759   25.0456 H   0  0  0  0  0  0
  -22.7006  -31.3068   21.4107 H   0  0  0  0  0  0
  -23.3753  -35.9635   23.3288 H   0  0  0  0  0  0
  -24.3590  -36.8934   22.2054 H   0  0  0  0  0  0
  -23.7240  -37.6504   23.6663 H   0  0  0  0  0  0
  -26.0708  -31.5782   20.6033 H   0  0  0  0  0  0
  -26.8291  -30.8592   21.9950 H   0  0  0  0  0  0
  -28.1060  -29.0460   21.1648 H   0  0  0  0  0  0
  -25.9543  -25.9314   19.0627 H   0  0  0  0  0  0
  -23.9580  -27.2923   19.0578 H   0  0  0  0  0  0
  -23.7323  -30.6009   19.4061 H   0  0  0  0  0  0
  -22.7420  -29.2486   19.8661 H   0  0  0  0  0  0
  -25.1284  -36.1952   25.0825 H   0  0  0  0  0  0
  -20.9961  -28.3237   24.1425 H   0  0  0  0  0  0
  -20.5666  -26.2273   23.3601 H   0  0  0  0  0  0
  -21.6639  -26.7438   22.1209 H   0  0  0  0  0  0
  -19.6907  -25.6293   21.1232 H   0  0  0  0  0  0
  -19.6686  -27.3195   20.6740 H   0  0  0  0  0  0
  -17.4194  -26.6669   21.4021 H   0  0  0  0  0  0
  -18.0326  -26.0062   22.9014 H   0  0  0  0  0  0
  -19.7929  -30.7260   24.2270 H   0  0  0  0  0  0
  -17.5009  -31.6263   24.5160 H   0  0  0  0  0  0
  -15.5345  -30.2980   23.7653 H   0  0  0  0  0  0
  -15.8665  -28.0819   22.7056 H   0  0  0  0  0  0
  -24.5900  -30.7072   25.7806 H   0  0  0  0  0  0
  -24.8940  -32.2875   26.4928 H   0  0  0  0  0  0
  -25.8078  -30.8870   27.0226 H   0  0  0  0  0  0
  -26.2876  -29.6782   24.1187 H   0  0  0  0  0  0
  -27.4052  -29.7273   25.4626 H   0  0  0  0  0  0
  -27.8729  -30.4327   23.9330 H   0  0  0  0  0  0
  -27.2667  -33.3609   26.2092 H   0  0  0  0  0  0
  -28.3845  -32.6898   25.0304 H   0  0  0  0  0  0
  -28.0741  -31.8432   26.5383 H   0  0  0  0  0  0
  -28.2581  -38.0118   24.7540 H   0  0  0  0  0  0
  -28.1102  -36.2654   24.6231 H   0  0  0  0  0  0
  -27.2314  -37.1393   25.8861 H   0  0  0  0  0  0
  -20.9319  -29.8756   21.6933 H   0  0  0  0  0  0
  -26.0171  -38.2860   24.1431 H   0  0  0  0  0  0
  -31.3971  -19.6131   19.4677 H   0  0  0  0  0  0
  -31.6406  -17.2209   19.7521 H   0  0  0  0  0  0
  -27.8050  -19.5511   21.8567 H   0  0  0  0  0  0
  -31.1720  -22.0755   21.0549 H   0  0  0  0  0  0
  -31.0763  -21.7371   19.3392 H   0  0  0  0  0  0
  -27.8227  -21.3105   19.0231 H   0  0  0  0  0  0
  -27.2595  -21.2450   20.6735 H   0  0  0  0  0  0
  -28.2030  -16.7196   23.4181 H   0  0  0  0  0  0
  -27.4468  -15.9986   21.9966 H   0  0  0  0  0  0
  -26.8765  -17.5438   22.6005 H   0  0  0  0  0  0
  -31.2986  -25.4662   19.6436 H   0  0  0  0  0  0
  -31.8277  -24.1545   18.5782 H   0  0  0  0  0  0
  -32.2326  -24.1412   20.2945 H   0  0  0  0  0  0
  -27.8267  -25.4123   18.4391 H   0  0  0  0  0  0
  -29.4457  -25.8399   18.5642 H   0  0  0  0  0  0
  -29.1054  -15.1297   21.6205 H   0  0  0  0  0  0
  1 25  1  0  0  0
  1 30  2  0  0  0
  1 86  1  0  0  0
  2  3  1  0  0  0
  2 25  1  0  0  0
  2 88  1  0  0  0
  2 89  1  0  0  0
  3  4  1  0  0  0
  3 90  1  0  0  0
  3 91  1  0  0  0
  4  5  1  0  0  0
  4 92  1  0  0  0
  4 93  1  0  0  0
  5  6  1  0  0  0
  5 26  1  0  0  0
  5 94  1  0  0  0
  6 25  1  0  0  0
  6 95  1  0  0  0
  6 96  1  0  0  0
  7  8  2  0  0  0
  7 26  1  0  0  0
  7 29  1  0  0  0
  8  9  1  0  0  0
  8 22  1  0  0  0
  9 10  1  0  0  0
  9 27  2  0  0  0
 10 11  2  0  0  0
 10 15  1  0  0  0
 11 12  1  0  0  0
 11 97  1  0  0  0
 12 13  2  0  0  0
 12 98  1  0  0  0
 13 14  1  0  0  0
 13 31  1  0  0  0
 14 15  2  0  0  0
 14 99  1  0  0  0
 15100  1  0  0  0
 16 17  2  0  0  0
 16 21  1  0  0  0
 16 31  1  0  0  0
 17 18  1  0  0  0
 17101  1  0  0  0
 18 19  2  0  0  0
 18102  1  0  0  0
 19 20  1  0  0  0
 19 24  1  0  0  0
 20 21  2  0  0  0
 20103  1  0  0  0
 21 23  1  0  0  0
 22 28  1  0  0  0
 22 32  2  0  0  0
 26 27  1  0  0  0
 28104  1  0  0  0
 28105  1  0  0  0
 29106  1  0  0  0
 29107  1  0  0  0
 33 34  1  0  0  0
 33 66  1  0  0  0
 33 70  2  0  0  0
 34 36  1  0  0  0
 34 59  1  0  0  0
 34108  1  0  0  0
 35 44  2  0  0  0
 35 45  1  0  0  0
 35 68  1  0  0  0
 36 56  1  0  0  0
 36109  1  0  0  0
 37 39  1  0  0  0
 37 47  1  0  0  0
 37 66  1  0  0  0
 37110  1  0  0  0
 38 43  2  0  0  0
 38 46  1  0  0  0
 38 47  1  0  0  0
 39 64  1  0  0  0
 39 67  2  0  0  0
 40 52  1  0  0  0
 40 53  2  0  0  0
 40 58  1  0  0  0
 41111  1  0  0  0
 41112  1  0  0  0
 41113  1  0  0  0
 41 48  1  0  0  0
 42 43  1  0  0  0
 42 66  1  0  0  0
 42114  1  0  0  0
 42115  1  0  0  0
 43 44  1  0  0  0
 44116  1  0  0  0
 45 46  2  0  0  0
 45117  1  0  0  0
 46118  1  0  0  0
 47119  1  0  0  0
 47120  1  0  0  0
 48 56  1  0  0  0
 48 65  1  0  0  0
 48121  1  0  0  0
 49 50  1  0  0  0
 49 53  1  0  0  0
 49 64  1  0  0  0
 49122  1  0  0  0
 50 51  1  0  0  0
 50123  1  0  0  0
 50124  1  0  0  0
 51 52  1  0  0  0
 51125  1  0  0  0
 51126  1  0  0  0
 52127  1  0  0  0
 52128  1  0  0  0
 53 54  1  0  0  0
 54 55  2  0  0  0
 54129  1  0  0  0
 55 57  1  0  0  0
 55130  1  0  0  0
 56 69  2  0  0  0
 57 58  2  0  0  0
 57131  1  0  0  0
 58132  1  0  0  0
 59 60  1  0  0  0
 59 61  1  0  0  0
 59 62  1  0  0  0
 60133  1  0  0  0
 60134  1  0  0  0
 60135  1  0  0  0
 61136  1  0  0  0
 61137  1  0  0  0
 61138  1  0  0  0
 62139  1  0  0  0
 62140  1  0  0  0
 62141  1  0  0  0
 63 65  1  0  0  0
 63142  1  0  0  0
 63143  1  0  0  0
 63144  1  0  0  0
 64145  1  0  0  0
 65146  1  0  0  0
 68 84  1  0  0  0
 71 72  2  0  0  0
 71 75  1  0  0  0
 71147  1  0  0  0
 72 76  1  0  0  0
 72148  1  0  0  0
 73 74  1  0  0  0
 73 75  2  0  0  0
 73149  1  0  0  0
 74 76  2  0  0  0
 74 82  1  0  0  0
 75 85  1  0  0  0
 76 86  1  0  0  0
 77 78  2  0  0  0
 77 79  1  0  0  0
 77 84  1  0  0  0
 78 80  1  0  0  0
 78 83  1  0  0  0
 79 81  1  0  0  0
 79 87  2  0  0  0
 80 85  1  0  0  0
 80150  1  0  0  0
 80151  1  0  0  0
 81 85  1  0  0  0
 81152  1  0  0  0
 81153  1  0  0  0
 82154  1  0  0  0
 82155  1  0  0  0
 82156  1  0  0  0
 83157  1  0  0  0
 83158  1  0  0  0
 83159  1  0  0  0
 84160  1  0  0  0
 84161  1  0  0  0
 86162  1  0  0  0
M  ISO  4   1 100  68 101  84 101  86 100
M  END
> <chiral flag>
0

> <version>
0

> <s_m_source_file>
/data/baiqing/PycharmProjects/Reinvent-master-3.2/result/LINK_invent/BTK/process_docking_weight1_custom_product_contain_oxygen_bond_distance_aromatic_linkinvent_7_9_3/rearranged_h_0076.sdf

> <i_m_source_file_index>
8

> <r_mmod_Potential_Energy-OPLS-2005>
6.43199968338013

> <r_mmod_Stretch_Energy-OPLS-2005>
57.0287857055664

> <r_mmod_Bend_Energy-OPLS-2005>
139.016067504883

> <r_mmod_Torsional_Energy-OPLS-2005>
209.628662109375

> <r_mmod_Improper_Torsional_Energy-OPLS-2005>
5.17217302322388

> <r_mmod_Van_der_Waal_Energy-OPLS-2005>
165.014312744141

> <r_mmod_Electrostatic_Energy-OPLS-2005>
-363.307189941406

> <r_mmod_Solvation_Energy-OPLS-2005>
-228.193344116211

> <b_mmod_Minimization_Converged-OPLS-2005>
0

> <r_mmod_RMS_Derivative-OPLS-2005>
0.588709712028503

$$$$
8
                    3D
 Structure written by MMmdl.
175184  0  0  1  0            999 V2000
  -30.7702  -14.3615   20.6910 C   0  0  0  0  0  0
  -30.4179  -12.2907   19.3959 C   0  0  0  0  0  0
  -29.4850  -12.5262   18.1939 C   0  0  0  0  0  0
  -28.0102  -12.3796   18.6115 C   0  0  0  0  0  0
  -27.6674  -13.2022   19.8813 C   0  0  2  0  0  0
  -28.7048  -12.9444   20.9967 C   0  0  0  0  0  0
  -25.2610  -13.8153   20.5677 C   0  0  0  0  0  0
  -24.1843  -13.0440   20.9161 C   0  0  0  0  0  0
  -24.6392  -11.6903   20.8720 C   0  0  0  0  0  0
  -23.9053  -10.4294   21.0399 C   0  0  0  0  0  0
  -24.3607   -9.4218   21.9185 C   0  0  0  0  0  0
  -23.6284   -8.2250   22.0758 C   0  0  0  0  0  0
  -22.4271   -8.0282   21.3540 C   0  0  0  0  0  0
  -21.9905   -9.0252   20.4644 C   0  0  0  0  0  0
  -22.7227  -10.2136   20.3049 C   0  0  0  0  0  0
  -21.6851   -6.0736   22.5282 C   0  0  0  0  0  0
  -21.4013   -6.5638   23.8215 C   0  0  0  0  0  0
  -21.3659   -5.6793   24.9177 C   0  0  0  0  0  0
  -21.6046   -4.3053   24.7228 C   0  0  0  0  0  0
  -21.8820   -3.8142   23.4351 C   0  0  0  0  0  0
  -21.9194   -4.6958   22.3403 C   0  0  0  0  0  0
  -22.7871  -13.5244   21.1829 C   0  0  0  0  0  0
  -22.1661   -4.2143   21.0982 F   0  0  0  0  0  0
  -21.5632   -3.4537   25.7739 F   0  0  0  0  0  0
  -30.0492  -13.2334   20.4618 N   0  0  0  0  0  0
  -26.3051  -12.9318   20.3388 N   0  0  0  0  0  0
  -25.9316  -11.6478   20.5755 N   0  0  0  0  0  0
  -22.0508  -12.8237   22.0386 N   0  0  0  0  0  0
  -25.4348  -15.1867   20.4081 N   0  0  0  0  0  0
  -31.7778  -14.6658   20.0468 O   0  0  0  0  0  0
  -21.6640   -6.8877   21.4242 O   0  0  0  0  0  0
  -22.3562  -14.5556   20.6687 O   0  0  0  0  0  0
  -24.6094  -31.8700   23.2126 C   0  0  0  0  0  0
  -25.8992  -32.4839   23.8411 C   0  0  1  0  0  0
  -27.2413  -27.4749   20.0783 C   0  0  0  0  0  0
  -25.5838  -33.8636   24.2322 N   0  0  0  0  0  0
  -23.3970  -30.4929   21.5524 C   0  0  2  0  0  0
  -24.8471  -28.9608   20.1174 C   0  0  0  0  0  0
  -22.7390  -29.4670   22.5020 C   0  0  0  0  0  0
  -18.0254  -28.1385   22.8505 C   0  0  0  0  0  0
  -24.1470  -36.7342   23.2644 C   0  0  0  0  0  0
  -25.9234  -30.8451   21.3624 C   0  0  0  0  0  0
  -26.0054  -29.4822   20.7097 C   0  0  0  0  0  0
  -27.2082  -28.7435   20.6939 C   0  0  0  0  0  0
  -26.0672  -26.9488   19.5046 C   0  0  0  0  0  0
  -24.8703  -27.6909   19.5140 C   0  0  0  0  0  0
  -23.6041  -29.8200   20.1680 C   0  0  0  0  0  0
  -25.4089  -36.3128   24.0338 C   0  0  1  0  0  0
  -20.5842  -28.3662   23.1340 C   0  0  2  0  0  0
  -20.6741  -26.9403   22.5433 C   0  0  0  0  0  0
  -19.5724  -26.6391   21.5229 C   0  0  0  0  0  0
  -18.1899  -26.7934   22.1640 C   0  0  0  0  0  0
  -19.1506  -28.8841   23.2917 C   0  0  0  0  0  0
  -18.9432  -30.1449   23.8925 C   0  0  0  0  0  0
  -17.6436  -30.6591   24.0576 C   0  0  0  0  0  0
  -25.9018  -34.9492   23.5138 C   0  0  0  0  0  0
  -16.5327  -29.9103   23.6328 C   0  0  0  0  0  0
  -16.7243  -28.6522   23.0346 C   0  0  0  0  0  0
  -26.4447  -31.6623   25.0736 C   0  0  0  0  0  0
  -25.3712  -31.3700   26.1476 C   0  0  0  0  0  0
  -27.0319  -30.3079   24.6120 C   0  0  0  0  0  0
  -27.6001  -32.4377   25.7498 C   0  0  0  0  0  0
  -27.5576  -37.1808   24.8453 C   0  0  0  0  0  0
  -21.4119  -29.3037   22.3760 N   0  0  0  0  0  0
  -26.4282  -37.3810   23.9414 N   0  0  0  0  0  0
  -24.6612  -31.0833   22.1011 N   0  0  0  0  0  0
  -23.4185  -28.8200   23.3032 O   0  0  0  0  0  0
  -28.3854  -26.7180   20.0584 O   0  0  0  0  0  0
  -26.5623  -34.8945   22.4724 O   0  0  0  0  0  0
  -23.5290  -32.1440   23.7532 O   0  0  0  0  0  0
  -31.4469  -21.4463   19.3741 C   0  0  0  0  0  0
  -30.5255  -22.4437   21.3887 C   0  0  0  0  0  0
  -31.2745  -20.1609   19.9310 C   0  0  0  0  0  0
  -30.3451  -21.1561   21.9386 C   0  0  0  0  0  0
  -31.0899  -22.6016   20.1045 C   0  0  0  0  0  0
  -30.7326  -19.9953   21.2273 C   0  0  0  0  0  0
  -29.9318  -16.9635   23.2189 C   0  0  0  0  0  0
  -31.3455  -23.9426   19.5553 C   0  0  0  0  0  0
  -31.3444  -27.0906   20.6056 C   0  0  0  0  0  0
  -29.8438  -18.4657   23.0255 C   0  0  0  0  0  0
  -31.0664  -17.4763   21.1775 C   0  0  0  0  0  0
  -30.9216  -16.3474   22.2347 C   0  0  1  0  0  0
  -31.9275  -28.4747   20.3597 C   0  0  0  0  0  0
  -32.2486  -16.0531   22.9686 C   0  0  0  0  0  0
  -28.8259  -26.5580   17.6717 C   0  0  0  0  0  0
  -30.6736  -26.3807   19.4129 C   0  0  2  0  0  0
  -29.3299  -27.0476   19.0414 C   0  0  2  0  0  0
  -30.5995  -18.7136   21.8041 N   0  0  0  0  0  0
  -32.4772  -24.1728   18.8879 N   0  0  0  0  0  0
  -30.3341  -15.1127   21.7082 N   0  0  0  0  0  0
  -30.4703  -24.9470   19.7208 N   0  3  0  0  0  0
  -29.2715  -16.3178   24.0383 O   0  0  0  0  0  0
  -31.4323  -26.5842   21.7281 O   0  0  0  0  0  0
  -31.4604  -12.3939   19.0889 H   0  0  0  0  0  0
  -30.3187  -11.2668   19.7607 H   0  0  0  0  0  0
  -29.7165  -11.8227   17.3933 H   0  0  0  0  0  0
  -29.6570  -13.5233   17.7855 H   0  0  0  0  0  0
  -27.8193  -11.3209   18.7944 H   0  0  0  0  0  0
  -27.3558  -12.6682   17.7890 H   0  0  0  0  0  0
  -27.7263  -14.2564   19.6084 H   0  0  0  0  0  0
  -28.6660  -11.9014   21.3154 H   0  0  0  0  0  0
  -28.4476  -13.5220   21.8847 H   0  0  0  0  0  0
  -25.2752   -9.5699   22.4764 H   0  0  0  0  0  0
  -23.9990   -7.4650   22.7483 H   0  0  0  0  0  0
  -21.0843   -8.8770   19.8945 H   0  0  0  0  0  0
  -22.3685  -10.9675   19.6153 H   0  0  0  0  0  0
  -21.2004   -7.6147   23.9712 H   0  0  0  0  0  0
  -21.1481   -6.0527   25.9085 H   0  0  0  0  0  0
  -22.0601   -2.7606   23.2853 H   0  0  0  0  0  0
  -22.4103  -11.9877   22.4749 H   0  0  0  0  0  0
  -21.1123  -13.1266   22.2581 H   0  0  0  0  0  0
  -24.6737  -15.8482   20.5193 H   0  0  0  0  0  0
  -26.2936  -15.6222   20.0953 H   0  0  0  0  0  0
  -26.7067  -32.5593   23.1186 H   0  0  0  0  0  0
  -24.9884  -33.9780   25.0393 H   0  0  0  0  0  0
  -22.6821  -31.3064   21.4125 H   0  0  0  0  0  0
  -23.3739  -35.9670   23.3296 H   0  0  0  0  0  0
  -24.3553  -36.8989   22.2062 H   0  0  0  0  0  0
  -23.7233  -37.6539   23.6690 H   0  0  0  0  0  0
  -26.0274  -31.6098   20.5917 H   0  0  0  0  0  0
  -26.8127  -30.9011   21.9788 H   0  0  0  0  0  0
  -28.1039  -29.1398   21.1524 H   0  0  0  0  0  0
  -26.0853  -25.9716   19.0424 H   0  0  0  0  0  0
  -23.9786  -27.2817   19.0606 H   0  0  0  0  0  0
  -23.7029  -30.5922   19.4040 H   0  0  0  0  0  0
  -22.7301  -29.2305   19.8845 H   0  0  0  0  0  0
  -25.1259  -36.1990   25.0830 H   0  0  0  0  0  0
  -20.9916  -28.3239   24.1469 H   0  0  0  0  0  0
  -20.5646  -26.2267   23.3624 H   0  0  0  0  0  0
  -21.6612  -26.7453   22.1229 H   0  0  0  0  0  0
  -19.6891  -25.6319   21.1229 H   0  0  0  0  0  0
  -19.6658  -27.3210   20.6772 H   0  0  0  0  0  0
  -17.4170  -26.6692   21.4043 H   0  0  0  0  0  0
  -18.0277  -26.0072   22.9021 H   0  0  0  0  0  0
  -19.7910  -30.7246   24.2311 H   0  0  0  0  0  0
  -17.5007  -31.6276   24.5176 H   0  0  0  0  0  0
  -15.5334  -30.3013   23.7662 H   0  0  0  0  0  0
  -15.8638  -28.0857   22.7045 H   0  0  0  0  0  0
  -24.5869  -30.7071   25.7800 H   0  0  0  0  0  0
  -24.8906  -32.2843   26.4968 H   0  0  0  0  0  0
  -25.8051  -30.8833   27.0217 H   0  0  0  0  0  0
  -26.2894  -29.6805   24.1175 H   0  0  0  0  0  0
  -27.4116  -29.7334   25.4582 H   0  0  0  0  0  0
  -27.8698  -30.4418   23.9269 H   0  0  0  0  0  0
  -27.2579  -33.3648   26.2110 H   0  0  0  0  0  0
  -28.3774  -32.6998   25.0310 H   0  0  0  0  0  0
  -28.0723  -31.8515   26.5391 H   0  0  0  0  0  0
  -28.2563  -38.0131   24.7531 H   0  0  0  0  0  0
  -28.1102  -36.2665   24.6232 H   0  0  0  0  0  0
  -27.2300  -37.1393   25.8854 H   0  0  0  0  0  0
  -20.9272  -29.8774   21.6995 H   0  0  0  0  0  0
  -26.0181  -38.2891   24.1432 H   0  0  0  0  0  0
  -31.8717  -21.5370   18.3841 H   0  0  0  0  0  0
  -30.2535  -23.3078   21.9788 H   0  0  0  0  0  0
  -31.5754  -19.3082   19.3414 H   0  0  0  0  0  0
  -29.9262  -21.0834   22.9310 H   0  0  0  0  0  0
  -30.2879  -18.9719   23.8822 H   0  0  0  0  0  0
  -28.8033  -18.7751   22.9230 H   0  0  0  0  0  0
  -30.4605  -17.2775   20.2911 H   0  0  0  0  0  0
  -32.1038  -17.5704   20.8500 H   0  0  0  0  0  0
  -32.1826  -28.6065   19.3076 H   0  0  0  0  0  0
  -32.8320  -28.6153   20.9509 H   0  0  0  0  0  0
  -31.2076  -29.2436   20.6381 H   0  0  0  0  0  0
  -32.6423  -16.9478   23.4526 H   0  0  0  0  0  0
  -33.0165  -15.6980   22.2805 H   0  0  0  0  0  0
  -32.1188  -15.2929   23.7394 H   0  0  0  0  0  0
  -29.5838  -26.7019   16.9011 H   0  0  0  0  0  0
  -27.9390  -27.1054   17.3546 H   0  0  0  0  0  0
  -28.5701  -25.4992   17.6922 H   0  0  0  0  0  0
  -31.3378  -26.4747   18.5532 H   0  0  0  0  0  0
  -29.4632  -28.1319   18.9997 H   0  0  0  0  0  0
  -33.1641  -23.4387   18.8116 H   0  0  0  0  0  0
  -32.6535  -25.0440   18.4198 H   0  0  0  0  0  0
  -29.5165  -14.7828   22.2000 H   0  0  0  0  0  0
  -29.6358  -24.7507   20.2558 H   0  0  0  0  0  0
  1 25  1  0  0  0
  1 30  2  0  0  0
  1 90  1  0  0  0
  2  3  1  0  0  0
  2 25  1  0  0  0
  2 94  1  0  0  0
  2 95  1  0  0  0
  3  4  1  0  0  0
  3 96  1  0  0  0
  3 97  1  0  0  0
  4  5  1  0  0  0
  4 98  1  0  0  0
  4 99  1  0  0  0
  5  6  1  0  0  0
  5 26  1  0  0  0
  5100  1  0  0  0
  6 25  1  0  0  0
  6101  1  0  0  0
  6102  1  0  0  0
  7  8  2  0  0  0
  7 26  1  0  0  0
  7 29  1  0  0  0
  8  9  1  0  0  0
  8 22  1  0  0  0
  9 10  1  0  0  0
  9 27  2  0  0  0
 10 11  2  0  0  0
 10 15  1  0  0  0
 11 12  1  0  0  0
 11103  1  0  0  0
 12 13  2  0  0  0
 12104  1  0  0  0
 13 14  1  0  0  0
 13 31  1  0  0  0
 14 15  2  0  0  0
 14105  1  0  0  0
 15106  1  0  0  0
 16 17  2  0  0  0
 16 21  1  0  0  0
 16 31  1  0  0  0
 17 18  1  0  0  0
 17107  1  0  0  0
 18 19  2  0  0  0
 18108  1  0  0  0
 19 20  1  0  0  0
 19 24  1  0  0  0
 20 21  2  0  0  0
 20109  1  0  0  0
 21 23  1  0  0  0
 22 28  1  0  0  0
 22 32  2  0  0  0
 26 27  1  0  0  0
 28110  1  0  0  0
 28111  1  0  0  0
 29112  1  0  0  0
 29113  1  0  0  0
 33 34  1  0  0  0
 33 66  1  0  0  0
 33 70  2  0  0  0
 34 36  1  0  0  0
 34 59  1  0  0  0
 34114  1  0  0  0
 35 44  2  0  0  0
 35 45  1  0  0  0
 35 68  1  0  0  0
 36 56  1  0  0  0
 36115  1  0  0  0
 37 39  1  0  0  0
 37 47  1  0  0  0
 37 66  1  0  0  0
 37116  1  0  0  0
 38 43  2  0  0  0
 38 46  1  0  0  0
 38 47  1  0  0  0
 39 64  1  0  0  0
 39 67  2  0  0  0
 40 52  1  0  0  0
 40 53  2  0  0  0
 40 58  1  0  0  0
 41117  1  0  0  0
 41118  1  0  0  0
 41119  1  0  0  0
 41 48  1  0  0  0
 42 43  1  0  0  0
 42 66  1  0  0  0
 42120  1  0  0  0
 42121  1  0  0  0
 43 44  1  0  0  0
 44122  1  0  0  0
 45 46  2  0  0  0
 45123  1  0  0  0
 46124  1  0  0  0
 47125  1  0  0  0
 47126  1  0  0  0
 48 56  1  0  0  0
 48 65  1  0  0  0
 48127  1  0  0  0
 49 50  1  0  0  0
 49 53  1  0  0  0
 49 64  1  0  0  0
 49128  1  0  0  0
 50 51  1  0  0  0
 50129  1  0  0  0
 50130  1  0  0  0
 51 52  1  0  0  0
 51131  1  0  0  0
 51132  1  0  0  0
 52133  1  0  0  0
 52134  1  0  0  0
 53 54  1  0  0  0
 54 55  2  0  0  0
 54135  1  0  0  0
 55 57  1  0  0  0
 55136  1  0  0  0
 56 69  2  0  0  0
 57 58  2  0  0  0
 57137  1  0  0  0
 58138  1  0  0  0
 59 60  1  0  0  0
 59 61  1  0  0  0
 59 62  1  0  0  0
 60139  1  0  0  0
 60140  1  0  0  0
 60141  1  0  0  0
 61142  1  0  0  0
 61143  1  0  0  0
 61144  1  0  0  0
 62145  1  0  0  0
 62146  1  0  0  0
 62147  1  0  0  0
 63 65  1  0  0  0
 63148  1  0  0  0
 63149  1  0  0  0
 63150  1  0  0  0
 64151  1  0  0  0
 65152  1  0  0  0
 68 87  1  0  0  0
 71 73  2  0  0  0
 71 75  1  0  0  0
 71153  1  0  0  0
 72 74  1  0  0  0
 72 75  2  0  0  0
 72154  1  0  0  0
 73 76  1  0  0  0
 73155  1  0  0  0
 74 76  2  0  0  0
 74156  1  0  0  0
 75 78  1  0  0  0
 76 88  1  0  0  0
 77 80  1  0  0  0
 77 82  1  0  0  0
 77 92  2  0  0  0
 78 89  1  0  0  0
 78 91  2  0  0  0
 79 83  1  0  0  0
 79 86  1  0  0  0
 79 93  2  0  0  0
 80 88  1  0  0  0
 80157  1  0  0  0
 80158  1  0  0  0
 81 82  1  0  0  0
 81 88  1  0  0  0
 81159  1  0  0  0
 81160  1  0  0  0
 82 84  1  0  0  0
 82 90  1  0  0  0
 83161  1  0  0  0
 83162  1  0  0  0
 83163  1  0  0  0
 84164  1  0  0  0
 84165  1  0  0  0
 84166  1  0  0  0
 85167  1  0  0  0
 85168  1  0  0  0
 85169  1  0  0  0
 85 87  1  0  0  0
 86 87  1  0  0  0
 86 91  1  0  0  0
 86170  1  0  0  0
 87171  1  0  0  0
 89172  1  0  0  0
 89173  1  0  0  0
 90174  1  0  0  0
 91175  1  0  0  0
M  CHG  1  91   1
M  ISO  4   1 100  68 101  87 101  90 100
M  END
> <chiral flag>
0

> <version>
0

> <s_m_source_file>
/data/baiqing/PycharmProjects/Reinvent-master-3.2/result/LINK_invent/BTK/process_docking_weight1_custom_product_contain_oxygen_bond_distance_aromatic_linkinvent_7_9_3/rearranged_h_0076.sdf

> <i_m_source_file_index>
9

> <r_mmod_Potential_Energy-OPLS-2005>
-457.501617431641

> <r_mmod_Stretch_Energy-OPLS-2005>
35.5173454284668

> <r_mmod_Bend_Energy-OPLS-2005>
134.748764038086

> <r_mmod_Torsional_Energy-OPLS-2005>
230.278121948242

> <r_mmod_Improper_Torsional_Energy-OPLS-2005>
2.38847208023071

> <r_mmod_Van_der_Waal_Energy-OPLS-2005>
153.019332885742

> <r_mmod_Electrostatic_Energy-OPLS-2005>
-580.166809082031

> <r_mmod_Solvation_Energy-OPLS-2005>
-439.767211914062

> <b_mmod_Minimization_Converged-OPLS-2005>
0

> <r_mmod_RMS_Derivative-OPLS-2005>
1.65803170204163

$$$$
9
                    3D
 Structure written by MMmdl.
158167  0  0  1  0            999 V2000
  -30.6326  -14.7790   20.4880 C   0  0  0  0  0  0
  -30.4302  -12.4844   19.4814 C   0  0  0  0  0  0
  -29.5117  -12.5124   18.2413 C   0  0  0  0  0  0
  -28.0408  -12.3291   18.6584 C   0  0  0  0  0  0
  -27.6415  -13.2369   19.8520 C   0  0  2  0  0  0
  -28.6846  -13.1932   20.9882 C   0  0  0  0  0  0
  -25.2522  -13.8202   20.5722 C   0  0  0  0  0  0
  -24.1804  -13.0439   20.9200 C   0  0  0  0  0  0
  -24.6403  -11.6918   20.8741 C   0  0  0  0  0  0
  -23.9085  -10.4290   21.0400 C   0  0  0  0  0  0
  -24.3631   -9.4204   21.9176 C   0  0  0  0  0  0
  -23.6307   -8.2239   22.0742 C   0  0  0  0  0  0
  -22.4283   -8.0285   21.3546 C   0  0  0  0  0  0
  -21.9924   -9.0253   20.4639 C   0  0  0  0  0  0
  -22.7253  -10.2129   20.3051 C   0  0  0  0  0  0
  -21.6850   -6.0738   22.5281 C   0  0  0  0  0  0
  -21.4016   -6.5643   23.8215 C   0  0  0  0  0  0
  -21.3657   -5.6798   24.9174 C   0  0  0  0  0  0
  -21.6041   -4.3058   24.7230 C   0  0  0  0  0  0
  -21.8817   -3.8151   23.4352 C   0  0  0  0  0  0
  -21.9192   -4.6966   22.3405 C   0  0  0  0  0  0
  -22.7826  -13.5215   21.1869 C   0  0  0  0  0  0
  -22.1661   -4.2152   21.0981 F   0  0  0  0  0  0
  -21.5627   -3.4541   25.7744 F   0  0  0  0  0  0
  -29.9821  -13.5596   20.4051 N   0  0  0  0  0  0
  -26.2946  -12.9415   20.3309 N   0  0  0  0  0  0
  -25.9343  -11.6553   20.5779 N   0  0  0  0  0  0
  -22.0475  -12.8198   22.0418 N   0  0  0  0  0  0
  -25.4268  -15.1929   20.4217 N   0  0  0  0  0  0
  -31.7917  -14.8604   20.0671 O   0  0  0  0  0  0
  -21.6640   -6.8886   21.4247 O   0  0  0  0  0  0
  -22.3507  -14.5524   20.6731 O   0  0  0  0  0  0
  -24.6356  -31.8515   23.1975 C   0  0  0  0  0  0
  -25.9177  -32.4739   23.8320 C   0  0  1  0  0  0
  -27.2071  -27.2123   20.1395 C   0  0  0  0  0  0
  -25.5971  -33.8541   24.2256 N   0  0  0  0  0  0
  -23.4360  -30.4747   21.5383 C   0  0  2  0  0  0
  -24.8872  -28.9242   20.0982 C   0  0  0  0  0  0
  -22.7535  -29.4583   22.4865 C   0  0  0  0  0  0
  -18.0308  -28.1412   22.8485 C   0  0  0  0  0  0
  -24.1479  -36.7252   23.2632 C   0  0  0  0  0  0
  -25.9850  -30.7470   21.3892 C   0  0  0  0  0  0
  -26.0570  -29.3662   20.7312 C   0  0  0  0  0  0
  -27.2198  -28.5193   20.7514 C   0  0  0  0  0  0
  -26.0372  -26.8827   19.4216 C   0  0  0  0  0  0
  -24.8851  -27.6926   19.4295 C   0  0  0  0  0  0
  -23.6584  -29.8138   20.1522 C   0  0  0  0  0  0
  -25.4111  -36.3044   24.0316 C   0  0  1  0  0  0
  -20.5917  -28.3720   23.1250 C   0  0  2  0  0  0
  -20.6786  -26.9429   22.5407 C   0  0  0  0  0  0
  -19.5754  -26.6397   21.5215 C   0  0  0  0  0  0
  -18.1938  -26.7956   22.1629 C   0  0  0  0  0  0
  -19.1564  -28.8888   23.2862 C   0  0  0  0  0  0
  -18.9479  -30.1490   23.8880 C   0  0  0  0  0  0
  -17.6475  -30.6607   24.0570 C   0  0  0  0  0  0
  -25.9055  -34.9426   23.5077 C   0  0  0  0  0  0
  -16.5366  -29.9093   23.6343 C   0  0  0  0  0  0
  -16.7291  -28.6521   23.0354 C   0  0  0  0  0  0
  -26.4534  -31.6584   25.0728 C   0  0  0  0  0  0
  -25.3749  -31.3776   26.1451 C   0  0  0  0  0  0
  -27.0368  -30.2983   24.6265 C   0  0  0  0  0  0
  -27.6087  -32.4328   25.7503 C   0  0  0  0  0  0
  -27.5571  -37.1783   24.8466 C   0  0  0  0  0  0
  -21.4239  -29.3049   22.3621 N   0  0  0  0  0  0
  -26.4282  -37.3751   23.9411 N   0  0  0  0  0  0
  -24.7041  -31.0433   22.0977 N   0  0  0  0  0  0
  -23.4210  -28.8114   23.2976 O   0  0  0  0  0  0
  -28.2252  -26.2128   20.2410 O   0  0  0  0  0  0
  -26.5609  -34.8900   22.4634 O   0  0  0  0  0  0
  -23.5497  -32.1368   23.7245 O   0  0  0  0  0  0
  -28.5748  -18.0987   18.1832 C   0  0  0  0  0  0
  -28.6357  -19.4197   18.6744 C   0  0  0  0  0  0
  -29.0606  -17.0023   18.9259 C   0  0  0  0  0  0
  -29.6854  -18.5647   20.6905 C   0  0  0  0  0  0
  -29.2122  -19.7262   19.9273 C   0  0  0  0  0  0
  -29.6156  -17.1708   20.2141 C   0  0  0  0  0  0
  -29.9501  -23.4836   19.7569 C   0  0  0  0  0  0
  -28.6129  -23.6447   20.3225 C   0  0  0  0  0  0
  -30.3397  -21.9566   19.7446 C   0  0  0  0  0  0
  -27.8963  -24.8302   20.5650 C   0  0  0  0  0  0
  -28.2171  -22.1435   20.6121 C   0  0  0  0  0  0
  -26.5965  -24.6878   21.3614 C   0  0  0  0  0  0
  -30.1007  -16.0979   22.4269 C   0  0  0  0  0  0
  -29.3364  -21.1912   20.2514 N   0  0  0  0  0  0
  -29.9881  -15.9295   20.9765 N   0  0  0  0  0  0
  -30.6916  -24.3892   19.3512 O   0  0  0  0  0  0
  -31.4311  -21.5360   19.3341 O   0  0  0  0  0  0
  -31.4713  -12.6012   19.1754 H   0  0  0  0  0  0
  -30.3797  -11.5131   19.9764 H   0  0  0  0  0  0
  -29.7999  -11.7292   17.5387 H   0  0  0  0  0  0
  -29.6339  -13.4595   17.7134 H   0  0  0  0  0  0
  -27.9090  -11.2816   18.9337 H   0  0  0  0  0  0
  -27.3793  -12.5078   17.8094 H   0  0  0  0  0  0
  -27.6304  -14.2563   19.4663 H   0  0  0  0  0  0
  -28.7302  -12.2010   21.4407 H   0  0  0  0  0  0
  -28.4011  -13.8814   21.7856 H   0  0  0  0  0  0
  -25.2772   -9.5673   22.4754 H   0  0  0  0  0  0
  -24.0006   -7.4628   22.7462 H   0  0  0  0  0  0
  -21.0853   -8.8777   19.8954 H   0  0  0  0  0  0
  -22.3711  -10.9667   19.6161 H   0  0  0  0  0  0
  -21.2013   -7.6150   23.9720 H   0  0  0  0  0  0
  -21.1478   -6.0526   25.9077 H   0  0  0  0  0  0
  -22.0599   -2.7615   23.2851 H   0  0  0  0  0  0
  -22.4104  -11.9864   22.4809 H   0  0  0  0  0  0
  -21.1091  -13.1212   22.2629 H   0  0  0  0  0  0
  -24.6764  -15.8602   20.5653 H   0  0  0  0  0  0
  -26.3029  -15.6309   20.1657 H   0  0  0  0  0  0
  -26.7239  -32.5378   23.1043 H   0  0  0  0  0  0
  -25.0172  -33.9674   25.0442 H   0  0  0  0  0  0
  -22.7340  -31.2989   21.3921 H   0  0  0  0  0  0
  -23.3748  -35.9578   23.3292 H   0  0  0  0  0  0
  -24.3566  -36.8880   22.2051 H   0  0  0  0  0  0
  -23.7225  -37.6448   23.6655 H   0  0  0  0  0  0
  -26.1314  -31.5053   20.6186 H   0  0  0  0  0  0
  -26.8586  -30.7974   22.0263 H   0  0  0  0  0  0
  -28.1025  -28.8364   21.2889 H   0  0  0  0  0  0
  -25.9868  -25.9380   18.8984 H   0  0  0  0  0  0
  -23.9966  -27.3578   18.9106 H   0  0  0  0  0  0
  -23.7845  -30.5918   19.3974 H   0  0  0  0  0  0
  -22.7753  -29.2496   19.8462 H   0  0  0  0  0  0
  -25.1293  -36.1876   25.0807 H   0  0  0  0  0  0
  -21.0026  -28.3313   24.1363 H   0  0  0  0  0  0
  -20.5685  -26.2329   23.3621 H   0  0  0  0  0  0
  -21.6646  -26.7440   22.1199 H   0  0  0  0  0  0
  -19.6894  -25.6301   21.1259 H   0  0  0  0  0  0
  -19.6691  -27.3192   20.6731 H   0  0  0  0  0  0
  -17.4203  -26.6728   21.4030 H   0  0  0  0  0  0
  -18.0317  -26.0117   22.9042 H   0  0  0  0  0  0
  -19.7950  -30.7327   24.2228 H   0  0  0  0  0  0
  -17.5019  -31.6282   24.5175 H   0  0  0  0  0  0
  -15.5362  -30.2978   23.7689 H   0  0  0  0  0  0
  -15.8699  -28.0836   22.7060 H   0  0  0  0  0  0
  -24.5923  -30.7113   25.7796 H   0  0  0  0  0  0
  -24.8946  -32.2968   26.4820 H   0  0  0  0  0  0
  -25.8070  -30.9004   27.0257 H   0  0  0  0  0  0
  -26.2964  -29.6737   24.1255 H   0  0  0  0  0  0
  -27.3971  -29.7251   25.4816 H   0  0  0  0  0  0
  -27.8878  -30.4210   23.9561 H   0  0  0  0  0  0
  -27.2710  -33.3646   26.2040 H   0  0  0  0  0  0
  -28.3933  -32.6863   25.0361 H   0  0  0  0  0  0
  -28.0714  -31.8480   26.5463 H   0  0  0  0  0  0
  -28.2588  -38.0076   24.7505 H   0  0  0  0  0  0
  -28.1066  -36.2611   24.6297 H   0  0  0  0  0  0
  -27.2293  -37.1441   25.8869 H   0  0  0  0  0  0
  -20.9427  -29.8777   21.6833 H   0  0  0  0  0  0
  -26.0150  -38.2813   24.1435 H   0  0  0  0  0  0
  -28.1467  -17.9204   17.2063 H   0  0  0  0  0  0
  -28.2645  -20.2182   18.0450 H   0  0  0  0  0  0
  -28.9709  -16.0150   18.4952 H   0  0  0  0  0  0
  -30.1222  -18.7537   21.6606 H   0  0  0  0  0  0
  -27.3237  -21.8882   20.0421 H   0  0  0  0  0  0
  -27.9795  -22.0180   21.6691 H   0  0  0  0  0  0
  -25.7629  -24.4320   20.7071 H   0  0  0  0  0  0
  -26.3435  -25.5865   21.9235 H   0  0  0  0  0  0
  -26.6798  -23.8938   22.1035 H   0  0  0  0  0  0
  -29.2477  -16.6546   22.8172 H   0  0  0  0  0  0
  -31.0119  -16.6407   22.6810 H   0  0  0  0  0  0
  -30.1267  -15.1443   22.9576 H   0  0  0  0  0  0
  1 25  1  0  0  0
  1 30  2  0  0  0
  1 85  1  0  0  0
  2  3  1  0  0  0
  2 25  1  0  0  0
  2 88  1  0  0  0
  2 89  1  0  0  0
  3  4  1  0  0  0
  3 90  1  0  0  0
  3 91  1  0  0  0
  4  5  1  0  0  0
  4 92  1  0  0  0
  4 93  1  0  0  0
  5  6  1  0  0  0
  5 26  1  0  0  0
  5 94  1  0  0  0
  6 25  1  0  0  0
  6 95  1  0  0  0
  6 96  1  0  0  0
  7  8  2  0  0  0
  7 26  1  0  0  0
  7 29  1  0  0  0
  8  9  1  0  0  0
  8 22  1  0  0  0
  9 10  1  0  0  0
  9 27  2  0  0  0
 10 11  2  0  0  0
 10 15  1  0  0  0
 11 12  1  0  0  0
 11 97  1  0  0  0
 12 13  2  0  0  0
 12 98  1  0  0  0
 13 14  1  0  0  0
 13 31  1  0  0  0
 14 15  2  0  0  0
 14 99  1  0  0  0
 15100  1  0  0  0
 16 17  2  0  0  0
 16 21  1  0  0  0
 16 31  1  0  0  0
 17 18  1  0  0  0
 17101  1  0  0  0
 18 19  2  0  0  0
 18102  1  0  0  0
 19 20  1  0  0  0
 19 24  1  0  0  0
 20 21  2  0  0  0
 20103  1  0  0  0
 21 23  1  0  0  0
 22 28  1  0  0  0
 22 32  2  0  0  0
 26 27  1  0  0  0
 28104  1  0  0  0
 28105  1  0  0  0
 29106  1  0  0  0
 29107  1  0  0  0
 33 34  1  0  0  0
 33 66  1  0  0  0
 33 70  2  0  0  0
 34 36  1  0  0  0
 34 59  1  0  0  0
 34108  1  0  0  0
 35 44  2  0  0  0
 35 45  1  0  0  0
 35 68  1  0  0  0
 36 56  1  0  0  0
 36109  1  0  0  0
 37 39  1  0  0  0
 37 47  1  0  0  0
 37 66  1  0  0  0
 37110  1  0  0  0
 38 43  2  0  0  0
 38 46  1  0  0  0
 38 47  1  0  0  0
 39 64  1  0  0  0
 39 67  2  0  0  0
 40 52  1  0  0  0
 40 53  2  0  0  0
 40 58  1  0  0  0
 41111  1  0  0  0
 41112  1  0  0  0
 41113  1  0  0  0
 41 48  1  0  0  0
 42 43  1  0  0  0
 42 66  1  0  0  0
 42114  1  0  0  0
 42115  1  0  0  0
 43 44  1  0  0  0
 44116  1  0  0  0
 45 46  2  0  0  0
 45117  1  0  0  0
 46118  1  0  0  0
 47119  1  0  0  0
 47120  1  0  0  0
 48 56  1  0  0  0
 48 65  1  0  0  0
 48121  1  0  0  0
 49 50  1  0  0  0
 49 53  1  0  0  0
 49 64  1  0  0  0
 49122  1  0  0  0
 50 51  1  0  0  0
 50123  1  0  0  0
 50124  1  0  0  0
 51 52  1  0  0  0
 51125  1  0  0  0
 51126  1  0  0  0
 52127  1  0  0  0
 52128  1  0  0  0
 53 54  1  0  0  0
 54 55  2  0  0  0
 54129  1  0  0  0
 55 57  1  0  0  0
 55130  1  0  0  0
 56 69  2  0  0  0
 57 58  2  0  0  0
 57131  1  0  0  0
 58132  1  0  0  0
 59 60  1  0  0  0
 59 61  1  0  0  0
 59 62  1  0  0  0
 60133  1  0  0  0
 60134  1  0  0  0
 60135  1  0  0  0
 61136  1  0  0  0
 61137  1  0  0  0
 61138  1  0  0  0
 62139  1  0  0  0
 62140  1  0  0  0
 62141  1  0  0  0
 63 65  1  0  0  0
 63142  1  0  0  0
 63143  1  0  0  0
 63144  1  0  0  0
 64145  1  0  0  0
 65146  1  0  0  0
 68 80  1  0  0  0
 71 72  2  0  0  0
 71 73  1  0  0  0
 71147  1  0  0  0
 72 75  1  0  0  0
 72148  1  0  0  0
 73 76  2  0  0  0
 73149  1  0  0  0
 74 75  2  0  0  0
 74 76  1  0  0  0
 74150  1  0  0  0
 75 84  1  0  0  0
 76 85  1  0  0  0
 77 78  1  0  0  0
 77 79  1  0  0  0
 77 86  2  0  0  0
 78 80  2  0  0  0
 78 81  1  0  0  0
 79 84  1  0  0  0
 79 87  2  0  0  0
 80 82  1  0  0  0
 81 84  1  0  0  0
 81151  1  0  0  0
 81152  1  0  0  0
 82153  1  0  0  0
 82154  1  0  0  0
 82155  1  0  0  0
 83 85  1  0  0  0
 83156  1  0  0  0
 83157  1  0  0  0
 83158  1  0  0  0
M  ISO  4   1 100  68 101  80 101  85 100
M  END
> <chiral flag>
0

> <version>
0

> <s_m_source_file>
/data/baiqing/PycharmProjects/Reinvent-master-3.2/result/LINK_invent/BTK/process_docking_weight1_custom_product_contain_oxygen_bond_distance_aromatic_linkinvent_7_9_3/rearranged_h_0076.sdf

> <i_m_source_file_index>
10

> <r_mmod_Potential_Energy-OPLS-2005>
572.523681640625

> <r_mmod_Stretch_Energy-OPLS-2005>
157.7802734375

> <r_mmod_Bend_Energy-OPLS-2005>
211.297485351562

> <r_mmod_Torsional_Energy-OPLS-2005>
360.551086425781

> <r_mmod_Improper_Torsional_Energy-OPLS-2005>
4.62218904495239

> <r_mmod_Van_der_Waal_Energy-OPLS-2005>
134.622375488281

> <r_mmod_Electrostatic_Energy-OPLS-2005>
-182.117874145508

> <r_mmod_Solvation_Energy-OPLS-2005>
-232.912612915039

> <b_mmod_Minimization_Converged-OPLS-2005>
0

> <r_mmod_RMS_Derivative-OPLS-2005>
1.8801896572113

$$$$
10
                    3D
 Structure written by MMmdl.
180190  0  0  1  0            999 V2000
  -30.6888  -14.6281   20.4952 C   0  0  0  0  0  0
  -30.4167  -12.3924   19.4482 C   0  0  0  0  0  0
  -29.4971  -12.5013   18.2145 C   0  0  0  0  0  0
  -28.0173  -12.3524   18.6238 C   0  0  0  0  0  0
  -27.6425  -13.2210   19.8553 C   0  0  2  0  0  0
  -28.6920  -13.0898   20.9787 C   0  0  0  0  0  0
  -25.2485  -13.8171   20.5672 C   0  0  0  0  0  0
  -24.1785  -13.0428   20.9218 C   0  0  0  0  0  0
  -24.6371  -11.6908   20.8766 C   0  0  0  0  0  0
  -23.9048  -10.4286   21.0412 C   0  0  0  0  0  0
  -24.3609   -9.4211   21.9185 C   0  0  0  0  0  0
  -23.6299   -8.2236   22.0744 C   0  0  0  0  0  0
  -22.4278   -8.0261   21.3538 C   0  0  0  0  0  0
  -21.9905   -9.0230   20.4638 C   0  0  0  0  0  0
  -22.7229  -10.2116   20.3060 C   0  0  0  0  0  0
  -21.6854   -6.0733   22.5287 C   0  0  0  0  0  0
  -21.4020   -6.5637   23.8223 C   0  0  0  0  0  0
  -21.3659   -5.6788   24.9180 C   0  0  0  0  0  0
  -21.6042   -4.3054   24.7234 C   0  0  0  0  0  0
  -21.8818   -3.8148   23.4354 C   0  0  0  0  0  0
  -21.9195   -4.6962   22.3410 C   0  0  0  0  0  0
  -22.7805  -13.5211   21.1868 C   0  0  0  0  0  0
  -22.1649   -4.2146   21.0990 F   0  0  0  0  0  0
  -21.5632   -3.4540   25.7746 F   0  0  0  0  0  0
  -29.9946  -13.4448   20.3983 N   0  0  0  0  0  0
  -26.2924  -12.9369   20.3315 N   0  0  0  0  0  0
  -25.9300  -11.6521   20.5771 N   0  0  0  0  0  0
  -22.0437  -12.8212   22.0420 N   0  0  0  0  0  0
  -25.4097  -15.1880   20.3956 N   0  0  0  0  0  0
  -31.8874  -14.6466   20.1980 O   0  0  0  0  0  0
  -21.6636   -6.8868   21.4244 O   0  0  0  0  0  0
  -22.3484  -14.5504   20.6694 O   0  0  0  0  0  0
  -24.6224  -31.8614   23.2030 C   0  0  0  0  0  0
  -25.9088  -32.4786   23.8354 C   0  0  1  0  0  0
  -27.2317  -27.3576   20.1155 C   0  0  0  0  0  0
  -25.5919  -33.8583   24.2287 N   0  0  0  0  0  0
  -23.4143  -30.4821   21.5458 C   0  0  2  0  0  0
  -24.8625  -28.9344   20.1169 C   0  0  0  0  0  0
  -22.7446  -29.4631   22.4971 C   0  0  0  0  0  0
  -18.0277  -28.1373   22.8489 C   0  0  0  0  0  0
  -24.1487  -36.7298   23.2640 C   0  0  0  0  0  0
  -25.9498  -30.8036   21.3667 C   0  0  0  0  0  0
  -26.0276  -29.4305   20.7166 C   0  0  0  0  0  0
  -27.2186  -28.6524   20.7068 C   0  0  0  0  0  0
  -26.0485  -26.8948   19.5051 C   0  0  0  0  0  0
  -24.8712  -27.6689   19.5050 C   0  0  0  0  0  0
  -23.6266  -29.8085   20.1636 C   0  0  0  0  0  0
  -25.4111  -36.3088   24.0329 C   0  0  1  0  0  0
  -20.5870  -28.3674   23.1300 C   0  0  2  0  0  0
  -20.6768  -26.9404   22.5412 C   0  0  0  0  0  0
  -19.5749  -26.6380   21.5210 C   0  0  0  0  0  0
  -18.1926  -26.7921   22.1618 C   0  0  0  0  0  0
  -19.1528  -28.8842   23.2886 C   0  0  0  0  0  0
  -18.9455  -30.1446   23.8895 C   0  0  0  0  0  0
  -17.6458  -30.6584   24.0556 C   0  0  0  0  0  0
  -25.9046  -34.9457   23.5111 C   0  0  0  0  0  0
  -16.5347  -29.9081   23.6329 C   0  0  0  0  0  0
  -16.7266  -28.6495   23.0356 C   0  0  0  0  0  0
  -26.4496  -31.6582   25.0709 C   0  0  0  0  0  0
  -25.3741  -31.3699   26.1444 C   0  0  0  0  0  0
  -27.0333  -30.3012   24.6126 C   0  0  0  0  0  0
  -27.6056  -32.4302   25.7482 C   0  0  0  0  0  0
  -27.5579  -37.1802   24.8464 C   0  0  0  0  0  0
  -21.4168  -29.3037   22.3709 N   0  0  0  0  0  0
  -26.4290  -37.3780   23.9408 N   0  0  0  0  0  0
  -24.6808  -31.0648   22.0971 N   0  0  0  0  0  0
  -23.4188  -28.8180   23.3048 O   0  0  0  0  0  0
  -28.3612  -26.5449   20.0952 O   0  0  0  0  0  0
  -26.5611  -34.8921   22.4675 O   0  0  0  0  0  0
  -23.5395  -32.1400   23.7388 O   0  0  0  0  0  0
  -31.4045  -24.6254   20.3465 C   0  0  0  0  0  0
  -30.4271  -24.5223   18.1225 C   0  0  0  0  0  0
  -32.7631  -25.1486   18.3949 C   0  0  0  0  0  0
  -30.2855  -24.3477   19.5244 C   0  0  0  0  0  0
  -32.6382  -25.0136   19.7890 C   0  0  0  0  0  0
  -31.6621  -24.9228   17.5510 C   0  0  0  0  0  0
  -29.4731  -20.2933   21.2310 C   0  0  0  0  0  0
  -30.5463  -18.3270   19.9554 C   0  0  0  0  0  0
  -28.9950  -17.8048   21.7667 C   0  0  0  0  0  0
  -27.9998  -23.1163   19.2575 C   0  0  0  0  0  0
  -30.3748  -16.8673   19.4173 C   0  0  0  0  0  0
  -28.9186  -16.3014   21.3258 C   0  0  0  0  0  0
  -28.5303  -21.6545   19.2757 C   0  0  0  0  0  0
  -29.1442  -22.8233   21.2625 C   0  0  0  0  0  0
  -29.2811  -18.8592   20.6523 C   0  0  0  0  0  0
  -28.9392  -23.9506   20.1769 C   0  0  1  0  0  0
  -33.8285  -25.3086   20.6802 C   0  0  0  0  0  0
  -30.7419  -25.1426   15.3421 C   0  0  0  0  0  0
  -28.2591  -25.2563   20.7892 C   0  0  0  0  0  0
  -29.1132  -21.4774   20.6115 N   0  0  0  0  0  0
  -29.9931  -15.8266   20.4190 N   0  0  0  0  0  0
  -30.0501  -20.3794   22.4469 N   0  3  0  0  0  0
  -31.8723  -25.1197   16.2035 O   0  0  0  0  0  0
  -31.4599  -12.4855   19.1429 H   0  0  0  0  0  0
  -30.3310  -11.4043   19.9049 H   0  0  0  0  0  0
  -29.7605  -11.7440   17.4738 H   0  0  0  0  0  0
  -29.6485  -13.4682   17.7293 H   0  0  0  0  0  0
  -27.8382  -11.3002   18.8456 H   0  0  0  0  0  0
  -27.3693  -12.5952   17.7810 H   0  0  0  0  0  0
  -27.6510  -14.2536   19.5079 H   0  0  0  0  0  0
  -28.7127  -12.0660   21.3574 H   0  0  0  0  0  0
  -28.4308  -13.7014   21.8364 H   0  0  0  0  0  0
  -25.2735   -9.5708   22.4791 H   0  0  0  0  0  0
  -24.0019   -7.4618   22.7453 H   0  0  0  0  0  0
  -21.0839   -8.8735   19.8932 H   0  0  0  0  0  0
  -22.3665  -10.9656   19.6182 H   0  0  0  0  0  0
  -21.2012   -7.6142   23.9735 H   0  0  0  0  0  0
  -21.1481   -6.0509   25.9083 H   0  0  0  0  0  0
  -22.0605   -2.7613   23.2857 H   0  0  0  0  0  0
  -22.4025  -11.9890   22.4871 H   0  0  0  0  0  0
  -21.1033  -13.1241   22.2564 H   0  0  0  0  0  0
  -24.6375  -15.8381   20.4937 H   0  0  0  0  0  0
  -26.2473  -15.6213   20.0321 H   0  0  0  0  0  0
  -26.7161  -32.5469   23.1107 H   0  0  0  0  0  0
  -25.0071  -33.9729   25.0439 H   0  0  0  0  0  0
  -22.7064  -31.3009   21.4004 H   0  0  0  0  0  0
  -23.3747  -35.9632   23.3301 H   0  0  0  0  0  0
  -24.3580  -36.8920   22.2055 H   0  0  0  0  0  0
  -23.7240  -37.6501   23.6659 H   0  0  0  0  0  0
  -26.0686  -31.5644   20.5938 H   0  0  0  0  0  0
  -26.8347  -30.8601   21.9891 H   0  0  0  0  0  0
  -28.1175  -29.0309   21.1726 H   0  0  0  0  0  0
  -26.0352  -25.9235   19.0302 H   0  0  0  0  0  0
  -23.9773  -27.2815   19.0359 H   0  0  0  0  0  0
  -23.7376  -30.5794   19.4003 H   0  0  0  0  0  0
  -22.7491  -29.2295   19.8694 H   0  0  0  0  0  0
  -25.1292  -36.1941   25.0821 H   0  0  0  0  0  0
  -20.9952  -28.3240   24.1421 H   0  0  0  0  0  0
  -20.5667  -26.2285   23.3607 H   0  0  0  0  0  0
  -21.6639  -26.7441   22.1208 H   0  0  0  0  0  0
  -19.6915  -25.6290   21.1240 H   0  0  0  0  0  0
  -19.6690  -27.3190   20.6740 H   0  0  0  0  0  0
  -17.4199  -26.6669   21.4014 H   0  0  0  0  0  0
  -18.0327  -26.0051   22.9006 H   0  0  0  0  0  0
  -19.7933  -30.7261   24.2263 H   0  0  0  0  0  0
  -17.5014  -31.6268   24.5150 H   0  0  0  0  0  0
  -15.5348  -30.2985   23.7653 H   0  0  0  0  0  0
  -15.8664  -28.0811   22.7081 H   0  0  0  0  0  0
  -24.5919  -30.7047   25.7775 H   0  0  0  0  0  0
  -24.8934  -32.2860   26.4883 H   0  0  0  0  0  0
  -25.8082  -30.8871   27.0208 H   0  0  0  0  0  0
  -26.2895  -29.6759   24.1176 H   0  0  0  0  0  0
  -27.4085  -29.7262   25.4601 H   0  0  0  0  0  0
  -27.8736  -30.4315   23.9300 H   0  0  0  0  0  0
  -27.2677  -33.3601   26.2063 H   0  0  0  0  0  0
  -28.3876  -32.6857   25.0321 H   0  0  0  0  0  0
  -28.0716  -31.8421   26.5399 H   0  0  0  0  0  0
  -28.2593  -38.0104   24.7516 H   0  0  0  0  0  0
  -28.1077  -36.2634   24.6282 H   0  0  0  0  0  0
  -27.2295  -37.1444   25.8867 H   0  0  0  0  0  0
  -20.9344  -29.8761   21.6921 H   0  0  0  0  0  0
  -26.0174  -38.2854   24.1409 H   0  0  0  0  0  0
  -31.3244  -24.5629   21.4224 H   0  0  0  0  0  0
  -29.5810  -24.3659   17.4763 H   0  0  0  0  0  0
  -33.7070  -25.4562   17.9664 H   0  0  0  0  0  0
  -30.8062  -18.9933   19.1329 H   0  0  0  0  0  0
  -31.3889  -18.3619   20.6487 H   0  0  0  0  0  0
  -29.7751  -17.8583   22.5264 H   0  0  0  0  0  0
  -28.0697  -18.0732   22.2779 H   0  0  0  0  0  0
  -26.9941  -23.1051   19.6802 H   0  0  0  0  0  0
  -27.8739  -23.5121   18.2530 H   0  0  0  0  0  0
  -31.2878  -16.5961   18.8834 H   0  0  0  0  0  0
  -29.5975  -16.8698   18.6521 H   0  0  0  0  0  0
  -27.9628  -16.1230   20.8380 H   0  0  0  0  0  0
  -28.9178  -15.7100   22.2404 H   0  0  0  0  0  0
  -29.3129  -21.5116   18.5298 H   0  0  0  0  0  0
  -27.7348  -20.9369   19.0820 H   0  0  0  0  0  0
  -28.3077  -22.8411   21.9617 H   0  0  0  0  0  0
  -30.0416  -22.9573   21.8606 H   0  0  0  0  0  0
  -28.4469  -18.8699   19.9496 H   0  0  0  0  0  0
  -33.7018  -24.8788   21.6741 H   0  0  0  0  0  0
  -33.9632  -26.3854   20.7891 H   0  0  0  0  0  0
  -34.7431  -24.8957   20.2523 H   0  0  0  0  0  0
  -31.0638  -25.4113   14.3360 H   0  0  0  0  0  0
  -30.0137  -25.8888   15.6615 H   0  0  0  0  0  0
  -30.2600  -24.1669   15.2827 H   0  0  0  0  0  0
  -28.7515  -25.4450   21.7440 H   0  0  0  0  0  0
  -27.2264  -25.0309   21.0601 H   0  0  0  0  0  0
  -30.3288  -19.5457   22.9439 H   0  0  0  0  0  0
  -30.2315  -21.2628   22.8989 H   0  0  0  0  0  0
  1 25  1  0  0  0
  1 30  2  0  0  0
  1 91  1  0  0  0
  2  3  1  0  0  0
  2 25  1  0  0  0
  2 94  1  0  0  0
  2 95  1  0  0  0
  3  4  1  0  0  0
  3 96  1  0  0  0
  3 97  1  0  0  0
  4  5  1  0  0  0
  4 98  1  0  0  0
  4 99  1  0  0  0
  5  6  1  0  0  0
  5 26  1  0  0  0
  5100  1  0  0  0
  6 25  1  0  0  0
  6101  1  0  0  0
  6102  1  0  0  0
  7  8  2  0  0  0
  7 26  1  0  0  0
  7 29  1  0  0  0
  8  9  1  0  0  0
  8 22  1  0  0  0
  9 10  1  0  0  0
  9 27  2  0  0  0
 10 11  2  0  0  0
 10 15  1  0  0  0
 11 12  1  0  0  0
 11103  1  0  0  0
 12 13  2  0  0  0
 12104  1  0  0  0
 13 14  1  0  0  0
 13 31  1  0  0  0
 14 15  2  0  0  0
 14105  1  0  0  0
 15106  1  0  0  0
 16 17  2  0  0  0
 16 21  1  0  0  0
 16 31  1  0  0  0
 17 18  1  0  0  0
 17107  1  0  0  0
 18 19  2  0  0  0
 18108  1  0  0  0
 19 20  1  0  0  0
 19 24  1  0  0  0
 20 21  2  0  0  0
 20109  1  0  0  0
 21 23  1  0  0  0
 22 28  1  0  0  0
 22 32  2  0  0  0
 26 27  1  0  0  0
 28110  1  0  0  0
 28111  1  0  0  0
 29112  1  0  0  0
 29113  1  0  0  0
 33 34  1  0  0  0
 33 66  1  0  0  0
 33 70  2  0  0  0
 34 36  1  0  0  0
 34 59  1  0  0  0
 34114  1  0  0  0
 35 44  2  0  0  0
 35 45  1  0  0  0
 35 68  1  0  0  0
 36 56  1  0  0  0
 36115  1  0  0  0
 37 39  1  0  0  0
 37 47  1  0  0  0
 37 66  1  0  0  0
 37116  1  0  0  0
 38 43  2  0  0  0
 38 46  1  0  0  0
 38 47  1  0  0  0
 39 64  1  0  0  0
 39 67  2  0  0  0
 40 52  1  0  0  0
 40 53  2  0  0  0
 40 58  1  0  0  0
 41117  1  0  0  0
 41118  1  0  0  0
 41119  1  0  0  0
 41 48  1  0  0  0
 42 43  1  0  0  0
 42 66  1  0  0  0
 42120  1  0  0  0
 42121  1  0  0  0
 43 44  1  0  0  0
 44122  1  0  0  0
 45 46  2  0  0  0
 45123  1  0  0  0
 46124  1  0  0  0
 47125  1  0  0  0
 47126  1  0  0  0
 48 56  1  0  0  0
 48 65  1  0  0  0
 48127  1  0  0  0
 49 50  1  0  0  0
 49 53  1  0  0  0
 49 64  1  0  0  0
 49128  1  0  0  0
 50 51  1  0  0  0
 50129  1  0  0  0
 50130  1  0  0  0
 51 52  1  0  0  0
 51131  1  0  0  0
 51132  1  0  0  0
 52133  1  0  0  0
 52134  1  0  0  0
 53 54  1  0  0  0
 54 55  2  0  0  0
 54135  1  0  0  0
 55 57  1  0  0  0
 55136  1  0  0  0
 56 69  2  0  0  0
 57 58  2  0  0  0
 57137  1  0  0  0
 58138  1  0  0  0
 59 60  1  0  0  0
 59 61  1  0  0  0
 59 62  1  0  0  0
 60139  1  0  0  0
 60140  1  0  0  0
 60141  1  0  0  0
 61142  1  0  0  0
 61143  1  0  0  0
 61144  1  0  0  0
 62145  1  0  0  0
 62146  1  0  0  0
 62147  1  0  0  0
 63 65  1  0  0  0
 63148  1  0  0  0
 63149  1  0  0  0
 63150  1  0  0  0
 64151  1  0  0  0
 65152  1  0  0  0
 68 89  1  0  0  0
 71 74  2  0  0  0
 71 75  1  0  0  0
 71153  1  0  0  0
 72 74  1  0  0  0
 72 76  2  0  0  0
 72154  1  0  0  0
 73 75  2  0  0  0
 73 76  1  0  0  0
 73155  1  0  0  0
 74 86  1  0  0  0
 75 87  1  0  0  0
 76 93  1  0  0  0
 77 90  1  0  0  0
 77 92  2  0  0  0
 77 85  1  0  0  0
 78 81  1  0  0  0
 78 85  1  0  0  0
 78156  1  0  0  0
 78157  1  0  0  0
 79 82  1  0  0  0
 79 85  1  0  0  0
 79158  1  0  0  0
 79159  1  0  0  0
 80 83  1  0  0  0
 80 86  1  0  0  0
 80160  1  0  0  0
 80161  1  0  0  0
 81 91  1  0  0  0
 81162  1  0  0  0
 81163  1  0  0  0
 82 91  1  0  0  0
 82164  1  0  0  0
 82165  1  0  0  0
 83 90  1  0  0  0
 83166  1  0  0  0
 83167  1  0  0  0
 84 86  1  0  0  0
 84 90  1  0  0  0
 84168  1  0  0  0
 84169  1  0  0  0
 85170  1  0  0  0
 86 89  1  0  0  0
 87171  1  0  0  0
 87172  1  0  0  0
 87173  1  0  0  0
 88 93  1  0  0  0
 88174  1  0  0  0
 88175  1  0  0  0
 88176  1  0  0  0
 89177  1  0  0  0
 89178  1  0  0  0
 92179  1  0  0  0
 92180  1  0  0  0
M  CHG  1  92   1
M  ISO  4   1 100  68 101  89 101  91 100
M  END
> <chiral flag>
0

> <version>
0

> <s_m_source_file>
/data/baiqing/PycharmProjects/Reinvent-master-3.2/result/LINK_invent/BTK/process_docking_weight1_custom_product_contain_oxygen_bond_distance_aromatic_linkinvent_7_9_3/rearranged_h_0076.sdf

> <i_m_source_file_index>
11

> <r_mmod_Potential_Energy-OPLS-2005>
324.700012207031

> <r_mmod_Stretch_Energy-OPLS-2005>
79.6645660400391

> <r_mmod_Bend_Energy-OPLS-2005>
196.147872924805

> <r_mmod_Torsional_Energy-OPLS-2005>
405.508758544922

> <r_mmod_Improper_Torsional_Energy-OPLS-2005>
16.3732242584229

> <r_mmod_Van_der_Waal_Energy-OPLS-2005>
157.617599487305

> <r_mmod_Electrostatic_Energy-OPLS-2005>
-128.178085327148

> <r_mmod_Solvation_Energy-OPLS-2005>
-443.653137207031

> <b_mmod_Minimization_Converged-OPLS-2005>
0

> <r_mmod_RMS_Derivative-OPLS-2005>
1.93761324882507

$$$$
11
                    3D
 Structure written by MMmdl.
159168  0  0  1  0            999 V2000
  -30.6125  -14.7673   20.4328 C   0  0  0  0  0  0
  -30.4232  -12.4597   19.4837 C   0  0  0  0  0  0
  -29.5055  -12.5086   18.2408 C   0  0  0  0  0  0
  -28.0344  -12.3296   18.6580 C   0  0  0  0  0  0
  -27.6399  -13.2362   19.8531 C   0  0  2  0  0  0
  -28.6847  -13.1924   20.9892 C   0  0  0  0  0  0
  -25.2503  -13.8221   20.5719 C   0  0  0  0  0  0
  -24.1791  -13.0466   20.9229 C   0  0  0  0  0  0
  -24.6404  -11.6946   20.8792 C   0  0  0  0  0  0
  -23.9098  -10.4311   21.0443 C   0  0  0  0  0  0
  -24.3638   -9.4210   21.9208 C   0  0  0  0  0  0
  -23.6303   -8.2251   22.0762 C   0  0  0  0  0  0
  -22.4284   -8.0303   21.3559 C   0  0  0  0  0  0
  -21.9932   -9.0291   20.4663 C   0  0  0  0  0  0
  -22.7277  -10.2157   20.3080 C   0  0  0  0  0  0
  -21.6856   -6.0746   22.5292 C   0  0  0  0  0  0
  -21.4012   -6.5647   23.8224 C   0  0  0  0  0  0
  -21.3662   -5.6795   24.9188 C   0  0  0  0  0  0
  -21.6042   -4.3058   24.7232 C   0  0  0  0  0  0
  -21.8817   -3.8162   23.4352 C   0  0  0  0  0  0
  -21.9181   -4.6978   22.3406 C   0  0  0  0  0  0
  -22.7814  -13.5254   21.1893 C   0  0  0  0  0  0
  -22.1660   -4.2163   21.0981 F   0  0  0  0  0  0
  -21.5624   -3.4533   25.7735 F   0  0  0  0  0  0
  -29.9815  -13.5407   20.3995 N   0  0  0  0  0  0
  -26.2933  -12.9430   20.3340 N   0  0  0  0  0  0
  -25.9332  -11.6575   20.5826 N   0  0  0  0  0  0
  -22.0466  -12.8232   22.0446 N   0  0  0  0  0  0
  -25.4221  -15.1933   20.4098 N   0  0  0  0  0  0
  -31.8116  -14.8126   20.1514 O   0  0  0  0  0  0
  -21.6648   -6.8898   21.4253 O   0  0  0  0  0  0
  -22.3503  -14.5572   20.6760 O   0  0  0  0  0  0
  -24.6330  -31.8517   23.1957 C   0  0  0  0  0  0
  -25.9148  -32.4739   23.8305 C   0  0  1  0  0  0
  -27.2153  -27.2320   20.1185 C   0  0  0  0  0  0
  -25.5927  -33.8538   24.2241 N   0  0  0  0  0  0
  -23.4315  -30.4732   21.5384 C   0  0  2  0  0  0
  -24.8796  -28.9216   20.1015 C   0  0  0  0  0  0
  -22.7511  -29.4580   22.4885 C   0  0  0  0  0  0
  -18.0288  -28.1378   22.8474 C   0  0  0  0  0  0
  -24.1486  -36.7280   23.2637 C   0  0  0  0  0  0
  -25.9780  -30.7541   21.3816 C   0  0  0  0  0  0
  -26.0490  -29.3737   20.7243 C   0  0  0  0  0  0
  -27.2133  -28.5350   20.7332 C   0  0  0  0  0  0
  -26.0288  -26.8701   19.4552 C   0  0  0  0  0  0
  -24.8769  -27.6783   19.4537 C   0  0  0  0  0  0
  -23.6513  -29.8088   20.1532 C   0  0  0  0  0  0
  -25.4111  -36.3068   24.0331 C   0  0  1  0  0  0
  -20.5893  -28.3697   23.1260 C   0  0  2  0  0  0
  -20.6779  -26.9412   22.5395 C   0  0  0  0  0  0
  -19.5760  -26.6379   21.5191 C   0  0  0  0  0  0
  -18.1940  -26.7922   22.1612 C   0  0  0  0  0  0
  -19.1541  -28.8849   23.2865 C   0  0  0  0  0  0
  -18.9465  -30.1442   23.8893 C   0  0  0  0  0  0
  -17.6468  -30.6577   24.0557 C   0  0  0  0  0  0
  -25.9051  -34.9436   23.5092 C   0  0  0  0  0  0
  -16.5356  -29.9078   23.6321 C   0  0  0  0  0  0
  -16.7278  -28.6494   23.0347 C   0  0  0  0  0  0
  -26.4504  -31.6567   25.0694 C   0  0  0  0  0  0
  -25.3716  -31.3703   26.1402 C   0  0  0  0  0  0
  -27.0358  -30.2991   24.6173 C   0  0  0  0  0  0
  -27.6068  -32.4291   25.7466 C   0  0  0  0  0  0
  -27.5578  -37.1795   24.8468 C   0  0  0  0  0  0
  -21.4210  -29.3054   22.3648 N   0  0  0  0  0  0
  -26.4291  -37.3768   23.9414 N   0  0  0  0  0  0
  -24.6997  -31.0452   22.0951 N   0  0  0  0  0  0
  -23.4207  -28.8117   23.2986 O   0  0  0  0  0  0
  -28.2862  -26.3063   20.2341 O   0  0  0  0  0  0
  -26.5632  -34.8915   22.4665 O   0  0  0  0  0  0
  -23.5472  -32.1361   23.7227 O   0  0  0  0  0  0
  -31.6033  -19.0628   19.2458 C   0  0  0  0  0  0
  -30.7208  -20.1175   19.5431 C   0  0  0  0  0  0
  -31.3206  -17.7300   19.5998 C   0  0  0  0  0  0
  -29.4978  -19.9037   20.2161 C   0  0  0  0  0  0
  -30.1316  -17.3725   20.2786 C   0  0  0  0  0  0
  -29.2318  -18.4914   20.5779 C   0  0  0  0  0  0
  -28.9525  -22.5059   20.1891 C   0  0  0  0  0  0
  -28.0666  -23.5255   19.8376 C   0  0  0  0  0  0
  -26.7027  -23.0190   19.6334 C   0  0  0  0  0  0
  -26.2568  -21.8586   20.4085 C   0  0  0  0  0  0
  -25.9325  -23.4552   18.6162 C   0  0  0  0  0  0
  -24.9579  -21.6681   20.7111 C   0  0  0  0  0  0
  -27.2590  -20.7578   20.7351 C   0  0  0  0  0  0
  -28.4669  -25.0433   19.4138 C   0  0  0  0  0  0
  -28.6514  -21.0949   20.4193 N   0  0  0  0  0  0
  -29.8486  -15.9285   20.5983 N   0  0  0  0  0  0
  -28.0887  -18.1716   21.2348 F   0  0  0  0  0  0
  -31.4692  -12.5563   19.1889 H   0  0  0  0  0  0
  -30.3441  -11.4912   19.9799 H   0  0  0  0  0  0
  -29.7886  -11.7362   17.5234 H   0  0  0  0  0  0
  -29.6258  -13.4638   17.7272 H   0  0  0  0  0  0
  -27.8963  -11.2824   18.9275 H   0  0  0  0  0  0
  -27.3707  -12.5174   17.8128 H   0  0  0  0  0  0
  -27.6326  -14.2539   19.4628 H   0  0  0  0  0  0
  -28.7208  -12.2039   21.4511 H   0  0  0  0  0  0
  -28.4244  -13.8894   21.7868 H   0  0  0  0  0  0
  -25.2786   -9.5670   22.4793 H   0  0  0  0  0  0
  -24.0012   -7.4631   22.7469 H   0  0  0  0  0  0
  -21.0869   -8.8840   19.8954 H   0  0  0  0  0  0
  -22.3774  -10.9710   19.6194 H   0  0  0  0  0  0
  -21.2024   -7.6159   23.9740 H   0  0  0  0  0  0
  -21.1481   -6.0522   25.9088 H   0  0  0  0  0  0
  -22.0590   -2.7623   23.2854 H   0  0  0  0  0  0
  -22.4063  -11.9847   22.4758 H   0  0  0  0  0  0
  -21.1102  -13.1274   22.2724 H   0  0  0  0  0  0
  -24.6558  -15.8497   20.5118 H   0  0  0  0  0  0
  -26.2792  -15.6323   20.0995 H   0  0  0  0  0  0
  -26.7198  -32.5379   23.1023 H   0  0  0  0  0  0
  -25.0060  -33.9651   25.0380 H   0  0  0  0  0  0
  -22.7296  -31.2965   21.3907 H   0  0  0  0  0  0
  -23.3757  -35.9607   23.3289 H   0  0  0  0  0  0
  -24.3575  -36.8909   22.2057 H   0  0  0  0  0  0
  -23.7226  -37.6473   23.6659 H   0  0  0  0  0  0
  -26.1168  -31.5104   20.6083 H   0  0  0  0  0  0
  -26.8574  -30.8077   22.0117 H   0  0  0  0  0  0
  -28.1005  -28.8689   21.2527 H   0  0  0  0  0  0
  -25.9501  -25.9264   18.9608 H   0  0  0  0  0  0
  -23.9859  -27.3309   18.9489 H   0  0  0  0  0  0
  -23.7795  -30.5853   19.3984 H   0  0  0  0  0  0
  -22.7692  -29.2441   19.8467 H   0  0  0  0  0  0
  -25.1292  -36.1911   25.0824 H   0  0  0  0  0  0
  -20.9982  -28.3271   24.1384 H   0  0  0  0  0  0
  -20.5655  -26.2301   23.3604 H   0  0  0  0  0  0
  -21.6650  -26.7422   22.1196 H   0  0  0  0  0  0
  -19.6928  -25.6289   21.1228 H   0  0  0  0  0  0
  -19.6694  -27.3178   20.6718 H   0  0  0  0  0  0
  -17.4205  -26.6645   21.4029 H   0  0  0  0  0  0
  -18.0356  -26.0062   22.9012 H   0  0  0  0  0  0
  -19.7931  -30.7243   24.2286 H   0  0  0  0  0  0
  -17.5019  -31.6260   24.5154 H   0  0  0  0  0  0
  -15.5355  -30.2984   23.7636 H   0  0  0  0  0  0
  -15.8678  -28.0806   22.7081 H   0  0  0  0  0  0
  -24.5929  -30.7008   25.7721 H   0  0  0  0  0  0
  -24.8853  -32.2860   26.4785 H   0  0  0  0  0  0
  -25.8033  -30.8914   27.0205 H   0  0  0  0  0  0
  -26.2939  -29.6717   24.1219 H   0  0  0  0  0  0
  -27.4086  -29.7262   25.4681 H   0  0  0  0  0  0
  -27.8796  -30.4285   23.9388 H   0  0  0  0  0  0
  -27.2718  -33.3632   26.1985 H   0  0  0  0  0  0
  -28.3914  -32.6768   25.0307 H   0  0  0  0  0  0
  -28.0687  -31.8428   26.5425 H   0  0  0  0  0  0
  -28.2600  -38.0088   24.7518 H   0  0  0  0  0  0
  -28.1069  -36.2623   24.6294 H   0  0  0  0  0  0
  -27.2292  -37.1440   25.8868 H   0  0  0  0  0  0
  -20.9393  -29.8809   21.6881 H   0  0  0  0  0  0
  -26.0175  -38.2844   24.1410 H   0  0  0  0  0  0
  -32.5194  -19.2819   18.7148 H   0  0  0  0  0  0
  -30.9978  -21.1069   19.2099 H   0  0  0  0  0  0
  -32.0523  -16.9935   19.3095 H   0  0  0  0  0  0
  -29.9991  -22.7446   20.3226 H   0  0  0  0  0  0
  -26.2626  -24.1992   17.9084 H   0  0  0  0  0  0
  -24.9711  -23.0094   18.4062 H   0  0  0  0  0  0
  -24.1986  -22.3964   20.4650 H   0  0  0  0  0  0
  -24.6320  -20.7759   21.2280 H   0  0  0  0  0  0
  -26.9483  -19.8958   20.1419 H   0  0  0  0  0  0
  -27.1701  -20.4835   21.7870 H   0  0  0  0  0  0
  -28.0883  -25.2415   18.4137 H   0  0  0  0  0  0
  -29.5435  -25.0004   19.2471 H   0  0  0  0  0  0
  -28.9029  -15.7507   20.9016 H   0  0  0  0  0  0
  1 25  1  0  0  0
  1 30  2  0  0  0
  1 86  1  0  0  0
  2  3  1  0  0  0
  2 25  1  0  0  0
  2 88  1  0  0  0
  2 89  1  0  0  0
  3  4  1  0  0  0
  3 90  1  0  0  0
  3 91  1  0  0  0
  4  5  1  0  0  0
  4 92  1  0  0  0
  4 93  1  0  0  0
  5  6  1  0  0  0
  5 26  1  0  0  0
  5 94  1  0  0  0
  6 25  1  0  0  0
  6 95  1  0  0  0
  6 96  1  0  0  0
  7  8  2  0  0  0
  7 26  1  0  0  0
  7 29  1  0  0  0
  8  9  1  0  0  0
  8 22  1  0  0  0
  9 10  1  0  0  0
  9 27  2  0  0  0
 10 11  2  0  0  0
 10 15  1  0  0  0
 11 12  1  0  0  0
 11 97  1  0  0  0
 12 13  2  0  0  0
 12 98  1  0  0  0
 13 14  1  0  0  0
 13 31  1  0  0  0
 14 15  2  0  0  0
 14 99  1  0  0  0
 15100  1  0  0  0
 16 17  2  0  0  0
 16 21  1  0  0  0
 16 31  1  0  0  0
 17 18  1  0  0  0
 17101  1  0  0  0
 18 19  2  0  0  0
 18102  1  0  0  0
 19 20  1  0  0  0
 19 24  1  0  0  0
 20 21  2  0  0  0
 20103  1  0  0  0
 21 23  1  0  0  0
 22 28  1  0  0  0
 22 32  2  0  0  0
 26 27  1  0  0  0
 28104  1  0  0  0
 28105  1  0  0  0
 29106  1  0  0  0
 29107  1  0  0  0
 33 34  1  0  0  0
 33 66  1  0  0  0
 33 70  2  0  0  0
 34 36  1  0  0  0
 34 59  1  0  0  0
 34108  1  0  0  0
 35 44  2  0  0  0
 35 45  1  0  0  0
 35 68  1  0  0  0
 36 56  1  0  0  0
 36109  1  0  0  0
 37 39  1  0  0  0
 37 47  1  0  0  0
 37 66  1  0  0  0
 37110  1  0  0  0
 38 43  2  0  0  0
 38 46  1  0  0  0
 38 47  1  0  0  0
 39 64  1  0  0  0
 39 67  2  0  0  0
 40 52  1  0  0  0
 40 53  2  0  0  0
 40 58  1  0  0  0
 41111  1  0  0  0
 41112  1  0  0  0
 41113  1  0  0  0
 41 48  1  0  0  0
 42 43  1  0  0  0
 42 66  1  0  0  0
 42114  1  0  0  0
 42115  1  0  0  0
 43 44  1  0  0  0
 44116  1  0  0  0
 45 46  2  0  0  0
 45117  1  0  0  0
 46118  1  0  0  0
 47119  1  0  0  0
 47120  1  0  0  0
 48 56  1  0  0  0
 48 65  1  0  0  0
 48121  1  0  0  0
 49 50  1  0  0  0
 49 53  1  0  0  0
 49 64  1  0  0  0
 49122  1  0  0  0
 50 51  1  0  0  0
 50123  1  0  0  0
 50124  1  0  0  0
 51 52  1  0  0  0
 51125  1  0  0  0
 51126  1  0  0  0
 52127  1  0  0  0
 52128  1  0  0  0
 53 54  1  0  0  0
 54 55  2  0  0  0
 54129  1  0  0  0
 55 57  1  0  0  0
 55130  1  0  0  0
 56 69  2  0  0  0
 57 58  2  0  0  0
 57131  1  0  0  0
 58132  1  0  0  0
 59 60  1  0  0  0
 59 61  1  0  0  0
 59 62  1  0  0  0
 60133  1  0  0  0
 60134  1  0  0  0
 60135  1  0  0  0
 61136  1  0  0  0
 61137  1  0  0  0
 61138  1  0  0  0
 62139  1  0  0  0
 62140  1  0  0  0
 62141  1  0  0  0
 63 65  1  0  0  0
 63142  1  0  0  0
 63143  1  0  0  0
 63144  1  0  0  0
 64145  1  0  0  0
 65146  1  0  0  0
 68 84  1  0  0  0
 71 72  2  0  0  0
 71 73  1  0  0  0
 71147  1  0  0  0
 72 74  1  0  0  0
 72148  1  0  0  0
 73 75  2  0  0  0
 73149  1  0  0  0
 74 76  2  0  0  0
 74 85  1  0  0  0
 75 76  1  0  0  0
 75 86  1  0  0  0
 76 87  1  0  0  0
 77 78  2  0  0  0
 77 85  1  0  0  0
 77150  1  0  0  0
 78 79  1  0  0  0
 78 84  1  0  0  0
 79 80  1  0  0  0
 79 81  2  0  0  0
 80 82  2  0  0  0
 80 83  1  0  0  0
 81151  1  0  0  0
 81152  1  0  0  0
 82153  1  0  0  0
 82154  1  0  0  0
 83 85  1  0  0  0
 83155  1  0  0  0
 83156  1  0  0  0
 84157  1  0  0  0
 84158  1  0  0  0
 86159  1  0  0  0
M  ISO  4   1 100  68 101  84 101  86 100
M  END
> <chiral flag>
0

> <version>
0

> <s_m_source_file>
/data/baiqing/PycharmProjects/Reinvent-master-3.2/result/LINK_invent/BTK/process_docking_weight1_custom_product_contain_oxygen_bond_distance_aromatic_linkinvent_7_9_3/rearranged_h_0076.sdf

> <i_m_source_file_index>
12

> <r_mmod_Potential_Energy-OPLS-2005>
365.040771484375

> <r_mmod_Stretch_Energy-OPLS-2005>
161.536682128906

> <r_mmod_Bend_Energy-OPLS-2005>
211.317733764648

> <r_mmod_Torsional_Energy-OPLS-2005>
252.779144287109

> <r_mmod_Improper_Torsional_Energy-OPLS-2005>
5.46167278289795

> <r_mmod_Van_der_Waal_Energy-OPLS-2005>
171.401977539062

> <r_mmod_Electrostatic_Energy-OPLS-2005>
-337.199920654297

> <r_mmod_Solvation_Energy-OPLS-2005>
-203.110366821289

> <b_mmod_Minimization_Converged-OPLS-2005>
0

> <r_mmod_RMS_Derivative-OPLS-2005>
2.66504812240601

$$$$
12
                    3D
 Structure written by MMmdl.
159169  0  0  1  0            999 V2000
  -30.6825  -14.4944   20.4909 C   0  0  0  0  0  0
  -30.4143  -12.2893   19.4412 C   0  0  0  0  0  0
  -29.4978  -12.4907   18.2167 C   0  0  0  0  0  0
  -28.0175  -12.3507   18.6245 C   0  0  0  0  0  0
  -27.6552  -13.2038   19.8706 C   0  0  2  0  0  0
  -28.7015  -13.0305   20.9980 C   0  0  0  0  0  0
  -25.2573  -13.8137   20.5695 C   0  0  0  0  0  0
  -24.1819  -13.0427   20.9198 C   0  0  0  0  0  0
  -24.6374  -11.6896   20.8740 C   0  0  0  0  0  0
  -23.9027  -10.4283   21.0388 C   0  0  0  0  0  0
  -24.3593   -9.4205   21.9169 C   0  0  0  0  0  0
  -23.6299   -8.2227   22.0732 C   0  0  0  0  0  0
  -22.4279   -8.0259   21.3530 C   0  0  0  0  0  0
  -21.9906   -9.0215   20.4625 C   0  0  0  0  0  0
  -22.7207  -10.2116   20.3032 C   0  0  0  0  0  0
  -21.6860   -6.0730   22.5289 C   0  0  0  0  0  0
  -21.4018   -6.5648   23.8227 C   0  0  0  0  0  0
  -21.3667   -5.6788   24.9185 C   0  0  0  0  0  0
  -21.6052   -4.3046   24.7229 C   0  0  0  0  0  0
  -21.8813   -3.8150   23.4346 C   0  0  0  0  0  0
  -21.9195   -4.6967   22.3408 C   0  0  0  0  0  0
  -22.7848  -13.5224   21.1862 C   0  0  0  0  0  0
  -22.1654   -4.2159   21.0988 F   0  0  0  0  0  0
  -21.5637   -3.4530   25.7731 F   0  0  0  0  0  0
  -30.0302  -13.3025   20.4317 N   0  0  0  0  0  0
  -26.2996  -12.9296   20.3367 N   0  0  0  0  0  0
  -25.9306  -11.6474   20.5795 N   0  0  0  0  0  0
  -22.0480  -12.8218   22.0416 N   0  0  0  0  0  0
  -25.4309  -15.1859   20.4128 N   0  0  0  0  0  0
  -31.8657  -14.6302   20.1680 O   0  0  0  0  0  0
  -21.6648   -6.8859   21.4243 O   0  0  0  0  0  0
  -22.3547  -14.5533   20.6720 O   0  0  0  0  0  0
  -24.6107  -31.8698   23.2110 C   0  0  0  0  0  0
  -25.9004  -32.4851   23.8402 C   0  0  1  0  0  0
  -27.2336  -27.4437   20.1063 C   0  0  0  0  0  0
  -25.5848  -33.8639   24.2320 N   0  0  0  0  0  0
  -23.4003  -30.4908   21.5509 C   0  0  2  0  0  0
  -24.8478  -28.9581   20.1153 C   0  0  0  0  0  0
  -22.7400  -29.4655   22.5004 C   0  0  0  0  0  0
  -18.0272  -28.1368   22.8506 C   0  0  0  0  0  0
  -24.1470  -36.7327   23.2640 C   0  0  0  0  0  0
  -25.9278  -30.8377   21.3647 C   0  0  0  0  0  0
  -26.0066  -29.4721   20.7141 C   0  0  0  0  0  0
  -27.2052  -28.7243   20.7010 C   0  0  0  0  0  0
  -26.0641  -26.9461   19.4931 C   0  0  0  0  0  0
  -24.8729  -27.6957   19.4969 C   0  0  0  0  0  0
  -23.6082  -29.8220   20.1658 C   0  0  0  0  0  0
  -25.4097  -36.3132   24.0336 C   0  0  1  0  0  0
  -20.5858  -28.3649   23.1332 C   0  0  2  0  0  0
  -20.6752  -26.9389   22.5422 C   0  0  0  0  0  0
  -19.5734  -26.6381   21.5213 C   0  0  0  0  0  0
  -18.1914  -26.7924   22.1621 C   0  0  0  0  0  0
  -19.1520  -28.8826   23.2921 C   0  0  0  0  0  0
  -18.9447  -30.1429   23.8940 C   0  0  0  0  0  0
  -17.6449  -30.6584   24.0565 C   0  0  0  0  0  0
  -25.9026  -34.9500   23.5137 C   0  0  0  0  0  0
  -16.5343  -29.9095   23.6313 C   0  0  0  0  0  0
  -16.7263  -28.6497   23.0366 C   0  0  0  0  0  0
  -26.4427  -31.6644   25.0741 C   0  0  0  0  0  0
  -25.3681  -31.3754   26.1484 C   0  0  0  0  0  0
  -27.0260  -30.3088   24.6122 C   0  0  0  0  0  0
  -27.6004  -32.4372   25.7485 C   0  0  0  0  0  0
  -27.5592  -37.1797   24.8444 C   0  0  0  0  0  0
  -21.4127  -29.3019   22.3730 N   0  0  0  0  0  0
  -26.4288  -37.3819   23.9419 N   0  0  0  0  0  0
  -24.6644  -31.0804   22.1003 N   0  0  0  0  0  0
  -23.4180  -28.8214   23.3048 O   0  0  0  0  0  0
  -28.3942  -26.7035   20.1062 O   0  0  0  0  0  0
  -26.5622  -34.8948   22.4720 O   0  0  0  0  0  0
  -23.5302  -32.1431   23.7511 O   0  0  0  0  0  0
  -29.7839  -18.9810   20.0766 C   0  0  0  0  0  0
  -30.1950  -18.6921   22.5243 C   0  0  0  0  0  0
  -29.7948  -17.5821   20.0461 C   0  0  0  0  0  0
  -29.9780  -16.7441   21.1869 C   0  0  0  0  0  0
  -29.9787  -19.5426   21.3790 C   0  0  0  0  0  0
  -30.1960  -17.2664   22.4589 C   0  0  0  0  0  0
  -29.6070  -21.9928   20.8543 C   0  0  0  0  0  0
  -29.6911  -16.3737   19.1601 C   0  0  0  0  0  0
  -31.3977  -23.7918   21.2980 C   0  0  0  0  0  0
  -30.9046  -25.2341   21.1446 C   0  0  0  0  0  0
  -29.9196  -23.3882   21.4323 C   0  0  1  0  0  0
  -29.5987  -24.6509   20.5780 C   0  0  1  0  0  0
  -28.2930  -25.4287   20.7565 C   0  0  0  0  0  0
  -29.8484  -15.5535   20.4249 N   0  0  0  0  0  0
  -30.0284  -20.9554   21.6086 N   0  0  0  0  0  0
  -28.9837  -21.8798   19.7960 O   0  0  0  0  0  0
  -30.3951  -16.4801   23.5434 F   0  0  0  0  0  0
  -31.4644  -12.3632   19.1522 H   0  0  0  0  0  0
  -30.2827  -11.2879   19.8559 H   0  0  0  0  0  0
  -29.7428  -11.7639   17.4415 H   0  0  0  0  0  0
  -29.6713  -13.4750   17.7793 H   0  0  0  0  0  0
  -27.8339  -11.2956   18.8311 H   0  0  0  0  0  0
  -27.3662  -12.6079   17.7892 H   0  0  0  0  0  0
  -27.6755  -14.2434   19.5492 H   0  0  0  0  0  0
  -28.6686  -12.0190   21.4064 H   0  0  0  0  0  0
  -28.4816  -13.7027   21.8299 H   0  0  0  0  0  0
  -25.2719   -9.5721   22.4757 H   0  0  0  0  0  0
  -24.0034   -7.4624   22.7455 H   0  0  0  0  0  0
  -21.0842   -8.8712   19.8926 H   0  0  0  0  0  0
  -22.3640  -10.9649   19.6150 H   0  0  0  0  0  0
  -21.2003   -7.6147   23.9740 H   0  0  0  0  0  0
  -21.1507   -6.0513   25.9097 H   0  0  0  0  0  0
  -22.0590   -2.7612   23.2834 H   0  0  0  0  0  0
  -22.4083  -11.9885   22.4815 H   0  0  0  0  0  0
  -21.1080  -13.1221   22.2582 H   0  0  0  0  0  0
  -24.6671  -15.8406   20.5357 H   0  0  0  0  0  0
  -26.2981  -15.6324   20.1432 H   0  0  0  0  0  0
  -26.7087  -32.5567   23.1177 H   0  0  0  0  0  0
  -24.9928  -33.9814   25.0416 H   0  0  0  0  0  0
  -22.6878  -31.3060   21.4128 H   0  0  0  0  0  0
  -23.3749  -35.9636   23.3278 H   0  0  0  0  0  0
  -24.3569  -36.8974   22.2057 H   0  0  0  0  0  0
  -23.7192  -37.6506   23.6680 H   0  0  0  0  0  0
  -26.0424  -31.6021   20.5954 H   0  0  0  0  0  0
  -26.8141  -30.8901   21.9848 H   0  0  0  0  0  0
  -28.1029  -29.1178   21.1577 H   0  0  0  0  0  0
  -26.0748  -25.9844   19.0002 H   0  0  0  0  0  0
  -23.9886  -27.3005   19.0172 H   0  0  0  0  0  0
  -23.7123  -30.5956   19.4038 H   0  0  0  0  0  0
  -22.7320  -29.2382   19.8756 H   0  0  0  0  0  0
  -25.1272  -36.1989   25.0832 H   0  0  0  0  0  0
  -20.9966  -28.3206   24.1443 H   0  0  0  0  0  0
  -20.5633  -26.2259   23.3604 H   0  0  0  0  0  0
  -21.6624  -26.7426   22.1211 H   0  0  0  0  0  0
  -19.6886  -25.6296   21.1229 H   0  0  0  0  0  0
  -19.6678  -27.3195   20.6749 H   0  0  0  0  0  0
  -17.4182  -26.6691   21.4025 H   0  0  0  0  0  0
  -18.0313  -26.0054   22.9009 H   0  0  0  0  0  0
  -19.7925  -30.7228   24.2338 H   0  0  0  0  0  0
  -17.5011  -31.6274   24.5149 H   0  0  0  0  0  0
  -15.5346  -30.3015   23.7615 H   0  0  0  0  0  0
  -15.8656  -28.0820   22.7090 H   0  0  0  0  0  0
  -24.5787  -30.7204   25.7777 H   0  0  0  0  0  0
  -24.8951  -32.2928   26.4997 H   0  0  0  0  0  0
  -25.7984  -30.8815   27.0204 H   0  0  0  0  0  0
  -26.2814  -29.6859   24.1150 H   0  0  0  0  0  0
  -27.4006  -29.7315   25.4584 H   0  0  0  0  0  0
  -27.8653  -30.4413   23.9291 H   0  0  0  0  0  0
  -27.2614  -33.3638   26.2115 H   0  0  0  0  0  0
  -28.3757  -32.6999   25.0284 H   0  0  0  0  0  0
  -28.0735  -31.8483   26.5343 H   0  0  0  0  0  0
  -28.2562  -38.0147   24.7603 H   0  0  0  0  0  0
  -28.1154  -36.2698   24.6134 H   0  0  0  0  0  0
  -27.2346  -37.1268   25.8853 H   0  0  0  0  0  0
  -20.9279  -29.8716   21.6931 H   0  0  0  0  0  0
  -26.0181  -38.2886   24.1476 H   0  0  0  0  0  0
  -29.6498  -19.5670   19.1785 H   0  0  0  0  0  0
  -30.3631  -19.1402   23.4918 H   0  0  0  0  0  0
  -30.5191  -16.3041   18.4517 H   0  0  0  0  0  0
  -28.7203  -16.2851   18.6726 H   0  0  0  0  0  0
  -32.0092  -23.6073   22.1816 H   0  0  0  0  0  0
  -31.8737  -23.4053   20.3918 H   0  0  0  0  0  0
  -31.4697  -25.8551   20.4496 H   0  0  0  0  0  0
  -30.7687  -25.7377   22.1054 H   0  0  0  0  0  0
  -29.5631  -23.4925   22.4592 H   0  0  0  0  0  0
  -29.7513  -24.4305   19.5190 H   0  0  0  0  0  0
  -28.0837  -25.5853   21.8168 H   0  0  0  0  0  0
  -27.4651  -24.8393   20.3617 H   0  0  0  0  0  0
  -30.4394  -21.2326   22.4902 H   0  0  0  0  0  0
  1 25  1  0  0  0
  1 30  2  0  0  0
  1 84  1  0  0  0
  2  3  1  0  0  0
  2 25  1  0  0  0
  2 88  1  0  0  0
  2 89  1  0  0  0
  3  4  1  0  0  0
  3 90  1  0  0  0
  3 91  1  0  0  0
  4  5  1  0  0  0
  4 92  1  0  0  0
  4 93  1  0  0  0
  5  6  1  0  0  0
  5 26  1  0  0  0
  5 94  1  0  0  0
  6 25  1  0  0  0
  6 95  1  0  0  0
  6 96  1  0  0  0
  7  8  2  0  0  0
  7 26  1  0  0  0
  7 29  1  0  0  0
  8  9  1  0  0  0
  8 22  1  0  0  0
  9 10  1  0  0  0
  9 27  2  0  0  0
 10 11  2  0  0  0
 10 15  1  0  0  0
 11 12  1  0  0  0
 11 97  1  0  0  0
 12 13  2  0  0  0
 12 98  1  0  0  0
 13 14  1  0  0  0
 13 31  1  0  0  0
 14 15  2  0  0  0
 14 99  1  0  0  0
 15100  1  0  0  0
 16 17  2  0  0  0
 16 21  1  0  0  0
 16 31  1  0  0  0
 17 18  1  0  0  0
 17101  1  0  0  0
 18 19  2  0  0  0
 18102  1  0  0  0
 19 20  1  0  0  0
 19 24  1  0  0  0
 20 21  2  0  0  0
 20103  1  0  0  0
 21 23  1  0  0  0
 22 28  1  0  0  0
 22 32  2  0  0  0
 26 27  1  0  0  0
 28104  1  0  0  0
 28105  1  0  0  0
 29106  1  0  0  0
 29107  1  0  0  0
 33 34  1  0  0  0
 33 66  1  0  0  0
 33 70  2  0  0  0
 34 36  1  0  0  0
 34 59  1  0  0  0
 34108  1  0  0  0
 35 44  2  0  0  0
 35 45  1  0  0  0
 35 68  1  0  0  0
 36 56  1  0  0  0
 36109  1  0  0  0
 37 39  1  0  0  0
 37 47  1  0  0  0
 37 66  1  0  0  0
 37110  1  0  0  0
 38 43  2  0  0  0
 38 46  1  0  0  0
 38 47  1  0  0  0
 39 64  1  0  0  0
 39 67  2  0  0  0
 40 52  1  0  0  0
 40 53  2  0  0  0
 40 58  1  0  0  0
 41111  1  0  0  0
 41112  1  0  0  0
 41113  1  0  0  0
 41 48  1  0  0  0
 42 43  1  0  0  0
 42 66  1  0  0  0
 42114  1  0  0  0
 42115  1  0  0  0
 43 44  1  0  0  0
 44116  1  0  0  0
 45 46  2  0  0  0
 45117  1  0  0  0
 46118  1  0  0  0
 47119  1  0  0  0
 47120  1  0  0  0
 48 56  1  0  0  0
 48 65  1  0  0  0
 48121  1  0  0  0
 49 50  1  0  0  0
 49 53  1  0  0  0
 49 64  1  0  0  0
 49122  1  0  0  0
 50 51  1  0  0  0
 50123  1  0  0  0
 50124  1  0  0  0
 51 52  1  0  0  0
 51125  1  0  0  0
 51126  1  0  0  0
 52127  1  0  0  0
 52128  1  0  0  0
 53 54  1  0  0  0
 54 55  2  0  0  0
 54129  1  0  0  0
 55 57  1  0  0  0
 55130  1  0  0  0
 56 69  2  0  0  0
 57 58  2  0  0  0
 57131  1  0  0  0
 58132  1  0  0  0
 59 60  1  0  0  0
 59 61  1  0  0  0
 59 62  1  0  0  0
 60133  1  0  0  0
 60134  1  0  0  0
 60135  1  0  0  0
 61136  1  0  0  0
 61137  1  0  0  0
 61138  1  0  0  0
 62139  1  0  0  0
 62140  1  0  0  0
 62141  1  0  0  0
 63 65  1  0  0  0
 63142  1  0  0  0
 63143  1  0  0  0
 63144  1  0  0  0
 64145  1  0  0  0
 65146  1  0  0  0
 68 83  1  0  0  0
 71 73  2  0  0  0
 71 75  1  0  0  0
 71147  1  0  0  0
 72 75  2  0  0  0
 72 76  1  0  0  0
 72148  1  0  0  0
 73 74  1  0  0  0
 73 78  1  0  0  0
 74 76  2  0  0  0
 74 84  1  0  0  0
 75 85  1  0  0  0
 76 87  1  0  0  0
 77 85  1  0  0  0
 77 86  2  0  0  0
 77 81  1  0  0  0
 78 84  1  0  0  0
 78149  1  0  0  0
 78150  1  0  0  0
 79 80  1  0  0  0
 79 81  1  0  0  0
 79151  1  0  0  0
 79152  1  0  0  0
 80 82  1  0  0  0
 80153  1  0  0  0
 80154  1  0  0  0
 81 82  1  0  0  0
 81155  1  0  0  0
 82 83  1  0  0  0
 82156  1  0  0  0
 83157  1  0  0  0
 83158  1  0  0  0
 85159  1  0  0  0
M  ISO  4   1 100  68 101  83 101  84 100
M  END
> <chiral flag>
0

> <version>
0

> <s_m_source_file>
/data/baiqing/PycharmProjects/Reinvent-master-3.2/result/LINK_invent/BTK/process_docking_weight1_custom_product_contain_oxygen_bond_distance_aromatic_linkinvent_7_9_3/rearranged_h_0076.sdf

> <i_m_source_file_index>
13

> <r_mmod_Potential_Energy-OPLS-2005>
459.859344482422

> <r_mmod_Stretch_Energy-OPLS-2005>
54.9756736755371

> <r_mmod_Bend_Energy-OPLS-2005>
526.523010253906

> <r_mmod_Torsional_Energy-OPLS-2005>
302.789886474609

> <r_mmod_Improper_Torsional_Energy-OPLS-2005>
22.4525375366211

> <r_mmod_Van_der_Waal_Energy-OPLS-2005>
144.407302856445

> <r_mmod_Electrostatic_Energy-OPLS-2005>
-396.54736328125

> <r_mmod_Solvation_Energy-OPLS-2005>
-212.557464599609

> <b_mmod_Minimization_Converged-OPLS-2005>
0

> <r_mmod_RMS_Derivative-OPLS-2005>
2.93914175033569

$$$$
13
                    3D
 Structure written by MMmdl.
155164  0  0  1  0            999 V2000
  -30.6689  -14.6723   20.5852 C   0  0  0  0  0  0
  -30.4313  -12.4420   19.4615 C   0  0  0  0  0  0
  -29.5038  -12.5287   18.2292 C   0  0  0  0  0  0
  -28.0299  -12.3516   18.6385 C   0  0  0  0  0  0
  -27.6474  -13.2285   19.8577 C   0  0  2  0  0  0
  -28.6865  -13.1068   20.9906 C   0  0  0  0  0  0
  -25.2511  -13.8187   20.5681 C   0  0  0  0  0  0
  -24.1794  -13.0435   20.9180 C   0  0  0  0  0  0
  -24.6388  -11.6913   20.8725 C   0  0  0  0  0  0
  -23.9074  -10.4291   21.0397 C   0  0  0  0  0  0
  -24.3626   -9.4210   21.9176 C   0  0  0  0  0  0
  -23.6297   -8.2248   22.0756 C   0  0  0  0  0  0
  -22.4279   -8.0278   21.3545 C   0  0  0  0  0  0
  -21.9914   -9.0246   20.4639 C   0  0  0  0  0  0
  -22.7244  -10.2127   20.3044 C   0  0  0  0  0  0
  -21.6855   -6.0742   22.5284 C   0  0  0  0  0  0
  -21.4022   -6.5644   23.8218 C   0  0  0  0  0  0
  -21.3654   -5.6789   24.9173 C   0  0  0  0  0  0
  -21.6044   -4.3057   24.7222 C   0  0  0  0  0  0
  -21.8819   -3.8152   23.4340 C   0  0  0  0  0  0
  -21.9195   -4.6972   22.3398 C   0  0  0  0  0  0
  -22.7818  -13.5218   21.1849 C   0  0  0  0  0  0
  -22.1657   -4.2162   21.0975 F   0  0  0  0  0  0
  -21.5623   -3.4533   25.7731 F   0  0  0  0  0  0
  -30.0064  -13.4684   20.4434 N   0  0  0  0  0  0
  -26.2951  -12.9401   20.3282 N   0  0  0  0  0  0
  -25.9321  -11.6548   20.5729 N   0  0  0  0  0  0
  -22.0467  -12.8191   22.0399 N   0  0  0  0  0  0
  -25.4204  -15.1912   20.4130 N   0  0  0  0  0  0
  -31.7606  -14.8437   20.0317 O   0  0  0  0  0  0
  -21.6638   -6.8881   21.4244 O   0  0  0  0  0  0
  -22.3489  -14.5518   20.6699 O   0  0  0  0  0  0
  -24.6282  -31.8585   23.2033 C   0  0  0  0  0  0
  -25.9113  -32.4782   23.8370 C   0  0  1  0  0  0
  -27.2233  -27.2927   20.1208 C   0  0  0  0  0  0
  -25.5932  -33.8581   24.2298 N   0  0  0  0  0  0
  -23.4241  -30.4847   21.5449 C   0  0  2  0  0  0
  -24.8727  -28.9437   20.1079 C   0  0  0  0  0  0
  -22.7490  -29.4619   22.4907 C   0  0  0  0  0  0
  -18.0293  -28.1385   22.8494 C   0  0  0  0  0  0
  -24.1480  -36.7294   23.2639 C   0  0  0  0  0  0
  -25.9677  -30.7840   21.3780 C   0  0  0  0  0  0
  -26.0429  -29.4082   20.7227 C   0  0  0  0  0  0
  -27.2192  -28.5928   20.7261 C   0  0  0  0  0  0
  -26.0299  -26.9101   19.4578 C   0  0  0  0  0  0
  -24.8701  -27.7013   19.4639 C   0  0  0  0  0  0
  -23.6417  -29.8240   20.1587 C   0  0  0  0  0  0
  -25.4102  -36.3087   24.0341 C   0  0  1  0  0  0
  -20.5900  -28.3695   23.1267 C   0  0  2  0  0  0
  -20.6775  -26.9420   22.5402 C   0  0  0  0  0  0
  -19.5752  -26.6390   21.5207 C   0  0  0  0  0  0
  -18.1932  -26.7933   22.1622 C   0  0  0  0  0  0
  -19.1549  -28.8857   23.2877 C   0  0  0  0  0  0
  -18.9476  -30.1457   23.8891 C   0  0  0  0  0  0
  -17.6473  -30.6587   24.0574 C   0  0  0  0  0  0
  -25.9044  -34.9455   23.5117 C   0  0  0  0  0  0
  -16.5362  -29.9088   23.6331 C   0  0  0  0  0  0
  -16.7286  -28.6510   23.0362 C   0  0  0  0  0  0
  -26.4485  -31.6594   25.0742 C   0  0  0  0  0  0
  -25.3729  -31.3766   26.1482 C   0  0  0  0  0  0
  -27.0307  -30.3008   24.6182 C   0  0  0  0  0  0
  -27.6058  -32.4312   25.7510 C   0  0  0  0  0  0
  -27.5567  -37.1798   24.8457 C   0  0  0  0  0  0
  -21.4205  -29.3068   22.3671 N   0  0  0  0  0  0
  -26.4264  -37.3792   23.9424 N   0  0  0  0  0  0
  -24.6924  -31.0584   22.0994 N   0  0  0  0  0  0
  -23.4207  -28.8148   23.2985 O   0  0  0  0  0  0
  -28.3076  -26.3860   20.1990 O   0  0  0  0  0  0
  -26.5603  -34.8924   22.4671 O   0  0  0  0  0  0
  -23.5438  -32.1384   23.7360 O   0  0  0  0  0  0
  -29.0184  -19.3535   21.8131 C   0  0  0  0  0  0
  -30.3046  -19.2384   19.7973 C   0  0  0  0  0  0
  -29.1610  -17.9404   21.9683 C   0  0  0  0  0  0
  -30.4391  -17.8168   19.9517 C   0  0  0  0  0  0
  -29.6089  -20.0607   20.7344 C   0  0  0  0  0  0
  -29.9030  -17.1121   21.0698 C   0  0  0  0  0  0
  -30.1916  -23.7239   20.7477 C   0  0  0  0  0  0
  -28.9141  -23.7447   20.3556 C   0  0  0  0  0  0
  -30.6164  -22.3432   20.9356 C   0  0  0  0  0  0
  -28.4999  -22.3260   20.3012 C   0  0  0  0  0  0
  -30.1620  -15.3484   22.8171 C   0  0  0  0  0  0
  -27.9755  -24.9459   19.9627 C   0  0  0  0  0  0
  -29.5659  -21.5407   20.6425 N   0  0  0  0  0  0
  -30.1152  -15.6660   21.3793 N   0  0  0  0  0  0
  -31.7330  -21.9583   21.3035 O   0  0  0  0  0  0
  -27.3810  -21.8979   19.9950 O   0  0  0  0  0  0
  -31.4712  -12.5685   19.1559 H   0  0  0  0  0  0
  -30.3792  -11.4498   19.9140 H   0  0  0  0  0  0
  -29.7807  -11.7702   17.4959 H   0  0  0  0  0  0
  -29.6343  -13.4933   17.7359 H   0  0  0  0  0  0
  -27.8756  -11.2983   18.8771 H   0  0  0  0  0  0
  -27.3724  -12.5693   17.7955 H   0  0  0  0  0  0
  -27.6600  -14.2618   19.5105 H   0  0  0  0  0  0
  -28.7096  -12.0912   21.3882 H   0  0  0  0  0  0
  -28.3823  -13.7411   21.8204 H   0  0  0  0  0  0
  -25.2780   -9.5689   22.4736 H   0  0  0  0  0  0
  -24.0011   -7.4649   22.7484 H   0  0  0  0  0  0
  -21.0851   -8.8752   19.8948 H   0  0  0  0  0  0
  -22.3697  -10.9649   19.6135 H   0  0  0  0  0  0
  -21.2017   -7.6151   23.9725 H   0  0  0  0  0  0
  -21.1469   -6.0513   25.9076 H   0  0  0  0  0  0
  -22.0601   -2.7618   23.2826 H   0  0  0  0  0  0
  -22.4096  -11.9833   22.4749 H   0  0  0  0  0  0
  -21.1084  -13.1197   22.2625 H   0  0  0  0  0  0
  -24.6582  -15.8469   20.5425 H   0  0  0  0  0  0
  -26.2805  -15.6362   20.1181 H   0  0  0  0  0  0
  -26.7184  -32.5447   23.1131 H   0  0  0  0  0  0
  -25.0139  -33.9734   25.0481 H   0  0  0  0  0  0
  -22.7197  -31.3071   21.4023 H   0  0  0  0  0  0
  -23.3749  -35.9614   23.3283 H   0  0  0  0  0  0
  -24.3601  -36.8926   22.2058 H   0  0  0  0  0  0
  -23.7208  -37.6487   23.6661 H   0  0  0  0  0  0
  -26.0946  -31.5432   20.6048 H   0  0  0  0  0  0
  -26.8505  -30.8418   22.0031 H   0  0  0  0  0  0
  -28.1062  -28.9428   21.2353 H   0  0  0  0  0  0
  -25.9446  -25.9726   18.9308 H   0  0  0  0  0  0
  -23.9806  -27.3426   18.9631 H   0  0  0  0  0  0
  -23.7660  -30.6006   19.4036 H   0  0  0  0  0  0
  -22.7627  -29.2539   19.8534 H   0  0  0  0  0  0
  -25.1288  -36.1944   25.0835 H   0  0  0  0  0  0
  -21.0002  -28.3249   24.1383 H   0  0  0  0  0  0
  -20.5646  -26.2328   23.3617 H   0  0  0  0  0  0
  -21.6645  -26.7426   22.1216 H   0  0  0  0  0  0
  -19.6911  -25.6301   21.1237 H   0  0  0  0  0  0
  -19.6670  -27.3198   20.6735 H   0  0  0  0  0  0
  -17.4216  -26.6712   21.4004 H   0  0  0  0  0  0
  -18.0312  -26.0059   22.9001 H   0  0  0  0  0  0
  -19.7950  -30.7278   24.2237 H   0  0  0  0  0  0
  -17.5045  -31.6257   24.5199 H   0  0  0  0  0  0
  -15.5367  -30.3006   23.7636 H   0  0  0  0  0  0
  -15.8695  -28.0825   22.7071 H   0  0  0  0  0  0
  -24.5923  -30.7060   25.7876 H   0  0  0  0  0  0
  -24.8878  -32.2943   26.4825 H   0  0  0  0  0  0
  -25.8075  -30.9051   27.0302 H   0  0  0  0  0  0
  -26.2866  -29.6793   24.1185 H   0  0  0  0  0  0
  -27.3987  -29.7250   25.4678 H   0  0  0  0  0  0
  -27.8757  -30.4313   23.9423 H   0  0  0  0  0  0
  -27.2703  -33.3676   26.1990 H   0  0  0  0  0  0
  -28.3920  -32.6742   25.0356 H   0  0  0  0  0  0
  -28.0642  -31.8473   26.5503 H   0  0  0  0  0  0
  -28.2571  -38.0108   24.7530 H   0  0  0  0  0  0
  -28.1067  -36.2638   24.6230 H   0  0  0  0  0  0
  -27.2315  -37.1407   25.8869 H   0  0  0  0  0  0
  -20.9381  -29.8852   21.6934 H   0  0  0  0  0  0
  -26.0142  -38.2859   24.1448 H   0  0  0  0  0  0
  -28.4688  -19.8997   22.5678 H   0  0  0  0  0  0
  -30.7767  -19.7097   18.9473 H   0  0  0  0  0  0
  -28.6900  -17.5041   22.8373 H   0  0  0  0  0  0
  -31.0139  -17.2822   19.2077 H   0  0  0  0  0  0
  -30.8233  -24.5871   20.8860 H   0  0  0  0  0  0
  -30.7894  -16.0725   23.3400 H   0  0  0  0  0  0
  -30.5830  -14.3645   23.0417 H   0  0  0  0  0  0
  -29.1671  -15.3781   23.2606 H   0  0  0  0  0  0
  -27.0420  -24.7297   20.4823 H   0  0  0  0  0  0
  -27.7867  -24.8179   18.8965 H   0  0  0  0  0  0
  1 25  1  0  0  0
  1 30  2  0  0  0
  1 84  1  0  0  0
  2  3  1  0  0  0
  2 25  1  0  0  0
  2 87  1  0  0  0
  2 88  1  0  0  0
  3  4  1  0  0  0
  3 89  1  0  0  0
  3 90  1  0  0  0
  4  5  1  0  0  0
  4 91  1  0  0  0
  4 92  1  0  0  0
  5  6  1  0  0  0
  5 26  1  0  0  0
  5 93  1  0  0  0
  6 25  1  0  0  0
  6 94  1  0  0  0
  6 95  1  0  0  0
  7  8  2  0  0  0
  7 26  1  0  0  0
  7 29  1  0  0  0
  8  9  1  0  0  0
  8 22  1  0  0  0
  9 10  1  0  0  0
  9 27  2  0  0  0
 10 11  2  0  0  0
 10 15  1  0  0  0
 11 12  1  0  0  0
 11 96  1  0  0  0
 12 13  2  0  0  0
 12 97  1  0  0  0
 13 14  1  0  0  0
 13 31  1  0  0  0
 14 15  2  0  0  0
 14 98  1  0  0  0
 15 99  1  0  0  0
 16 17  2  0  0  0
 16 21  1  0  0  0
 16 31  1  0  0  0
 17 18  1  0  0  0
 17100  1  0  0  0
 18 19  2  0  0  0
 18101  1  0  0  0
 19 20  1  0  0  0
 19 24  1  0  0  0
 20 21  2  0  0  0
 20102  1  0  0  0
 21 23  1  0  0  0
 22 28  1  0  0  0
 22 32  2  0  0  0
 26 27  1  0  0  0
 28103  1  0  0  0
 28104  1  0  0  0
 29105  1  0  0  0
 29106  1  0  0  0
 33 34  1  0  0  0
 33 66  1  0  0  0
 33 70  2  0  0  0
 34 36  1  0  0  0
 34 59  1  0  0  0
 34107  1  0  0  0
 35 44  2  0  0  0
 35 45  1  0  0  0
 35 68  1  0  0  0
 36 56  1  0  0  0
 36108  1  0  0  0
 37 39  1  0  0  0
 37 47  1  0  0  0
 37 66  1  0  0  0
 37109  1  0  0  0
 38 43  2  0  0  0
 38 46  1  0  0  0
 38 47  1  0  0  0
 39 64  1  0  0  0
 39 67  2  0  0  0
 40 52  1  0  0  0
 40 53  2  0  0  0
 40 58  1  0  0  0
 41110  1  0  0  0
 41111  1  0  0  0
 41112  1  0  0  0
 41 48  1  0  0  0
 42 43  1  0  0  0
 42 66  1  0  0  0
 42113  1  0  0  0
 42114  1  0  0  0
 43 44  1  0  0  0
 44115  1  0  0  0
 45 46  2  0  0  0
 45116  1  0  0  0
 46117  1  0  0  0
 47118  1  0  0  0
 47119  1  0  0  0
 48 56  1  0  0  0
 48 65  1  0  0  0
 48120  1  0  0  0
 49 50  1  0  0  0
 49 53  1  0  0  0
 49 64  1  0  0  0
 49121  1  0  0  0
 50 51  1  0  0  0
 50122  1  0  0  0
 50123  1  0  0  0
 51 52  1  0  0  0
 51124  1  0  0  0
 51125  1  0  0  0
 52126  1  0  0  0
 52127  1  0  0  0
 53 54  1  0  0  0
 54 55  2  0  0  0
 54128  1  0  0  0
 55 57  1  0  0  0
 55129  1  0  0  0
 56 69  2  0  0  0
 57 58  2  0  0  0
 57130  1  0  0  0
 58131  1  0  0  0
 59 60  1  0  0  0
 59 61  1  0  0  0
 59 62  1  0  0  0
 60132  1  0  0  0
 60133  1  0  0  0
 60134  1  0  0  0
 61135  1  0  0  0
 61136  1  0  0  0
 61137  1  0  0  0
 62138  1  0  0  0
 62139  1  0  0  0
 62140  1  0  0  0
 63 65  1  0  0  0
 63141  1  0  0  0
 63142  1  0  0  0
 63143  1  0  0  0
 64144  1  0  0  0
 65145  1  0  0  0
 68 82  1  0  0  0
 71 73  2  0  0  0
 71 75  1  0  0  0
 71146  1  0  0  0
 72 74  1  0  0  0
 72 75  2  0  0  0
 72147  1  0  0  0
 73 76  1  0  0  0
 73148  1  0  0  0
 74 76  2  0  0  0
 74149  1  0  0  0
 75 83  1  0  0  0
 76 84  1  0  0  0
 77 78  2  0  0  0
 77 79  1  0  0  0
 77150  1  0  0  0
 78 80  1  0  0  0
 78 82  1  0  0  0
 79 83  1  0  0  0
 79 85  2  0  0  0
 80 83  1  0  0  0
 80 86  2  0  0  0
 81 84  1  0  0  0
 81151  1  0  0  0
 81152  1  0  0  0
 81153  1  0  0  0
 82154  1  0  0  0
 82155  1  0  0  0
M  ISO  4   1 100  68 101  82 101  84 100
M  END
> <chiral flag>
0

> <version>
0

> <s_m_source_file>
/data/baiqing/PycharmProjects/Reinvent-master-3.2/result/LINK_invent/BTK/process_docking_weight1_custom_product_contain_oxygen_bond_distance_aromatic_linkinvent_7_9_3/rearranged_h_0076.sdf

> <i_m_source_file_index>
14

> <r_mmod_Potential_Energy-OPLS-2005>
287.699737548828

> <r_mmod_Stretch_Energy-OPLS-2005>
101.756286621094

> <r_mmod_Bend_Energy-OPLS-2005>
197.528198242188

> <r_mmod_Torsional_Energy-OPLS-2005>
318.267700195312

> <r_mmod_Improper_Torsional_Energy-OPLS-2005>
3.13877701759338

> <r_mmod_Van_der_Waal_Energy-OPLS-2005>
151.636688232422

> <r_mmod_Electrostatic_Energy-OPLS-2005>
-325.194030761719

> <r_mmod_Solvation_Energy-OPLS-2005>
-222.823806762695

> <b_mmod_Minimization_Converged-OPLS-2005>
0

> <r_mmod_RMS_Derivative-OPLS-2005>
2.55566811561584

$$$$
14
                    3D
 Structure written by MMmdl.
151159  0  0  1  0            999 V2000
  -30.6145  -14.6628   20.4885 C   0  0  0  0  0  0
  -30.4403  -12.4051   19.4561 C   0  0  0  0  0  0
  -29.5090  -12.5081   18.2272 C   0  0  0  0  0  0
  -28.0323  -12.3430   18.6399 C   0  0  0  0  0  0
  -27.6518  -13.2193   19.8633 C   0  0  2  0  0  0
  -28.6979  -13.0857   20.9933 C   0  0  0  0  0  0
  -25.2545  -13.8168   20.5692 C   0  0  0  0  0  0
  -24.1812  -13.0424   20.9165 C   0  0  0  0  0  0
  -24.6392  -11.6901   20.8724 C   0  0  0  0  0  0
  -23.9065  -10.4285   21.0395 C   0  0  0  0  0  0
  -24.3616   -9.4203   21.9177 C   0  0  0  0  0  0
  -23.6290   -8.2241   22.0751 C   0  0  0  0  0  0
  -22.4271   -8.0280   21.3544 C   0  0  0  0  0  0
  -21.9907   -9.0252   20.4644 C   0  0  0  0  0  0
  -22.7236  -10.2129   20.3049 C   0  0  0  0  0  0
  -21.6853   -6.0734   22.5279 C   0  0  0  0  0  0
  -21.4015   -6.5637   23.8213 C   0  0  0  0  0  0
  -21.3659   -5.6788   24.9174 C   0  0  0  0  0  0
  -21.6046   -4.3052   24.7224 C   0  0  0  0  0  0
  -21.8820   -3.8144   23.4344 C   0  0  0  0  0  0
  -21.9194   -4.6962   22.3401 C   0  0  0  0  0  0
  -22.7837  -13.5219   21.1842 C   0  0  0  0  0  0
  -22.1662   -4.2149   21.0978 F   0  0  0  0  0  0
  -21.5629   -3.4535   25.7736 F   0  0  0  0  0  0
  -30.0115  -13.4318   20.4275 N   0  0  0  0  0  0
  -26.2986  -12.9361   20.3336 N   0  0  0  0  0  0
  -25.9327  -11.6509   20.5759 N   0  0  0  0  0  0
  -22.0487  -12.8211   22.0407 N   0  0  0  0  0  0
  -25.4219  -15.1896   20.4178 N   0  0  0  0  0  0
  -31.7820  -14.8187   20.1193 O   0  0  0  0  0  0
  -21.6636   -6.8877   21.4242 O   0  0  0  0  0  0
  -22.3515  -14.5529   20.6703 O   0  0  0  0  0  0
  -24.6264  -31.8593   23.2020 C   0  0  0  0  0  0
  -25.9111  -32.4776   23.8350 C   0  0  1  0  0  0
  -27.2238  -27.3133   20.1253 C   0  0  0  0  0  0
  -25.5925  -33.8576   24.2278 N   0  0  0  0  0  0
  -23.4208  -30.4823   21.5446 C   0  0  2  0  0  0
  -24.8687  -28.9351   20.1130 C   0  0  0  0  0  0
  -22.7477  -29.4622   22.4937 C   0  0  0  0  0  0
  -18.0286  -28.1387   22.8485 C   0  0  0  0  0  0
  -24.1489  -36.7293   23.2639 C   0  0  0  0  0  0
  -25.9622  -30.7887   21.3742 C   0  0  0  0  0  0
  -26.0375  -29.4145   20.7189 C   0  0  0  0  0  0
  -27.2204  -28.6157   20.7143 C   0  0  0  0  0  0
  -26.0381  -26.8929   19.4845 C   0  0  0  0  0  0
  -24.8710  -27.6797   19.4860 C   0  0  0  0  0  0
  -23.6366  -29.8158   20.1605 C   0  0  0  0  0  0
  -25.4115  -36.3082   24.0328 C   0  0  1  0  0  0
  -20.5887  -28.3691   23.1282 C   0  0  2  0  0  0
  -20.6775  -26.9414   22.5411 C   0  0  0  0  0  0
  -19.5752  -26.6387   21.5212 C   0  0  0  0  0  0
  -18.1932  -26.7929   22.1624 C   0  0  0  0  0  0
  -19.1538  -28.8856   23.2878 C   0  0  0  0  0  0
  -18.9463  -30.1460   23.8893 C   0  0  0  0  0  0
  -17.6462  -30.6587   24.0565 C   0  0  0  0  0  0
  -25.9051  -34.9450   23.5104 C   0  0  0  0  0  0
  -16.5353  -29.9087   23.6330 C   0  0  0  0  0  0
  -16.7274  -28.6506   23.0347 C   0  0  0  0  0  0
  -26.4493  -31.6585   25.0721 C   0  0  0  0  0  0
  -25.3729  -31.3724   26.1451 C   0  0  0  0  0  0
  -27.0336  -30.3008   24.6176 C   0  0  0  0  0  0
  -27.6050  -32.4322   25.7492 C   0  0  0  0  0  0
  -27.5579  -37.1803   24.8466 C   0  0  0  0  0  0
  -21.4191  -29.3043   22.3678 N   0  0  0  0  0  0
  -26.4293  -37.3776   23.9406 N   0  0  0  0  0  0
  -24.6886  -31.0602   22.0971 N   0  0  0  0  0  0
  -23.4196  -28.8162   23.3021 O   0  0  0  0  0  0
  -28.3318  -26.4522   20.1471 O   0  0  0  0  0  0
  -26.5621  -34.8918   22.4672 O   0  0  0  0  0  0
  -23.5427  -32.1393   23.7345 O   0  0  0  0  0  0
  -31.0375  -19.3176   20.1463 C   0  0  0  0  0  0
  -31.0668  -17.9005   20.3317 C   0  0  0  0  0  0
  -28.6711  -19.3620   20.5342 C   0  0  0  0  0  0
  -29.8408  -20.0953   20.2170 C   0  0  0  0  0  0
  -29.8846  -17.1686   20.6114 C   0  0  0  0  0  0
  -28.6952  -17.9444   20.7215 C   0  0  0  0  0  0
  -29.0430  -23.9097   20.0704 C   0  0  0  0  0  0
  -29.8431  -21.6097   19.8896 C   0  0  0  0  0  0
  -28.0990  -25.0544   20.6059 C   0  0  0  0  0  0
  -29.0019  -22.6250   20.3779 N   0  0  0  0  0  0
  -29.7940  -15.7162   20.8067 N   0  0  0  0  0  0
  -30.7452  -21.9313   19.0087 N   0  3  0  0  0  0
  -27.5358  -17.2952   20.9943 F   0  0  0  0  0  0
  -31.4807  -12.5341   19.1524 H   0  0  0  0  0  0
  -30.3805  -11.4119   19.9037 H   0  0  0  0  0  0
  -29.7764  -11.7531   17.4867 H   0  0  0  0  0  0
  -29.6477  -13.4749   17.7407 H   0  0  0  0  0  0
  -27.8738  -11.2904   18.8780 H   0  0  0  0  0  0
  -27.3769  -12.5656   17.7971 H   0  0  0  0  0  0
  -27.6640  -14.2523   19.5151 H   0  0  0  0  0  0
  -28.7131  -12.0669   21.3836 H   0  0  0  0  0  0
  -28.4416  -13.7245   21.8399 H   0  0  0  0  0  0
  -25.2763   -9.5683   22.4747 H   0  0  0  0  0  0
  -24.0002   -7.4634   22.7470 H   0  0  0  0  0  0
  -21.0839   -8.8770   19.8950 H   0  0  0  0  0  0
  -22.3696  -10.9666   19.6156 H   0  0  0  0  0  0
  -21.2006   -7.6144   23.9717 H   0  0  0  0  0  0
  -21.1481   -6.0516   25.9077 H   0  0  0  0  0  0
  -22.0600   -2.7607   23.2843 H   0  0  0  0  0  0
  -22.4102  -11.9869   22.4790 H   0  0  0  0  0  0
  -21.1111  -13.1244   22.2627 H   0  0  0  0  0  0
  -24.6589  -15.8398   20.5673 H   0  0  0  0  0  0
  -26.2940  -15.6583   20.2053 H   0  0  0  0  0  0
  -26.7181  -32.5448   23.1102 H   0  0  0  0  0  0
  -25.0074  -33.9720   25.0424 H   0  0  0  0  0  0
  -22.7151  -31.3030   21.4004 H   0  0  0  0  0  0
  -23.3748  -35.9629   23.3306 H   0  0  0  0  0  0
  -24.3581  -36.8909   22.2053 H   0  0  0  0  0  0
  -23.7246  -37.6498   23.6657 H   0  0  0  0  0  0
  -26.0942  -31.5511   20.6050 H   0  0  0  0  0  0
  -26.8421  -30.8386   22.0039 H   0  0  0  0  0  0
  -28.1173  -28.9788   21.1962 H   0  0  0  0  0  0
  -26.0014  -25.9390   18.9783 H   0  0  0  0  0  0
  -23.9783  -27.3098   19.0004 H   0  0  0  0  0  0
  -23.7570  -30.5913   19.4032 H   0  0  0  0  0  0
  -22.7566  -29.2453   19.8580 H   0  0  0  0  0  0
  -25.1296  -36.1936   25.0821 H   0  0  0  0  0  0
  -20.9978  -28.3268   24.1403 H   0  0  0  0  0  0
  -20.5679  -26.2301   23.3612 H   0  0  0  0  0  0
  -21.6646  -26.7447   22.1205 H   0  0  0  0  0  0
  -19.6915  -25.6298   21.1242 H   0  0  0  0  0  0
  -19.6687  -27.3197   20.6742 H   0  0  0  0  0  0
  -17.4202  -26.6675   21.4027 H   0  0  0  0  0  0
  -18.0333  -26.0072   22.9022 H   0  0  0  0  0  0
  -19.7940  -30.7279   24.2255 H   0  0  0  0  0  0
  -17.5017  -31.6265   24.5174 H   0  0  0  0  0  0
  -15.5354  -30.2989   23.7655 H   0  0  0  0  0  0
  -15.8674  -28.0828   22.7057 H   0  0  0  0  0  0
  -24.5903  -30.7073   25.7783 H   0  0  0  0  0  0
  -24.8922  -32.2892   26.4875 H   0  0  0  0  0  0
  -25.8058  -30.8905   27.0226 H   0  0  0  0  0  0
  -26.2910  -29.6760   24.1201 H   0  0  0  0  0  0
  -27.4034  -29.7262   25.4679 H   0  0  0  0  0  0
  -27.8779  -30.4292   23.9399 H   0  0  0  0  0  0
  -27.2655  -33.3622   26.2067 H   0  0  0  0  0  0
  -28.3860  -32.6887   25.0320 H   0  0  0  0  0  0
  -28.0719  -31.8452   26.5412 H   0  0  0  0  0  0
  -28.2601  -38.0096   24.7508 H   0  0  0  0  0  0
  -28.1071  -36.2628   24.6298 H   0  0  0  0  0  0
  -27.2298  -37.1464   25.8869 H   0  0  0  0  0  0
  -20.9369  -29.8767   21.6888 H   0  0  0  0  0  0
  -26.0175  -38.2854   24.1399 H   0  0  0  0  0  0
  -31.9730  -19.8113   19.9376 H   0  0  0  0  0  0
  -32.0146  -17.3888   20.2520 H   0  0  0  0  0  0
  -27.7343  -19.8899   20.6022 H   0  0  0  0  0  0
  -29.7863  -24.3031   19.3717 H   0  0  0  0  0  0
  -28.1947  -25.0678   21.6917 H   0  0  0  0  0  0
  -27.0773  -24.7273   20.4230 H   0  0  0  0  0  0
  -28.8749  -15.4152   21.0944 H   0  0  0  0  0  0
  -31.3460  -21.2331   18.5747 H   0  0  0  0  0  0
  -30.8949  -22.8724   18.6617 H   0  0  0  0  0  0
  1 25  1  0  0  0
  1 30  2  0  0  0
  1 81  1  0  0  0
  2  3  1  0  0  0
  2 25  1  0  0  0
  2 84  1  0  0  0
  2 85  1  0  0  0
  3  4  1  0  0  0
  3 86  1  0  0  0
  3 87  1  0  0  0
  4  5  1  0  0  0
  4 88  1  0  0  0
  4 89  1  0  0  0
  5  6  1  0  0  0
  5 26  1  0  0  0
  5 90  1  0  0  0
  6 25  1  0  0  0
  6 91  1  0  0  0
  6 92  1  0  0  0
  7  8  2  0  0  0
  7 26  1  0  0  0
  7 29  1  0  0  0
  8  9  1  0  0  0
  8 22  1  0  0  0
  9 10  1  0  0  0
  9 27  2  0  0  0
 10 11  2  0  0  0
 10 15  1  0  0  0
 11 12  1  0  0  0
 11 93  1  0  0  0
 12 13  2  0  0  0
 12 94  1  0  0  0
 13 14  1  0  0  0
 13 31  1  0  0  0
 14 15  2  0  0  0
 14 95  1  0  0  0
 15 96  1  0  0  0
 16 17  2  0  0  0
 16 21  1  0  0  0
 16 31  1  0  0  0
 17 18  1  0  0  0
 17 97  1  0  0  0
 18 19  2  0  0  0
 18 98  1  0  0  0
 19 20  1  0  0  0
 19 24  1  0  0  0
 20 21  2  0  0  0
 20 99  1  0  0  0
 21 23  1  0  0  0
 22 28  1  0  0  0
 22 32  2  0  0  0
 26 27  1  0  0  0
 28100  1  0  0  0
 28101  1  0  0  0
 29102  1  0  0  0
 29103  1  0  0  0
 33 34  1  0  0  0
 33 66  1  0  0  0
 33 70  2  0  0  0
 34 36  1  0  0  0
 34 59  1  0  0  0
 34104  1  0  0  0
 35 44  2  0  0  0
 35 45  1  0  0  0
 35 68  1  0  0  0
 36 56  1  0  0  0
 36105  1  0  0  0
 37 39  1  0  0  0
 37 47  1  0  0  0
 37 66  1  0  0  0
 37106  1  0  0  0
 38 43  2  0  0  0
 38 46  1  0  0  0
 38 47  1  0  0  0
 39 64  1  0  0  0
 39 67  2  0  0  0
 40 52  1  0  0  0
 40 53  2  0  0  0
 40 58  1  0  0  0
 41107  1  0  0  0
 41108  1  0  0  0
 41109  1  0  0  0
 41 48  1  0  0  0
 42 43  1  0  0  0
 42 66  1  0  0  0
 42110  1  0  0  0
 42111  1  0  0  0
 43 44  1  0  0  0
 44112  1  0  0  0
 45 46  2  0  0  0
 45113  1  0  0  0
 46114  1  0  0  0
 47115  1  0  0  0
 47116  1  0  0  0
 48 56  1  0  0  0
 48 65  1  0  0  0
 48117  1  0  0  0
 49 50  1  0  0  0
 49 53  1  0  0  0
 49 64  1  0  0  0
 49118  1  0  0  0
 50 51  1  0  0  0
 50119  1  0  0  0
 50120  1  0  0  0
 51 52  1  0  0  0
 51121  1  0  0  0
 51122  1  0  0  0
 52123  1  0  0  0
 52124  1  0  0  0
 53 54  1  0  0  0
 54 55  2  0  0  0
 54125  1  0  0  0
 55 57  1  0  0  0
 55126  1  0  0  0
 56 69  2  0  0  0
 57 58  2  0  0  0
 57127  1  0  0  0
 58128  1  0  0  0
 59 60  1  0  0  0
 59 61  1  0  0  0
 59 62  1  0  0  0
 60129  1  0  0  0
 60130  1  0  0  0
 60131  1  0  0  0
 61132  1  0  0  0
 61133  1  0  0  0
 61134  1  0  0  0
 62135  1  0  0  0
 62136  1  0  0  0
 62137  1  0  0  0
 63 65  1  0  0  0
 63138  1  0  0  0
 63139  1  0  0  0
 63140  1  0  0  0
 64141  1  0  0  0
 65142  1  0  0  0
 68 79  1  0  0  0
 71 72  2  0  0  0
 71 74  1  0  0  0
 71143  1  0  0  0
 72 75  1  0  0  0
 72144  1  0  0  0
 73 74  2  0  0  0
 73 76  1  0  0  0
 73145  1  0  0  0
 74 78  1  0  0  0
 75 76  2  0  0  0
 75 81  1  0  0  0
 76 83  1  0  0  0
 77 79  1  0  0  0
 77 80  2  0  0  0
 77146  1  0  0  0
 78 80  1  0  0  0
 78 82  2  0  0  0
 79147  1  0  0  0
 79148  1  0  0  0
 81149  1  0  0  0
 82150  1  0  0  0
 82151  1  0  0  0
M  CHG  1  82   1
M  ISO  4   1 100  68 101  79 101  81 100
M  END
> <chiral flag>
0

> <version>
0

> <s_m_source_file>
/data/baiqing/PycharmProjects/Reinvent-master-3.2/result/LINK_invent/BTK/process_docking_weight1_custom_product_contain_oxygen_bond_distance_aromatic_linkinvent_7_9_3/rearranged_h_0076.sdf

> <i_m_source_file_index>
15

> <r_mmod_Potential_Energy-OPLS-2005>
-15.3665800094604

> <r_mmod_Stretch_Energy-OPLS-2005>
98.200439453125

> <r_mmod_Bend_Energy-OPLS-2005>
143.710006713867

> <r_mmod_Torsional_Energy-OPLS-2005>
230.715591430664

> <r_mmod_Improper_Torsional_Energy-OPLS-2005>
4.44493532180786

> <r_mmod_Van_der_Waal_Energy-OPLS-2005>
155.551345825195

> <r_mmod_Electrostatic_Energy-OPLS-2005>
-218.223190307617

> <r_mmod_Solvation_Energy-OPLS-2005>
-483.575317382812

> <b_mmod_Minimization_Converged-OPLS-2005>
0

> <r_mmod_RMS_Derivative-OPLS-2005>
0.338633835315704

$$$$
15
                    3D
 Structure written by MMmdl.
163172  0  0  1  0            999 V2000
  -30.6883  -14.4994   20.7192 C   0  0  0  0  0  0
  -30.4578  -12.4018   19.3880 C   0  0  0  0  0  0
  -29.4954  -12.5705   18.1933 C   0  0  0  0  0  0
  -28.0214  -12.3892   18.6125 C   0  0  0  0  0  0
  -27.6645  -13.1857   19.8936 C   0  0  2  0  0  0
  -28.7152  -12.9327   20.9963 C   0  0  0  0  0  0
  -25.2447  -13.7882   20.5641 C   0  0  0  0  0  0
  -24.1782  -13.0224   20.9240 C   0  0  0  0  0  0
  -24.6399  -11.6735   20.8727 C   0  0  0  0  0  0
  -23.9071  -10.4182   21.0376 C   0  0  0  0  0  0
  -24.3655   -9.4144   21.9163 C   0  0  0  0  0  0
  -23.6338   -8.2189   22.0751 C   0  0  0  0  0  0
  -22.4318   -8.0235   21.3528 C   0  0  0  0  0  0
  -21.9933   -9.0196   20.4635 C   0  0  0  0  0  0
  -22.7241  -10.2058   20.3028 C   0  0  0  0  0  0
  -21.6852   -6.0756   22.5301 C   0  0  0  0  0  0
  -21.3989   -6.5667   23.8228 C   0  0  0  0  0  0
  -21.3639   -5.6809   24.9185 C   0  0  0  0  0  0
  -21.6052   -4.3077   24.7215 C   0  0  0  0  0  0
  -21.8828   -3.8180   23.4331 C   0  0  0  0  0  0
  -21.9217   -4.7000   22.3404 C   0  0  0  0  0  0
  -22.7810  -13.5032   21.1938 C   0  0  0  0  0  0
  -22.1708   -4.2197   21.0979 F   0  0  0  0  0  0
  -21.5620   -3.4559   25.7723 F   0  0  0  0  0  0
  -30.0395  -13.3230   20.4559 N   0  0  0  0  0  0
  -26.2997  -12.9148   20.3418 N   0  0  0  0  0  0
  -25.9324  -11.6325   20.5802 N   0  0  0  0  0  0
  -22.0510  -12.8034   22.0521 N   0  0  0  0  0  0
  -25.3709  -15.1508   20.3829 N   0  0  0  0  0  0
  -31.7271  -14.8070   20.1294 O   0  0  0  0  0  0
  -21.6637   -6.8872   21.4255 O   0  0  0  0  0  0
  -22.3486  -14.5329   20.6764 O   0  0  0  0  0  0
  -24.6080  -31.8677   23.2031 C   0  0  0  0  0  0
  -25.8965  -32.4821   23.8383 C   0  0  1  0  0  0
  -27.2524  -27.4352   20.1265 C   0  0  0  0  0  0
  -25.5799  -33.8623   24.2335 N   0  0  0  0  0  0
  -23.3991  -30.4780   21.5458 C   0  0  2  0  0  0
  -24.8568  -28.9363   20.1138 C   0  0  0  0  0  0
  -22.7371  -29.4639   22.5035 C   0  0  0  0  0  0
  -18.0282  -28.1326   22.8518 C   0  0  0  0  0  0
  -24.1453  -36.7304   23.2668 C   0  0  0  0  0  0
  -25.9212  -30.8284   21.3556 C   0  0  0  0  0  0
  -26.0049  -29.4585   20.7172 C   0  0  0  0  0  0
  -27.2069  -28.7128   20.7264 C   0  0  0  0  0  0
  -26.0940  -26.9369   19.4897 C   0  0  0  0  0  0
  -24.8952  -27.6782   19.4836 C   0  0  0  0  0  0
  -23.6059  -29.7893   20.1688 C   0  0  0  0  0  0
  -25.4079  -36.3156   24.0377 C   0  0  1  0  0  0
  -20.5839  -28.3619   23.1293 C   0  0  2  0  0  0
  -20.6730  -26.9360   22.5380 C   0  0  0  0  0  0
  -19.5721  -26.6343   21.5165 C   0  0  0  0  0  0
  -18.1909  -26.7870   22.1610 C   0  0  0  0  0  0
  -19.1524  -28.8796   23.2907 C   0  0  0  0  0  0
  -18.9452  -30.1392   23.8966 C   0  0  0  0  0  0
  -17.6449  -30.6555   24.0562 C   0  0  0  0  0  0
  -25.9016  -34.9504   23.5161 C   0  0  0  0  0  0
  -16.5343  -29.9058   23.6314 C   0  0  0  0  0  0
  -16.7269  -28.6425   23.0435 C   0  0  0  0  0  0
  -26.4415  -31.6621   25.0710 C   0  0  0  0  0  0
  -25.3677  -31.3692   26.1465 C   0  0  0  0  0  0
  -27.0231  -30.3081   24.6008 C   0  0  0  0  0  0
  -27.6024  -32.4340   25.7447 C   0  0  0  0  0  0
  -27.5563  -37.1794   24.8471 C   0  0  0  0  0  0
  -21.4125  -29.2996   22.3727 N   0  0  0  0  0  0
  -26.4283  -37.3800   23.9428 N   0  0  0  0  0  0
  -24.6609  -31.0713   22.0961 N   0  0  0  0  0  0
  -23.4149  -28.8288   23.3167 O   0  0  0  0  0  0
  -28.4166  -26.6964   20.1796 O   0  0  0  0  0  0
  -26.5636  -34.8947   22.4772 O   0  0  0  0  0  0
  -23.5266  -32.1462   23.7392 O   0  0  0  0  0  0
  -30.4601  -19.0364   18.7010 C   0  0  0  0  0  0
  -30.7434  -20.1792   19.4711 C   0  0  0  0  0  0
  -30.5541  -18.8408   21.5038 C   0  0  0  0  0  0
  -30.2471  -17.6757   20.7409 C   0  0  0  0  0  0
  -30.0565  -17.8556   19.3477 C   0  0  0  0  0  0
  -30.6382  -20.1174   20.8764 C   0  0  0  0  0  0
  -29.6265  -16.4949   21.4288 C   0  0  0  0  0  0
  -27.8538  -16.9377   19.0681 C   0  0  0  0  0  0
  -29.6071  -22.3170   21.3556 C   0  0  0  0  0  0
  -28.1465  -16.7892   21.6578 C   0  0  0  0  0  0
  -27.4592  -17.5177   20.4579 C   0  0  0  0  0  0
  -29.6468  -23.5977   22.2049 C   0  0  0  0  0  0
  -29.6403  -24.9331   21.3962 C   0  0  0  0  0  0
  -28.2846  -25.4062   20.8085 C   0  0  0  0  0  0
  -29.9956  -15.2807   21.6458 N   0  0  0  0  0  0
  -29.1305  -17.0419   18.6564 N   0  0  0  0  0  0
  -30.5044  -21.3343   21.6235 N   0  0  0  0  0  0
  -26.9960  -16.4182   18.3570 O   0  0  0  0  0  0
  -28.7469  -22.2141   20.4795 O   0  0  0  0  0  0
  -31.4812  -12.5900   19.0604 H   0  0  0  0  0  0
  -30.4609  -11.3775   19.7597 H   0  0  0  0  0  0
  -29.7547  -11.8684   17.3991 H   0  0  0  0  0  0
  -29.6158  -13.5649   17.7587 H   0  0  0  0  0  0
  -27.8400  -11.3246   18.7722 H   0  0  0  0  0  0
  -27.3711  -12.6978   17.7896 H   0  0  0  0  0  0
  -27.7168  -14.2393   19.6384 H   0  0  0  0  0  0
  -28.7377  -11.8797   21.2715 H   0  0  0  0  0  0
  -28.4136  -13.4430   21.9127 H   0  0  0  0  0  0
  -25.2818   -9.5680   22.4690 H   0  0  0  0  0  0
  -24.0057   -7.4633   22.7517 H   0  0  0  0  0  0
  -21.0834   -8.8743   19.8971 H   0  0  0  0  0  0
  -22.3728  -10.9607   19.6135 H   0  0  0  0  0  0
  -21.1933   -7.6173   23.9729 H   0  0  0  0  0  0
  -21.1459   -6.0540   25.9082 H   0  0  0  0  0  0
  -22.0613   -2.7654   23.2812 H   0  0  0  0  0  0
  -22.4155  -11.9656   22.4820 H   0  0  0  0  0  0
  -21.1081  -13.0987   22.2691 H   0  0  0  0  0  0
  -24.5098  -15.6857   20.3612 H   0  0  0  0  0  0
  -26.0624  -15.5064   19.7265 H   0  0  0  0  0  0
  -26.7053  -32.5528   23.1174 H   0  0  0  0  0  0
  -24.9824  -33.9773   25.0405 H   0  0  0  0  0  0
  -22.6822  -31.2917   21.3979 H   0  0  0  0  0  0
  -23.3716  -35.9616   23.3333 H   0  0  0  0  0  0
  -24.3576  -36.8888   22.2070 H   0  0  0  0  0  0
  -23.7136  -37.6490   23.6657 H   0  0  0  0  0  0
  -26.0212  -31.5798   20.5709 H   0  0  0  0  0  0
  -26.8147  -30.9011   21.9633 H   0  0  0  0  0  0
  -28.0868  -29.1056   21.2163 H   0  0  0  0  0  0
  -26.1302  -25.9776   18.9905 H   0  0  0  0  0  0
  -24.0215  -27.2820   18.9838 H   0  0  0  0  0  0
  -23.6743  -30.5507   19.3921 H   0  0  0  0  0  0
  -22.7362  -29.1798   19.9054 H   0  0  0  0  0  0
  -25.1227  -36.2072   25.0849 H   0  0  0  0  0  0
  -20.9945  -28.3181   24.1403 H   0  0  0  0  0  0
  -20.5535  -26.2252   23.3584 H   0  0  0  0  0  0
  -21.6612  -26.7357   22.1241 H   0  0  0  0  0  0
  -19.6886  -25.6267   21.1168 H   0  0  0  0  0  0
  -19.6652  -27.3166   20.6707 H   0  0  0  0  0  0
  -17.4163  -26.6639   21.4032 H   0  0  0  0  0  0
  -18.0388  -26.0012   22.9012 H   0  0  0  0  0  0
  -19.7946  -30.7156   24.2379 H   0  0  0  0  0  0
  -17.5037  -31.6271   24.5093 H   0  0  0  0  0  0
  -15.5353  -30.3003   23.7521 H   0  0  0  0  0  0
  -15.8681  -28.0670   22.7235 H   0  0  0  0  0  0
  -24.5856  -30.7048   25.7749 H   0  0  0  0  0  0
  -24.8856  -32.2821   26.4954 H   0  0  0  0  0  0
  -25.8014  -30.8809   27.0210 H   0  0  0  0  0  0
  -26.2743  -29.6889   24.1041 H   0  0  0  0  0  0
  -27.4019  -29.7243   25.4409 H   0  0  0  0  0  0
  -27.8568  -30.4417   23.9124 H   0  0  0  0  0  0
  -27.2686  -33.3645   26.2047 H   0  0  0  0  0  0
  -28.3802  -32.6907   25.0245 H   0  0  0  0  0  0
  -28.0762  -31.8480   26.5330 H   0  0  0  0  0  0
  -28.2619  -38.0068   24.7548 H   0  0  0  0  0  0
  -28.1050  -36.2606   24.6283 H   0  0  0  0  0  0
  -27.2327  -37.1408   25.8897 H   0  0  0  0  0  0
  -20.9311  -29.8699   21.6901 H   0  0  0  0  0  0
  -26.0209  -38.2896   24.1414 H   0  0  0  0  0  0
  -30.3314  -19.1563   17.6327 H   0  0  0  0  0  0
  -30.8832  -21.1305   18.9712 H   0  0  0  0  0  0
  -30.4995  -18.7789   22.5792 H   0  0  0  0  0  0
  -28.0306  -17.3628   22.5745 H   0  0  0  0  0  0
  -27.6112  -15.8565   21.8178 H   0  0  0  0  0  0
  -26.3785  -17.4901   20.5959 H   0  0  0  0  0  0
  -27.6986  -18.5831   20.4732 H   0  0  0  0  0  0
  -30.5478  -23.5682   22.8221 H   0  0  0  0  0  0
  -28.8007  -23.6007   22.8965 H   0  0  0  0  0  0
  -30.3803  -24.8580   20.6000 H   0  0  0  0  0  0
  -29.9930  -25.7180   22.0686 H   0  0  0  0  0  0
  -27.5530  -25.4576   21.6207 H   0  0  0  0  0  0
  -27.9008  -24.6948   20.0806 H   0  0  0  0  0  0
  -29.3520  -16.7417   17.7169 H   0  0  0  0  0  0
  -31.0593  -21.4429   22.4634 H   0  0  0  0  0  0
  1 25  1  0  0  0
  1 30  2  0  0  0
  1 85  1  0  0  0
  2  3  1  0  0  0
  2 25  1  0  0  0
  2 90  1  0  0  0
  2 91  1  0  0  0
  3  4  1  0  0  0
  3 92  1  0  0  0
  3 93  1  0  0  0
  4  5  1  0  0  0
  4 94  1  0  0  0
  4 95  1  0  0  0
  5  6  1  0  0  0
  5 26  1  0  0  0
  5 96  1  0  0  0
  6 25  1  0  0  0
  6 97  1  0  0  0
  6 98  1  0  0  0
  7  8  2  0  0  0
  7 26  1  0  0  0
  7 29  1  0  0  0
  8  9  1  0  0  0
  8 22  1  0  0  0
  9 10  1  0  0  0
  9 27  2  0  0  0
 10 11  2  0  0  0
 10 15  1  0  0  0
 11 12  1  0  0  0
 11 99  1  0  0  0
 12 13  2  0  0  0
 12100  1  0  0  0
 13 14  1  0  0  0
 13 31  1  0  0  0
 14 15  2  0  0  0
 14101  1  0  0  0
 15102  1  0  0  0
 16 17  2  0  0  0
 16 21  1  0  0  0
 16 31  1  0  0  0
 17 18  1  0  0  0
 17103  1  0  0  0
 18 19  2  0  0  0
 18104  1  0  0  0
 19 20  1  0  0  0
 19 24  1  0  0  0
 20 21  2  0  0  0
 20105  1  0  0  0
 21 23  1  0  0  0
 22 28  1  0  0  0
 22 32  2  0  0  0
 26 27  1  0  0  0
 28106  1  0  0  0
 28107  1  0  0  0
 29108  1  0  0  0
 29109  1  0  0  0
 33 34  1  0  0  0
 33 66  1  0  0  0
 33 70  2  0  0  0
 34 36  1  0  0  0
 34 59  1  0  0  0
 34110  1  0  0  0
 35 44  2  0  0  0
 35 45  1  0  0  0
 35 68  1  0  0  0
 36 56  1  0  0  0
 36111  1  0  0  0
 37 39  1  0  0  0
 37 47  1  0  0  0
 37 66  1  0  0  0
 37112  1  0  0  0
 38 43  2  0  0  0
 38 46  1  0  0  0
 38 47  1  0  0  0
 39 64  1  0  0  0
 39 67  2  0  0  0
 40 52  1  0  0  0
 40 53  2  0  0  0
 40 58  1  0  0  0
 41113  1  0  0  0
 41114  1  0  0  0
 41115  1  0  0  0
 41 48  1  0  0  0
 42 43  1  0  0  0
 42 66  1  0  0  0
 42116  1  0  0  0
 42117  1  0  0  0
 43 44  1  0  0  0
 44118  1  0  0  0
 45 46  2  0  0  0
 45119  1  0  0  0
 46120  1  0  0  0
 47121  1  0  0  0
 47122  1  0  0  0
 48 56  1  0  0  0
 48 65  1  0  0  0
 48123  1  0  0  0
 49 50  1  0  0  0
 49 53  1  0  0  0
 49 64  1  0  0  0
 49124  1  0  0  0
 50 51  1  0  0  0
 50125  1  0  0  0
 50126  1  0  0  0
 51 52  1  0  0  0
 51127  1  0  0  0
 51128  1  0  0  0
 52129  1  0  0  0
 52130  1  0  0  0
 53 54  1  0  0  0
 54 55  2  0  0  0
 54131  1  0  0  0
 55 57  1  0  0  0
 55132  1  0  0  0
 56 69  2  0  0  0
 57 58  2  0  0  0
 57133  1  0  0  0
 58134  1  0  0  0
 59 60  1  0  0  0
 59 61  1  0  0  0
 59 62  1  0  0  0
 60135  1  0  0  0
 60136  1  0  0  0
 60137  1  0  0  0
 61138  1  0  0  0
 61139  1  0  0  0
 61140  1  0  0  0
 62141  1  0  0  0
 62142  1  0  0  0
 62143  1  0  0  0
 63 65  1  0  0  0
 63144  1  0  0  0
 63145  1  0  0  0
 63146  1  0  0  0
 64147  1  0  0  0
 65148  1  0  0  0
 68 84  1  0  0  0
 71 72  2  0  0  0
 71 75  1  0  0  0
 71149  1  0  0  0
 72 76  1  0  0  0
 72150  1  0  0  0
 73 74  1  0  0  0
 73 76  2  0  0  0
 73151  1  0  0  0
 74 75  2  0  0  0
 74 77  1  0  0  0
 75 86  1  0  0  0
 76 87  1  0  0  0
 77 80  1  0  0  0
 77 85  2  0  0  0
 78 81  1  0  0  0
 78 86  1  0  0  0
 78 88  2  0  0  0
 79 82  1  0  0  0
 79 87  1  0  0  0
 79 89  2  0  0  0
 80 81  1  0  0  0
 80152  1  0  0  0
 80153  1  0  0  0
 81154  1  0  0  0
 81155  1  0  0  0
 82 83  1  0  0  0
 82156  1  0  0  0
 82157  1  0  0  0
 83 84  1  0  0  0
 83158  1  0  0  0
 83159  1  0  0  0
 84160  1  0  0  0
 84161  1  0  0  0
 86162  1  0  0  0
 87163  1  0  0  0
M  ISO  4   1 100  68 101  84 101  85 100
M  END
> <chiral flag>
0

> <version>
0

> <s_m_source_file>
/data/baiqing/PycharmProjects/Reinvent-master-3.2/result/LINK_invent/BTK/process_docking_weight1_custom_product_contain_oxygen_bond_distance_aromatic_linkinvent_7_9_3/rearranged_h_0076.sdf

> <i_m_source_file_index>
16

> <r_mmod_Potential_Energy-OPLS-2005>
25.7514533996582

> <r_mmod_Stretch_Energy-OPLS-2005>
48.9868927001953

> <r_mmod_Bend_Energy-OPLS-2005>
124.263778686523

> <r_mmod_Torsional_Energy-OPLS-2005>
374.595794677734

> <r_mmod_Improper_Torsional_Energy-OPLS-2005>
19.5590839385986

> <r_mmod_Van_der_Waal_Energy-OPLS-2005>
174.233184814453

> <r_mmod_Electrostatic_Energy-OPLS-2005>
-522.283508300781

> <r_mmod_Solvation_Energy-OPLS-2005>
-213.979721069336

> <b_mmod_Minimization_Converged-OPLS-2005>
0

> <r_mmod_RMS_Derivative-OPLS-2005>
7.10373783111572

$$$$
16
                    3D
 Structure written by MMmdl.
154163  0  0  1  0            999 V2000
  -30.6146  -14.6740   20.4707 C   0  0  0  0  0  0
  -30.4431  -12.4094   19.4514 C   0  0  0  0  0  0
  -29.5084  -12.5054   18.2245 C   0  0  0  0  0  0
  -28.0318  -12.3412   18.6402 C   0  0  0  0  0  0
  -27.6504  -13.2201   19.8618 C   0  0  2  0  0  0
  -28.7018  -13.0964   20.9881 C   0  0  0  0  0  0
  -25.2521  -13.8145   20.5751 C   0  0  0  0  0  0
  -24.1794  -13.0386   20.9175 C   0  0  0  0  0  0
  -24.6394  -11.6877   20.8722 C   0  0  0  0  0  0
  -23.9071  -10.4265   21.0390 C   0  0  0  0  0  0
  -24.3619   -9.4189   21.9176 C   0  0  0  0  0  0
  -23.6288   -8.2231   22.0754 C   0  0  0  0  0  0
  -22.4269   -8.0273   21.3545 C   0  0  0  0  0  0
  -21.9904   -9.0244   20.4645 C   0  0  0  0  0  0
  -22.7240  -10.2115   20.3044 C   0  0  0  0  0  0
  -21.6849   -6.0730   22.5280 C   0  0  0  0  0  0
  -21.4013   -6.5636   23.8213 C   0  0  0  0  0  0
  -21.3658   -5.6790   24.9176 C   0  0  0  0  0  0
  -21.6044   -4.3053   24.7227 C   0  0  0  0  0  0
  -21.8820   -3.8144   23.4349 C   0  0  0  0  0  0
  -21.9192   -4.6959   22.3403 C   0  0  0  0  0  0
  -22.7817  -13.5180   21.1848 C   0  0  0  0  0  0
  -22.1661   -4.2146   21.0981 F   0  0  0  0  0  0
  -21.5629   -3.4537   25.7740 F   0  0  0  0  0  0
  -30.0128  -13.4416   20.4143 N   0  0  0  0  0  0
  -26.2984  -12.9364   20.3361 N   0  0  0  0  0  0
  -25.9332  -11.6503   20.5761 N   0  0  0  0  0  0
  -22.0470  -12.8180   22.0418 N   0  0  0  0  0  0
  -25.4059  -15.1889   20.4360 N   0  0  0  0  0  0
  -31.7958  -14.8268   20.1465 O   0  0  0  0  0  0
  -21.6632   -6.8872   21.4242 O   0  0  0  0  0  0
  -22.3497  -14.5493   20.6710 O   0  0  0  0  0  0
  -24.6268  -31.8590   23.2030 C   0  0  0  0  0  0
  -25.9111  -32.4776   23.8360 C   0  0  1  0  0  0
  -27.2262  -27.3114   20.1197 C   0  0  0  0  0  0
  -25.5922  -33.8578   24.2282 N   0  0  0  0  0  0
  -23.4222  -30.4825   21.5449 C   0  0  2  0  0  0
  -24.8716  -28.9388   20.1093 C   0  0  0  0  0  0
  -22.7483  -29.4615   22.4927 C   0  0  0  0  0  0
  -18.0287  -28.1386   22.8486 C   0  0  0  0  0  0
  -24.1489  -36.7294   23.2640 C   0  0  0  0  0  0
  -25.9647  -30.7850   21.3795 C   0  0  0  0  0  0
  -26.0397  -29.4117   20.7224 C   0  0  0  0  0  0
  -27.2199  -28.6071   20.7243 C   0  0  0  0  0  0
  -26.0419  -26.9041   19.4639 C   0  0  0  0  0  0
  -24.8744  -27.6893   19.4716 C   0  0  0  0  0  0
  -23.6392  -29.8191   20.1596 C   0  0  0  0  0  0
  -25.4114  -36.3083   24.0331 C   0  0  1  0  0  0
  -20.5889  -28.3690   23.1278 C   0  0  2  0  0  0
  -20.6775  -26.9411   22.5409 C   0  0  0  0  0  0
  -19.5750  -26.6383   21.5212 C   0  0  0  0  0  0
  -18.1930  -26.7928   22.1626 C   0  0  0  0  0  0
  -19.1540  -28.8855   23.2877 C   0  0  0  0  0  0
  -18.9463  -30.1457   23.8895 C   0  0  0  0  0  0
  -17.6463  -30.6587   24.0563 C   0  0  0  0  0  0
  -25.9049  -34.9451   23.5107 C   0  0  0  0  0  0
  -16.5354  -29.9086   23.6331 C   0  0  0  0  0  0
  -16.7274  -28.6504   23.0352 C   0  0  0  0  0  0
  -26.4495  -31.6590   25.0733 C   0  0  0  0  0  0
  -25.3728  -31.3729   26.1459 C   0  0  0  0  0  0
  -27.0345  -30.3011   24.6201 C   0  0  0  0  0  0
  -27.6051  -32.4332   25.7502 C   0  0  0  0  0  0
  -27.5578  -37.1806   24.8468 C   0  0  0  0  0  0
  -21.4194  -29.3041   22.3670 N   0  0  0  0  0  0
  -26.4295  -37.3775   23.9404 N   0  0  0  0  0  0
  -24.6897  -31.0591   22.0990 N   0  0  0  0  0  0
  -23.4199  -28.8151   23.3010 O   0  0  0  0  0  0
  -28.3183  -26.4252   20.1601 O   0  0  0  0  0  0
  -26.5618  -34.8917   22.4674 O   0  0  0  0  0  0
  -23.5427  -32.1395   23.7347 O   0  0  0  0  0  0
  -30.9735  -19.4082   20.7249 C   0  0  0  0  0  0
  -31.0204  -17.9783   20.8015 C   0  0  0  0  0  0
  -28.6483  -19.3265   20.1376 C   0  0  0  0  0  0
  -29.7866  -20.1374   20.3946 C   0  0  0  0  0  0
  -29.8760  -17.1833   20.5350 C   0  0  0  0  0  0
  -28.7007  -17.8992   20.1794 C   0  0  0  0  0  0
  -30.2610  -23.9071   19.8835 C   0  0  0  0  0  0
  -28.8595  -23.9426   20.2782 C   0  0  0  0  0  0
  -30.7500  -22.4282   19.9152 C   0  0  0  0  0  0
  -28.0513  -25.0539   20.4027 C   0  0  0  0  0  0
  -28.5044  -22.4521   20.5182 C   0  0  0  0  0  0
  -29.7289  -21.6186   20.3039 N   0  0  0  0  0  0
  -27.5706  -17.1693   19.8157 N   0  0  0  0  0  0
  -29.7687  -15.7293   20.6891 N   0  0  0  0  0  0
  -30.9713  -24.8727   19.5708 O   0  0  0  0  0  0
  -31.9017  -22.0860   19.6105 O   0  0  0  0  0  0
  -31.4825  -12.5415   19.1456 H   0  0  0  0  0  0
  -30.3865  -11.4192   19.9061 H   0  0  0  0  0  0
  -29.7751  -11.7466   17.4876 H   0  0  0  0  0  0
  -29.6449  -13.4697   17.7324 H   0  0  0  0  0  0
  -27.8738  -11.2892   18.8802 H   0  0  0  0  0  0
  -27.3754  -12.5612   17.7975 H   0  0  0  0  0  0
  -27.6548  -14.2504   19.5083 H   0  0  0  0  0  0
  -28.7208  -12.0813   21.3873 H   0  0  0  0  0  0
  -28.4500  -13.7444   21.8294 H   0  0  0  0  0  0
  -25.2765   -9.5665   22.4749 H   0  0  0  0  0  0
  -23.9994   -7.4623   22.7476 H   0  0  0  0  0  0
  -21.0833   -8.8765   19.8953 H   0  0  0  0  0  0
  -22.3702  -10.9655   19.6152 H   0  0  0  0  0  0
  -21.2005   -7.6144   23.9716 H   0  0  0  0  0  0
  -21.1479   -6.0520   25.9079 H   0  0  0  0  0  0
  -22.0600   -2.7606   23.2850 H   0  0  0  0  0  0
  -22.4090  -11.9842   22.4803 H   0  0  0  0  0  0
  -21.1094  -13.1213   22.2639 H   0  0  0  0  0  0
  -24.6264  -15.8173   20.5925 H   0  0  0  0  0  0
  -26.2736  -15.6982   20.2700 H   0  0  0  0  0  0
  -26.7179  -32.5445   23.1107 H   0  0  0  0  0  0
  -25.0066  -33.9723   25.0425 H   0  0  0  0  0  0
  -22.7165  -31.3034   21.4016 H   0  0  0  0  0  0
  -23.3746  -35.9634   23.3317 H   0  0  0  0  0  0
  -24.3577  -36.8899   22.2051 H   0  0  0  0  0  0
  -23.7253  -37.6505   23.6653 H   0  0  0  0  0  0
  -26.0999  -31.5478   20.6115 H   0  0  0  0  0  0
  -26.8436  -30.8328   22.0108 H   0  0  0  0  0  0
  -28.1135  -28.9600   21.2196 H   0  0  0  0  0  0
  -26.0042  -25.9499   18.9578 H   0  0  0  0  0  0
  -23.9825  -27.3241   18.9810 H   0  0  0  0  0  0
  -23.7592  -30.5969   19.4046 H   0  0  0  0  0  0
  -22.7594  -29.2491   19.8554 H   0  0  0  0  0  0
  -25.1297  -36.1939   25.0825 H   0  0  0  0  0  0
  -20.9982  -28.3266   24.1398 H   0  0  0  0  0  0
  -20.5672  -26.2301   23.3610 H   0  0  0  0  0  0
  -21.6643  -26.7436   22.1204 H   0  0  0  0  0  0
  -19.6909  -25.6293   21.1243 H   0  0  0  0  0  0
  -19.6687  -27.3192   20.6741 H   0  0  0  0  0  0
  -17.4198  -26.6673   21.4031 H   0  0  0  0  0  0
  -18.0333  -26.0072   22.9024 H   0  0  0  0  0  0
  -19.7939  -30.7273   24.2263 H   0  0  0  0  0  0
  -17.5018  -31.6268   24.5165 H   0  0  0  0  0  0
  -15.5355  -30.2989   23.7655 H   0  0  0  0  0  0
  -15.8674  -28.0823   22.7068 H   0  0  0  0  0  0
  -24.5901  -30.7080   25.7790 H   0  0  0  0  0  0
  -24.8922  -32.2896   26.4887 H   0  0  0  0  0  0
  -25.8052  -30.8905   27.0234 H   0  0  0  0  0  0
  -26.2927  -29.6757   24.1220 H   0  0  0  0  0  0
  -27.4030  -29.7272   25.4714 H   0  0  0  0  0  0
  -27.8802  -30.4294   23.9441 H   0  0  0  0  0  0
  -27.2654  -33.3630   26.2078 H   0  0  0  0  0  0
  -28.3859  -32.6897   25.0330 H   0  0  0  0  0  0
  -28.0723  -31.8463   26.5420 H   0  0  0  0  0  0
  -28.2608  -38.0090   24.7495 H   0  0  0  0  0  0
  -28.1062  -36.2621   24.6321 H   0  0  0  0  0  0
  -27.2293  -37.1490   25.8870 H   0  0  0  0  0  0
  -20.9372  -29.8771   21.6886 H   0  0  0  0  0  0
  -26.0178  -38.2854   24.1390 H   0  0  0  0  0  0
  -31.8837  -19.9451   20.9513 H   0  0  0  0  0  0
  -31.9456  -17.4995   21.0891 H   0  0  0  0  0  0
  -27.7202  -19.8066   19.8633 H   0  0  0  0  0  0
  -27.0354  -24.9063   20.7415 H   0  0  0  0  0  0
  -27.7166  -22.1538   19.8261 H   0  0  0  0  0  0
  -28.1332  -22.3154   21.5343 H   0  0  0  0  0  0
  -26.8113  -17.7410   19.4605 H   0  0  0  0  0  0
  -27.7863  -16.4515   19.1331 H   0  0  0  0  0  0
  -28.8126  -15.4402   20.8290 H   0  0  0  0  0  0
  1 25  1  0  0  0
  1 30  2  0  0  0
  1 84  1  0  0  0
  2  3  1  0  0  0
  2 25  1  0  0  0
  2 87  1  0  0  0
  2 88  1  0  0  0
  3  4  1  0  0  0
  3 89  1  0  0  0
  3 90  1  0  0  0
  4  5  1  0  0  0
  4 91  1  0  0  0
  4 92  1  0  0  0
  5  6  1  0  0  0
  5 26  1  0  0  0
  5 93  1  0  0  0
  6 25  1  0  0  0
  6 94  1  0  0  0
  6 95  1  0  0  0
  7  8  2  0  0  0
  7 26  1  0  0  0
  7 29  1  0  0  0
  8  9  1  0  0  0
  8 22  1  0  0  0
  9 10  1  0  0  0
  9 27  2  0  0  0
 10 11  2  0  0  0
 10 15  1  0  0  0
 11 12  1  0  0  0
 11 96  1  0  0  0
 12 13  2  0  0  0
 12 97  1  0  0  0
 13 14  1  0  0  0
 13 31  1  0  0  0
 14 15  2  0  0  0
 14 98  1  0  0  0
 15 99  1  0  0  0
 16 17  2  0  0  0
 16 21  1  0  0  0
 16 31  1  0  0  0
 17 18  1  0  0  0
 17100  1  0  0  0
 18 19  2  0  0  0
 18101  1  0  0  0
 19 20  1  0  0  0
 19 24  1  0  0  0
 20 21  2  0  0  0
 20102  1  0  0  0
 21 23  1  0  0  0
 22 28  1  0  0  0
 22 32  2  0  0  0
 26 27  1  0  0  0
 28103  1  0  0  0
 28104  1  0  0  0
 29105  1  0  0  0
 29106  1  0  0  0
 33 34  1  0  0  0
 33 66  1  0  0  0
 33 70  2  0  0  0
 34 36  1  0  0  0
 34 59  1  0  0  0
 34107  1  0  0  0
 35 44  2  0  0  0
 35 45  1  0  0  0
 35 68  1  0  0  0
 36 56  1  0  0  0
 36108  1  0  0  0
 37 39  1  0  0  0
 37 47  1  0  0  0
 37 66  1  0  0  0
 37109  1  0  0  0
 38 43  2  0  0  0
 38 46  1  0  0  0
 38 47  1  0  0  0
 39 64  1  0  0  0
 39 67  2  0  0  0
 40 52  1  0  0  0
 40 53  2  0  0  0
 40 58  1  0  0  0
 41110  1  0  0  0
 41111  1  0  0  0
 41112  1  0  0  0
 41 48  1  0  0  0
 42 43  1  0  0  0
 42 66  1  0  0  0
 42113  1  0  0  0
 42114  1  0  0  0
 43 44  1  0  0  0
 44115  1  0  0  0
 45 46  2  0  0  0
 45116  1  0  0  0
 46117  1  0  0  0
 47118  1  0  0  0
 47119  1  0  0  0
 48 56  1  0  0  0
 48 65  1  0  0  0
 48120  1  0  0  0
 49 50  1  0  0  0
 49 53  1  0  0  0
 49 64  1  0  0  0
 49121  1  0  0  0
 50 51  1  0  0  0
 50122  1  0  0  0
 50123  1  0  0  0
 51 52  1  0  0  0
 51124  1  0  0  0
 51125  1  0  0  0
 52126  1  0  0  0
 52127  1  0  0  0
 53 54  1  0  0  0
 54 55  2  0  0  0
 54128  1  0  0  0
 55 57  1  0  0  0
 55129  1  0  0  0
 56 69  2  0  0  0
 57 58  2  0  0  0
 57130  1  0  0  0
 58131  1  0  0  0
 59 60  1  0  0  0
 59 61  1  0  0  0
 59 62  1  0  0  0
 60132  1  0  0  0
 60133  1  0  0  0
 60134  1  0  0  0
 61135  1  0  0  0
 61136  1  0  0  0
 61137  1  0  0  0
 62138  1  0  0  0
 62139  1  0  0  0
 62140  1  0  0  0
 63 65  1  0  0  0
 63141  1  0  0  0
 63142  1  0  0  0
 63143  1  0  0  0
 64144  1  0  0  0
 65145  1  0  0  0
 68 80  1  0  0  0
 71 72  2  0  0  0
 71 74  1  0  0  0
 71146  1  0  0  0
 72 75  1  0  0  0
 72147  1  0  0  0
 73 74  2  0  0  0
 73 76  1  0  0  0
 73148  1  0  0  0
 74 82  1  0  0  0
 75 76  2  0  0  0
 75 84  1  0  0  0
 76 83  1  0  0  0
 77 78  1  0  0  0
 77 79  1  0  0  0
 77 85  2  0  0  0
 78 80  2  0  0  0
 78 81  1  0  0  0
 79 82  1  0  0  0
 79 86  2  0  0  0
 80149  1  0  0  0
 81 82  1  0  0  0
 81150  1  0  0  0
 81151  1  0  0  0
 83152  1  0  0  0
 83153  1  0  0  0
 84154  1  0  0  0
M  ISO  4   1 100  68 101  80 101  84 100
M  END
> <chiral flag>
0

> <version>
0

> <s_m_source_file>
/data/baiqing/PycharmProjects/Reinvent-master-3.2/result/LINK_invent/BTK/process_docking_weight1_custom_product_contain_oxygen_bond_distance_aromatic_linkinvent_7_9_3/rearranged_h_0076.sdf

> <i_m_source_file_index>
17

> <r_mmod_Potential_Energy-OPLS-2005>
96.8694839477539

> <r_mmod_Stretch_Energy-OPLS-2005>
83.2036209106445

> <r_mmod_Bend_Energy-OPLS-2005>
171.161956787109

> <r_mmod_Torsional_Energy-OPLS-2005>
265.544952392578

> <r_mmod_Improper_Torsional_Energy-OPLS-2005>
11.4368801116943

> <r_mmod_Van_der_Waal_Energy-OPLS-2005>
146.570617675781

> <r_mmod_Electrostatic_Energy-OPLS-2005>
-392.159759521484

> <r_mmod_Solvation_Energy-OPLS-2005>
-248.552734375

> <b_mmod_Minimization_Converged-OPLS-2005>
0

> <r_mmod_RMS_Derivative-OPLS-2005>
0.175516948103905

$$$$
17
                    3D
 Structure written by MMmdl.
157166  0  0  1  0            999 V2000
  -30.6303  -14.6626   20.4501 C   0  0  0  0  0  0
  -30.4274  -12.3919   19.4770 C   0  0  0  0  0  0
  -29.5118  -12.4861   18.2370 C   0  0  0  0  0  0
  -28.0326  -12.3332   18.6409 C   0  0  0  0  0  0
  -27.6463  -13.2236   19.8535 C   0  0  2  0  0  0
  -28.6864  -13.1249   20.9908 C   0  0  0  0  0  0
  -25.2540  -13.8189   20.5671 C   0  0  0  0  0  0
  -24.1814  -13.0454   20.9185 C   0  0  0  0  0  0
  -24.6389  -11.6924   20.8739 C   0  0  0  0  0  0
  -23.9060  -10.4303   21.0412 C   0  0  0  0  0  0
  -24.3619   -9.4213   21.9183 C   0  0  0  0  0  0
  -23.6294   -8.2249   22.0754 C   0  0  0  0  0  0
  -22.4274   -8.0292   21.3549 C   0  0  0  0  0  0
  -21.9901   -9.0262   20.4650 C   0  0  0  0  0  0
  -22.7230  -10.2146   20.3056 C   0  0  0  0  0  0
  -21.6851   -6.0736   22.5278 C   0  0  0  0  0  0
  -21.4016   -6.5640   23.8213 C   0  0  0  0  0  0
  -21.3657   -5.6790   24.9172 C   0  0  0  0  0  0
  -21.6048   -4.3052   24.7221 C   0  0  0  0  0  0
  -21.8820   -3.8145   23.4341 C   0  0  0  0  0  0
  -21.9193   -4.6961   22.3396 C   0  0  0  0  0  0
  -22.7845  -13.5246   21.1846 C   0  0  0  0  0  0
  -22.1665   -4.2148   21.0976 F   0  0  0  0  0  0
  -21.5619   -3.4534   25.7730 F   0  0  0  0  0  0
  -30.0006  -13.4454   20.4210 N   0  0  0  0  0  0
  -26.2953  -12.9379   20.3270 N   0  0  0  0  0  0
  -25.9315  -11.6529   20.5748 N   0  0  0  0  0  0
  -22.0484  -12.8245   22.0405 N   0  0  0  0  0  0
  -25.4276  -15.1905   20.4089 N   0  0  0  0  0  0
  -31.8264  -14.7552   20.1610 O   0  0  0  0  0  0
  -21.6646   -6.8884   21.4243 O   0  0  0  0  0  0
  -22.3534  -14.5555   20.6689 O   0  0  0  0  0  0
  -24.6260  -31.8596   23.2015 C   0  0  0  0  0  0
  -25.9106  -32.4772   23.8346 C   0  0  1  0  0  0
  -27.2231  -27.3152   20.1048 C   0  0  0  0  0  0
  -25.5926  -33.8575   24.2278 N   0  0  0  0  0  0
  -23.4187  -30.4827   21.5458 C   0  0  2  0  0  0
  -24.8616  -28.9368   20.1093 C   0  0  0  0  0  0
  -22.7473  -29.4616   22.4942 C   0  0  0  0  0  0
  -18.0289  -28.1384   22.8475 C   0  0  0  0  0  0
  -24.1492  -36.7301   23.2632 C   0  0  0  0  0  0
  -25.9594  -30.7879   21.3710 C   0  0  0  0  0  0
  -26.0310  -29.4152   20.7120 C   0  0  0  0  0  0
  -27.2098  -28.6134   20.7050 C   0  0  0  0  0  0
  -26.0201  -26.8786   19.5015 C   0  0  0  0  0  0
  -24.8580  -27.6726   19.5000 C   0  0  0  0  0  0
  -23.6306  -29.8185   20.1606 C   0  0  0  0  0  0
  -25.4113  -36.3083   24.0325 C   0  0  1  0  0  0
  -20.5887  -28.3681   23.1287 C   0  0  2  0  0  0
  -20.6774  -26.9404   22.5412 C   0  0  0  0  0  0
  -19.5753  -26.6379   21.5208 C   0  0  0  0  0  0
  -18.1931  -26.7926   22.1614 C   0  0  0  0  0  0
  -19.1539  -28.8850   23.2877 C   0  0  0  0  0  0
  -18.9461  -30.1448   23.8895 C   0  0  0  0  0  0
  -17.6458  -30.6580   24.0560 C   0  0  0  0  0  0
  -25.9051  -34.9450   23.5103 C   0  0  0  0  0  0
  -16.5352  -29.9071   23.6329 C   0  0  0  0  0  0
  -16.7274  -28.6498   23.0338 C   0  0  0  0  0  0
  -26.4485  -31.6581   25.0720 C   0  0  0  0  0  0
  -25.3723  -31.3730   26.1457 C   0  0  0  0  0  0
  -27.0311  -30.3004   24.6160 C   0  0  0  0  0  0
  -27.6054  -32.4310   25.7484 C   0  0  0  0  0  0
  -27.5590  -37.1797   24.8445 C   0  0  0  0  0  0
  -21.4187  -29.3034   22.3685 N   0  0  0  0  0  0
  -26.4286  -37.3782   23.9411 N   0  0  0  0  0  0
  -24.6873  -31.0600   22.0969 N   0  0  0  0  0  0
  -23.4202  -28.8158   23.3022 O   0  0  0  0  0  0
  -28.3563  -26.4889   20.1763 O   0  0  0  0  0  0
  -26.5621  -34.8918   22.4671 O   0  0  0  0  0  0
  -23.5426  -32.1397   23.7346 O   0  0  0  0  0  0
  -30.2390  -19.5934   18.5801 C   0  0  0  0  0  0
  -30.6602  -18.3890   17.9952 C   0  0  0  0  0  0
  -29.5149  -18.3528   20.5527 C   0  0  0  0  0  0
  -29.6308  -19.6165   19.8506 C   0  0  0  0  0  0
  -29.9861  -17.1011   19.9835 C   0  0  0  0  0  0
  -30.5170  -17.1631   18.6664 C   0  0  0  0  0  0
  -27.7809  -22.8777   19.7504 C   0  0  0  0  0  0
  -28.7047  -23.8519   19.9715 C   0  0  0  0  0  0
  -29.9637  -23.3953   20.5587 C   0  0  0  0  0  0
  -27.9450  -21.4187   19.9858 C   0  0  0  0  0  0
  -30.9112  -24.2815   20.9129 C   0  0  0  0  0  0
  -30.2331  -21.8918   20.7735 C   0  0  0  0  0  0
  -28.5167  -25.2871   19.3331 C   0  0  0  0  0  0
  -29.1934  -20.9480   20.2982 N   0  0  0  0  0  0
  -29.8544  -15.7866   20.6387 N   0  0  0  0  0  0
  -26.9935  -20.6419   19.8611 O   0  0  0  0  0  0
  -30.8532  -16.0395   17.9881 F   0  0  0  0  0  0
  -31.4733  -12.4955   19.1822 H   0  0  0  0  0  0
  -30.3462  -11.4101   19.9467 H   0  0  0  0  0  0
  -29.7805  -11.7141   17.5140 H   0  0  0  0  0  0
  -29.6633  -13.4432   17.7357 H   0  0  0  0  0  0
  -27.8705  -11.2831   18.8871 H   0  0  0  0  0  0
  -27.3854  -12.5508   17.7897 H   0  0  0  0  0  0
  -27.6522  -14.2497   19.4865 H   0  0  0  0  0  0
  -28.6960  -12.1224   21.4206 H   0  0  0  0  0  0
  -28.4364  -13.8041   21.8073 H   0  0  0  0  0  0
  -25.2769   -9.5678   22.4754 H   0  0  0  0  0  0
  -23.9999   -7.4633   22.7467 H   0  0  0  0  0  0
  -21.0828   -8.8776   19.8958 H   0  0  0  0  0  0
  -22.3686  -10.9683   19.6158 H   0  0  0  0  0  0
  -21.2021   -7.6149   23.9713 H   0  0  0  0  0  0
  -21.1474   -6.0524   25.9075 H   0  0  0  0  0  0
  -22.0602   -2.7602   23.2846 H   0  0  0  0  0  0
  -22.4100  -11.9907   22.4792 H   0  0  0  0  0  0
  -21.1100  -13.1282   22.2605 H   0  0  0  0  0  0
  -24.6624  -15.8489   20.5091 H   0  0  0  0  0  0
  -26.2761  -15.6228   20.0655 H   0  0  0  0  0  0
  -26.7172  -32.5435   23.1091 H   0  0  0  0  0  0
  -25.0066  -33.9717   25.0418 H   0  0  0  0  0  0
  -22.7115  -31.3031   21.4054 H   0  0  0  0  0  0
  -23.3754  -35.9630   23.3260 H   0  0  0  0  0  0
  -24.3598  -36.8957   22.2054 H   0  0  0  0  0  0
  -23.7234  -37.6488   23.6679 H   0  0  0  0  0  0
  -26.0898  -31.5499   20.6015 H   0  0  0  0  0  0
  -26.8410  -30.8373   21.9989 H   0  0  0  0  0  0
  -28.1070  -28.9774   21.1857 H   0  0  0  0  0  0
  -25.9260  -25.8992   19.0607 H   0  0  0  0  0  0
  -23.9561  -27.2909   19.0414 H   0  0  0  0  0  0
  -23.7483  -30.5967   19.4051 H   0  0  0  0  0  0
  -22.7486  -29.2502   19.8591 H   0  0  0  0  0  0
  -25.1283  -36.1936   25.0815 H   0  0  0  0  0  0
  -20.9973  -28.3258   24.1408 H   0  0  0  0  0  0
  -20.5664  -26.2292   23.3609 H   0  0  0  0  0  0
  -21.6645  -26.7422   22.1220 H   0  0  0  0  0  0
  -19.6913  -25.6292   21.1227 H   0  0  0  0  0  0
  -19.6693  -27.3194   20.6744 H   0  0  0  0  0  0
  -17.4203  -26.6675   21.4012 H   0  0  0  0  0  0
  -18.0319  -26.0069   22.9009 H   0  0  0  0  0  0
  -19.7935  -30.7267   24.2260 H   0  0  0  0  0  0
  -17.5007  -31.6254   24.5167 H   0  0  0  0  0  0
  -15.5346  -30.2963   23.7659 H   0  0  0  0  0  0
  -15.8681  -28.0813   22.7041 H   0  0  0  0  0  0
  -24.5889  -30.7081   25.7799 H   0  0  0  0  0  0
  -24.8922  -32.2898   26.4888 H   0  0  0  0  0  0
  -25.8051  -30.8909   27.0229 H   0  0  0  0  0  0
  -26.2873  -29.6770   24.1180 H   0  0  0  0  0  0
  -27.4004  -29.7245   25.4652 H   0  0  0  0  0  0
  -27.8746  -30.4289   23.9374 H   0  0  0  0  0  0
  -27.2672  -33.3602   26.2079 H   0  0  0  0  0  0
  -28.3852  -32.6879   25.0304 H   0  0  0  0  0  0
  -28.0730  -31.8421   26.5382 H   0  0  0  0  0  0
  -28.2570  -38.0133   24.7544 H   0  0  0  0  0  0
  -28.1126  -36.2668   24.6193 H   0  0  0  0  0  0
  -27.2323  -37.1349   25.8850 H   0  0  0  0  0  0
  -20.9365  -29.8776   21.6913 H   0  0  0  0  0  0
  -26.0164  -38.2849   24.1438 H   0  0  0  0  0  0
  -30.3573  -20.5127   18.0218 H   0  0  0  0  0  0
  -31.0778  -18.4006   16.9998 H   0  0  0  0  0  0
  -29.0610  -18.3472   21.5338 H   0  0  0  0  0  0
  -26.8701  -23.1677   19.2482 H   0  0  0  0  0  0
  -30.7812  -25.3477   20.7927 H   0  0  0  0  0  0
  -31.8455  -23.9509   21.3437 H   0  0  0  0  0  0
  -30.3700  -21.7183   21.8415 H   0  0  0  0  0  0
  -31.1840  -21.6462   20.2987 H   0  0  0  0  0  0
  -27.7877  -25.2267   18.5295 H   0  0  0  0  0  0
  -29.4375  -25.4706   18.7792 H   0  0  0  0  0  0
  -28.9715  -15.6208   21.0948 H   0  0  0  0  0  0
  1 25  1  0  0  0
  1 30  2  0  0  0
  1 85  1  0  0  0
  2  3  1  0  0  0
  2 25  1  0  0  0
  2 88  1  0  0  0
  2 89  1  0  0  0
  3  4  1  0  0  0
  3 90  1  0  0  0
  3 91  1  0  0  0
  4  5  1  0  0  0
  4 92  1  0  0  0
  4 93  1  0  0  0
  5  6  1  0  0  0
  5 26  1  0  0  0
  5 94  1  0  0  0
  6 25  1  0  0  0
  6 95  1  0  0  0
  6 96  1  0  0  0
  7  8  2  0  0  0
  7 26  1  0  0  0
  7 29  1  0  0  0
  8  9  1  0  0  0
  8 22  1  0  0  0
  9 10  1  0  0  0
  9 27  2  0  0  0
 10 11  2  0  0  0
 10 15  1  0  0  0
 11 12  1  0  0  0
 11 97  1  0  0  0
 12 13  2  0  0  0
 12 98  1  0  0  0
 13 14  1  0  0  0
 13 31  1  0  0  0
 14 15  2  0  0  0
 14 99  1  0  0  0
 15100  1  0  0  0
 16 17  2  0  0  0
 16 21  1  0  0  0
 16 31  1  0  0  0
 17 18  1  0  0  0
 17101  1  0  0  0
 18 19  2  0  0  0
 18102  1  0  0  0
 19 20  1  0  0  0
 19 24  1  0  0  0
 20 21  2  0  0  0
 20103  1  0  0  0
 21 23  1  0  0  0
 22 28  1  0  0  0
 22 32  2  0  0  0
 26 27  1  0  0  0
 28104  1  0  0  0
 28105  1  0  0  0
 29106  1  0  0  0
 29107  1  0  0  0
 33 34  1  0  0  0
 33 66  1  0  0  0
 33 70  2  0  0  0
 34 36  1  0  0  0
 34 59  1  0  0  0
 34108  1  0  0  0
 35 44  2  0  0  0
 35 45  1  0  0  0
 35 68  1  0  0  0
 36 56  1  0  0  0
 36109  1  0  0  0
 37 39  1  0  0  0
 37 47  1  0  0  0
 37 66  1  0  0  0
 37110  1  0  0  0
 38 43  2  0  0  0
 38 46  1  0  0  0
 38 47  1  0  0  0
 39 64  1  0  0  0
 39 67  2  0  0  0
 40 52  1  0  0  0
 40 53  2  0  0  0
 40 58  1  0  0  0
 41111  1  0  0  0
 41112  1  0  0  0
 41113  1  0  0  0
 41 48  1  0  0  0
 42 43  1  0  0  0
 42 66  1  0  0  0
 42114  1  0  0  0
 42115  1  0  0  0
 43 44  1  0  0  0
 44116  1  0  0  0
 45 46  2  0  0  0
 45117  1  0  0  0
 46118  1  0  0  0
 47119  1  0  0  0
 47120  1  0  0  0
 48 56  1  0  0  0
 48 65  1  0  0  0
 48121  1  0  0  0
 49 50  1  0  0  0
 49 53  1  0  0  0
 49 64  1  0  0  0
 49122  1  0  0  0
 50 51  1  0  0  0
 50123  1  0  0  0
 50124  1  0  0  0
 51 52  1  0  0  0
 51125  1  0  0  0
 51126  1  0  0  0
 52127  1  0  0  0
 52128  1  0  0  0
 53 54  1  0  0  0
 54 55  2  0  0  0
 54129  1  0  0  0
 55 57  1  0  0  0
 55130  1  0  0  0
 56 69  2  0  0  0
 57 58  2  0  0  0
 57131  1  0  0  0
 58132  1  0  0  0
 59 60  1  0  0  0
 59 61  1  0  0  0
 59 62  1  0  0  0
 60133  1  0  0  0
 60134  1  0  0  0
 60135  1  0  0  0
 61136  1  0  0  0
 61137  1  0  0  0
 61138  1  0  0  0
 62139  1  0  0  0
 62140  1  0  0  0
 62141  1  0  0  0
 63 65  1  0  0  0
 63142  1  0  0  0
 63143  1  0  0  0
 63144  1  0  0  0
 64145  1  0  0  0
 65146  1  0  0  0
 68 83  1  0  0  0
 71 72  2  0  0  0
 71 74  1  0  0  0
 71147  1  0  0  0
 72 76  1  0  0  0
 72148  1  0  0  0
 73 74  2  0  0  0
 73 75  1  0  0  0
 73149  1  0  0  0
 74 84  1  0  0  0
 75 76  2  0  0  0
 75 85  1  0  0  0
 76 87  1  0  0  0
 77 78  2  0  0  0
 77 80  1  0  0  0
 77150  1  0  0  0
 78 79  1  0  0  0
 78 83  1  0  0  0
 79 81  2  0  0  0
 79 82  1  0  0  0
 80 84  1  0  0  0
 80 86  2  0  0  0
 81151  1  0  0  0
 81152  1  0  0  0
 82 84  1  0  0  0
 82153  1  0  0  0
 82154  1  0  0  0
 83155  1  0  0  0
 83156  1  0  0  0
 85157  1  0  0  0
M  ISO  4   1 100  68 101  83 101  85 100
M  END
> <chiral flag>
0

> <version>
0

> <s_m_source_file>
/data/baiqing/PycharmProjects/Reinvent-master-3.2/result/LINK_invent/BTK/process_docking_weight1_custom_product_contain_oxygen_bond_distance_aromatic_linkinvent_7_9_3/rearranged_h_0076.sdf

> <i_m_source_file_index>
18

> <r_mmod_Potential_Energy-OPLS-2005>
181.914794921875

> <r_mmod_Stretch_Energy-OPLS-2005>
90.5158615112305

> <r_mmod_Bend_Energy-OPLS-2005>
162.632629394531

> <r_mmod_Torsional_Energy-OPLS-2005>
313.580902099609

> <r_mmod_Improper_Torsional_Energy-OPLS-2005>
6.42930746078491

> <r_mmod_Van_der_Waal_Energy-OPLS-2005>
162.843460083008

> <r_mmod_Electrostatic_Energy-OPLS-2005>
-388.591094970703

> <r_mmod_Solvation_Energy-OPLS-2005>
-221.091567993164

> <b_mmod_Minimization_Converged-OPLS-2005>
0

> <r_mmod_RMS_Derivative-OPLS-2005>
1.5294576883316

$$$$
18
                    3D
 Structure written by MMmdl.
156164  0  0  1  0            999 V2000
  -30.5766  -14.7447   20.4408 C   0  0  0  0  0  0
  -30.4228  -12.4388   19.4918 C   0  0  0  0  0  0
  -29.5221  -12.5433   18.2400 C   0  0  0  0  0  0
  -28.0415  -12.3592   18.6347 C   0  0  0  0  0  0
  -27.6452  -13.2337   19.8574 C   0  0  2  0  0  0
  -28.6825  -13.1421   21.0000 C   0  0  0  0  0  0
  -25.2510  -13.8207   20.5690 C   0  0  0  0  0  0
  -24.1820  -13.0446   20.9211 C   0  0  0  0  0  0
  -24.6400  -11.6923   20.8739 C   0  0  0  0  0  0
  -23.9079  -10.4287   21.0389 C   0  0  0  0  0  0
  -24.3632   -9.4197   21.9162 C   0  0  0  0  0  0
  -23.6296   -8.2235   22.0767 C   0  0  0  0  0  0
  -22.4272   -8.0276   21.3548 C   0  0  0  0  0  0
  -21.9905   -9.0250   20.4649 C   0  0  0  0  0  0
  -22.7251  -10.2115   20.3039 C   0  0  0  0  0  0
  -21.6846   -6.0737   22.5282 C   0  0  0  0  0  0
  -21.4020   -6.5645   23.8221 C   0  0  0  0  0  0
  -21.3670   -5.6791   24.9182 C   0  0  0  0  0  0
  -21.6047   -4.3056   24.7219 C   0  0  0  0  0  0
  -21.8813   -3.8146   23.4340 C   0  0  0  0  0  0
  -21.9187   -4.6968   22.3398 C   0  0  0  0  0  0
  -22.7831  -13.5229   21.1888 C   0  0  0  0  0  0
  -22.1656   -4.2173   21.0971 F   0  0  0  0  0  0
  -21.5617   -3.4530   25.7719 F   0  0  0  0  0  0
  -29.9909  -13.4953   20.4387 N   0  0  0  0  0  0
  -26.2942  -12.9411   20.3260 N   0  0  0  0  0  0
  -25.9330  -11.6550   20.5727 N   0  0  0  0  0  0
  -22.0515  -12.8213   22.0477 N   0  0  0  0  0  0
  -25.4156  -15.1934   20.4095 N   0  0  0  0  0  0
  -31.7283  -14.8775   20.0175 O   0  0  0  0  0  0
  -21.6619   -6.8883   21.4248 O   0  0  0  0  0  0
  -22.3495  -14.5534   20.6751 O   0  0  0  0  0  0
  -24.6343  -31.8585   23.1999 C   0  0  0  0  0  0
  -25.9151  -32.4775   23.8344 C   0  0  1  0  0  0
  -27.2108  -27.2431   20.1309 C   0  0  0  0  0  0
  -25.5946  -33.8579   24.2282 N   0  0  0  0  0  0
  -23.4312  -30.4801   21.5474 C   0  0  2  0  0  0
  -24.8734  -28.9235   20.1123 C   0  0  0  0  0  0
  -22.7529  -29.4623   22.4972 C   0  0  0  0  0  0
  -18.0309  -28.1334   22.8483 C   0  0  0  0  0  0
  -24.1492  -36.7284   23.2636 C   0  0  0  0  0  0
  -25.9757  -30.7620   21.3779 C   0  0  0  0  0  0
  -26.0460  -29.3801   20.7278 C   0  0  0  0  0  0
  -27.2138  -28.5494   20.7319 C   0  0  0  0  0  0
  -26.0204  -26.8745   19.4630 C   0  0  0  0  0  0
  -24.8658  -27.6789   19.4706 C   0  0  0  0  0  0
  -23.6462  -29.8144   20.1634 C   0  0  0  0  0  0
  -25.4120  -36.3097   24.0338 C   0  0  1  0  0  0
  -20.5905  -28.3743   23.1322 C   0  0  2  0  0  0
  -20.6929  -26.9545   22.5307 C   0  0  0  0  0  0
  -19.5823  -26.6317   21.5259 C   0  0  0  0  0  0
  -18.1989  -26.7866   22.1646 C   0  0  0  0  0  0
  -19.1530  -28.8844   23.2895 C   0  0  0  0  0  0
  -18.9391  -30.1460   23.8867 C   0  0  0  0  0  0
  -17.6369  -30.6590   24.0422 C   0  0  0  0  0  0
  -25.9069  -34.9463   23.5105 C   0  0  0  0  0  0
  -16.5296  -29.9041   23.6153 C   0  0  0  0  0  0
  -16.7291  -28.6432   23.0289 C   0  0  0  0  0  0
  -26.4520  -31.6567   25.0705 C   0  0  0  0  0  0
  -25.3734  -31.3690   26.1414 C   0  0  0  0  0  0
  -27.0341  -30.3000   24.6114 C   0  0  0  0  0  0
  -27.6108  -32.4278   25.7452 C   0  0  0  0  0  0
  -27.5592  -37.1814   24.8477 C   0  0  0  0  0  0
  -21.4219  -29.3194   22.3838 N   0  0  0  0  0  0
  -26.4306  -37.3787   23.9410 N   0  0  0  0  0  0
  -24.7013  -31.0517   22.0996 N   0  0  0  0  0  0
  -23.4241  -28.8029   23.2958 O   0  0  0  0  0  0
  -28.3035  -26.3414   20.2161 O   0  0  0  0  0  0
  -26.5630  -34.8936   22.4669 O   0  0  0  0  0  0
  -23.5484  -32.1449   23.7237 O   0  0  0  0  0  0
  -29.2450  -17.1482   18.7911 C   0  0  0  0  0  0
  -28.8050  -18.3218   18.1428 C   0  0  0  0  0  0
  -29.5289  -18.4477   20.8168 C   0  0  0  0  0  0
  -29.1296  -19.6963   20.1662 C   0  0  0  0  0  0
  -29.5889  -17.1513   20.1605 C   0  0  0  0  0  0
  -28.7096  -19.5672   18.8056 C   0  0  0  0  0  0
  -29.1687  -21.0750   20.9163 C   0  0  0  0  0  0
  -27.9327  -23.7728   22.1509 C   0  0  0  0  0  0
  -28.1690  -24.8703   19.8844 C   0  0  0  0  0  0
  -28.7567  -23.7134   20.8495 C   0  0  2  0  0  0
  -28.1706  -20.6274   18.0643 N   0  0  0  0  0  0
  -29.8226  -15.8467   20.8340 N   0  0  0  0  0  0
  -28.7953  -22.2704   20.3154 N   0  0  0  0  0  0
  -29.5573  -21.0749   22.0854 O   0  0  0  0  0  0
  -31.4765  -12.5290   19.2249 H   0  0  0  0  0  0
  -30.3159  -11.4548   19.9498 H   0  0  0  0  0  0
  -29.8123  -11.7997   17.4963 H   0  0  0  0  0  0
  -29.6616  -13.5183   17.7647 H   0  0  0  0  0  0
  -27.8857  -11.3046   18.8659 H   0  0  0  0  0  0
  -27.3944  -12.5854   17.7849 H   0  0  0  0  0  0
  -27.6459  -14.2646   19.5002 H   0  0  0  0  0  0
  -28.7078  -12.1372   21.4244 H   0  0  0  0  0  0
  -28.4140  -13.8057   21.8223 H   0  0  0  0  0  0
  -25.2791   -9.5671   22.4725 H   0  0  0  0  0  0
  -24.0003   -7.4637   22.7505 H   0  0  0  0  0  0
  -21.0836   -8.8787   19.8958 H   0  0  0  0  0  0
  -22.3738  -10.9650   19.6141 H   0  0  0  0  0  0
  -21.2018   -7.6155   23.9748 H   0  0  0  0  0  0
  -21.1503   -6.0508   25.9096 H   0  0  0  0  0  0
  -22.0577   -2.7613   23.2825 H   0  0  0  0  0  0
  -22.4143  -11.9858   22.4811 H   0  0  0  0  0  0
  -21.1154  -13.1269   22.2740 H   0  0  0  0  0  0
  -24.6363  -15.8348   20.5155 H   0  0  0  0  0  0
  -26.2498  -15.6380   20.0500 H   0  0  0  0  0  0
  -26.7192  -32.5449   23.1074 H   0  0  0  0  0  0
  -25.0114  -33.9707   25.0454 H   0  0  0  0  0  0
  -22.7288  -31.3022   21.4034 H   0  0  0  0  0  0
  -23.3768  -35.9606   23.3302 H   0  0  0  0  0  0
  -24.3607  -36.8906   22.2054 H   0  0  0  0  0  0
  -23.7229  -37.6486   23.6645 H   0  0  0  0  0  0
  -26.0976  -31.5115   20.5949 H   0  0  0  0  0  0
  -26.8607  -30.8337   21.9972 H   0  0  0  0  0  0
  -28.1075  -28.8816   21.2419 H   0  0  0  0  0  0
  -25.9290  -25.9458   18.9249 H   0  0  0  0  0  0
  -23.9698  -27.3276   18.9762 H   0  0  0  0  0  0
  -23.7770  -30.5936   19.4131 H   0  0  0  0  0  0
  -22.7621  -29.2529   19.8526 H   0  0  0  0  0  0
  -25.1285  -36.1965   25.0832 H   0  0  0  0  0  0
  -20.9953  -28.3204   24.1472 H   0  0  0  0  0  0
  -20.6213  -26.2321   23.3455 H   0  0  0  0  0  0
  -21.6729  -26.7835   22.0809 H   0  0  0  0  0  0
  -19.7043  -25.6172   21.1475 H   0  0  0  0  0  0
  -19.6689  -27.2986   20.6688 H   0  0  0  0  0  0
  -17.4312  -26.6646   21.3999 H   0  0  0  0  0  0
  -18.0330  -26.0012   22.9028 H   0  0  0  0  0  0
  -19.7838  -30.7309   24.2241 H   0  0  0  0  0  0
  -17.4877  -31.6314   24.4884 H   0  0  0  0  0  0
  -15.5269  -30.2913   23.7352 H   0  0  0  0  0  0
  -15.8755  -28.0678   22.6977 H   0  0  0  0  0  0
  -24.5981  -30.6949   25.7741 H   0  0  0  0  0  0
  -24.8806  -32.2820   26.4771 H   0  0  0  0  0  0
  -25.8061  -30.8956   27.0226 H   0  0  0  0  0  0
  -26.2877  -29.6761   24.1164 H   0  0  0  0  0  0
  -27.4105  -29.7247   25.4572 H   0  0  0  0  0  0
  -27.8730  -30.4318   23.9275 H   0  0  0  0  0  0
  -27.2803  -33.3635   26.1968 H   0  0  0  0  0  0
  -28.3941  -32.6732   25.0264 H   0  0  0  0  0  0
  -28.0734  -31.8414   26.5403 H   0  0  0  0  0  0
  -28.2605  -38.0109   24.7513 H   0  0  0  0  0  0
  -28.1093  -36.2641   24.6307 H   0  0  0  0  0  0
  -27.2314  -37.1467   25.8884 H   0  0  0  0  0  0
  -20.9361  -29.9226   21.7363 H   0  0  0  0  0  0
  -26.0196  -38.2863   24.1420 H   0  0  0  0  0  0
  -29.2579  -16.2292   18.2233 H   0  0  0  0  0  0
  -28.5016  -18.2487   17.1063 H   0  0  0  0  0  0
  -29.8024  -18.4951   21.8625 H   0  0  0  0  0  0
  -28.3501  -23.1552   22.9442 H   0  0  0  0  0  0
  -26.9066  -23.4444   21.9772 H   0  0  0  0  0  0
  -27.8837  -24.7919   22.5358 H   0  0  0  0  0  0
  -28.5970  -24.7321   18.8911 H   0  0  0  0  0  0
  -27.1241  -24.5870   19.7857 H   0  0  0  0  0  0
  -29.7903  -23.9778   21.0817 H   0  0  0  0  0  0
  -28.1016  -20.4658   17.0634 H   0  0  0  0  0  0
  -27.2461  -20.9114   18.3818 H   0  0  0  0  0  0
  -29.0954  -15.5982   21.4891 H   0  0  0  0  0  0
  -28.5463  -22.1422   19.3377 H   0  0  0  0  0  0
  1 25  1  0  0  0
  1 30  2  0  0  0
  1 82  1  0  0  0
  2  3  1  0  0  0
  2 25  1  0  0  0
  2 85  1  0  0  0
  2 86  1  0  0  0
  3  4  1  0  0  0
  3 87  1  0  0  0
  3 88  1  0  0  0
  4  5  1  0  0  0
  4 89  1  0  0  0
  4 90  1  0  0  0
  5  6  1  0  0  0
  5 26  1  0  0  0
  5 91  1  0  0  0
  6 25  1  0  0  0
  6 92  1  0  0  0
  6 93  1  0  0  0
  7  8  2  0  0  0
  7 26  1  0  0  0
  7 29  1  0  0  0
  8  9  1  0  0  0
  8 22  1  0  0  0
  9 10  1  0  0  0
  9 27  2  0  0  0
 10 11  2  0  0  0
 10 15  1  0  0  0
 11 12  1  0  0  0
 11 94  1  0  0  0
 12 13  2  0  0  0
 12 95  1  0  0  0
 13 14  1  0  0  0
 13 31  1  0  0  0
 14 15  2  0  0  0
 14 96  1  0  0  0
 15 97  1  0  0  0
 16 17  2  0  0  0
 16 21  1  0  0  0
 16 31  1  0  0  0
 17 18  1  0  0  0
 17 98  1  0  0  0
 18 19  2  0  0  0
 18 99  1  0  0  0
 19 20  1  0  0  0
 19 24  1  0  0  0
 20 21  2  0  0  0
 20100  1  0  0  0
 21 23  1  0  0  0
 22 28  1  0  0  0
 22 32  2  0  0  0
 26 27  1  0  0  0
 28101  1  0  0  0
 28102  1  0  0  0
 29103  1  0  0  0
 29104  1  0  0  0
 33 34  1  0  0  0
 33 66  1  0  0  0
 33 70  2  0  0  0
 34 36  1  0  0  0
 34 59  1  0  0  0
 34105  1  0  0  0
 35 44  2  0  0  0
 35 45  1  0  0  0
 35 68  1  0  0  0
 36 56  1  0  0  0
 36106  1  0  0  0
 37 39  1  0  0  0
 37 47  1  0  0  0
 37 66  1  0  0  0
 37107  1  0  0  0
 38 43  2  0  0  0
 38 46  1  0  0  0
 38 47  1  0  0  0
 39 64  1  0  0  0
 39 67  2  0  0  0
 40 52  1  0  0  0
 40 53  2  0  0  0
 40 58  1  0  0  0
 41108  1  0  0  0
 41109  1  0  0  0
 41110  1  0  0  0
 41 48  1  0  0  0
 42 43  1  0  0  0
 42 66  1  0  0  0
 42111  1  0  0  0
 42112  1  0  0  0
 43 44  1  0  0  0
 44113  1  0  0  0
 45 46  2  0  0  0
 45114  1  0  0  0
 46115  1  0  0  0
 47116  1  0  0  0
 47117  1  0  0  0
 48 56  1  0  0  0
 48 65  1  0  0  0
 48118  1  0  0  0
 49 50  1  0  0  0
 49 53  1  0  0  0
 49 64  1  0  0  0
 49119  1  0  0  0
 50 51  1  0  0  0
 50120  1  0  0  0
 50121  1  0  0  0
 51 52  1  0  0  0
 51122  1  0  0  0
 51123  1  0  0  0
 52124  1  0  0  0
 52125  1  0  0  0
 53 54  1  0  0  0
 54 55  2  0  0  0
 54126  1  0  0  0
 55 57  1  0  0  0
 55127  1  0  0  0
 56 69  2  0  0  0
 57 58  2  0  0  0
 57128  1  0  0  0
 58129  1  0  0  0
 59 60  1  0  0  0
 59 61  1  0  0  0
 59 62  1  0  0  0
 60130  1  0  0  0
 60131  1  0  0  0
 60132  1  0  0  0
 61133  1  0  0  0
 61134  1  0  0  0
 61135  1  0  0  0
 62136  1  0  0  0
 62137  1  0  0  0
 62138  1  0  0  0
 63 65  1  0  0  0
 63139  1  0  0  0
 63140  1  0  0  0
 63141  1  0  0  0
 64142  1  0  0  0
 65143  1  0  0  0
 68 79  1  0  0  0
 71 72  2  0  0  0
 71 75  1  0  0  0
 71144  1  0  0  0
 72 76  1  0  0  0
 72145  1  0  0  0
 73 74  1  0  0  0
 73 75  2  0  0  0
 73146  1  0  0  0
 74 76  2  0  0  0
 74 77  1  0  0  0
 75 82  1  0  0  0
 76 81  1  0  0  0
 77 83  1  0  0  0
 77 84  2  0  0  0
 78147  1  0  0  0
 78148  1  0  0  0
 78149  1  0  0  0
 78 80  1  0  0  0
 79 80  1  0  0  0
 79150  1  0  0  0
 79151  1  0  0  0
 80 83  1  0  0  0
 80152  1  0  0  0
 81153  1  0  0  0
 81154  1  0  0  0
 82155  1  0  0  0
 83156  1  0  0  0
M  ISO  4   1 100  68 101  79 101  82 100
M  END
> <chiral flag>
0

> <version>
0

> <s_m_source_file>
/data/baiqing/PycharmProjects/Reinvent-master-3.2/result/LINK_invent/BTK/process_docking_weight1_custom_product_contain_oxygen_bond_distance_aromatic_linkinvent_7_9_3/rearranged_h_0076.sdf

> <i_m_source_file_index>
19

> <r_mmod_Potential_Energy-OPLS-2005>
176.743743896484

> <r_mmod_Stretch_Energy-OPLS-2005>
130.304351806641

> <r_mmod_Bend_Energy-OPLS-2005>
168.963973999023

> <r_mmod_Torsional_Energy-OPLS-2005>
269.699432373047

> <r_mmod_Improper_Torsional_Energy-OPLS-2005>
10.7479524612427

> <r_mmod_Van_der_Waal_Energy-OPLS-2005>
148.597534179688

> <r_mmod_Electrostatic_Energy-OPLS-2005>
-404.440460205078

> <r_mmod_Solvation_Energy-OPLS-2005>
-238.232833862305

> <b_mmod_Minimization_Converged-OPLS-2005>
0

> <r_mmod_RMS_Derivative-OPLS-2005>
4.44340324401855

$$$$
19
                    3D
 Structure written by MMmdl.
159168  0  0  1  0            999 V2000
  -30.7082  -14.5218   20.4863 C   0  0  0  0  0  0
  -30.4088  -12.3180   19.4447 C   0  0  0  0  0  0
  -29.4932  -12.4835   18.2150 C   0  0  0  0  0  0
  -28.0147  -12.3492   18.6264 C   0  0  0  0  0  0
  -27.6497  -13.2201   19.8592 C   0  0  2  0  0  0
  -28.6941  -13.0809   20.9898 C   0  0  0  0  0  0
  -25.2537  -13.8190   20.5689 C   0  0  0  0  0  0
  -24.1812  -13.0447   20.9194 C   0  0  0  0  0  0
  -24.6388  -11.6921   20.8751 C   0  0  0  0  0  0
  -23.9066  -10.4297   21.0410 C   0  0  0  0  0  0
  -24.3620   -9.4211   21.9185 C   0  0  0  0  0  0
  -23.6294   -8.2248   22.0756 C   0  0  0  0  0  0
  -22.4276   -8.0284   21.3545 C   0  0  0  0  0  0
  -21.9911   -9.0259   20.4650 C   0  0  0  0  0  0
  -22.7239  -10.2138   20.3058 C   0  0  0  0  0  0
  -21.6854   -6.0736   22.5280 C   0  0  0  0  0  0
  -21.4014   -6.5640   23.8213 C   0  0  0  0  0  0
  -21.3658   -5.6793   24.9174 C   0  0  0  0  0  0
  -21.6045   -4.3056   24.7225 C   0  0  0  0  0  0
  -21.8818   -3.8148   23.4346 C   0  0  0  0  0  0
  -21.9193   -4.6964   22.3402 C   0  0  0  0  0  0
  -22.7832  -13.5232   21.1854 C   0  0  0  0  0  0
  -22.1661   -4.2150   21.0980 F   0  0  0  0  0  0
  -21.5628   -3.4538   25.7738 F   0  0  0  0  0  0
  -30.0162  -13.3526   20.4163 N   0  0  0  0  0  0
  -26.2971  -12.9384   20.3321 N   0  0  0  0  0  0
  -25.9315  -11.6532   20.5768 N   0  0  0  0  0  0
  -22.0476  -12.8228   22.0414 N   0  0  0  0  0  0
  -25.4225  -15.1913   20.4098 N   0  0  0  0  0  0
  -31.9058  -14.5812   20.2023 O   0  0  0  0  0  0
  -21.6640   -6.8880   21.4241 O   0  0  0  0  0  0
  -22.3520  -14.5538   20.6701 O   0  0  0  0  0  0
  -24.6153  -31.8673   23.2083 C   0  0  0  0  0  0
  -25.9043  -32.4817   23.8388 C   0  0  1  0  0  0
  -27.2309  -27.4145   20.1189 C   0  0  0  0  0  0
  -25.5890  -33.8612   24.2321 N   0  0  0  0  0  0
  -23.4045  -30.4895   21.5482 C   0  0  2  0  0  0
  -24.8527  -28.9481   20.1193 C   0  0  0  0  0  0
  -22.7412  -29.4664   22.4986 C   0  0  0  0  0  0
  -18.0273  -28.1381   22.8492 C   0  0  0  0  0  0
  -24.1485  -36.7310   23.2642 C   0  0  0  0  0  0
  -25.9343  -30.8277   21.3639 C   0  0  0  0  0  0
  -26.0124  -29.4579   20.7185 C   0  0  0  0  0  0
  -27.2076  -28.7005   20.7132 C   0  0  0  0  0  0
  -26.0596  -26.9241   19.5104 C   0  0  0  0  0  0
  -24.8715  -27.6807   19.5102 C   0  0  0  0  0  0
  -23.6153  -29.8177   20.1645 C   0  0  0  0  0  0
  -25.4109  -36.3110   24.0341 C   0  0  1  0  0  0
  -20.5864  -28.3673   23.1308 C   0  0  2  0  0  0
  -20.6758  -26.9408   22.5413 C   0  0  0  0  0  0
  -19.5741  -26.6390   21.5204 C   0  0  0  0  0  0
  -18.1921  -26.7925   22.1619 C   0  0  0  0  0  0
  -19.1523  -28.8844   23.2896 C   0  0  0  0  0  0
  -18.9451  -30.1447   23.8911 C   0  0  0  0  0  0
  -17.6455  -30.6584   24.0566 C   0  0  0  0  0  0
  -25.9034  -34.9475   23.5136 C   0  0  0  0  0  0
  -16.5346  -29.9090   23.6328 C   0  0  0  0  0  0
  -16.7263  -28.6506   23.0351 C   0  0  0  0  0  0
  -26.4469  -31.6584   25.0713 C   0  0  0  0  0  0
  -25.3734  -31.3676   26.1463 C   0  0  0  0  0  0
  -27.0296  -30.3026   24.6078 C   0  0  0  0  0  0
  -27.6053  -32.4294   25.7469 C   0  0  0  0  0  0
  -27.5577  -37.1817   24.8474 C   0  0  0  0  0  0
  -21.4140  -29.3041   22.3719 N   0  0  0  0  0  0
  -26.4296  -37.3793   23.9404 N   0  0  0  0  0  0
  -24.6698  -31.0765   22.0986 N   0  0  0  0  0  0
  -23.4178  -28.8210   23.3037 O   0  0  0  0  0  0
  -28.3666  -26.6329   20.0663 O   0  0  0  0  0  0
  -26.5603  -34.8931   22.4703 O   0  0  0  0  0  0
  -23.5343  -32.1434   23.7468 O   0  0  0  0  0  0
  -30.2819  -19.0552   21.5221 C   0  0  0  0  0  0
  -28.7776  -18.8571   19.6540 C   0  0  0  0  0  0
  -29.8618  -20.3966   21.7068 C   0  0  0  0  0  0
  -28.3897  -20.2069   19.8347 C   0  0  0  0  0  0
  -29.7872  -18.2753   20.4544 C   0  0  0  0  0  0
  -28.9490  -21.0460   20.8311 C   0  0  0  0  0  0
  -28.6592  -24.4425   21.0542 C   0  0  0  0  0  0
  -28.3612  -23.4923   20.0069 C   0  0  0  0  0  0
  -28.6482  -25.8005   21.1341 C   0  0  0  0  0  0
  -29.0517  -23.3174   21.9999 C   0  0  0  0  0  0
  -29.0649  -26.5547   22.3855 C   0  0  0  0  0  0
  -30.6646  -16.9076   18.5053 C   0  0  0  0  0  0
  -30.5006  -16.9626   20.0442 C   0  0  2  0  0  0
  -28.6026  -22.4421   20.9074 N   0  0  0  0  0  0
  -29.9799  -15.6661   20.5549 N   0  0  0  0  0  0
  -28.1264  -23.6248   18.8240 O   0  0  0  0  0  0
  -31.4560  -12.3908   19.1463 H   0  0  0  0  0  0
  -30.2916  -11.3252   19.8821 H   0  0  0  0  0  0
  -29.7377  -11.7368   17.4582 H   0  0  0  0  0  0
  -29.6622  -13.4569   17.7516 H   0  0  0  0  0  0
  -27.8317  -11.2968   18.8481 H   0  0  0  0  0  0
  -27.3654  -12.5970   17.7858 H   0  0  0  0  0  0
  -27.6691  -14.2547   19.5169 H   0  0  0  0  0  0
  -28.6730  -12.0765   21.4147 H   0  0  0  0  0  0
  -28.4726  -13.7646   21.8107 H   0  0  0  0  0  0
  -25.2762   -9.5685   22.4761 H   0  0  0  0  0  0
  -24.0001   -7.4638   22.7474 H   0  0  0  0  0  0
  -21.0842   -8.8780   19.8956 H   0  0  0  0  0  0
  -22.3699  -10.9678   19.6170 H   0  0  0  0  0  0
  -21.2008   -7.6149   23.9718 H   0  0  0  0  0  0
  -21.1479   -6.0522   25.9078 H   0  0  0  0  0  0
  -22.0599   -2.7609   23.2847 H   0  0  0  0  0  0
  -22.4092  -11.9891   22.4802 H   0  0  0  0  0  0
  -21.1096  -13.1256   22.2621 H   0  0  0  0  0  0
  -24.6540  -15.8430   20.5235 H   0  0  0  0  0  0
  -26.2694  -15.6347   20.0785 H   0  0  0  0  0  0
  -26.7113  -32.5537   23.1150 H   0  0  0  0  0  0
  -25.0017  -33.9769   25.0451 H   0  0  0  0  0  0
  -22.6951  -31.3072   21.4056 H   0  0  0  0  0  0
  -23.3734  -35.9659   23.3340 H   0  0  0  0  0  0
  -24.3565  -36.8887   22.2048 H   0  0  0  0  0  0
  -23.7255  -37.6535   23.6630 H   0  0  0  0  0  0
  -26.0464  -31.5888   20.5903 H   0  0  0  0  0  0
  -26.8225  -30.8858   21.9818 H   0  0  0  0  0  0
  -28.1060  -29.0973   21.1647 H   0  0  0  0  0  0
  -26.0711  -25.9519   19.0376 H   0  0  0  0  0  0
  -23.9826  -27.2822   19.0406 H   0  0  0  0  0  0
  -23.7267  -30.5909   19.4034 H   0  0  0  0  0  0
  -22.7399  -29.2374   19.8675 H   0  0  0  0  0  0
  -25.1283  -36.1983   25.0833 H   0  0  0  0  0  0
  -20.9958  -28.3247   24.1426 H   0  0  0  0  0  0
  -20.5645  -26.2286   23.3604 H   0  0  0  0  0  0
  -21.6631  -26.7443   22.1212 H   0  0  0  0  0  0
  -19.6902  -25.6304   21.1226 H   0  0  0  0  0  0
  -19.6675  -27.3201   20.6734 H   0  0  0  0  0  0
  -17.4182  -26.6668   21.4028 H   0  0  0  0  0  0
  -18.0332  -26.0062   22.9013 H   0  0  0  0  0  0
  -19.7932  -30.7255   24.2283 H   0  0  0  0  0  0
  -17.5014  -31.6265   24.5164 H   0  0  0  0  0  0
  -15.5349  -30.2996   23.7643 H   0  0  0  0  0  0
  -15.8660  -28.0828   22.7064 H   0  0  0  0  0  0
  -24.5917  -30.7017   25.7787 H   0  0  0  0  0  0
  -24.8915  -32.2824   26.4931 H   0  0  0  0  0  0
  -25.8097  -30.8832   27.0210 H   0  0  0  0  0  0
  -26.2839  -29.6793   24.1136 H   0  0  0  0  0  0
  -27.4067  -29.7257   25.4531 H   0  0  0  0  0  0
  -27.8676  -30.4335   23.9224 H   0  0  0  0  0  0
  -27.2681  -33.3580   26.2084 H   0  0  0  0  0  0
  -28.3843  -32.6869   25.0278 H   0  0  0  0  0  0
  -28.0742  -31.8388   26.5351 H   0  0  0  0  0  0
  -28.2631  -38.0077   24.7478 H   0  0  0  0  0  0
  -28.1033  -36.2609   24.6354 H   0  0  0  0  0  0
  -27.2287  -37.1541   25.8878 H   0  0  0  0  0  0
  -20.9307  -29.8763   21.6939 H   0  0  0  0  0  0
  -26.0193  -38.2882   24.1373 H   0  0  0  0  0  0
  -31.0529  -18.6554   22.1659 H   0  0  0  0  0  0
  -28.3481  -18.3073   18.8289 H   0  0  0  0  0  0
  -30.3168  -20.9513   22.5145 H   0  0  0  0  0  0
  -27.6616  -20.6205   19.1515 H   0  0  0  0  0  0
  -28.4620  -23.1799   22.9073 H   0  0  0  0  0  0
  -30.1170  -23.2218   22.2142 H   0  0  0  0  0  0
  -29.7634  -25.9673   22.9827 H   0  0  0  0  0  0
  -28.1922  -26.7788   23.0002 H   0  0  0  0  0  0
  -29.5587  -27.4914   22.1295 H   0  0  0  0  0  0
  -31.0971  -17.8347   18.1272 H   0  0  0  0  0  0
  -29.7139  -16.7511   17.9963 H   0  0  0  0  0  0
  -31.3308  -16.1063   18.1867 H   0  0  0  0  0  0
  -31.5090  -17.0690   20.4515 H   0  0  0  0  0  0
  -28.9944  -15.5955   20.7552 H   0  0  0  0  0  0
  1 25  1  0  0  0
  1 30  2  0  0  0
  1 85  1  0  0  0
  2  3  1  0  0  0
  2 25  1  0  0  0
  2 87  1  0  0  0
  2 88  1  0  0  0
  3  4  1  0  0  0
  3 89  1  0  0  0
  3 90  1  0  0  0
  4  5  1  0  0  0
  4 91  1  0  0  0
  4 92  1  0  0  0
  5  6  1  0  0  0
  5 26  1  0  0  0
  5 93  1  0  0  0
  6 25  1  0  0  0
  6 94  1  0  0  0
  6 95  1  0  0  0
  7  8  2  0  0  0
  7 26  1  0  0  0
  7 29  1  0  0  0
  8  9  1  0  0  0
  8 22  1  0  0  0
  9 10  1  0  0  0
  9 27  2  0  0  0
 10 11  2  0  0  0
 10 15  1  0  0  0
 11 12  1  0  0  0
 11 96  1  0  0  0
 12 13  2  0  0  0
 12 97  1  0  0  0
 13 14  1  0  0  0
 13 31  1  0  0  0
 14 15  2  0  0  0
 14 98  1  0  0  0
 15 99  1  0  0  0
 16 17  2  0  0  0
 16 21  1  0  0  0
 16 31  1  0  0  0
 17 18  1  0  0  0
 17100  1  0  0  0
 18 19  2  0  0  0
 18101  1  0  0  0
 19 20  1  0  0  0
 19 24  1  0  0  0
 20 21  2  0  0  0
 20102  1  0  0  0
 21 23  1  0  0  0
 22 28  1  0  0  0
 22 32  2  0  0  0
 26 27  1  0  0  0
 28103  1  0  0  0
 28104  1  0  0  0
 29105  1  0  0  0
 29106  1  0  0  0
 33 34  1  0  0  0
 33 66  1  0  0  0
 33 70  2  0  0  0
 34 36  1  0  0  0
 34 59  1  0  0  0
 34107  1  0  0  0
 35 44  2  0  0  0
 35 45  1  0  0  0
 35 68  1  0  0  0
 36 56  1  0  0  0
 36108  1  0  0  0
 37 39  1  0  0  0
 37 47  1  0  0  0
 37 66  1  0  0  0
 37109  1  0  0  0
 38 43  2  0  0  0
 38 46  1  0  0  0
 38 47  1  0  0  0
 39 64  1  0  0  0
 39 67  2  0  0  0
 40 52  1  0  0  0
 40 53  2  0  0  0
 40 58  1  0  0  0
 41110  1  0  0  0
 41111  1  0  0  0
 41112  1  0  0  0
 41 48  1  0  0  0
 42 43  1  0  0  0
 42 66  1  0  0  0
 42113  1  0  0  0
 42114  1  0  0  0
 43 44  1  0  0  0
 44115  1  0  0  0
 45 46  2  0  0  0
 45116  1  0  0  0
 46117  1  0  0  0
 47118  1  0  0  0
 47119  1  0  0  0
 48 56  1  0  0  0
 48 65  1  0  0  0
 48120  1  0  0  0
 49 50  1  0  0  0
 49 53  1  0  0  0
 49 64  1  0  0  0
 49121  1  0  0  0
 50 51  1  0  0  0
 50122  1  0  0  0
 50123  1  0  0  0
 51 52  1  0  0  0
 51124  1  0  0  0
 51125  1  0  0  0
 52126  1  0  0  0
 52127  1  0  0  0
 53 54  1  0  0  0
 54 55  2  0  0  0
 54128  1  0  0  0
 55 57  1  0  0  0
 55129  1  0  0  0
 56 69  2  0  0  0
 57 58  2  0  0  0
 57130  1  0  0  0
 58131  1  0  0  0
 59 60  1  0  0  0
 59 61  1  0  0  0
 59 62  1  0  0  0
 60132  1  0  0  0
 60133  1  0  0  0
 60134  1  0  0  0
 61135  1  0  0  0
 61136  1  0  0  0
 61137  1  0  0  0
 62138  1  0  0  0
 62139  1  0  0  0
 62140  1  0  0  0
 63 65  1  0  0  0
 63141  1  0  0  0
 63142  1  0  0  0
 63143  1  0  0  0
 64144  1  0  0  0
 65145  1  0  0  0
 68 79  1  0  0  0
 71 73  2  0  0  0
 71 75  1  0  0  0
 71146  1  0  0  0
 72 74  1  0  0  0
 72 75  2  0  0  0
 72147  1  0  0  0
 73 76  1  0  0  0
 73148  1  0  0  0
 74 76  2  0  0  0
 74149  1  0  0  0
 75 83  1  0  0  0
 76 84  1  0  0  0
 77 78  1  0  0  0
 77 79  2  0  0  0
 77 80  1  0  0  0
 78 84  1  0  0  0
 78 86  2  0  0  0
 79 81  1  0  0  0
 80 84  1  0  0  0
 80150  1  0  0  0
 80151  1  0  0  0
 81152  1  0  0  0
 81153  1  0  0  0
 81154  1  0  0  0
 82155  1  0  0  0
 82156  1  0  0  0
 82157  1  0  0  0
 82 83  1  0  0  0
 83 85  1  0  0  0
 83158  1  0  0  0
 85159  1  0  0  0
M  ISO  4   1 100  68 101  79 101  85 100
M  END
> <chiral flag>
0

> <version>
0

> <s_m_source_file>
/data/baiqing/PycharmProjects/Reinvent-master-3.2/result/LINK_invent/BTK/process_docking_weight1_custom_product_contain_oxygen_bond_distance_aromatic_linkinvent_7_9_3/rearranged_h_0076.sdf

> <i_m_source_file_index>
20

> <r_mmod_Potential_Energy-OPLS-2005>
53.2012100219727

> <r_mmod_Stretch_Energy-OPLS-2005>
43.9148254394531

> <r_mmod_Bend_Energy-OPLS-2005>
174.063491821289

> <r_mmod_Torsional_Energy-OPLS-2005>
258.593078613281

> <r_mmod_Improper_Torsional_Energy-OPLS-2005>
13.0017118453979

> <r_mmod_Van_der_Waal_Energy-OPLS-2005>
141.172439575195

> <r_mmod_Electrostatic_Energy-OPLS-2005>
-387.556365966797

> <r_mmod_Solvation_Energy-OPLS-2005>
-214.970993041992

> <b_mmod_Minimization_Converged-OPLS-2005>
0

> <r_mmod_RMS_Derivative-OPLS-2005>
1.20834958553314

$$$$
20
                    3D
 Structure written by MMmdl.
165174  0  0  1  0            999 V2000
  -30.6409  -14.6861   20.5031 C   0  0  0  0  0  0
  -30.4236  -12.4310   19.4743 C   0  0  0  0  0  0
  -29.5160  -12.4554   18.2249 C   0  0  0  0  0  0
  -28.0274  -12.3214   18.6170 C   0  0  0  0  0  0
  -27.6328  -13.2132   19.8251 C   0  0  2  0  0  0
  -28.6631  -13.1571   20.9645 C   0  0  0  0  0  0
  -25.2588  -13.8232   20.5723 C   0  0  0  0  0  0
  -24.1811  -13.0512   20.9161 C   0  0  0  0  0  0
  -24.6318  -11.6940   20.8619 C   0  0  0  0  0  0
  -23.9026  -10.4337   21.0313 C   0  0  0  0  0  0
  -24.3637   -9.4286   21.9112 C   0  0  0  0  0  0
  -23.6303   -8.2341   22.0773 C   0  0  0  0  0  0
  -22.4287   -8.0351   21.3561 C   0  0  0  0  0  0
  -21.9850   -9.0314   20.4682 C   0  0  0  0  0  0
  -22.7173  -10.2175   20.3025 C   0  0  0  0  0  0
  -21.6872   -6.0831   22.5302 C   0  0  0  0  0  0
  -21.4037   -6.5694   23.8256 C   0  0  0  0  0  0
  -21.3619   -5.6810   24.9180 C   0  0  0  0  0  0
  -21.6016   -4.3079   24.7221 C   0  0  0  0  0  0
  -21.8799   -3.8209   23.4323 C   0  0  0  0  0  0
  -21.9198   -4.7054   22.3395 C   0  0  0  0  0  0
  -22.7840  -13.5310   21.1755 C   0  0  0  0  0  0
  -22.1665   -4.2234   21.0972 F   0  0  0  0  0  0
  -21.5569   -3.4543   25.7708 F   0  0  0  0  0  0
  -29.9644  -13.4980   20.3864 N   0  0  0  0  0  0
  -26.2850  -12.9323   20.3042 N   0  0  0  0  0  0
  -25.9177  -11.6482   20.5468 N   0  0  0  0  0  0
  -22.0351  -12.8367   22.0258 N   0  0  0  0  0  0
  -25.4568  -15.1959   20.4433 N   0  0  0  0  0  0
  -31.8627  -14.7092   20.3330 O   0  0  0  0  0  0
  -21.6646   -6.8947   21.4262 O   0  0  0  0  0  0
  -22.3537  -14.5601   20.6509 O   0  0  0  0  0  0
  -24.6173  -31.8661   23.2080 C   0  0  0  0  0  0
  -25.9055  -32.4823   23.8372 C   0  0  1  0  0  0
  -27.2382  -27.3664   20.1586 C   0  0  0  0  0  0
  -25.5846  -33.8613   24.2279 N   0  0  0  0  0  0
  -23.4109  -30.4901   21.5487 C   0  0  2  0  0  0
  -24.8647  -28.9471   20.1184 C   0  0  0  0  0  0
  -22.7434  -29.4686   22.5003 C   0  0  0  0  0  0
  -18.0302  -28.1395   22.8578 C   0  0  0  0  0  0
  -24.1454  -36.7341   23.2649 C   0  0  0  0  0  0
  -25.9489  -30.8192   21.3780 C   0  0  0  0  0  0
  -26.0299  -29.4540   20.7150 C   0  0  0  0  0  0
  -27.2194  -28.6763   20.7172 C   0  0  0  0  0  0
  -26.0569  -26.9007   19.5355 C   0  0  0  0  0  0
  -24.8779  -27.6745   19.5238 C   0  0  0  0  0  0
  -23.6242  -29.8209   20.1645 C   0  0  0  0  0  0
  -25.4088  -36.3125   24.0330 C   0  0  1  0  0  0
  -20.5893  -28.3702   23.1344 C   0  0  2  0  0  0
  -20.6786  -26.9428   22.5445 C   0  0  0  0  0  0
  -19.5738  -26.6409   21.5258 C   0  0  0  0  0  0
  -18.1918  -26.7957   22.1674 C   0  0  0  0  0  0
  -19.1550  -28.8864   23.2961 C   0  0  0  0  0  0
  -18.9469  -30.1488   23.8948 C   0  0  0  0  0  0
  -17.6460  -30.6590   24.0622 C   0  0  0  0  0  0
  -25.9050  -34.9490   23.5125 C   0  0  0  0  0  0
  -16.5363  -29.9110   23.6349 C   0  0  0  0  0  0
  -16.7292  -28.6526   23.0390 C   0  0  0  0  0  0
  -26.4432  -31.6680   25.0787 C   0  0  0  0  0  0
  -25.3661  -31.3890   26.1548 C   0  0  0  0  0  0
  -27.0296  -30.3067   24.6367 C   0  0  0  0  0  0
  -27.5989  -32.4476   25.7522 C   0  0  0  0  0  0
  -27.5568  -37.1815   24.8453 C   0  0  0  0  0  0
  -21.4146  -29.3057   22.3703 N   0  0  0  0  0  0
  -26.4272  -37.3823   23.9414 N   0  0  0  0  0  0
  -24.6763  -31.0727   22.1014 N   0  0  0  0  0  0
  -23.4183  -28.8253   23.3112 O   0  0  0  0  0  0
  -28.3784  -26.5610   20.2373 O   0  0  0  0  0  0
  -26.5650  -34.8952   22.4715 O   0  0  0  0  0  0
  -23.5334  -32.1418   23.7409 O   0  0  0  0  0  0
  -28.7549  -17.6291   23.4081 C   0  0  0  0  0  0
  -28.8533  -18.9970   23.0758 C   0  0  0  0  0  0
  -29.1082  -16.6139   22.4818 C   0  0  0  0  0  0
  -29.5861  -18.3352   20.8485 C   0  0  0  0  0  0
  -29.2716  -19.3779   21.7843 C   0  0  0  0  0  0
  -29.5606  -16.9214   21.1750 C   0  0  0  0  0  0
  -29.7878  -23.0392   21.0652 C   0  0  0  0  0  0
  -31.1207  -22.4976   21.1992 C   0  0  0  0  0  0
  -28.8786  -21.8971   21.3292 C   0  0  0  0  0  0
  -32.2672  -23.0771   20.7952 C   0  0  0  0  0  0
  -29.5091  -24.3430   20.7147 C   0  0  0  0  0  0
  -28.9268  -16.4895   17.9895 C   0  0  0  0  0  0
  -31.0561  -21.0864   21.6870 C   0  0  0  0  0  0
  -29.0520  -16.5737   16.4712 C   0  0  0  0  0  0
  -28.1957  -25.1130   20.4366 C   0  0  0  0  0  0
  -30.2075  -16.2904   18.8150 C   0  0  0  0  0  0
  -29.6412  -20.7666   21.5455 N   0  0  0  0  0  0
  -29.9352  -15.8497   20.2116 N   0  0  0  0  0  0
  -27.6448  -21.9347   21.3546 O   0  0  0  0  0  0
  -27.8174  -16.5793   18.5201 O   0  0  0  0  0  0
  -31.4615  -12.5749   19.1700 H   0  0  0  0  0  0
  -30.3838  -11.4635   19.9777 H   0  0  0  0  0  0
  -29.8002  -11.6315   17.5657 H   0  0  0  0  0  0
  -29.6743  -13.3675   17.6508 H   0  0  0  0  0  0
  -27.8535  -11.2740   18.8544 H   0  0  0  0  0  0
  -27.3921  -12.5402   17.7568 H   0  0  0  0  0  0
  -27.6295  -14.2322   19.4513 H   0  0  0  0  0  0
  -28.6887  -12.1665   21.4172 H   0  0  0  0  0  0
  -28.3854  -13.8488   21.7588 H   0  0  0  0  0  0
  -25.2797   -9.5795   22.4624 H   0  0  0  0  0  0
  -24.0033   -7.4789   22.7502 H   0  0  0  0  0  0
  -21.0760   -8.8890   19.9027 H   0  0  0  0  0  0
  -22.3633  -10.9765   19.6160 H   0  0  0  0  0  0
  -21.2064   -7.6197   23.9796 H   0  0  0  0  0  0
  -21.1398   -6.0513   25.9085 H   0  0  0  0  0  0
  -22.0581   -2.7689   23.2784 H   0  0  0  0  0  0
  -22.3900  -12.0067   22.4770 H   0  0  0  0  0  0
  -21.0989  -13.1506   22.2377 H   0  0  0  0  0  0
  -24.7744  -15.8841   20.7468 H   0  0  0  0  0  0
  -26.3079  -15.6169   20.0800 H   0  0  0  0  0  0
  -26.7186  -32.5523   23.1166 H   0  0  0  0  0  0
  -24.9803  -33.9804   25.0279 H   0  0  0  0  0  0
  -22.7002  -31.3063   21.4044 H   0  0  0  0  0  0
  -23.3694  -35.9697   23.3325 H   0  0  0  0  0  0
  -24.3528  -36.8972   22.2065 H   0  0  0  0  0  0
  -23.7244  -37.6548   23.6693 H   0  0  0  0  0  0
  -26.0888  -31.5984   20.6268 H   0  0  0  0  0  0
  -26.8162  -30.8484   22.0243 H   0  0  0  0  0  0
  -28.1112  -29.0680   21.1866 H   0  0  0  0  0  0
  -26.0310  -25.9247   19.0734 H   0  0  0  0  0  0
  -23.9832  -27.2793   19.0626 H   0  0  0  0  0  0
  -23.7287  -30.5947   19.4033 H   0  0  0  0  0  0
  -22.7416  -29.2486   19.8716 H   0  0  0  0  0  0
  -25.1252  -36.1948   25.0819 H   0  0  0  0  0  0
  -21.0058  -28.3275   24.1444 H   0  0  0  0  0  0
  -20.5719  -26.2290   23.3636 H   0  0  0  0  0  0
  -21.6638  -26.7487   22.1184 H   0  0  0  0  0  0
  -19.6870  -25.6323   21.1266 H   0  0  0  0  0  0
  -19.6615  -27.3239   20.6794 H   0  0  0  0  0  0
  -17.4183  -26.6817   21.4070 H   0  0  0  0  0  0
  -18.0256  -26.0049   22.9003 H   0  0  0  0  0  0
  -19.7938  -30.7341   24.2272 H   0  0  0  0  0  0
  -17.5008  -31.6271   24.5214 H   0  0  0  0  0  0
  -15.5358  -30.3015   23.7639 H   0  0  0  0  0  0
  -15.8713  -28.0855   22.7071 H   0  0  0  0  0  0
  -24.5717  -30.7381   25.7890 H   0  0  0  0  0  0
  -24.8970  -32.3101   26.5036 H   0  0  0  0  0  0
  -25.7936  -30.8986   27.0305 H   0  0  0  0  0  0
  -26.2950  -29.6820   24.1280 H   0  0  0  0  0  0
  -27.3779  -29.7366   25.4992 H   0  0  0  0  0  0
  -27.8899  -30.4289   23.9783 H   0  0  0  0  0  0
  -27.2556  -33.3749   26.2124 H   0  0  0  0  0  0
  -28.3738  -32.7127   25.0324 H   0  0  0  0  0  0
  -28.0749  -31.8636   26.5409 H   0  0  0  0  0  0
  -28.2600  -38.0090   24.7482 H   0  0  0  0  0  0
  -28.1047  -36.2635   24.6258 H   0  0  0  0  0  0
  -27.2327  -37.1480   25.8868 H   0  0  0  0  0  0
  -20.9281  -29.8699   21.6842 H   0  0  0  0  0  0
  -26.0139  -38.2904   24.1363 H   0  0  0  0  0  0
  -28.4542  -17.3581   24.4099 H   0  0  0  0  0  0
  -28.6669  -19.7395   23.8408 H   0  0  0  0  0  0
  -29.0350  -15.5929   22.8194 H   0  0  0  0  0  0
  -29.8841  -18.6669   19.8683 H   0  0  0  0  0  0
  -32.3084  -24.0589   20.3513 H   0  0  0  0  0  0
  -33.1940  -22.5298   20.8782 H   0  0  0  0  0  0
  -30.3586  -24.9854   20.5467 H   0  0  0  0  0  0
  -31.3566  -21.0131   22.7375 H   0  0  0  0  0  0
  -31.6786  -20.4212   21.0877 H   0  0  0  0  0  0
  -30.0167  -16.2161   16.1066 H   0  0  0  0  0  0
  -28.9114  -17.5991   16.1339 H   0  0  0  0  0  0
  -28.2653  -15.9709   16.0167 H   0  0  0  0  0  0
  -27.4947  -24.9309   21.2518 H   0  0  0  0  0  0
  -27.7782  -24.6784   19.5312 H   0  0  0  0  0  0
  -30.8221  -17.1868   18.8179 H   0  0  0  0  0  0
  -30.8169  -15.5852   18.2457 H   0  0  0  0  0  0
  1 25  1  0  0  0
  1 30  2  0  0  0
  1 88  1  0  0  0
  2  3  1  0  0  0
  2 25  1  0  0  0
  2 91  1  0  0  0
  2 92  1  0  0  0
  3  4  1  0  0  0
  3 93  1  0  0  0
  3 94  1  0  0  0
  4  5  1  0  0  0
  4 95  1  0  0  0
  4 96  1  0  0  0
  5  6  1  0  0  0
  5 26  1  0  0  0
  5 97  1  0  0  0
  6 25  1  0  0  0
  6 98  1  0  0  0
  6 99  1  0  0  0
  7  8  2  0  0  0
  7 26  1  0  0  0
  7 29  1  0  0  0
  8  9  1  0  0  0
  8 22  1  0  0  0
  9 10  1  0  0  0
  9 27  2  0  0  0
 10 11  2  0  0  0
 10 15  1  0  0  0
 11 12  1  0  0  0
 11100  1  0  0  0
 12 13  2  0  0  0
 12101  1  0  0  0
 13 14  1  0  0  0
 13 31  1  0  0  0
 14 15  2  0  0  0
 14102  1  0  0  0
 15103  1  0  0  0
 16 17  2  0  0  0
 16 21  1  0  0  0
 16 31  1  0  0  0
 17 18  1  0  0  0
 17104  1  0  0  0
 18 19  2  0  0  0
 18105  1  0  0  0
 19 20  1  0  0  0
 19 24  1  0  0  0
 20 21  2  0  0  0
 20106  1  0  0  0
 21 23  1  0  0  0
 22 28  1  0  0  0
 22 32  2  0  0  0
 26 27  1  0  0  0
 28107  1  0  0  0
 28108  1  0  0  0
 29109  1  0  0  0
 29110  1  0  0  0
 33 34  1  0  0  0
 33 66  1  0  0  0
 33 70  2  0  0  0
 34 36  1  0  0  0
 34 59  1  0  0  0
 34111  1  0  0  0
 35 44  2  0  0  0
 35 45  1  0  0  0
 35 68  1  0  0  0
 36 56  1  0  0  0
 36112  1  0  0  0
 37 39  1  0  0  0
 37 47  1  0  0  0
 37 66  1  0  0  0
 37113  1  0  0  0
 38 43  2  0  0  0
 38 46  1  0  0  0
 38 47  1  0  0  0
 39 64  1  0  0  0
 39 67  2  0  0  0
 40 52  1  0  0  0
 40 53  2  0  0  0
 40 58  1  0  0  0
 41114  1  0  0  0
 41115  1  0  0  0
 41116  1  0  0  0
 41 48  1  0  0  0
 42 43  1  0  0  0
 42 66  1  0  0  0
 42117  1  0  0  0
 42118  1  0  0  0
 43 44  1  0  0  0
 44119  1  0  0  0
 45 46  2  0  0  0
 45120  1  0  0  0
 46121  1  0  0  0
 47122  1  0  0  0
 47123  1  0  0  0
 48 56  1  0  0  0
 48 65  1  0  0  0
 48124  1  0  0  0
 49 50  1  0  0  0
 49 53  1  0  0  0
 49 64  1  0  0  0
 49125  1  0  0  0
 50 51  1  0  0  0
 50126  1  0  0  0
 50127  1  0  0  0
 51 52  1  0  0  0
 51128  1  0  0  0
 51129  1  0  0  0
 52130  1  0  0  0
 52131  1  0  0  0
 53 54  1  0  0  0
 54 55  2  0  0  0
 54132  1  0  0  0
 55 57  1  0  0  0
 55133  1  0  0  0
 56 69  2  0  0  0
 57 58  2  0  0  0
 57134  1  0  0  0
 58135  1  0  0  0
 59 60  1  0  0  0
 59 61  1  0  0  0
 59 62  1  0  0  0
 60136  1  0  0  0
 60137  1  0  0  0
 60138  1  0  0  0
 61139  1  0  0  0
 61140  1  0  0  0
 61141  1  0  0  0
 62142  1  0  0  0
 62143  1  0  0  0
 62144  1  0  0  0
 63 65  1  0  0  0
 63145  1  0  0  0
 63146  1  0  0  0
 63147  1  0  0  0
 64148  1  0  0  0
 65149  1  0  0  0
 68 85  1  0  0  0
 71 72  2  0  0  0
 71 73  1  0  0  0
 71150  1  0  0  0
 72 75  1  0  0  0
 72151  1  0  0  0
 73 76  2  0  0  0
 73152  1  0  0  0
 74 75  2  0  0  0
 74 76  1  0  0  0
 74153  1  0  0  0
 75 87  1  0  0  0
 76 88  1  0  0  0
 77 78  1  0  0  0
 77 79  1  0  0  0
 77 81  2  0  0  0
 78 80  2  0  0  0
 78 83  1  0  0  0
 79 87  1  0  0  0
 79 89  2  0  0  0
 80154  1  0  0  0
 80155  1  0  0  0
 81 85  1  0  0  0
 81156  1  0  0  0
 82 84  1  0  0  0
 82 86  1  0  0  0
 82 90  2  0  0  0
 83 87  1  0  0  0
 83157  1  0  0  0
 83158  1  0  0  0
 84159  1  0  0  0
 84160  1  0  0  0
 84161  1  0  0  0
 85162  1  0  0  0
 85163  1  0  0  0
 86 88  1  0  0  0
 86164  1  0  0  0
 86165  1  0  0  0
M  ISO  4   1 100  68 101  85 101  88 100
M  END
> <chiral flag>
0

> <version>
0

> <s_m_source_file>
/data/baiqing/PycharmProjects/Reinvent-master-3.2/result/LINK_invent/BTK/process_docking_weight1_custom_product_contain_oxygen_bond_distance_aromatic_linkinvent_7_9_3/rearranged_h_0076.sdf

> <i_m_source_file_index>
21

> <r_mmod_Potential_Energy-OPLS-2005>
313.565734863281

> <r_mmod_Stretch_Energy-OPLS-2005>
86.9838943481445

> <r_mmod_Bend_Energy-OPLS-2005>
201.71125793457

> <r_mmod_Torsional_Energy-OPLS-2005>
378.884399414062

> <r_mmod_Improper_Torsional_Energy-OPLS-2005>
24.7200565338135

> <r_mmod_Van_der_Waal_Energy-OPLS-2005>
136.839172363281

> <r_mmod_Electrostatic_Energy-OPLS-2005>
-371.287078857422

> <r_mmod_Solvation_Energy-OPLS-2005>
-207.441436767578

> <b_mmod_Minimization_Converged-OPLS-2005>
0

> <r_mmod_RMS_Derivative-OPLS-2005>
9.11697101593018

$$$$
21
                    3D
 Structure written by MMmdl.
159168  0  0  1  0            999 V2000
  -30.5725  -14.7837   20.4644 C   0  0  0  0  0  0
  -30.4513  -12.4800   19.4745 C   0  0  0  0  0  0
  -29.5208  -12.5127   18.2400 C   0  0  0  0  0  0
  -28.0456  -12.3316   18.6522 C   0  0  0  0  0  0
  -27.6431  -13.2306   19.8521 C   0  0  2  0  0  0
  -28.6917  -13.1551   20.9851 C   0  0  0  0  0  0
  -25.2430  -13.8080   20.5625 C   0  0  0  0  0  0
  -24.1754  -13.0336   20.9184 C   0  0  0  0  0  0
  -24.6398  -11.6844   20.8739 C   0  0  0  0  0  0
  -23.9076  -10.4236   21.0400 C   0  0  0  0  0  0
  -24.3616   -9.4159   21.9188 C   0  0  0  0  0  0
  -23.6277   -8.2208   22.0761 C   0  0  0  0  0  0
  -22.4257   -8.0259   21.3555 C   0  0  0  0  0  0
  -21.9897   -9.0236   20.4655 C   0  0  0  0  0  0
  -22.7247  -10.2100   20.3049 C   0  0  0  0  0  0
  -21.6849   -6.0718   22.5277 C   0  0  0  0  0  0
  -21.4008   -6.5621   23.8208 C   0  0  0  0  0  0
  -21.3661   -5.6782   24.9176 C   0  0  0  0  0  0
  -21.6047   -4.3045   24.7228 C   0  0  0  0  0  0
  -21.8821   -3.8136   23.4346 C   0  0  0  0  0  0
  -21.9188   -4.6948   22.3400 C   0  0  0  0  0  0
  -22.7777  -13.5140   21.1856 C   0  0  0  0  0  0
  -22.1660   -4.2135   21.0978 F   0  0  0  0  0  0
  -21.5630   -3.4531   25.7745 F   0  0  0  0  0  0
  -29.9919  -13.5327   20.4084 N   0  0  0  0  0  0
  -26.2939  -12.9359   20.3284 N   0  0  0  0  0  0
  -25.9344  -11.6492   20.5763 N   0  0  0  0  0  0
  -22.0433  -12.8163   22.0441 N   0  0  0  0  0  0
  -25.3822  -15.1773   20.3960 N   0  0  0  0  0  0
  -31.7609  -14.9278   20.1618 O   0  0  0  0  0  0
  -21.6628   -6.8858   21.4242 O   0  0  0  0  0  0
  -22.3457  -14.5457   20.6713 O   0  0  0  0  0  0
  -24.6315  -31.8550   23.1982 C   0  0  0  0  0  0
  -25.9131  -32.4761   23.8342 C   0  0  1  0  0  0
  -27.2303  -27.2669   20.1312 C   0  0  0  0  0  0
  -25.5919  -33.8565   24.2256 N   0  0  0  0  0  0
  -23.4314  -30.4759   21.5404 C   0  0  2  0  0  0
  -24.8844  -28.9206   20.1145 C   0  0  0  0  0  0
  -22.7515  -29.4595   22.4902 C   0  0  0  0  0  0
  -18.0293  -28.1396   22.8492 C   0  0  0  0  0  0
  -24.1481  -36.7285   23.2631 C   0  0  0  0  0  0
  -25.9777  -30.7668   21.3829 C   0  0  0  0  0  0
  -26.0548  -29.3868   20.7308 C   0  0  0  0  0  0
  -27.2331  -28.5694   20.7370 C   0  0  0  0  0  0
  -26.0419  -26.8656   19.4920 C   0  0  0  0  0  0
  -24.8818  -27.6651   19.4859 C   0  0  0  0  0  0
  -23.6539  -29.8073   20.1579 C   0  0  0  0  0  0
  -25.4101  -36.3076   24.0327 C   0  0  1  0  0  0
  -20.5902  -28.3706   23.1266 C   0  0  2  0  0  0
  -20.6779  -26.9421   22.5406 C   0  0  0  0  0  0
  -19.5745  -26.6392   21.5216 C   0  0  0  0  0  0
  -18.1931  -26.7936   22.1637 C   0  0  0  0  0  0
  -19.1549  -28.8866   23.2875 C   0  0  0  0  0  0
  -18.9470  -30.1465   23.8894 C   0  0  0  0  0  0
  -17.6470  -30.6598   24.0564 C   0  0  0  0  0  0
  -25.9057  -34.9448   23.5100 C   0  0  0  0  0  0
  -16.5361  -29.9092   23.6334 C   0  0  0  0  0  0
  -16.7281  -28.6510   23.0357 C   0  0  0  0  0  0
  -26.4488  -31.6600   25.0747 C   0  0  0  0  0  0
  -25.3705  -31.3777   26.1471 C   0  0  0  0  0  0
  -27.0324  -30.3005   24.6261 C   0  0  0  0  0  0
  -27.6060  -32.4330   25.7504 C   0  0  0  0  0  0
  -27.5598  -37.1754   24.8431 C   0  0  0  0  0  0
  -21.4220  -29.3051   22.3650 N   0  0  0  0  0  0
  -26.4261  -37.3793   23.9454 N   0  0  0  0  0  0
  -24.6990  -31.0506   22.0966 N   0  0  0  0  0  0
  -23.4206  -28.8135   23.3006 O   0  0  0  0  0  0
  -28.2819  -26.3241   20.1127 O   0  0  0  0  0  0
  -26.5644  -34.8930   22.4678 O   0  0  0  0  0  0
  -23.5460  -32.1366   23.7263 O   0  0  0  0  0  0
  -28.4005  -19.4759   20.6059 C   0  0  0  0  0  0
  -30.8979  -18.2087   20.6843 C   0  0  0  0  0  0
  -29.5196  -20.3365   20.7591 C   0  0  0  0  0  0
  -28.5202  -18.0481   20.5641 C   0  0  0  0  0  0
  -29.7623  -17.3463   20.6155 C   0  0  0  0  0  0
  -30.7770  -19.6468   20.7756 C   0  0  0  0  0  0
  -28.8319  -24.1946   21.5545 C   0  0  0  0  0  0
  -29.0012  -23.9573   22.9927 C   0  0  0  0  0  0
  -29.0513  -22.9497   20.6765 C   0  0  0  0  0  0
  -29.5572  -24.8574   23.8325 C   0  0  0  0  0  0
  -28.4702  -25.5202   21.2530 C   0  0  0  0  0  0
  -28.6356  -22.6100   23.5269 C   0  0  0  0  0  0
  -29.5177  -21.6342   22.7758 C   0  0  0  0  0  0
  -29.3496  -21.7136   21.3131 N   0  0  0  0  0  0
  -27.3472  -17.3034   20.5494 N   0  0  0  0  0  0
  -29.7101  -15.8541   20.6583 N   0  0  0  0  0  0
  -28.9545  -22.9949   19.4458 O   0  0  0  0  0  0
  -31.9042  -20.3728   20.9666 F   0  0  0  0  0  0
  -31.4886  -12.6319   19.1698 H   0  0  0  0  0  0
  -30.4191  -11.5029   19.9583 H   0  0  0  0  0  0
  -29.8099  -11.7367   17.5302 H   0  0  0  0  0  0
  -29.6394  -13.4633   17.7181 H   0  0  0  0  0  0
  -27.9085  -11.2826   18.9187 H   0  0  0  0  0  0
  -27.3888  -12.5176   17.8014 H   0  0  0  0  0  0
  -27.6327  -14.2535   19.4739 H   0  0  0  0  0  0
  -28.7370  -12.1488   21.4048 H   0  0  0  0  0  0
  -28.4183  -13.8143   21.8106 H   0  0  0  0  0  0
  -25.2766   -9.5637   22.4762 H   0  0  0  0  0  0
  -23.9994   -7.4596   22.7478 H   0  0  0  0  0  0
  -21.0832   -8.8762   19.8959 H   0  0  0  0  0  0
  -22.3723  -10.9638   19.6152 H   0  0  0  0  0  0
  -21.1994   -7.6127   23.9709 H   0  0  0  0  0  0
  -21.1486   -6.0512   25.9085 H   0  0  0  0  0  0
  -22.0598   -2.7598   23.2856 H   0  0  0  0  0  0
  -22.4039  -11.9849   22.4879 H   0  0  0  0  0  0
  -21.1060  -13.1209   22.2652 H   0  0  0  0  0  0
  -24.5873  -15.7971   20.5013 H   0  0  0  0  0  0
  -26.2229  -15.6769   20.1098 H   0  0  0  0  0  0
  -26.7208  -32.5411   23.1096 H   0  0  0  0  0  0
  -25.0028  -33.9699   25.0375 H   0  0  0  0  0  0
  -22.7289  -31.2987   21.3918 H   0  0  0  0  0  0
  -23.3774  -35.9578   23.3222 H   0  0  0  0  0  0
  -24.3609  -36.8986   22.2068 H   0  0  0  0  0  0
  -23.7186  -37.6445   23.6698 H   0  0  0  0  0  0
  -26.1198  -31.5258   20.6126 H   0  0  0  0  0  0
  -26.8529  -30.8171   22.0188 H   0  0  0  0  0  0
  -28.1304  -28.9198   21.2279 H   0  0  0  0  0  0
  -26.0082  -25.8950   19.0165 H   0  0  0  0  0  0
  -23.9867  -27.3001   19.0010 H   0  0  0  0  0  0
  -23.7838  -30.5823   19.4018 H   0  0  0  0  0  0
  -22.7723  -29.2419   19.8497 H   0  0  0  0  0  0
  -25.1265  -36.1908   25.0811 H   0  0  0  0  0  0
  -20.9998  -28.3287   24.1386 H   0  0  0  0  0  0
  -20.5681  -26.2319   23.3615 H   0  0  0  0  0  0
  -21.6648  -26.7445   22.1200 H   0  0  0  0  0  0
  -19.6906  -25.6300   21.1252 H   0  0  0  0  0  0
  -19.6674  -27.3198   20.6739 H   0  0  0  0  0  0
  -17.4195  -26.6681   21.4047 H   0  0  0  0  0  0
  -18.0339  -26.0085   22.9042 H   0  0  0  0  0  0
  -19.7940  -30.7275   24.2280 H   0  0  0  0  0  0
  -17.5022  -31.6277   24.5160 H   0  0  0  0  0  0
  -15.5360  -30.2993   23.7650 H   0  0  0  0  0  0
  -15.8685  -28.0817   22.7088 H   0  0  0  0  0  0
  -24.5809  -30.7219   25.7785 H   0  0  0  0  0  0
  -24.8981  -32.2967   26.4947 H   0  0  0  0  0  0
  -25.7995  -30.8882   27.0222 H   0  0  0  0  0  0
  -26.2915  -29.6768   24.1244 H   0  0  0  0  0  0
  -27.3940  -29.7271   25.4810 H   0  0  0  0  0  0
  -27.8825  -30.4276   23.9557 H   0  0  0  0  0  0
  -27.2687  -33.3627   26.2094 H   0  0  0  0  0  0
  -28.3845  -32.6894   25.0309 H   0  0  0  0  0  0
  -28.0744  -31.8446   26.5404 H   0  0  0  0  0  0
  -28.2493  -38.0173   24.7687 H   0  0  0  0  0  0
  -28.1216  -36.2733   24.5970 H   0  0  0  0  0  0
  -27.2369  -37.1059   25.8832 H   0  0  0  0  0  0
  -20.9418  -29.8780   21.6852 H   0  0  0  0  0  0
  -26.0133  -38.2833   24.1589 H   0  0  0  0  0  0
  -27.4144  -19.9178   20.6462 H   0  0  0  0  0  0
  -31.8842  -17.7718   20.7393 H   0  0  0  0  0  0
  -29.9050  -25.8269   23.5068 H   0  0  0  0  0  0
  -29.6957  -24.6288   24.8799 H   0  0  0  0  0  0
  -28.3107  -26.1830   22.0908 H   0  0  0  0  0  0
  -27.5782  -22.4080   23.3472 H   0  0  0  0  0  0
  -28.8044  -22.5345   24.6026 H   0  0  0  0  0  0
  -29.2976  -20.6324   23.1489 H   0  0  0  0  0  0
  -30.5678  -21.8183   23.0101 H   0  0  0  0  0  0
  -27.2252  -16.7506   21.3914 H   0  0  0  0  0  0
  -26.5156  -17.8742   20.4428 H   0  0  0  0  0  0
  -28.7561  -15.5415   20.7520 H   0  0  0  0  0  0
  1 25  1  0  0  0
  1 30  2  0  0  0
  1 86  1  0  0  0
  2  3  1  0  0  0
  2 25  1  0  0  0
  2 89  1  0  0  0
  2 90  1  0  0  0
  3  4  1  0  0  0
  3 91  1  0  0  0
  3 92  1  0  0  0
  4  5  1  0  0  0
  4 93  1  0  0  0
  4 94  1  0  0  0
  5  6  1  0  0  0
  5 26  1  0  0  0
  5 95  1  0  0  0
  6 25  1  0  0  0
  6 96  1  0  0  0
  6 97  1  0  0  0
  7  8  2  0  0  0
  7 26  1  0  0  0
  7 29  1  0  0  0
  8  9  1  0  0  0
  8 22  1  0  0  0
  9 10  1  0  0  0
  9 27  2  0  0  0
 10 11  2  0  0  0
 10 15  1  0  0  0
 11 12  1  0  0  0
 11 98  1  0  0  0
 12 13  2  0  0  0
 12 99  1  0  0  0
 13 14  1  0  0  0
 13 31  1  0  0  0
 14 15  2  0  0  0
 14100  1  0  0  0
 15101  1  0  0  0
 16 17  2  0  0  0
 16 21  1  0  0  0
 16 31  1  0  0  0
 17 18  1  0  0  0
 17102  1  0  0  0
 18 19  2  0  0  0
 18103  1  0  0  0
 19 20  1  0  0  0
 19 24  1  0  0  0
 20 21  2  0  0  0
 20104  1  0  0  0
 21 23  1  0  0  0
 22 28  1  0  0  0
 22 32  2  0  0  0
 26 27  1  0  0  0
 28105  1  0  0  0
 28106  1  0  0  0
 29107  1  0  0  0
 29108  1  0  0  0
 33 34  1  0  0  0
 33 66  1  0  0  0
 33 70  2  0  0  0
 34 36  1  0  0  0
 34 59  1  0  0  0
 34109  1  0  0  0
 35 44  2  0  0  0
 35 45  1  0  0  0
 35 68  1  0  0  0
 36 56  1  0  0  0
 36110  1  0  0  0
 37 39  1  0  0  0
 37 47  1  0  0  0
 37 66  1  0  0  0
 37111  1  0  0  0
 38 43  2  0  0  0
 38 46  1  0  0  0
 38 47  1  0  0  0
 39 64  1  0  0  0
 39 67  2  0  0  0
 40 52  1  0  0  0
 40 53  2  0  0  0
 40 58  1  0  0  0
 41112  1  0  0  0
 41113  1  0  0  0
 41114  1  0  0  0
 41 48  1  0  0  0
 42 43  1  0  0  0
 42 66  1  0  0  0
 42115  1  0  0  0
 42116  1  0  0  0
 43 44  1  0  0  0
 44117  1  0  0  0
 45 46  2  0  0  0
 45118  1  0  0  0
 46119  1  0  0  0
 47120  1  0  0  0
 47121  1  0  0  0
 48 56  1  0  0  0
 48 65  1  0  0  0
 48122  1  0  0  0
 49 50  1  0  0  0
 49 53  1  0  0  0
 49 64  1  0  0  0
 49123  1  0  0  0
 50 51  1  0  0  0
 50124  1  0  0  0
 50125  1  0  0  0
 51 52  1  0  0  0
 51126  1  0  0  0
 51127  1  0  0  0
 52128  1  0  0  0
 52129  1  0  0  0
 53 54  1  0  0  0
 54 55  2  0  0  0
 54130  1  0  0  0
 55 57  1  0  0  0
 55131  1  0  0  0
 56 69  2  0  0  0
 57 58  2  0  0  0
 57132  1  0  0  0
 58133  1  0  0  0
 59 60  1  0  0  0
 59 61  1  0  0  0
 59 62  1  0  0  0
 60134  1  0  0  0
 60135  1  0  0  0
 60136  1  0  0  0
 61137  1  0  0  0
 61138  1  0  0  0
 61139  1  0  0  0
 62140  1  0  0  0
 62141  1  0  0  0
 62142  1  0  0  0
 63 65  1  0  0  0
 63143  1  0  0  0
 63144  1  0  0  0
 63145  1  0  0  0
 64146  1  0  0  0
 65147  1  0  0  0
 68 81  1  0  0  0
 71 73  2  0  0  0
 71 74  1  0  0  0
 71148  1  0  0  0
 72 75  1  0  0  0
 72 76  2  0  0  0
 72149  1  0  0  0
 73 76  1  0  0  0
 73 84  1  0  0  0
 74 75  2  0  0  0
 74 85  1  0  0  0
 75 86  1  0  0  0
 76 88  1  0  0  0
 77 78  1  0  0  0
 77 79  1  0  0  0
 77 81  2  0  0  0
 78 80  2  0  0  0
 78 82  1  0  0  0
 79 84  1  0  0  0
 79 87  2  0  0  0
 80150  1  0  0  0
 80151  1  0  0  0
 81152  1  0  0  0
 82 83  1  0  0  0
 82153  1  0  0  0
 82154  1  0  0  0
 83 84  1  0  0  0
 83155  1  0  0  0
 83156  1  0  0  0
 85157  1  0  0  0
 85158  1  0  0  0
 86159  1  0  0  0
M  ISO  4   1 100  68 101  81 101  86 100
M  END
> <chiral flag>
0

> <version>
0

> <s_m_source_file>
/data/baiqing/PycharmProjects/Reinvent-master-3.2/result/LINK_invent/BTK/process_docking_weight1_custom_product_contain_oxygen_bond_distance_aromatic_linkinvent_7_9_3/rearranged_h_0076.sdf

> <i_m_source_file_index>
22

> <r_mmod_Potential_Energy-OPLS-2005>
323.596496582031

> <r_mmod_Stretch_Energy-OPLS-2005>
134.084518432617

> <r_mmod_Bend_Energy-OPLS-2005>
247.167282104492

> <r_mmod_Torsional_Energy-OPLS-2005>
341.195495605469

> <r_mmod_Improper_Torsional_Energy-OPLS-2005>
16.1180629730225

> <r_mmod_Van_der_Waal_Energy-OPLS-2005>
163.05647277832

> <r_mmod_Electrostatic_Energy-OPLS-2005>
-457.126800537109

> <r_mmod_Solvation_Energy-OPLS-2005>
-218.973342895508

> <b_mmod_Minimization_Converged-OPLS-2005>
0

> <r_mmod_RMS_Derivative-OPLS-2005>
1.71938705444336

$$$$
22
                    3D
 Structure written by MMmdl.
157166  0  0  1  0            999 V2000
  -30.6852  -14.8748   20.4729 C   0  0  0  0  0  0
  -30.4126  -12.5469   19.5268 C   0  0  0  0  0  0
  -29.5111  -12.4823   18.2759 C   0  0  0  0  0  0
  -28.0603  -12.2310   18.7108 C   0  0  0  0  0  0
  -27.6170  -13.2110   19.8228 C   0  0  2  0  0  0
  -28.6562  -13.3429   20.9731 C   0  0  0  0  0  0
  -25.2410  -13.8150   20.5639 C   0  0  0  0  0  0
  -24.1750  -13.0402   20.9255 C   0  0  0  0  0  0
  -24.6368  -11.6912   20.8870 C   0  0  0  0  0  0
  -23.9062  -10.4296   21.0484 C   0  0  0  0  0  0
  -24.3621   -9.4209   21.9230 C   0  0  0  0  0  0
  -23.6305   -8.2230   22.0767 C   0  0  0  0  0  0
  -22.4268   -8.0303   21.3573 C   0  0  0  0  0  0
  -21.9925   -9.0290   20.4663 C   0  0  0  0  0  0
  -22.7263  -10.2166   20.3107 C   0  0  0  0  0  0
  -21.6855   -6.0757   22.5276 C   0  0  0  0  0  0
  -21.4018   -6.5651   23.8226 C   0  0  0  0  0  0
  -21.3664   -5.6778   24.9176 C   0  0  0  0  0  0
  -21.6028   -4.3055   24.7212 C   0  0  0  0  0  0
  -21.8825   -3.8161   23.4355 C   0  0  0  0  0  0
  -21.9210   -4.6981   22.3420 C   0  0  0  0  0  0
  -22.7787  -13.5219   21.1908 C   0  0  0  0  0  0
  -22.1682   -4.2179   21.0990 F   0  0  0  0  0  0
  -21.5626   -3.4525   25.7733 F   0  0  0  0  0  0
  -29.9610  -13.6859   20.3870 N   0  0  0  0  0  0
  -26.2806  -12.9300   20.3208 N   0  0  0  0  0  0
  -25.9242  -11.6497   20.5842 N   0  0  0  0  0  0
  -22.0451  -12.8210   22.0486 N   0  0  0  0  0  0
  -25.3889  -15.1881   20.3907 N   0  0  0  0  0  0
  -31.8415  -14.8497   20.0360 O   0  0  0  0  0  0
  -21.6659   -6.8896   21.4242 O   0  0  0  0  0  0
  -22.3501  -14.5564   20.6803 O   0  0  0  0  0  0
  -24.6355  -31.8501   23.1910 C   0  0  0  0  0  0
  -25.9186  -32.4686   23.8259 C   0  0  1  0  0  0
  -27.2164  -27.2123   20.1484 C   0  0  0  0  0  0
  -25.5973  -33.8492   24.2205 N   0  0  0  0  0  0
  -23.4313  -30.4751   21.5360 C   0  0  2  0  0  0
  -24.8801  -28.9101   20.1109 C   0  0  0  0  0  0
  -22.7501  -29.4593   22.4885 C   0  0  0  0  0  0
  -18.0306  -28.1414   22.8472 C   0  0  0  0  0  0
  -24.1496  -36.7278   23.2631 C   0  0  0  0  0  0
  -25.9789  -30.7466   21.3790 C   0  0  0  0  0  0
  -26.0506  -29.3630   20.7274 C   0  0  0  0  0  0
  -27.2206  -28.5289   20.7339 C   0  0  0  0  0  0
  -26.0216  -26.8418   19.4910 C   0  0  0  0  0  0
  -24.8736  -27.6590   19.4764 C   0  0  0  0  0  0
  -23.6529  -29.8021   20.1530 C   0  0  0  0  0  0
  -25.4105  -36.3015   24.0314 C   0  0  1  0  0  0
  -20.5900  -28.3727   23.1240 C   0  0  2  0  0  0
  -20.6816  -26.9448   22.5390 C   0  0  0  0  0  0
  -19.5783  -26.6407   21.5213 C   0  0  0  0  0  0
  -18.1945  -26.7953   22.1624 C   0  0  0  0  0  0
  -19.1559  -28.8892   23.2859 C   0  0  0  0  0  0
  -18.9485  -30.1493   23.8883 C   0  0  0  0  0  0
  -17.6489  -30.6602   24.0559 C   0  0  0  0  0  0
  -25.9071  -34.9408   23.5066 C   0  0  0  0  0  0
  -16.5383  -29.9090   23.6332 C   0  0  0  0  0  0
  -16.7297  -28.6516   23.0327 C   0  0  0  0  0  0
  -26.4537  -31.6522   25.0679 C   0  0  0  0  0  0
  -25.3785  -31.3734   26.1425 C   0  0  0  0  0  0
  -27.0357  -30.2910   24.6224 C   0  0  0  0  0  0
  -27.6046  -32.4285   25.7488 C   0  0  0  0  0  0
  -27.5576  -37.1791   24.8453 C   0  0  0  0  0  0
  -21.4210  -29.3056   22.3636 N   0  0  0  0  0  0
  -26.4264  -37.3737   23.9418 N   0  0  0  0  0  0
  -24.7011  -31.0451   22.0902 N   0  0  0  0  0  0
  -23.4214  -28.8124   23.2979 O   0  0  0  0  0  0
  -28.3033  -26.2903   20.1779 O   0  0  0  0  0  0
  -26.5623  -34.8900   22.4633 O   0  0  0  0  0  0
  -23.5510  -32.1330   23.7243 O   0  0  0  0  0  0
  -27.3745  -17.9639   19.4491 C   0  0  0  0  0  0
  -27.6808  -19.3274   19.5951 C   0  0  0  0  0  0
  -28.2535  -16.9644   19.8965 C   0  0  0  0  0  0
  -29.7400  -18.7201   20.6492 C   0  0  0  0  0  0
  -28.8750  -19.8293   20.1771 C   0  0  0  0  0  0
  -29.4723  -17.2666   20.5129 C   0  0  0  0  0  0
  -28.3917  -22.3483   19.3304 C   0  0  0  0  0  0
  -29.3818  -22.3677   21.0936 C   0  0  0  0  0  0
  -29.0448  -23.5685   20.0887 C   0  0  0  0  0  0
  -30.2954  -24.0861   19.3647 C   0  0  0  0  0  0
  -31.1801  -16.5060   22.1389 C   0  0  0  0  0  0
  -28.0624  -24.8174   20.5241 C   0  0  0  0  0  0
  -28.9906  -21.3485   20.1676 N   0  0  0  0  0  0
  -30.2506  -16.0906   21.0773 N   0  0  0  0  0  0
  -27.6529  -22.2435   18.3689 O   0  0  0  0  0  0
  -29.8143  -22.2787   22.2278 O   0  0  0  0  0  0
  -31.4526  -12.6341   19.2134 H   0  0  0  0  0  0
  -30.3603  -11.6148   20.0997 H   0  0  0  0  0  0
  -29.8464  -11.6818   17.6156 H   0  0  0  0  0  0
  -29.5722  -13.4053   17.6959 H   0  0  0  0  0  0
  -28.0063  -11.2074   19.0860 H   0  0  0  0  0  0
  -27.3839  -12.2814   17.8601 H   0  0  0  0  0  0
  -27.5310  -14.1386   19.2793 H   0  0  0  0  0  0
  -28.7278  -12.4140   21.5390 H   0  0  0  0  0  0
  -28.3357  -14.1151   21.6778 H   0  0  0  0  0  0
  -25.2776   -9.5688   22.4811 H   0  0  0  0  0  0
  -24.0050   -7.4614   22.7434 H   0  0  0  0  0  0
  -21.0869   -8.8832   19.8937 H   0  0  0  0  0  0
  -22.3751  -10.9746   19.6242 H   0  0  0  0  0  0
  -21.2013   -7.6145   23.9733 H   0  0  0  0  0  0
  -21.1457   -6.0513   25.9085 H   0  0  0  0  0  0
  -22.0609   -2.7612   23.2834 H   0  0  0  0  0  0
  -22.4087  -11.9843   22.4787 H   0  0  0  0  0  0
  -21.1146  -13.1319   22.2761 H   0  0  0  0  0  0
  -24.6073  -15.8260   20.5132 H   0  0  0  0  0  0
  -26.2035  -15.6528   20.0088 H   0  0  0  0  0  0
  -26.7226  -32.5336   23.0963 H   0  0  0  0  0  0
  -25.0100  -33.9534   25.0351 H   0  0  0  0  0  0
  -22.7284  -31.2968   21.3836 H   0  0  0  0  0  0
  -23.3734  -35.9637   23.3243 H   0  0  0  0  0  0
  -24.3578  -36.8960   22.2046 H   0  0  0  0  0  0
  -23.7268  -37.6489   23.6689 H   0  0  0  0  0  0
  -26.1198  -31.5017   20.6044 H   0  0  0  0  0  0
  -26.8548  -30.8006   22.0118 H   0  0  0  0  0  0
  -28.1111  -28.8787   21.2372 H   0  0  0  0  0  0
  -25.9531  -25.8925   18.9798 H   0  0  0  0  0  0
  -23.9807  -27.3118   18.9749 H   0  0  0  0  0  0
  -23.7795  -30.5732   19.3923 H   0  0  0  0  0  0
  -22.7698  -29.2360   19.8491 H   0  0  0  0  0  0
  -25.1281  -36.1821   25.0800 H   0  0  0  0  0  0
  -20.9969  -28.3331   24.1387 H   0  0  0  0  0  0
  -20.5739  -26.2327   23.3616 H   0  0  0  0  0  0
  -21.6668  -26.7489   22.1181 H   0  0  0  0  0  0
  -19.6936  -25.6314   21.1256 H   0  0  0  0  0  0
  -19.6709  -27.3203   20.6745 H   0  0  0  0  0  0
  -17.4218  -26.6679   21.4025 H   0  0  0  0  0  0
  -18.0367  -26.0103   22.9041 H   0  0  0  0  0  0
  -19.7965  -30.7312   24.2223 H   0  0  0  0  0  0
  -17.5042  -31.6267   24.5173 H   0  0  0  0  0  0
  -15.5381  -30.2968   23.7695 H   0  0  0  0  0  0
  -15.8689  -28.0822   22.7046 H   0  0  0  0  0  0
  -24.5899  -30.7100   25.7838 H   0  0  0  0  0  0
  -24.9046  -32.2944   26.4854 H   0  0  0  0  0  0
  -25.8131  -30.8932   27.0198 H   0  0  0  0  0  0
  -26.2930  -29.6648   24.1242 H   0  0  0  0  0  0
  -27.3984  -29.7163   25.4759 H   0  0  0  0  0  0
  -27.8843  -30.4096   23.9466 H   0  0  0  0  0  0
  -27.2588  -33.3580   26.2019 H   0  0  0  0  0  0
  -28.3917  -32.6859   25.0390 H   0  0  0  0  0  0
  -28.0642  -31.8446   26.5476 H   0  0  0  0  0  0
  -28.2558  -38.0127   24.7518 H   0  0  0  0  0  0
  -28.1107  -36.2660   24.6226 H   0  0  0  0  0  0
  -27.2302  -37.1372   25.8859 H   0  0  0  0  0  0
  -20.9448  -29.8724   21.6770 H   0  0  0  0  0  0
  -26.0132  -38.2807   24.1441 H   0  0  0  0  0  0
  -26.4296  -17.6800   19.0036 H   0  0  0  0  0  0
  -26.9184  -20.0072   19.2463 H   0  0  0  0  0  0
  -27.9520  -15.9481   19.8333 H   0  0  0  0  0  0
  -30.6645  -19.0095   21.1323 H   0  0  0  0  0  0
  -30.9305  -23.2879   18.9799 H   0  0  0  0  0  0
  -30.9112  -24.6986   20.0229 H   0  0  0  0  0  0
  -30.0237  -24.7107   18.5106 H   0  0  0  0  0  0
  -32.0128  -17.0717   21.7168 H   0  0  0  0  0  0
  -30.6819  -17.1254   22.8845 H   0  0  0  0  0  0
  -31.6095  -15.6599   22.6788 H   0  0  0  0  0  0
  -28.0020  -24.8150   21.6132 H   0  0  0  0  0  0
  -27.0511  -24.5499   20.2272 H   0  0  0  0  0  0
  1 25  1  0  0  0
  1 30  2  0  0  0
  1 84  1  0  0  0
  2  3  1  0  0  0
  2 25  1  0  0  0
  2 87  1  0  0  0
  2 88  1  0  0  0
  3  4  1  0  0  0
  3 89  1  0  0  0
  3 90  1  0  0  0
  4  5  1  0  0  0
  4 91  1  0  0  0
  4 92  1  0  0  0
  5  6  1  0  0  0
  5 26  1  0  0  0
  5 93  1  0  0  0
  6 25  1  0  0  0
  6 94  1  0  0  0
  6 95  1  0  0  0
  7  8  2  0  0  0
  7 26  1  0  0  0
  7 29  1  0  0  0
  8  9  1  0  0  0
  8 22  1  0  0  0
  9 10  1  0  0  0
  9 27  2  0  0  0
 10 11  2  0  0  0
 10 15  1  0  0  0
 11 12  1  0  0  0
 11 96  1  0  0  0
 12 13  2  0  0  0
 12 97  1  0  0  0
 13 14  1  0  0  0
 13 31  1  0  0  0
 14 15  2  0  0  0
 14 98  1  0  0  0
 15 99  1  0  0  0
 16 17  2  0  0  0
 16 21  1  0  0  0
 16 31  1  0  0  0
 17 18  1  0  0  0
 17100  1  0  0  0
 18 19  2  0  0  0
 18101  1  0  0  0
 19 20  1  0  0  0
 19 24  1  0  0  0
 20 21  2  0  0  0
 20102  1  0  0  0
 21 23  1  0  0  0
 22 28  1  0  0  0
 22 32  2  0  0  0
 26 27  1  0  0  0
 28103  1  0  0  0
 28104  1  0  0  0
 29105  1  0  0  0
 29106  1  0  0  0
 33 34  1  0  0  0
 33 66  1  0  0  0
 33 70  2  0  0  0
 34 36  1  0  0  0
 34 59  1  0  0  0
 34107  1  0  0  0
 35 44  2  0  0  0
 35 45  1  0  0  0
 35 68  1  0  0  0
 36 56  1  0  0  0
 36108  1  0  0  0
 37 39  1  0  0  0
 37 47  1  0  0  0
 37 66  1  0  0  0
 37109  1  0  0  0
 38 43  2  0  0  0
 38 46  1  0  0  0
 38 47  1  0  0  0
 39 64  1  0  0  0
 39 67  2  0  0  0
 40 52  1  0  0  0
 40 53  2  0  0  0
 40 58  1  0  0  0
 41110  1  0  0  0
 41111  1  0  0  0
 41112  1  0  0  0
 41 48  1  0  0  0
 42 43  1  0  0  0
 42 66  1  0  0  0
 42113  1  0  0  0
 42114  1  0  0  0
 43 44  1  0  0  0
 44115  1  0  0  0
 45 46  2  0  0  0
 45116  1  0  0  0
 46117  1  0  0  0
 47118  1  0  0  0
 47119  1  0  0  0
 48 56  1  0  0  0
 48 65  1  0  0  0
 48120  1  0  0  0
 49 50  1  0  0  0
 49 53  1  0  0  0
 49 64  1  0  0  0
 49121  1  0  0  0
 50 51  1  0  0  0
 50122  1  0  0  0
 50123  1  0  0  0
 51 52  1  0  0  0
 51124  1  0  0  0
 51125  1  0  0  0
 52126  1  0  0  0
 52127  1  0  0  0
 53 54  1  0  0  0
 54 55  2  0  0  0
 54128  1  0  0  0
 55 57  1  0  0  0
 55129  1  0  0  0
 56 69  2  0  0  0
 57 58  2  0  0  0
 57130  1  0  0  0
 58131  1  0  0  0
 59 60  1  0  0  0
 59 61  1  0  0  0
 59 62  1  0  0  0
 60132  1  0  0  0
 60133  1  0  0  0
 60134  1  0  0  0
 61135  1  0  0  0
 61136  1  0  0  0
 61137  1  0  0  0
 62138  1  0  0  0
 62139  1  0  0  0
 62140  1  0  0  0
 63 65  1  0  0  0
 63141  1  0  0  0
 63142  1  0  0  0
 63143  1  0  0  0
 64144  1  0  0  0
 65145  1  0  0  0
 68 82  1  0  0  0
 71 72  2  0  0  0
 71 73  1  0  0  0
 71146  1  0  0  0
 72 75  1  0  0  0
 72147  1  0  0  0
 73 76  2  0  0  0
 73148  1  0  0  0
 74 75  2  0  0  0
 74 76  1  0  0  0
 74149  1  0  0  0
 75 83  1  0  0  0
 76 84  1  0  0  0
 77 79  1  0  0  0
 77 83  1  0  0  0
 77 85  2  0  0  0
 78 79  1  0  0  0
 78 83  1  0  0  0
 78 86  2  0  0  0
 79 80  1  0  0  0
 79 82  1  0  0  0
 80150  1  0  0  0
 80151  1  0  0  0
 80152  1  0  0  0
 81 84  1  0  0  0
 81153  1  0  0  0
 81154  1  0  0  0
 81155  1  0  0  0
 82156  1  0  0  0
 82157  1  0  0  0
M  ISO  4   1 100  68 101  82 101  84 100
M  END
> <chiral flag>
0

> <version>
0

> <s_m_source_file>
/data/baiqing/PycharmProjects/Reinvent-master-3.2/result/LINK_invent/BTK/process_docking_weight1_custom_product_contain_oxygen_bond_distance_aromatic_linkinvent_7_9_3/rearranged_h_0076.sdf

> <i_m_source_file_index>
23

> <r_mmod_Potential_Energy-OPLS-2005>
482.051177978516

> <r_mmod_Stretch_Energy-OPLS-2005>
191.302047729492

> <r_mmod_Bend_Energy-OPLS-2005>
255.257888793945

> <r_mmod_Torsional_Energy-OPLS-2005>
291.845886230469

> <r_mmod_Improper_Torsional_Energy-OPLS-2005>
5.24158668518066

> <r_mmod_Van_der_Waal_Energy-OPLS-2005>
141.051071166992

> <r_mmod_Electrostatic_Energy-OPLS-2005>
-341.043487548828

> <r_mmod_Solvation_Energy-OPLS-2005>
-205.483306884766

> <b_mmod_Minimization_Converged-OPLS-2005>
0

> <r_mmod_RMS_Derivative-OPLS-2005>
6.47735166549683

$$$$
23
                    3D
 Structure written by MMmdl.
155164  0  0  1  0            999 V2000
  -30.6235  -14.6626   20.4783 C   0  0  0  0  0  0
  -30.4422  -12.4039   19.4517 C   0  0  0  0  0  0
  -29.5083  -12.5060   18.2248 C   0  0  0  0  0  0
  -28.0324  -12.3404   18.6404 C   0  0  0  0  0  0
  -27.6527  -13.2187   19.8621 C   0  0  2  0  0  0
  -28.7023  -13.0921   20.9901 C   0  0  0  0  0  0
  -25.2557  -13.8166   20.5694 C   0  0  0  0  0  0
  -24.1826  -13.0425   20.9166 C   0  0  0  0  0  0
  -24.6406  -11.6903   20.8731 C   0  0  0  0  0  0
  -23.9073  -10.4288   21.0402 C   0  0  0  0  0  0
  -24.3623   -9.4206   21.9183 C   0  0  0  0  0  0
  -23.6295   -8.2244   22.0756 C   0  0  0  0  0  0
  -22.4277   -8.0285   21.3546 C   0  0  0  0  0  0
  -21.9915   -9.0256   20.4644 C   0  0  0  0  0  0
  -22.7246  -10.2133   20.3051 C   0  0  0  0  0  0
  -21.6853   -6.0744   22.5283 C   0  0  0  0  0  0
  -21.4012   -6.5645   23.8217 C   0  0  0  0  0  0
  -21.3657   -5.6795   24.9176 C   0  0  0  0  0  0
  -21.6045   -4.3059   24.7224 C   0  0  0  0  0  0
  -21.8818   -3.8153   23.4344 C   0  0  0  0  0  0
  -21.9190   -4.6972   22.3401 C   0  0  0  0  0  0
  -22.7849  -13.5218   21.1839 C   0  0  0  0  0  0
  -22.1656   -4.2158   21.0977 F   0  0  0  0  0  0
  -21.5633   -3.4541   25.7737 F   0  0  0  0  0  0
  -30.0156  -13.4338   20.4188 N   0  0  0  0  0  0
  -26.3001  -12.9360   20.3345 N   0  0  0  0  0  0
  -25.9342  -11.6510   20.5775 N   0  0  0  0  0  0
  -22.0496  -12.8209   22.0398 N   0  0  0  0  0  0
  -25.4202  -15.1897   20.4168 N   0  0  0  0  0  0
  -31.7979  -14.8159   20.1322 O   0  0  0  0  0  0
  -21.6638   -6.8886   21.4246 O   0  0  0  0  0  0
  -22.3527  -14.5529   20.6702 O   0  0  0  0  0  0
  -24.6292  -31.8601   23.2042 C   0  0  0  0  0  0
  -25.9128  -32.4782   23.8372 C   0  0  1  0  0  0
  -27.2213  -27.3038   20.1006 C   0  0  0  0  0  0
  -25.5938  -33.8584   24.2295 N   0  0  0  0  0  0
  -23.4228  -30.4865   21.5493 C   0  0  2  0  0  0
  -24.8671  -28.9466   20.1118 C   0  0  0  0  0  0
  -22.7487  -29.4633   22.4949 C   0  0  0  0  0  0
  -18.0290  -28.1381   22.8491 C   0  0  0  0  0  0
  -24.1490  -36.7290   23.2638 C   0  0  0  0  0  0
  -25.9686  -30.7839   21.3802 C   0  0  0  0  0  0
  -26.0408  -29.4119   20.7182 C   0  0  0  0  0  0
  -27.2200  -28.6020   20.7063 C   0  0  0  0  0  0
  -26.0180  -26.9087   19.4628 C   0  0  0  0  0  0
  -24.8582  -27.6992   19.4782 C   0  0  0  0  0  0
  -23.6370  -29.8278   20.1639 C   0  0  0  0  0  0
  -25.4118  -36.3086   24.0329 C   0  0  1  0  0  0
  -20.5892  -28.3694   23.1278 C   0  0  2  0  0  0
  -20.6781  -26.9419   22.5404 C   0  0  0  0  0  0
  -19.5749  -26.6386   21.5213 C   0  0  0  0  0  0
  -18.1931  -26.7928   22.1627 C   0  0  0  0  0  0
  -19.1542  -28.8858   23.2878 C   0  0  0  0  0  0
  -18.9461  -30.1460   23.8895 C   0  0  0  0  0  0
  -17.6459  -30.6589   24.0563 C   0  0  0  0  0  0
  -25.9055  -34.9452   23.5110 C   0  0  0  0  0  0
  -16.5352  -29.9082   23.6332 C   0  0  0  0  0  0
  -16.7277  -28.6497   23.0363 C   0  0  0  0  0  0
  -26.4501  -31.6590   25.0744 C   0  0  0  0  0  0
  -25.3729  -31.3724   26.1463 C   0  0  0  0  0  0
  -27.0348  -30.3010   24.6208 C   0  0  0  0  0  0
  -27.6062  -32.4323   25.7514 C   0  0  0  0  0  0
  -27.5582  -37.1804   24.8466 C   0  0  0  0  0  0
  -21.4200  -29.3047   22.3674 N   0  0  0  0  0  0
  -26.4297  -37.3778   23.9407 N   0  0  0  0  0  0
  -24.6928  -31.0598   22.1009 N   0  0  0  0  0  0
  -23.4201  -28.8163   23.3027 O   0  0  0  0  0  0
  -28.3218  -26.4181   20.1482 O   0  0  0  0  0  0
  -26.5618  -34.8917   22.4673 O   0  0  0  0  0  0
  -23.5448  -32.1418   23.7345 O   0  0  0  0  0  0
  -28.6779  -19.3470   20.4340 C   0  0  0  0  0  0
  -31.0949  -17.9401   20.5338 C   0  0  0  0  0  0
  -29.8608  -20.1334   20.3949 C   0  0  0  0  0  0
  -29.9009  -17.1747   20.5891 C   0  0  0  0  0  0
  -28.6980  -17.9240   20.5327 C   0  0  0  0  0  0
  -31.0775  -19.3700   20.4444 C   0  0  0  0  0  0
  -28.7266  -22.4881   20.1762 C   0  0  0  0  0  0
  -29.0449  -23.8145   20.1128 C   0  0  0  0  0  0
  -30.4828  -23.8431   20.2346 C   0  0  0  0  0  0
  -31.2455  -24.9478   20.2257 C   0  0  0  0  0  0
  -31.0156  -22.4168   20.3571 C   0  0  0  0  0  0
  -28.0339  -24.9899   19.8379 C   0  0  0  0  0  0
  -29.8067  -21.5850   20.3195 N   0  0  0  0  0  0
  -29.7921  -15.7186   20.7442 N   0  0  0  0  0  0
  -27.5220  -17.2526   20.5749 F   0  0  0  0  0  0
  -32.2777  -19.9989   20.4115 F   0  0  0  0  0  0
  -31.4824  -12.5319   19.1466 H   0  0  0  0  0  0
  -30.3809  -11.4123   19.9032 H   0  0  0  0  0  0
  -29.7744  -11.7521   17.4828 H   0  0  0  0  0  0
  -29.6445  -13.4735   17.7391 H   0  0  0  0  0  0
  -27.8748  -11.2879   18.8803 H   0  0  0  0  0  0
  -27.3754  -12.5600   17.7980 H   0  0  0  0  0  0
  -27.6608  -14.2501   19.5094 H   0  0  0  0  0  0
  -28.7184  -12.0764   21.3882 H   0  0  0  0  0  0
  -28.4496  -13.7382   21.8325 H   0  0  0  0  0  0
  -25.2771   -9.5686   22.4753 H   0  0  0  0  0  0
  -24.0010   -7.4638   22.7476 H   0  0  0  0  0  0
  -21.0850   -8.8774   19.8944 H   0  0  0  0  0  0
  -22.3711  -10.9674   19.6158 H   0  0  0  0  0  0
  -21.2002   -7.6153   23.9724 H   0  0  0  0  0  0
  -21.1480   -6.0524   25.9080 H   0  0  0  0  0  0
  -22.0597   -2.7617   23.2843 H   0  0  0  0  0  0
  -22.4118  -11.9870   22.4782 H   0  0  0  0  0  0
  -21.1114  -13.1235   22.2608 H   0  0  0  0  0  0
  -24.6511  -15.8346   20.5578 H   0  0  0  0  0  0
  -26.2848  -15.6661   20.1865 H   0  0  0  0  0  0
  -26.7198  -32.5444   23.1123 H   0  0  0  0  0  0
  -25.0095  -33.9735   25.0445 H   0  0  0  0  0  0
  -22.7176  -31.3083   21.4094 H   0  0  0  0  0  0
  -23.3755  -35.9620   23.3306 H   0  0  0  0  0  0
  -24.3581  -36.8904   22.2051 H   0  0  0  0  0  0
  -23.7239  -37.6494   23.6655 H   0  0  0  0  0  0
  -26.1058  -31.5480   20.6138 H   0  0  0  0  0  0
  -26.8474  -30.8285   22.0123 H   0  0  0  0  0  0
  -28.1175  -28.9545   21.1952 H   0  0  0  0  0  0
  -25.9232  -25.9663   18.9470 H   0  0  0  0  0  0
  -23.9598  -27.3369   18.9975 H   0  0  0  0  0  0
  -23.7573  -30.6074   19.4111 H   0  0  0  0  0  0
  -22.7560  -29.2598   19.8597 H   0  0  0  0  0  0
  -25.1298  -36.1944   25.0823 H   0  0  0  0  0  0
  -20.9983  -28.3269   24.1398 H   0  0  0  0  0  0
  -20.5695  -26.2306   23.3605 H   0  0  0  0  0  0
  -21.6648  -26.7453   22.1190 H   0  0  0  0  0  0
  -19.6911  -25.6296   21.1241 H   0  0  0  0  0  0
  -19.6680  -27.3198   20.6740 H   0  0  0  0  0  0
  -17.4201  -26.6687   21.4022 H   0  0  0  0  0  0
  -18.0323  -26.0066   22.9018 H   0  0  0  0  0  0
  -19.7934  -30.7277   24.2264 H   0  0  0  0  0  0
  -17.5012  -31.6268   24.5158 H   0  0  0  0  0  0
  -15.5352  -30.2982   23.7654 H   0  0  0  0  0  0
  -15.8680  -28.0810   22.7088 H   0  0  0  0  0  0
  -24.5918  -30.7056   25.7789 H   0  0  0  0  0  0
  -24.8901  -32.2881   26.4880 H   0  0  0  0  0  0
  -25.8049  -30.8912   27.0246 H   0  0  0  0  0  0
  -26.2926  -29.6759   24.1224 H   0  0  0  0  0  0
  -27.4030  -29.7266   25.4720 H   0  0  0  0  0  0
  -27.8804  -30.4297   23.9450 H   0  0  0  0  0  0
  -27.2686  -33.3635   26.2079 H   0  0  0  0  0  0
  -28.3880  -32.6863   25.0341 H   0  0  0  0  0  0
  -28.0721  -31.8452   26.5442 H   0  0  0  0  0  0
  -28.2601  -38.0099   24.7517 H   0  0  0  0  0  0
  -28.1077  -36.2630   24.6295 H   0  0  0  0  0  0
  -27.2296  -37.1457   25.8868 H   0  0  0  0  0  0
  -20.9381  -29.8778   21.6891 H   0  0  0  0  0  0
  -26.0178  -38.2857   24.1402 H   0  0  0  0  0  0
  -27.7160  -19.8328   20.4013 H   0  0  0  0  0  0
  -32.0511  -17.4409   20.5776 H   0  0  0  0  0  0
  -27.7326  -22.0734   20.0773 H   0  0  0  0  0  0
  -30.8184  -25.9348   20.1270 H   0  0  0  0  0  0
  -32.3200  -24.8801   20.3166 H   0  0  0  0  0  0
  -31.5610  -22.2888   21.2936 H   0  0  0  0  0  0
  -31.6794  -22.1927   19.5204 H   0  0  0  0  0  0
  -27.1259  -24.6971   20.3670 H   0  0  0  0  0  0
  -27.8190  -24.9230   18.7703 H   0  0  0  0  0  0
  -28.8517  -15.4193   20.9523 H   0  0  0  0  0  0
  1 25  1  0  0  0
  1 30  2  0  0  0
  1 84  1  0  0  0
  2  3  1  0  0  0
  2 25  1  0  0  0
  2 87  1  0  0  0
  2 88  1  0  0  0
  3  4  1  0  0  0
  3 89  1  0  0  0
  3 90  1  0  0  0
  4  5  1  0  0  0
  4 91  1  0  0  0
  4 92  1  0  0  0
  5  6  1  0  0  0
  5 26  1  0  0  0
  5 93  1  0  0  0
  6 25  1  0  0  0
  6 94  1  0  0  0
  6 95  1  0  0  0
  7  8  2  0  0  0
  7 26  1  0  0  0
  7 29  1  0  0  0
  8  9  1  0  0  0
  8 22  1  0  0  0
  9 10  1  0  0  0
  9 27  2  0  0  0
 10 11  2  0  0  0
 10 15  1  0  0  0
 11 12  1  0  0  0
 11 96  1  0  0  0
 12 13  2  0  0  0
 12 97  1  0  0  0
 13 14  1  0  0  0
 13 31  1  0  0  0
 14 15  2  0  0  0
 14 98  1  0  0  0
 15 99  1  0  0  0
 16 17  2  0  0  0
 16 21  1  0  0  0
 16 31  1  0  0  0
 17 18  1  0  0  0
 17100  1  0  0  0
 18 19  2  0  0  0
 18101  1  0  0  0
 19 20  1  0  0  0
 19 24  1  0  0  0
 20 21  2  0  0  0
 20102  1  0  0  0
 21 23  1  0  0  0
 22 28  1  0  0  0
 22 32  2  0  0  0
 26 27  1  0  0  0
 28103  1  0  0  0
 28104  1  0  0  0
 29105  1  0  0  0
 29106  1  0  0  0
 33 34  1  0  0  0
 33 66  1  0  0  0
 33 70  2  0  0  0
 34 36  1  0  0  0
 34 59  1  0  0  0
 34107  1  0  0  0
 35 44  2  0  0  0
 35 45  1  0  0  0
 35 68  1  0  0  0
 36 56  1  0  0  0
 36108  1  0  0  0
 37 39  1  0  0  0
 37 47  1  0  0  0
 37 66  1  0  0  0
 37109  1  0  0  0
 38 43  2  0  0  0
 38 46  1  0  0  0
 38 47  1  0  0  0
 39 64  1  0  0  0
 39 67  2  0  0  0
 40 52  1  0  0  0
 40 53  2  0  0  0
 40 58  1  0  0  0
 41110  1  0  0  0
 41111  1  0  0  0
 41112  1  0  0  0
 41 48  1  0  0  0
 42 43  1  0  0  0
 42 66  1  0  0  0
 42113  1  0  0  0
 42114  1  0  0  0
 43 44  1  0  0  0
 44115  1  0  0  0
 45 46  2  0  0  0
 45116  1  0  0  0
 46117  1  0  0  0
 47118  1  0  0  0
 47119  1  0  0  0
 48 56  1  0  0  0
 48 65  1  0  0  0
 48120  1  0  0  0
 49 50  1  0  0  0
 49 53  1  0  0  0
 49 64  1  0  0  0
 49121  1  0  0  0
 50 51  1  0  0  0
 50122  1  0  0  0
 50123  1  0  0  0
 51 52  1  0  0  0
 51124  1  0  0  0
 51125  1  0  0  0
 52126  1  0  0  0
 52127  1  0  0  0
 53 54  1  0  0  0
 54 55  2  0  0  0
 54128  1  0  0  0
 55 57  1  0  0  0
 55129  1  0  0  0
 56 69  2  0  0  0
 57 58  2  0  0  0
 57130  1  0  0  0
 58131  1  0  0  0
 59 60  1  0  0  0
 59 61  1  0  0  0
 59 62  1  0  0  0
 60132  1  0  0  0
 60133  1  0  0  0
 60134  1  0  0  0
 61135  1  0  0  0
 61136  1  0  0  0
 61137  1  0  0  0
 62138  1  0  0  0
 62139  1  0  0  0
 62140  1  0  0  0
 63 65  1  0  0  0
 63141  1  0  0  0
 63142  1  0  0  0
 63143  1  0  0  0
 64144  1  0  0  0
 65145  1  0  0  0
 68 82  1  0  0  0
 71 73  2  0  0  0
 71 75  1  0  0  0
 71146  1  0  0  0
 72 74  1  0  0  0
 72 76  2  0  0  0
 72147  1  0  0  0
 73 76  1  0  0  0
 73 83  1  0  0  0
 74 75  2  0  0  0
 74 84  1  0  0  0
 75 85  1  0  0  0
 76 86  1  0  0  0
 77 78  2  0  0  0
 77 83  1  0  0  0
 77148  1  0  0  0
 78 79  1  0  0  0
 78 82  1  0  0  0
 79 80  2  0  0  0
 79 81  1  0  0  0
 80149  1  0  0  0
 80150  1  0  0  0
 81 83  1  0  0  0
 81151  1  0  0  0
 81152  1  0  0  0
 82153  1  0  0  0
 82154  1  0  0  0
 84155  1  0  0  0
M  ISO  4   1 100  68 101  82 101  84 100
M  END
> <chiral flag>
0

> <version>
0

> <s_m_source_file>
/data/baiqing/PycharmProjects/Reinvent-master-3.2/result/LINK_invent/BTK/process_docking_weight1_custom_product_contain_oxygen_bond_distance_aromatic_linkinvent_7_9_3/rearranged_h_0076.sdf

> <i_m_source_file_index>
24

> <r_mmod_Potential_Energy-OPLS-2005>
152.619369506836

> <r_mmod_Stretch_Energy-OPLS-2005>
84.0932540893555

> <r_mmod_Bend_Energy-OPLS-2005>
242.212539672852

> <r_mmod_Torsional_Energy-OPLS-2005>
197.0517578125

> <r_mmod_Improper_Torsional_Energy-OPLS-2005>
4.89141178131104

> <r_mmod_Van_der_Waal_Energy-OPLS-2005>
149.802703857422

> <r_mmod_Electrostatic_Energy-OPLS-2005>
-384.446014404297

> <r_mmod_Solvation_Energy-OPLS-2005>
-199.035232543945

> <b_mmod_Minimization_Converged-OPLS-2005>
0

> <r_mmod_RMS_Derivative-OPLS-2005>
0.819411635398865

$$$$
24
                    3D
 Structure written by MMmdl.
158167  0  0  1  0            999 V2000
  -30.4795  -15.1279   20.3920 C   0  0  0  0  0  0
  -30.4380  -12.7094   19.5194 C   0  0  0  0  0  0
  -29.5304  -12.5591   18.2742 C   0  0  0  0  0  0
  -28.0725  -12.3064   18.6958 C   0  0  0  0  0  0
  -27.6196  -13.2624   19.8289 C   0  0  2  0  0  0
  -28.6553  -13.3737   20.9683 C   0  0  0  0  0  0
  -25.2421  -13.8218   20.5702 C   0  0  0  0  0  0
  -24.1752  -13.0429   20.9236 C   0  0  0  0  0  0
  -24.6389  -11.6917   20.8757 C   0  0  0  0  0  0
  -23.9072  -10.4287   21.0400 C   0  0  0  0  0  0
  -24.3618   -9.4209   21.9184 C   0  0  0  0  0  0
  -23.6295   -8.2243   22.0751 C   0  0  0  0  0  0
  -22.4285   -8.0271   21.3531 C   0  0  0  0  0  0
  -21.9920   -9.0248   20.4639 C   0  0  0  0  0  0
  -22.7244  -10.2129   20.3049 C   0  0  0  0  0  0
  -21.6859   -6.0732   22.5270 C   0  0  0  0  0  0
  -21.4023   -6.5636   23.8206 C   0  0  0  0  0  0
  -21.3661   -5.6785   24.9166 C   0  0  0  0  0  0
  -21.6046   -4.3048   24.7220 C   0  0  0  0  0  0
  -21.8817   -3.8139   23.4341 C   0  0  0  0  0  0
  -21.9198   -4.6957   22.3397 C   0  0  0  0  0  0
  -22.7771  -13.5197   21.1880 C   0  0  0  0  0  0
  -22.1662   -4.2142   21.0975 F   0  0  0  0  0  0
  -21.5630   -3.4531   25.7736 F   0  0  0  0  0  0
  -29.9075  -13.8384   20.3555 N   0  0  0  0  0  0
  -26.2840  -12.9472   20.3199 N   0  0  0  0  0  0
  -25.9326  -11.6593   20.5718 N   0  0  0  0  0  0
  -22.0424  -12.8196   22.0442 N   0  0  0  0  0  0
  -25.4063  -15.1948   20.4089 N   0  0  0  0  0  0
  -31.6944  -15.1484   20.1560 O   0  0  0  0  0  0
  -21.6636   -6.8877   21.4233 O   0  0  0  0  0  0
  -22.3465  -14.5510   20.6726 O   0  0  0  0  0  0
  -24.6543  -31.8323   23.1781 C   0  0  0  0  0  0
  -25.9265  -32.4636   23.8213 C   0  0  1  0  0  0
  -27.2228  -27.0230   20.1881 C   0  0  0  0  0  0
  -25.5981  -33.8448   24.2131 N   0  0  0  0  0  0
  -23.4646  -30.4455   21.5249 C   0  0  2  0  0  0
  -24.9168  -28.8423   20.1214 C   0  0  0  0  0  0
  -22.7619  -29.4479   22.4816 C   0  0  0  0  0  0
  -18.0306  -28.1398   22.8464 C   0  0  0  0  0  0
  -24.1483  -36.7222   23.2635 C   0  0  0  0  0  0
  -26.0271  -30.6721   21.3902 C   0  0  0  0  0  0
  -26.0980  -29.2667   20.7453 C   0  0  0  0  0  0
  -27.2507  -28.3763   20.7551 C   0  0  0  0  0  0
  -26.0131  -26.7225   19.5270 C   0  0  0  0  0  0
  -24.8908  -27.5858   19.4952 C   0  0  0  0  0  0
  -23.7007  -29.7608   20.1506 C   0  0  0  0  0  0
  -25.4116  -36.2998   24.0312 C   0  0  1  0  0  0
  -20.5925  -28.3731   23.1209 C   0  0  2  0  0  0
  -20.6790  -26.9426   22.5395 C   0  0  0  0  0  0
  -19.5764  -26.6375   21.5205 C   0  0  0  0  0  0
  -18.1944  -26.7937   22.1611 C   0  0  0  0  0  0
  -19.1565  -28.8880   23.2832 C   0  0  0  0  0  0
  -18.9482  -30.1479   23.8853 C   0  0  0  0  0  0
  -17.6480  -30.6591   24.0548 C   0  0  0  0  0  0
  -25.9079  -34.9378   23.5028 C   0  0  0  0  0  0
  -16.5368  -29.9083   23.6345 C   0  0  0  0  0  0
  -16.7293  -28.6506   23.0359 C   0  0  0  0  0  0
  -26.4554  -31.6541   25.0693 C   0  0  0  0  0  0
  -25.3729  -31.3760   26.1382 C   0  0  0  0  0  0
  -27.0419  -30.2916   24.6347 C   0  0  0  0  0  0
  -27.6083  -32.4307   25.7488 C   0  0  0  0  0  0
  -27.5570  -37.1762   24.8460 C   0  0  0  0  0  0
  -21.4296  -29.3042   22.3568 N   0  0  0  0  0  0
  -26.4266  -37.3730   23.9422 N   0  0  0  0  0  0
  -24.7358  -31.0085   22.0856 N   0  0  0  0  0  0
  -23.4216  -28.8042   23.3016 O   0  0  0  0  0  0
  -28.2681  -25.9931   20.1567 O   0  0  0  0  0  0
  -26.5671  -34.8896   22.4615 O   0  0  0  0  0  0
  -23.5640  -32.1223   23.6957 O   0  0  0  0  0  0
  -31.6557  -19.7305   20.2676 C   0  0  0  0  0  0
  -30.7260  -20.8030   20.2540 C   0  0  0  0  0  0
  -31.2943  -18.3595   20.3375 C   0  0  0  0  0  0
  -29.0045  -19.1100   20.3991 C   0  0  0  0  0  0
  -29.3323  -20.5993   20.3077 C   0  0  0  0  0  0
  -29.9528  -17.9203   20.4093 C   0  0  0  0  0  0
  -28.2433  -22.3133   17.8950 C   0  0  0  0  0  0
  -28.6285  -23.3351   19.9462 C   0  0  0  0  0  0
  -28.1140  -22.0673   16.5833 C   0  0  0  0  0  0
  -28.1551  -24.5509   20.5753 C   0  0  0  0  0  0
  -29.0441  -23.4413   18.4973 C   0  0  0  0  0  0
  -27.6300  -21.5000   19.0150 C   0  0  0  0  0  0
  -27.4850  -24.4698   21.9305 C   0  0  0  0  0  0
  -28.4344  -21.8335   20.1890 N   0  0  0  0  0  0
  -29.6901  -16.3565   20.4866 N   0  0  0  0  0  0
  -31.4681  -12.8849   19.2055 H   0  0  0  0  0  0
  -30.4593  -11.7806   20.0922 H   0  0  0  0  0  0
  -29.8868  -11.7481   17.6376 H   0  0  0  0  0  0
  -29.5848  -13.4672   17.6716 H   0  0  0  0  0  0
  -28.0070  -11.2740   19.0410 H   0  0  0  0  0  0
  -27.4044  -12.3833   17.8375 H   0  0  0  0  0  0
  -27.5567  -14.2457   19.3622 H   0  0  0  0  0  0
  -28.7888  -12.4205   21.4827 H   0  0  0  0  0  0
  -28.3187  -14.0884   21.7213 H   0  0  0  0  0  0
  -25.2764   -9.5696   22.4763 H   0  0  0  0  0  0
  -24.0002   -7.4642   22.7482 H   0  0  0  0  0  0
  -21.0849   -8.8767   19.8952 H   0  0  0  0  0  0
  -22.3696  -10.9664   19.6155 H   0  0  0  0  0  0
  -21.2017   -7.6146   23.9712 H   0  0  0  0  0  0
  -21.1486   -6.0511   25.9072 H   0  0  0  0  0  0
  -22.0600   -2.7599   23.2831 H   0  0  0  0  0  0
  -22.4054  -11.9863   22.4828 H   0  0  0  0  0  0
  -21.1036  -13.1213   22.2638 H   0  0  0  0  0  0
  -24.6253  -15.8372   20.4941 H   0  0  0  0  0  0
  -26.2346  -15.6297   20.0234 H   0  0  0  0  0  0
  -26.7344  -32.5196   23.0950 H   0  0  0  0  0  0
  -25.0168  -33.9538   25.0310 H   0  0  0  0  0  0
  -22.7729  -31.2734   21.3565 H   0  0  0  0  0  0
  -23.3772  -35.9525   23.3249 H   0  0  0  0  0  0
  -24.3569  -36.8905   22.2057 H   0  0  0  0  0  0
  -23.7211  -37.6392   23.6702 H   0  0  0  0  0  0
  -26.1851  -31.4126   20.6051 H   0  0  0  0  0  0
  -26.8973  -30.7388   22.0327 H   0  0  0  0  0  0
  -28.1551  -28.7044   21.2470 H   0  0  0  0  0  0
  -25.9234  -25.7593   19.0454 H   0  0  0  0  0  0
  -23.9908  -27.2537   18.9955 H   0  0  0  0  0  0
  -23.8522  -30.5265   19.3885 H   0  0  0  0  0  0
  -22.8138  -29.2086   19.8348 H   0  0  0  0  0  0
  -25.1316  -36.1802   25.0809 H   0  0  0  0  0  0
  -21.0013  -28.3331   24.1332 H   0  0  0  0  0  0
  -20.5660  -26.2356   23.3625 H   0  0  0  0  0  0
  -21.6660  -26.7408   22.1209 H   0  0  0  0  0  0
  -19.6920  -25.6276   21.1255 H   0  0  0  0  0  0
  -19.6707  -27.3169   20.6723 H   0  0  0  0  0  0
  -17.4217  -26.6674   21.4009 H   0  0  0  0  0  0
  -18.0345  -26.0096   22.9025 H   0  0  0  0  0  0
  -19.7960  -30.7308   24.2195 H   0  0  0  0  0  0
  -17.5033  -31.6262   24.5170 H   0  0  0  0  0  0
  -15.5364  -30.2976   23.7685 H   0  0  0  0  0  0
  -15.8693  -28.0812   22.7095 H   0  0  0  0  0  0
  -24.5936  -30.7068   25.7716 H   0  0  0  0  0  0
  -24.8882  -32.2950   26.4691 H   0  0  0  0  0  0
  -25.8010  -30.9021   27.0231 H   0  0  0  0  0  0
  -26.3051  -29.6629   24.1326 H   0  0  0  0  0  0
  -27.3972  -29.7226   25.4956 H   0  0  0  0  0  0
  -27.9000  -30.4116   23.9726 H   0  0  0  0  0  0
  -27.2700  -33.3676   26.1931 H   0  0  0  0  0  0
  -28.3979  -32.6742   25.0364 H   0  0  0  0  0  0
  -28.0662  -31.8501   26.5513 H   0  0  0  0  0  0
  -28.2558  -38.0088   24.7555 H   0  0  0  0  0  0
  -28.1095  -36.2619   24.6232 H   0  0  0  0  0  0
  -27.2293  -37.1362   25.8863 H   0  0  0  0  0  0
  -20.9526  -29.8744   21.6721 H   0  0  0  0  0  0
  -26.0115  -38.2783   24.1475 H   0  0  0  0  0  0
  -32.7077  -19.9721   20.2073 H   0  0  0  0  0  0
  -31.1058  -21.8115   20.1743 H   0  0  0  0  0  0
  -32.0933  -17.6335   20.3346 H   0  0  0  0  0  0
  -27.9542  -18.8644   20.4564 H   0  0  0  0  0  0
  -28.5955  -22.6965   15.8483 H   0  0  0  0  0  0
  -27.5286  -21.2327   16.2264 H   0  0  0  0  0  0
  -28.7654  -24.3980   18.0513 H   0  0  0  0  0  0
  -30.1169  -23.2838   18.3834 H   0  0  0  0  0  0
  -27.5706  -20.4465   18.7409 H   0  0  0  0  0  0
  -26.6051  -21.8362   19.1821 H   0  0  0  0  0  0
  -26.4023  -24.5060   21.8248 H   0  0  0  0  0  0
  -27.7990  -25.3039   22.5581 H   0  0  0  0  0  0
  -27.7522  -23.5446   22.4426 H   0  0  0  0  0  0
  -28.7140  -16.1352   20.6119 H   0  0  0  0  0  0
  1 25  1  0  0  0
  1 30  2  0  0  0
  1 85  1  0  0  0
  2  3  1  0  0  0
  2 25  1  0  0  0
  2 86  1  0  0  0
  2 87  1  0  0  0
  3  4  1  0  0  0
  3 88  1  0  0  0
  3 89  1  0  0  0
  4  5  1  0  0  0
  4 90  1  0  0  0
  4 91  1  0  0  0
  5  6  1  0  0  0
  5 26  1  0  0  0
  5 92  1  0  0  0
  6 25  1  0  0  0
  6 93  1  0  0  0
  6 94  1  0  0  0
  7  8  2  0  0  0
  7 26  1  0  0  0
  7 29  1  0  0  0
  8  9  1  0  0  0
  8 22  1  0  0  0
  9 10  1  0  0  0
  9 27  2  0  0  0
 10 11  2  0  0  0
 10 15  1  0  0  0
 11 12  1  0  0  0
 11 95  1  0  0  0
 12 13  2  0  0  0
 12 96  1  0  0  0
 13 14  1  0  0  0
 13 31  1  0  0  0
 14 15  2  0  0  0
 14 97  1  0  0  0
 15 98  1  0  0  0
 16 17  2  0  0  0
 16 21  1  0  0  0
 16 31  1  0  0  0
 17 18  1  0  0  0
 17 99  1  0  0  0
 18 19  2  0  0  0
 18100  1  0  0  0
 19 20  1  0  0  0
 19 24  1  0  0  0
 20 21  2  0  0  0
 20101  1  0  0  0
 21 23  1  0  0  0
 22 28  1  0  0  0
 22 32  2  0  0  0
 26 27  1  0  0  0
 28102  1  0  0  0
 28103  1  0  0  0
 29104  1  0  0  0
 29105  1  0  0  0
 33 34  1  0  0  0
 33 66  1  0  0  0
 33 70  2  0  0  0
 34 36  1  0  0  0
 34 59  1  0  0  0
 34106  1  0  0  0
 35 44  2  0  0  0
 35 45  1  0  0  0
 35 68  1  0  0  0
 36 56  1  0  0  0
 36107  1  0  0  0
 37 39  1  0  0  0
 37 47  1  0  0  0
 37 66  1  0  0  0
 37108  1  0  0  0
 38 43  2  0  0  0
 38 46  1  0  0  0
 38 47  1  0  0  0
 39 64  1  0  0  0
 39 67  2  0  0  0
 40 52  1  0  0  0
 40 53  2  0  0  0
 40 58  1  0  0  0
 41109  1  0  0  0
 41110  1  0  0  0
 41111  1  0  0  0
 41 48  1  0  0  0
 42 43  1  0  0  0
 42 66  1  0  0  0
 42112  1  0  0  0
 42113  1  0  0  0
 43 44  1  0  0  0
 44114  1  0  0  0
 45 46  2  0  0  0
 45115  1  0  0  0
 46116  1  0  0  0
 47117  1  0  0  0
 47118  1  0  0  0
 48 56  1  0  0  0
 48 65  1  0  0  0
 48119  1  0  0  0
 49 50  1  0  0  0
 49 53  1  0  0  0
 49 64  1  0  0  0
 49120  1  0  0  0
 50 51  1  0  0  0
 50121  1  0  0  0
 50122  1  0  0  0
 51 52  1  0  0  0
 51123  1  0  0  0
 51124  1  0  0  0
 52125  1  0  0  0
 52126  1  0  0  0
 53 54  1  0  0  0
 54 55  2  0  0  0
 54127  1  0  0  0
 55 57  1  0  0  0
 55128  1  0  0  0
 56 69  2  0  0  0
 57 58  2  0  0  0
 57129  1  0  0  0
 58130  1  0  0  0
 59 60  1  0  0  0
 59 61  1  0  0  0
 59 62  1  0  0  0
 60131  1  0  0  0
 60132  1  0  0  0
 60133  1  0  0  0
 61134  1  0  0  0
 61135  1  0  0  0
 61136  1  0  0  0
 62137  1  0  0  0
 62138  1  0  0  0
 62139  1  0  0  0
 63 65  1  0  0  0
 63140  1  0  0  0
 63141  1  0  0  0
 63142  1  0  0  0
 64143  1  0  0  0
 65144  1  0  0  0
 68 80  1  0  0  0
 71 72  2  0  0  0
 71 73  1  0  0  0
 71145  1  0  0  0
 72 75  1  0  0  0
 72146  1  0  0  0
 73 76  2  0  0  0
 73147  1  0  0  0
 74 75  2  0  0  0
 74 76  1  0  0  0
 74148  1  0  0  0
 75 84  1  0  0  0
 76 85  1  0  0  0
 77 79  2  0  0  0
 77 81  1  0  0  0
 77 82  1  0  0  0
 78 80  2  0  0  0
 78 81  1  0  0  0
 78 84  1  0  0  0
 79149  1  0  0  0
 79150  1  0  0  0
 80 83  1  0  0  0
 81151  1  0  0  0
 81152  1  0  0  0
 82 84  1  0  0  0
 82153  1  0  0  0
 82154  1  0  0  0
 83155  1  0  0  0
 83156  1  0  0  0
 83157  1  0  0  0
 85158  1  0  0  0
M  ISO  4   1 100  68 101  80 101  85 100
M  END
> <chiral flag>
0

> <version>
0

> <s_m_source_file>
/data/baiqing/PycharmProjects/Reinvent-master-3.2/result/LINK_invent/BTK/process_docking_weight1_custom_product_contain_oxygen_bond_distance_aromatic_linkinvent_7_9_3/rearranged_h_0076.sdf

> <i_m_source_file_index>
25

> <r_mmod_Potential_Energy-OPLS-2005>
864.179260253906

> <r_mmod_Stretch_Energy-OPLS-2005>
380.129486083984

> <r_mmod_Bend_Energy-OPLS-2005>
351.197631835938

> <r_mmod_Torsional_Energy-OPLS-2005>
252.032836914062

> <r_mmod_Improper_Torsional_Energy-OPLS-2005>
12.4422512054443

> <r_mmod_Van_der_Waal_Energy-OPLS-2005>
123.929641723633

> <r_mmod_Electrostatic_Energy-OPLS-2005>
-372.685089111328

> <r_mmod_Solvation_Energy-OPLS-2005>
-201.704650878906

> <b_mmod_Minimization_Converged-OPLS-2005>
0

> <r_mmod_RMS_Derivative-OPLS-2005>
2.14195108413696

$$$$
25
                    3D
 Structure written by MMmdl.
155164  0  0  1  0            999 V2000
  -30.5774  -14.8129   20.4560 C   0  0  0  0  0  0
  -30.4371  -12.5061   19.4777 C   0  0  0  0  0  0
  -29.5129  -12.5217   18.2391 C   0  0  0  0  0  0
  -28.0400  -12.3265   18.6505 C   0  0  0  0  0  0
  -27.6337  -13.2352   19.8421 C   0  0  2  0  0  0
  -28.6779  -13.1955   20.9770 C   0  0  0  0  0  0
  -25.2457  -13.8197   20.5694 C   0  0  0  0  0  0
  -24.1765  -13.0440   20.9219 C   0  0  0  0  0  0
  -24.6375  -11.6923   20.8744 C   0  0  0  0  0  0
  -23.9055  -10.4292   21.0397 C   0  0  0  0  0  0
  -24.3619   -9.4199   21.9165 C   0  0  0  0  0  0
  -23.6296   -8.2230   22.0723 C   0  0  0  0  0  0
  -22.4276   -8.0265   21.3513 C   0  0  0  0  0  0
  -21.9918   -9.0231   20.4607 C   0  0  0  0  0  0
  -22.7237  -10.2116   20.3024 C   0  0  0  0  0  0
  -21.6854   -6.0731   22.5279 C   0  0  0  0  0  0
  -21.4011   -6.5637   23.8211 C   0  0  0  0  0  0
  -21.3668   -5.6786   24.9170 C   0  0  0  0  0  0
  -21.6056   -4.3051   24.7216 C   0  0  0  0  0  0
  -21.8816   -3.8141   23.4340 C   0  0  0  0  0  0
  -21.9188   -4.6959   22.3403 C   0  0  0  0  0  0
  -22.7780  -13.5193   21.1890 C   0  0  0  0  0  0
  -22.1657   -4.2152   21.0973 F   0  0  0  0  0  0
  -21.5638   -3.4533   25.7725 F   0  0  0  0  0  0
  -29.9685  -13.5759   20.3910 N   0  0  0  0  0  0
  -26.2885  -12.9425   20.3246 N   0  0  0  0  0  0
  -25.9304  -11.6567   20.5721 N   0  0  0  0  0  0
  -22.0459  -12.8161   22.0453 N   0  0  0  0  0  0
  -25.4123  -15.1921   20.4089 N   0  0  0  0  0  0
  -31.7776  -14.9050   20.1785 O   0  0  0  0  0  0
  -21.6636   -6.8864   21.4230 O   0  0  0  0  0  0
  -22.3468  -14.5510   20.6750 O   0  0  0  0  0  0
  -24.6379  -31.8508   23.1915 C   0  0  0  0  0  0
  -25.9172  -32.4732   23.8291 C   0  0  1  0  0  0
  -27.2268  -27.2238   20.1546 C   0  0  0  0  0  0
  -25.5950  -33.8524   24.2236 N   0  0  0  0  0  0
  -23.4369  -30.4727   21.5333 C   0  0  2  0  0  0
  -24.8870  -28.9013   20.1199 C   0  0  0  0  0  0
  -22.7508  -29.4617   22.4834 C   0  0  0  0  0  0
  -18.0303  -28.1425   22.8460 C   0  0  0  0  0  0
  -24.1487  -36.7262   23.2642 C   0  0  0  0  0  0
  -25.9859  -30.7536   21.3747 C   0  0  0  0  0  0
  -26.0589  -29.3678   20.7304 C   0  0  0  0  0  0
  -27.2335  -28.5429   20.7335 C   0  0  0  0  0  0
  -26.0349  -26.8319   19.5163 C   0  0  0  0  0  0
  -24.8796  -27.6398   19.5045 C   0  0  0  0  0  0
  -23.6637  -29.7997   20.1535 C   0  0  0  0  0  0
  -25.4110  -36.3041   24.0335 C   0  0  1  0  0  0
  -20.5922  -28.3749   23.1237 C   0  0  2  0  0  0
  -20.6790  -26.9452   22.5404 C   0  0  0  0  0  0
  -19.5758  -26.6405   21.5212 C   0  0  0  0  0  0
  -18.1946  -26.7971   22.1604 C   0  0  0  0  0  0
  -19.1563  -28.8885   23.2863 C   0  0  0  0  0  0
  -18.9479  -30.1477   23.8899 C   0  0  0  0  0  0
  -17.6472  -30.6608   24.0578 C   0  0  0  0  0  0
  -25.9054  -34.9417   23.5091 C   0  0  0  0  0  0
  -16.5365  -29.9118   23.6318 C   0  0  0  0  0  0
  -16.7282  -28.6547   23.0317 C   0  0  0  0  0  0
  -26.4514  -31.6553   25.0678 C   0  0  0  0  0  0
  -25.3732  -31.3720   26.1393 C   0  0  0  0  0  0
  -27.0350  -30.2966   24.6155 C   0  0  0  0  0  0
  -27.6087  -32.4260   25.7455 C   0  0  0  0  0  0
  -27.5572  -37.1770   24.8463 C   0  0  0  0  0  0
  -21.4203  -29.3107   22.3594 N   0  0  0  0  0  0
  -26.4273  -37.3753   23.9417 N   0  0  0  0  0  0
  -24.7078  -31.0446   22.0917 N   0  0  0  0  0  0
  -23.4176  -28.8160   23.2964 O   0  0  0  0  0  0
  -28.3059  -26.2987   20.1360 O   0  0  0  0  0  0
  -26.5624  -34.8915   22.4653 O   0  0  0  0  0  0
  -23.5523  -32.1327   23.7201 O   0  0  0  0  0  0
  -29.2244  -18.5548   20.3422 C   0  0  0  0  0  0
  -30.9088  -20.1145   21.0384 C   0  0  0  0  0  0
  -31.3792  -17.8186   21.1253 C   0  0  0  0  0  0
  -29.6020  -19.9645   20.5193 C   0  0  0  0  0  0
  -30.1103  -17.4252   20.6491 C   0  0  0  0  0  0
  -28.5385  -23.7373   20.3259 C   0  0  0  0  0  0
  -28.8649  -23.3255   18.9604 C   0  0  0  0  0  0
  -28.2412  -25.0236   20.8065 C   0  0  0  0  0  0
  -28.5903  -22.3582   21.0933 C   0  0  0  0  0  0
  -28.9817  -21.7763   18.8547 C   0  0  0  0  0  0
  -27.9427  -25.1987   22.2896 C   0  0  0  0  0  0
  -31.7590  -19.1013   21.3225 N   0  0  0  0  0  0
  -28.8096  -21.1640   20.1898 N   0  0  0  0  0  0
  -29.7757  -15.9572   20.5703 N   0  0  0  0  0  0
  -29.0389  -24.0703   17.9910 O   0  0  0  0  0  0
  -31.4751  -12.6532   19.1726 H   0  0  0  0  0  0
  -30.4061  -11.5367   19.9801 H   0  0  0  0  0  0
  -29.8158  -11.7462   17.5342 H   0  0  0  0  0  0
  -29.6199  -13.4736   17.7151 H   0  0  0  0  0  0
  -27.9105  -11.2780   18.9219 H   0  0  0  0  0  0
  -27.3832  -12.5037   17.7979 H   0  0  0  0  0  0
  -27.6149  -14.2508   19.4461 H   0  0  0  0  0  0
  -28.7323  -12.1988   21.4195 H   0  0  0  0  0  0
  -28.4025  -13.8770   21.7822 H   0  0  0  0  0  0
  -25.2780   -9.5688   22.4724 H   0  0  0  0  0  0
  -24.0029   -7.4614   22.7428 H   0  0  0  0  0  0
  -21.0874   -8.8721   19.8895 H   0  0  0  0  0  0
  -22.3701  -10.9635   19.6114 H   0  0  0  0  0  0
  -21.1990   -7.6142   23.9716 H   0  0  0  0  0  0
  -21.1508   -6.0512   25.9073 H   0  0  0  0  0  0
  -22.0592   -2.7604   23.2832 H   0  0  0  0  0  0
  -22.4107  -11.9840   22.4857 H   0  0  0  0  0  0
  -21.1029  -13.1069   22.2585 H   0  0  0  0  0  0
  -24.6380  -15.8401   20.4958 H   0  0  0  0  0  0
  -26.2511  -15.6317   20.0577 H   0  0  0  0  0  0
  -26.7234  -32.5363   23.1037 H   0  0  0  0  0  0
  -25.0117  -33.9664   25.0393 H   0  0  0  0  0  0
  -22.7423  -31.3006   21.3753 H   0  0  0  0  0  0
  -23.3774  -35.9566   23.3271 H   0  0  0  0  0  0
  -24.3596  -36.8913   22.2069 H   0  0  0  0  0  0
  -23.7228  -37.6445   23.6679 H   0  0  0  0  0  0
  -26.1219  -31.5010   20.5914 H   0  0  0  0  0  0
  -26.8702  -30.8180   21.9970 H   0  0  0  0  0  0
  -28.1340  -28.8963   21.2130 H   0  0  0  0  0  0
  -26.0012  -25.8655   19.0338 H   0  0  0  0  0  0
  -23.9833  -27.2752   19.0217 H   0  0  0  0  0  0
  -23.8080  -30.5735   19.4000 H   0  0  0  0  0  0
  -22.7792  -29.2456   19.8323 H   0  0  0  0  0  0
  -25.1301  -36.1868   25.0831 H   0  0  0  0  0  0
  -21.0038  -28.3350   24.1344 H   0  0  0  0  0  0
  -20.5692  -26.2357   23.3622 H   0  0  0  0  0  0
  -21.6642  -26.7452   22.1177 H   0  0  0  0  0  0
  -19.6928  -25.6318   21.1231 H   0  0  0  0  0  0
  -19.6713  -27.3205   20.6749 H   0  0  0  0  0  0
  -17.4206  -26.6710   21.4022 H   0  0  0  0  0  0
  -18.0342  -26.0152   22.9031 H   0  0  0  0  0  0
  -19.7957  -30.7301   24.2270 H   0  0  0  0  0  0
  -17.5029  -31.6281   24.5200 H   0  0  0  0  0  0
  -15.5372  -30.3032   23.7656 H   0  0  0  0  0  0
  -15.8678  -28.0894   22.7005 H   0  0  0  0  0  0
  -24.5967  -30.6999   25.7732 H   0  0  0  0  0  0
  -24.8861  -32.2900   26.4695 H   0  0  0  0  0  0
  -25.8061  -30.8994   27.0228 H   0  0  0  0  0  0
  -26.2921  -29.6715   24.1202 H   0  0  0  0  0  0
  -27.4088  -29.7213   25.4638 H   0  0  0  0  0  0
  -27.8766  -30.4254   23.9354 H   0  0  0  0  0  0
  -27.2754  -33.3641   26.1910 H   0  0  0  0  0  0
  -28.3981  -32.6669   25.0318 H   0  0  0  0  0  0
  -28.0644  -31.8428   26.5471 H   0  0  0  0  0  0
  -28.2554  -38.0096   24.7517 H   0  0  0  0  0  0
  -28.1107  -36.2628   24.6269 H   0  0  0  0  0  0
  -27.2293  -37.1386   25.8865 H   0  0  0  0  0  0
  -20.9373  -29.8868   21.6829 H   0  0  0  0  0  0
  -26.0153  -38.2811   24.1451 H   0  0  0  0  0  0
  -28.2370  -18.3375   19.9641 H   0  0  0  0  0  0
  -31.3103  -21.1005   21.2232 H   0  0  0  0  0  0
  -32.1201  -17.0886   21.4087 H   0  0  0  0  0  0
  -27.6298  -22.2323   21.5970 H   0  0  0  0  0  0
  -29.3653  -22.4128   21.8560 H   0  0  0  0  0  0
  -29.9408  -21.5122   18.4065 H   0  0  0  0  0  0
  -28.1883  -21.4245   18.1918 H   0  0  0  0  0  0
  -27.1481  -24.5213   22.6012 H   0  0  0  0  0  0
  -27.6290  -26.2099   22.5439 H   0  0  0  0  0  0
  -28.8320  -24.9644   22.8766 H   0  0  0  0  0  0
  -28.7909  -15.7425   20.6230 H   0  0  0  0  0  0
  1 25  1  0  0  0
  1 30  2  0  0  0
  1 84  1  0  0  0
  2  3  1  0  0  0
  2 25  1  0  0  0
  2 86  1  0  0  0
  2 87  1  0  0  0
  3  4  1  0  0  0
  3 88  1  0  0  0
  3 89  1  0  0  0
  4  5  1  0  0  0
  4 90  1  0  0  0
  4 91  1  0  0  0
  5  6  1  0  0  0
  5 26  1  0  0  0
  5 92  1  0  0  0
  6 25  1  0  0  0
  6 93  1  0  0  0
  6 94  1  0  0  0
  7  8  2  0  0  0
  7 26  1  0  0  0
  7 29  1  0  0  0
  8  9  1  0  0  0
  8 22  1  0  0  0
  9 10  1  0  0  0
  9 27  2  0  0  0
 10 11  2  0  0  0
 10 15  1  0  0  0
 11 12  1  0  0  0
 11 95  1  0  0  0
 12 13  2  0  0  0
 12 96  1  0  0  0
 13 14  1  0  0  0
 13 31  1  0  0  0
 14 15  2  0  0  0
 14 97  1  0  0  0
 15 98  1  0  0  0
 16 17  2  0  0  0
 16 21  1  0  0  0
 16 31  1  0  0  0
 17 18  1  0  0  0
 17 99  1  0  0  0
 18 19  2  0  0  0
 18100  1  0  0  0
 19 20  1  0  0  0
 19 24  1  0  0  0
 20 21  2  0  0  0
 20101  1  0  0  0
 21 23  1  0  0  0
 22 28  1  0  0  0
 22 32  2  0  0  0
 26 27  1  0  0  0
 28102  1  0  0  0
 28103  1  0  0  0
 29104  1  0  0  0
 29105  1  0  0  0
 33 34  1  0  0  0
 33 66  1  0  0  0
 33 70  2  0  0  0
 34 36  1  0  0  0
 34 59  1  0  0  0
 34106  1  0  0  0
 35 44  2  0  0  0
 35 45  1  0  0  0
 35 68  1  0  0  0
 36 56  1  0  0  0
 36107  1  0  0  0
 37 39  1  0  0  0
 37 47  1  0  0  0
 37 66  1  0  0  0
 37108  1  0  0  0
 38 43  2  0  0  0
 38 46  1  0  0  0
 38 47  1  0  0  0
 39 64  1  0  0  0
 39 67  2  0  0  0
 40 52  1  0  0  0
 40 53  2  0  0  0
 40 58  1  0  0  0
 41109  1  0  0  0
 41110  1  0  0  0
 41111  1  0  0  0
 41 48  1  0  0  0
 42 43  1  0  0  0
 42 66  1  0  0  0
 42112  1  0  0  0
 42113  1  0  0  0
 43 44  1  0  0  0
 44114  1  0  0  0
 45 46  2  0  0  0
 45115  1  0  0  0
 46116  1  0  0  0
 47117  1  0  0  0
 47118  1  0  0  0
 48 56  1  0  0  0
 48 65  1  0  0  0
 48119  1  0  0  0
 49 50  1  0  0  0
 49 53  1  0  0  0
 49 64  1  0  0  0
 49120  1  0  0  0
 50 51  1  0  0  0
 50121  1  0  0  0
 50122  1  0  0  0
 51 52  1  0  0  0
 51123  1  0  0  0
 51124  1  0  0  0
 52125  1  0  0  0
 52126  1  0  0  0
 53 54  1  0  0  0
 54 55  2  0  0  0
 54127  1  0  0  0
 55 57  1  0  0  0
 55128  1  0  0  0
 56 69  2  0  0  0
 57 58  2  0  0  0
 57129  1  0  0  0
 58130  1  0  0  0
 59 60  1  0  0  0
 59 61  1  0  0  0
 59 62  1  0  0  0
 60131  1  0  0  0
 60132  1  0  0  0
 60133  1  0  0  0
 61134  1  0  0  0
 61135  1  0  0  0
 61136  1  0  0  0
 62137  1  0  0  0
 62138  1  0  0  0
 62139  1  0  0  0
 63 65  1  0  0  0
 63140  1  0  0  0
 63141  1  0  0  0
 63142  1  0  0  0
 64143  1  0  0  0
 65144  1  0  0  0
 68 78  1  0  0  0
 71 74  2  0  0  0
 71 75  1  0  0  0
 71145  1  0  0  0
 72 74  1  0  0  0
 72 82  2  0  0  0
 72146  1  0  0  0
 73 75  2  0  0  0
 73 82  1  0  0  0
 73147  1  0  0  0
 74 83  1  0  0  0
 75 84  1  0  0  0
 76 77  1  0  0  0
 76 78  2  0  0  0
 76 79  1  0  0  0
 77 80  1  0  0  0
 77 85  2  0  0  0
 78 81  1  0  0  0
 79 83  1  0  0  0
 79148  1  0  0  0
 79149  1  0  0  0
 80 83  1  0  0  0
 80150  1  0  0  0
 80151  1  0  0  0
 81152  1  0  0  0
 81153  1  0  0  0
 81154  1  0  0  0
 84155  1  0  0  0
M  ISO  4   1 100  68 101  78 101  84 100
M  END
> <chiral flag>
0

> <version>
0

> <s_m_source_file>
/data/baiqing/PycharmProjects/Reinvent-master-3.2/result/LINK_invent/BTK/process_docking_weight1_custom_product_contain_oxygen_bond_distance_aromatic_linkinvent_7_9_3/rearranged_h_0076.sdf

> <i_m_source_file_index>
26

> <r_mmod_Potential_Energy-OPLS-2005>
268.709106445312

> <r_mmod_Stretch_Energy-OPLS-2005>
144.061019897461

> <r_mmod_Bend_Energy-OPLS-2005>
211.783676147461

> <r_mmod_Torsional_Energy-OPLS-2005>
256.237457275391

> <r_mmod_Improper_Torsional_Energy-OPLS-2005>
10.5291700363159

> <r_mmod_Van_der_Waal_Energy-OPLS-2005>
126.97045135498

> <r_mmod_Electrostatic_Energy-OPLS-2005>
-346.020751953125

> <r_mmod_Solvation_Energy-OPLS-2005>
-249.609313964844

> <b_mmod_Minimization_Converged-OPLS-2005>
0

> <r_mmod_RMS_Derivative-OPLS-2005>
4.28996896743774

$$$$
26
                    3D
 Structure written by MMmdl.
147155  0  0  1  0            999 V2000
  -30.5088  -14.9210   20.4370 C   0  0  0  0  0  0
  -30.4557  -12.5682   19.4918 C   0  0  0  0  0  0
  -29.5278  -12.5379   18.2528 C   0  0  0  0  0  0
  -28.0572  -12.3259   18.6666 C   0  0  0  0  0  0
  -27.6402  -13.2386   19.8490 C   0  0  2  0  0  0
  -28.6846  -13.2154   20.9864 C   0  0  0  0  0  0
  -25.2512  -13.8191   20.5693 C   0  0  0  0  0  0
  -24.1811  -13.0434   20.9213 C   0  0  0  0  0  0
  -24.6409  -11.6915   20.8744 C   0  0  0  0  0  0
  -23.9077  -10.4293   21.0403 C   0  0  0  0  0  0
  -24.3623   -9.4210   21.9184 C   0  0  0  0  0  0
  -23.6295   -8.2247   22.0753 C   0  0  0  0  0  0
  -22.4277   -8.0284   21.3543 C   0  0  0  0  0  0
  -21.9916   -9.0258   20.4643 C   0  0  0  0  0  0
  -22.7247  -10.2137   20.3054 C   0  0  0  0  0  0
  -21.6855   -6.0737   22.5277 C   0  0  0  0  0  0
  -21.4016   -6.5639   23.8212 C   0  0  0  0  0  0
  -21.3662   -5.6790   24.9173 C   0  0  0  0  0  0
  -21.6049   -4.3054   24.7222 C   0  0  0  0  0  0
  -21.8820   -3.8147   23.4341 C   0  0  0  0  0  0
  -21.9194   -4.6964   22.3398 C   0  0  0  0  0  0
  -22.7831  -13.5219   21.1867 C   0  0  0  0  0  0
  -22.1661   -4.2152   21.0977 F   0  0  0  0  0  0
  -21.5633   -3.4535   25.7734 F   0  0  0  0  0  0
  -29.9690  -13.6376   20.4058 N   0  0  0  0  0  0
  -26.2940  -12.9407   20.3267 N   0  0  0  0  0  0
  -25.9344  -11.6546   20.5739 N   0  0  0  0  0  0
  -22.0465  -12.8219   22.0420 N   0  0  0  0  0  0
  -25.4184  -15.1917   20.4088 N   0  0  0  0  0  0
  -31.6911  -15.0650   20.1036 O   0  0  0  0  0  0
  -21.6641   -6.8882   21.4240 O   0  0  0  0  0  0
  -22.3523  -14.5525   20.6710 O   0  0  0  0  0  0
  -24.6429  -31.8444   23.1898 C   0  0  0  0  0  0
  -25.9208  -32.4694   23.8282 C   0  0  1  0  0  0
  -27.2225  -27.1475   20.1534 C   0  0  0  0  0  0
  -25.5969  -33.8503   24.2203 N   0  0  0  0  0  0
  -23.4466  -30.4635   21.5341 C   0  0  2  0  0  0
  -24.8986  -28.8911   20.1115 C   0  0  0  0  0  0
  -22.7567  -29.4547   22.4861 C   0  0  0  0  0  0
  -18.0306  -28.1397   22.8473 C   0  0  0  0  0  0
  -24.1494  -36.7253   23.2644 C   0  0  0  0  0  0
  -26.0017  -30.7199   21.3891 C   0  0  0  0  0  0
  -26.0741  -29.3310   20.7344 C   0  0  0  0  0  0
  -27.2372  -28.4737   20.7429 C   0  0  0  0  0  0
  -26.0257  -26.8107   19.4841 C   0  0  0  0  0  0
  -24.8857  -27.6427   19.4713 C   0  0  0  0  0  0
  -23.6746  -29.7923   20.1533 C   0  0  0  0  0  0
  -25.4125  -36.3033   24.0321 C   0  0  1  0  0  0
  -20.5918  -28.3721   23.1234 C   0  0  2  0  0  0
  -20.6791  -26.9423   22.5406 C   0  0  0  0  0  0
  -19.5767  -26.6380   21.5212 C   0  0  0  0  0  0
  -18.1946  -26.7940   22.1618 C   0  0  0  0  0  0
  -19.1562  -28.8878   23.2846 C   0  0  0  0  0  0
  -18.9476  -30.1475   23.8871 C   0  0  0  0  0  0
  -17.6472  -30.6592   24.0562 C   0  0  0  0  0  0
  -25.9074  -34.9406   23.5065 C   0  0  0  0  0  0
  -16.5363  -29.9086   23.6338 C   0  0  0  0  0  0
  -16.7291  -28.6507   23.0353 C   0  0  0  0  0  0
  -26.4536  -31.6558   25.0717 C   0  0  0  0  0  0
  -25.3725  -31.3753   26.1417 C   0  0  0  0  0  0
  -27.0396  -30.2951   24.6300 C   0  0  0  0  0  0
  -27.6076  -32.4316   25.7495 C   0  0  0  0  0  0
  -27.5572  -37.1791   24.8469 C   0  0  0  0  0  0
  -21.4259  -29.3046   22.3604 N   0  0  0  0  0  0
  -26.4290  -37.3743   23.9401 N   0  0  0  0  0  0
  -24.7165  -31.0305   22.0929 N   0  0  0  0  0  0
  -23.4210  -28.8104   23.3017 O   0  0  0  0  0  0
  -28.2717  -26.1599   20.1858 O   0  0  0  0  0  0
  -26.5649  -34.8906   22.4639 O   0  0  0  0  0  0
  -23.5551  -32.1317   23.7120 O   0  0  0  0  0  0
  -30.0333  -19.9960   20.0723 C   0  0  0  0  0  0
  -27.9893  -19.5129   21.1141 C   0  0  0  0  0  0
  -30.3680  -18.5593   20.0955 C   0  0  0  0  0  0
  -28.3115  -18.1087   21.1391 C   0  0  0  0  0  0
  -28.8015  -20.5701   20.5740 C   0  0  0  0  0  0
  -29.5091  -17.5242   20.6305 C   0  0  0  0  0  0
  -28.7417  -23.5421   20.2799 C   0  0  0  0  0  0
  -27.9830  -24.7403   20.4094 C   0  0  0  0  0  0
  -28.1883  -22.0888   20.6219 C   0  0  0  0  0  0
  -29.6298  -15.9961   20.7071 N   0  0  0  0  0  0
  -27.0194  -22.1207   21.0217 O   0  0  0  0  0  0
  -31.4868  -12.7434   19.1814 H   0  0  0  0  0  0
  -30.4570  -11.6017   19.9988 H   0  0  0  0  0  0
  -29.8411  -11.7530   17.5628 H   0  0  0  0  0  0
  -29.6205  -13.4780   17.7073 H   0  0  0  0  0  0
  -27.9431  -11.2794   18.9518 H   0  0  0  0  0  0
  -27.3954  -12.4830   17.8143 H   0  0  0  0  0  0
  -27.6171  -14.2518   19.4466 H   0  0  0  0  0  0
  -28.7640  -12.2188   21.4232 H   0  0  0  0  0  0
  -28.3857  -13.8785   21.7996 H   0  0  0  0  0  0
  -25.2762   -9.5691   22.4763 H   0  0  0  0  0  0
  -24.0003   -7.4640   22.7473 H   0  0  0  0  0  0
  -21.0845   -8.8776   19.8949 H   0  0  0  0  0  0
  -22.3699  -10.9676   19.6164 H   0  0  0  0  0  0
  -21.2006   -7.6146   23.9721 H   0  0  0  0  0  0
  -21.1485   -6.0514   25.9078 H   0  0  0  0  0  0
  -22.0597   -2.7609   23.2839 H   0  0  0  0  0  0
  -22.4071  -11.9879   22.4819 H   0  0  0  0  0  0
  -21.1089  -13.1261   22.2622 H   0  0  0  0  0  0
  -24.6374  -15.8331   20.4946 H   0  0  0  0  0  0
  -26.2432  -15.6263   20.0167 H   0  0  0  0  0  0
  -26.7276  -32.5308   23.1013 H   0  0  0  0  0  0
  -25.0131  -33.9624   25.0361 H   0  0  0  0  0  0
  -22.7492  -31.2895   21.3788 H   0  0  0  0  0  0
  -23.3754  -35.9590   23.3321 H   0  0  0  0  0  0
  -24.3568  -36.8859   22.2052 H   0  0  0  0  0  0
  -23.7260  -37.6464   23.6662 H   0  0  0  0  0  0
  -26.1567  -31.4730   20.6152 H   0  0  0  0  0  0
  -26.8725  -30.7717   22.0308 H   0  0  0  0  0  0
  -28.1334  -28.8044   21.2486 H   0  0  0  0  0  0
  -25.9522  -25.8553   18.9845 H   0  0  0  0  0  0
  -23.9906  -27.3021   18.9693 H   0  0  0  0  0  0
  -23.8129  -30.5668   19.3981 H   0  0  0  0  0  0
  -22.7902  -29.2336   19.8409 H   0  0  0  0  0  0
  -25.1319  -36.1861   25.0814 H   0  0  0  0  0  0
  -21.0008  -28.3312   24.1355 H   0  0  0  0  0  0
  -20.5676  -26.2337   23.3629 H   0  0  0  0  0  0
  -21.6657  -26.7431   22.1201 H   0  0  0  0  0  0
  -19.6927  -25.6283   21.1257 H   0  0  0  0  0  0
  -19.6708  -27.3180   20.6733 H   0  0  0  0  0  0
  -17.4219  -26.6690   21.4017 H   0  0  0  0  0  0
  -18.0341  -26.0082   22.9011 H   0  0  0  0  0  0
  -19.7950  -30.7302   24.2223 H   0  0  0  0  0  0
  -17.5024  -31.6267   24.5173 H   0  0  0  0  0  0
  -15.5363  -30.2979   23.7677 H   0  0  0  0  0  0
  -15.8689  -28.0821   22.7078 H   0  0  0  0  0  0
  -24.5942  -30.7048   25.7757 H   0  0  0  0  0  0
  -24.8872  -32.2930   26.4746 H   0  0  0  0  0  0
  -25.8019  -30.9015   27.0252 H   0  0  0  0  0  0
  -26.3014  -29.6674   24.1296 H   0  0  0  0  0  0
  -27.3994  -29.7251   25.4877 H   0  0  0  0  0  0
  -27.8931  -30.4183   23.9631 H   0  0  0  0  0  0
  -27.2690  -33.3648   26.2007 H   0  0  0  0  0  0
  -28.3921  -32.6814   25.0338 H   0  0  0  0  0  0
  -28.0709  -31.8476   26.5457 H   0  0  0  0  0  0
  -28.2607  -38.0069   24.7473 H   0  0  0  0  0  0
  -28.1050  -36.2595   24.6349 H   0  0  0  0  0  0
  -27.2283  -37.1497   25.8873 H   0  0  0  0  0  0
  -20.9476  -29.8749   21.6769 H   0  0  0  0  0  0
  -26.0158  -38.2818   24.1382 H   0  0  0  0  0  0
  -30.7538  -20.6719   19.6333 H   0  0  0  0  0  0
  -27.0319  -19.7712   21.5436 H   0  0  0  0  0  0
  -31.3151  -18.2572   19.6702 H   0  0  0  0  0  0
  -27.5719  -17.4523   21.5766 H   0  0  0  0  0  0
  -29.7629  -23.5971   19.9354 H   0  0  0  0  0  0
  -26.9650  -24.6440   20.7610 H   0  0  0  0  0  0
  -28.7617  -15.5894   21.0189 H   0  0  0  0  0  0
  1 25  1  0  0  0
  1 30  2  0  0  0
  1 80  1  0  0  0
  2  3  1  0  0  0
  2 25  1  0  0  0
  2 82  1  0  0  0
  2 83  1  0  0  0
  3  4  1  0  0  0
  3 84  1  0  0  0
  3 85  1  0  0  0
  4  5  1  0  0  0
  4 86  1  0  0  0
  4 87  1  0  0  0
  5  6  1  0  0  0
  5 26  1  0  0  0
  5 88  1  0  0  0
  6 25  1  0  0  0
  6 89  1  0  0  0
  6 90  1  0  0  0
  7  8  2  0  0  0
  7 26  1  0  0  0
  7 29  1  0  0  0
  8  9  1  0  0  0
  8 22  1  0  0  0
  9 10  1  0  0  0
  9 27  2  0  0  0
 10 11  2  0  0  0
 10 15  1  0  0  0
 11 12  1  0  0  0
 11 91  1  0  0  0
 12 13  2  0  0  0
 12 92  1  0  0  0
 13 14  1  0  0  0
 13 31  1  0  0  0
 14 15  2  0  0  0
 14 93  1  0  0  0
 15 94  1  0  0  0
 16 17  2  0  0  0
 16 21  1  0  0  0
 16 31  1  0  0  0
 17 18  1  0  0  0
 17 95  1  0  0  0
 18 19  2  0  0  0
 18 96  1  0  0  0
 19 20  1  0  0  0
 19 24  1  0  0  0
 20 21  2  0  0  0
 20 97  1  0  0  0
 21 23  1  0  0  0
 22 28  1  0  0  0
 22 32  2  0  0  0
 26 27  1  0  0  0
 28 98  1  0  0  0
 28 99  1  0  0  0
 29100  1  0  0  0
 29101  1  0  0  0
 33 34  1  0  0  0
 33 66  1  0  0  0
 33 70  2  0  0  0
 34 36  1  0  0  0
 34 59  1  0  0  0
 34102  1  0  0  0
 35 44  2  0  0  0
 35 45  1  0  0  0
 35 68  1  0  0  0
 36 56  1  0  0  0
 36103  1  0  0  0
 37 39  1  0  0  0
 37 47  1  0  0  0
 37 66  1  0  0  0
 37104  1  0  0  0
 38 43  2  0  0  0
 38 46  1  0  0  0
 38 47  1  0  0  0
 39 64  1  0  0  0
 39 67  2  0  0  0
 40 52  1  0  0  0
 40 53  2  0  0  0
 40 58  1  0  0  0
 41105  1  0  0  0
 41106  1  0  0  0
 41107  1  0  0  0
 41 48  1  0  0  0
 42 43  1  0  0  0
 42 66  1  0  0  0
 42108  1  0  0  0
 42109  1  0  0  0
 43 44  1  0  0  0
 44110  1  0  0  0
 45 46  2  0  0  0
 45111  1  0  0  0
 46112  1  0  0  0
 47113  1  0  0  0
 47114  1  0  0  0
 48 56  1  0  0  0
 48 65  1  0  0  0
 48115  1  0  0  0
 49 50  1  0  0  0
 49 53  1  0  0  0
 49 64  1  0  0  0
 49116  1  0  0  0
 50 51  1  0  0  0
 50117  1  0  0  0
 50118  1  0  0  0
 51 52  1  0  0  0
 51119  1  0  0  0
 51120  1  0  0  0
 52121  1  0  0  0
 52122  1  0  0  0
 53 54  1  0  0  0
 54 55  2  0  0  0
 54123  1  0  0  0
 55 57  1  0  0  0
 55124  1  0  0  0
 56 69  2  0  0  0
 57 58  2  0  0  0
 57125  1  0  0  0
 58126  1  0  0  0
 59 60  1  0  0  0
 59 61  1  0  0  0
 59 62  1  0  0  0
 60127  1  0  0  0
 60128  1  0  0  0
 60129  1  0  0  0
 61130  1  0  0  0
 61131  1  0  0  0
 61132  1  0  0  0
 62133  1  0  0  0
 62134  1  0  0  0
 62135  1  0  0  0
 63 65  1  0  0  0
 63136  1  0  0  0
 63137  1  0  0  0
 63138  1  0  0  0
 64139  1  0  0  0
 65140  1  0  0  0
 68 78  1  0  0  0
 71 73  2  0  0  0
 71 75  1  0  0  0
 71141  1  0  0  0
 72 74  1  0  0  0
 72 75  2  0  0  0
 72142  1  0  0  0
 73 76  1  0  0  0
 73143  1  0  0  0
 74 76  2  0  0  0
 74144  1  0  0  0
 75 79  1  0  0  0
 76 80  1  0  0  0
 77 78  2  0  0  0
 77 79  1  0  0  0
 77145  1  0  0  0
 78146  1  0  0  0
 79 81  2  0  0  0
 80147  1  0  0  0
M  ISO  4   1 100  68 101  78 101  80 100
M  END
> <chiral flag>
0

> <version>
0

> <s_m_source_file>
/data/baiqing/PycharmProjects/Reinvent-master-3.2/result/LINK_invent/BTK/process_docking_weight1_custom_product_contain_oxygen_bond_distance_aromatic_linkinvent_7_9_3/rearranged_h_0076.sdf

> <i_m_source_file_index>
27

> <r_mmod_Potential_Energy-OPLS-2005>
471.501892089844

> <r_mmod_Stretch_Energy-OPLS-2005>
223.005508422852

> <r_mmod_Bend_Energy-OPLS-2005>
289.633758544922

> <r_mmod_Torsional_Energy-OPLS-2005>
202.82861328125

> <r_mmod_Improper_Torsional_Energy-OPLS-2005>
3.68732810020447

> <r_mmod_Van_der_Waal_Energy-OPLS-2005>
138.887313842773

> <r_mmod_Electrostatic_Energy-OPLS-2005>
-351.960021972656

> <r_mmod_Solvation_Energy-OPLS-2005>
-213.619598388672

> <b_mmod_Minimization_Converged-OPLS-2005>
0

> <r_mmod_RMS_Derivative-OPLS-2005>
0.761943936347961

$$$$
27
                    3D
 Structure written by MMmdl.
160168  0  0  1  0            999 V2000
  -30.5055  -15.0244   20.4286 C   0  0  0  0  0  0
  -30.4428  -12.6519   19.4852 C   0  0  0  0  0  0
  -29.5198  -12.5386   18.2502 C   0  0  0  0  0  0
  -28.0558  -12.3098   18.6749 C   0  0  0  0  0  0
  -27.6182  -13.2521   19.8266 C   0  0  2  0  0  0
  -28.6636  -13.3163   20.9574 C   0  0  0  0  0  0
  -25.2417  -13.8213   20.5742 C   0  0  0  0  0  0
  -24.1733  -13.0424   20.9236 C   0  0  0  0  0  0
  -24.6371  -11.6910   20.8754 C   0  0  0  0  0  0
  -23.9063  -10.4282   21.0402 C   0  0  0  0  0  0
  -24.3615   -9.4200   21.9185 C   0  0  0  0  0  0
  -23.6294   -8.2232   22.0748 C   0  0  0  0  0  0
  -22.4271   -8.0281   21.3547 C   0  0  0  0  0  0
  -21.9912   -9.0245   20.4638 C   0  0  0  0  0  0
  -22.7236  -10.2129   20.3050 C   0  0  0  0  0  0
  -21.6853   -6.0736   22.5274 C   0  0  0  0  0  0
  -21.4017   -6.5634   23.8212 C   0  0  0  0  0  0
  -21.3662   -5.6784   24.9170 C   0  0  0  0  0  0
  -21.6043   -4.3046   24.7218 C   0  0  0  0  0  0
  -21.8818   -3.8144   23.4336 C   0  0  0  0  0  0
  -21.9193   -4.6963   22.3398 C   0  0  0  0  0  0
  -22.7764  -13.5188   21.1907 C   0  0  0  0  0  0
  -22.1659   -4.2150   21.0975 F   0  0  0  0  0  0
  -21.5635   -3.4527   25.7731 F   0  0  0  0  0  0
  -29.9197  -13.7588   20.3363 N   0  0  0  0  0  0
  -26.2824  -12.9445   20.3219 N   0  0  0  0  0  0
  -25.9293  -11.6567   20.5707 N   0  0  0  0  0  0
  -22.0412  -12.8177   22.0461 N   0  0  0  0  0  0
  -25.4080  -15.1951   20.4250 N   0  0  0  0  0  0
  -31.7341  -15.0675   20.2877 O   0  0  0  0  0  0
  -21.6637   -6.8878   21.4237 O   0  0  0  0  0  0
  -22.3448  -14.5505   20.6770 O   0  0  0  0  0  0
  -24.6475  -31.8399   23.1838 C   0  0  0  0  0  0
  -25.9221  -32.4701   23.8242 C   0  0  1  0  0  0
  -27.2251  -27.0772   20.1718 C   0  0  0  0  0  0
  -25.5944  -33.8506   24.2166 N   0  0  0  0  0  0
  -23.4567  -30.4569   21.5296 C   0  0  2  0  0  0
  -24.9097  -28.8680   20.1198 C   0  0  0  0  0  0
  -22.7622  -29.4536   22.4845 C   0  0  0  0  0  0
  -18.0331  -28.1382   22.8511 C   0  0  0  0  0  0
  -24.1489  -36.7229   23.2658 C   0  0  0  0  0  0
  -26.0194  -30.6916   21.3966 C   0  0  0  0  0  0
  -26.0894  -29.2971   20.7409 C   0  0  0  0  0  0
  -27.2479  -28.4222   20.7441 C   0  0  0  0  0  0
  -26.0165  -26.7633   19.5122 C   0  0  0  0  0  0
  -24.8897  -27.6157   19.4884 C   0  0  0  0  0  0
  -23.6892  -29.7784   20.1541 C   0  0  0  0  0  0
  -25.4129  -36.3056   24.0338 C   0  0  1  0  0  0
  -20.5949  -28.3719   23.1241 C   0  0  2  0  0  0
  -20.6828  -26.9420   22.5422 C   0  0  0  0  0  0
  -19.5783  -26.6365   21.5253 C   0  0  0  0  0  0
  -18.1959  -26.7928   22.1648 C   0  0  0  0  0  0
  -19.1589  -28.8867   23.2874 C   0  0  0  0  0  0
  -18.9503  -30.1473   23.8880 C   0  0  0  0  0  0
  -17.6498  -30.6587   24.0564 C   0  0  0  0  0  0
  -25.9086  -34.9431   23.5080 C   0  0  0  0  0  0
  -16.5389  -29.9082   23.6338 C   0  0  0  0  0  0
  -16.7318  -28.6486   23.0394 C   0  0  0  0  0  0
  -26.4507  -31.6587   25.0705 C   0  0  0  0  0  0
  -25.3639  -31.3806   26.1368 C   0  0  0  0  0  0
  -27.0407  -30.2994   24.6316 C   0  0  0  0  0  0
  -27.6035  -32.4364   25.7472 C   0  0  0  0  0  0
  -27.5583  -37.1781   24.8476 C   0  0  0  0  0  0
  -21.4305  -29.3034   22.3601 N   0  0  0  0  0  0
  -26.4295  -37.3768   23.9420 N   0  0  0  0  0  0
  -24.7279  -31.0201   22.0902 N   0  0  0  0  0  0
  -23.4261  -28.8092   23.3021 O   0  0  0  0  0  0
  -28.2779  -26.0716   20.2056 O   0  0  0  0  0  0
  -26.5680  -34.8933   22.4663 O   0  0  0  0  0  0
  -23.5583  -32.1287   23.7035 O   0  0  0  0  0  0
  -30.2374  -19.1265   22.7527 C   0  0  0  0  0  0
  -30.3253  -17.8837   22.0897 C   0  0  0  0  0  0
  -29.2905  -18.9750   20.1940 C   0  0  0  0  0  0
  -29.6838  -20.3108   22.1879 C   0  0  0  0  0  0
  -29.8094  -17.6930   20.7958 C   0  0  0  0  0  0
  -29.2508  -20.3525   20.8158 C   0  0  0  0  0  0
  -29.4767  -21.4008   23.1641 C   0  0  0  0  0  0
  -30.4600  -23.4756   20.8355 C   0  0  0  0  0  0
  -31.6822  -22.7285   20.3109 C   0  0  0  0  0  0
  -28.0284  -24.5088   20.3613 C   0  0  0  0  0  0
  -29.1053  -23.1755   20.1619 C   0  0  2  0  0  0
  -28.3086  -22.0372   23.2356 N   0  0  0  0  0  0
  -29.7073  -16.2160   20.3244 N   0  0  0  0  0  0
  -28.7025  -21.6247   20.1989 N   0  0  0  0  0  0
  -30.4311  -21.7447   24.0323 N   0  3  0  0  0  0
  -30.5940  -24.2546   21.7792 O   0  0  0  0  0  0
  -31.4674  -12.8432   19.1645 H   0  0  0  0  0  0
  -30.4723  -11.7140   20.0422 H   0  0  0  0  0  0
  -29.8544  -11.7304   17.5984 H   0  0  0  0  0  0
  -29.5885  -13.4546   17.6595 H   0  0  0  0  0  0
  -27.9658  -11.2724   18.9958 H   0  0  0  0  0  0
  -27.3888  -12.4220   17.8188 H   0  0  0  0  0  0
  -27.5626  -14.2454   19.3804 H   0  0  0  0  0  0
  -28.7773  -12.3463   21.4449 H   0  0  0  0  0  0
  -28.3506  -14.0233   21.7285 H   0  0  0  0  0  0
  -25.2762   -9.5682   22.4750 H   0  0  0  0  0  0
  -24.0008   -7.4621   22.7470 H   0  0  0  0  0  0
  -21.0841   -8.8753   19.8947 H   0  0  0  0  0  0
  -22.3686  -10.9661   19.6152 H   0  0  0  0  0  0
  -21.2004   -7.6140   23.9720 H   0  0  0  0  0  0
  -21.1493   -6.0509   25.9079 H   0  0  0  0  0  0
  -22.0600   -2.7604   23.2825 H   0  0  0  0  0  0
  -22.4032  -11.9820   22.4821 H   0  0  0  0  0  0
  -21.1034  -13.1204   22.2691 H   0  0  0  0  0  0
  -24.6451  -15.8493   20.5635 H   0  0  0  0  0  0
  -26.2604  -15.6463   20.1224 H   0  0  0  0  0  0
  -26.7272  -32.5264   23.0948 H   0  0  0  0  0  0
  -25.0084  -33.9590   25.0317 H   0  0  0  0  0  0
  -22.7623  -31.2841   21.3678 H   0  0  0  0  0  0
  -23.3801  -35.9509   23.3316 H   0  0  0  0  0  0
  -24.3589  -36.8853   22.2077 H   0  0  0  0  0  0
  -23.7172  -37.6400   23.6677 H   0  0  0  0  0  0
  -26.1917  -31.4425   20.6243 H   0  0  0  0  0  0
  -26.8866  -30.7397   22.0454 H   0  0  0  0  0  0
  -28.1464  -28.7549   21.2438 H   0  0  0  0  0  0
  -25.9133  -25.8130   19.0119 H   0  0  0  0  0  0
  -23.9930  -27.2808   18.9865 H   0  0  0  0  0  0
  -23.8345  -30.5475   19.3949 H   0  0  0  0  0  0
  -22.8041  -29.2235   19.8392 H   0  0  0  0  0  0
  -25.1317  -36.1898   25.0829 H   0  0  0  0  0  0
  -21.0037  -28.3296   24.1365 H   0  0  0  0  0  0
  -20.5772  -26.2310   23.3633 H   0  0  0  0  0  0
  -21.6679  -26.7448   22.1174 H   0  0  0  0  0  0
  -19.6950  -25.6273   21.1280 H   0  0  0  0  0  0
  -19.6719  -27.3191   20.6791 H   0  0  0  0  0  0
  -17.4253  -26.6739   21.4023 H   0  0  0  0  0  0
  -18.0312  -26.0049   22.9007 H   0  0  0  0  0  0
  -19.7978  -30.7297   24.2235 H   0  0  0  0  0  0
  -17.5055  -31.6279   24.5153 H   0  0  0  0  0  0
  -15.5391  -30.2985   23.7658 H   0  0  0  0  0  0
  -15.8721  -28.0788   22.7119 H   0  0  0  0  0  0
  -24.5808  -30.7188   25.7644 H   0  0  0  0  0  0
  -24.8825  -32.3005   26.4702 H   0  0  0  0  0  0
  -25.7851  -30.9003   27.0204 H   0  0  0  0  0  0
  -26.3051  -29.6698   24.1302 H   0  0  0  0  0  0
  -27.4032  -29.7311   25.4888 H   0  0  0  0  0  0
  -27.8940  -30.4291   23.9660 H   0  0  0  0  0  0
  -27.2646  -33.3715   26.1940 H   0  0  0  0  0  0
  -28.3866  -32.6844   25.0292 H   0  0  0  0  0  0
  -28.0662  -31.8546   26.5448 H   0  0  0  0  0  0
  -28.2610  -38.0078   24.7557 H   0  0  0  0  0  0
  -28.1074  -36.2613   24.6272 H   0  0  0  0  0  0
  -27.2297  -37.1375   25.8879 H   0  0  0  0  0  0
  -20.9544  -29.8694   21.6721 H   0  0  0  0  0  0
  -26.0184  -38.2840   24.1429 H   0  0  0  0  0  0
  -30.5462  -19.1323   23.7890 H   0  0  0  0  0  0
  -30.7074  -17.0382   22.6443 H   0  0  0  0  0  0
  -28.8749  -18.8859   19.2017 H   0  0  0  0  0  0
  -31.4251  -22.1130   19.4497 H   0  0  0  0  0  0
  -32.0893  -22.0811   21.0876 H   0  0  0  0  0  0
  -32.4631  -23.4260   20.0087 H   0  0  0  0  0  0
  -27.5946  -24.3993   21.3556 H   0  0  0  0  0  0
  -27.2049  -24.2708   19.6915 H   0  0  0  0  0  0
  -29.3425  -23.2682   19.1009 H   0  0  0  0  0  0
  -27.6195  -21.8246   22.5271 H   0  0  0  0  0  0
  -28.0804  -22.7169   23.9428 H   0  0  0  0  0  0
  -28.7907  -15.9906   19.9711 H   0  0  0  0  0  0
  -28.1663  -21.4138   19.3619 H   0  0  0  0  0  0
  -31.3402  -21.3079   23.9806 H   0  0  0  0  0  0
  -30.3025  -22.4862   24.7023 H   0  0  0  0  0  0
  1 25  1  0  0  0
  1 30  2  0  0  0
  1 83  1  0  0  0
  2  3  1  0  0  0
  2 25  1  0  0  0
  2 87  1  0  0  0
  2 88  1  0  0  0
  3  4  1  0  0  0
  3 89  1  0  0  0
  3 90  1  0  0  0
  4  5  1  0  0  0
  4 91  1  0  0  0
  4 92  1  0  0  0
  5  6  1  0  0  0
  5 26  1  0  0  0
  5 93  1  0  0  0
  6 25  1  0  0  0
  6 94  1  0  0  0
  6 95  1  0  0  0
  7  8  2  0  0  0
  7 26  1  0  0  0
  7 29  1  0  0  0
  8  9  1  0  0  0
  8 22  1  0  0  0
  9 10  1  0  0  0
  9 27  2  0  0  0
 10 11  2  0  0  0
 10 15  1  0  0  0
 11 12  1  0  0  0
 11 96  1  0  0  0
 12 13  2  0  0  0
 12 97  1  0  0  0
 13 14  1  0  0  0
 13 31  1  0  0  0
 14 15  2  0  0  0
 14 98  1  0  0  0
 15 99  1  0  0  0
 16 17  2  0  0  0
 16 21  1  0  0  0
 16 31  1  0  0  0
 17 18  1  0  0  0
 17100  1  0  0  0
 18 19  2  0  0  0
 18101  1  0  0  0
 19 20  1  0  0  0
 19 24  1  0  0  0
 20 21  2  0  0  0
 20102  1  0  0  0
 21 23  1  0  0  0
 22 28  1  0  0  0
 22 32  2  0  0  0
 26 27  1  0  0  0
 28103  1  0  0  0
 28104  1  0  0  0
 29105  1  0  0  0
 29106  1  0  0  0
 33 34  1  0  0  0
 33 66  1  0  0  0
 33 70  2  0  0  0
 34 36  1  0  0  0
 34 59  1  0  0  0
 34107  1  0  0  0
 35 44  2  0  0  0
 35 45  1  0  0  0
 35 68  1  0  0  0
 36 56  1  0  0  0
 36108  1  0  0  0
 37 39  1  0  0  0
 37 47  1  0  0  0
 37 66  1  0  0  0
 37109  1  0  0  0
 38 43  2  0  0  0
 38 46  1  0  0  0
 38 47  1  0  0  0
 39 64  1  0  0  0
 39 67  2  0  0  0
 40 52  1  0  0  0
 40 53  2  0  0  0
 40 58  1  0  0  0
 41110  1  0  0  0
 41111  1  0  0  0
 41112  1  0  0  0
 41 48  1  0  0  0
 42 43  1  0  0  0
 42 66  1  0  0  0
 42113  1  0  0  0
 42114  1  0  0  0
 43 44  1  0  0  0
 44115  1  0  0  0
 45 46  2  0  0  0
 45116  1  0  0  0
 46117  1  0  0  0
 47118  1  0  0  0
 47119  1  0  0  0
 48 56  1  0  0  0
 48 65  1  0  0  0
 48120  1  0  0  0
 49 50  1  0  0  0
 49 53  1  0  0  0
 49 64  1  0  0  0
 49121  1  0  0  0
 50 51  1  0  0  0
 50122  1  0  0  0
 50123  1  0  0  0
 51 52  1  0  0  0
 51124  1  0  0  0
 51125  1  0  0  0
 52126  1  0  0  0
 52127  1  0  0  0
 53 54  1  0  0  0
 54 55  2  0  0  0
 54128  1  0  0  0
 55 57  1  0  0  0
 55129  1  0  0  0
 56 69  2  0  0  0
 57 58  2  0  0  0
 57130  1  0  0  0
 58131  1  0  0  0
 59 60  1  0  0  0
 59 61  1  0  0  0
 59 62  1  0  0  0
 60132  1  0  0  0
 60133  1  0  0  0
 60134  1  0  0  0
 61135  1  0  0  0
 61136  1  0  0  0
 61137  1  0  0  0
 62138  1  0  0  0
 62139  1  0  0  0
 62140  1  0  0  0
 63 65  1  0  0  0
 63141  1  0  0  0
 63142  1  0  0  0
 63143  1  0  0  0
 64144  1  0  0  0
 65145  1  0  0  0
 68 80  1  0  0  0
 71 72  2  0  0  0
 71 74  1  0  0  0
 71146  1  0  0  0
 72 75  1  0  0  0
 72147  1  0  0  0
 73 75  2  0  0  0
 73 76  1  0  0  0
 73148  1  0  0  0
 74 76  2  0  0  0
 74 77  1  0  0  0
 75 83  1  0  0  0
 76 84  1  0  0  0
 77 82  1  0  0  0
 77 85  2  0  0  0
 78 79  1  0  0  0
 78 81  1  0  0  0
 78 86  2  0  0  0
 79149  1  0  0  0
 79150  1  0  0  0
 79151  1  0  0  0
 80152  1  0  0  0
 80153  1  0  0  0
 80 81  1  0  0  0
 81 84  1  0  0  0
 81154  1  0  0  0
 82155  1  0  0  0
 82156  1  0  0  0
 83157  1  0  0  0
 84158  1  0  0  0
 85159  1  0  0  0
 85160  1  0  0  0
M  CHG  1  85   1
M  ISO  4   1 100  68 101  80 101  83 100
M  END
> <chiral flag>
0

> <version>
0

> <s_m_source_file>
/data/baiqing/PycharmProjects/Reinvent-master-3.2/result/LINK_invent/BTK/process_docking_weight1_custom_product_contain_oxygen_bond_distance_aromatic_linkinvent_7_9_3/rearranged_h_0076.sdf

> <i_m_source_file_index>
28

> <r_mmod_Potential_Energy-OPLS-2005>
572.231811523438

> <r_mmod_Stretch_Energy-OPLS-2005>
335.969421386719

> <r_mmod_Bend_Energy-OPLS-2005>
315.167144775391

> <r_mmod_Torsional_Energy-OPLS-2005>
257.290008544922

> <r_mmod_Improper_Torsional_Energy-OPLS-2005>
13.0574836730957

> <r_mmod_Van_der_Waal_Energy-OPLS-2005>
131.214477539062

> <r_mmod_Electrostatic_Energy-OPLS-2005>
-271.645874023438

> <r_mmod_Solvation_Energy-OPLS-2005>
-460.636138916016

> <b_mmod_Minimization_Converged-OPLS-2005>
0

> <r_mmod_RMS_Derivative-OPLS-2005>
2.60480713844299

$$$$
28
                    3D
 Structure written by MMmdl.
159168  0  0  1  0            999 V2000
  -30.5955  -14.6739   20.4965 C   0  0  0  0  0  0
  -30.4443  -12.4119   19.4600 C   0  0  0  0  0  0
  -29.5130  -12.5042   18.2291 C   0  0  0  0  0  0
  -28.0356  -12.3359   18.6389 C   0  0  0  0  0  0
  -27.6523  -13.2130   19.8594 C   0  0  2  0  0  0
  -28.6941  -13.0780   20.9926 C   0  0  0  0  0  0
  -25.2590  -13.8168   20.5671 C   0  0  0  0  0  0
  -24.1862  -13.0455   20.9256 C   0  0  0  0  0  0
  -24.6399  -11.6912   20.8776 C   0  0  0  0  0  0
  -23.9059  -10.4301   21.0429 C   0  0  0  0  0  0
  -24.3614   -9.4207   21.9195 C   0  0  0  0  0  0
  -23.6291   -8.2242   22.0757 C   0  0  0  0  0  0
  -22.4274   -8.0285   21.3545 C   0  0  0  0  0  0
  -21.9907   -9.0262   20.4649 C   0  0  0  0  0  0
  -22.7238  -10.2146   20.3069 C   0  0  0  0  0  0
  -21.6850   -6.0733   22.5278 C   0  0  0  0  0  0
  -21.4013   -6.5638   23.8211 C   0  0  0  0  0  0
  -21.3663   -5.6794   24.9174 C   0  0  0  0  0  0
  -21.6044   -4.3053   24.7226 C   0  0  0  0  0  0
  -21.8818   -3.8147   23.4348 C   0  0  0  0  0  0
  -21.9189   -4.6962   22.3402 C   0  0  0  0  0  0
  -22.7888  -13.5266   21.1885 C   0  0  0  0  0  0
  -22.1658   -4.2147   21.0979 F   0  0  0  0  0  0
  -21.5629   -3.4538   25.7737 F   0  0  0  0  0  0
  -30.0068  -13.4353   20.4325 N   0  0  0  0  0  0
  -26.2979  -12.9323   20.3261 N   0  0  0  0  0  0
  -25.9311  -11.6493   20.5740 N   0  0  0  0  0  0
  -22.0491  -12.8269   22.0413 N   0  0  0  0  0  0
  -25.4351  -15.1873   20.3914 N   0  0  0  0  0  0
  -31.7593  -14.8406   20.1195 O   0  0  0  0  0  0
  -21.6641   -6.8882   21.4241 O   0  0  0  0  0  0
  -22.3624  -14.5583   20.6711 O   0  0  0  0  0  0
  -24.6259  -31.8581   23.2013 C   0  0  0  0  0  0
  -25.9104  -32.4765   23.8347 C   0  0  1  0  0  0
  -27.2265  -27.3037   20.1267 C   0  0  0  0  0  0
  -25.5917  -33.8565   24.2272 N   0  0  0  0  0  0
  -23.4209  -30.4795   21.5439 C   0  0  2  0  0  0
  -24.8695  -28.9284   20.1122 C   0  0  0  0  0  0
  -22.7473  -29.4611   22.4943 C   0  0  0  0  0  0
  -18.0283  -28.1377   22.8492 C   0  0  0  0  0  0
  -24.1486  -36.7288   23.2642 C   0  0  0  0  0  0
  -25.9622  -30.7814   21.3766 C   0  0  0  0  0  0
  -26.0354  -29.4047   20.7255 C   0  0  0  0  0  0
  -27.2139  -28.5998   20.7304 C   0  0  0  0  0  0
  -26.0430  -26.8851   19.4785 C   0  0  0  0  0  0
  -24.8747  -27.6730   19.4824 C   0  0  0  0  0  0
  -23.6363  -29.8091   20.1605 C   0  0  0  0  0  0
  -25.4112  -36.3080   24.0333 C   0  0  1  0  0  0
  -20.5882  -28.3679   23.1289 C   0  0  2  0  0  0
  -20.6762  -26.9402   22.5413 C   0  0  0  0  0  0
  -19.5739  -26.6381   21.5212 C   0  0  0  0  0  0
  -18.1924  -26.7918   22.1630 C   0  0  0  0  0  0
  -19.1535  -28.8848   23.2882 C   0  0  0  0  0  0
  -18.9456  -30.1451   23.8897 C   0  0  0  0  0  0
  -17.6457  -30.6581   24.0564 C   0  0  0  0  0  0
  -25.9049  -34.9447   23.5108 C   0  0  0  0  0  0
  -16.5351  -29.9078   23.6331 C   0  0  0  0  0  0
  -16.7270  -28.6493   23.0359 C   0  0  0  0  0  0
  -26.4490  -31.6579   25.0717 C   0  0  0  0  0  0
  -25.3727  -31.3714   26.1446 C   0  0  0  0  0  0
  -27.0328  -30.3001   24.6173 C   0  0  0  0  0  0
  -27.6050  -32.4321   25.7482 C   0  0  0  0  0  0
  -27.5578  -37.1802   24.8472 C   0  0  0  0  0  0
  -21.4187  -29.3028   22.3684 N   0  0  0  0  0  0
  -26.4294  -37.3774   23.9409 N   0  0  0  0  0  0
  -24.6885  -31.0576   22.0972 N   0  0  0  0  0  0
  -23.4191  -28.8161   23.3033 O   0  0  0  0  0  0
  -28.3515  -26.4615   20.1488 O   0  0  0  0  0  0
  -26.5627  -34.8923   22.4680 O   0  0  0  0  0  0
  -23.5424  -32.1397   23.7329 O   0  0  0  0  0  0
  -30.9401  -19.3189   20.0869 C   0  0  0  0  0  0
  -30.9296  -17.8943   20.1787 C   0  0  0  0  0  0
  -28.7454  -19.4305   21.0172 C   0  0  0  0  0  0
  -29.8636  -20.1538   20.5224 C   0  0  0  0  0  0
  -29.8267  -17.1799   20.7115 C   0  0  0  0  0  0
  -28.7231  -17.9940   21.1265 C   0  0  0  0  0  0
  -29.0390  -24.1794   20.4314 C   0  0  0  0  0  0
  -30.4987  -24.5631   20.6403 C   0  0  0  0  0  0
  -26.7961  -17.7068   22.6587 C   0  0  0  0  0  0
  -28.7866  -22.5884   20.4882 C   0  0  0  0  0  0
  -31.4080  -23.4850   21.2183 C   0  0  0  0  0  0
  -31.2979  -22.1711   20.4419 C   0  0  0  0  0  0
  -28.0519  -25.0223   20.2300 N   0  0  0  0  0  0
  -29.9448  -21.6069   20.4935 N   0  0  0  0  0  0
  -27.5571  -17.3401   21.6176 N   0  0  0  0  0  0
  -29.7627  -15.7122   20.8487 N   0  0  0  0  0  0
  -30.9713  -25.6833   20.4037 O   0  0  0  0  0  0
  -27.0272  -18.6671   23.3978 O   0  0  0  0  0  0
  -31.4832  -12.5498   19.1557 H   0  0  0  0  0  0
  -30.3956  -11.4189   19.9092 H   0  0  0  0  0  0
  -29.7843  -11.7449   17.4949 H   0  0  0  0  0  0
  -29.6486  -13.4678   17.7345 H   0  0  0  0  0  0
  -27.8783  -11.2838   18.8789 H   0  0  0  0  0  0
  -27.3815  -12.5557   17.7944 H   0  0  0  0  0  0
  -27.6688  -14.2453   19.5102 H   0  0  0  0  0  0
  -28.7142  -12.0556   21.3731 H   0  0  0  0  0  0
  -28.4312  -13.7060   21.8449 H   0  0  0  0  0  0
  -25.2759   -9.5681   22.4765 H   0  0  0  0  0  0
  -23.9997   -7.4633   22.7471 H   0  0  0  0  0  0
  -21.0838   -8.8787   19.8957 H   0  0  0  0  0  0
  -22.3697  -10.9686   19.6182 H   0  0  0  0  0  0
  -21.2008   -7.6145   23.9715 H   0  0  0  0  0  0
  -21.1487   -6.0521   25.9076 H   0  0  0  0  0  0
  -22.0594   -2.7608   23.2846 H   0  0  0  0  0  0
  -22.4074  -11.9922   22.4820 H   0  0  0  0  0  0
  -21.1109  -13.1316   22.2590 H   0  0  0  0  0  0
  -24.5657  -15.7106   20.3602 H   0  0  0  0  0  0
  -26.0314  -15.4436   19.6143 H   0  0  0  0  0  0
  -26.7168  -32.5429   23.1092 H   0  0  0  0  0  0
  -25.0047  -33.9714   25.0404 H   0  0  0  0  0  0
  -22.7146  -31.3001   21.3982 H   0  0  0  0  0  0
  -23.3747  -35.9622   23.3313 H   0  0  0  0  0  0
  -24.3576  -36.8897   22.2055 H   0  0  0  0  0  0
  -23.7243  -37.6496   23.6655 H   0  0  0  0  0  0
  -26.0947  -31.5395   20.6033 H   0  0  0  0  0  0
  -26.8424  -30.8332   22.0055 H   0  0  0  0  0  0
  -28.1090  -28.9589   21.2181 H   0  0  0  0  0  0
  -26.0067  -25.9262   18.9811 H   0  0  0  0  0  0
  -23.9828  -27.3028   18.9961 H   0  0  0  0  0  0
  -23.7551  -30.5828   19.4013 H   0  0  0  0  0  0
  -22.7559  -29.2373   19.8612 H   0  0  0  0  0  0
  -25.1292  -36.1936   25.0827 H   0  0  0  0  0  0
  -20.9976  -28.3244   24.1410 H   0  0  0  0  0  0
  -20.5653  -26.2289   23.3611 H   0  0  0  0  0  0
  -21.6631  -26.7422   22.1215 H   0  0  0  0  0  0
  -19.6898  -25.6294   21.1232 H   0  0  0  0  0  0
  -19.6671  -27.3198   20.6748 H   0  0  0  0  0  0
  -17.4192  -26.6679   21.4032 H   0  0  0  0  0  0
  -18.0322  -26.0055   22.9023 H   0  0  0  0  0  0
  -19.7934  -30.7265   24.2269 H   0  0  0  0  0  0
  -17.5012  -31.6262   24.5157 H   0  0  0  0  0  0
  -15.5349  -30.2980   23.7648 H   0  0  0  0  0  0
  -15.8673  -28.0805   22.7084 H   0  0  0  0  0  0
  -24.5909  -30.7052   25.7780 H   0  0  0  0  0  0
  -24.8908  -32.2872   26.4874 H   0  0  0  0  0  0
  -25.8058  -30.8897   27.0220 H   0  0  0  0  0  0
  -26.2896  -29.6752   24.1204 H   0  0  0  0  0  0
  -27.4030  -29.7257   25.4674 H   0  0  0  0  0  0
  -27.8765  -30.4283   23.9388 H   0  0  0  0  0  0
  -27.2659  -33.3623   26.2052 H   0  0  0  0  0  0
  -28.3853  -32.6878   25.0301 H   0  0  0  0  0  0
  -28.0722  -31.8452   26.5401 H   0  0  0  0  0  0
  -28.2613  -38.0084   24.7500 H   0  0  0  0  0  0
  -28.1061  -36.2616   24.6321 H   0  0  0  0  0  0
  -27.2297  -37.1477   25.8878 H   0  0  0  0  0  0
  -20.9375  -29.8751   21.6886 H   0  0  0  0  0  0
  -26.0176  -38.2854   24.1395 H   0  0  0  0  0  0
  -31.8285  -19.7571   19.6565 H   0  0  0  0  0  0
  -31.8016  -17.3610   19.8295 H   0  0  0  0  0  0
  -27.8830  -19.9935   21.3427 H   0  0  0  0  0  0
  -25.9425  -17.0220   22.7790 H   0  0  0  0  0  0
  -28.1888  -22.3938   21.3790 H   0  0  0  0  0  0
  -28.1470  -22.3304   19.6436 H   0  0  0  0  0  0
  -31.1484  -23.3317   22.2658 H   0  0  0  0  0  0
  -32.4376  -23.8421   21.1991 H   0  0  0  0  0  0
  -32.0244  -21.4935   20.8912 H   0  0  0  0  0  0
  -31.5991  -22.3136   19.4024 H   0  0  0  0  0  0
  -27.2596  -16.4931   21.1521 H   0  0  0  0  0  0
  -28.8825  -15.3722   21.1985 H   0  0  0  0  0  0
  1 25  1  0  0  0
  1 30  2  0  0  0
  1 86  1  0  0  0
  2  3  1  0  0  0
  2 25  1  0  0  0
  2 89  1  0  0  0
  2 90  1  0  0  0
  3  4  1  0  0  0
  3 91  1  0  0  0
  3 92  1  0  0  0
  4  5  1  0  0  0
  4 93  1  0  0  0
  4 94  1  0  0  0
  5  6  1  0  0  0
  5 26  1  0  0  0
  5 95  1  0  0  0
  6 25  1  0  0  0
  6 96  1  0  0  0
  6 97  1  0  0  0
  7  8  2  0  0  0
  7 26  1  0  0  0
  7 29  1  0  0  0
  8  9  1  0  0  0
  8 22  1  0  0  0
  9 10  1  0  0  0
  9 27  2  0  0  0
 10 11  2  0  0  0
 10 15  1  0  0  0
 11 12  1  0  0  0
 11 98  1  0  0  0
 12 13  2  0  0  0
 12 99  1  0  0  0
 13 14  1  0  0  0
 13 31  1  0  0  0
 14 15  2  0  0  0
 14100  1  0  0  0
 15101  1  0  0  0
 16 17  2  0  0  0
 16 21  1  0  0  0
 16 31  1  0  0  0
 17 18  1  0  0  0
 17102  1  0  0  0
 18 19  2  0  0  0
 18103  1  0  0  0
 19 20  1  0  0  0
 19 24  1  0  0  0
 20 21  2  0  0  0
 20104  1  0  0  0
 21 23  1  0  0  0
 22 28  1  0  0  0
 22 32  2  0  0  0
 26 27  1  0  0  0
 28105  1  0  0  0
 28106  1  0  0  0
 29107  1  0  0  0
 29108  1  0  0  0
 33 34  1  0  0  0
 33 66  1  0  0  0
 33 70  2  0  0  0
 34 36  1  0  0  0
 34 59  1  0  0  0
 34109  1  0  0  0
 35 44  2  0  0  0
 35 45  1  0  0  0
 35 68  1  0  0  0
 36 56  1  0  0  0
 36110  1  0  0  0
 37 39  1  0  0  0
 37 47  1  0  0  0
 37 66  1  0  0  0
 37111  1  0  0  0
 38 43  2  0  0  0
 38 46  1  0  0  0
 38 47  1  0  0  0
 39 64  1  0  0  0
 39 67  2  0  0  0
 40 52  1  0  0  0
 40 53  2  0  0  0
 40 58  1  0  0  0
 41112  1  0  0  0
 41113  1  0  0  0
 41114  1  0  0  0
 41 48  1  0  0  0
 42 43  1  0  0  0
 42 66  1  0  0  0
 42115  1  0  0  0
 42116  1  0  0  0
 43 44  1  0  0  0
 44117  1  0  0  0
 45 46  2  0  0  0
 45118  1  0  0  0
 46119  1  0  0  0
 47120  1  0  0  0
 47121  1  0  0  0
 48 56  1  0  0  0
 48 65  1  0  0  0
 48122  1  0  0  0
 49 50  1  0  0  0
 49 53  1  0  0  0
 49 64  1  0  0  0
 49123  1  0  0  0
 50 51  1  0  0  0
 50124  1  0  0  0
 50125  1  0  0  0
 51 52  1  0  0  0
 51126  1  0  0  0
 51127  1  0  0  0
 52128  1  0  0  0
 52129  1  0  0  0
 53 54  1  0  0  0
 54 55  2  0  0  0
 54130  1  0  0  0
 55 57  1  0  0  0
 55131  1  0  0  0
 56 69  2  0  0  0
 57 58  2  0  0  0
 57132  1  0  0  0
 58133  1  0  0  0
 59 60  1  0  0  0
 59 61  1  0  0  0
 59 62  1  0  0  0
 60134  1  0  0  0
 60135  1  0  0  0
 60136  1  0  0  0
 61137  1  0  0  0
 61138  1  0  0  0
 61139  1  0  0  0
 62140  1  0  0  0
 62141  1  0  0  0
 62142  1  0  0  0
 63 65  1  0  0  0
 63143  1  0  0  0
 63144  1  0  0  0
 63145  1  0  0  0
 64146  1  0  0  0
 65147  1  0  0  0
 68 83  1  0  0  0
 71 72  2  0  0  0
 71 74  1  0  0  0
 71148  1  0  0  0
 72 75  1  0  0  0
 72149  1  0  0  0
 73 74  2  0  0  0
 73 76  1  0  0  0
 73150  1  0  0  0
 74 84  1  0  0  0
 75 76  2  0  0  0
 75 86  1  0  0  0
 76 85  1  0  0  0
 77 78  1  0  0  0
 77 80  1  0  0  0
 77 83  2  0  0  0
 78 81  1  0  0  0
 78 87  2  0  0  0
 79 85  1  0  0  0
 79 88  2  0  0  0
 79151  1  0  0  0
 80 84  1  0  0  0
 80152  1  0  0  0
 80153  1  0  0  0
 81 82  1  0  0  0
 81154  1  0  0  0
 81155  1  0  0  0
 82 84  1  0  0  0
 82156  1  0  0  0
 82157  1  0  0  0
 85158  1  0  0  0
 86159  1  0  0  0
M  ISO  4   1 100  68 101  83 101  86 100
M  END
> <chiral flag>
0

> <version>
0

> <s_m_source_file>
/data/baiqing/PycharmProjects/Reinvent-master-3.2/result/LINK_invent/BTK/process_docking_weight1_custom_product_contain_oxygen_bond_distance_aromatic_linkinvent_7_9_3/rearranged_h_0076.sdf

> <i_m_source_file_index>
29

> <r_mmod_Potential_Energy-OPLS-2005>
38.0579948425293

> <r_mmod_Stretch_Energy-OPLS-2005>
104.315574645996

> <r_mmod_Bend_Energy-OPLS-2005>
158.290176391602

> <r_mmod_Torsional_Energy-OPLS-2005>
225.174819946289

> <r_mmod_Improper_Torsional_Energy-OPLS-2005>
8.94748687744141

> <r_mmod_Van_der_Waal_Energy-OPLS-2005>
160.742248535156

> <r_mmod_Electrostatic_Energy-OPLS-2005>
-396.998870849609

> <r_mmod_Solvation_Energy-OPLS-2005>
-279.039764404297

> <b_mmod_Minimization_Converged-OPLS-2005>
0

> <r_mmod_RMS_Derivative-OPLS-2005>
1.04530620574951

$$$$
29
                    3D
 Structure written by MMmdl.
160168  0  0  1  0            999 V2000
  -30.5619  -14.7124   20.5288 C   0  0  0  0  0  0
  -30.4545  -12.4448   19.4597 C   0  0  0  0  0  0
  -29.5210  -12.5298   18.2311 C   0  0  0  0  0  0
  -28.0432  -12.3521   18.6387 C   0  0  0  0  0  0
  -27.6526  -13.2171   19.8664 C   0  0  2  0  0  0
  -28.6938  -13.0641   20.9983 C   0  0  0  0  0  0
  -25.2546  -13.8145   20.5702 C   0  0  0  0  0  0
  -24.1839  -13.0414   20.9209 C   0  0  0  0  0  0
  -24.6401  -11.6880   20.8742 C   0  0  0  0  0  0
  -23.9060  -10.4268   21.0401 C   0  0  0  0  0  0
  -24.3630   -9.4194   21.9171 C   0  0  0  0  0  0
  -23.6307   -8.2233   22.0748 C   0  0  0  0  0  0
  -22.4281   -8.0271   21.3554 C   0  0  0  0  0  0
  -21.9907   -9.0236   20.4651 C   0  0  0  0  0  0
  -22.7234  -10.2116   20.3055 C   0  0  0  0  0  0
  -21.6857   -6.0733   22.5295 C   0  0  0  0  0  0
  -21.4004   -6.5639   23.8224 C   0  0  0  0  0  0
  -21.3662   -5.6795   24.9187 C   0  0  0  0  0  0
  -21.6043   -4.3058   24.7235 C   0  0  0  0  0  0
  -21.8822   -3.8148   23.4356 C   0  0  0  0  0  0
  -21.9195   -4.6961   22.3412 C   0  0  0  0  0  0
  -22.7868  -13.5205   21.1891 C   0  0  0  0  0  0
  -22.1653   -4.2147   21.0989 F   0  0  0  0  0  0
  -21.5653   -3.4531   25.7750 F   0  0  0  0  0  0
  -30.0043  -13.4544   20.4465 N   0  0  0  0  0  0
  -26.2986  -12.9337   20.3349 N   0  0  0  0  0  0
  -25.9332  -11.6483   20.5750 N   0  0  0  0  0  0
  -22.0499  -12.8198   22.0433 N   0  0  0  0  0  0
  -25.4201  -15.1884   20.4103 N   0  0  0  0  0  0
  -31.7031  -14.9220   20.0984 O   0  0  0  0  0  0
  -21.6643   -6.8874   21.4252 O   0  0  0  0  0  0
  -22.3549  -14.5518   20.6735 O   0  0  0  0  0  0
  -24.6272  -31.8604   23.2004 C   0  0  0  0  0  0
  -25.9099  -32.4782   23.8354 C   0  0  1  0  0  0
  -27.2241  -27.2754   20.1488 C   0  0  0  0  0  0
  -25.5893  -33.8580   24.2270 N   0  0  0  0  0  0
  -23.4223  -30.4808   21.5473 C   0  0  2  0  0  0
  -24.8695  -28.9194   20.1287 C   0  0  0  0  0  0
  -22.7479  -29.4633   22.4974 C   0  0  0  0  0  0
  -18.0291  -28.1406   22.8496 C   0  0  0  0  0  0
  -24.1476  -36.7301   23.2638 C   0  0  0  0  0  0
  -25.9658  -30.7710   21.3843 C   0  0  0  0  0  0
  -26.0370  -29.3851   20.7495 C   0  0  0  0  0  0
  -27.2143  -28.5725   20.7589 C   0  0  0  0  0  0
  -26.0510  -26.8966   19.4590 C   0  0  0  0  0  0
  -24.8789  -27.6785   19.4745 C   0  0  0  0  0  0
  -23.6407  -29.8081   20.1673 C   0  0  0  0  0  0
  -25.4104  -36.3092   24.0335 C   0  0  1  0  0  0
  -20.5885  -28.3712   23.1289 C   0  0  2  0  0  0
  -20.6784  -26.9431   22.5427 C   0  0  0  0  0  0
  -19.5761  -26.6396   21.5234 C   0  0  0  0  0  0
  -18.1931  -26.7951   22.1633 C   0  0  0  0  0  0
  -19.1539  -28.8885   23.2883 C   0  0  0  0  0  0
  -18.9460  -30.1488   23.8897 C   0  0  0  0  0  0
  -17.6458  -30.6606   24.0567 C   0  0  0  0  0  0
  -25.9053  -34.9461   23.5117 C   0  0  0  0  0  0
  -16.5356  -29.9101   23.6331 C   0  0  0  0  0  0
  -16.7279  -28.6523   23.0348 C   0  0  0  0  0  0
  -26.4457  -31.6597   25.0735 C   0  0  0  0  0  0
  -25.3654  -31.3781   26.1445 C   0  0  0  0  0  0
  -27.0312  -30.3016   24.6219 C   0  0  0  0  0  0
  -27.6021  -32.4334   25.7491 C   0  0  0  0  0  0
  -27.5591  -37.1784   24.8451 C   0  0  0  0  0  0
  -21.4201  -29.3052   22.3690 N   0  0  0  0  0  0
  -26.4283  -37.3790   23.9428 N   0  0  0  0  0  0
  -24.6906  -31.0563   22.0997 N   0  0  0  0  0  0
  -23.4192  -28.8181   23.3069 O   0  0  0  0  0  0
  -28.3649  -26.4565   20.0171 O   0  0  0  0  0  0
  -26.5640  -34.8930   22.4694 O   0  0  0  0  0  0
  -23.5423  -32.1432   23.7297 O   0  0  0  0  0  0
  -28.1892  -19.0283   19.9046 C   0  0  0  0  0  0
  -28.5704  -17.6490   19.9490 C   0  0  0  0  0  0
  -29.8868  -19.5639   21.4982 C   0  0  0  0  0  0
  -28.8033  -20.0457   20.6969 C   0  0  0  0  0  0
  -29.6079  -17.1596   20.7847 C   0  0  0  0  0  0
  -30.2694  -18.1715   21.5513 C   0  0  0  0  0  0
  -28.1407  -21.4408   20.7720 C   0  0  0  0  0  0
  -28.7493  -25.3436   20.8231 C   0  0  0  0  0  0
  -28.0154  -23.9729   20.6019 C   0  0  0  0  0  0
  -31.9546  -26.3263   22.1321 C   0  0  0  0  0  0
  -30.5134  -26.6419   21.7091 C   0  0  0  0  0  0
  -29.7555  -25.4021   21.6047 N   0  0  0  0  0  0
  -26.6978  -24.0888   20.3320 N   0  3  0  0  0  0
  -29.7369  -15.7035   21.0197 N   0  0  0  0  0  0
  -26.8094  -21.3396   20.9328 N   0  3  0  0  0  0
  -28.6749  -22.7310   20.7182 N   0  0  0  0  0  0
  -31.2381  -17.7996   22.4222 F   0  0  0  0  0  0
  -31.4888  -12.6104   19.1516 H   0  0  0  0  0  0
  -30.4272  -11.4454   19.8915 H   0  0  0  0  0  0
  -29.8030  -11.7756   17.4936 H   0  0  0  0  0  0
  -29.6546  -13.4961   17.7424 H   0  0  0  0  0  0
  -27.8930  -11.2975   18.8713 H   0  0  0  0  0  0
  -27.3952  -12.5704   17.7900 H   0  0  0  0  0  0
  -27.6676  -14.2559   19.5353 H   0  0  0  0  0  0
  -28.7244  -12.0298   21.3437 H   0  0  0  0  0  0
  -28.4214  -13.6560   21.8746 H   0  0  0  0  0  0
  -25.2778   -9.5682   22.4717 H   0  0  0  0  0  0
  -24.0037   -7.4626   22.7468 H   0  0  0  0  0  0
  -21.0843   -8.8739   19.8950 H   0  0  0  0  0  0
  -22.3693  -10.9644   19.6163 H   0  0  0  0  0  0
  -21.1953   -7.6138   23.9726 H   0  0  0  0  0  0
  -21.1506   -6.0523   25.9102 H   0  0  0  0  0  0
  -22.0596   -2.7600   23.2867 H   0  0  0  0  0  0
  -22.4086  -11.9874   22.4868 H   0  0  0  0  0  0
  -21.1092  -13.1226   22.2584 H   0  0  0  0  0  0
  -24.6382  -15.8280   20.5107 H   0  0  0  0  0  0
  -26.2505  -15.6336   20.0485 H   0  0  0  0  0  0
  -26.7164  -32.5440   23.1104 H   0  0  0  0  0  0
  -24.9964  -33.9733   25.0360 H   0  0  0  0  0  0
  -22.7180  -31.3013   21.3989 H   0  0  0  0  0  0
  -23.3757  -35.9611   23.3269 H   0  0  0  0  0  0
  -24.3577  -36.8956   22.2061 H   0  0  0  0  0  0
  -23.7201  -37.6480   23.6685 H   0  0  0  0  0  0
  -26.0952  -31.5187   20.6007 H   0  0  0  0  0  0
  -26.8484  -30.8344   22.0080 H   0  0  0  0  0  0
  -28.1168  -28.9381   21.2277 H   0  0  0  0  0  0
  -26.0416  -26.0020   18.8531 H   0  0  0  0  0  0
  -23.9995  -27.3382   18.9424 H   0  0  0  0  0  0
  -23.7603  -30.5800   19.4057 H   0  0  0  0  0  0
  -22.7604  -29.2366   19.8670 H   0  0  0  0  0  0
  -25.1278  -36.1944   25.0828 H   0  0  0  0  0  0
  -20.9984  -28.3298   24.1405 H   0  0  0  0  0  0
  -20.5714  -26.2323   23.3630 H   0  0  0  0  0  0
  -21.6648  -26.7474   22.1201 H   0  0  0  0  0  0
  -19.6924  -25.6302   21.1272 H   0  0  0  0  0  0
  -19.6711  -27.3204   20.6762 H   0  0  0  0  0  0
  -17.4211  -26.6714   21.4017 H   0  0  0  0  0  0
  -18.0318  -26.0100   22.9037 H   0  0  0  0  0  0
  -19.7939  -30.7305   24.2265 H   0  0  0  0  0  0
  -17.5013  -31.6282   24.5171 H   0  0  0  0  0  0
  -15.5358  -30.2994   23.7671 H   0  0  0  0  0  0
  -15.8678  -28.0848   22.7047 H   0  0  0  0  0  0
  -24.5772  -30.7213   25.7747 H   0  0  0  0  0  0
  -24.8898  -32.2977   26.4875 H   0  0  0  0  0  0
  -25.7901  -30.8909   27.0231 H   0  0  0  0  0  0
  -26.2927  -29.6774   24.1180 H   0  0  0  0  0  0
  -27.3938  -29.7264   25.4749 H   0  0  0  0  0  0
  -27.8816  -30.4310   23.9521 H   0  0  0  0  0  0
  -27.2637  -33.3618   26.2111 H   0  0  0  0  0  0
  -28.3791  -32.6935   25.0286 H   0  0  0  0  0  0
  -28.0746  -31.8441   26.5364 H   0  0  0  0  0  0
  -28.2561  -38.0123   24.7569 H   0  0  0  0  0  0
  -28.1131  -36.2668   24.6179 H   0  0  0  0  0  0
  -27.2330  -37.1314   25.8850 H   0  0  0  0  0  0
  -20.9403  -29.8734   21.6837 H   0  0  0  0  0  0
  -26.0172  -38.2861   24.1451 H   0  0  0  0  0  0
  -27.3462  -19.2904   19.2784 H   0  0  0  0  0  0
  -27.9977  -16.9442   19.3640 H   0  0  0  0  0  0
  -30.3961  -20.2457   22.1611 H   0  0  0  0  0  0
  -32.5592  -27.2338   22.1727 H   0  0  0  0  0  0
  -32.4395  -25.6464   21.4296 H   0  0  0  0  0  0
  -31.9877  -25.8682   23.1213 H   0  0  0  0  0  0
  -30.5382  -27.2033   20.7722 H   0  0  0  0  0  0
  -30.0586  -27.2967   22.4537 H   0  0  0  0  0  0
  -26.2873  -25.0124   20.3746 H   0  0  0  0  0  0
  -26.1455  -23.3391   19.9458 H   0  0  0  0  0  0
  -28.8945  -15.2962   21.3957 H   0  0  0  0  0  0
  -26.4010  -20.4196   20.9059 H   0  0  0  0  0  0
  -26.3113  -22.0534   21.4411 H   0  0  0  0  0  0
  -29.6751  -22.7899   20.8008 H   0  0  0  0  0  0
  1 25  1  0  0  0
  1 30  2  0  0  0
  1 84  1  0  0  0
  2  3  1  0  0  0
  2 25  1  0  0  0
  2 88  1  0  0  0
  2 89  1  0  0  0
  3  4  1  0  0  0
  3 90  1  0  0  0
  3 91  1  0  0  0
  4  5  1  0  0  0
  4 92  1  0  0  0
  4 93  1  0  0  0
  5  6  1  0  0  0
  5 26  1  0  0  0
  5 94  1  0  0  0
  6 25  1  0  0  0
  6 95  1  0  0  0
  6 96  1  0  0  0
  7  8  2  0  0  0
  7 26  1  0  0  0
  7 29  1  0  0  0
  8  9  1  0  0  0
  8 22  1  0  0  0
  9 10  1  0  0  0
  9 27  2  0  0  0
 10 11  2  0  0  0
 10 15  1  0  0  0
 11 12  1  0  0  0
 11 97  1  0  0  0
 12 13  2  0  0  0
 12 98  1  0  0  0
 13 14  1  0  0  0
 13 31  1  0  0  0
 14 15  2  0  0  0
 14 99  1  0  0  0
 15100  1  0  0  0
 16 17  2  0  0  0
 16 21  1  0  0  0
 16 31  1  0  0  0
 17 18  1  0  0  0
 17101  1  0  0  0
 18 19  2  0  0  0
 18102  1  0  0  0
 19 20  1  0  0  0
 19 24  1  0  0  0
 20 21  2  0  0  0
 20103  1  0  0  0
 21 23  1  0  0  0
 22 28  1  0  0  0
 22 32  2  0  0  0
 26 27  1  0  0  0
 28104  1  0  0  0
 28105  1  0  0  0
 29106  1  0  0  0
 29107  1  0  0  0
 33 34  1  0  0  0
 33 66  1  0  0  0
 33 70  2  0  0  0
 34 36  1  0  0  0
 34 59  1  0  0  0
 34108  1  0  0  0
 35 44  2  0  0  0
 35 45  1  0  0  0
 35 68  1  0  0  0
 36 56  1  0  0  0
 36109  1  0  0  0
 37 39  1  0  0  0
 37 47  1  0  0  0
 37 66  1  0  0  0
 37110  1  0  0  0
 38 43  2  0  0  0
 38 46  1  0  0  0
 38 47  1  0  0  0
 39 64  1  0  0  0
 39 67  2  0  0  0
 40 52  1  0  0  0
 40 53  2  0  0  0
 40 58  1  0  0  0
 41111  1  0  0  0
 41112  1  0  0  0
 41113  1  0  0  0
 41 48  1  0  0  0
 42 43  1  0  0  0
 42 66  1  0  0  0
 42114  1  0  0  0
 42115  1  0  0  0
 43 44  1  0  0  0
 44116  1  0  0  0
 45 46  2  0  0  0
 45117  1  0  0  0
 46118  1  0  0  0
 47119  1  0  0  0
 47120  1  0  0  0
 48 56  1  0  0  0
 48 65  1  0  0  0
 48121  1  0  0  0
 49 50  1  0  0  0
 49 53  1  0  0  0
 49 64  1  0  0  0
 49122  1  0  0  0
 50 51  1  0  0  0
 50123  1  0  0  0
 50124  1  0  0  0
 51 52  1  0  0  0
 51125  1  0  0  0
 51126  1  0  0  0
 52127  1  0  0  0
 52128  1  0  0  0
 53 54  1  0  0  0
 54 55  2  0  0  0
 54129  1  0  0  0
 55 57  1  0  0  0
 55130  1  0  0  0
 56 69  2  0  0  0
 57 58  2  0  0  0
 57131  1  0  0  0
 58132  1  0  0  0
 59 60  1  0  0  0
 59 61  1  0  0  0
 59 62  1  0  0  0
 60133  1  0  0  0
 60134  1  0  0  0
 60135  1  0  0  0
 61136  1  0  0  0
 61137  1  0  0  0
 61138  1  0  0  0
 62139  1  0  0  0
 62140  1  0  0  0
 62141  1  0  0  0
 63 65  1  0  0  0
 63142  1  0  0  0
 63143  1  0  0  0
 63144  1  0  0  0
 64145  1  0  0  0
 65146  1  0  0  0
 68 78  1  0  0  0
 71 72  2  0  0  0
 71 74  1  0  0  0
 71147  1  0  0  0
 72 75  1  0  0  0
 72148  1  0  0  0
 73 74  2  0  0  0
 73 76  1  0  0  0
 73149  1  0  0  0
 74 77  1  0  0  0
 75 76  2  0  0  0
 75 84  1  0  0  0
 76 87  1  0  0  0
 77 85  2  0  0  0
 77 86  1  0  0  0
 78 79  1  0  0  0
 78 82  2  0  0  0
 79 83  2  0  0  0
 79 86  1  0  0  0
 80 81  1  0  0  0
 80150  1  0  0  0
 80151  1  0  0  0
 80152  1  0  0  0
 81 82  1  0  0  0
 81153  1  0  0  0
 81154  1  0  0  0
 83155  1  0  0  0
 83156  1  0  0  0
 84157  1  0  0  0
 85158  1  0  0  0
 85159  1  0  0  0
 86160  1  0  0  0
M  CHG  2  83   1  85   1
M  ISO  4   1 100  68 101  78 101  84 100
M  END
> <chiral flag>
0

> <version>
0

> <s_m_source_file>
/data/baiqing/PycharmProjects/Reinvent-master-3.2/result/LINK_invent/BTK/process_docking_weight1_custom_product_contain_oxygen_bond_distance_aromatic_linkinvent_7_9_3/rearranged_h_0076.sdf

> <i_m_source_file_index>
30

> <r_mmod_Potential_Energy-OPLS-2005>
-313.397827148438

> <r_mmod_Stretch_Energy-OPLS-2005>
114.539421081543

> <r_mmod_Bend_Energy-OPLS-2005>
196.836486816406

> <r_mmod_Torsional_Energy-OPLS-2005>
294.770080566406

> <r_mmod_Improper_Torsional_Energy-OPLS-2005>
11.7018337249756

> <r_mmod_Van_der_Waal_Energy-OPLS-2005>
151.066055297852

> <r_mmod_Electrostatic_Energy-OPLS-2005>
-76.4422836303711

> <r_mmod_Solvation_Energy-OPLS-2005>
-1072.4599609375

> <b_mmod_Minimization_Converged-OPLS-2005>
0

> <r_mmod_RMS_Derivative-OPLS-2005>
4.02102088928223

$$$$
30
                    3D
 Structure written by MMmdl.
168176  0  0  1  0            999 V2000
  -30.6311  -14.5690   20.5534 C   0  0  0  0  0  0
  -30.4473  -12.3615   19.4315 C   0  0  0  0  0  0
  -29.5070  -12.5147   18.2142 C   0  0  0  0  0  0
  -28.0280  -12.3581   18.6255 C   0  0  0  0  0  0
  -27.6630  -13.2036   19.8742 C   0  0  2  0  0  0
  -28.7073  -12.9919   20.9944 C   0  0  0  0  0  0
  -25.2609  -13.8148   20.5678 C   0  0  0  0  0  0
  -24.1856  -13.0436   20.9185 C   0  0  0  0  0  0
  -24.6400  -11.6900   20.8739 C   0  0  0  0  0  0
  -23.9063  -10.4292   21.0412 C   0  0  0  0  0  0
  -24.3613   -9.4202   21.9190 C   0  0  0  0  0  0
  -23.6287   -8.2238   22.0758 C   0  0  0  0  0  0
  -22.4269   -8.0281   21.3548 C   0  0  0  0  0  0
  -21.9910   -9.0255   20.4645 C   0  0  0  0  0  0
  -22.7238  -10.2134   20.3057 C   0  0  0  0  0  0
  -21.6852   -6.0736   22.5283 C   0  0  0  0  0  0
  -21.4011   -6.5640   23.8214 C   0  0  0  0  0  0
  -21.3657   -5.6793   24.9178 C   0  0  0  0  0  0
  -21.6046   -4.3057   24.7228 C   0  0  0  0  0  0
  -21.8819   -3.8148   23.4350 C   0  0  0  0  0  0
  -21.9188   -4.6966   22.3405 C   0  0  0  0  0  0
  -22.7879  -13.5240   21.1848 C   0  0  0  0  0  0
  -22.1659   -4.2152   21.0985 F   0  0  0  0  0  0
  -21.5631   -3.4538   25.7744 F   0  0  0  0  0  0
  -30.0324  -13.3438   20.4483 N   0  0  0  0  0  0
  -26.3035  -12.9304   20.3349 N   0  0  0  0  0  0
  -25.9325  -11.6471   20.5753 N   0  0  0  0  0  0
  -22.0510  -12.8231   22.0394 N   0  0  0  0  0  0
  -25.4350  -15.1870   20.4080 N   0  0  0  0  0  0
  -31.7591  -14.7944   20.1023 O   0  0  0  0  0  0
  -21.6633   -6.8881   21.4248 O   0  0  0  0  0  0
  -22.3575  -14.5552   20.6697 O   0  0  0  0  0  0
  -24.6211  -31.8639   23.2058 C   0  0  0  0  0  0
  -25.9080  -32.4803   23.8368 C   0  0  1  0  0  0
  -27.2333  -27.3765   20.0894 C   0  0  0  0  0  0
  -25.5919  -33.8603   24.2296 N   0  0  0  0  0  0
  -23.4121  -30.4889   21.5484 C   0  0  2  0  0  0
  -24.8583  -28.9520   20.1112 C   0  0  0  0  0  0
  -22.7438  -29.4653   22.4957 C   0  0  0  0  0  0
  -18.0281  -28.1383   22.8497 C   0  0  0  0  0  0
  -24.1492  -36.7305   23.2634 C   0  0  0  0  0  0
  -25.9484  -30.8124   21.3674 C   0  0  0  0  0  0
  -26.0262  -29.4446   20.7070 C   0  0  0  0  0  0
  -27.2167  -28.6663   20.6904 C   0  0  0  0  0  0
  -26.0313  -26.9098   19.5054 C   0  0  0  0  0  0
  -24.8588  -27.6864   19.5057 C   0  0  0  0  0  0
  -23.6226  -29.8244   20.1631 C   0  0  0  0  0  0
  -25.4114  -36.3095   24.0328 C   0  0  1  0  0  0
  -20.5874  -28.3690   23.1296 C   0  0  2  0  0  0
  -20.6772  -26.9419   22.5412 C   0  0  0  0  0  0
  -19.5749  -26.6388   21.5212 C   0  0  0  0  0  0
  -18.1926  -26.7930   22.1622 C   0  0  0  0  0  0
  -19.1532  -28.8850   23.2892 C   0  0  0  0  0  0
  -18.9459  -30.1454   23.8903 C   0  0  0  0  0  0
  -17.6460  -30.6589   24.0566 C   0  0  0  0  0  0
  -25.9050  -34.9469   23.5112 C   0  0  0  0  0  0
  -16.5350  -29.9090   23.6329 C   0  0  0  0  0  0
  -16.7269  -28.6504   23.0357 C   0  0  0  0  0  0
  -26.4487  -31.6594   25.0717 C   0  0  0  0  0  0
  -25.3734  -31.3715   26.1450 C   0  0  0  0  0  0
  -27.0328  -30.3027   24.6131 C   0  0  0  0  0  0
  -27.6053  -32.4323   25.7484 C   0  0  0  0  0  0
  -27.5593  -37.1789   24.8448 C   0  0  0  0  0  0
  -21.4157  -29.3051   22.3692 N   0  0  0  0  0  0
  -26.4286  -37.3793   23.9423 N   0  0  0  0  0  0
  -24.6796  -31.0692   22.0987 N   0  0  0  0  0  0
  -23.4178  -28.8193   23.3023 O   0  0  0  0  0  0
  -28.3572  -26.5509   20.1473 O   0  0  0  0  0  0
  -26.5617  -34.8930   22.4676 O   0  0  0  0  0  0
  -23.5391  -32.1418   23.7414 O   0  0  0  0  0  0
  -30.6333  -19.2536   20.5125 C   0  0  0  0  0  0
  -28.4709  -18.9949   21.5567 C   0  0  0  0  0  0
  -30.7905  -17.8311   20.4877 C   0  0  0  0  0  0
  -28.6284  -17.5887   21.5364 C   0  0  0  0  0  0
  -29.4758  -19.8645   21.0686 C   0  0  0  0  0  0
  -29.7906  -16.9700   21.0192 C   0  0  0  0  0  0
  -29.3107  -21.3447   21.2612 C   0  0  0  0  0  0
  -29.0072  -24.4983   19.1901 C   0  0  0  0  0  0
  -29.0634  -23.6226   17.9462 C   0  0  0  0  0  0
  -31.5082  -23.7316   22.2068 C   0  0  0  0  0  0
  -31.1225  -25.8616   21.0287 C   0  0  0  0  0  0
  -32.1099  -23.9312   19.7864 C   0  0  0  0  0  0
  -29.6176  -23.8189   20.4739 C   0  0  2  0  0  0
  -31.0639  -24.3290   20.8520 C   0  0  0  0  0  0
  -28.4627  -25.6638   19.0336 N   0  0  0  0  0  0
  -29.8337  -15.5250   21.0954 N   0  0  0  0  0  0
  -29.6354  -22.3033   20.3568 N   0  0  0  0  0  0
  -28.8159  -21.7502   22.4301 N   0  3  0  0  0  0
  -31.4859  -12.4993   19.1265 H   0  0  0  0  0  0
  -30.3884  -11.3516   19.8397 H   0  0  0  0  0  0
  -29.7591  -11.7786   17.4494 H   0  0  0  0  0  0
  -29.6569  -13.4936   17.7561 H   0  0  0  0  0  0
  -27.8513  -11.3019   18.8316 H   0  0  0  0  0  0
  -27.3758  -12.6165   17.7907 H   0  0  0  0  0  0
  -27.7006  -14.2495   19.5683 H   0  0  0  0  0  0
  -28.7065  -11.9495   21.3168 H   0  0  0  0  0  0
  -28.4507  -13.5647   21.8864 H   0  0  0  0  0  0
  -25.2765   -9.5671   22.4759 H   0  0  0  0  0  0
  -23.9996   -7.4629   22.7480 H   0  0  0  0  0  0
  -21.0845   -8.8777   19.8947 H   0  0  0  0  0  0
  -22.3711  -10.9674   19.6162 H   0  0  0  0  0  0
  -21.2006   -7.6151   23.9721 H   0  0  0  0  0  0
  -21.1478   -6.0524   25.9080 H   0  0  0  0  0  0
  -22.0599   -2.7610   23.2853 H   0  0  0  0  0  0
  -22.4110  -11.9879   22.4763 H   0  0  0  0  0  0
  -21.1132  -13.1272   22.2600 H   0  0  0  0  0  0
  -24.6629  -15.8386   20.4971 H   0  0  0  0  0  0
  -26.2709  -15.6154   20.0320 H   0  0  0  0  0  0
  -26.7148  -32.5496   23.1125 H   0  0  0  0  0  0
  -25.0062  -33.9762   25.0438 H   0  0  0  0  0  0
  -22.7038  -31.3081   21.4083 H   0  0  0  0  0  0
  -23.3772  -35.9615   23.3251 H   0  0  0  0  0  0
  -24.3589  -36.8975   22.2056 H   0  0  0  0  0  0
  -23.7220  -37.6483   23.6687 H   0  0  0  0  0  0
  -26.0686  -31.5795   20.6009 H   0  0  0  0  0  0
  -26.8328  -30.8624   21.9909 H   0  0  0  0  0  0
  -28.1158  -29.0390   21.1614 H   0  0  0  0  0  0
  -25.9776  -25.9271   19.0603 H   0  0  0  0  0  0
  -23.9589  -27.2951   19.0528 H   0  0  0  0  0  0
  -23.7325  -30.6015   19.4058 H   0  0  0  0  0  0
  -22.7443  -29.2485   19.8656 H   0  0  0  0  0  0
  -25.1284  -36.1944   25.0819 H   0  0  0  0  0  0
  -20.9973  -28.3270   24.1414 H   0  0  0  0  0  0
  -20.5688  -26.2297   23.3609 H   0  0  0  0  0  0
  -21.6642  -26.7454   22.1205 H   0  0  0  0  0  0
  -19.6917  -25.6302   21.1240 H   0  0  0  0  0  0
  -19.6690  -27.3198   20.6747 H   0  0  0  0  0  0
  -17.4201  -26.6693   21.4015 H   0  0  0  0  0  0
  -18.0316  -26.0057   22.9004 H   0  0  0  0  0  0
  -19.7936  -30.7270   24.2271 H   0  0  0  0  0  0
  -17.5018  -31.6267   24.5175 H   0  0  0  0  0  0
  -15.5356  -30.3000   23.7645 H   0  0  0  0  0  0
  -15.8668  -28.0825   22.7072 H   0  0  0  0  0  0
  -24.5903  -30.7075   25.7772 H   0  0  0  0  0  0
  -24.8937  -32.2880   26.4895 H   0  0  0  0  0  0
  -25.8071  -30.8872   27.0207 H   0  0  0  0  0  0
  -26.2886  -29.6772   24.1187 H   0  0  0  0  0  0
  -27.4082  -29.7284   25.4611 H   0  0  0  0  0  0
  -27.8728  -30.4333   23.9304 H   0  0  0  0  0  0
  -27.2671  -33.3627   26.2055 H   0  0  0  0  0  0
  -28.3864  -32.6872   25.0310 H   0  0  0  0  0  0
  -28.0713  -31.8447   26.5401 H   0  0  0  0  0  0
  -28.2551  -38.0146   24.7589 H   0  0  0  0  0  0
  -28.1153  -36.2684   24.6155 H   0  0  0  0  0  0
  -27.2323  -37.1293   25.8849 H   0  0  0  0  0  0
  -20.9321  -29.8776   21.6915 H   0  0  0  0  0  0
  -26.0167  -38.2855   24.1488 H   0  0  0  0  0  0
  -31.4330  -19.8768   20.1362 H   0  0  0  0  0  0
  -27.5648  -19.4043   21.9825 H   0  0  0  0  0  0
  -31.6985  -17.4142   20.0752 H   0  0  0  0  0  0
  -27.8330  -16.9820   21.9458 H   0  0  0  0  0  0
  -30.0756  -23.2622   17.7683 H   0  0  0  0  0  0
  -28.7536  -24.1793   17.0614 H   0  0  0  0  0  0
  -28.3915  -22.7701   18.0471 H   0  0  0  0  0  0
  -32.4617  -24.1477   22.5342 H   0  0  0  0  0  0
  -31.6488  -22.6526   22.1579 H   0  0  0  0  0  0
  -30.7816  -23.9373   22.9934 H   0  0  0  0  0  0
  -32.0996  -26.1866   21.3877 H   0  0  0  0  0  0
  -30.3843  -26.2078   21.7529 H   0  0  0  0  0  0
  -30.9504  -26.3928   20.0928 H   0  0  0  0  0  0
  -33.1070  -24.2714   20.0680 H   0  0  0  0  0  0
  -31.8910  -24.3712   18.8138 H   0  0  0  0  0  0
  -32.1703  -22.8507   19.6565 H   0  0  0  0  0  0
  -28.9467  -24.0894   21.2902 H   0  0  0  0  0  0
  -29.0019  -15.1177   21.4919 H   0  0  0  0  0  0
  -29.9769  -21.9544   19.4725 H   0  0  0  0  0  0
  -28.6604  -21.0631   23.1523 H   0  0  0  0  0  0
  -28.6163  -22.7124   22.6341 H   0  0  0  0  0  0
  1 25  1  0  0  0
  1 30  2  0  0  0
  1 86  1  0  0  0
  2  3  1  0  0  0
  2 25  1  0  0  0
  2 89  1  0  0  0
  2 90  1  0  0  0
  3  4  1  0  0  0
  3 91  1  0  0  0
  3 92  1  0  0  0
  4  5  1  0  0  0
  4 93  1  0  0  0
  4 94  1  0  0  0
  5  6  1  0  0  0
  5 26  1  0  0  0
  5 95  1  0  0  0
  6 25  1  0  0  0
  6 96  1  0  0  0
  6 97  1  0  0  0
  7  8  2  0  0  0
  7 26  1  0  0  0
  7 29  1  0  0  0
  8  9  1  0  0  0
  8 22  1  0  0  0
  9 10  1  0  0  0
  9 27  2  0  0  0
 10 11  2  0  0  0
 10 15  1  0  0  0
 11 12  1  0  0  0
 11 98  1  0  0  0
 12 13  2  0  0  0
 12 99  1  0  0  0
 13 14  1  0  0  0
 13 31  1  0  0  0
 14 15  2  0  0  0
 14100  1  0  0  0
 15101  1  0  0  0
 16 17  2  0  0  0
 16 21  1  0  0  0
 16 31  1  0  0  0
 17 18  1  0  0  0
 17102  1  0  0  0
 18 19  2  0  0  0
 18103  1  0  0  0
 19 20  1  0  0  0
 19 24  1  0  0  0
 20 21  2  0  0  0
 20104  1  0  0  0
 21 23  1  0  0  0
 22 28  1  0  0  0
 22 32  2  0  0  0
 26 27  1  0  0  0
 28105  1  0  0  0
 28106  1  0  0  0
 29107  1  0  0  0
 29108  1  0  0  0
 33 34  1  0  0  0
 33 66  1  0  0  0
 33 70  2  0  0  0
 34 36  1  0  0  0
 34 59  1  0  0  0
 34109  1  0  0  0
 35 44  2  0  0  0
 35 45  1  0  0  0
 35 68  1  0  0  0
 36 56  1  0  0  0
 36110  1  0  0  0
 37 39  1  0  0  0
 37 47  1  0  0  0
 37 66  1  0  0  0
 37111  1  0  0  0
 38 43  2  0  0  0
 38 46  1  0  0  0
 38 47  1  0  0  0
 39 64  1  0  0  0
 39 67  2  0  0  0
 40 52  1  0  0  0
 40 53  2  0  0  0
 40 58  1  0  0  0
 41112  1  0  0  0
 41113  1  0  0  0
 41114  1  0  0  0
 41 48  1  0  0  0
 42 43  1  0  0  0
 42 66  1  0  0  0
 42115  1  0  0  0
 42116  1  0  0  0
 43 44  1  0  0  0
 44117  1  0  0  0
 45 46  2  0  0  0
 45118  1  0  0  0
 46119  1  0  0  0
 47120  1  0  0  0
 47121  1  0  0  0
 48 56  1  0  0  0
 48 65  1  0  0  0
 48122  1  0  0  0
 49 50  1  0  0  0
 49 53  1  0  0  0
 49 64  1  0  0  0
 49123  1  0  0  0
 50 51  1  0  0  0
 50124  1  0  0  0
 50125  1  0  0  0
 51 52  1  0  0  0
 51126  1  0  0  0
 51127  1  0  0  0
 52128  1  0  0  0
 52129  1  0  0  0
 53 54  1  0  0  0
 54 55  2  0  0  0
 54130  1  0  0  0
 55 57  1  0  0  0
 55131  1  0  0  0
 56 69  2  0  0  0
 57 58  2  0  0  0
 57132  1  0  0  0
 58133  1  0  0  0
 59 60  1  0  0  0
 59 61  1  0  0  0
 59 62  1  0  0  0
 60134  1  0  0  0
 60135  1  0  0  0
 60136  1  0  0  0
 61137  1  0  0  0
 61138  1  0  0  0
 61139  1  0  0  0
 62140  1  0  0  0
 62141  1  0  0  0
 62142  1  0  0  0
 63 65  1  0  0  0
 63143  1  0  0  0
 63144  1  0  0  0
 63145  1  0  0  0
 64146  1  0  0  0
 65147  1  0  0  0
 68 85  1  0  0  0
 71 73  2  0  0  0
 71 75  1  0  0  0
 71148  1  0  0  0
 72 74  1  0  0  0
 72 75  2  0  0  0
 72149  1  0  0  0
 73 76  1  0  0  0
 73150  1  0  0  0
 74 76  2  0  0  0
 74151  1  0  0  0
 75 77  1  0  0  0
 76 86  1  0  0  0
 77 87  1  0  0  0
 77 88  2  0  0  0
 78 79  1  0  0  0
 78 83  1  0  0  0
 78 85  2  0  0  0
 79152  1  0  0  0
 79153  1  0  0  0
 79154  1  0  0  0
 80155  1  0  0  0
 80156  1  0  0  0
 80157  1  0  0  0
 80 84  1  0  0  0
 81 84  1  0  0  0
 81158  1  0  0  0
 81159  1  0  0  0
 81160  1  0  0  0
 82 84  1  0  0  0
 82161  1  0  0  0
 82162  1  0  0  0
 82163  1  0  0  0
 83 84  1  0  0  0
 83 87  1  0  0  0
 83164  1  0  0  0
 86165  1  0  0  0
 87166  1  0  0  0
 88167  1  0  0  0
 88168  1  0  0  0
M  CHG  1  88   1
M  ISO  4   1 100  68 101  85 101  86 100
M  END
> <chiral flag>
0

> <version>
0

> <s_m_source_file>
/data/baiqing/PycharmProjects/Reinvent-master-3.2/result/LINK_invent/BTK/process_docking_weight1_custom_product_contain_oxygen_bond_distance_aromatic_linkinvent_7_9_3/rearranged_h_0076.sdf

> <i_m_source_file_index>
31

> <r_mmod_Potential_Energy-OPLS-2005>
-219.107940673828

> <r_mmod_Stretch_Energy-OPLS-2005>
65.5503692626953

> <r_mmod_Bend_Energy-OPLS-2005>
152.092269897461

> <r_mmod_Torsional_Energy-OPLS-2005>
229.066665649414

> <r_mmod_Improper_Torsional_Energy-OPLS-2005>
4.063720703125

> <r_mmod_Van_der_Waal_Energy-OPLS-2005>
159.677429199219

> <r_mmod_Electrostatic_Energy-OPLS-2005>
-443.270721435547

> <r_mmod_Solvation_Energy-OPLS-2005>
-415.544342041016

> <b_mmod_Minimization_Converged-OPLS-2005>
0

> <r_mmod_RMS_Derivative-OPLS-2005>
0.934539258480072

$$$$
31
                    3D
 Structure written by MMmdl.
157166  0  0  1  0            999 V2000
  -30.5841  -14.7112   20.4708 C   0  0  0  0  0  0
  -30.4463  -12.4333   19.4569 C   0  0  0  0  0  0
  -29.5116  -12.5106   18.2284 C   0  0  0  0  0  0
  -28.0365  -12.3341   18.6436 C   0  0  0  0  0  0
  -27.6482  -13.2174   19.8587 C   0  0  2  0  0  0
  -28.6962  -13.1050   20.9880 C   0  0  0  0  0  0
  -25.2536  -13.8173   20.5729 C   0  0  0  0  0  0
  -24.1805  -13.0421   20.9191 C   0  0  0  0  0  0
  -24.6380  -11.6900   20.8725 C   0  0  0  0  0  0
  -23.9052  -10.4282   21.0392 C   0  0  0  0  0  0
  -24.3604   -9.4205   21.9179 C   0  0  0  0  0  0
  -23.6279   -8.2240   22.0754 C   0  0  0  0  0  0
  -22.4261   -8.0274   21.3549 C   0  0  0  0  0  0
  -21.9893   -9.0247   20.4650 C   0  0  0  0  0  0
  -22.7221  -10.2125   20.3049 C   0  0  0  0  0  0
  -21.6854   -6.0725   22.5277 C   0  0  0  0  0  0
  -21.4017   -6.5631   23.8209 C   0  0  0  0  0  0
  -21.3659   -5.6788   24.9174 C   0  0  0  0  0  0
  -21.6039   -4.3050   24.7227 C   0  0  0  0  0  0
  -21.8820   -3.8139   23.4351 C   0  0  0  0  0  0
  -21.9193   -4.6952   22.3405 C   0  0  0  0  0  0
  -22.7825  -13.5215   21.1855 C   0  0  0  0  0  0
  -22.1660   -4.2138   21.0984 F   0  0  0  0  0  0
  -21.5627   -3.4536   25.7740 F   0  0  0  0  0  0
  -30.0030  -13.4662   20.4155 N   0  0  0  0  0  0
  -26.2962  -12.9358   20.3318 N   0  0  0  0  0  0
  -25.9309  -11.6507   20.5736 N   0  0  0  0  0  0
  -22.0465  -12.8220   22.0418 N   0  0  0  0  0  0
  -25.4148  -15.1918   20.4258 N   0  0  0  0  0  0
  -31.7651  -14.8768   20.1510 O   0  0  0  0  0  0
  -21.6635   -6.8867   21.4240 O   0  0  0  0  0  0
  -22.3508  -14.5520   20.6702 O   0  0  0  0  0  0
  -24.6289  -31.8563   23.2000 C   0  0  0  0  0  0
  -25.9128  -32.4755   23.8337 C   0  0  1  0  0  0
  -27.2263  -27.2895   20.1315 C   0  0  0  0  0  0
  -25.5933  -33.8557   24.2264 N   0  0  0  0  0  0
  -23.4243  -30.4784   21.5426 C   0  0  2  0  0  0
  -24.8733  -28.9264   20.1129 C   0  0  0  0  0  0
  -22.7489  -29.4604   22.4926 C   0  0  0  0  0  0
  -18.0288  -28.1382   22.8480 C   0  0  0  0  0  0
  -24.1490  -36.7287   23.2637 C   0  0  0  0  0  0
  -25.9673  -30.7779   21.3759 C   0  0  0  0  0  0
  -26.0425  -29.4018   20.7207 C   0  0  0  0  0  0
  -27.2233  -28.5965   20.7172 C   0  0  0  0  0  0
  -26.0384  -26.8760   19.4907 C   0  0  0  0  0  0
  -24.8741  -27.6694   19.4882 C   0  0  0  0  0  0
  -23.6417  -29.8098   20.1594 C   0  0  0  0  0  0
  -25.4113  -36.3069   24.0326 C   0  0  1  0  0  0
  -20.5892  -28.3690   23.1273 C   0  0  2  0  0  0
  -20.6777  -26.9409   22.5406 C   0  0  0  0  0  0
  -19.5754  -26.6378   21.5207 C   0  0  0  0  0  0
  -18.1935  -26.7923   22.1619 C   0  0  0  0  0  0
  -19.1542  -28.8854   23.2869 C   0  0  0  0  0  0
  -18.9465  -30.1459   23.8883 C   0  0  0  0  0  0
  -17.6465  -30.6584   24.0560 C   0  0  0  0  0  0
  -25.9052  -34.9439   23.5096 C   0  0  0  0  0  0
  -16.5356  -29.9080   23.6332 C   0  0  0  0  0  0
  -16.7276  -28.6499   23.0346 C   0  0  0  0  0  0
  -26.4505  -31.6572   25.0717 C   0  0  0  0  0  0
  -25.3737  -31.3726   26.1445 C   0  0  0  0  0  0
  -27.0344  -30.2988   24.6193 C   0  0  0  0  0  0
  -27.6063  -32.4306   25.7488 C   0  0  0  0  0  0
  -27.5579  -37.1793   24.8462 C   0  0  0  0  0  0
  -21.4200  -29.3038   22.3667 N   0  0  0  0  0  0
  -26.4289  -37.3767   23.9410 N   0  0  0  0  0  0
  -24.6924  -31.0551   22.0963 N   0  0  0  0  0  0
  -23.4198  -28.8145   23.3018 O   0  0  0  0  0  0
  -28.3335  -26.4191   20.1531 O   0  0  0  0  0  0
  -26.5621  -34.8914   22.4664 O   0  0  0  0  0  0
  -23.5446  -32.1378   23.7310 O   0  0  0  0  0  0
  -30.5861  -19.5333   20.9362 C   0  0  0  0  0  0
  -30.7404  -18.1060   21.0193 C   0  0  0  0  0  0
  -28.5110  -19.2772   19.8370 C   0  0  0  0  0  0
  -29.4665  -20.2074   20.3482 C   0  0  0  0  0  0
  -29.7588  -17.2152   20.5111 C   0  0  0  0  0  0
  -28.6406  -17.8523   19.9108 C   0  0  0  0  0  0
  -29.7782  -22.8450   20.8994 C   0  0  0  0  0  0
  -28.1780  -22.3778   19.6688 C   0  0  0  0  0  0
  -28.9082  -23.7579   19.9209 C   0  0  2  0  0  0
  -29.7910  -24.2957   18.7890 C   0  0  0  0  0  0
  -28.1177  -24.9970   20.5805 C   0  0  0  0  0  0
  -29.3320  -21.6825   20.2496 N   0  0  0  0  0  0
  -27.6409  -17.0475   19.3617 N   0  0  0  0  0  0
  -29.7150  -15.7542   20.6965 N   0  0  0  0  0  0
  -30.5067  -22.9996   21.8577 O   0  0  0  0  0  0
  -31.4842  -12.5785   19.1516 H   0  0  0  0  0  0
  -30.4016  -11.4453   19.9165 H   0  0  0  0  0  0
  -29.7872  -11.7519   17.4949 H   0  0  0  0  0  0
  -29.6391  -13.4741   17.7324 H   0  0  0  0  0  0
  -27.8880  -11.2828   18.8928 H   0  0  0  0  0  0
  -27.3790  -12.5441   17.7991 H   0  0  0  0  0  0
  -27.6500  -14.2439   19.4967 H   0  0  0  0  0  0
  -28.7255  -12.0907   21.3884 H   0  0  0  0  0  0
  -28.4343  -13.7507   21.8273 H   0  0  0  0  0  0
  -25.2747   -9.5686   22.4755 H   0  0  0  0  0  0
  -23.9987   -7.4637   22.7479 H   0  0  0  0  0  0
  -21.0821   -8.8765   19.8960 H   0  0  0  0  0  0
  -22.3678  -10.9661   19.6155 H   0  0  0  0  0  0
  -21.2017   -7.6139   23.9709 H   0  0  0  0  0  0
  -21.1476   -6.0520   25.9077 H   0  0  0  0  0  0
  -22.0600   -2.7599   23.2858 H   0  0  0  0  0  0
  -22.4064  -11.9886   22.4827 H   0  0  0  0  0  0
  -21.1088  -13.1270   22.2621 H   0  0  0  0  0  0
  -24.6376  -15.8278   20.5584 H   0  0  0  0  0  0
  -26.2626  -15.6829   20.1415 H   0  0  0  0  0  0
  -26.7188  -32.5416   23.1074 H   0  0  0  0  0  0
  -25.0089  -33.9693   25.0415 H   0  0  0  0  0  0
  -22.7198  -31.2999   21.3968 H   0  0  0  0  0  0
  -23.3751  -35.9621   23.3294 H   0  0  0  0  0  0
  -24.3590  -36.8914   22.2055 H   0  0  0  0  0  0
  -23.7248  -37.6487   23.6666 H   0  0  0  0  0  0
  -26.1018  -31.5389   20.6060 H   0  0  0  0  0  0
  -26.8467  -30.8281   22.0065 H   0  0  0  0  0  0
  -28.1203  -28.9566   21.2013 H   0  0  0  0  0  0
  -25.9991  -25.9182   18.9916 H   0  0  0  0  0  0
  -23.9800  -27.3013   19.0037 H   0  0  0  0  0  0
  -23.7637  -30.5844   19.4015 H   0  0  0  0  0  0
  -22.7612  -29.2400   19.8565 H   0  0  0  0  0  0
  -25.1292  -36.1916   25.0818 H   0  0  0  0  0  0
  -20.9980  -28.3266   24.1394 H   0  0  0  0  0  0
  -20.5680  -26.2295   23.3604 H   0  0  0  0  0  0
  -21.6647  -26.7436   22.1201 H   0  0  0  0  0  0
  -19.6917  -25.6287   21.1241 H   0  0  0  0  0  0
  -19.6693  -27.3184   20.6734 H   0  0  0  0  0  0
  -17.4202  -26.6665   21.4024 H   0  0  0  0  0  0
  -18.0341  -26.0068   22.9020 H   0  0  0  0  0  0
  -19.7944  -30.7280   24.2238 H   0  0  0  0  0  0
  -17.5020  -31.6266   24.5162 H   0  0  0  0  0  0
  -15.5357  -30.2976   23.7666 H   0  0  0  0  0  0
  -15.8674  -28.0819   22.7059 H   0  0  0  0  0  0
  -24.5892  -30.7095   25.7780 H   0  0  0  0  0  0
  -24.8952  -32.2899   26.4885 H   0  0  0  0  0  0
  -25.8057  -30.8887   27.0214 H   0  0  0  0  0  0
  -26.2918  -29.6731   24.1225 H   0  0  0  0  0  0
  -27.4038  -29.7254   25.4709 H   0  0  0  0  0  0
  -27.8796  -30.4261   23.9422 H   0  0  0  0  0  0
  -27.2677  -33.3610   26.2063 H   0  0  0  0  0  0
  -28.3878  -32.6859   25.0317 H   0  0  0  0  0  0
  -28.0728  -31.8430   26.5407 H   0  0  0  0  0  0
  -28.2584  -38.0100   24.7518 H   0  0  0  0  0  0
  -28.1084  -36.2632   24.6269 H   0  0  0  0  0  0
  -27.2301  -37.1423   25.8864 H   0  0  0  0  0  0
  -20.9384  -29.8758   21.6871 H   0  0  0  0  0  0
  -26.0166  -38.2840   24.1415 H   0  0  0  0  0  0
  -31.3767  -20.1409   21.3542 H   0  0  0  0  0  0
  -31.6121  -17.7030   21.5143 H   0  0  0  0  0  0
  -27.6268  -19.6778   19.3634 H   0  0  0  0  0  0
  -28.0076  -22.1464   18.6160 H   0  0  0  0  0  0
  -27.2675  -22.2442   20.2592 H   0  0  0  0  0  0
  -30.3665  -23.5053   18.3053 H   0  0  0  0  0  0
  -30.5036  -25.0345   19.1576 H   0  0  0  0  0  0
  -29.1914  -24.7765   18.0161 H   0  0  0  0  0  0
  -28.3314  -25.0040   21.6499 H   0  0  0  0  0  0
  -27.0560  -24.7582   20.5507 H   0  0  0  0  0  0
  -26.9492  -17.5452   18.8112 H   0  0  0  0  0  0
  -28.0046  -16.2678   18.8263 H   0  0  0  0  0  0
  -28.7681  -15.4265   20.8109 H   0  0  0  0  0  0
  1 25  1  0  0  0
  1 30  2  0  0  0
  1 84  1  0  0  0
  2  3  1  0  0  0
  2 25  1  0  0  0
  2 86  1  0  0  0
  2 87  1  0  0  0
  3  4  1  0  0  0
  3 88  1  0  0  0
  3 89  1  0  0  0
  4  5  1  0  0  0
  4 90  1  0  0  0
  4 91  1  0  0  0
  5  6  1  0  0  0
  5 26  1  0  0  0
  5 92  1  0  0  0
  6 25  1  0  0  0
  6 93  1  0  0  0
  6 94  1  0  0  0
  7  8  2  0  0  0
  7 26  1  0  0  0
  7 29  1  0  0  0
  8  9  1  0  0  0
  8 22  1  0  0  0
  9 10  1  0  0  0
  9 27  2  0  0  0
 10 11  2  0  0  0
 10 15  1  0  0  0
 11 12  1  0  0  0
 11 95  1  0  0  0
 12 13  2  0  0  0
 12 96  1  0  0  0
 13 14  1  0  0  0
 13 31  1  0  0  0
 14 15  2  0  0  0
 14 97  1  0  0  0
 15 98  1  0  0  0
 16 17  2  0  0  0
 16 21  1  0  0  0
 16 31  1  0  0  0
 17 18  1  0  0  0
 17 99  1  0  0  0
 18 19  2  0  0  0
 18100  1  0  0  0
 19 20  1  0  0  0
 19 24  1  0  0  0
 20 21  2  0  0  0
 20101  1  0  0  0
 21 23  1  0  0  0
 22 28  1  0  0  0
 22 32  2  0  0  0
 26 27  1  0  0  0
 28102  1  0  0  0
 28103  1  0  0  0
 29104  1  0  0  0
 29105  1  0  0  0
 33 34  1  0  0  0
 33 66  1  0  0  0
 33 70  2  0  0  0
 34 36  1  0  0  0
 34 59  1  0  0  0
 34106  1  0  0  0
 35 44  2  0  0  0
 35 45  1  0  0  0
 35 68  1  0  0  0
 36 56  1  0  0  0
 36107  1  0  0  0
 37 39  1  0  0  0
 37 47  1  0  0  0
 37 66  1  0  0  0
 37108  1  0  0  0
 38 43  2  0  0  0
 38 46  1  0  0  0
 38 47  1  0  0  0
 39 64  1  0  0  0
 39 67  2  0  0  0
 40 52  1  0  0  0
 40 53  2  0  0  0
 40 58  1  0  0  0
 41109  1  0  0  0
 41110  1  0  0  0
 41111  1  0  0  0
 41 48  1  0  0  0
 42 43  1  0  0  0
 42 66  1  0  0  0
 42112  1  0  0  0
 42113  1  0  0  0
 43 44  1  0  0  0
 44114  1  0  0  0
 45 46  2  0  0  0
 45115  1  0  0  0
 46116  1  0  0  0
 47117  1  0  0  0
 47118  1  0  0  0
 48 56  1  0  0  0
 48 65  1  0  0  0
 48119  1  0  0  0
 49 50  1  0  0  0
 49 53  1  0  0  0
 49 64  1  0  0  0
 49120  1  0  0  0
 50 51  1  0  0  0
 50121  1  0  0  0
 50122  1  0  0  0
 51 52  1  0  0  0
 51123  1  0  0  0
 51124  1  0  0  0
 52125  1  0  0  0
 52126  1  0  0  0
 53 54  1  0  0  0
 54 55  2  0  0  0
 54127  1  0  0  0
 55 57  1  0  0  0
 55128  1  0  0  0
 56 69  2  0  0  0
 57 58  2  0  0  0
 57129  1  0  0  0
 58130  1  0  0  0
 59 60  1  0  0  0
 59 61  1  0  0  0
 59 62  1  0  0  0
 60131  1  0  0  0
 60132  1  0  0  0
 60133  1  0  0  0
 61134  1  0  0  0
 61135  1  0  0  0
 61136  1  0  0  0
 62137  1  0  0  0
 62138  1  0  0  0
 62139  1  0  0  0
 63 65  1  0  0  0
 63140  1  0  0  0
 63141  1  0  0  0
 63142  1  0  0  0
 64143  1  0  0  0
 65144  1  0  0  0
 68 81  1  0  0  0
 71 72  2  0  0  0
 71 74  1  0  0  0
 71145  1  0  0  0
 72 75  1  0  0  0
 72146  1  0  0  0
 73 74  2  0  0  0
 73 76  1  0  0  0
 73147  1  0  0  0
 74 82  1  0  0  0
 75 76  2  0  0  0
 75 84  1  0  0  0
 76 83  1  0  0  0
 77 79  1  0  0  0
 77 82  1  0  0  0
 77 85  2  0  0  0
 78 79  1  0  0  0
 78 82  1  0  0  0
 78148  1  0  0  0
 78149  1  0  0  0
 79 80  1  0  0  0
 79 81  1  0  0  0
 80150  1  0  0  0
 80151  1  0  0  0
 80152  1  0  0  0
 81153  1  0  0  0
 81154  1  0  0  0
 83155  1  0  0  0
 83156  1  0  0  0
 84157  1  0  0  0
M  ISO  4   1 100  68 101  81 101  84 100
M  END
> <chiral flag>
0

> <version>
0

> <s_m_source_file>
/data/baiqing/PycharmProjects/Reinvent-master-3.2/result/LINK_invent/BTK/process_docking_weight1_custom_product_contain_oxygen_bond_distance_aromatic_linkinvent_7_9_3/rearranged_h_0076.sdf

> <i_m_source_file_index>
32

> <r_mmod_Potential_Energy-OPLS-2005>
66.9594116210938

> <r_mmod_Stretch_Energy-OPLS-2005>
98.3739471435547

> <r_mmod_Bend_Energy-OPLS-2005>
188.356948852539

> <r_mmod_Torsional_Energy-OPLS-2005>
272.827514648438

> <r_mmod_Improper_Torsional_Energy-OPLS-2005>
12.6065235137939

> <r_mmod_Van_der_Waal_Energy-OPLS-2005>
139.053970336914

> <r_mmod_Electrostatic_Energy-OPLS-2005>
-493.450073242188

> <r_mmod_Solvation_Energy-OPLS-2005>
-220.566253662109

> <b_mmod_Minimization_Converged-OPLS-2005>
0

> <r_mmod_RMS_Derivative-OPLS-2005>
0.924333393573761

$$$$
32
                    3D
 Structure written by MMmdl.
162171  0  0  1  0            999 V2000
  -30.7323  -14.4496   20.5849 C   0  0  0  0  0  0
  -30.4122  -12.2966   19.4218 C   0  0  0  0  0  0
  -29.4894  -12.4849   18.2020 C   0  0  0  0  0  0
  -28.0109  -12.3548   18.6185 C   0  0  0  0  0  0
  -27.6564  -13.2070   19.8669 C   0  0  2  0  0  0
  -28.6978  -13.0087   20.9905 C   0  0  0  0  0  0
  -25.2563  -13.8159   20.5663 C   0  0  0  0  0  0
  -24.1833  -13.0433   20.9206 C   0  0  0  0  0  0
  -24.6390  -11.6901   20.8756 C   0  0  0  0  0  0
  -23.9053  -10.4286   21.0411 C   0  0  0  0  0  0
  -24.3610   -9.4197   21.9183 C   0  0  0  0  0  0
  -23.6284   -8.2235   22.0756 C   0  0  0  0  0  0
  -22.4266   -8.0283   21.3548 C   0  0  0  0  0  0
  -21.9892   -9.0250   20.4654 C   0  0  0  0  0  0
  -22.7221  -10.2128   20.3059 C   0  0  0  0  0  0
  -21.6857   -6.0728   22.5280 C   0  0  0  0  0  0
  -21.4023   -6.5637   23.8210 C   0  0  0  0  0  0
  -21.3654   -5.6790   24.9169 C   0  0  0  0  0  0
  -21.6036   -4.3054   24.7224 C   0  0  0  0  0  0
  -21.8819   -3.8141   23.4350 C   0  0  0  0  0  0
  -21.9189   -4.6955   22.3401 C   0  0  0  0  0  0
  -22.7855  -13.5232   21.1852 C   0  0  0  0  0  0
  -22.1662   -4.2142   21.0978 F   0  0  0  0  0  0
  -21.5616   -3.4542   25.7735 F   0  0  0  0  0  0
  -30.0250  -13.2986   20.4272 N   0  0  0  0  0  0
  -26.2990  -12.9330   20.3320 N   0  0  0  0  0  0
  -25.9310  -11.6499   20.5774 N   0  0  0  0  0  0
  -22.0482  -12.8248   22.0414 N   0  0  0  0  0  0
  -25.4254  -15.1871   20.3977 N   0  0  0  0  0  0
  -31.8758  -14.5691   20.1339 O   0  0  0  0  0  0
  -21.6643   -6.8873   21.4243 O   0  0  0  0  0  0
  -22.3539  -14.5517   20.6653 O   0  0  0  0  0  0
  -24.6144  -31.8692   23.2102 C   0  0  0  0  0  0
  -25.9038  -32.4819   23.8397 C   0  0  1  0  0  0
  -27.2304  -27.4394   20.1067 C   0  0  0  0  0  0
  -25.5905  -33.8622   24.2330 N   0  0  0  0  0  0
  -23.4023  -30.4915   21.5505 C   0  0  2  0  0  0
  -24.8486  -28.9546   20.1195 C   0  0  0  0  0  0
  -22.7408  -29.4663   22.4992 C   0  0  0  0  0  0
  -18.0278  -28.1383   22.8495 C   0  0  0  0  0  0
  -24.1487  -36.7315   23.2626 C   0  0  0  0  0  0
  -25.9303  -30.8366   21.3631 C   0  0  0  0  0  0
  -26.0088  -29.4698   20.7143 C   0  0  0  0  0  0
  -27.2071  -28.7190   20.7045 C   0  0  0  0  0  0
  -26.0582  -26.9333   19.5112 C   0  0  0  0  0  0
  -24.8665  -27.6833   19.5187 C   0  0  0  0  0  0
  -23.6110  -29.8233   20.1654 C   0  0  0  0  0  0
  -25.4096  -36.3111   24.0336 C   0  0  1  0  0  0
  -20.5867  -28.3673   23.1323 C   0  0  2  0  0  0
  -20.6776  -26.9413   22.5417 C   0  0  0  0  0  0
  -19.5747  -26.6391   21.5222 C   0  0  0  0  0  0
  -18.1927  -26.7929   22.1637 C   0  0  0  0  0  0
  -19.1526  -28.8846   23.2910 C   0  0  0  0  0  0
  -18.9452  -30.1446   23.8921 C   0  0  0  0  0  0
  -17.6454  -30.6582   24.0577 C   0  0  0  0  0  0
  -25.9035  -34.9476   23.5128 C   0  0  0  0  0  0
  -16.5344  -29.9091   23.6323 C   0  0  0  0  0  0
  -16.7266  -28.6512   23.0340 C   0  0  0  0  0  0
  -26.4466  -31.6586   25.0714 C   0  0  0  0  0  0
  -25.3748  -31.3761   26.1493 C   0  0  0  0  0  0
  -27.0225  -30.2996   24.6093 C   0  0  0  0  0  0
  -27.6090  -32.4267   25.7434 C   0  0  0  0  0  0
  -27.5597  -37.1777   24.8431 C   0  0  0  0  0  0
  -21.4138  -29.3028   22.3718 N   0  0  0  0  0  0
  -26.4273  -37.3803   23.9433 N   0  0  0  0  0  0
  -24.6669  -31.0793   22.1001 N   0  0  0  0  0  0
  -23.4177  -28.8219   23.3049 O   0  0  0  0  0  0
  -28.3811  -26.6915   20.0633 O   0  0  0  0  0  0
  -26.5604  -34.8935   22.4693 O   0  0  0  0  0  0
  -23.5337  -32.1447   23.7500 O   0  0  0  0  0  0
  -28.2757  -17.9998   21.0712 C   0  0  0  0  0  0
  -27.8344  -19.3629   21.0357 C   0  0  0  0  0  0
  -29.6115  -17.8668   21.3609 C   0  0  0  0  0  0
  -28.8238  -20.2717   21.3285 C   0  0  0  0  0  0
  -29.6434  -22.4531   22.0994 C   0  0  0  0  0  0
  -29.9595  -23.7371   21.8413 C   0  0  0  0  0  0
  -30.5443  -16.7089   21.3937 C   0  0  0  0  0  0
  -28.7007  -23.4807   19.6553 C   0  0  0  0  0  0
  -27.9136  -22.3642   20.3824 C   0  0  0  0  0  0
  -29.4255  -24.4890   20.6024 C   0  0  2  0  0  0
  -30.9562  -24.4589   22.7347 C   0  0  0  0  0  0
  -30.6222  -25.0955   19.8337 C   0  0  0  0  0  0
  -28.4477  -25.6311   21.0293 C   0  0  0  0  0  0
  -28.7715  -21.6782   21.3488 N   0  0  0  0  0  0
  -30.0403  -15.4950   21.0891 N   0  0  0  0  0  0
  -31.7333  -16.9030   21.6763 O   0  0  0  0  0  0
  -30.3229  -19.4375   21.6741 S   0  0  0  0  0  0
  -31.4576  -12.3770   19.1183 H   0  0  0  0  0  0
  -30.3034  -11.2925   19.8367 H   0  0  0  0  0  0
  -29.7245  -11.7430   17.4373 H   0  0  0  0  0  0
  -29.6676  -13.4605   17.7472 H   0  0  0  0  0  0
  -27.8233  -11.3012   18.8286 H   0  0  0  0  0  0
  -27.3590  -12.6164   17.7844 H   0  0  0  0  0  0
  -27.6948  -14.2508   19.5559 H   0  0  0  0  0  0
  -28.6729  -11.9813   21.3561 H   0  0  0  0  0  0
  -28.4637  -13.6318   21.8536 H   0  0  0  0  0  0
  -25.2756   -9.5663   22.4757 H   0  0  0  0  0  0
  -23.9991   -7.4626   22.7475 H   0  0  0  0  0  0
  -21.0817   -8.8769   19.8965 H   0  0  0  0  0  0
  -22.3686  -10.9666   19.6175 H   0  0  0  0  0  0
  -21.2044   -7.6155   23.9718 H   0  0  0  0  0  0
  -21.1467   -6.0522   25.9069 H   0  0  0  0  0  0
  -22.0605   -2.7605   23.2860 H   0  0  0  0  0  0
  -22.4097  -11.9934   22.4846 H   0  0  0  0  0  0
  -21.1085  -13.1282   22.2576 H   0  0  0  0  0  0
  -24.6348  -15.8193   20.4547 H   0  0  0  0  0  0
  -26.2228  -15.5952   19.9287 H   0  0  0  0  0  0
  -26.7113  -32.5545   23.1171 H   0  0  0  0  0  0
  -25.0036  -33.9779   25.0459 H   0  0  0  0  0  0
  -22.6906  -31.3079   21.4116 H   0  0  0  0  0  0
  -23.3757  -35.9631   23.3221 H   0  0  0  0  0  0
  -24.3616  -36.8990   22.2053 H   0  0  0  0  0  0
  -23.7209  -37.6488   23.6680 H   0  0  0  0  0  0
  -26.0403  -31.6028   20.5941 H   0  0  0  0  0  0
  -26.8194  -30.8923   21.9795 H   0  0  0  0  0  0
  -28.1073  -29.1130   21.1563 H   0  0  0  0  0  0
  -26.0696  -25.9602   19.0417 H   0  0  0  0  0  0
  -23.9732  -27.2778   19.0636 H   0  0  0  0  0  0
  -23.7243  -30.6000   19.4081 H   0  0  0  0  0  0
  -22.7330  -29.2485   19.8654 H   0  0  0  0  0  0
  -25.1253  -36.1972   25.0820 H   0  0  0  0  0  0
  -20.9963  -28.3258   24.1441 H   0  0  0  0  0  0
  -20.5700  -26.2283   23.3600 H   0  0  0  0  0  0
  -21.6647  -26.7479   22.1197 H   0  0  0  0  0  0
  -19.6914  -25.6312   21.1224 H   0  0  0  0  0  0
  -19.6674  -27.3230   20.6777 H   0  0  0  0  0  0
  -17.4193  -26.6668   21.4046 H   0  0  0  0  0  0
  -18.0338  -26.0077   22.9037 H   0  0  0  0  0  0
  -19.7928  -30.7266   24.2300 H   0  0  0  0  0  0
  -17.5000  -31.6259   24.5183 H   0  0  0  0  0  0
  -15.5346  -30.3000   23.7620 H   0  0  0  0  0  0
  -15.8670  -28.0839   22.7033 H   0  0  0  0  0  0
  -24.5808  -30.7242   25.7835 H   0  0  0  0  0  0
  -24.9103  -32.2971   26.5030 H   0  0  0  0  0  0
  -25.8077  -30.8811   27.0193 H   0  0  0  0  0  0
  -26.2731  -29.6797   24.1151 H   0  0  0  0  0  0
  -27.3954  -29.7207   25.4552 H   0  0  0  0  0  0
  -27.8613  -30.4254   23.9241 H   0  0  0  0  0  0
  -27.2780  -33.3601   26.1999 H   0  0  0  0  0  0
  -28.3894  -32.6747   25.0224 H   0  0  0  0  0  0
  -28.0745  -31.8375   26.5343 H   0  0  0  0  0  0
  -28.2537  -38.0153   24.7610 H   0  0  0  0  0  0
  -28.1177  -36.2700   24.6073 H   0  0  0  0  0  0
  -27.2352  -37.1202   25.8838 H   0  0  0  0  0  0
  -20.9304  -29.8733   21.6920 H   0  0  0  0  0  0
  -26.0158  -38.2858   24.1532 H   0  0  0  0  0  0
  -27.6060  -17.1810   20.8522 H   0  0  0  0  0  0
  -26.8124  -19.6215   20.7979 H   0  0  0  0  0  0
  -30.0480  -21.9434   22.9642 H   0  0  0  0  0  0
  -28.0446  -24.0126   18.9652 H   0  0  0  0  0  0
  -29.4407  -22.9847   19.0254 H   0  0  0  0  0  0
  -27.5228  -21.6639   19.6423 H   0  0  0  0  0  0
  -27.0509  -22.7807   20.9029 H   0  0  0  0  0  0
  -31.1310  -23.9006   23.6549 H   0  0  0  0  0  0
  -30.6113  -25.4519   23.0179 H   0  0  0  0  0  0
  -31.9178  -24.5607   22.2307 H   0  0  0  0  0  0
  -31.3912  -24.3478   19.6351 H   0  0  0  0  0  0
  -31.0864  -25.9094   20.3913 H   0  0  0  0  0  0
  -30.3131  -25.5028   18.8709 H   0  0  0  0  0  0
  -28.7711  -26.0897   21.9632 H   0  0  0  0  0  0
  -27.4611  -25.2131   21.2364 H   0  0  0  0  0  0
  -29.0443  -15.3810   21.1508 H   0  0  0  0  0  0
  1 25  1  0  0  0
  1 30  2  0  0  0
  1 85  1  0  0  0
  2  3  1  0  0  0
  2 25  1  0  0  0
  2 88  1  0  0  0
  2 89  1  0  0  0
  3  4  1  0  0  0
  3 90  1  0  0  0
  3 91  1  0  0  0
  4  5  1  0  0  0
  4 92  1  0  0  0
  4 93  1  0  0  0
  5  6  1  0  0  0
  5 26  1  0  0  0
  5 94  1  0  0  0
  6 25  1  0  0  0
  6 95  1  0  0  0
  6 96  1  0  0  0
  7  8  2  0  0  0
  7 26  1  0  0  0
  7 29  1  0  0  0
  8  9  1  0  0  0
  8 22  1  0  0  0
  9 10  1  0  0  0
  9 27  2  0  0  0
 10 11  2  0  0  0
 10 15  1  0  0  0
 11 12  1  0  0  0
 11 97  1  0  0  0
 12 13  2  0  0  0
 12 98  1  0  0  0
 13 14  1  0  0  0
 13 31  1  0  0  0
 14 15  2  0  0  0
 14 99  1  0  0  0
 15100  1  0  0  0
 16 17  2  0  0  0
 16 21  1  0  0  0
 16 31  1  0  0  0
 17 18  1  0  0  0
 17101  1  0  0  0
 18 19  2  0  0  0
 18102  1  0  0  0
 19 20  1  0  0  0
 19 24  1  0  0  0
 20 21  2  0  0  0
 20103  1  0  0  0
 21 23  1  0  0  0
 22 28  1  0  0  0
 22 32  2  0  0  0
 26 27  1  0  0  0
 28104  1  0  0  0
 28105  1  0  0  0
 29106  1  0  0  0
 29107  1  0  0  0
 33 34  1  0  0  0
 33 66  1  0  0  0
 33 70  2  0  0  0
 34 36  1  0  0  0
 34 59  1  0  0  0
 34108  1  0  0  0
 35 44  2  0  0  0
 35 45  1  0  0  0
 35 68  1  0  0  0
 36 56  1  0  0  0
 36109  1  0  0  0
 37 39  1  0  0  0
 37 47  1  0  0  0
 37 66  1  0  0  0
 37110  1  0  0  0
 38 43  2  0  0  0
 38 46  1  0  0  0
 38 47  1  0  0  0
 39 64  1  0  0  0
 39 67  2  0  0  0
 40 52  1  0  0  0
 40 53  2  0  0  0
 40 58  1  0  0  0
 41111  1  0  0  0
 41112  1  0  0  0
 41113  1  0  0  0
 41 48  1  0  0  0
 42 43  1  0  0  0
 42 66  1  0  0  0
 42114  1  0  0  0
 42115  1  0  0  0
 43 44  1  0  0  0
 44116  1  0  0  0
 45 46  2  0  0  0
 45117  1  0  0  0
 46118  1  0  0  0
 47119  1  0  0  0
 47120  1  0  0  0
 48 56  1  0  0  0
 48 65  1  0  0  0
 48121  1  0  0  0
 49 50  1  0  0  0
 49 53  1  0  0  0
 49 64  1  0  0  0
 49122  1  0  0  0
 50 51  1  0  0  0
 50123  1  0  0  0
 50124  1  0  0  0
 51 52  1  0  0  0
 51125  1  0  0  0
 51126  1  0  0  0
 52127  1  0  0  0
 52128  1  0  0  0
 53 54  1  0  0  0
 54 55  2  0  0  0
 54129  1  0  0  0
 55 57  1  0  0  0
 55130  1  0  0  0
 56 69  2  0  0  0
 57 58  2  0  0  0
 57131  1  0  0  0
 58132  1  0  0  0
 59 60  1  0  0  0
 59 61  1  0  0  0
 59 62  1  0  0  0
 60133  1  0  0  0
 60134  1  0  0  0
 60135  1  0  0  0
 61136  1  0  0  0
 61137  1  0  0  0
 61138  1  0  0  0
 62139  1  0  0  0
 62140  1  0  0  0
 62141  1  0  0  0
 63 65  1  0  0  0
 63142  1  0  0  0
 63143  1  0  0  0
 63144  1  0  0  0
 64145  1  0  0  0
 65146  1  0  0  0
 68 83  1  0  0  0
 71 72  1  0  0  0
 71 73  2  0  0  0
 71147  1  0  0  0
 72 74  2  0  0  0
 72148  1  0  0  0
 73 77  1  0  0  0
 73 87  1  0  0  0
 74 84  1  0  0  0
 74 87  1  0  0  0
 75 76  2  0  0  0
 75 84  1  0  0  0
 75149  1  0  0  0
 76 80  1  0  0  0
 76 81  1  0  0  0
 77 85  1  0  0  0
 77 86  2  0  0  0
 78 79  1  0  0  0
 78 80  1  0  0  0
 78150  1  0  0  0
 78151  1  0  0  0
 79 84  1  0  0  0
 79152  1  0  0  0
 79153  1  0  0  0
 80 82  1  0  0  0
 80 83  1  0  0  0
 81154  1  0  0  0
 81155  1  0  0  0
 81156  1  0  0  0
 82157  1  0  0  0
 82158  1  0  0  0
 82159  1  0  0  0
 83160  1  0  0  0
 83161  1  0  0  0
 85162  1  0  0  0
M  ISO  4   1 100  68 101  83 101  85 100
M  END
> <chiral flag>
0

> <version>
0

> <s_m_source_file>
/data/baiqing/PycharmProjects/Reinvent-master-3.2/result/LINK_invent/BTK/process_docking_weight1_custom_product_contain_oxygen_bond_distance_aromatic_linkinvent_7_9_3/rearranged_h_0076.sdf

> <i_m_source_file_index>
33

> <r_mmod_Potential_Energy-OPLS-2005>
-104.380912780762

> <r_mmod_Stretch_Energy-OPLS-2005>
37.9865608215332

> <r_mmod_Bend_Energy-OPLS-2005>
97.0046615600586

> <r_mmod_Torsional_Energy-OPLS-2005>
277.021850585938

> <r_mmod_Improper_Torsional_Energy-OPLS-2005>
5.36475467681885

> <r_mmod_Van_der_Waal_Energy-OPLS-2005>
152.267517089844

> <r_mmod_Electrostatic_Energy-OPLS-2005>
-463.080749511719

> <r_mmod_Solvation_Energy-OPLS-2005>
-224.45573425293

> <b_mmod_Minimization_Converged-OPLS-2005>
0

> <r_mmod_RMS_Derivative-OPLS-2005>
1.89453971385956

$$$$
33
                    3D
 Structure written by MMmdl.
152161  0  0  1  0            999 V2000
  -30.6719  -14.6044   20.5139 C   0  0  0  0  0  0
  -30.4194  -12.3750   19.4528 C   0  0  0  0  0  0
  -29.4987  -12.4994   18.2211 C   0  0  0  0  0  0
  -28.0230  -12.3434   18.6349 C   0  0  0  0  0  0
  -27.6478  -13.2212   19.8595 C   0  0  2  0  0  0
  -28.6915  -13.0959   20.9920 C   0  0  0  0  0  0
  -25.2530  -13.8185   20.5690 C   0  0  0  0  0  0
  -24.1808  -13.0441   20.9198 C   0  0  0  0  0  0
  -24.6383  -11.6914   20.8743 C   0  0  0  0  0  0
  -23.9059  -10.4291   21.0407 C   0  0  0  0  0  0
  -24.3613   -9.4208   21.9186 C   0  0  0  0  0  0
  -23.6289   -8.2243   22.0755 C   0  0  0  0  0  0
  -22.4273   -8.0278   21.3543 C   0  0  0  0  0  0
  -21.9907   -9.0250   20.4646 C   0  0  0  0  0  0
  -22.7233  -10.2130   20.3055 C   0  0  0  0  0  0
  -21.6854   -6.0730   22.5277 C   0  0  0  0  0  0
  -21.4014   -6.5636   23.8209 C   0  0  0  0  0  0
  -21.3660   -5.6790   24.9172 C   0  0  0  0  0  0
  -21.6044   -4.3053   24.7224 C   0  0  0  0  0  0
  -21.8821   -3.8143   23.4347 C   0  0  0  0  0  0
  -21.9194   -4.6957   22.3402 C   0  0  0  0  0  0
  -22.7831  -13.5229   21.1858 C   0  0  0  0  0  0
  -22.1661   -4.2144   21.0980 F   0  0  0  0  0  0
  -21.5630   -3.4538   25.7739 F   0  0  0  0  0  0
  -30.0057  -13.4129   20.4187 N   0  0  0  0  0  0
  -26.2956  -12.9375   20.3313 N   0  0  0  0  0  0
  -25.9311  -11.6525   20.5757 N   0  0  0  0  0  0
  -22.0475  -12.8218   22.0413 N   0  0  0  0  0  0
  -25.4236  -15.1907   20.4098 N   0  0  0  0  0  0
  -31.8405  -14.6961   20.1281 O   0  0  0  0  0  0
  -21.6640   -6.8873   21.4238 O   0  0  0  0  0  0
  -22.3515  -14.5536   20.6707 O   0  0  0  0  0  0
  -24.6219  -31.8610   23.2024 C   0  0  0  0  0  0
  -25.9080  -32.4784   23.8347 C   0  0  1  0  0  0
  -27.2323  -27.3464   20.1125 C   0  0  0  0  0  0
  -25.5909  -33.8585   24.2280 N   0  0  0  0  0  0
  -23.4143  -30.4820   21.5446 C   0  0  2  0  0  0
  -24.8611  -28.9349   20.1105 C   0  0  0  0  0  0
  -22.7450  -29.4623   22.4951 C   0  0  0  0  0  0
  -18.0278  -28.1383   22.8486 C   0  0  0  0  0  0
  -24.1489  -36.7303   23.2639 C   0  0  0  0  0  0
  -25.9501  -30.7990   21.3683 C   0  0  0  0  0  0
  -26.0241  -29.4263   20.7145 C   0  0  0  0  0  0
  -27.2077  -28.6399   20.7105 C   0  0  0  0  0  0
  -26.0452  -26.8891   19.4972 C   0  0  0  0  0  0
  -24.8713  -27.6704   19.4969 C   0  0  0  0  0  0
  -23.6267  -29.8118   20.1601 C   0  0  0  0  0  0
  -25.4114  -36.3091   24.0329 C   0  0  1  0  0  0
  -20.5876  -28.3681   23.1297 C   0  0  2  0  0  0
  -20.6769  -26.9407   22.5417 C   0  0  0  0  0  0
  -19.5748  -26.6383   21.5215 C   0  0  0  0  0  0
  -18.1926  -26.7925   22.1623 C   0  0  0  0  0  0
  -19.1530  -28.8849   23.2888 C   0  0  0  0  0  0
  -18.9455  -30.1454   23.8900 C   0  0  0  0  0  0
  -17.6457  -30.6587   24.0565 C   0  0  0  0  0  0
  -25.9046  -34.9457   23.5107 C   0  0  0  0  0  0
  -16.5348  -29.9087   23.6330 C   0  0  0  0  0  0
  -16.7267  -28.6505   23.0349 C   0  0  0  0  0  0
  -26.4479  -31.6592   25.0713 C   0  0  0  0  0  0
  -25.3719  -31.3723   26.1447 C   0  0  0  0  0  0
  -27.0322  -30.3020   24.6147 C   0  0  0  0  0  0
  -27.6042  -32.4326   25.7484 C   0  0  0  0  0  0
  -27.5582  -37.1807   24.8463 C   0  0  0  0  0  0
  -21.4170  -29.3035   22.3694 N   0  0  0  0  0  0
  -26.4295  -37.3782   23.9405 N   0  0  0  0  0  0
  -24.6806  -31.0642   22.0959 N   0  0  0  0  0  0
  -23.4186  -28.8175   23.3030 O   0  0  0  0  0  0
  -28.3891  -26.5669   20.1806 O   0  0  0  0  0  0
  -26.5619  -34.8920   22.4676 O   0  0  0  0  0  0
  -23.5394  -32.1399   23.7374 O   0  0  0  0  0  0
  -32.2089  -18.6625   21.5165 C   0  0  0  0  0  0
  -31.4007  -19.7590   21.1747 C   0  0  0  0  0  0
  -31.7180  -17.3541   21.4172 C   0  0  0  0  0  0
  -29.5833  -18.2602   20.6744 C   0  0  0  0  0  0
  -30.0549  -19.6280   20.7508 C   0  0  0  0  0  0
  -30.4054  -17.1062   20.9605 C   0  0  0  0  0  0
  -28.5620  -22.7485   20.3561 C   0  0  0  0  0  0
  -29.7535  -22.1031   19.8710 C   0  0  0  0  0  0
  -28.1625  -21.4835   20.9361 C   0  0  0  0  0  0
  -28.0090  -24.0065   20.2978 C   0  0  0  0  0  0
  -28.5124  -25.2599   19.5277 C   0  0  0  0  0  0
  -29.3372  -20.8628   20.4373 N   0  0  0  0  0  0
  -29.9423  -15.7225   20.8370 N   0  0  0  0  0  0
  -30.7231  -22.5432   19.2842 O   0  0  0  0  0  0
  -27.2115  -21.1807   21.6294 O   0  0  0  0  0  0
  -31.4641  -12.4708   19.1519 H   0  0  0  0  0  0
  -30.3305  -11.3847   19.9020 H   0  0  0  0  0  0
  -29.7598  -11.7465   17.4763 H   0  0  0  0  0  0
  -29.6478  -13.4688   17.7427 H   0  0  0  0  0  0
  -27.8587  -11.2915   18.8711 H   0  0  0  0  0  0
  -27.3681  -12.5701   17.7930 H   0  0  0  0  0  0
  -27.6624  -14.2538   19.5103 H   0  0  0  0  0  0
  -28.6958  -12.0852   21.4032 H   0  0  0  0  0  0
  -28.4458  -13.7588   21.8231 H   0  0  0  0  0  0
  -25.2756   -9.5685   22.4763 H   0  0  0  0  0  0
  -23.9998   -7.4634   22.7476 H   0  0  0  0  0  0
  -21.0840   -8.8767   19.8952 H   0  0  0  0  0  0
  -22.3691  -10.9668   19.6164 H   0  0  0  0  0  0
  -21.2006   -7.6146   23.9709 H   0  0  0  0  0  0
  -21.1481   -6.0523   25.9075 H   0  0  0  0  0  0
  -22.0601   -2.7606   23.2850 H   0  0  0  0  0  0
  -22.4091  -11.9879   22.4801 H   0  0  0  0  0  0
  -21.1090  -13.1240   22.2617 H   0  0  0  0  0  0
  -24.6551  -15.8439   20.5170 H   0  0  0  0  0  0
  -26.2677  -15.6287   20.0646 H   0  0  0  0  0  0
  -26.7147  -32.5461   23.1098 H   0  0  0  0  0  0
  -25.0051  -33.9735   25.0421 H   0  0  0  0  0  0
  -22.7066  -31.3011   21.4012 H   0  0  0  0  0  0
  -23.3748  -35.9639   23.3302 H   0  0  0  0  0  0
  -24.3581  -36.8923   22.2054 H   0  0  0  0  0  0
  -23.7244  -37.6506   23.6663 H   0  0  0  0  0  0
  -26.0751  -31.5614   20.5982 H   0  0  0  0  0  0
  -26.8329  -30.8513   21.9940 H   0  0  0  0  0  0
  -28.1016  -29.0137   21.1898 H   0  0  0  0  0  0
  -25.9947  -25.9151   19.0340 H   0  0  0  0  0  0
  -23.9750  -27.2856   19.0296 H   0  0  0  0  0  0
  -23.7413  -30.5856   19.4003 H   0  0  0  0  0  0
  -22.7476  -29.2373   19.8622 H   0  0  0  0  0  0
  -25.1295  -36.1947   25.0822 H   0  0  0  0  0  0
  -20.9966  -28.3253   24.1421 H   0  0  0  0  0  0
  -20.5677  -26.2286   23.3613 H   0  0  0  0  0  0
  -21.6637  -26.7448   22.1209 H   0  0  0  0  0  0
  -19.6912  -25.6297   21.1243 H   0  0  0  0  0  0
  -19.6689  -27.3195   20.6747 H   0  0  0  0  0  0
  -17.4199  -26.6674   21.4024 H   0  0  0  0  0  0
  -18.0326  -26.0070   22.9020 H   0  0  0  0  0  0
  -19.7934  -30.7268   24.2268 H   0  0  0  0  0  0
  -17.5014  -31.6266   24.5166 H   0  0  0  0  0  0
  -15.5350  -30.2991   23.7655 H   0  0  0  0  0  0
  -15.8666  -28.0829   22.7061 H   0  0  0  0  0  0
  -24.5894  -30.7072   25.7779 H   0  0  0  0  0  0
  -24.8911  -32.2888   26.4875 H   0  0  0  0  0  0
  -25.8050  -30.8901   27.0218 H   0  0  0  0  0  0
  -26.2888  -29.6773   24.1180 H   0  0  0  0  0  0
  -27.4041  -29.7274   25.4639 H   0  0  0  0  0  0
  -27.8745  -30.4317   23.9347 H   0  0  0  0  0  0
  -27.2649  -33.3619   26.2068 H   0  0  0  0  0  0
  -28.3846  -32.6893   25.0311 H   0  0  0  0  0  0
  -28.0714  -31.8448   26.5393 H   0  0  0  0  0  0
  -28.2601  -38.0102   24.7510 H   0  0  0  0  0  0
  -28.1076  -36.2634   24.6291 H   0  0  0  0  0  0
  -27.2299  -37.1458   25.8866 H   0  0  0  0  0  0
  -20.9344  -29.8743   21.6897 H   0  0  0  0  0  0
  -26.0180  -38.2860   24.1398 H   0  0  0  0  0  0
  -33.2226  -18.8280   21.8536 H   0  0  0  0  0  0
  -31.8425  -20.7415   21.2654 H   0  0  0  0  0  0
  -32.3775  -16.5450   21.6967 H   0  0  0  0  0  0
  -28.5663  -18.0945   20.3480 H   0  0  0  0  0  0
  -27.0488  -24.1383   20.7738 H   0  0  0  0  0  0
  -28.0438  -25.2849   18.5441 H   0  0  0  0  0  0
  -29.5743  -25.1181   19.3247 H   0  0  0  0  0  0
  -28.9535  -15.5666   20.9603 H   0  0  0  0  0  0
  1 25  1  0  0  0
  1 30  2  0  0  0
  1 83  1  0  0  0
  2  3  1  0  0  0
  2 25  1  0  0  0
  2 86  1  0  0  0
  2 87  1  0  0  0
  3  4  1  0  0  0
  3 88  1  0  0  0
  3 89  1  0  0  0
  4  5  1  0  0  0
  4 90  1  0  0  0
  4 91  1  0  0  0
  5  6  1  0  0  0
  5 26  1  0  0  0
  5 92  1  0  0  0
  6 25  1  0  0  0
  6 93  1  0  0  0
  6 94  1  0  0  0
  7  8  2  0  0  0
  7 26  1  0  0  0
  7 29  1  0  0  0
  8  9  1  0  0  0
  8 22  1  0  0  0
  9 10  1  0  0  0
  9 27  2  0  0  0
 10 11  2  0  0  0
 10 15  1  0  0  0
 11 12  1  0  0  0
 11 95  1  0  0  0
 12 13  2  0  0  0
 12 96  1  0  0  0
 13 14  1  0  0  0
 13 31  1  0  0  0
 14 15  2  0  0  0
 14 97  1  0  0  0
 15 98  1  0  0  0
 16 17  2  0  0  0
 16 21  1  0  0  0
 16 31  1  0  0  0
 17 18  1  0  0  0
 17 99  1  0  0  0
 18 19  2  0  0  0
 18100  1  0  0  0
 19 20  1  0  0  0
 19 24  1  0  0  0
 20 21  2  0  0  0
 20101  1  0  0  0
 21 23  1  0  0  0
 22 28  1  0  0  0
 22 32  2  0  0  0
 26 27  1  0  0  0
 28102  1  0  0  0
 28103  1  0  0  0
 29104  1  0  0  0
 29105  1  0  0  0
 33 34  1  0  0  0
 33 66  1  0  0  0
 33 70  2  0  0  0
 34 36  1  0  0  0
 34 59  1  0  0  0
 34106  1  0  0  0
 35 44  2  0  0  0
 35 45  1  0  0  0
 35 68  1  0  0  0
 36 56  1  0  0  0
 36107  1  0  0  0
 37 39  1  0  0  0
 37 47  1  0  0  0
 37 66  1  0  0  0
 37108  1  0  0  0
 38 43  2  0  0  0
 38 46  1  0  0  0
 38 47  1  0  0  0
 39 64  1  0  0  0
 39 67  2  0  0  0
 40 52  1  0  0  0
 40 53  2  0  0  0
 40 58  1  0  0  0
 41109  1  0  0  0
 41110  1  0  0  0
 41111  1  0  0  0
 41 48  1  0  0  0
 42 43  1  0  0  0
 42 66  1  0  0  0
 42112  1  0  0  0
 42113  1  0  0  0
 43 44  1  0  0  0
 44114  1  0  0  0
 45 46  2  0  0  0
 45115  1  0  0  0
 46116  1  0  0  0
 47117  1  0  0  0
 47118  1  0  0  0
 48 56  1  0  0  0
 48 65  1  0  0  0
 48119  1  0  0  0
 49 50  1  0  0  0
 49 53  1  0  0  0
 49 64  1  0  0  0
 49120  1  0  0  0
 50 51  1  0  0  0
 50121  1  0  0  0
 50122  1  0  0  0
 51 52  1  0  0  0
 51123  1  0  0  0
 51124  1  0  0  0
 52125  1  0  0  0
 52126  1  0  0  0
 53 54  1  0  0  0
 54 55  2  0  0  0
 54127  1  0  0  0
 55 57  1  0  0  0
 55128  1  0  0  0
 56 69  2  0  0  0
 57 58  2  0  0  0
 57129  1  0  0  0
 58130  1  0  0  0
 59 60  1  0  0  0
 59 61  1  0  0  0
 59 62  1  0  0  0
 60131  1  0  0  0
 60132  1  0  0  0
 60133  1  0  0  0
 61134  1  0  0  0
 61135  1  0  0  0
 61136  1  0  0  0
 62137  1  0  0  0
 62138  1  0  0  0
 62139  1  0  0  0
 63 65  1  0  0  0
 63140  1  0  0  0
 63141  1  0  0  0
 63142  1  0  0  0
 64143  1  0  0  0
 65144  1  0  0  0
 68 81  1  0  0  0
 71 72  2  0  0  0
 71 73  1  0  0  0
 71145  1  0  0  0
 72 75  1  0  0  0
 72146  1  0  0  0
 73 76  2  0  0  0
 73147  1  0  0  0
 74 75  2  0  0  0
 74 76  1  0  0  0
 74148  1  0  0  0
 75 82  1  0  0  0
 76 83  1  0  0  0
 77 78  1  0  0  0
 77 79  1  0  0  0
 77 80  2  0  0  0
 78 82  1  0  0  0
 78 84  2  0  0  0
 79 82  1  0  0  0
 79 85  2  0  0  0
 80 81  1  0  0  0
 80149  1  0  0  0
 81150  1  0  0  0
 81151  1  0  0  0
 83152  1  0  0  0
M  ISO  4   1 100  68 101  81 101  83 100
M  END
> <chiral flag>
0

> <version>
0

> <s_m_source_file>
/data/baiqing/PycharmProjects/Reinvent-master-3.2/result/LINK_invent/BTK/process_docking_weight1_custom_product_contain_oxygen_bond_distance_aromatic_linkinvent_7_9_3/rearranged_h_0076.sdf

> <i_m_source_file_index>
34

> <r_mmod_Potential_Energy-OPLS-2005>
36.7597465515137

> <r_mmod_Stretch_Energy-OPLS-2005>
72.2545471191406

> <r_mmod_Bend_Energy-OPLS-2005>
208.287475585938

> <r_mmod_Torsional_Energy-OPLS-2005>
213.603958129883

> <r_mmod_Improper_Torsional_Energy-OPLS-2005>
6.562331199646

> <r_mmod_Van_der_Waal_Energy-OPLS-2005>
142.117584228516

> <r_mmod_Electrostatic_Energy-OPLS-2005>
-412.991180419922

> <r_mmod_Solvation_Energy-OPLS-2005>
-230.805480957031

> <b_mmod_Minimization_Converged-OPLS-2005>
0

> <r_mmod_RMS_Derivative-OPLS-2005>
0.874839544296265

$$$$
34
                    3D
 Structure written by MMmdl.
158166  0  0  1  0            999 V2000
  -30.6911  -14.4796   20.5946 C   0  0  0  0  0  0
  -30.4282  -12.3195   19.4197 C   0  0  0  0  0  0
  -29.4961  -12.5129   18.2043 C   0  0  0  0  0  0
  -28.0189  -12.3593   18.6191 C   0  0  0  0  0  0
  -27.6615  -13.2012   19.8738 C   0  0  2  0  0  0
  -28.7017  -12.9763   20.9947 C   0  0  0  0  0  0
  -25.2601  -13.8139   20.5684 C   0  0  0  0  0  0
  -24.1844  -13.0430   20.9162 C   0  0  0  0  0  0
  -24.6384  -11.6896   20.8718 C   0  0  0  0  0  0
  -23.9054  -10.4289   21.0394 C   0  0  0  0  0  0
  -24.3613   -9.4212   21.9177 C   0  0  0  0  0  0
  -23.6292   -8.2243   22.0759 C   0  0  0  0  0  0
  -22.4276   -8.0274   21.3546 C   0  0  0  0  0  0
  -21.9908   -9.0242   20.4643 C   0  0  0  0  0  0
  -22.7226  -10.2125   20.3048 C   0  0  0  0  0  0
  -21.6847   -6.0739   22.5285 C   0  0  0  0  0  0
  -21.4006   -6.5643   23.8217 C   0  0  0  0  0  0
  -21.3660   -5.6799   24.9178 C   0  0  0  0  0  0
  -21.6041   -4.3065   24.7229 C   0  0  0  0  0  0
  -21.8821   -3.8157   23.4354 C   0  0  0  0  0  0
  -21.9189   -4.6968   22.3407 C   0  0  0  0  0  0
  -22.7872  -13.5232   21.1833 C   0  0  0  0  0  0
  -22.1659   -4.2160   21.0983 F   0  0  0  0  0  0
  -21.5629   -3.4550   25.7740 F   0  0  0  0  0  0
  -30.0330  -13.2957   20.4469 N   0  0  0  0  0  0
  -26.3025  -12.9301   20.3348 N   0  0  0  0  0  0
  -25.9308  -11.6465   20.5738 N   0  0  0  0  0  0
  -22.0507  -12.8220   22.0380 N   0  0  0  0  0  0
  -25.4338  -15.1868   20.4186 N   0  0  0  0  0  0
  -31.8170  -14.6806   20.1285 O   0  0  0  0  0  0
  -21.6633   -6.8885   21.4249 O   0  0  0  0  0  0
  -22.3563  -14.5554   20.6701 O   0  0  0  0  0  0
  -24.6152  -31.8690   23.2077 C   0  0  0  0  0  0
  -25.9051  -32.4825   23.8395 C   0  0  1  0  0  0
  -27.2463  -27.4306   20.1047 C   0  0  0  0  0  0
  -25.5915  -33.8623   24.2330 N   0  0  0  0  0  0
  -23.4049  -30.4865   21.5500 C   0  0  2  0  0  0
  -24.8553  -28.9426   20.1257 C   0  0  0  0  0  0
  -22.7417  -29.4649   22.5012 C   0  0  0  0  0  0
  -18.0285  -28.1354   22.8498 C   0  0  0  0  0  0
  -24.1483  -36.7297   23.2642 C   0  0  0  0  0  0
  -25.9341  -30.8296   21.3640 C   0  0  0  0  0  0
  -26.0144  -29.4587   20.7206 C   0  0  0  0  0  0
  -27.2145  -28.7096   20.7084 C   0  0  0  0  0  0
  -26.0727  -26.9252   19.5109 C   0  0  0  0  0  0
  -24.8772  -27.6715   19.5233 C   0  0  0  0  0  0
  -23.6161  -29.8108   20.1691 C   0  0  0  0  0  0
  -25.4110  -36.3110   24.0348 C   0  0  1  0  0  0
  -20.5867  -28.3647   23.1313 C   0  0  2  0  0  0
  -20.6760  -26.9376   22.5426 C   0  0  0  0  0  0
  -19.5734  -26.6374   21.5216 C   0  0  0  0  0  0
  -18.1916  -26.7915   22.1614 C   0  0  0  0  0  0
  -19.1529  -28.8823   23.2895 C   0  0  0  0  0  0
  -18.9460  -30.1437   23.8892 C   0  0  0  0  0  0
  -17.6462  -30.6569   24.0557 C   0  0  0  0  0  0
  -25.9050  -34.9478   23.5138 C   0  0  0  0  0  0
  -16.5357  -29.9054   23.6331 C   0  0  0  0  0  0
  -16.7278  -28.6470   23.0353 C   0  0  0  0  0  0
  -26.4477  -31.6577   25.0711 C   0  0  0  0  0  0
  -25.3728  -31.3694   26.1448 C   0  0  0  0  0  0
  -27.0298  -30.3011   24.6078 C   0  0  0  0  0  0
  -27.6066  -32.4282   25.7468 C   0  0  0  0  0  0
  -27.5591  -37.1790   24.8466 C   0  0  0  0  0  0
  -21.4150  -29.3018   22.3729 N   0  0  0  0  0  0
  -26.4297  -37.3797   23.9429 N   0  0  0  0  0  0
  -24.6697  -31.0765   22.0990 N   0  0  0  0  0  0
  -23.4176  -28.8227   23.3094 O   0  0  0  0  0  0
  -28.4102  -26.6983   20.0184 O   0  0  0  0  0  0
  -26.5603  -34.8933   22.4694 O   0  0  0  0  0  0
  -23.5334  -32.1456   23.7448 O   0  0  0  0  0  0
  -31.6414  -18.8198   21.6342 C   0  0  0  0  0  0
  -31.4877  -17.4185   21.5037 C   0  0  0  0  0  0
  -29.2720  -19.1361   21.1995 C   0  0  0  0  0  0
  -30.5344  -19.6969   21.4954 C   0  0  0  0  0  0
  -30.2184  -16.8615   21.2238 C   0  0  0  0  0  0
  -29.1184  -17.7366   21.0701 C   0  0  0  0  0  0
  -30.6972  -21.1511   21.7237 C   0  0  0  0  0  0
  -28.9726  -24.3411   20.5406 C   0  0  0  0  0  0
  -31.4781  -24.0785   20.4430 C   0  0  0  0  0  0
  -28.6458  -25.7574   21.0805 C   0  0  0  0  0  0
  -30.1916  -23.5914   21.1467 C   0  0  2  0  0  0
  -29.9635  -15.4561   21.1690 N   0  0  0  0  0  0
  -30.0536  -22.1072   21.0128 N   0  0  0  0  0  0
  -31.5271  -21.5446   22.6921 N   0  3  0  0  0  0
  -28.2785  -23.8312   19.6543 O   0  0  0  0  0  0
  -27.8943  -17.2194   20.7998 F   0  0  0  0  0  0
  -31.4730  -12.4265   19.1217 H   0  0  0  0  0  0
  -30.3355  -11.3060   19.8120 H   0  0  0  0  0  0
  -29.7410  -11.7923   17.4225 H   0  0  0  0  0  0
  -29.6532  -13.5015   17.7699 H   0  0  0  0  0  0
  -27.8425  -11.3023   18.8218 H   0  0  0  0  0  0
  -27.3642  -12.6218   17.7870 H   0  0  0  0  0  0
  -27.7060  -14.2496   19.5767 H   0  0  0  0  0  0
  -28.6822  -11.9351   21.3212 H   0  0  0  0  0  0
  -28.4569  -13.5601   21.8830 H   0  0  0  0  0  0
  -25.2763   -9.5686   22.4752 H   0  0  0  0  0  0
  -24.0003   -7.4639   22.7486 H   0  0  0  0  0  0
  -21.0845   -8.8753   19.8944 H   0  0  0  0  0  0
  -22.3688  -10.9662   19.6162 H   0  0  0  0  0  0
  -21.1999   -7.6146   23.9724 H   0  0  0  0  0  0
  -21.1475   -6.0527   25.9081 H   0  0  0  0  0  0
  -22.0600   -2.7619   23.2847 H   0  0  0  0  0  0
  -22.4123  -11.9867   22.4737 H   0  0  0  0  0  0
  -21.1127  -13.1245   22.2596 H   0  0  0  0  0  0
  -24.6733  -15.8420   20.5618 H   0  0  0  0  0  0
  -26.3053  -15.6446   20.1782 H   0  0  0  0  0  0
  -26.7130  -32.5542   23.1173 H   0  0  0  0  0  0
  -25.0103  -33.9803   25.0499 H   0  0  0  0  0  0
  -22.6952  -31.3034   21.4027 H   0  0  0  0  0  0
  -23.3768  -35.9604   23.3306 H   0  0  0  0  0  0
  -24.3592  -36.8902   22.2058 H   0  0  0  0  0  0
  -23.7189  -37.6489   23.6649 H   0  0  0  0  0  0
  -26.0452  -31.5913   20.5908 H   0  0  0  0  0  0
  -26.8230  -30.8893   21.9803 H   0  0  0  0  0  0
  -28.1135  -29.1134   21.1518 H   0  0  0  0  0  0
  -26.0886  -25.9555   19.0338 H   0  0  0  0  0  0
  -23.9859  -27.2634   19.0670 H   0  0  0  0  0  0
  -23.7261  -30.5830   19.4070 H   0  0  0  0  0  0
  -22.7403  -29.2303   19.8743 H   0  0  0  0  0  0
  -25.1268  -36.1989   25.0837 H   0  0  0  0  0  0
  -20.9964  -28.3208   24.1430 H   0  0  0  0  0  0
  -20.5648  -26.2263   23.3617 H   0  0  0  0  0  0
  -21.6620  -26.7395   22.1219 H   0  0  0  0  0  0
  -19.6907  -25.6298   21.1223 H   0  0  0  0  0  0
  -19.6676  -27.3216   20.6772 H   0  0  0  0  0  0
  -17.4193  -26.6712   21.3993 H   0  0  0  0  0  0
  -18.0270  -26.0027   22.8966 H   0  0  0  0  0  0
  -19.7939  -30.7261   24.2234 H   0  0  0  0  0  0
  -17.5013  -31.6247   24.5155 H   0  0  0  0  0  0
  -15.5355  -30.2947   23.7656 H   0  0  0  0  0  0
  -15.8678  -28.0800   22.7048 H   0  0  0  0  0  0
  -24.5932  -30.7001   25.7798 H   0  0  0  0  0  0
  -24.8882  -32.2841   26.4858 H   0  0  0  0  0  0
  -25.8081  -30.8909   27.0223 H   0  0  0  0  0  0
  -26.2833  -29.6771   24.1145 H   0  0  0  0  0  0
  -27.4083  -29.7251   25.4534 H   0  0  0  0  0  0
  -27.8661  -30.4351   23.9213 H   0  0  0  0  0  0
  -27.2735  -33.3619   26.2018 H   0  0  0  0  0  0
  -28.3888  -32.6767   25.0281 H   0  0  0  0  0  0
  -28.0693  -31.8386   26.5390 H   0  0  0  0  0  0
  -28.2579  -38.0109   24.7551 H   0  0  0  0  0  0
  -28.1105  -36.2644   24.6236 H   0  0  0  0  0  0
  -27.2324  -37.1381   25.8869 H   0  0  0  0  0  0
  -20.9336  -29.8726   21.6922 H   0  0  0  0  0  0
  -26.0184  -38.2875   24.1452 H   0  0  0  0  0  0
  -32.6221  -19.2122   21.8644 H   0  0  0  0  0  0
  -32.3471  -16.7793   21.6482 H   0  0  0  0  0  0
  -28.4038  -19.7700   21.0994 H   0  0  0  0  0  0
  -31.4960  -25.1625   20.3214 H   0  0  0  0  0  0
  -31.5808  -23.6405   19.4485 H   0  0  0  0  0  0
  -32.3690  -23.8097   21.0120 H   0  0  0  0  0  0
  -29.4819  -26.1132   21.6824 H   0  0  0  0  0  0
  -27.7835  -25.6907   21.7446 H   0  0  0  0  0  0
  -30.2420  -23.8520   22.2052 H   0  0  0  0  0  0
  -29.0192  -15.1922   21.3997 H   0  0  0  0  0  0
  -29.4242  -21.7987   20.2801 H   0  0  0  0  0  0
  -31.9828  -20.8515   23.2662 H   0  0  0  0  0  0
  -31.6702  -22.5179   22.8978 H   0  0  0  0  0  0
  1 25  1  0  0  0
  1 30  2  0  0  0
  1 82  1  0  0  0
  2  3  1  0  0  0
  2 25  1  0  0  0
  2 87  1  0  0  0
  2 88  1  0  0  0
  3  4  1  0  0  0
  3 89  1  0  0  0
  3 90  1  0  0  0
  4  5  1  0  0  0
  4 91  1  0  0  0
  4 92  1  0  0  0
  5  6  1  0  0  0
  5 26  1  0  0  0
  5 93  1  0  0  0
  6 25  1  0  0  0
  6 94  1  0  0  0
  6 95  1  0  0  0
  7  8  2  0  0  0
  7 26  1  0  0  0
  7 29  1  0  0  0
  8  9  1  0  0  0
  8 22  1  0  0  0
  9 10  1  0  0  0
  9 27  2  0  0  0
 10 11  2  0  0  0
 10 15  1  0  0  0
 11 12  1  0  0  0
 11 96  1  0  0  0
 12 13  2  0  0  0
 12 97  1  0  0  0
 13 14  1  0  0  0
 13 31  1  0  0  0
 14 15  2  0  0  0
 14 98  1  0  0  0
 15 99  1  0  0  0
 16 17  2  0  0  0
 16 21  1  0  0  0
 16 31  1  0  0  0
 17 18  1  0  0  0
 17100  1  0  0  0
 18 19  2  0  0  0
 18101  1  0  0  0
 19 20  1  0  0  0
 19 24  1  0  0  0
 20 21  2  0  0  0
 20102  1  0  0  0
 21 23  1  0  0  0
 22 28  1  0  0  0
 22 32  2  0  0  0
 26 27  1  0  0  0
 28103  1  0  0  0
 28104  1  0  0  0
 29105  1  0  0  0
 29106  1  0  0  0
 33 34  1  0  0  0
 33 66  1  0  0  0
 33 70  2  0  0  0
 34 36  1  0  0  0
 34 59  1  0  0  0
 34107  1  0  0  0
 35 44  2  0  0  0
 35 45  1  0  0  0
 35 68  1  0  0  0
 36 56  1  0  0  0
 36108  1  0  0  0
 37 39  1  0  0  0
 37 47  1  0  0  0
 37 66  1  0  0  0
 37109  1  0  0  0
 38 43  2  0  0  0
 38 46  1  0  0  0
 38 47  1  0  0  0
 39 64  1  0  0  0
 39 67  2  0  0  0
 40 52  1  0  0  0
 40 53  2  0  0  0
 40 58  1  0  0  0
 41110  1  0  0  0
 41111  1  0  0  0
 41112  1  0  0  0
 41 48  1  0  0  0
 42 43  1  0  0  0
 42 66  1  0  0  0
 42113  1  0  0  0
 42114  1  0  0  0
 43 44  1  0  0  0
 44115  1  0  0  0
 45 46  2  0  0  0
 45116  1  0  0  0
 46117  1  0  0  0
 47118  1  0  0  0
 47119  1  0  0  0
 48 56  1  0  0  0
 48 65  1  0  0  0
 48120  1  0  0  0
 49 50  1  0  0  0
 49 53  1  0  0  0
 49 64  1  0  0  0
 49121  1  0  0  0
 50 51  1  0  0  0
 50122  1  0  0  0
 50123  1  0  0  0
 51 52  1  0  0  0
 51124  1  0  0  0
 51125  1  0  0  0
 52126  1  0  0  0
 52127  1  0  0  0
 53 54  1  0  0  0
 54 55  2  0  0  0
 54128  1  0  0  0
 55 57  1  0  0  0
 55129  1  0  0  0
 56 69  2  0  0  0
 57 58  2  0  0  0
 57130  1  0  0  0
 58131  1  0  0  0
 59 60  1  0  0  0
 59 61  1  0  0  0
 59 62  1  0  0  0
 60132  1  0  0  0
 60133  1  0  0  0
 60134  1  0  0  0
 61135  1  0  0  0
 61136  1  0  0  0
 61137  1  0  0  0
 62138  1  0  0  0
 62139  1  0  0  0
 62140  1  0  0  0
 63 65  1  0  0  0
 63141  1  0  0  0
 63142  1  0  0  0
 63143  1  0  0  0
 64144  1  0  0  0
 65145  1  0  0  0
 68 80  1  0  0  0
 71 72  2  0  0  0
 71 74  1  0  0  0
 71146  1  0  0  0
 72 75  1  0  0  0
 72147  1  0  0  0
 73 74  2  0  0  0
 73 76  1  0  0  0
 73148  1  0  0  0
 74 77  1  0  0  0
 75 76  2  0  0  0
 75 82  1  0  0  0
 76 86  1  0  0  0
 77 83  1  0  0  0
 77 84  2  0  0  0
 78 80  1  0  0  0
 78 81  1  0  0  0
 78 85  2  0  0  0
 79149  1  0  0  0
 79150  1  0  0  0
 79151  1  0  0  0
 79 81  1  0  0  0
 80152  1  0  0  0
 80153  1  0  0  0
 81 83  1  0  0  0
 81154  1  0  0  0
 82155  1  0  0  0
 83156  1  0  0  0
 84157  1  0  0  0
 84158  1  0  0  0
M  CHG  1  84   1
M  ISO  4   1 100  68 101  80 101  82 100
M  END
> <chiral flag>
0

> <version>
0

> <s_m_source_file>
/data/baiqing/PycharmProjects/Reinvent-master-3.2/result/LINK_invent/BTK/process_docking_weight1_custom_product_contain_oxygen_bond_distance_aromatic_linkinvent_7_9_3/rearranged_h_0076.sdf

> <i_m_source_file_index>
35

> <r_mmod_Potential_Energy-OPLS-2005>
-343.361022949219

> <r_mmod_Stretch_Energy-OPLS-2005>
41.0176734924316

> <r_mmod_Bend_Energy-OPLS-2005>
96.0931549072266

> <r_mmod_Torsional_Energy-OPLS-2005>
249.946731567383

> <r_mmod_Improper_Torsional_Energy-OPLS-2005>
3.89295768737793

> <r_mmod_Van_der_Waal_Energy-OPLS-2005>
147.530654907227

> <r_mmod_Electrostatic_Energy-OPLS-2005>
-452.6435546875

> <r_mmod_Solvation_Energy-OPLS-2005>
-441.269744873047

> <b_mmod_Minimization_Converged-OPLS-2005>
0

> <r_mmod_RMS_Derivative-OPLS-2005>
2.31311631202698

$$$$
35
                    3D
 Structure written by MMmdl.
154163  0  0  1  0            999 V2000
  -30.6899  -14.5806   20.5284 C   0  0  0  0  0  0
  -30.4068  -12.3679   19.4482 C   0  0  0  0  0  0
  -29.4932  -12.5265   18.2159 C   0  0  0  0  0  0
  -28.0218  -12.3562   18.6253 C   0  0  0  0  0  0
  -27.6465  -13.2222   19.8569 C   0  0  2  0  0  0
  -28.6891  -13.0960   20.9923 C   0  0  0  0  0  0
  -25.2536  -13.8193   20.5663 C   0  0  0  0  0  0
  -24.1821  -13.0493   20.9191 C   0  0  0  0  0  0
  -24.6363  -11.6944   20.8750 C   0  0  0  0  0  0
  -23.9042  -10.4323   21.0359 C   0  0  0  0  0  0
  -24.3600   -9.4252   21.9150 C   0  0  0  0  0  0
  -23.6275   -8.2293   22.0749 C   0  0  0  0  0  0
  -22.4266   -8.0309   21.3546 C   0  0  0  0  0  0
  -21.9897   -9.0266   20.4646 C   0  0  0  0  0  0
  -22.7205  -10.2150   20.3032 C   0  0  0  0  0  0
  -21.6855   -6.0761   22.5288 C   0  0  0  0  0  0
  -21.4018   -6.5652   23.8226 C   0  0  0  0  0  0
  -21.3655   -5.6817   24.9172 C   0  0  0  0  0  0
  -21.6032   -4.3079   24.7225 C   0  0  0  0  0  0
  -21.8819   -3.8190   23.4352 C   0  0  0  0  0  0
  -21.9182   -4.6995   22.3408 C   0  0  0  0  0  0
  -22.7858  -13.5283   21.1883 C   0  0  0  0  0  0
  -22.1674   -4.2173   21.0995 F   0  0  0  0  0  0
  -21.5599   -3.4559   25.7742 F   0  0  0  0  0  0
  -30.0126  -13.3964   20.4298 N   0  0  0  0  0  0
  -26.2942  -12.9380   20.3278 N   0  0  0  0  0  0
  -25.9281  -11.6535   20.5751 N   0  0  0  0  0  0
  -22.0503  -12.8235   22.0388 N   0  0  0  0  0  0
  -25.4312  -15.1912   20.3944 N   0  0  0  0  0  0
  -31.8554  -14.6697   20.1270 O   0  0  0  0  0  0
  -21.6650   -6.8893   21.4262 O   0  0  0  0  0  0
  -22.3552  -14.5582   20.6716 O   0  0  0  0  0  0
  -24.6294  -31.8596   23.2026 C   0  0  0  0  0  0
  -25.9149  -32.4779   23.8356 C   0  0  1  0  0  0
  -27.2224  -27.3572   20.1333 C   0  0  0  0  0  0
  -25.5938  -33.8573   24.2264 N   0  0  0  0  0  0
  -23.4214  -30.4908   21.5357 C   0  0  2  0  0  0
  -24.8645  -28.9469   20.1094 C   0  0  0  0  0  0
  -22.7475  -29.4687   22.4844 C   0  0  0  0  0  0
  -18.0356  -28.1355   22.8424 C   0  0  0  0  0  0
  -24.1493  -36.7345   23.2637 C   0  0  0  0  0  0
  -25.9599  -30.8075   21.3667 C   0  0  0  0  0  0
  -26.0299  -29.4374   20.7126 C   0  0  0  0  0  0
  -27.2129  -28.6523   20.7134 C   0  0  0  0  0  0
  -26.0379  -26.9129   19.4989 C   0  0  0  0  0  0
  -24.8664  -27.6898   19.4903 C   0  0  0  0  0  0
  -23.6314  -29.8175   20.1522 C   0  0  0  0  0  0
  -25.4113  -36.3120   24.0326 C   0  0  1  0  0  0
  -20.5928  -28.3711   23.1218 C   0  0  2  0  0  0
  -20.6834  -26.9417   22.5450 C   0  0  0  0  0  0
  -19.5882  -26.6431   21.5168 C   0  0  0  0  0  0
  -18.2055  -26.7906   22.1555 C   0  0  0  0  0  0
  -19.1562  -28.8843   23.2849 C   0  0  0  0  0  0
  -18.9418  -30.1420   23.8918 C   0  0  0  0  0  0
  -17.6423  -30.6562   24.0511 C   0  0  0  0  0  0
  -25.9039  -34.9479   23.5100 C   0  0  0  0  0  0
  -16.5345  -29.9033   23.6208 C   0  0  0  0  0  0
  -16.7324  -28.6428   23.0270 C   0  0  0  0  0  0
  -26.4519  -31.6624   25.0752 C   0  0  0  0  0  0
  -25.3751  -31.3790   26.1474 C   0  0  0  0  0  0
  -27.0340  -30.3022   24.6264 C   0  0  0  0  0  0
  -27.6051  -32.4365   25.7559 C   0  0  0  0  0  0
  -27.5577  -37.1826   24.8442 C   0  0  0  0  0  0
  -21.4194  -29.3025   22.3528 N   0  0  0  0  0  0
  -26.4288  -37.3810   23.9400 N   0  0  0  0  0  0
  -24.6889  -31.0701   22.0922 N   0  0  0  0  0  0
  -23.4191  -28.8261   23.2973 O   0  0  0  0  0  0
  -28.3464  -26.5347   20.2410 O   0  0  0  0  0  0
  -26.5631  -34.8916   22.4678 O   0  0  0  0  0  0
  -23.5464  -32.1338   23.7390 O   0  0  0  0  0  0
  -27.0149  -18.4934   22.2053 C   0  0  0  0  0  0
  -28.0172  -17.5705   21.8500 C   0  0  0  0  0  0
  -27.2274  -19.8794   22.0669 C   0  0  0  0  0  0
  -29.4505  -19.4285   21.1720 C   0  0  0  0  0  0
  -29.2491  -18.0112   21.3061 C   0  0  0  0  0  0
  -28.4576  -20.3764   21.5794 C   0  0  0  0  0  0
  -29.0400  -24.0605   22.1007 C   0  0  0  0  0  0
  -28.5251  -24.0895   20.7279 C   0  0  0  0  0  0
  -28.9954  -22.5869   22.5880 C   0  0  0  0  0  0
  -28.2280  -25.1753   19.9537 C   0  0  0  0  0  0
  -30.3165  -16.9876   20.9118 C   0  0  0  0  0  0
  -28.3124  -22.6224   20.3453 C   0  0  0  0  0  0
  -28.6578  -21.8099   21.5269 N   0  0  0  0  0  0
  -29.9618  -15.6676   20.9089 N   0  0  0  0  0  0
  -29.4633  -25.0093   22.7734 O   0  0  0  0  0  0
  -29.2178  -22.2209   23.7538 O   0  0  0  0  0  0
  -31.4389  -17.4061   20.5989 O   0  0  0  0  0  0
  -31.4535  -12.4645   19.1614 H   0  0  0  0  0  0
  -30.3059  -11.3721   19.8828 H   0  0  0  0  0  0
  -29.7570  -11.7916   17.4535 H   0  0  0  0  0  0
  -29.6334  -13.5116   17.7602 H   0  0  0  0  0  0
  -27.8712  -11.3042   18.8565 H   0  0  0  0  0  0
  -27.3625  -12.5773   17.7842 H   0  0  0  0  0  0
  -27.6605  -14.2545   19.5068 H   0  0  0  0  0  0
  -28.6880  -12.0914   21.4145 H   0  0  0  0  0  0
  -28.4445  -13.7581   21.8234 H   0  0  0  0  0  0
  -25.2741   -9.5734   22.4712 H   0  0  0  0  0  0
  -23.9992   -7.4707   22.7491 H   0  0  0  0  0  0
  -21.0821   -8.8779   19.8961 H   0  0  0  0  0  0
  -22.3658  -10.9677   19.6161 H   0  0  0  0  0  0
  -21.2069   -7.6173   23.9719 H   0  0  0  0  0  0
  -21.1430   -6.0562   25.9068 H   0  0  0  0  0  0
  -22.0587   -2.7654   23.2853 H   0  0  0  0  0  0
  -22.4184  -11.9859   22.4630 H   0  0  0  0  0  0
  -21.1152  -13.1280   22.2694 H   0  0  0  0  0  0
  -24.6548  -15.8397   20.4318 H   0  0  0  0  0  0
  -26.2485  -15.5847   19.9486 H   0  0  0  0  0  0
  -26.7243  -32.5430   23.1120 H   0  0  0  0  0  0
  -25.0043  -33.9725   25.0376 H   0  0  0  0  0  0
  -22.7300  -31.3187   21.3806 H   0  0  0  0  0  0
  -23.3734  -35.9697   23.3303 H   0  0  0  0  0  0
  -24.3569  -36.8952   22.2041 H   0  0  0  0  0  0
  -23.7235  -37.6542   23.6654 H   0  0  0  0  0  0
  -26.1007  -31.5716   20.5994 H   0  0  0  0  0  0
  -26.8473  -30.8506   21.9917 H   0  0  0  0  0  0
  -28.1090  -29.0206   21.1903 H   0  0  0  0  0  0
  -25.9750  -25.9452   19.0303 H   0  0  0  0  0  0
  -23.9700  -27.3045   19.0194 H   0  0  0  0  0  0
  -23.7593  -30.5822   19.3866 H   0  0  0  0  0  0
  -22.7563  -29.2371   19.8493 H   0  0  0  0  0  0
  -25.1290  -36.1977   25.0817 H   0  0  0  0  0  0
  -21.0049  -28.3341   24.1333 H   0  0  0  0  0  0
  -20.5620  -26.2297   23.3630 H   0  0  0  0  0  0
  -21.6709  -26.7464   22.1245 H   0  0  0  0  0  0
  -19.7159  -25.6344   21.1239 H   0  0  0  0  0  0
  -19.6906  -27.3194   20.6642 H   0  0  0  0  0  0
  -17.4312  -26.6613   21.3987 H   0  0  0  0  0  0
  -18.0492  -26.0046   22.8923 H   0  0  0  0  0  0
  -19.7821  -30.7205   24.2496 H   0  0  0  0  0  0
  -17.4917  -31.6227   24.5114 H   0  0  0  0  0  0
  -15.5328  -30.2902   23.7528 H   0  0  0  0  0  0
  -15.8763  -28.0704   22.7026 H   0  0  0  0  0  0
  -24.5903  -30.7154   25.7829 H   0  0  0  0  0  0
  -24.8974  -32.2971   26.4920 H   0  0  0  0  0  0
  -25.8082  -30.8949   27.0237 H   0  0  0  0  0  0
  -26.2921  -29.6780   24.1251 H   0  0  0  0  0  0
  -27.3936  -29.7294   25.4834 H   0  0  0  0  0  0
  -27.8866  -30.4272   23.9574 H   0  0  0  0  0  0
  -27.2624  -33.3635   26.2184 H   0  0  0  0  0  0
  -28.3885  -32.6969   25.0427 H   0  0  0  0  0  0
  -28.0713  -31.8444   26.5449 H   0  0  0  0  0  0
  -28.2611  -38.0118   24.7494 H   0  0  0  0  0  0
  -28.1059  -36.2635   24.6278 H   0  0  0  0  0  0
  -27.2291  -37.1486   25.8846 H   0  0  0  0  0  0
  -20.9395  -29.8647   21.6643 H   0  0  0  0  0  0
  -26.0181  -38.2887   24.1386 H   0  0  0  0  0  0
  -26.0698  -18.1310   22.5869 H   0  0  0  0  0  0
  -27.8117  -16.5176   22.0027 H   0  0  0  0  0  0
  -26.4290  -20.5530   22.3518 H   0  0  0  0  0  0
  -30.3845  -19.7999   20.7655 H   0  0  0  0  0  0
  -27.8521  -25.0244   18.9544 H   0  0  0  0  0  0
  -28.9312  -22.3345   19.4952 H   0  0  0  0  0  0
  -27.2710  -22.4576   20.0744 H   0  0  0  0  0  0
  -29.0132  -15.4825   21.1756 H   0  0  0  0  0  0
  1 25  1  0  0  0
  1 30  2  0  0  0
  1 84  1  0  0  0
  2  3  1  0  0  0
  2 25  1  0  0  0
  2 88  1  0  0  0
  2 89  1  0  0  0
  3  4  1  0  0  0
  3 90  1  0  0  0
  3 91  1  0  0  0
  4  5  1  0  0  0
  4 92  1  0  0  0
  4 93  1  0  0  0
  5  6  1  0  0  0
  5 26  1  0  0  0
  5 94  1  0  0  0
  6 25  1  0  0  0
  6 95  1  0  0  0
  6 96  1  0  0  0
  7  8  2  0  0  0
  7 26  1  0  0  0
  7 29  1  0  0  0
  8  9  1  0  0  0
  8 22  1  0  0  0
  9 10  1  0  0  0
  9 27  2  0  0  0
 10 11  2  0  0  0
 10 15  1  0  0  0
 11 12  1  0  0  0
 11 97  1  0  0  0
 12 13  2  0  0  0
 12 98  1  0  0  0
 13 14  1  0  0  0
 13 31  1  0  0  0
 14 15  2  0  0  0
 14 99  1  0  0  0
 15100  1  0  0  0
 16 17  2  0  0  0
 16 21  1  0  0  0
 16 31  1  0  0  0
 17 18  1  0  0  0
 17101  1  0  0  0
 18 19  2  0  0  0
 18102  1  0  0  0
 19 20  1  0  0  0
 19 24  1  0  0  0
 20 21  2  0  0  0
 20103  1  0  0  0
 21 23  1  0  0  0
 22 28  1  0  0  0
 22 32  2  0  0  0
 26 27  1  0  0  0
 28104  1  0  0  0
 28105  1  0  0  0
 29106  1  0  0  0
 29107  1  0  0  0
 33 34  1  0  0  0
 33 66  1  0  0  0
 33 70  2  0  0  0
 34 36  1  0  0  0
 34 59  1  0  0  0
 34108  1  0  0  0
 35 44  2  0  0  0
 35 45  1  0  0  0
 35 68  1  0  0  0
 36 56  1  0  0  0
 36109  1  0  0  0
 37 39  1  0  0  0
 37 47  1  0  0  0
 37 66  1  0  0  0
 37110  1  0  0  0
 38 43  2  0  0  0
 38 46  1  0  0  0
 38 47  1  0  0  0
 39 64  1  0  0  0
 39 67  2  0  0  0
 40 52  1  0  0  0
 40 53  2  0  0  0
 40 58  1  0  0  0
 41111  1  0  0  0
 41112  1  0  0  0
 41113  1  0  0  0
 41 48  1  0  0  0
 42 43  1  0  0  0
 42 66  1  0  0  0
 42114  1  0  0  0
 42115  1  0  0  0
 43 44  1  0  0  0
 44116  1  0  0  0
 45 46  2  0  0  0
 45117  1  0  0  0
 46118  1  0  0  0
 47119  1  0  0  0
 47120  1  0  0  0
 48 56  1  0  0  0
 48 65  1  0  0  0
 48121  1  0  0  0
 49 50  1  0  0  0
 49 53  1  0  0  0
 49 64  1  0  0  0
 49122  1  0  0  0
 50 51  1  0  0  0
 50123  1  0  0  0
 50124  1  0  0  0
 51 52  1  0  0  0
 51125  1  0  0  0
 51126  1  0  0  0
 52127  1  0  0  0
 52128  1  0  0  0
 53 54  1  0  0  0
 54 55  2  0  0  0
 54129  1  0  0  0
 55 57  1  0  0  0
 55130  1  0  0  0
 56 69  2  0  0  0
 57 58  2  0  0  0
 57131  1  0  0  0
 58132  1  0  0  0
 59 60  1  0  0  0
 59 61  1  0  0  0
 59 62  1  0  0  0
 60133  1  0  0  0
 60134  1  0  0  0
 60135  1  0  0  0
 61136  1  0  0  0
 61137  1  0  0  0
 61138  1  0  0  0
 62139  1  0  0  0
 62140  1  0  0  0
 62141  1  0  0  0
 63 65  1  0  0  0
 63142  1  0  0  0
 63143  1  0  0  0
 63144  1  0  0  0
 64145  1  0  0  0
 65146  1  0  0  0
 68 80  1  0  0  0
 71 72  2  0  0  0
 71 73  1  0  0  0
 71147  1  0  0  0
 72 75  1  0  0  0
 72148  1  0  0  0
 73 76  2  0  0  0
 73149  1  0  0  0
 74 75  2  0  0  0
 74 76  1  0  0  0
 74150  1  0  0  0
 75 81  1  0  0  0
 76 83  1  0  0  0
 77 78  1  0  0  0
 77 79  1  0  0  0
 77 85  2  0  0  0
 78 80  2  0  0  0
 78 82  1  0  0  0
 79 83  1  0  0  0
 79 86  2  0  0  0
 80151  1  0  0  0
 81 84  1  0  0  0
 81 87  2  0  0  0
 82 83  1  0  0  0
 82152  1  0  0  0
 82153  1  0  0  0
 84154  1  0  0  0
M  ISO  4   1 100  68 101  80 101  84 100
M  END
> <chiral flag>
0

> <version>
0

> <s_m_source_file>
/data/baiqing/PycharmProjects/Reinvent-master-3.2/result/LINK_invent/BTK/process_docking_weight1_custom_product_contain_oxygen_bond_distance_aromatic_linkinvent_7_9_3/rearranged_h_0076.sdf

> <i_m_source_file_index>
36

> <r_mmod_Potential_Energy-OPLS-2005>
88.3771362304688

> <r_mmod_Stretch_Energy-OPLS-2005>
57.1868171691895

> <r_mmod_Bend_Energy-OPLS-2005>
145.748657226562

> <r_mmod_Torsional_Energy-OPLS-2005>
280.85205078125

> <r_mmod_Improper_Torsional_Energy-OPLS-2005>
5.21029424667358

> <r_mmod_Van_der_Waal_Energy-OPLS-2005>
147.115661621094

> <r_mmod_Electrostatic_Energy-OPLS-2005>
-321.749053955078

> <r_mmod_Solvation_Energy-OPLS-2005>
-264.224212646484

> <b_mmod_Minimization_Converged-OPLS-2005>
0

> <r_mmod_RMS_Derivative-OPLS-2005>
7.74874114990234

$$$$
36
                    3D
 Structure written by MMmdl.
156165  0  0  1  0            999 V2000
  -30.6099  -14.6555   20.4916 C   0  0  0  0  0  0
  -30.4403  -12.3989   19.4545 C   0  0  0  0  0  0
  -29.5106  -12.5134   18.2247 C   0  0  0  0  0  0
  -28.0317  -12.3535   18.6335 C   0  0  0  0  0  0
  -27.6529  -13.2189   19.8659 C   0  0  2  0  0  0
  -28.6995  -13.0736   20.9937 C   0  0  0  0  0  0
  -25.2536  -13.8156   20.5661 C   0  0  0  0  0  0
  -24.1803  -13.0416   20.9140 C   0  0  0  0  0  0
  -24.6388  -11.6894   20.8705 C   0  0  0  0  0  0
  -23.9054  -10.4285   21.0380 C   0  0  0  0  0  0
  -24.3606   -9.4208   21.9165 C   0  0  0  0  0  0
  -23.6282   -8.2247   22.0747 C   0  0  0  0  0  0
  -22.4267   -8.0278   21.3536 C   0  0  0  0  0  0
  -21.9886   -9.0251   20.4645 C   0  0  0  0  0  0
  -22.7213  -10.2130   20.3042 C   0  0  0  0  0  0
  -21.6863   -6.0720   22.5270 C   0  0  0  0  0  0
  -21.4025   -6.5627   23.8204 C   0  0  0  0  0  0
  -21.3657   -5.6778   24.9163 C   0  0  0  0  0  0
  -21.6042   -4.3041   24.7219 C   0  0  0  0  0  0
  -21.8824   -3.8132   23.4345 C   0  0  0  0  0  0
  -21.9199   -4.6946   22.3395 C   0  0  0  0  0  0
  -22.7828  -13.5214   21.1825 C   0  0  0  0  0  0
  -22.1662   -4.2127   21.0973 F   0  0  0  0  0  0
  -21.5626   -3.4532   25.7737 F   0  0  0  0  0  0
  -30.0142  -13.4220   20.4303 N   0  0  0  0  0  0
  -26.2987  -12.9359   20.3334 N   0  0  0  0  0  0
  -25.9328  -11.6506   20.5754 N   0  0  0  0  0  0
  -22.0483  -12.8228   22.0414 N   0  0  0  0  0  0
  -25.4184  -15.1886   20.4148 N   0  0  0  0  0  0
  -31.7755  -14.8236   20.1174 O   0  0  0  0  0  0
  -21.6642   -6.8864   21.4232 O   0  0  0  0  0  0
  -22.3503  -14.5517   20.6678 O   0  0  0  0  0  0
  -24.6257  -31.8597   23.2022 C   0  0  0  0  0  0
  -25.9106  -32.4770   23.8358 C   0  0  1  0  0  0
  -27.2254  -27.3186   20.1221 C   0  0  0  0  0  0
  -25.5922  -33.8574   24.2291 N   0  0  0  0  0  0
  -23.4204  -30.4828   21.5434 C   0  0  2  0  0  0
  -24.8688  -28.9361   20.1116 C   0  0  0  0  0  0
  -22.7475  -29.4624   22.4912 C   0  0  0  0  0  0
  -18.0296  -28.1389   22.8476 C   0  0  0  0  0  0
  -24.1488  -36.7294   23.2643 C   0  0  0  0  0  0
  -25.9617  -30.7891   21.3754 C   0  0  0  0  0  0
  -26.0367  -29.4158   20.7189 C   0  0  0  0  0  0
  -27.2198  -28.6184   20.7146 C   0  0  0  0  0  0
  -26.0407  -26.8952   19.4812 C   0  0  0  0  0  0
  -24.8723  -27.6803   19.4842 C   0  0  0  0  0  0
  -23.6380  -29.8185   20.1583 C   0  0  0  0  0  0
  -25.4111  -36.3077   24.0335 C   0  0  1  0  0  0
  -20.5894  -28.3696   23.1274 C   0  0  2  0  0  0
  -20.6780  -26.9411   22.5417 C   0  0  0  0  0  0
  -19.5762  -26.6384   21.5210 C   0  0  0  0  0  0
  -18.1942  -26.7929   22.1619 C   0  0  0  0  0  0
  -19.1548  -28.8858   23.2872 C   0  0  0  0  0  0
  -18.9470  -30.1452   23.8899 C   0  0  0  0  0  0
  -17.6472  -30.6578   24.0578 C   0  0  0  0  0  0
  -25.9046  -34.9444   23.5111 C   0  0  0  0  0  0
  -16.5364  -29.9086   23.6320 C   0  0  0  0  0  0
  -16.7288  -28.6510   23.0333 C   0  0  0  0  0  0
  -26.4488  -31.6576   25.0723 C   0  0  0  0  0  0
  -25.3735  -31.3759   26.1472 C   0  0  0  0  0  0
  -27.0299  -30.2982   24.6185 C   0  0  0  0  0  0
  -27.6072  -32.4297   25.7467 C   0  0  0  0  0  0
  -27.5575  -37.1811   24.8467 C   0  0  0  0  0  0
  -21.4190  -29.3038   22.3654 N   0  0  0  0  0  0
  -26.4292  -37.3765   23.9397 N   0  0  0  0  0  0
  -24.6876  -31.0608   22.0972 N   0  0  0  0  0  0
  -23.4197  -28.8169   23.3000 O   0  0  0  0  0  0
  -28.3387  -26.4665   20.1401 O   0  0  0  0  0  0
  -26.5611  -34.8910   22.4675 O   0  0  0  0  0  0
  -23.5418  -32.1405   23.7343 O   0  0  0  0  0  0
  -30.9176  -19.3450   20.2179 C   0  0  0  0  0  0
  -30.9817  -17.9199   20.3266 C   0  0  0  0  0  0
  -28.5759  -19.3060   20.7386 C   0  0  0  0  0  0
  -29.7170  -20.0937   20.4326 C   0  0  0  0  0  0
  -29.8370  -17.1481   20.6566 C   0  0  0  0  0  0
  -28.6377  -17.8838   20.8516 C   0  0  0  0  0  0
  -30.7148  -22.4490   20.5278 C   0  0  0  0  0  0
  -28.4293  -22.3919   20.2013 C   0  0  0  0  0  0
  -28.9172  -23.8581   19.8738 C   0  0  1  0  0  0
  -28.9686  -24.0883   18.3516 C   0  0  0  0  0  0
  -28.1287  -25.0597   20.5753 C   0  0  0  0  0  0
  -29.6482  -21.5705   20.3415 N   0  0  0  0  0  0
  -29.7807  -15.6939   20.8265 N   0  0  0  0  0  0
  -31.8812  -22.1890   20.8269 O   0  0  0  0  0  0
  -30.2551  -23.7236   20.3510 O   0  0  0  0  0  0
  -27.5078  -17.2002   21.1549 F   0  0  0  0  0  0
  -31.4817  -12.5267   19.1540 H   0  0  0  0  0  0
  -30.3756  -11.4030   19.8956 H   0  0  0  0  0  0
  -29.7758  -11.7619   17.4799 H   0  0  0  0  0  0
  -29.6562  -13.4823   17.7433 H   0  0  0  0  0  0
  -27.8634  -11.2994   18.8557 H   0  0  0  0  0  0
  -27.3815  -12.5922   17.7913 H   0  0  0  0  0  0
  -27.6663  -14.2551   19.5280 H   0  0  0  0  0  0
  -28.7129  -12.0498   21.3715 H   0  0  0  0  0  0
  -28.4450  -13.7008   21.8495 H   0  0  0  0  0  0
  -25.2762   -9.5685   22.4729 H   0  0  0  0  0  0
  -23.9991   -7.4641   22.7470 H   0  0  0  0  0  0
  -21.0810   -8.8774   19.8960 H   0  0  0  0  0  0
  -22.3672  -10.9667   19.6151 H   0  0  0  0  0  0
  -21.2029   -7.6138   23.9706 H   0  0  0  0  0  0
  -21.1465   -6.0505   25.9065 H   0  0  0  0  0  0
  -22.0607   -2.7590   23.2857 H   0  0  0  0  0  0
  -22.4116  -11.9909   22.4823 H   0  0  0  0  0  0
  -21.1110  -13.1275   22.2637 H   0  0  0  0  0  0
  -24.6497  -15.8337   20.5556 H   0  0  0  0  0  0
  -26.2964  -15.6624   20.2402 H   0  0  0  0  0  0
  -26.7177  -32.5444   23.1115 H   0  0  0  0  0  0
  -25.0055  -33.9713   25.0423 H   0  0  0  0  0  0
  -22.7137  -31.3028   21.3998 H   0  0  0  0  0  0
  -23.3720  -35.9660   23.3349 H   0  0  0  0  0  0
  -24.3577  -36.8863   22.2050 H   0  0  0  0  0  0
  -23.7282  -37.6529   23.6633 H   0  0  0  0  0  0
  -26.0949  -31.5516   20.6064 H   0  0  0  0  0  0
  -26.8419  -30.8389   22.0050 H   0  0  0  0  0  0
  -28.1161  -28.9798   21.1998 H   0  0  0  0  0  0
  -26.0084  -25.9410   18.9748 H   0  0  0  0  0  0
  -23.9801  -27.3109   18.9976 H   0  0  0  0  0  0
  -23.7637  -30.5989   19.4069 H   0  0  0  0  0  0
  -22.7567  -29.2541   19.8479 H   0  0  0  0  0  0
  -25.1290  -36.1940   25.0827 H   0  0  0  0  0  0
  -20.9989  -28.3291   24.1396 H   0  0  0  0  0  0
  -20.5657  -26.2311   23.3626 H   0  0  0  0  0  0
  -21.6654  -26.7423   22.1234 H   0  0  0  0  0  0
  -19.6926  -25.6293   21.1236 H   0  0  0  0  0  0
  -19.6700  -27.3194   20.6742 H   0  0  0  0  0  0
  -17.4205  -26.6666   21.4030 H   0  0  0  0  0  0
  -18.0349  -26.0079   22.9023 H   0  0  0  0  0  0
  -19.7944  -30.7270   24.2269 H   0  0  0  0  0  0
  -17.5023  -31.6241   24.5206 H   0  0  0  0  0  0
  -15.5369  -30.2998   23.7629 H   0  0  0  0  0  0
  -15.8690  -28.0838   22.7034 H   0  0  0  0  0  0
  -24.5880  -30.7124   25.7831 H   0  0  0  0  0  0
  -24.8963  -32.2946   26.4892 H   0  0  0  0  0  0
  -25.8062  -30.8944   27.0250 H   0  0  0  0  0  0
  -26.2856  -29.6745   24.1214 H   0  0  0  0  0  0
  -27.3980  -29.7230   25.4691 H   0  0  0  0  0  0
  -27.8743  -30.4234   23.9405 H   0  0  0  0  0  0
  -27.2704  -33.3602   26.2049 H   0  0  0  0  0  0
  -28.3867  -32.6847   25.0275 H   0  0  0  0  0  0
  -28.0749  -31.8416   26.5373 H   0  0  0  0  0  0
  -28.2640  -38.0060   24.7430 H   0  0  0  0  0  0
  -28.1022  -36.2592   24.6379 H   0  0  0  0  0  0
  -27.2291  -37.1562   25.8872 H   0  0  0  0  0  0
  -20.9371  -29.8756   21.6858 H   0  0  0  0  0  0
  -26.0177  -38.2845   24.1371 H   0  0  0  0  0  0
  -31.8317  -19.8558   19.9529 H   0  0  0  0  0  0
  -31.9290  -17.4281   20.1575 H   0  0  0  0  0  0
  -27.6249  -19.7887   20.9096 H   0  0  0  0  0  0
  -27.7660  -21.9986   19.4297 H   0  0  0  0  0  0
  -27.8837  -22.3735   21.1464 H   0  0  0  0  0  0
  -27.9649  -24.1300   17.9281 H   0  0  0  0  0  0
  -29.5120  -23.2959   17.8360 H   0  0  0  0  0  0
  -29.4616  -25.0320   18.1154 H   0  0  0  0  0  0
  -28.3481  -25.0277   21.6428 H   0  0  0  0  0  0
  -27.0723  -24.8004   20.5226 H   0  0  0  0  0  0
  -28.8720  -15.3756   21.1273 H   0  0  0  0  0  0
  1 25  1  0  0  0
  1 30  2  0  0  0
  1 83  1  0  0  0
  2  3  1  0  0  0
  2 25  1  0  0  0
  2 87  1  0  0  0
  2 88  1  0  0  0
  3  4  1  0  0  0
  3 89  1  0  0  0
  3 90  1  0  0  0
  4  5  1  0  0  0
  4 91  1  0  0  0
  4 92  1  0  0  0
  5  6  1  0  0  0
  5 26  1  0  0  0
  5 93  1  0  0  0
  6 25  1  0  0  0
  6 94  1  0  0  0
  6 95  1  0  0  0
  7  8  2  0  0  0
  7 26  1  0  0  0
  7 29  1  0  0  0
  8  9  1  0  0  0
  8 22  1  0  0  0
  9 10  1  0  0  0
  9 27  2  0  0  0
 10 11  2  0  0  0
 10 15  1  0  0  0
 11 12  1  0  0  0
 11 96  1  0  0  0
 12 13  2  0  0  0
 12 97  1  0  0  0
 13 14  1  0  0  0
 13 31  1  0  0  0
 14 15  2  0  0  0
 14 98  1  0  0  0
 15 99  1  0  0  0
 16 17  2  0  0  0
 16 21  1  0  0  0
 16 31  1  0  0  0
 17 18  1  0  0  0
 17100  1  0  0  0
 18 19  2  0  0  0
 18101  1  0  0  0
 19 20  1  0  0  0
 19 24  1  0  0  0
 20 21  2  0  0  0
 20102  1  0  0  0
 21 23  1  0  0  0
 22 28  1  0  0  0
 22 32  2  0  0  0
 26 27  1  0  0  0
 28103  1  0  0  0
 28104  1  0  0  0
 29105  1  0  0  0
 29106  1  0  0  0
 33 34  1  0  0  0
 33 66  1  0  0  0
 33 70  2  0  0  0
 34 36  1  0  0  0
 34 59  1  0  0  0
 34107  1  0  0  0
 35 44  2  0  0  0
 35 45  1  0  0  0
 35 68  1  0  0  0
 36 56  1  0  0  0
 36108  1  0  0  0
 37 39  1  0  0  0
 37 47  1  0  0  0
 37 66  1  0  0  0
 37109  1  0  0  0
 38 43  2  0  0  0
 38 46  1  0  0  0
 38 47  1  0  0  0
 39 64  1  0  0  0
 39 67  2  0  0  0
 40 52  1  0  0  0
 40 53  2  0  0  0
 40 58  1  0  0  0
 41110  1  0  0  0
 41111  1  0  0  0
 41112  1  0  0  0
 41 48  1  0  0  0
 42 43  1  0  0  0
 42 66  1  0  0  0
 42113  1  0  0  0
 42114  1  0  0  0
 43 44  1  0  0  0
 44115  1  0  0  0
 45 46  2  0  0  0
 45116  1  0  0  0
 46117  1  0  0  0
 47118  1  0  0  0
 47119  1  0  0  0
 48 56  1  0  0  0
 48 65  1  0  0  0
 48120  1  0  0  0
 49 50  1  0  0  0
 49 53  1  0  0  0
 49 64  1  0  0  0
 49121  1  0  0  0
 50 51  1  0  0  0
 50122  1  0  0  0
 50123  1  0  0  0
 51 52  1  0  0  0
 51124  1  0  0  0
 51125  1  0  0  0
 52126  1  0  0  0
 52127  1  0  0  0
 53 54  1  0  0  0
 54 55  2  0  0  0
 54128  1  0  0  0
 55 57  1  0  0  0
 55129  1  0  0  0
 56 69  2  0  0  0
 57 58  2  0  0  0
 57130  1  0  0  0
 58131  1  0  0  0
 59 60  1  0  0  0
 59 61  1  0  0  0
 59 62  1  0  0  0
 60132  1  0  0  0
 60133  1  0  0  0
 60134  1  0  0  0
 61135  1  0  0  0
 61136  1  0  0  0
 61137  1  0  0  0
 62138  1  0  0  0
 62139  1  0  0  0
 62140  1  0  0  0
 63 65  1  0  0  0
 63141  1  0  0  0
 63142  1  0  0  0
 63143  1  0  0  0
 64144  1  0  0  0
 65145  1  0  0  0
 68 81  1  0  0  0
 71 72  2  0  0  0
 71 74  1  0  0  0
 71146  1  0  0  0
 72 75  1  0  0  0
 72147  1  0  0  0
 73 74  2  0  0  0
 73 76  1  0  0  0
 73148  1  0  0  0
 74 82  1  0  0  0
 75 76  2  0  0  0
 75 83  1  0  0  0
 76 86  1  0  0  0
 77 82  1  0  0  0
 77 84  2  0  0  0
 77 85  1  0  0  0
 78 79  1  0  0  0
 78 82  1  0  0  0
 78149  1  0  0  0
 78150  1  0  0  0
 79 80  1  0  0  0
 79 81  1  0  0  0
 79 85  1  0  0  0
 80151  1  0  0  0
 80152  1  0  0  0
 80153  1  0  0  0
 81154  1  0  0  0
 81155  1  0  0  0
 83156  1  0  0  0
M  ISO  4   1 100  68 101  81 101  83 100
M  END
> <chiral flag>
0

> <version>
0

> <s_m_source_file>
/data/baiqing/PycharmProjects/Reinvent-master-3.2/result/LINK_invent/BTK/process_docking_weight1_custom_product_contain_oxygen_bond_distance_aromatic_linkinvent_7_9_3/rearranged_h_0076.sdf

> <i_m_source_file_index>
37

> <r_mmod_Potential_Energy-OPLS-2005>
47.0488815307617

> <r_mmod_Stretch_Energy-OPLS-2005>
81.7351760864258

> <r_mmod_Bend_Energy-OPLS-2005>
162.542037963867

> <r_mmod_Torsional_Energy-OPLS-2005>
254.119354248047

> <r_mmod_Improper_Torsional_Energy-OPLS-2005>
4.20965385437012

> <r_mmod_Van_der_Waal_Energy-OPLS-2005>
139.249893188477

> <r_mmod_Electrostatic_Energy-OPLS-2005>
-431.2158203125

> <r_mmod_Solvation_Energy-OPLS-2005>
-214.722778320312

> <b_mmod_Minimization_Converged-OPLS-2005>
0

> <r_mmod_RMS_Derivative-OPLS-2005>
1.492271900177

$$$$
37
                    3D
 Structure written by MMmdl.
163172  0  0  1  0            999 V2000
  -30.5930  -14.6768   20.4738 C   0  0  0  0  0  0
  -30.4434  -12.4113   19.4490 C   0  0  0  0  0  0
  -29.5101  -12.5074   18.2212 C   0  0  0  0  0  0
  -28.0326  -12.3383   18.6349 C   0  0  0  0  0  0
  -27.6487  -13.2139   19.8578 C   0  0  2  0  0  0
  -28.6981  -13.0820   20.9862 C   0  0  0  0  0  0
  -25.2536  -13.8143   20.5689 C   0  0  0  0  0  0
  -24.1820  -13.0407   20.9218 C   0  0  0  0  0  0
  -24.6391  -11.6879   20.8741 C   0  0  0  0  0  0
  -23.9068  -10.4267   21.0397 C   0  0  0  0  0  0
  -24.3612   -9.4192   21.9184 C   0  0  0  0  0  0
  -23.6285   -8.2234   22.0762 C   0  0  0  0  0  0
  -22.4270   -8.0271   21.3547 C   0  0  0  0  0  0
  -21.9902   -9.0250   20.4652 C   0  0  0  0  0  0
  -22.7236  -10.2126   20.3051 C   0  0  0  0  0  0
  -21.6850   -6.0725   22.5278 C   0  0  0  0  0  0
  -21.4013   -6.5628   23.8214 C   0  0  0  0  0  0
  -21.3662   -5.6782   24.9177 C   0  0  0  0  0  0
  -21.6054   -4.3045   24.7230 C   0  0  0  0  0  0
  -21.8821   -3.8143   23.4346 C   0  0  0  0  0  0
  -21.9193   -4.6958   22.3400 C   0  0  0  0  0  0
  -22.7848  -13.5209   21.1872 C   0  0  0  0  0  0
  -22.1652   -4.2151   21.0979 F   0  0  0  0  0  0
  -21.5644   -3.4523   25.7739 F   0  0  0  0  0  0
  -30.0063  -13.4371   20.4142 N   0  0  0  0  0  0
  -26.2964  -12.9319   20.3297 N   0  0  0  0  0  0
  -25.9312  -11.6477   20.5746 N   0  0  0  0  0  0
  -22.0479  -12.8219   22.0430 N   0  0  0  0  0  0
  -25.4193  -15.1869   20.4087 N   0  0  0  0  0  0
  -31.7756  -14.8416   20.1591 O   0  0  0  0  0  0
  -21.6637   -6.8864   21.4236 O   0  0  0  0  0  0
  -22.3538  -14.5510   20.6704 O   0  0  0  0  0  0
  -24.6299  -31.8573   23.2004 C   0  0  0  0  0  0
  -25.9126  -32.4781   23.8344 C   0  0  1  0  0  0
  -27.2310  -27.3009   20.1009 C   0  0  0  0  0  0
  -25.5926  -33.8587   24.2267 N   0  0  0  0  0  0
  -23.4253  -30.4811   21.5467 C   0  0  2  0  0  0
  -24.8685  -28.9307   20.1151 C   0  0  0  0  0  0
  -22.7489  -29.4621   22.4957 C   0  0  0  0  0  0
  -18.0288  -28.1388   22.8497 C   0  0  0  0  0  0
  -24.1491  -36.7290   23.2647 C   0  0  0  0  0  0
  -25.9699  -30.7808   21.3752 C   0  0  0  0  0  0
  -26.0414  -29.4088   20.7103 C   0  0  0  0  0  0
  -27.2241  -28.6078   20.6872 C   0  0  0  0  0  0
  -26.0150  -26.8638   19.5265 C   0  0  0  0  0  0
  -24.8566  -27.6633   19.5168 C   0  0  0  0  0  0
  -23.6376  -29.8123   20.1643 C   0  0  0  0  0  0
  -25.4124  -36.3099   24.0336 C   0  0  1  0  0  0
  -20.5889  -28.3696   23.1287 C   0  0  2  0  0  0
  -20.6783  -26.9424   22.5410 C   0  0  0  0  0  0
  -19.5756  -26.6386   21.5222 C   0  0  0  0  0  0
  -18.1932  -26.7938   22.1624 C   0  0  0  0  0  0
  -19.1539  -28.8859   23.2888 C   0  0  0  0  0  0
  -18.9452  -30.1461   23.8907 C   0  0  0  0  0  0
  -17.6448  -30.6591   24.0564 C   0  0  0  0  0  0
  -25.9060  -34.9465   23.5106 C   0  0  0  0  0  0
  -16.5343  -29.9083   23.6340 C   0  0  0  0  0  0
  -16.7271  -28.6497   23.0372 C   0  0  0  0  0  0
  -26.4492  -31.6612   25.0738 C   0  0  0  0  0  0
  -25.3702  -31.3746   26.1447 C   0  0  0  0  0  0
  -27.0350  -30.3033   24.6245 C   0  0  0  0  0  0
  -27.6046  -32.4374   25.7497 C   0  0  0  0  0  0
  -27.5595  -37.1805   24.8467 C   0  0  0  0  0  0
  -21.4197  -29.3045   22.3676 N   0  0  0  0  0  0
  -26.4305  -37.3792   23.9407 N   0  0  0  0  0  0
  -24.6948  -31.0568   22.0968 N   0  0  0  0  0  0
  -23.4189  -28.8163   23.3059 O   0  0  0  0  0  0
  -28.3766  -26.4748   20.1309 O   0  0  0  0  0  0
  -26.5639  -34.8922   22.4678 O   0  0  0  0  0  0
  -23.5450  -32.1384   23.7300 O   0  0  0  0  0  0
  -29.0986  -19.4352   19.8015 C   0  0  0  0  0  0
  -30.6145  -19.3065   21.6418 C   0  0  0  0  0  0
  -29.0836  -18.0001   19.7265 C   0  0  0  0  0  0
  -29.8605  -20.1575   20.7637 C   0  0  0  0  0  0
  -29.8668  -17.1816   20.6000 C   0  0  0  0  0  0
  -30.6353  -17.8820   21.5597 C   0  0  0  0  0  0
  -28.8532  -24.0441   20.4852 C   0  0  0  0  0  0
  -29.3119  -24.2838   21.8500 C   0  0  0  0  0  0
  -30.7551  -22.3309   21.6277 C   0  0  0  0  0  0
  -28.3991  -25.1109   19.7222 C   0  0  0  0  0  0
  -28.9747  -22.5469   20.0146 C   0  0  0  0  0  0
  -28.1796  -17.3478   18.6928 C   0  0  0  0  0  0
  -28.0827  -24.9257   18.2424 C   0  0  0  0  0  0
  -31.1007  -23.8621   23.4651 C   0  0  0  0  0  0
  -29.8482  -21.6549   20.8616 N   0  0  0  0  0  0
  -30.3292  -23.4676   22.2645 N   0  0  0  0  0  0
  -29.7162  -15.7213   20.6376 N   0  0  0  0  0  0
  -28.8630  -25.1863   22.5700 O   0  0  0  0  0  0
  -31.8992  -21.8995   21.8116 O   0  0  0  0  0  0
  -31.3600  -17.1821   22.4662 F   0  0  0  0  0  0
  -31.4817  -12.5535   19.1450 H   0  0  0  0  0  0
  -30.3952  -11.4180   19.8987 H   0  0  0  0  0  0
  -29.7799  -11.7518   17.4824 H   0  0  0  0  0  0
  -29.6452  -13.4737   17.7321 H   0  0  0  0  0  0
  -27.8795  -11.2866   18.8786 H   0  0  0  0  0  0
  -27.3759  -12.5554   17.7916 H   0  0  0  0  0  0
  -27.6554  -14.2446   19.5059 H   0  0  0  0  0  0
  -28.7178  -12.0614   21.3716 H   0  0  0  0  0  0
  -28.4460  -13.7194   21.8357 H   0  0  0  0  0  0
  -25.2748   -9.5687   22.4761 H   0  0  0  0  0  0
  -24.0002   -7.4621   22.7468 H   0  0  0  0  0  0
  -21.0843   -8.8763   19.8944 H   0  0  0  0  0  0
  -22.3687  -10.9666   19.6163 H   0  0  0  0  0  0
  -21.1989   -7.6133   23.9727 H   0  0  0  0  0  0
  -21.1486   -6.0500   25.9083 H   0  0  0  0  0  0
  -22.0600   -2.7605   23.2844 H   0  0  0  0  0  0
  -22.4049  -11.9867   22.4827 H   0  0  0  0  0  0
  -21.1111  -13.1298   22.2619 H   0  0  0  0  0  0
  -24.6427  -15.8320   20.5088 H   0  0  0  0  0  0
  -26.2523  -15.6255   20.0439 H   0  0  0  0  0  0
  -26.7201  -32.5424   23.1091 H   0  0  0  0  0  0
  -25.0056  -33.9733   25.0403 H   0  0  0  0  0  0
  -22.7223  -31.3050   21.4037 H   0  0  0  0  0  0
  -23.3771  -35.9606   23.3312 H   0  0  0  0  0  0
  -24.3578  -36.8906   22.2060 H   0  0  0  0  0  0
  -23.7209  -37.6479   23.6664 H   0  0  0  0  0  0
  -26.1148  -31.5463   20.6121 H   0  0  0  0  0  0
  -26.8446  -30.8204   22.0124 H   0  0  0  0  0  0
  -28.1308  -28.9768   21.1447 H   0  0  0  0  0  0
  -25.9174  -25.8805   19.0966 H   0  0  0  0  0  0
  -23.9507  -27.2822   19.0661 H   0  0  0  0  0  0
  -23.7516  -30.5872   19.4054 H   0  0  0  0  0  0
  -22.7559  -29.2410   19.8675 H   0  0  0  0  0  0
  -25.1302  -36.1971   25.0831 H   0  0  0  0  0  0
  -20.9992  -28.3278   24.1407 H   0  0  0  0  0  0
  -20.5714  -26.2310   23.3614 H   0  0  0  0  0  0
  -21.6645  -26.7476   22.1184 H   0  0  0  0  0  0
  -19.6922  -25.6296   21.1259 H   0  0  0  0  0  0
  -19.6689  -27.3192   20.6751 H   0  0  0  0  0  0
  -17.4211  -26.6712   21.4011 H   0  0  0  0  0  0
  -18.0312  -26.0066   22.8999 H   0  0  0  0  0  0
  -19.7917  -30.7285   24.2286 H   0  0  0  0  0  0
  -17.4990  -31.6279   24.5147 H   0  0  0  0  0  0
  -15.5340  -30.2975   23.7665 H   0  0  0  0  0  0
  -15.8672  -28.0803   22.7104 H   0  0  0  0  0  0
  -24.5852  -30.7160   25.7717 H   0  0  0  0  0  0
  -24.8924  -32.2910   26.4927 H   0  0  0  0  0  0
  -25.7979  -30.8834   27.0196 H   0  0  0  0  0  0
  -26.2937  -29.6777   24.1266 H   0  0  0  0  0  0
  -27.4009  -29.7321   25.4786 H   0  0  0  0  0  0
  -27.8823  -30.4306   23.9507 H   0  0  0  0  0  0
  -27.2654  -33.3667   26.2091 H   0  0  0  0  0  0
  -28.3819  -32.6971   25.0298 H   0  0  0  0  0  0
  -28.0776  -31.8513   26.5388 H   0  0  0  0  0  0
  -28.2622  -38.0098   24.7529 H   0  0  0  0  0  0
  -28.1082  -36.2632   24.6279 H   0  0  0  0  0  0
  -27.2315  -37.1430   25.8871 H   0  0  0  0  0  0
  -20.9399  -29.8733   21.6837 H   0  0  0  0  0  0
  -26.0201  -38.2878   24.1385 H   0  0  0  0  0  0
  -28.4898  -19.9915   19.1031 H   0  0  0  0  0  0
  -31.2035  -19.7209   22.4431 H   0  0  0  0  0  0
  -29.3694  -22.5226   18.9990 H   0  0  0  0  0  0
  -27.9687  -22.1289   19.9744 H   0  0  0  0  0  0
  -27.9292  -18.0434   17.8920 H   0  0  0  0  0  0
  -27.2481  -17.0275   19.1559 H   0  0  0  0  0  0
  -28.6541  -16.4786   18.2364 H   0  0  0  0  0  0
  -28.9292  -24.4703   17.7287 H   0  0  0  0  0  0
  -27.8768  -25.8725   17.7418 H   0  0  0  0  0  0
  -27.2226  -24.2693   18.1088 H   0  0  0  0  0  0
  -30.6420  -24.6448   24.0703 H   0  0  0  0  0  0
  -32.0886  -24.2260   23.1782 H   0  0  0  0  0  0
  -31.2400  -23.0091   24.1325 H   0  0  0  0  0  0
  -28.7643  -15.4079   20.7312 H   0  0  0  0  0  0
  1 25  1  0  0  0
  1 30  2  0  0  0
  1 87  1  0  0  0
  2  3  1  0  0  0
  2 25  1  0  0  0
  2 91  1  0  0  0
  2 92  1  0  0  0
  3  4  1  0  0  0
  3 93  1  0  0  0
  3 94  1  0  0  0
  4  5  1  0  0  0
  4 95  1  0  0  0
  4 96  1  0  0  0
  5  6  1  0  0  0
  5 26  1  0  0  0
  5 97  1  0  0  0
  6 25  1  0  0  0
  6 98  1  0  0  0
  6 99  1  0  0  0
  7  8  2  0  0  0
  7 26  1  0  0  0
  7 29  1  0  0  0
  8  9  1  0  0  0
  8 22  1  0  0  0
  9 10  1  0  0  0
  9 27  2  0  0  0
 10 11  2  0  0  0
 10 15  1  0  0  0
 11 12  1  0  0  0
 11100  1  0  0  0
 12 13  2  0  0  0
 12101  1  0  0  0
 13 14  1  0  0  0
 13 31  1  0  0  0
 14 15  2  0  0  0
 14102  1  0  0  0
 15103  1  0  0  0
 16 17  2  0  0  0
 16 21  1  0  0  0
 16 31  1  0  0  0
 17 18  1  0  0  0
 17104  1  0  0  0
 18 19  2  0  0  0
 18105  1  0  0  0
 19 20  1  0  0  0
 19 24  1  0  0  0
 20 21  2  0  0  0
 20106  1  0  0  0
 21 23  1  0  0  0
 22 28  1  0  0  0
 22 32  2  0  0  0
 26 27  1  0  0  0
 28107  1  0  0  0
 28108  1  0  0  0
 29109  1  0  0  0
 29110  1  0  0  0
 33 34  1  0  0  0
 33 66  1  0  0  0
 33 70  2  0  0  0
 34 36  1  0  0  0
 34 59  1  0  0  0
 34111  1  0  0  0
 35 44  2  0  0  0
 35 45  1  0  0  0
 35 68  1  0  0  0
 36 56  1  0  0  0
 36112  1  0  0  0
 37 39  1  0  0  0
 37 47  1  0  0  0
 37 66  1  0  0  0
 37113  1  0  0  0
 38 43  2  0  0  0
 38 46  1  0  0  0
 38 47  1  0  0  0
 39 64  1  0  0  0
 39 67  2  0  0  0
 40 52  1  0  0  0
 40 53  2  0  0  0
 40 58  1  0  0  0
 41114  1  0  0  0
 41115  1  0  0  0
 41116  1  0  0  0
 41 48  1  0  0  0
 42 43  1  0  0  0
 42 66  1  0  0  0
 42117  1  0  0  0
 42118  1  0  0  0
 43 44  1  0  0  0
 44119  1  0  0  0
 45 46  2  0  0  0
 45120  1  0  0  0
 46121  1  0  0  0
 47122  1  0  0  0
 47123  1  0  0  0
 48 56  1  0  0  0
 48 65  1  0  0  0
 48124  1  0  0  0
 49 50  1  0  0  0
 49 53  1  0  0  0
 49 64  1  0  0  0
 49125  1  0  0  0
 50 51  1  0  0  0
 50126  1  0  0  0
 50127  1  0  0  0
 51 52  1  0  0  0
 51128  1  0  0  0
 51129  1  0  0  0
 52130  1  0  0  0
 52131  1  0  0  0
 53 54  1  0  0  0
 54 55  2  0  0  0
 54132  1  0  0  0
 55 57  1  0  0  0
 55133  1  0  0  0
 56 69  2  0  0  0
 57 58  2  0  0  0
 57134  1  0  0  0
 58135  1  0  0  0
 59 60  1  0  0  0
 59 61  1  0  0  0
 59 62  1  0  0  0
 60136  1  0  0  0
 60137  1  0  0  0
 60138  1  0  0  0
 61139  1  0  0  0
 61140  1  0  0  0
 61141  1  0  0  0
 62142  1  0  0  0
 62143  1  0  0  0
 62144  1  0  0  0
 63 65  1  0  0  0
 63145  1  0  0  0
 63146  1  0  0  0
 63147  1  0  0  0
 64148  1  0  0  0
 65149  1  0  0  0
 68 80  1  0  0  0
 71 73  2  0  0  0
 71 74  1  0  0  0
 71150  1  0  0  0
 72 74  2  0  0  0
 72 76  1  0  0  0
 72151  1  0  0  0
 73 75  1  0  0  0
 73 82  1  0  0  0
 74 85  1  0  0  0
 75 76  2  0  0  0
 75 87  1  0  0  0
 76 90  1  0  0  0
 77 78  1  0  0  0
 77 80  2  0  0  0
 77 81  1  0  0  0
 78 86  1  0  0  0
 78 88  2  0  0  0
 79 85  1  0  0  0
 79 86  1  0  0  0
 79 89  2  0  0  0
 80 83  1  0  0  0
 81 85  1  0  0  0
 81152  1  0  0  0
 81153  1  0  0  0
 82154  1  0  0  0
 82155  1  0  0  0
 82156  1  0  0  0
 83157  1  0  0  0
 83158  1  0  0  0
 83159  1  0  0  0
 84 86  1  0  0  0
 84160  1  0  0  0
 84161  1  0  0  0
 84162  1  0  0  0
 87163  1  0  0  0
M  ISO  4   1 100  68 101  80 101  87 100
M  END
> <chiral flag>
0

> <version>
0

> <s_m_source_file>
/data/baiqing/PycharmProjects/Reinvent-master-3.2/result/LINK_invent/BTK/process_docking_weight1_custom_product_contain_oxygen_bond_distance_aromatic_linkinvent_7_9_3/rearranged_h_0076.sdf

> <i_m_source_file_index>
38

> <r_mmod_Potential_Energy-OPLS-2005>
226.789596557617

> <r_mmod_Stretch_Energy-OPLS-2005>
106.384963989258

> <r_mmod_Bend_Energy-OPLS-2005>
149.554809570312

> <r_mmod_Torsional_Energy-OPLS-2005>
337.276977539062

> <r_mmod_Improper_Torsional_Energy-OPLS-2005>
8.79708576202393

> <r_mmod_Van_der_Waal_Energy-OPLS-2005>
188.693161010742

> <r_mmod_Electrostatic_Energy-OPLS-2005>
-395.475158691406

> <r_mmod_Solvation_Energy-OPLS-2005>
-226.601837158203

> <b_mmod_Minimization_Converged-OPLS-2005>
0

> <r_mmod_RMS_Derivative-OPLS-2005>
1.94374442100525

$$$$
38
                    3D
 Structure written by MMmdl.
157165  0  0  1  0            999 V2000
  -30.7207  -14.5314   20.6231 C   0  0  0  0  0  0
  -30.4184  -12.3673   19.4402 C   0  0  0  0  0  0
  -29.4888  -12.5297   18.2199 C   0  0  0  0  0  0
  -28.0157  -12.3733   18.6361 C   0  0  0  0  0  0
  -27.6572  -13.2197   19.8869 C   0  0  2  0  0  0
  -28.7062  -13.0235   21.0043 C   0  0  0  0  0  0
  -25.2525  -13.8175   20.5721 C   0  0  0  0  0  0
  -24.1793  -13.0426   20.9202 C   0  0  0  0  0  0
  -24.6386  -11.6908   20.8760 C   0  0  0  0  0  0
  -23.9065  -10.4271   21.0411 C   0  0  0  0  0  0
  -24.3616   -9.4183   21.9186 C   0  0  0  0  0  0
  -23.6304   -8.2219   22.0747 C   0  0  0  0  0  0
  -22.4271   -8.0263   21.3549 C   0  0  0  0  0  0
  -21.9918   -9.0228   20.4643 C   0  0  0  0  0  0
  -22.7246  -10.2113   20.3067 C   0  0  0  0  0  0
  -21.6836   -6.0726   22.5277 C   0  0  0  0  0  0
  -21.3992   -6.5639   23.8205 C   0  0  0  0  0  0
  -21.3664   -5.6804   24.9172 C   0  0  0  0  0  0
  -21.6042   -4.3062   24.7222 C   0  0  0  0  0  0
  -21.8814   -3.8147   23.4344 C   0  0  0  0  0  0
  -21.9184   -4.6960   22.3398 C   0  0  0  0  0  0
  -22.7809  -13.5191   21.1860 C   0  0  0  0  0  0
  -22.1647   -4.2148   21.0977 F   0  0  0  0  0  0
  -21.5649   -3.4541   25.7737 F   0  0  0  0  0  0
  -30.0210  -13.3671   20.4525 N   0  0  0  0  0  0
  -26.3002  -12.9390   20.3490 N   0  0  0  0  0  0
  -25.9337  -11.6535   20.5860 N   0  0  0  0  0  0
  -22.0480  -12.8151   22.0421 N   0  0  0  0  0  0
  -25.4206  -15.1893   20.4118 N   0  0  0  0  0  0
  -31.7923  -14.7261   20.0423 O   0  0  0  0  0  0
  -21.6625   -6.8867   21.4244 O   0  0  0  0  0  0
  -22.3473  -14.5491   20.6720 O   0  0  0  0  0  0
  -24.6193  -31.8641   23.2036 C   0  0  0  0  0  0
  -25.9059  -32.4800   23.8375 C   0  0  1  0  0  0
  -27.2350  -27.3896   20.1167 C   0  0  0  0  0  0
  -25.5893  -33.8589   24.2303 N   0  0  0  0  0  0
  -23.4115  -30.4850   21.5455 C   0  0  2  0  0  0
  -24.8607  -28.9396   20.1176 C   0  0  0  0  0  0
  -22.7434  -29.4668   22.4977 C   0  0  0  0  0  0
  -18.0276  -28.1386   22.8466 C   0  0  0  0  0  0
  -24.1497  -36.7309   23.2642 C   0  0  0  0  0  0
  -25.9422  -30.8173   21.3626 C   0  0  0  0  0  0
  -26.0232  -29.4471   20.7132 C   0  0  0  0  0  0
  -27.2167  -28.6816   20.7016 C   0  0  0  0  0  0
  -26.0553  -26.9047   19.5162 C   0  0  0  0  0  0
  -24.8742  -27.6716   19.5128 C   0  0  0  0  0  0
  -23.6228  -29.8105   20.1636 C   0  0  0  0  0  0
  -25.4117  -36.3091   24.0334 C   0  0  1  0  0  0
  -20.5876  -28.3689   23.1319 C   0  0  2  0  0  0
  -20.6794  -26.9433   22.5369 C   0  0  0  0  0  0
  -19.5746  -26.6313   21.5231 C   0  0  0  0  0  0
  -18.1929  -26.7908   22.1665 C   0  0  0  0  0  0
  -19.1526  -28.8857   23.2861 C   0  0  0  0  0  0
  -18.9444  -30.1476   23.8858 C   0  0  0  0  0  0
  -17.6445  -30.6612   24.0533 C   0  0  0  0  0  0
  -25.9031  -34.9460   23.5116 C   0  0  0  0  0  0
  -16.5335  -29.9102   23.6320 C   0  0  0  0  0  0
  -16.7257  -28.6512   23.0349 C   0  0  0  0  0  0
  -26.4478  -31.6590   25.0718 C   0  0  0  0  0  0
  -25.3740  -31.3690   26.1456 C   0  0  0  0  0  0
  -27.0311  -30.3039   24.6097 C   0  0  0  0  0  0
  -27.6059  -32.4303   25.7471 C   0  0  0  0  0  0
  -27.5580  -37.1805   24.8468 C   0  0  0  0  0  0
  -21.4152  -29.3099   22.3777 N   0  0  0  0  0  0
  -26.4296  -37.3782   23.9404 N   0  0  0  0  0  0
  -24.6762  -31.0683   22.0968 N   0  0  0  0  0  0
  -23.4188  -28.8171   23.3007 O   0  0  0  0  0  0
  -28.3797  -26.6095   20.1026 O   0  0  0  0  0  0
  -26.5606  -34.8923   22.4687 O   0  0  0  0  0  0
  -23.5364  -32.1404   23.7398 O   0  0  0  0  0  0
  -27.2651  -17.5426   22.0872 C   0  0  0  0  0  0
  -27.7105  -18.8271   21.7354 C   0  0  0  0  0  0
  -28.1030  -16.4245   21.9397 C   0  0  0  0  0  0
  -29.8383  -17.8711   21.0365 C   0  0  0  0  0  0
  -28.9968  -19.0231   21.1917 C   0  0  0  0  0  0
  -29.4036  -16.5559   21.4126 C   0  0  0  0  0  0
  -28.4785  -24.0741   19.9828 C   0  0  0  0  0  0
  -27.3136  -21.0839   19.6029 C   0  0  0  0  0  0
  -29.5043  -20.4815   20.9770 C   0  0  0  0  0  0
  -28.3226  -25.3608   20.8514 C   0  0  0  0  0  0
  -28.7248  -21.5123   20.0518 C   0  0  2  0  0  0
  -30.3190  -15.4465   21.5419 N   0  0  0  0  0  0
  -28.6751  -22.8891   20.6225 N   0  0  0  0  0  0
  -28.4006  -24.1483   18.7529 O   0  0  0  0  0  0
  -31.4606  -12.4708   19.1334 H   0  0  0  0  0  0
  -30.3371  -11.3613   19.8545 H   0  0  0  0  0  0
  -29.7408  -11.7954   17.4552 H   0  0  0  0  0  0
  -29.6388  -13.5093   17.7667 H   0  0  0  0  0  0
  -27.8442  -11.3162   18.8453 H   0  0  0  0  0  0
  -27.3637  -12.6300   17.7997 H   0  0  0  0  0  0
  -27.6929  -14.2676   19.5855 H   0  0  0  0  0  0
  -28.7037  -11.9855   21.3452 H   0  0  0  0  0  0
  -28.4746  -13.6023   21.8915 H   0  0  0  0  0  0
  -25.2747   -9.5650   22.4760 H   0  0  0  0  0  0
  -24.0000   -7.4611   22.7470 H   0  0  0  0  0  0
  -21.0844   -8.8755   19.8946 H   0  0  0  0  0  0
  -22.3705  -10.9664   19.6185 H   0  0  0  0  0  0
  -21.1953   -7.6153   23.9695 H   0  0  0  0  0  0
  -21.1515   -6.0544   25.9078 H   0  0  0  0  0  0
  -22.0588   -2.7618   23.2851 H   0  0  0  0  0  0
  -22.4129  -11.9811   22.4779 H   0  0  0  0  0  0
  -21.1114  -13.1169   22.2704 H   0  0  0  0  0  0
  -24.6766  -15.8538   20.5873 H   0  0  0  0  0  0
  -26.3017  -15.6357   20.1854 H   0  0  0  0  0  0
  -26.7143  -32.5521   23.1151 H   0  0  0  0  0  0
  -25.0059  -33.9775   25.0454 H   0  0  0  0  0  0
  -22.7046  -31.3030   21.4008 H   0  0  0  0  0  0
  -23.3757  -35.9645   23.3317 H   0  0  0  0  0  0
  -24.3588  -36.8897   22.2051 H   0  0  0  0  0  0
  -23.7245  -37.6517   23.6647 H   0  0  0  0  0  0
  -26.0547  -31.5800   20.5903 H   0  0  0  0  0  0
  -26.8313  -30.8767   21.9785 H   0  0  0  0  0  0
  -28.1181  -29.0683   21.1571 H   0  0  0  0  0  0
  -26.0485  -25.9270   19.0544 H   0  0  0  0  0  0
  -23.9811  -27.2771   19.0514 H   0  0  0  0  0  0
  -23.7325  -30.5797   19.3987 H   0  0  0  0  0  0
  -22.7484  -29.2258   19.8685 H   0  0  0  0  0  0
  -25.1292  -36.1966   25.0825 H   0  0  0  0  0  0
  -20.9930  -28.3266   24.1446 H   0  0  0  0  0  0
  -20.5798  -26.2260   23.3542 H   0  0  0  0  0  0
  -21.6662  -26.7552   22.1110 H   0  0  0  0  0  0
  -19.6938  -25.6179   21.1374 H   0  0  0  0  0  0
  -19.6651  -27.2996   20.6648 H   0  0  0  0  0  0
  -17.4176  -26.6567   21.4102 H   0  0  0  0  0  0
  -18.0316  -26.0101   22.9128 H   0  0  0  0  0  0
  -19.7932  -30.7296   24.2216 H   0  0  0  0  0  0
  -17.5012  -31.6309   24.5086 H   0  0  0  0  0  0
  -15.5332  -30.2996   23.7686 H   0  0  0  0  0  0
  -15.8652  -28.0857   22.7067 H   0  0  0  0  0  0
  -24.5926  -30.7029   25.7776 H   0  0  0  0  0  0
  -24.8941  -32.2846   26.4910 H   0  0  0  0  0  0
  -25.8093  -30.8843   27.0203 H   0  0  0  0  0  0
  -26.2852  -29.6796   24.1170 H   0  0  0  0  0  0
  -27.4103  -29.7265   25.4537 H   0  0  0  0  0  0
  -27.8675  -30.4370   23.9240 H   0  0  0  0  0  0
  -27.2695  -33.3593   26.2084 H   0  0  0  0  0  0
  -28.3852  -32.6860   25.0281 H   0  0  0  0  0  0
  -28.0764  -31.8408   26.5349 H   0  0  0  0  0  0
  -28.2603  -38.0095   24.7497 H   0  0  0  0  0  0
  -28.1064  -36.2618   24.6321 H   0  0  0  0  0  0
  -27.2296  -37.1486   25.8871 H   0  0  0  0  0  0
  -20.9297  -29.8895   21.7063 H   0  0  0  0  0  0
  -26.0189  -38.2857   24.1405 H   0  0  0  0  0  0
  -26.2890  -17.4231   22.5308 H   0  0  0  0  0  0
  -27.0624  -19.6689   21.9351 H   0  0  0  0  0  0
  -27.7395  -15.4847   22.3197 H   0  0  0  0  0  0
  -30.8554  -18.0152   20.6963 H   0  0  0  0  0  0
  -27.3091  -20.0691   19.2056 H   0  0  0  0  0  0
  -26.9453  -21.7324   18.8063 H   0  0  0  0  0  0
  -26.5906  -21.1419   20.4163 H   0  0  0  0  0  0
  -30.5327  -20.4227   20.6194 H   0  0  0  0  0  0
  -29.5914  -20.9116   21.9765 H   0  0  0  0  0  0
  -29.1382  -25.3791   21.5742 H   0  0  0  0  0  0
  -27.4042  -25.2841   21.4336 H   0  0  0  0  0  0
  -29.3113  -21.5809   19.1326 H   0  0  0  0  0  0
  -31.1847  -15.8056   21.9177 H   0  0  0  0  0  0
  -28.7431  -22.9488   21.6303 H   0  0  0  0  0  0
  1 25  1  0  0  0
  1 30  2  0  0  0
  1 82  1  0  0  0
  2  3  1  0  0  0
  2 25  1  0  0  0
  2 85  1  0  0  0
  2 86  1  0  0  0
  3  4  1  0  0  0
  3 87  1  0  0  0
  3 88  1  0  0  0
  4  5  1  0  0  0
  4 89  1  0  0  0
  4 90  1  0  0  0
  5  6  1  0  0  0
  5 26  1  0  0  0
  5 91  1  0  0  0
  6 25  1  0  0  0
  6 92  1  0  0  0
  6 93  1  0  0  0
  7  8  2  0  0  0
  7 26  1  0  0  0
  7 29  1  0  0  0
  8  9  1  0  0  0
  8 22  1  0  0  0
  9 10  1  0  0  0
  9 27  2  0  0  0
 10 11  2  0  0  0
 10 15  1  0  0  0
 11 12  1  0  0  0
 11 94  1  0  0  0
 12 13  2  0  0  0
 12 95  1  0  0  0
 13 14  1  0  0  0
 13 31  1  0  0  0
 14 15  2  0  0  0
 14 96  1  0  0  0
 15 97  1  0  0  0
 16 17  2  0  0  0
 16 21  1  0  0  0
 16 31  1  0  0  0
 17 18  1  0  0  0
 17 98  1  0  0  0
 18 19  2  0  0  0
 18 99  1  0  0  0
 19 20  1  0  0  0
 19 24  1  0  0  0
 20 21  2  0  0  0
 20100  1  0  0  0
 21 23  1  0  0  0
 22 28  1  0  0  0
 22 32  2  0  0  0
 26 27  1  0  0  0
 28101  1  0  0  0
 28102  1  0  0  0
 29103  1  0  0  0
 29104  1  0  0  0
 33 34  1  0  0  0
 33 66  1  0  0  0
 33 70  2  0  0  0
 34 36  1  0  0  0
 34 59  1  0  0  0
 34105  1  0  0  0
 35 44  2  0  0  0
 35 45  1  0  0  0
 35 68  1  0  0  0
 36 56  1  0  0  0
 36106  1  0  0  0
 37 39  1  0  0  0
 37 47  1  0  0  0
 37 66  1  0  0  0
 37107  1  0  0  0
 38 43  2  0  0  0
 38 46  1  0  0  0
 38 47  1  0  0  0
 39 64  1  0  0  0
 39 67  2  0  0  0
 40 52  1  0  0  0
 40 53  2  0  0  0
 40 58  1  0  0  0
 41108  1  0  0  0
 41109  1  0  0  0
 41110  1  0  0  0
 41 48  1  0  0  0
 42 43  1  0  0  0
 42 66  1  0  0  0
 42111  1  0  0  0
 42112  1  0  0  0
 43 44  1  0  0  0
 44113  1  0  0  0
 45 46  2  0  0  0
 45114  1  0  0  0
 46115  1  0  0  0
 47116  1  0  0  0
 47117  1  0  0  0
 48 56  1  0  0  0
 48 65  1  0  0  0
 48118  1  0  0  0
 49 50  1  0  0  0
 49 53  1  0  0  0
 49 64  1  0  0  0
 49119  1  0  0  0
 50 51  1  0  0  0
 50120  1  0  0  0
 50121  1  0  0  0
 51 52  1  0  0  0
 51122  1  0  0  0
 51123  1  0  0  0
 52124  1  0  0  0
 52125  1  0  0  0
 53 54  1  0  0  0
 54 55  2  0  0  0
 54126  1  0  0  0
 55 57  1  0  0  0
 55127  1  0  0  0
 56 69  2  0  0  0
 57 58  2  0  0  0
 57128  1  0  0  0
 58129  1  0  0  0
 59 60  1  0  0  0
 59 61  1  0  0  0
 59 62  1  0  0  0
 60130  1  0  0  0
 60131  1  0  0  0
 60132  1  0  0  0
 61133  1  0  0  0
 61134  1  0  0  0
 61135  1  0  0  0
 62136  1  0  0  0
 62137  1  0  0  0
 62138  1  0  0  0
 63 65  1  0  0  0
 63139  1  0  0  0
 63140  1  0  0  0
 63141  1  0  0  0
 64142  1  0  0  0
 65143  1  0  0  0
 68 80  1  0  0  0
 71 72  2  0  0  0
 71 73  1  0  0  0
 71144  1  0  0  0
 72 75  1  0  0  0
 72145  1  0  0  0
 73 76  2  0  0  0
 73146  1  0  0  0
 74 75  2  0  0  0
 74 76  1  0  0  0
 74147  1  0  0  0
 75 79  1  0  0  0
 76 82  1  0  0  0
 77 80  1  0  0  0
 77 83  1  0  0  0
 77 84  2  0  0  0
 78148  1  0  0  0
 78149  1  0  0  0
 78150  1  0  0  0
 78 81  1  0  0  0
 79 81  1  0  0  0
 79151  1  0  0  0
 79152  1  0  0  0
 80153  1  0  0  0
 80154  1  0  0  0
 81 83  1  0  0  0
 81155  1  0  0  0
 82156  1  0  0  0
 83157  1  0  0  0
M  ISO  4   1 100  68 101  80 101  82 100
M  END
> <chiral flag>
0

> <version>
0

> <s_m_source_file>
/data/baiqing/PycharmProjects/Reinvent-master-3.2/result/LINK_invent/BTK/process_docking_weight1_custom_product_contain_oxygen_bond_distance_aromatic_linkinvent_7_9_3/rearranged_h_0076.sdf

> <i_m_source_file_index>
39

> <r_mmod_Potential_Energy-OPLS-2005>
39.3387336730957

> <r_mmod_Stretch_Energy-OPLS-2005>
56.9190673828125

> <r_mmod_Bend_Energy-OPLS-2005>
143.733779907227

> <r_mmod_Torsional_Energy-OPLS-2005>
283.240142822266

> <r_mmod_Improper_Torsional_Energy-OPLS-2005>
10.7775220870972

> <r_mmod_Van_der_Waal_Energy-OPLS-2005>
136.310256958008

> <r_mmod_Electrostatic_Energy-OPLS-2005>
-386.347015380859

> <r_mmod_Solvation_Energy-OPLS-2005>
-225.738540649414

> <b_mmod_Minimization_Converged-OPLS-2005>
0

> <r_mmod_RMS_Derivative-OPLS-2005>
3.89480376243591

$$$$
39
                    3D
 Structure written by MMmdl.
161170  0  0  1  0            999 V2000
  -30.6529  -14.7134   20.5713 C   0  0  0  0  0  0
  -30.4288  -12.4659   19.4672 C   0  0  0  0  0  0
  -29.5014  -12.5388   18.2349 C   0  0  0  0  0  0
  -28.0341  -12.3289   18.6478 C   0  0  0  0  0  0
  -27.6427  -13.2214   19.8516 C   0  0  2  0  0  0
  -28.6817  -13.1316   20.9893 C   0  0  0  0  0  0
  -25.2479  -13.8124   20.5642 C   0  0  0  0  0  0
  -24.1793  -13.0403   20.9270 C   0  0  0  0  0  0
  -24.6380  -11.6894   20.8785 C   0  0  0  0  0  0
  -23.9045  -10.4276   21.0435 C   0  0  0  0  0  0
  -24.3604   -9.4185   21.9203 C   0  0  0  0  0  0
  -23.6287   -8.2219   22.0772 C   0  0  0  0  0  0
  -22.4252   -8.0273   21.3569 C   0  0  0  0  0  0
  -21.9899   -9.0240   20.4654 C   0  0  0  0  0  0
  -22.7228  -10.2125   20.3075 C   0  0  0  0  0  0
  -21.6820   -6.0733   22.5287 C   0  0  0  0  0  0
  -21.3982   -6.5650   23.8220 C   0  0  0  0  0  0
  -21.3665   -5.6817   24.9201 C   0  0  0  0  0  0
  -21.6033   -4.3068   24.7247 C   0  0  0  0  0  0
  -21.8806   -3.8156   23.4368 C   0  0  0  0  0  0
  -21.9190   -4.6970   22.3422 C   0  0  0  0  0  0
  -22.7814  -13.5199   21.1912 C   0  0  0  0  0  0
  -22.1660   -4.2157   21.1001 F   0  0  0  0  0  0
  -21.5639   -3.4551   25.7760 F   0  0  0  0  0  0
  -29.9977  -13.4997   20.4427 N   0  0  0  0  0  0
  -26.2925  -12.9337   20.3256 N   0  0  0  0  0  0
  -25.9295  -11.6500   20.5758 N   0  0  0  0  0  0
  -22.0426  -12.8201   22.0455 N   0  0  0  0  0  0
  -25.4040  -15.1818   20.3833 N   0  0  0  0  0  0
  -31.7552  -14.8654   20.0357 O   0  0  0  0  0  0
  -21.6624   -6.8863   21.4245 O   0  0  0  0  0  0
  -22.3518  -14.5506   20.6740 O   0  0  0  0  0  0
  -24.6283  -31.8512   23.1938 C   0  0  0  0  0  0
  -25.9114  -32.4719   23.8296 C   0  0  1  0  0  0
  -27.2451  -27.2614   20.1310 C   0  0  0  0  0  0
  -25.5898  -33.8518   24.2200 N   0  0  0  0  0  0
  -23.4282  -30.4695   21.5353 C   0  0  2  0  0  0
  -24.8813  -28.9111   20.1106 C   0  0  0  0  0  0
  -22.7499  -29.4579   22.4891 C   0  0  0  0  0  0
  -18.0298  -28.1379   22.8472 C   0  0  0  0  0  0
  -24.1498  -36.7301   23.2637 C   0  0  0  0  0  0
  -25.9726  -30.7645   21.3734 C   0  0  0  0  0  0
  -26.0495  -29.3857   20.7202 C   0  0  0  0  0  0
  -27.2260  -28.5728   20.7205 C   0  0  0  0  0  0
  -26.0415  -26.8468   19.5136 C   0  0  0  0  0  0
  -24.8826  -27.6498   19.4952 C   0  0  0  0  0  0
  -23.6484  -29.7929   20.1549 C   0  0  0  0  0  0
  -25.4119  -36.3054   24.0312 C   0  0  1  0  0  0
  -20.5887  -28.3695   23.1257 C   0  0  2  0  0  0
  -20.6769  -26.9410   22.5407 C   0  0  0  0  0  0
  -19.5770  -26.6370   21.5187 C   0  0  0  0  0  0
  -18.1940  -26.7916   22.1598 C   0  0  0  0  0  0
  -19.1544  -28.8855   23.2854 C   0  0  0  0  0  0
  -18.9462  -30.1444   23.8887 C   0  0  0  0  0  0
  -17.6455  -30.6568   24.0563 C   0  0  0  0  0  0
  -25.9053  -34.9422   23.5069 C   0  0  0  0  0  0
  -16.5348  -29.9066   23.6320 C   0  0  0  0  0  0
  -16.7280  -28.6488   23.0345 C   0  0  0  0  0  0
  -26.4478  -31.6540   25.0680 C   0  0  0  0  0  0
  -25.3700  -31.3695   26.1397 C   0  0  0  0  0  0
  -27.0311  -30.2958   24.6156 C   0  0  0  0  0  0
  -27.6031  -32.4272   25.7464 C   0  0  0  0  0  0
  -27.5584  -37.1792   24.8459 C   0  0  0  0  0  0
  -21.4198  -29.3046   22.3647 N   0  0  0  0  0  0
  -26.4300  -37.3747   23.9383 N   0  0  0  0  0  0
  -24.6959  -31.0495   22.0909 N   0  0  0  0  0  0
  -23.4197  -28.8127   23.3003 O   0  0  0  0  0  0
  -28.3641  -26.3902   20.2202 O   0  0  0  0  0  0
  -26.5658  -34.8898   22.4658 O   0  0  0  0  0  0
  -23.5426  -32.1338   23.7221 O   0  0  0  0  0  0
  -30.6899  -19.5641   21.4329 C   0  0  0  0  0  0
  -30.8961  -18.1497   21.5350 C   0  0  0  0  0  0
  -28.7354  -19.1915   20.1071 C   0  0  0  0  0  0
  -29.5937  -20.1495   20.7316 C   0  0  0  0  0  0
  -30.0075  -17.1887   20.9702 C   0  0  0  0  0  0
  -28.9188  -17.7675   20.2477 C   0  0  0  0  0  0
  -28.7472  -23.8991   20.3746 C   0  0  0  0  0  0
  -28.8608  -22.5005   19.8273 C   0  0  0  0  0  0
  -28.4160  -25.0646   19.6802 C   0  0  0  0  0  0
  -29.1069  -23.8179   21.8337 C   0  0  0  0  0  0
  -29.6426  -22.3763   22.0099 C   0  0  0  0  0  0
  -28.2670  -25.0841   18.1649 C   0  0  0  0  0  0
  -30.0683  -15.4896   22.7695 C   0  0  0  0  0  0
  -29.3402  -21.6262   20.7846 N   0  0  0  0  0  0
  -27.9292  -16.9156   19.7704 N   0  0  0  0  0  0
  -30.0874  -15.7406   21.3198 N   0  0  0  0  0  0
  -28.5677  -22.1364   18.6840 O   0  0  0  0  0  0
  -31.4630  -12.6002   19.1548 H   0  0  0  0  0  0
  -30.3898  -11.4752   19.9223 H   0  0  0  0  0  0
  -29.7945  -11.7982   17.4908 H   0  0  0  0  0  0
  -29.6082  -13.5138   17.7582 H   0  0  0  0  0  0
  -27.9138  -11.2770   18.9102 H   0  0  0  0  0  0
  -27.3679  -12.5079   17.8029 H   0  0  0  0  0  0
  -27.6419  -14.2423   19.4753 H   0  0  0  0  0  0
  -28.7086  -12.1236   21.4051 H   0  0  0  0  0  0
  -28.3764  -13.7757   21.8083 H   0  0  0  0  0  0
  -25.2723   -9.5676   22.4810 H   0  0  0  0  0  0
  -23.9984   -7.4601   22.7492 H   0  0  0  0  0  0
  -21.0828   -8.8759   19.8942 H   0  0  0  0  0  0
  -22.3659  -10.9691   19.6208 H   0  0  0  0  0  0
  -21.1929   -7.6152   23.9732 H   0  0  0  0  0  0
  -21.1518   -6.0552   25.9119 H   0  0  0  0  0  0
  -22.0575   -2.7619   23.2873 H   0  0  0  0  0  0
  -22.3997  -11.9815   22.4786 H   0  0  0  0  0  0
  -21.1057  -13.1274   22.2686 H   0  0  0  0  0  0
  -24.5869  -15.7807   20.3857 H   0  0  0  0  0  0
  -26.1561  -15.5439   19.8089 H   0  0  0  0  0  0
  -26.7177  -32.5375   23.1022 H   0  0  0  0  0  0
  -24.9965  -33.9624   25.0298 H   0  0  0  0  0  0
  -22.7275  -31.2924   21.3809 H   0  0  0  0  0  0
  -23.3722  -35.9674   23.3298 H   0  0  0  0  0  0
  -24.3608  -36.8934   22.2062 H   0  0  0  0  0  0
  -23.7299  -37.6520   23.6680 H   0  0  0  0  0  0
  -26.1046  -31.5227   20.6003 H   0  0  0  0  0  0
  -26.8516  -30.8218   22.0020 H   0  0  0  0  0  0
  -28.1156  -28.9359   21.2191 H   0  0  0  0  0  0
  -25.9669  -25.8701   19.0618 H   0  0  0  0  0  0
  -23.9871  -27.2744   19.0216 H   0  0  0  0  0  0
  -23.7636  -30.5607   19.3886 H   0  0  0  0  0  0
  -22.7735  -29.2140   19.8579 H   0  0  0  0  0  0
  -25.1303  -36.1897   25.0805 H   0  0  0  0  0  0
  -20.9975  -28.3251   24.1374 H   0  0  0  0  0  0
  -20.5606  -26.2301   23.3611 H   0  0  0  0  0  0
  -21.6635  -26.7383   22.1243 H   0  0  0  0  0  0
  -19.6924  -25.6276   21.1233 H   0  0  0  0  0  0
  -19.6702  -27.3152   20.6702 H   0  0  0  0  0  0
  -17.4206  -26.6634   21.4013 H   0  0  0  0  0  0
  -18.0377  -26.0053   22.9008 H   0  0  0  0  0  0
  -19.7943  -30.7267   24.2231 H   0  0  0  0  0  0
  -17.5022  -31.6257   24.5168 H   0  0  0  0  0  0
  -15.5353  -30.2975   23.7659 H   0  0  0  0  0  0
  -15.8680  -28.0815   22.7048 H   0  0  0  0  0  0
  -24.5864  -30.7033   25.7754 H   0  0  0  0  0  0
  -24.8873  -32.2870   26.4799 H   0  0  0  0  0  0
  -25.8012  -30.8911   27.0198 H   0  0  0  0  0  0
  -26.2879  -29.6718   24.1175 H   0  0  0  0  0  0
  -27.4004  -29.7194   25.4644 H   0  0  0  0  0  0
  -27.8758  -30.4207   23.9364 H   0  0  0  0  0  0
  -27.2599  -33.3558   26.2030 H   0  0  0  0  0  0
  -28.3858  -32.6835   25.0307 H   0  0  0  0  0  0
  -28.0666  -31.8386   26.5391 H   0  0  0  0  0  0
  -28.2596  -38.0096   24.7484 H   0  0  0  0  0  0
  -28.1081  -36.2619   24.6294 H   0  0  0  0  0  0
  -27.2306  -37.1457   25.8868 H   0  0  0  0  0  0
  -20.9394  -29.8783   21.6872 H   0  0  0  0  0  0
  -26.0179  -38.2823   24.1373 H   0  0  0  0  0  0
  -31.4011  -20.2047   21.9385 H   0  0  0  0  0  0
  -31.7430  -17.7977   22.1106 H   0  0  0  0  0  0
  -27.8657  -19.5532   19.5740 H   0  0  0  0  0  0
  -28.2162  -23.9853   22.4400 H   0  0  0  0  0  0
  -29.8521  -24.5691   22.1054 H   0  0  0  0  0  0
  -29.1941  -21.8806   22.8706 H   0  0  0  0  0  0
  -30.7200  -22.4007   22.1625 H   0  0  0  0  0  0
  -27.4476  -24.4408   17.8459 H   0  0  0  0  0  0
  -29.1864  -24.7179   17.7085 H   0  0  0  0  0  0
  -28.0956  -26.0858   17.7755 H   0  0  0  0  0  0
  -29.0754  -15.6973   23.1679 H   0  0  0  0  0  0
  -30.3250  -14.4640   23.0453 H   0  0  0  0  0  0
  -30.7762  -16.1267   23.2958 H   0  0  0  0  0  0
  -27.0552  -17.3763   19.5393 H   0  0  0  0  0  0
  -27.7692  -16.1488   20.4138 H   0  0  0  0  0  0
  1 25  1  0  0  0
  1 30  2  0  0  0
  1 86  1  0  0  0
  2  3  1  0  0  0
  2 25  1  0  0  0
  2 88  1  0  0  0
  2 89  1  0  0  0
  3  4  1  0  0  0
  3 90  1  0  0  0
  3 91  1  0  0  0
  4  5  1  0  0  0
  4 92  1  0  0  0
  4 93  1  0  0  0
  5  6  1  0  0  0
  5 26  1  0  0  0
  5 94  1  0  0  0
  6 25  1  0  0  0
  6 95  1  0  0  0
  6 96  1  0  0  0
  7  8  2  0  0  0
  7 26  1  0  0  0
  7 29  1  0  0  0
  8  9  1  0  0  0
  8 22  1  0  0  0
  9 10  1  0  0  0
  9 27  2  0  0  0
 10 11  2  0  0  0
 10 15  1  0  0  0
 11 12  1  0  0  0
 11 97  1  0  0  0
 12 13  2  0  0  0
 12 98  1  0  0  0
 13 14  1  0  0  0
 13 31  1  0  0  0
 14 15  2  0  0  0
 14 99  1  0  0  0
 15100  1  0  0  0
 16 17  2  0  0  0
 16 21  1  0  0  0
 16 31  1  0  0  0
 17 18  1  0  0  0
 17101  1  0  0  0
 18 19  2  0  0  0
 18102  1  0  0  0
 19 20  1  0  0  0
 19 24  1  0  0  0
 20 21  2  0  0  0
 20103  1  0  0  0
 21 23  1  0  0  0
 22 28  1  0  0  0
 22 32  2  0  0  0
 26 27  1  0  0  0
 28104  1  0  0  0
 28105  1  0  0  0
 29106  1  0  0  0
 29107  1  0  0  0
 33 34  1  0  0  0
 33 66  1  0  0  0
 33 70  2  0  0  0
 34 36  1  0  0  0
 34 59  1  0  0  0
 34108  1  0  0  0
 35 44  2  0  0  0
 35 45  1  0  0  0
 35 68  1  0  0  0
 36 56  1  0  0  0
 36109  1  0  0  0
 37 39  1  0  0  0
 37 47  1  0  0  0
 37 66  1  0  0  0
 37110  1  0  0  0
 38 43  2  0  0  0
 38 46  1  0  0  0
 38 47  1  0  0  0
 39 64  1  0  0  0
 39 67  2  0  0  0
 40 52  1  0  0  0
 40 53  2  0  0  0
 40 58  1  0  0  0
 41111  1  0  0  0
 41112  1  0  0  0
 41113  1  0  0  0
 41 48  1  0  0  0
 42 43  1  0  0  0
 42 66  1  0  0  0
 42114  1  0  0  0
 42115  1  0  0  0
 43 44  1  0  0  0
 44116  1  0  0  0
 45 46  2  0  0  0
 45117  1  0  0  0
 46118  1  0  0  0
 47119  1  0  0  0
 47120  1  0  0  0
 48 56  1  0  0  0
 48 65  1  0  0  0
 48121  1  0  0  0
 49 50  1  0  0  0
 49 53  1  0  0  0
 49 64  1  0  0  0
 49122  1  0  0  0
 50 51  1  0  0  0
 50123  1  0  0  0
 50124  1  0  0  0
 51 52  1  0  0  0
 51125  1  0  0  0
 51126  1  0  0  0
 52127  1  0  0  0
 52128  1  0  0  0
 53 54  1  0  0  0
 54 55  2  0  0  0
 54129  1  0  0  0
 55 57  1  0  0  0
 55130  1  0  0  0
 56 69  2  0  0  0
 57 58  2  0  0  0
 57131  1  0  0  0
 58132  1  0  0  0
 59 60  1  0  0  0
 59 61  1  0  0  0
 59 62  1  0  0  0
 60133  1  0  0  0
 60134  1  0  0  0
 60135  1  0  0  0
 61136  1  0  0  0
 61137  1  0  0  0
 61138  1  0  0  0
 62139  1  0  0  0
 62140  1  0  0  0
 62141  1  0  0  0
 63 65  1  0  0  0
 63142  1  0  0  0
 63143  1  0  0  0
 63144  1  0  0  0
 64145  1  0  0  0
 65146  1  0  0  0
 68 79  1  0  0  0
 71 72  2  0  0  0
 71 74  1  0  0  0
 71147  1  0  0  0
 72 75  1  0  0  0
 72148  1  0  0  0
 73 74  2  0  0  0
 73 76  1  0  0  0
 73149  1  0  0  0
 74 84  1  0  0  0
 75 76  2  0  0  0
 75 86  1  0  0  0
 76 85  1  0  0  0
 77 78  1  0  0  0
 77 79  2  0  0  0
 77 80  1  0  0  0
 78 84  1  0  0  0
 78 87  2  0  0  0
 79 82  1  0  0  0
 80 81  1  0  0  0
 80150  1  0  0  0
 80151  1  0  0  0
 81 84  1  0  0  0
 81152  1  0  0  0
 81153  1  0  0  0
 82154  1  0  0  0
 82155  1  0  0  0
 82156  1  0  0  0
 83 86  1  0  0  0
 83157  1  0  0  0
 83158  1  0  0  0
 83159  1  0  0  0
 85160  1  0  0  0
 85161  1  0  0  0
M  ISO  4   1 100  68 101  79 101  86 100
M  END
> <chiral flag>
0

> <version>
0

> <s_m_source_file>
/data/baiqing/PycharmProjects/Reinvent-master-3.2/result/LINK_invent/BTK/process_docking_weight1_custom_product_contain_oxygen_bond_distance_aromatic_linkinvent_7_9_3/rearranged_h_0076.sdf

> <i_m_source_file_index>
40

> <r_mmod_Potential_Energy-OPLS-2005>
405.441040039062

> <r_mmod_Stretch_Energy-OPLS-2005>
119.998168945312

> <r_mmod_Bend_Energy-OPLS-2005>
184.912292480469

> <r_mmod_Torsional_Energy-OPLS-2005>
377.782196044922

> <r_mmod_Improper_Torsional_Energy-OPLS-2005>
13.6480808258057

> <r_mmod_Van_der_Waal_Energy-OPLS-2005>
143.34245300293

> <r_mmod_Electrostatic_Energy-OPLS-2005>
-310.738586425781

> <r_mmod_Solvation_Energy-OPLS-2005>
-199.459854125977

> <b_mmod_Minimization_Converged-OPLS-2005>
0

> <r_mmod_RMS_Derivative-OPLS-2005>
4.40649366378784

$$$$
40
                    3D
 Structure written by MMmdl.
155164  0  0  1  0            999 V2000
  -30.6174  -14.6523   20.5056 C   0  0  0  0  0  0
  -30.4429  -12.4014   19.4540 C   0  0  0  0  0  0
  -29.5105  -12.5118   18.2261 C   0  0  0  0  0  0
  -28.0334  -12.3460   18.6371 C   0  0  0  0  0  0
  -27.6552  -13.2160   19.8650 C   0  0  2  0  0  0
  -28.7007  -13.0712   20.9946 C   0  0  0  0  0  0
  -25.2571  -13.8165   20.5680 C   0  0  0  0  0  0
  -24.1837  -13.0435   20.9198 C   0  0  0  0  0  0
  -24.6398  -11.6906   20.8745 C   0  0  0  0  0  0
  -23.9061  -10.4291   21.0408 C   0  0  0  0  0  0
  -24.3612   -9.4204   21.9184 C   0  0  0  0  0  0
  -23.6289   -8.2240   22.0751 C   0  0  0  0  0  0
  -22.4272   -8.0279   21.3540 C   0  0  0  0  0  0
  -21.9906   -9.0252   20.4645 C   0  0  0  0  0  0
  -22.7234  -10.2132   20.3056 C   0  0  0  0  0  0
  -21.6849   -6.0737   22.5281 C   0  0  0  0  0  0
  -21.4012   -6.5642   23.8214 C   0  0  0  0  0  0
  -21.3656   -5.6789   24.9176 C   0  0  0  0  0  0
  -21.6047   -4.3054   24.7224 C   0  0  0  0  0  0
  -21.8820   -3.8148   23.4343 C   0  0  0  0  0  0
  -21.9191   -4.6965   22.3401 C   0  0  0  0  0  0
  -22.7859  -13.5231   21.1855 C   0  0  0  0  0  0
  -22.1661   -4.2151   21.0978 F   0  0  0  0  0  0
  -21.5625   -3.4535   25.7735 F   0  0  0  0  0  0
  -30.0159  -13.4212   20.4334 N   0  0  0  0  0  0
  -26.3001  -12.9343   20.3320 N   0  0  0  0  0  0
  -25.9329  -11.6500   20.5765 N   0  0  0  0  0  0
  -22.0489  -12.8232   22.0409 N   0  0  0  0  0  0
  -25.4282  -15.1882   20.4064 N   0  0  0  0  0  0
  -31.7780  -14.8205   20.1195 O   0  0  0  0  0  0
  -21.6636   -6.8877   21.4241 O   0  0  0  0  0  0
  -22.3550  -14.5538   20.6699 O   0  0  0  0  0  0
  -24.6283  -31.8601   23.2056 C   0  0  0  0  0  0
  -25.9134  -32.4776   23.8375 C   0  0  1  0  0  0
  -27.2154  -27.3033   20.1136 C   0  0  0  0  0  0
  -25.5952  -33.8579   24.2301 N   0  0  0  0  0  0
  -23.4220  -30.4877   21.5486 C   0  0  2  0  0  0
  -24.8674  -28.9494   20.1113 C   0  0  0  0  0  0
  -22.7487  -29.4635   22.4942 C   0  0  0  0  0  0
  -18.0290  -28.1385   22.8483 C   0  0  0  0  0  0
  -24.1490  -36.7285   23.2637 C   0  0  0  0  0  0
  -25.9679  -30.7844   21.3833 C   0  0  0  0  0  0
  -26.0403  -29.4136   20.7212 C   0  0  0  0  0  0
  -27.2184  -28.6028   20.7150 C   0  0  0  0  0  0
  -26.0214  -26.9158   19.4575 C   0  0  0  0  0  0
  -24.8618  -27.7061   19.4700 C   0  0  0  0  0  0
  -23.6372  -29.8301   20.1624 C   0  0  0  0  0  0
  -25.4117  -36.3082   24.0331 C   0  0  1  0  0  0
  -20.5892  -28.3692   23.1278 C   0  0  2  0  0  0
  -20.6780  -26.9414   22.5410 C   0  0  0  0  0  0
  -19.5757  -26.6384   21.5212 C   0  0  0  0  0  0
  -18.1935  -26.7930   22.1616 C   0  0  0  0  0  0
  -19.1541  -28.8857   23.2874 C   0  0  0  0  0  0
  -18.9463  -30.1458   23.8890 C   0  0  0  0  0  0
  -17.6462  -30.6586   24.0560 C   0  0  0  0  0  0
  -25.9056  -34.9450   23.5110 C   0  0  0  0  0  0
  -16.5353  -29.9080   23.6333 C   0  0  0  0  0  0
  -16.7276  -28.6498   23.0352 C   0  0  0  0  0  0
  -26.4508  -31.6584   25.0746 C   0  0  0  0  0  0
  -25.3736  -31.3733   26.1470 C   0  0  0  0  0  0
  -27.0341  -30.2993   24.6223 C   0  0  0  0  0  0
  -27.6081  -32.4310   25.7501 C   0  0  0  0  0  0
  -27.5584  -37.1799   24.8465 C   0  0  0  0  0  0
  -21.4201  -29.3042   22.3672 N   0  0  0  0  0  0
  -26.4295  -37.3776   23.9409 N   0  0  0  0  0  0
  -24.6914  -31.0605   22.1018 N   0  0  0  0  0  0
  -23.4206  -28.8169   23.3020 O   0  0  0  0  0  0
  -28.3023  -26.4061   20.1678 O   0  0  0  0  0  0
  -26.5610  -34.8914   22.4667 O   0  0  0  0  0  0
  -23.5442  -32.1414   23.7371 O   0  0  0  0  0  0
  -28.6643  -19.3422   20.8537 C   0  0  0  0  0  0
  -28.6967  -17.9196   20.9659 C   0  0  0  0  0  0
  -31.0182  -17.9093   20.3770 C   0  0  0  0  0  0
  -29.8063  -20.1130   20.5064 C   0  0  0  0  0  0
  -29.8688  -17.1522   20.7275 C   0  0  0  0  0  0
  -30.9924  -19.3372   20.2735 C   0  0  0  0  0  0
  -28.6702  -22.4739   20.5131 C   0  0  0  0  0  0
  -28.9769  -23.7967   20.3719 C   0  0  0  0  0  0
  -30.4046  -23.8123   20.1552 C   0  0  0  0  0  0
  -31.1604  -24.9067   19.9737 C   0  0  0  0  0  0
  -30.9369  -22.3801   20.1613 C   0  0  0  0  0  0
  -27.9352  -24.9766   20.3826 C   0  0  0  0  0  0
  -29.7448  -21.5612   20.4096 N   0  0  0  0  0  0
  -29.7969  -15.6911   20.8703 N   0  0  0  0  0  0
  -32.1532  -19.9508   19.9362 F   0  0  0  0  0  0
  -31.4833  -12.5330   19.1511 H   0  0  0  0  0  0
  -30.3841  -11.4049   19.8945 H   0  0  0  0  0  0
  -29.7771  -11.7603   17.4816 H   0  0  0  0  0  0
  -29.6497  -13.4812   17.7445 H   0  0  0  0  0  0
  -27.8726  -11.2927   18.8685 H   0  0  0  0  0  0
  -27.3778  -12.5741   17.7960 H   0  0  0  0  0  0
  -27.6730  -14.2512   19.5243 H   0  0  0  0  0  0
  -28.7156  -12.0484   21.3735 H   0  0  0  0  0  0
  -28.4434  -13.6980   21.8498 H   0  0  0  0  0  0
  -25.2757   -9.5680   22.4756 H   0  0  0  0  0  0
  -23.9996   -7.4629   22.7470 H   0  0  0  0  0  0
  -21.0832   -8.8769   19.8954 H   0  0  0  0  0  0
  -22.3688  -10.9668   19.6166 H   0  0  0  0  0  0
  -21.2003   -7.6151   23.9718 H   0  0  0  0  0  0
  -21.1478   -6.0521   25.9077 H   0  0  0  0  0  0
  -22.0602   -2.7612   23.2839 H   0  0  0  0  0  0
  -22.4096  -11.9889   22.4801 H   0  0  0  0  0  0
  -21.1112  -13.1270   22.2611 H   0  0  0  0  0  0
  -24.6546  -15.8369   20.5023 H   0  0  0  0  0  0
  -26.2589  -15.6182   20.0207 H   0  0  0  0  0  0
  -26.7203  -32.5436   23.1122 H   0  0  0  0  0  0
  -25.0123  -33.9728   25.0460 H   0  0  0  0  0  0
  -22.7162  -31.3091   21.4087 H   0  0  0  0  0  0
  -23.3756  -35.9615   23.3303 H   0  0  0  0  0  0
  -24.3582  -36.8896   22.2050 H   0  0  0  0  0  0
  -23.7241  -37.6490   23.6650 H   0  0  0  0  0  0
  -26.1085  -31.5500   20.6191 H   0  0  0  0  0  0
  -26.8453  -30.8261   22.0172 H   0  0  0  0  0  0
  -28.1136  -28.9514   21.2107 H   0  0  0  0  0  0
  -25.9390  -25.9899   18.9122 H   0  0  0  0  0  0
  -23.9688  -27.3514   18.9731 H   0  0  0  0  0  0
  -23.7585  -30.6096   19.4095 H   0  0  0  0  0  0
  -22.7560  -29.2627   19.8568 H   0  0  0  0  0  0
  -25.1295  -36.1935   25.0825 H   0  0  0  0  0  0
  -20.9981  -28.3261   24.1401 H   0  0  0  0  0  0
  -20.5683  -26.2300   23.3610 H   0  0  0  0  0  0
  -21.6647  -26.7444   22.1199 H   0  0  0  0  0  0
  -19.6917  -25.6293   21.1243 H   0  0  0  0  0  0
  -19.6698  -27.3191   20.6740 H   0  0  0  0  0  0
  -17.4210  -26.6688   21.4011 H   0  0  0  0  0  0
  -18.0323  -26.0068   22.9005 H   0  0  0  0  0  0
  -19.7938  -30.7276   24.2255 H   0  0  0  0  0  0
  -17.5015  -31.6266   24.5157 H   0  0  0  0  0  0
  -15.5352  -30.2976   23.7671 H   0  0  0  0  0  0
  -15.8674  -28.0816   22.7073 H   0  0  0  0  0  0
  -24.5932  -30.7052   25.7809 H   0  0  0  0  0  0
  -24.8899  -32.2895   26.4862 H   0  0  0  0  0  0
  -25.8061  -30.8948   27.0264 H   0  0  0  0  0  0
  -26.2917  -29.6745   24.1243 H   0  0  0  0  0  0
  -27.4010  -29.7256   25.4744 H   0  0  0  0  0  0
  -27.8809  -30.4250   23.9471 H   0  0  0  0  0  0
  -27.2711  -33.3616   26.2074 H   0  0  0  0  0  0
  -28.3889  -32.6853   25.0321 H   0  0  0  0  0  0
  -28.0752  -31.8431   26.5412 H   0  0  0  0  0  0
  -28.2608  -38.0088   24.7507 H   0  0  0  0  0  0
  -28.1073  -36.2623   24.6295 H   0  0  0  0  0  0
  -27.2302  -37.1449   25.8867 H   0  0  0  0  0  0
  -20.9390  -29.8758   21.6872 H   0  0  0  0  0  0
  -26.0176  -38.2852   24.1405 H   0  0  0  0  0  0
  -27.7280  -19.8416   21.0505 H   0  0  0  0  0  0
  -27.7812  -17.4158   21.2434 H   0  0  0  0  0  0
  -31.9533  -17.4055   20.1850 H   0  0  0  0  0  0
  -27.6788  -22.0693   20.6677 H   0  0  0  0  0  0
  -30.7388  -25.9009   19.9778 H   0  0  0  0  0  0
  -32.2261  -24.8221   19.8175 H   0  0  0  0  0  0
  -31.6795  -22.2486   20.9498 H   0  0  0  0  0  0
  -31.3895  -22.1448   19.1969 H   0  0  0  0  0  0
  -27.3971  -24.9146   21.3296 H   0  0  0  0  0  0
  -27.2400  -24.6417   19.6191 H   0  0  0  0  0  0
  -28.8995  -15.3542   21.1834 H   0  0  0  0  0  0
  1 25  1  0  0  0
  1 30  2  0  0  0
  1 84  1  0  0  0
  2  3  1  0  0  0
  2 25  1  0  0  0
  2 86  1  0  0  0
  2 87  1  0  0  0
  3  4  1  0  0  0
  3 88  1  0  0  0
  3 89  1  0  0  0
  4  5  1  0  0  0
  4 90  1  0  0  0
  4 91  1  0  0  0
  5  6  1  0  0  0
  5 26  1  0  0  0
  5 92  1  0  0  0
  6 25  1  0  0  0
  6 93  1  0  0  0
  6 94  1  0  0  0
  7  8  2  0  0  0
  7 26  1  0  0  0
  7 29  1  0  0  0
  8  9  1  0  0  0
  8 22  1  0  0  0
  9 10  1  0  0  0
  9 27  2  0  0  0
 10 11  2  0  0  0
 10 15  1  0  0  0
 11 12  1  0  0  0
 11 95  1  0  0  0
 12 13  2  0  0  0
 12 96  1  0  0  0
 13 14  1  0  0  0
 13 31  1  0  0  0
 14 15  2  0  0  0
 14 97  1  0  0  0
 15 98  1  0  0  0
 16 17  2  0  0  0
 16 21  1  0  0  0
 16 31  1  0  0  0
 17 18  1  0  0  0
 17 99  1  0  0  0
 18 19  2  0  0  0
 18100  1  0  0  0
 19 20  1  0  0  0
 19 24  1  0  0  0
 20 21  2  0  0  0
 20101  1  0  0  0
 21 23  1  0  0  0
 22 28  1  0  0  0
 22 32  2  0  0  0
 26 27  1  0  0  0
 28102  1  0  0  0
 28103  1  0  0  0
 29104  1  0  0  0
 29105  1  0  0  0
 33 34  1  0  0  0
 33 66  1  0  0  0
 33 70  2  0  0  0
 34 36  1  0  0  0
 34 59  1  0  0  0
 34106  1  0  0  0
 35 44  2  0  0  0
 35 45  1  0  0  0
 35 68  1  0  0  0
 36 56  1  0  0  0
 36107  1  0  0  0
 37 39  1  0  0  0
 37 47  1  0  0  0
 37 66  1  0  0  0
 37108  1  0  0  0
 38 43  2  0  0  0
 38 46  1  0  0  0
 38 47  1  0  0  0
 39 64  1  0  0  0
 39 67  2  0  0  0
 40 52  1  0  0  0
 40 53  2  0  0  0
 40 58  1  0  0  0
 41109  1  0  0  0
 41110  1  0  0  0
 41111  1  0  0  0
 41 48  1  0  0  0
 42 43  1  0  0  0
 42 66  1  0  0  0
 42112  1  0  0  0
 42113  1  0  0  0
 43 44  1  0  0  0
 44114  1  0  0  0
 45 46  2  0  0  0
 45115  1  0  0  0
 46116  1  0  0  0
 47117  1  0  0  0
 47118  1  0  0  0
 48 56  1  0  0  0
 48 65  1  0  0  0
 48119  1  0  0  0
 49 50  1  0  0  0
 49 53  1  0  0  0
 49 64  1  0  0  0
 49120  1  0  0  0
 50 51  1  0  0  0
 50121  1  0  0  0
 50122  1  0  0  0
 51 52  1  0  0  0
 51123  1  0  0  0
 51124  1  0  0  0
 52125  1  0  0  0
 52126  1  0  0  0
 53 54  1  0  0  0
 54 55  2  0  0  0
 54127  1  0  0  0
 55 57  1  0  0  0
 55128  1  0  0  0
 56 69  2  0  0  0
 57 58  2  0  0  0
 57129  1  0  0  0
 58130  1  0  0  0
 59 60  1  0  0  0
 59 61  1  0  0  0
 59 62  1  0  0  0
 60131  1  0  0  0
 60132  1  0  0  0
 60133  1  0  0  0
 61134  1  0  0  0
 61135  1  0  0  0
 61136  1  0  0  0
 62137  1  0  0  0
 62138  1  0  0  0
 62139  1  0  0  0
 63 65  1  0  0  0
 63140  1  0  0  0
 63141  1  0  0  0
 63142  1  0  0  0
 64143  1  0  0  0
 65144  1  0  0  0
 68 82  1  0  0  0
 71 72  2  0  0  0
 71 74  1  0  0  0
 71145  1  0  0  0
 72 75  1  0  0  0
 72146  1  0  0  0
 73 75  2  0  0  0
 73 76  1  0  0  0
 73147  1  0  0  0
 74 76  2  0  0  0
 74 83  1  0  0  0
 75 84  1  0  0  0
 76 85  1  0  0  0
 77 78  2  0  0  0
 77 83  1  0  0  0
 77148  1  0  0  0
 78 79  1  0  0  0
 78 82  1  0  0  0
 79 80  2  0  0  0
 79 81  1  0  0  0
 80149  1  0  0  0
 80150  1  0  0  0
 81 83  1  0  0  0
 81151  1  0  0  0
 81152  1  0  0  0
 82153  1  0  0  0
 82154  1  0  0  0
 84155  1  0  0  0
M  ISO  4   1 100  68 101  82 101  84 100
M  END
> <chiral flag>
0

> <version>
0

> <s_m_source_file>
/data/baiqing/PycharmProjects/Reinvent-master-3.2/result/LINK_invent/BTK/process_docking_weight1_custom_product_contain_oxygen_bond_distance_aromatic_linkinvent_7_9_3/rearranged_h_0076.sdf

> <i_m_source_file_index>
41

> <r_mmod_Potential_Energy-OPLS-2005>
205.653228759766

> <r_mmod_Stretch_Energy-OPLS-2005>
83.8845596313477

> <r_mmod_Bend_Energy-OPLS-2005>
241.666442871094

> <r_mmod_Torsional_Energy-OPLS-2005>
204.547393798828

> <r_mmod_Improper_Torsional_Energy-OPLS-2005>
4.27262496948242

> <r_mmod_Van_der_Waal_Energy-OPLS-2005>
148.90185546875

> <r_mmod_Electrostatic_Energy-OPLS-2005>
-326.595001220703

> <r_mmod_Solvation_Energy-OPLS-2005>
-207.934204101562

> <b_mmod_Minimization_Converged-OPLS-2005>
0

> <r_mmod_RMS_Derivative-OPLS-2005>
0.627527177333832

$$$$
41
                    3D
 Structure written by MMmdl.
163172  0  0  1  0            999 V2000
  -30.7967  -14.4673   20.5547 C   0  0  0  0  0  0
  -30.3955  -12.2982   19.4578 C   0  0  0  0  0  0
  -29.4931  -12.4997   18.2264 C   0  0  0  0  0  0
  -28.0171  -12.3637   18.6359 C   0  0  0  0  0  0
  -27.6604  -13.2272   19.8767 C   0  0  2  0  0  0
  -28.7043  -13.0795   21.0122 C   0  0  0  0  0  0
  -25.2569  -13.8205   20.5711 C   0  0  0  0  0  0
  -24.1835  -13.0453   20.9187 C   0  0  0  0  0  0
  -24.6426  -11.6931   20.8757 C   0  0  0  0  0  0
  -23.9099  -10.4301   21.0413 C   0  0  0  0  0  0
  -24.3642   -9.4209   21.9189 C   0  0  0  0  0  0
  -23.6309   -8.2247   22.0753 C   0  0  0  0  0  0
  -22.4288   -8.0296   21.3547 C   0  0  0  0  0  0
  -21.9940   -9.0274   20.4647 C   0  0  0  0  0  0
  -22.7276  -10.2148   20.3059 C   0  0  0  0  0  0
  -21.6853   -6.0755   22.5286 C   0  0  0  0  0  0
  -21.4014   -6.5648   23.8225 C   0  0  0  0  0  0
  -21.3659   -5.6796   24.9181 C   0  0  0  0  0  0
  -21.6044   -4.3063   24.7225 C   0  0  0  0  0  0
  -21.8817   -3.8163   23.4343 C   0  0  0  0  0  0
  -21.9194   -4.6983   22.3402 C   0  0  0  0  0  0
  -22.7856  -13.5244   21.1852 C   0  0  0  0  0  0
  -22.1664   -4.2172   21.0981 F   0  0  0  0  0  0
  -21.5630   -3.4542   25.7738 F   0  0  0  0  0  0
  -30.0431  -13.3316   20.4537 N   0  0  0  0  0  0
  -26.3039  -12.9427   20.3414 N   0  0  0  0  0  0
  -25.9365  -11.6563   20.5809 N   0  0  0  0  0  0
  -22.0504  -12.8217   22.0404 N   0  0  0  0  0  0
  -25.4259  -15.1921   20.4108 N   0  0  0  0  0  0
  -31.9033  -14.5177   20.0138 O   0  0  0  0  0  0
  -21.6644   -6.8899   21.4246 O   0  0  0  0  0  0
  -22.3539  -14.5558   20.6720 O   0  0  0  0  0  0
  -24.6214  -31.8677   23.2156 C   0  0  0  0  0  0
  -25.9102  -32.4822   23.8433 C   0  0  1  0  0  0
  -27.2083  -27.3860   20.0834 C   0  0  0  0  0  0
  -25.5963  -33.8630   24.2337 N   0  0  0  0  0  0
  -23.4079  -30.4997   21.5593 C   0  0  2  0  0  0
  -24.8474  -28.9864   20.1092 C   0  0  0  0  0  0
  -22.7429  -29.4661   22.4995 C   0  0  0  0  0  0
  -18.0272  -28.1359   22.8480 C   0  0  0  0  0  0
  -24.1500  -36.7324   23.2640 C   0  0  0  0  0  0
  -25.9476  -30.8160   21.3826 C   0  0  0  0  0  0
  -26.0160  -29.4531   20.7230 C   0  0  0  0  0  0
  -27.1938  -28.6560   20.7245 C   0  0  0  0  0  0
  -26.0287  -27.0141   19.3822 C   0  0  0  0  0  0
  -24.8505  -27.7643   19.4385 C   0  0  0  0  0  0
  -23.6127  -29.8515   20.1690 C   0  0  0  0  0  0
  -25.4113  -36.3103   24.0328 C   0  0  1  0  0  0
  -20.5872  -28.3651   23.1308 C   0  0  2  0  0  0
  -20.6766  -26.9387   22.5404 C   0  0  0  0  0  0
  -19.5728  -26.6359   21.5218 C   0  0  0  0  0  0
  -18.1907  -26.7901   22.1620 C   0  0  0  0  0  0
  -19.1531  -28.8820   23.2880 C   0  0  0  0  0  0
  -18.9460  -30.1441   23.8862 C   0  0  0  0  0  0
  -17.6465  -30.6566   24.0559 C   0  0  0  0  0  0
  -25.9049  -34.9470   23.5114 C   0  0  0  0  0  0
  -16.5353  -29.9045   23.6353 C   0  0  0  0  0  0
  -16.7265  -28.6475   23.0347 C   0  0  0  0  0  0
  -26.4494  -31.6614   25.0780 C   0  0  0  0  0  0
  -25.3740  -31.3777   26.1520 C   0  0  0  0  0  0
  -27.0353  -30.3040   24.6231 C   0  0  0  0  0  0
  -27.6029  -32.4380   25.7549 C   0  0  0  0  0  0
  -27.5569  -37.1817   24.8453 C   0  0  0  0  0  0
  -21.4160  -29.3035   22.3734 N   0  0  0  0  0  0
  -26.4285  -37.3783   23.9396 N   0  0  0  0  0  0
  -24.6781  -31.0748   22.1088 N   0  0  0  0  0  0
  -23.4190  -28.8171   23.3016 O   0  0  0  0  0  0
  -28.3191  -26.5347   20.1722 O   0  0  0  0  0  0
  -26.5584  -34.8919   22.4662 O   0  0  0  0  0  0
  -23.5393  -32.1478   23.7500 O   0  0  0  0  0  0
  -29.2016  -18.5800   24.1494 C   0  0  0  0  0  0
  -29.6556  -17.5520   23.3065 C   0  0  0  0  0  0
  -29.2564  -19.9248   23.7331 C   0  0  0  0  0  0
  -30.2313  -19.2337   21.6308 C   0  0  0  0  0  0
  -30.1782  -17.8692   22.0364 C   0  0  0  0  0  0
  -29.7508  -20.2887   22.4540 C   0  0  0  0  0  0
  -28.1610  -23.6934   21.8738 C   0  0  0  0  0  0
  -30.7990  -16.8040   21.1674 C   0  0  0  0  0  0
  -28.7610  -22.5414   22.7049 C   0  0  0  0  0  0
  -30.1301  -23.5572   20.3933 C   0  0  0  0  0  0
  -30.4637  -22.0954   20.8264 C   0  0  0  0  0  0
  -28.6060  -23.8310   20.4059 C   0  0  1  0  0  0
  -27.8819  -22.7130   19.5852 C   0  0  0  0  0  0
  -28.1073  -25.1587   19.7247 C   0  0  0  0  0  0
  -29.7454  -21.6551   22.0429 N   0  0  0  0  0  0
  -30.2708  -15.5471   21.1870 N   0  0  0  0  0  0
  -27.3317  -24.4512   22.3814 O   0  0  0  0  0  0
  -31.7427  -17.1619   20.4505 O   0  0  0  0  0  0
  -31.4461  -12.3140   19.1622 H   0  0  0  0  0  0
  -30.2376  -11.3066   19.8838 H   0  0  0  0  0  0
  -29.7355  -11.7671   17.4554 H   0  0  0  0  0  0
  -29.6704  -13.4815   17.7854 H   0  0  0  0  0  0
  -27.8311  -11.3102   18.8496 H   0  0  0  0  0  0
  -27.3676  -12.6209   17.7980 H   0  0  0  0  0  0
  -27.6880  -14.2659   19.5476 H   0  0  0  0  0  0
  -28.6674  -12.0738   21.4338 H   0  0  0  0  0  0
  -28.4711  -13.7565   21.8356 H   0  0  0  0  0  0
  -25.2788   -9.5684   22.4762 H   0  0  0  0  0  0
  -24.0026   -7.4635   22.7464 H   0  0  0  0  0  0
  -21.0880   -8.8796   19.8942 H   0  0  0  0  0  0
  -22.3746  -10.9691   19.6166 H   0  0  0  0  0  0
  -21.2001   -7.6155   23.9736 H   0  0  0  0  0  0
  -21.1483   -6.0525   25.9087 H   0  0  0  0  0  0
  -22.0595   -2.7628   23.2838 H   0  0  0  0  0  0
  -22.4126  -11.9865   22.4765 H   0  0  0  0  0  0
  -21.1122  -13.1227   22.2622 H   0  0  0  0  0  0
  -24.6566  -15.8455   20.5094 H   0  0  0  0  0  0
  -26.2840  -15.6342   20.1060 H   0  0  0  0  0  0
  -26.7164  -32.5494   23.1180 H   0  0  0  0  0  0
  -25.0222  -33.9823   25.0556 H   0  0  0  0  0  0
  -22.7021  -31.3209   21.4250 H   0  0  0  0  0  0
  -23.3744  -35.9679   23.3318 H   0  0  0  0  0  0
  -24.3597  -36.8930   22.2055 H   0  0  0  0  0  0
  -23.7277  -37.6545   23.6643 H   0  0  0  0  0  0
  -26.0813  -31.5837   20.6173 H   0  0  0  0  0  0
  -26.8282  -30.8541   22.0100 H   0  0  0  0  0  0
  -28.0805  -29.0018   21.2359 H   0  0  0  0  0  0
  -25.9521  -26.1389   18.7572 H   0  0  0  0  0  0
  -23.9652  -27.4129   18.9274 H   0  0  0  0  0  0
  -23.7132  -30.6317   19.4138 H   0  0  0  0  0  0
  -22.7369  -29.2685   19.8750 H   0  0  0  0  0  0
  -25.1291  -36.1976   25.0817 H   0  0  0  0  0  0
  -20.9956  -28.3185   24.1433 H   0  0  0  0  0  0
  -20.5694  -26.2250   23.3589 H   0  0  0  0  0  0
  -21.6633  -26.7425   22.1189 H   0  0  0  0  0  0
  -19.6898  -25.6271   21.1240 H   0  0  0  0  0  0
  -19.6666  -27.3181   20.6762 H   0  0  0  0  0  0
  -17.4194  -26.6689   21.4002 H   0  0  0  0  0  0
  -18.0269  -26.0031   22.8996 H   0  0  0  0  0  0
  -19.7950  -30.7272   24.2188 H   0  0  0  0  0  0
  -17.5019  -31.6250   24.5153 H   0  0  0  0  0  0
  -15.5352  -30.2928   23.7697 H   0  0  0  0  0  0
  -15.8670  -28.0788   22.7058 H   0  0  0  0  0  0
  -24.5913  -30.7109   25.7894 H   0  0  0  0  0  0
  -24.8949  -32.2967   26.4907 H   0  0  0  0  0  0
  -25.8078  -30.9013   27.0319 H   0  0  0  0  0  0
  -26.2956  -29.6781   24.1231 H   0  0  0  0  0  0
  -27.4037  -29.7289   25.4737 H   0  0  0  0  0  0
  -27.8804  -30.4339   23.9466 H   0  0  0  0  0  0
  -27.2606  -33.3689   26.2078 H   0  0  0  0  0  0
  -28.3847  -32.6949   25.0392 H   0  0  0  0  0  0
  -28.0667  -31.8559   26.5515 H   0  0  0  0  0  0
  -28.2582  -38.0121   24.7504 H   0  0  0  0  0  0
  -28.1058  -36.2649   24.6257 H   0  0  0  0  0  0
  -27.2283  -37.1452   25.8856 H   0  0  0  0  0  0
  -20.9300  -29.8817   21.7027 H   0  0  0  0  0  0
  -26.0172  -38.2856   24.1400 H   0  0  0  0  0  0
  -28.8193  -18.3414   25.1333 H   0  0  0  0  0  0
  -29.6355  -16.5291   23.6578 H   0  0  0  0  0  0
  -28.9153  -20.6700   24.4366 H   0  0  0  0  0  0
  -30.6617  -19.4498   20.6645 H   0  0  0  0  0  0
  -27.9019  -21.9592   23.0366 H   0  0  0  0  0  0
  -29.2184  -22.9708   23.5961 H   0  0  0  0  0  0
  -30.5396  -23.7510   19.4012 H   0  0  0  0  0  0
  -30.6387  -24.2582   21.0576 H   0  0  0  0  0  0
  -31.5397  -21.9820   20.9699 H   0  0  0  0  0  0
  -30.2149  -21.4388   19.9923 H   0  0  0  0  0  0
  -27.9676  -21.7202   20.0232 H   0  0  0  0  0  0
  -28.2782  -22.6565   18.5716 H   0  0  0  0  0  0
  -26.8073  -22.8796   19.4920 H   0  0  0  0  0  0
  -27.0537  -24.9443   19.8198 H   0  0  0  0  0  0
  -28.3399  -25.1329   18.6595 H   0  0  0  0  0  0
  -29.4177  -15.4183   21.7027 H   0  0  0  0  0  0
  1 25  1  0  0  0
  1 30  2  0  0  0
  1 86  1  0  0  0
  2  3  1  0  0  0
  2 25  1  0  0  0
  2 89  1  0  0  0
  2 90  1  0  0  0
  3  4  1  0  0  0
  3 91  1  0  0  0
  3 92  1  0  0  0
  4  5  1  0  0  0
  4 93  1  0  0  0
  4 94  1  0  0  0
  5  6  1  0  0  0
  5 26  1  0  0  0
  5 95  1  0  0  0
  6 25  1  0  0  0
  6 96  1  0  0  0
  6 97  1  0  0  0
  7  8  2  0  0  0
  7 26  1  0  0  0
  7 29  1  0  0  0
  8  9  1  0  0  0
  8 22  1  0  0  0
  9 10  1  0  0  0
  9 27  2  0  0  0
 10 11  2  0  0  0
 10 15  1  0  0  0
 11 12  1  0  0  0
 11 98  1  0  0  0
 12 13  2  0  0  0
 12 99  1  0  0  0
 13 14  1  0  0  0
 13 31  1  0  0  0
 14 15  2  0  0  0
 14100  1  0  0  0
 15101  1  0  0  0
 16 17  2  0  0  0
 16 21  1  0  0  0
 16 31  1  0  0  0
 17 18  1  0  0  0
 17102  1  0  0  0
 18 19  2  0  0  0
 18103  1  0  0  0
 19 20  1  0  0  0
 19 24  1  0  0  0
 20 21  2  0  0  0
 20104  1  0  0  0
 21 23  1  0  0  0
 22 28  1  0  0  0
 22 32  2  0  0  0
 26 27  1  0  0  0
 28105  1  0  0  0
 28106  1  0  0  0
 29107  1  0  0  0
 29108  1  0  0  0
 33 34  1  0  0  0
 33 66  1  0  0  0
 33 70  2  0  0  0
 34 36  1  0  0  0
 34 59  1  0  0  0
 34109  1  0  0  0
 35 44  2  0  0  0
 35 45  1  0  0  0
 35 68  1  0  0  0
 36 56  1  0  0  0
 36110  1  0  0  0
 37 39  1  0  0  0
 37 47  1  0  0  0
 37 66  1  0  0  0
 37111  1  0  0  0
 38 43  2  0  0  0
 38 46  1  0  0  0
 38 47  1  0  0  0
 39 64  1  0  0  0
 39 67  2  0  0  0
 40 52  1  0  0  0
 40 53  2  0  0  0
 40 58  1  0  0  0
 41112  1  0  0  0
 41113  1  0  0  0
 41114  1  0  0  0
 41 48  1  0  0  0
 42 43  1  0  0  0
 42 66  1  0  0  0
 42115  1  0  0  0
 42116  1  0  0  0
 43 44  1  0  0  0
 44117  1  0  0  0
 45 46  2  0  0  0
 45118  1  0  0  0
 46119  1  0  0  0
 47120  1  0  0  0
 47121  1  0  0  0
 48 56  1  0  0  0
 48 65  1  0  0  0
 48122  1  0  0  0
 49 50  1  0  0  0
 49 53  1  0  0  0
 49 64  1  0  0  0
 49123  1  0  0  0
 50 51  1  0  0  0
 50124  1  0  0  0
 50125  1  0  0  0
 51 52  1  0  0  0
 51126  1  0  0  0
 51127  1  0  0  0
 52128  1  0  0  0
 52129  1  0  0  0
 53 54  1  0  0  0
 54 55  2  0  0  0
 54130  1  0  0  0
 55 57  1  0  0  0
 55131  1  0  0  0
 56 69  2  0  0  0
 57 58  2  0  0  0
 57132  1  0  0  0
 58133  1  0  0  0
 59 60  1  0  0  0
 59 61  1  0  0  0
 59 62  1  0  0  0
 60134  1  0  0  0
 60135  1  0  0  0
 60136  1  0  0  0
 61137  1  0  0  0
 61138  1  0  0  0
 61139  1  0  0  0
 62140  1  0  0  0
 62141  1  0  0  0
 62142  1  0  0  0
 63 65  1  0  0  0
 63143  1  0  0  0
 63144  1  0  0  0
 63145  1  0  0  0
 64146  1  0  0  0
 65147  1  0  0  0
 68 84  1  0  0  0
 71 72  2  0  0  0
 71 73  1  0  0  0
 71148  1  0  0  0
 72 75  1  0  0  0
 72149  1  0  0  0
 73 76  2  0  0  0
 73150  1  0  0  0
 74 75  2  0  0  0
 74 76  1  0  0  0
 74151  1  0  0  0
 75 78  1  0  0  0
 76 85  1  0  0  0
 77 79  1  0  0  0
 77 82  1  0  0  0
 77 87  2  0  0  0
 78 86  1  0  0  0
 78 88  2  0  0  0
 79 85  1  0  0  0
 79152  1  0  0  0
 79153  1  0  0  0
 80 81  1  0  0  0
 80 82  1  0  0  0
 80154  1  0  0  0
 80155  1  0  0  0
 81 85  1  0  0  0
 81156  1  0  0  0
 81157  1  0  0  0
 82 83  1  0  0  0
 82 84  1  0  0  0
 83158  1  0  0  0
 83159  1  0  0  0
 83160  1  0  0  0
 84161  1  0  0  0
 84162  1  0  0  0
 86163  1  0  0  0
M  ISO  4   1 100  68 101  84 101  86 100
M  END
> <chiral flag>
0

> <version>
0

> <s_m_source_file>
/data/baiqing/PycharmProjects/Reinvent-master-3.2/result/LINK_invent/BTK/process_docking_weight1_custom_product_contain_oxygen_bond_distance_aromatic_linkinvent_7_9_3/rearranged_h_0076.sdf

> <i_m_source_file_index>
42

> <r_mmod_Potential_Energy-OPLS-2005>
44.4161529541016

> <r_mmod_Stretch_Energy-OPLS-2005>
56.9764595031738

> <r_mmod_Bend_Energy-OPLS-2005>
165.957000732422

> <r_mmod_Torsional_Energy-OPLS-2005>
230.588607788086

> <r_mmod_Improper_Torsional_Energy-OPLS-2005>
3.16480326652527

> <r_mmod_Van_der_Waal_Energy-OPLS-2005>
215.440475463867

> <r_mmod_Electrostatic_Energy-OPLS-2005>
-407.084106445312

> <r_mmod_Solvation_Energy-OPLS-2005>
-252.169006347656

> <b_mmod_Minimization_Converged-OPLS-2005>
0

> <r_mmod_RMS_Derivative-OPLS-2005>
2.54659199714661

$$$$
42
                    3D
 Structure written by MMmdl.
165174  0  0  1  0            999 V2000
  -30.6258  -14.6993   20.3593 C   0  0  0  0  0  0
  -30.4239  -12.3939   19.4555 C   0  0  0  0  0  0
  -29.4975  -12.3902   18.2200 C   0  0  0  0  0  0
  -28.0134  -12.3087   18.6346 C   0  0  0  0  0  0
  -27.6305  -13.2182   19.8383 C   0  0  2  0  0  0
  -28.6881  -13.1811   20.9590 C   0  0  0  0  0  0
  -25.2458  -13.8162   20.5693 C   0  0  0  0  0  0
  -24.1767  -13.0418   20.9240 C   0  0  0  0  0  0
  -24.6346  -11.6894   20.8776 C   0  0  0  0  0  0
  -23.9022  -10.4283   21.0426 C   0  0  0  0  0  0
  -24.3571   -9.4196   21.9201 C   0  0  0  0  0  0
  -23.6257   -8.2219   22.0757 C   0  0  0  0  0  0
  -22.4241   -8.0253   21.3543 C   0  0  0  0  0  0
  -21.9873   -9.0229   20.4654 C   0  0  0  0  0  0
  -22.7190  -10.2123   20.3079 C   0  0  0  0  0  0
  -21.6846   -6.0699   22.5279 C   0  0  0  0  0  0
  -21.4005   -6.5611   23.8210 C   0  0  0  0  0  0
  -21.3668   -5.6776   24.9181 C   0  0  0  0  0  0
  -21.6045   -4.3034   24.7242 C   0  0  0  0  0  0
  -21.8813   -3.8113   23.4368 C   0  0  0  0  0  0
  -21.9183   -4.6921   22.3416 C   0  0  0  0  0  0
  -22.7785  -13.5201   21.1878 C   0  0  0  0  0  0
  -22.1648   -4.2097   21.0995 F   0  0  0  0  0  0
  -21.5641   -3.4534   25.7763 F   0  0  0  0  0  0
  -29.9807  -13.4878   20.3400 N   0  0  0  0  0  0
  -26.2877  -12.9342   20.3290 N   0  0  0  0  0  0
  -25.9271  -11.6500   20.5794 N   0  0  0  0  0  0
  -22.0402  -12.8238   22.0448 N   0  0  0  0  0  0
  -25.4111  -15.1895   20.4037 N   0  0  0  0  0  0
  -31.8558  -14.7343   20.3008 O   0  0  0  0  0  0
  -21.6624   -6.8835   21.4237 O   0  0  0  0  0  0
  -22.3477  -14.5490   20.6682 O   0  0  0  0  0  0
  -24.6263  -31.8589   23.1997 C   0  0  0  0  0  0
  -25.9129  -32.4764   23.8312 C   0  0  1  0  0  0
  -27.2154  -27.3000   20.1117 C   0  0  0  0  0  0
  -25.5956  -33.8565   24.2258 N   0  0  0  0  0  0
  -23.4183  -30.4817   21.5442 C   0  0  2  0  0  0
  -24.8611  -28.9313   20.1108 C   0  0  0  0  0  0
  -22.7461  -29.4627   22.4942 C   0  0  0  0  0  0
  -18.0277  -28.1361   22.8492 C   0  0  0  0  0  0
  -24.1485  -36.7282   23.2635 C   0  0  0  0  0  0
  -25.9585  -30.7812   21.3732 C   0  0  0  0  0  0
  -26.0289  -29.4052   20.7187 C   0  0  0  0  0  0
  -27.2057  -28.5985   20.7133 C   0  0  0  0  0  0
  -26.0200  -26.8790   19.4886 C   0  0  0  0  0  0
  -24.8591  -27.6741   19.4881 C   0  0  0  0  0  0
  -23.6301  -29.8127   20.1599 C   0  0  0  0  0  0
  -25.4108  -36.3079   24.0329 C   0  0  1  0  0  0
  -20.5875  -28.3689   23.1271 C   0  0  2  0  0  0
  -20.6793  -26.9413   22.5410 C   0  0  0  0  0  0
  -19.5776  -26.6371   21.5213 C   0  0  0  0  0  0
  -18.1942  -26.7903   22.1618 C   0  0  0  0  0  0
  -19.1529  -28.8833   23.2882 C   0  0  0  0  0  0
  -18.9459  -30.1429   23.8908 C   0  0  0  0  0  0
  -17.6467  -30.6582   24.0545 C   0  0  0  0  0  0
  -25.9050  -34.9452   23.5091 C   0  0  0  0  0  0
  -16.5354  -29.9084   23.6324 C   0  0  0  0  0  0
  -16.7265  -28.6482   23.0375 C   0  0  0  0  0  0
  -26.4488  -31.6581   25.0694 C   0  0  0  0  0  0
  -25.3712  -31.3781   26.1425 C   0  0  0  0  0  0
  -27.0328  -30.2999   24.6163 C   0  0  0  0  0  0
  -27.6037  -32.4309   25.7496 C   0  0  0  0  0  0
  -27.5567  -37.1811   24.8459 C   0  0  0  0  0  0
  -21.4176  -29.3061   22.3675 N   0  0  0  0  0  0
  -26.4281  -37.3781   23.9406 N   0  0  0  0  0  0
  -24.6862  -31.0588   22.0951 N   0  0  0  0  0  0
  -23.4181  -28.8158   23.3019 O   0  0  0  0  0  0
  -28.3526  -26.4756   20.1658 O   0  0  0  0  0  0
  -26.5612  -34.8916   22.4648 O   0  0  0  0  0  0
  -23.5442  -32.1400   23.7344 O   0  0  0  0  0  0
  -28.3101  -19.1294   20.7301 C   0  0  0  0  0  0
  -28.5473  -17.7267   20.5930 C   0  0  0  0  0  0
  -30.6485  -19.5373   20.3988 C   0  0  0  0  0  0
  -30.8963  -18.1357   20.2327 C   0  0  0  0  0  0
  -29.3549  -20.0873   20.6255 C   0  0  0  0  0  0
  -29.8321  -17.1746   20.3233 C   0  0  0  0  0  0
  -29.7930  -22.2741   21.7230 C   0  0  0  0  0  0
  -28.3090  -22.3770   20.1073 C   0  0  0  0  0  0
  -32.2827  -17.7677   19.8408 C   0  0  0  0  0  0
  -29.3947  -23.7539   21.6985 C   0  0  0  0  0  0
  -28.2294  -23.8438   20.6962 C   0  0  2  0  0  0
  -33.3759  -18.1087   20.8424 C   0  0  0  0  0  0
  -26.8713  -23.9776   21.4217 C   0  0  0  0  0  0
  -29.7643  -15.7552   18.3826 C   0  0  0  0  0  0
  -28.3791  -25.0686   19.6756 C   0  0  0  0  0  0
  -29.1477  -21.5440   20.7956 N   0  0  0  0  0  0
  -29.9081  -15.7791   19.8492 N   0  0  0  0  0  0
  -30.6249  -21.8443   22.5308 O   0  0  0  0  0  0
  -27.6453  -22.0379   19.1202 O   0  0  0  0  0  0
  -32.5829  -17.2365   18.7692 O   0  0  0  0  0  0
  -31.4647  -12.5065   19.1454 H   0  0  0  0  0  0
  -30.3655  -11.4376   19.9767 H   0  0  0  0  0  0
  -29.7445  -11.5412   17.5805 H   0  0  0  0  0  0
  -29.6685  -13.2572   17.5902 H   0  0  0  0  0  0
  -27.8170  -11.2668   18.8839 H   0  0  0  0  0  0
  -27.3768  -12.5334   17.7778 H   0  0  0  0  0  0
  -27.6006  -14.2348   19.4590 H   0  0  0  0  0  0
  -28.7096  -12.2086   21.4523 H   0  0  0  0  0  0
  -28.4518  -13.9193   21.7266 H   0  0  0  0  0  0
  -25.2712   -9.5672   22.4782 H   0  0  0  0  0  0
  -23.9958   -7.4611   22.7483 H   0  0  0  0  0  0
  -21.0795   -8.8748   19.8970 H   0  0  0  0  0  0
  -22.3632  -10.9656   19.6193 H   0  0  0  0  0  0
  -21.1991   -7.6116   23.9697 H   0  0  0  0  0  0
  -21.1506   -6.0515   25.9086 H   0  0  0  0  0  0
  -22.0584   -2.7570   23.2899 H   0  0  0  0  0  0
  -22.3962  -11.9930   22.4936 H   0  0  0  0  0  0
  -21.1010  -13.1305   22.2566 H   0  0  0  0  0  0
  -24.6354  -15.8370   20.4940 H   0  0  0  0  0  0
  -26.2464  -15.6216   20.0344 H   0  0  0  0  0  0
  -26.7189  -32.5406   23.1045 H   0  0  0  0  0  0
  -25.0176  -33.9698   25.0458 H   0  0  0  0  0  0
  -22.7119  -31.3020   21.4016 H   0  0  0  0  0  0
  -23.3754  -35.9609   23.3307 H   0  0  0  0  0  0
  -24.3580  -36.8888   22.2047 H   0  0  0  0  0  0
  -23.7232  -37.6487   23.6639 H   0  0  0  0  0  0
  -26.0852  -31.5395   20.6000 H   0  0  0  0  0  0
  -26.8422  -30.8323   21.9974 H   0  0  0  0  0  0
  -28.1020  -28.9554   21.2027 H   0  0  0  0  0  0
  -25.9306  -25.9193   19.0078 H   0  0  0  0  0  0
  -23.9616  -27.3018   19.0140 H   0  0  0  0  0  0
  -23.7455  -30.5854   19.3986 H   0  0  0  0  0  0
  -22.7492  -29.2391   19.8631 H   0  0  0  0  0  0
  -25.1293  -36.1925   25.0827 H   0  0  0  0  0  0
  -20.9966  -28.3275   24.1387 H   0  0  0  0  0  0
  -20.5699  -26.2306   23.3615 H   0  0  0  0  0  0
  -21.6665  -26.7458   22.1199 H   0  0  0  0  0  0
  -19.6957  -25.6282   21.1244 H   0  0  0  0  0  0
  -19.6714  -27.3173   20.6734 H   0  0  0  0  0  0
  -17.4220  -26.6629   21.4016 H   0  0  0  0  0  0
  -18.0351  -26.0031   22.8995 H   0  0  0  0  0  0
  -19.7937  -30.7224   24.2305 H   0  0  0  0  0  0
  -17.5032  -31.6269   24.5129 H   0  0  0  0  0  0
  -15.5360  -30.3002   23.7645 H   0  0  0  0  0  0
  -15.8651  -28.0793   22.7135 H   0  0  0  0  0  0
  -24.5871  -30.7129   25.7783 H   0  0  0  0  0  0
  -24.8915  -32.2982   26.4778 H   0  0  0  0  0  0
  -25.8019  -30.9020   27.0240 H   0  0  0  0  0  0
  -26.2921  -29.6770   24.1128 H   0  0  0  0  0  0
  -27.3959  -29.7226   25.4674 H   0  0  0  0  0  0
  -27.8804  -30.4278   23.9427 H   0  0  0  0  0  0
  -27.2629  -33.3596   26.2081 H   0  0  0  0  0  0
  -28.3868  -32.6887   25.0359 H   0  0  0  0  0  0
  -28.0668  -31.8425   26.5426 H   0  0  0  0  0  0
  -28.2598  -38.0096   24.7503 H   0  0  0  0  0  0
  -28.1053  -36.2632   24.6295 H   0  0  0  0  0  0
  -27.2285  -37.1468   25.8862 H   0  0  0  0  0  0
  -20.9353  -29.8810   21.6901 H   0  0  0  0  0  0
  -26.0161  -38.2852   24.1421 H   0  0  0  0  0  0
  -27.2965  -19.4631   20.9110 H   0  0  0  0  0  0
  -27.6948  -17.0645   20.6372 H   0  0  0  0  0  0
  -31.4790  -20.2229   20.3000 H   0  0  0  0  0  0
  -30.2535  -24.3403   21.3727 H   0  0  0  0  0  0
  -29.1149  -24.0921   22.6960 H   0  0  0  0  0  0
  -32.9492  -18.3069   21.8254 H   0  0  0  0  0  0
  -33.9246  -18.9897   20.5137 H   0  0  0  0  0  0
  -34.0739  -17.2761   20.9352 H   0  0  0  0  0  0
  -26.6984  -23.1538   22.1163 H   0  0  0  0  0  0
  -26.0436  -23.9870   20.7112 H   0  0  0  0  0  0
  -26.8179  -24.9063   21.9905 H   0  0  0  0  0  0
  -29.7560  -16.7564   17.9501 H   0  0  0  0  0  0
  -28.8312  -15.2893   18.0770 H   0  0  0  0  0  0
  -30.5941  -15.2395   17.8938 H   0  0  0  0  0  0
  -27.7071  -24.9237   18.8337 H   0  0  0  0  0  0
  -29.3572  -24.9599   19.2094 H   0  0  0  0  0  0
  1 25  1  0  0  0
  1 30  2  0  0  0
  1 87  1  0  0  0
  2  3  1  0  0  0
  2 25  1  0  0  0
  2 91  1  0  0  0
  2 92  1  0  0  0
  3  4  1  0  0  0
  3 93  1  0  0  0
  3 94  1  0  0  0
  4  5  1  0  0  0
  4 95  1  0  0  0
  4 96  1  0  0  0
  5  6  1  0  0  0
  5 26  1  0  0  0
  5 97  1  0  0  0
  6 25  1  0  0  0
  6 98  1  0  0  0
  6 99  1  0  0  0
  7  8  2  0  0  0
  7 26  1  0  0  0
  7 29  1  0  0  0
  8  9  1  0  0  0
  8 22  1  0  0  0
  9 10  1  0  0  0
  9 27  2  0  0  0
 10 11  2  0  0  0
 10 15  1  0  0  0
 11 12  1  0  0  0
 11100  1  0  0  0
 12 13  2  0  0  0
 12101  1  0  0  0
 13 14  1  0  0  0
 13 31  1  0  0  0
 14 15  2  0  0  0
 14102  1  0  0  0
 15103  1  0  0  0
 16 17  2  0  0  0
 16 21  1  0  0  0
 16 31  1  0  0  0
 17 18  1  0  0  0
 17104  1  0  0  0
 18 19  2  0  0  0
 18105  1  0  0  0
 19 20  1  0  0  0
 19 24  1  0  0  0
 20 21  2  0  0  0
 20106  1  0  0  0
 21 23  1  0  0  0
 22 28  1  0  0  0
 22 32  2  0  0  0
 26 27  1  0  0  0
 28107  1  0  0  0
 28108  1  0  0  0
 29109  1  0  0  0
 29110  1  0  0  0
 33 34  1  0  0  0
 33 66  1  0  0  0
 33 70  2  0  0  0
 34 36  1  0  0  0
 34 59  1  0  0  0
 34111  1  0  0  0
 35 44  2  0  0  0
 35 45  1  0  0  0
 35 68  1  0  0  0
 36 56  1  0  0  0
 36112  1  0  0  0
 37 39  1  0  0  0
 37 47  1  0  0  0
 37 66  1  0  0  0
 37113  1  0  0  0
 38 43  2  0  0  0
 38 46  1  0  0  0
 38 47  1  0  0  0
 39 64  1  0  0  0
 39 67  2  0  0  0
 40 52  1  0  0  0
 40 53  2  0  0  0
 40 58  1  0  0  0
 41114  1  0  0  0
 41115  1  0  0  0
 41116  1  0  0  0
 41 48  1  0  0  0
 42 43  1  0  0  0
 42 66  1  0  0  0
 42117  1  0  0  0
 42118  1  0  0  0
 43 44  1  0  0  0
 44119  1  0  0  0
 45 46  2  0  0  0
 45120  1  0  0  0
 46121  1  0  0  0
 47122  1  0  0  0
 47123  1  0  0  0
 48 56  1  0  0  0
 48 65  1  0  0  0
 48124  1  0  0  0
 49 50  1  0  0  0
 49 53  1  0  0  0
 49 64  1  0  0  0
 49125  1  0  0  0
 50 51  1  0  0  0
 50126  1  0  0  0
 50127  1  0  0  0
 51 52  1  0  0  0
 51128  1  0  0  0
 51129  1  0  0  0
 52130  1  0  0  0
 52131  1  0  0  0
 53 54  1  0  0  0
 54 55  2  0  0  0
 54132  1  0  0  0
 55 57  1  0  0  0
 55133  1  0  0  0
 56 69  2  0  0  0
 57 58  2  0  0  0
 57134  1  0  0  0
 58135  1  0  0  0
 59 60  1  0  0  0
 59 61  1  0  0  0
 59 62  1  0  0  0
 60136  1  0  0  0
 60137  1  0  0  0
 60138  1  0  0  0
 61139  1  0  0  0
 61140  1  0  0  0
 61141  1  0  0  0
 62142  1  0  0  0
 62143  1  0  0  0
 62144  1  0  0  0
 63 65  1  0  0  0
 63145  1  0  0  0
 63146  1  0  0  0
 63147  1  0  0  0
 64148  1  0  0  0
 65149  1  0  0  0
 68 85  1  0  0  0
 71 72  2  0  0  0
 71 75  1  0  0  0
 71150  1  0  0  0
 72 76  1  0  0  0
 72151  1  0  0  0
 73 74  1  0  0  0
 73 75  2  0  0  0
 73152  1  0  0  0
 74 76  2  0  0  0
 74 79  1  0  0  0
 75 86  1  0  0  0
 76 87  1  0  0  0
 77 80  1  0  0  0
 77 86  1  0  0  0
 77 88  2  0  0  0
 78 81  1  0  0  0
 78 86  1  0  0  0
 78 89  2  0  0  0
 79 82  1  0  0  0
 79 90  2  0  0  0
 80 81  1  0  0  0
 80153  1  0  0  0
 80154  1  0  0  0
 81 83  1  0  0  0
 81 85  1  0  0  0
 82155  1  0  0  0
 82156  1  0  0  0
 82157  1  0  0  0
 83158  1  0  0  0
 83159  1  0  0  0
 83160  1  0  0  0
 84 87  1  0  0  0
 84161  1  0  0  0
 84162  1  0  0  0
 84163  1  0  0  0
 85164  1  0  0  0
 85165  1  0  0  0
M  ISO  4   1 100  68 101  85 101  87 100
M  END
> <chiral flag>
0

> <version>
0

> <s_m_source_file>
/data/baiqing/PycharmProjects/Reinvent-master-3.2/result/LINK_invent/BTK/process_docking_weight1_custom_product_contain_oxygen_bond_distance_aromatic_linkinvent_7_9_3/rearranged_h_0076.sdf

> <i_m_source_file_index>
43

> <r_mmod_Potential_Energy-OPLS-2005>
430.714416503906

> <r_mmod_Stretch_Energy-OPLS-2005>
94.9093551635742

> <r_mmod_Bend_Energy-OPLS-2005>
194.242538452148

> <r_mmod_Torsional_Energy-OPLS-2005>
432.019378662109

> <r_mmod_Improper_Torsional_Energy-OPLS-2005>
26.3528747558594

> <r_mmod_Van_der_Waal_Energy-OPLS-2005>
134.881149291992

> <r_mmod_Electrostatic_Energy-OPLS-2005>
-300.528564453125

> <r_mmod_Solvation_Energy-OPLS-2005>
-228.910720825195

> <b_mmod_Minimization_Converged-OPLS-2005>
0

> <r_mmod_RMS_Derivative-OPLS-2005>
2.31522703170776

$$$$
43
                    3D
 Structure written by MMmdl.
160168  0  0  1  0            999 V2000
  -30.6191  -14.9058   20.4294 C   0  0  0  0  0  0
  -30.4246  -12.5769   19.4622 C   0  0  0  0  0  0
  -29.5000  -12.5095   18.2306 C   0  0  0  0  0  0
  -28.0404  -12.2883   18.6686 C   0  0  0  0  0  0
  -27.6183  -13.2282   19.8274 C   0  0  2  0  0  0
  -28.6750  -13.3049   20.9489 C   0  0  0  0  0  0
  -25.2467  -13.8138   20.5747 C   0  0  0  0  0  0
  -24.1764  -13.0400   20.9267 C   0  0  0  0  0  0
  -24.6360  -11.6881   20.8792 C   0  0  0  0  0  0
  -23.9043  -10.4268   21.0432 C   0  0  0  0  0  0
  -24.3605   -9.4185   21.9202 C   0  0  0  0  0  0
  -23.6283   -8.2220   22.0757 C   0  0  0  0  0  0
  -22.4265   -8.0269   21.3545 C   0  0  0  0  0  0
  -21.9901   -9.0240   20.4648 C   0  0  0  0  0  0
  -22.7222  -10.2118   20.3070 C   0  0  0  0  0  0
  -21.6845   -6.0730   22.5278 C   0  0  0  0  0  0
  -21.4007   -6.5635   23.8210 C   0  0  0  0  0  0
  -21.3653   -5.6790   24.9173 C   0  0  0  0  0  0
  -21.6043   -4.3053   24.7225 C   0  0  0  0  0  0
  -21.8818   -3.8146   23.4344 C   0  0  0  0  0  0
  -21.9189   -4.6960   22.3400 C   0  0  0  0  0  0
  -22.7794  -13.5206   21.1894 C   0  0  0  0  0  0
  -22.1662   -4.2147   21.0975 F   0  0  0  0  0  0
  -21.5630   -3.4537   25.7738 F   0  0  0  0  0  0
  -29.9371  -13.6981   20.3108 N   0  0  0  0  0  0
  -26.2850  -12.9322   20.3279 N   0  0  0  0  0  0
  -25.9286  -11.6479   20.5794 N   0  0  0  0  0  0
  -22.0424  -12.8208   22.0438 N   0  0  0  0  0  0
  -25.4189  -15.1850   20.4127 N   0  0  0  0  0  0
  -31.8419  -14.8622   20.2657 O   0  0  0  0  0  0
  -21.6629   -6.8869   21.4240 O   0  0  0  0  0  0
  -22.3505  -14.5511   20.6719 O   0  0  0  0  0  0
  -24.6407  -31.8466   23.1910 C   0  0  0  0  0  0
  -25.9199  -32.4703   23.8280 C   0  0  1  0  0  0
  -27.2127  -27.1694   20.1394 C   0  0  0  0  0  0
  -25.5963  -33.8505   24.2206 N   0  0  0  0  0  0
  -23.4413  -30.4694   21.5354 C   0  0  2  0  0  0
  -24.8879  -28.9023   20.1074 C   0  0  0  0  0  0
  -22.7552  -29.4569   22.4860 C   0  0  0  0  0  0
  -18.0308  -28.1400   22.8476 C   0  0  0  0  0  0
  -24.1491  -36.7259   23.2641 C   0  0  0  0  0  0
  -25.9949  -30.7318   21.3831 C   0  0  0  0  0  0
  -26.0650  -29.3463   20.7235 C   0  0  0  0  0  0
  -27.2290  -28.4954   20.7234 C   0  0  0  0  0  0
  -26.0099  -26.8196   19.4860 C   0  0  0  0  0  0
  -24.8715  -27.6515   19.4739 C   0  0  0  0  0  0
  -23.6643  -29.8021   20.1526 C   0  0  0  0  0  0
  -25.4119  -36.3032   24.0318 C   0  0  1  0  0  0
  -20.5919  -28.3724   23.1237 C   0  0  2  0  0  0
  -20.6791  -26.9432   22.5400 C   0  0  0  0  0  0
  -19.5762  -26.6389   21.5209 C   0  0  0  0  0  0
  -18.1947  -26.7940   22.1624 C   0  0  0  0  0  0
  -19.1563  -28.8880   23.2851 C   0  0  0  0  0  0
  -18.9480  -30.1474   23.8877 C   0  0  0  0  0  0
  -17.6476  -30.6592   24.0561 C   0  0  0  0  0  0
  -25.9067  -34.9408   23.5065 C   0  0  0  0  0  0
  -16.5367  -29.9087   23.6337 C   0  0  0  0  0  0
  -16.7293  -28.6505   23.0352 C   0  0  0  0  0  0
  -26.4533  -31.6555   25.0707 C   0  0  0  0  0  0
  -25.3739  -31.3733   26.1417 C   0  0  0  0  0  0
  -27.0385  -30.2953   24.6261 C   0  0  0  0  0  0
  -27.6061  -32.4323   25.7496 C   0  0  0  0  0  0
  -27.5574  -37.1784   24.8465 C   0  0  0  0  0  0
  -21.4247  -29.3053   22.3611 N   0  0  0  0  0  0
  -26.4282  -37.3746   23.9410 N   0  0  0  0  0  0
  -24.7120  -31.0363   22.0921 N   0  0  0  0  0  0
  -23.4212  -28.8116   23.2996 O   0  0  0  0  0  0
  -28.2726  -26.2039   20.2094 O   0  0  0  0  0  0
  -26.5643  -34.8906   22.4637 O   0  0  0  0  0  0
  -23.5538  -32.1324   23.7163 O   0  0  0  0  0  0
  -29.5869  -19.4375   20.4268 C   0  0  0  0  0  0
  -29.1635  -16.7942   19.6259 C   0  0  0  0  0  0
  -28.6265  -21.8323   20.1538 C   0  0  0  0  0  0
  -30.4844  -17.1863   21.5445 C   0  0  0  0  0  0
  -30.7861  -18.6613   21.0388 C   0  0  1  0  0  0
  -28.6633  -18.3594   19.6841 C   0  0  0  0  0  0
  -31.9863  -18.6836   20.0757 C   0  0  0  0  0  0
  -28.5192  -18.8250   18.2083 C   0  0  0  0  0  0
  -27.2660  -18.3396   20.3388 C   0  0  0  0  0  0
  -27.9921  -24.6898   20.0412 C   0  0  0  0  0  0
  -29.0252  -23.4195   20.3752 C   0  0  0  0  0  0
  -29.5661  -20.7884   20.5660 N   0  0  0  0  0  0
  -29.9997  -16.1892   20.5460 N   0  0  0  0  0  0
  -28.7564  -16.1376   18.6623 O   0  0  0  0  0  0
  -27.5262  -21.6146   19.6512 O   0  0  0  0  0  0
  -30.1152  -23.6381   19.6383 F   0  0  0  0  0  0
  -29.3752  -23.5492   21.6551 F   0  0  0  0  0  0
  -31.4568  -12.7178   19.1375 H   0  0  0  0  0  0
  -30.4125  -11.6361   20.0151 H   0  0  0  0  0  0
  -29.8163  -11.7103   17.5584 H   0  0  0  0  0  0
  -29.5770  -13.4381   17.6620 H   0  0  0  0  0  0
  -27.9495  -11.2497   18.9888 H   0  0  0  0  0  0
  -27.3666  -12.4072   17.8192 H   0  0  0  0  0  0
  -27.5477  -14.2097   19.3746 H   0  0  0  0  0  0
  -28.7747  -12.3502   21.4676 H   0  0  0  0  0  0
  -28.3837  -14.0429   21.6986 H   0  0  0  0  0  0
  -25.2744   -9.5666   22.4785 H   0  0  0  0  0  0
  -23.9989   -7.4608   22.7472 H   0  0  0  0  0  0
  -21.0831   -8.8760   19.8953 H   0  0  0  0  0  0
  -22.3680  -10.9667   19.6190 H   0  0  0  0  0  0
  -21.2004   -7.6145   23.9710 H   0  0  0  0  0  0
  -21.1472   -6.0523   25.9074 H   0  0  0  0  0  0
  -22.0605   -2.7611   23.2841 H   0  0  0  0  0  0
  -22.4029  -11.9865   22.4828 H   0  0  0  0  0  0
  -21.1044  -13.1244   22.2638 H   0  0  0  0  0  0
  -24.6489  -15.8381   20.5069 H   0  0  0  0  0  0
  -26.2540  -15.6014   20.0240 H   0  0  0  0  0  0
  -26.7263  -32.5321   23.1006 H   0  0  0  0  0  0
  -25.0113  -33.9618   25.0357 H   0  0  0  0  0  0
  -22.7425  -31.2952   21.3851 H   0  0  0  0  0  0
  -23.3753  -35.9589   23.3285 H   0  0  0  0  0  0
  -24.3585  -36.8909   22.2060 H   0  0  0  0  0  0
  -23.7244  -37.6452   23.6683 H   0  0  0  0  0  0
  -26.1478  -31.4891   20.6130 H   0  0  0  0  0  0
  -26.8662  -30.7792   22.0246 H   0  0  0  0  0  0
  -28.1260  -28.8302   21.2254 H   0  0  0  0  0  0
  -25.9131  -25.8653   18.9918 H   0  0  0  0  0  0
  -23.9733  -27.3083   18.9790 H   0  0  0  0  0  0
  -23.7992  -30.5779   19.3978 H   0  0  0  0  0  0
  -22.7784  -29.2444   19.8430 H   0  0  0  0  0  0
  -25.1306  -36.1855   25.0810 H   0  0  0  0  0  0
  -21.0018  -28.3313   24.1354 H   0  0  0  0  0  0
  -20.5686  -26.2340   23.3618 H   0  0  0  0  0  0
  -21.6656  -26.7440   22.1198 H   0  0  0  0  0  0
  -19.6921  -25.6293   21.1256 H   0  0  0  0  0  0
  -19.6699  -27.3184   20.6725 H   0  0  0  0  0  0
  -17.4216  -26.6688   21.4027 H   0  0  0  0  0  0
  -18.0348  -26.0088   22.9029 H   0  0  0  0  0  0
  -19.7955  -30.7299   24.2236 H   0  0  0  0  0  0
  -17.5029  -31.6272   24.5170 H   0  0  0  0  0  0
  -15.5365  -30.2979   23.7668 H   0  0  0  0  0  0
  -15.8698  -28.0818   22.7071 H   0  0  0  0  0  0
  -24.5919  -30.7073   25.7748 H   0  0  0  0  0  0
  -24.8930  -32.2911   26.4804 H   0  0  0  0  0  0
  -25.8050  -30.8937   27.0215 H   0  0  0  0  0  0
  -26.2983  -29.6686   24.1275 H   0  0  0  0  0  0
  -27.4012  -29.7240   25.4817 H   0  0  0  0  0  0
  -27.8892  -30.4187   23.9557 H   0  0  0  0  0  0
  -27.2643  -33.3641   26.2013 H   0  0  0  0  0  0
  -28.3905  -32.6854   25.0351 H   0  0  0  0  0  0
  -28.0690  -31.8491   26.5469 H   0  0  0  0  0  0
  -28.2572  -38.0097   24.7515 H   0  0  0  0  0  0
  -28.1090  -36.2625   24.6281 H   0  0  0  0  0  0
  -27.2301  -37.1426   25.8871 H   0  0  0  0  0  0
  -20.9449  -29.8774   21.6803 H   0  0  0  0  0  0
  -26.0148  -38.2813   24.1415 H   0  0  0  0  0  0
  -29.7357  -17.2372   22.3374 H   0  0  0  0  0  0
  -31.3790  -16.8026   22.0388 H   0  0  0  0  0  0
  -31.0903  -19.2220   21.9244 H   0  0  0  0  0  0
  -31.7747  -18.1569   19.1445 H   0  0  0  0  0  0
  -32.8597  -18.2136   20.5289 H   0  0  0  0  0  0
  -32.2670  -19.7060   19.8185 H   0  0  0  0  0  0
  -29.4839  -18.8104   17.6995 H   0  0  0  0  0  0
  -28.1272  -19.8321   18.1107 H   0  0  0  0  0  0
  -27.8399  -18.1920   17.6360 H   0  0  0  0  0  0
  -27.3104  -17.9524   21.3576 H   0  0  0  0  0  0
  -26.5766  -17.7082   19.7780 H   0  0  0  0  0  0
  -26.8126  -19.3269   20.3911 H   0  0  0  0  0  0
  -27.0853  -24.4862   20.6120 H   0  0  0  0  0  0
  -27.7050  -24.5577   18.9981 H   0  0  0  0  0  0
  1 25  1  0  0  0
  1 30  2  0  0  0
  1 83  1  0  0  0
  2  3  1  0  0  0
  2 25  1  0  0  0
  2 88  1  0  0  0
  2 89  1  0  0  0
  3  4  1  0  0  0
  3 90  1  0  0  0
  3 91  1  0  0  0
  4  5  1  0  0  0
  4 92  1  0  0  0
  4 93  1  0  0  0
  5  6  1  0  0  0
  5 26  1  0  0  0
  5 94  1  0  0  0
  6 25  1  0  0  0
  6 95  1  0  0  0
  6 96  1  0  0  0
  7  8  2  0  0  0
  7 26  1  0  0  0
  7 29  1  0  0  0
  8  9  1  0  0  0
  8 22  1  0  0  0
  9 10  1  0  0  0
  9 27  2  0  0  0
 10 11  2  0  0  0
 10 15  1  0  0  0
 11 12  1  0  0  0
 11 97  1  0  0  0
 12 13  2  0  0  0
 12 98  1  0  0  0
 13 14  1  0  0  0
 13 31  1  0  0  0
 14 15  2  0  0  0
 14 99  1  0  0  0
 15100  1  0  0  0
 16 17  2  0  0  0
 16 21  1  0  0  0
 16 31  1  0  0  0
 17 18  1  0  0  0
 17101  1  0  0  0
 18 19  2  0  0  0
 18102  1  0  0  0
 19 20  1  0  0  0
 19 24  1  0  0  0
 20 21  2  0  0  0
 20103  1  0  0  0
 21 23  1  0  0  0
 22 28  1  0  0  0
 22 32  2  0  0  0
 26 27  1  0  0  0
 28104  1  0  0  0
 28105  1  0  0  0
 29106  1  0  0  0
 29107  1  0  0  0
 33 34  1  0  0  0
 33 66  1  0  0  0
 33 70  2  0  0  0
 34 36  1  0  0  0
 34 59  1  0  0  0
 34108  1  0  0  0
 35 44  2  0  0  0
 35 45  1  0  0  0
 35 68  1  0  0  0
 36 56  1  0  0  0
 36109  1  0  0  0
 37 39  1  0  0  0
 37 47  1  0  0  0
 37 66  1  0  0  0
 37110  1  0  0  0
 38 43  2  0  0  0
 38 46  1  0  0  0
 38 47  1  0  0  0
 39 64  1  0  0  0
 39 67  2  0  0  0
 40 52  1  0  0  0
 40 53  2  0  0  0
 40 58  1  0  0  0
 41111  1  0  0  0
 41112  1  0  0  0
 41113  1  0  0  0
 41 48  1  0  0  0
 42 43  1  0  0  0
 42 66  1  0  0  0
 42114  1  0  0  0
 42115  1  0  0  0
 43 44  1  0  0  0
 44116  1  0  0  0
 45 46  2  0  0  0
 45117  1  0  0  0
 46118  1  0  0  0
 47119  1  0  0  0
 47120  1  0  0  0
 48 56  1  0  0  0
 48 65  1  0  0  0
 48121  1  0  0  0
 49 50  1  0  0  0
 49 53  1  0  0  0
 49 64  1  0  0  0
 49122  1  0  0  0
 50 51  1  0  0  0
 50123  1  0  0  0
 50124  1  0  0  0
 51 52  1  0  0  0
 51125  1  0  0  0
 51126  1  0  0  0
 52127  1  0  0  0
 52128  1  0  0  0
 53 54  1  0  0  0
 54 55  2  0  0  0
 54129  1  0  0  0
 55 57  1  0  0  0
 55130  1  0  0  0
 56 69  2  0  0  0
 57 58  2  0  0  0
 57131  1  0  0  0
 58132  1  0  0  0
 59 60  1  0  0  0
 59 61  1  0  0  0
 59 62  1  0  0  0
 60133  1  0  0  0
 60134  1  0  0  0
 60135  1  0  0  0
 61136  1  0  0  0
 61137  1  0  0  0
 61138  1  0  0  0
 62139  1  0  0  0
 62140  1  0  0  0
 62141  1  0  0  0
 63 65  1  0  0  0
 63142  1  0  0  0
 63143  1  0  0  0
 63144  1  0  0  0
 64145  1  0  0  0
 65146  1  0  0  0
 68 80  1  0  0  0
 71 75  1  0  0  0
 71 76  1  0  0  0
 71 82  2  0  0  0
 72 76  1  0  0  0
 72 83  1  0  0  0
 72 84  2  0  0  0
 73 81  1  0  0  0
 73 82  1  0  0  0
 73 85  2  0  0  0
 74 75  1  0  0  0
 74 83  1  0  0  0
 74147  1  0  0  0
 74148  1  0  0  0
 75 77  1  0  0  0
 75149  1  0  0  0
 76 78  1  0  0  0
 76 79  1  0  0  0
 77150  1  0  0  0
 77151  1  0  0  0
 77152  1  0  0  0
 78153  1  0  0  0
 78154  1  0  0  0
 78155  1  0  0  0
 79156  1  0  0  0
 79157  1  0  0  0
 79158  1  0  0  0
 80 81  1  0  0  0
 80159  1  0  0  0
 80160  1  0  0  0
 81 86  1  0  0  0
 81 87  1  0  0  0
M  ISO  4   1 100  68 101  80 101  83 100
M  END
> <chiral flag>
0

> <version>
0

> <s_m_source_file>
/data/baiqing/PycharmProjects/Reinvent-master-3.2/result/LINK_invent/BTK/process_docking_weight1_custom_product_contain_oxygen_bond_distance_aromatic_linkinvent_7_9_3/rearranged_h_0076.sdf

> <i_m_source_file_index>
44

> <r_mmod_Potential_Energy-OPLS-2005>
624.313842773438

> <r_mmod_Stretch_Energy-OPLS-2005>
225.154373168945

> <r_mmod_Bend_Energy-OPLS-2005>
296.633819580078

> <r_mmod_Torsional_Energy-OPLS-2005>
295.783020019531

> <r_mmod_Improper_Torsional_Energy-OPLS-2005>
4.68483781814575

> <r_mmod_Van_der_Waal_Energy-OPLS-2005>
131.498992919922

> <r_mmod_Electrostatic_Energy-OPLS-2005>
-320.32958984375

> <r_mmod_Solvation_Energy-OPLS-2005>
-179.719696044922

> <b_mmod_Minimization_Converged-OPLS-2005>
0

> <r_mmod_RMS_Derivative-OPLS-2005>
1.02996063232422

$$$$
44
                    3D
 Structure written by MMmdl.
158166  0  0  1  0            999 V2000
  -30.5886  -14.6422   20.5314 C   0  0  0  0  0  0
  -30.4454  -12.4021   19.4430 C   0  0  0  0  0  0
  -29.5083  -12.5220   18.2197 C   0  0  0  0  0  0
  -28.0264  -12.3639   18.6247 C   0  0  0  0  0  0
  -27.6529  -13.2129   19.8676 C   0  0  2  0  0  0
  -28.6959  -13.0312   20.9922 C   0  0  0  0  0  0
  -25.2561  -13.8155   20.5719 C   0  0  0  0  0  0
  -24.1822  -13.0426   20.9199 C   0  0  0  0  0  0
  -24.6382  -11.6900   20.8728 C   0  0  0  0  0  0
  -23.9042  -10.4283   21.0391 C   0  0  0  0  0  0
  -24.3583   -9.4208   21.9171 C   0  0  0  0  0  0
  -23.6273   -8.2237   22.0746 C   0  0  0  0  0  0
  -22.4251   -8.0267   21.3540 C   0  0  0  0  0  0
  -21.9883   -9.0238   20.4643 C   0  0  0  0  0  0
  -22.7208  -10.2125   20.3048 C   0  0  0  0  0  0
  -21.6858   -6.0724   22.5281 C   0  0  0  0  0  0
  -21.4010   -6.5622   23.8215 C   0  0  0  0  0  0
  -21.3660   -5.6775   24.9176 C   0  0  0  0  0  0
  -21.6056   -4.3044   24.7219 C   0  0  0  0  0  0
  -21.8817   -3.8131   23.4341 C   0  0  0  0  0  0
  -21.9197   -4.6952   22.3401 C   0  0  0  0  0  0
  -22.7849  -13.5237   21.1854 C   0  0  0  0  0  0
  -22.1671   -4.2143   21.0983 F   0  0  0  0  0  0
  -21.5622   -3.4533   25.7731 F   0  0  0  0  0  0
  -30.0122  -13.3999   20.4410 N   0  0  0  0  0  0
  -26.2972  -12.9332   20.3317 N   0  0  0  0  0  0
  -25.9297  -11.6490   20.5698 N   0  0  0  0  0  0
  -22.0467  -12.8238   22.0395 N   0  0  0  0  0  0
  -25.4265  -15.1877   20.4152 N   0  0  0  0  0  0
  -31.7307  -14.8567   20.1079 O   0  0  0  0  0  0
  -21.6634   -6.8855   21.4240 O   0  0  0  0  0  0
  -22.3554  -14.5555   20.6690 O   0  0  0  0  0  0
  -24.6273  -31.8612   23.2022 C   0  0  0  0  0  0
  -25.9113  -32.4790   23.8366 C   0  0  1  0  0  0
  -27.2185  -27.3144   20.1286 C   0  0  0  0  0  0
  -25.5935  -33.8579   24.2303 N   0  0  0  0  0  0
  -23.4195  -30.4871   21.5483 C   0  0  2  0  0  0
  -24.8651  -28.9413   20.1108 C   0  0  0  0  0  0
  -22.7478  -29.4641   22.4963 C   0  0  0  0  0  0
  -18.0302  -28.1391   22.8529 C   0  0  0  0  0  0
  -24.1472  -36.7269   23.2632 C   0  0  0  0  0  0
  -25.9596  -30.7959   21.3680 C   0  0  0  0  0  0
  -26.0332  -29.4204   20.7149 C   0  0  0  0  0  0
  -27.2134  -28.6193   20.7122 C   0  0  0  0  0  0
  -26.0323  -26.8913   19.4893 C   0  0  0  0  0  0
  -24.8678  -27.6842   19.4851 C   0  0  0  0  0  0
  -23.6309  -29.8223   20.1619 C   0  0  0  0  0  0
  -25.4088  -36.3088   24.0348 C   0  0  1  0  0  0
  -20.5913  -28.3686   23.1318 C   0  0  2  0  0  0
  -20.6778  -26.9407   22.5438 C   0  0  0  0  0  0
  -19.5733  -26.6415   21.5242 C   0  0  0  0  0  0
  -18.1921  -26.7952   22.1648 C   0  0  0  0  0  0
  -19.1558  -28.8859   23.2925 C   0  0  0  0  0  0
  -18.9456  -30.1473   23.8923 C   0  0  0  0  0  0
  -17.6443  -30.6586   24.0591 C   0  0  0  0  0  0
  -25.9048  -34.9456   23.5126 C   0  0  0  0  0  0
  -16.5341  -29.9078   23.6347 C   0  0  0  0  0  0
  -16.7288  -28.6502   23.0370 C   0  0  0  0  0  0
  -26.4489  -31.6583   25.0722 C   0  0  0  0  0  0
  -25.3727  -31.3688   26.1458 C   0  0  0  0  0  0
  -27.0312  -30.3034   24.6098 C   0  0  0  0  0  0
  -27.6087  -32.4284   25.7461 C   0  0  0  0  0  0
  -27.5587  -37.1761   24.8442 C   0  0  0  0  0  0
  -21.4201  -29.3026   22.3693 N   0  0  0  0  0  0
  -26.4257  -37.3804   23.9461 N   0  0  0  0  0  0
  -24.6882  -31.0639   22.0973 N   0  0  0  0  0  0
  -23.4204  -28.8169   23.3043 O   0  0  0  0  0  0
  -28.3329  -26.4643   20.2086 O   0  0  0  0  0  0
  -26.5629  -34.8915   22.4698 O   0  0  0  0  0  0
  -23.5437  -32.1394   23.7369 O   0  0  0  0  0  0
  -28.5751  -19.1142   21.8711 C   0  0  0  0  0  0
  -30.3906  -19.3917   20.3185 C   0  0  0  0  0  0
  -28.7258  -17.7020   21.7945 C   0  0  0  0  0  0
  -30.5552  -17.9632   20.2565 C   0  0  0  0  0  0
  -29.3982  -20.0073   21.1405 C   0  0  0  0  0  0
  -29.7245  -17.0793   21.0039 C   0  0  0  0  0  0
  -29.2878  -21.4994   21.4055 C   0  0  0  0  0  0
  -30.6442  -24.4129   20.2484 C   0  0  0  0  0  0
  -31.2274  -25.7288   20.7427 C   0  0  0  0  0  0
  -28.1540  -24.9949   20.0598 C   0  0  0  0  0  0
  -29.2340  -24.0234   20.7251 C   0  0  1  0  0  0
  -29.3870  -21.8619   22.6861 N   0  0  0  0  0  0
  -29.7562  -15.6149   21.0123 N   0  0  0  0  0  0
  -29.0773  -22.5136   20.5041 N   0  3  0  0  0  0
  -31.3133  -23.7022   19.4931 O   0  0  0  0  0  0
  -31.4820  -12.5509   19.1351 H   0  0  0  0  0  0
  -30.3962  -11.3984   19.8654 H   0  0  0  0  0  0
  -29.7709  -11.7782   17.4652 H   0  0  0  0  0  0
  -29.6544  -13.4942   17.7446 H   0  0  0  0  0  0
  -27.8407  -11.3087   18.8295 H   0  0  0  0  0  0
  -27.3819  -12.6293   17.7857 H   0  0  0  0  0  0
  -27.6802  -14.2539   19.5467 H   0  0  0  0  0  0
  -28.7064  -11.9948   21.3354 H   0  0  0  0  0  0
  -28.4282  -13.6230   21.8681 H   0  0  0  0  0  0
  -25.2715   -9.5720   22.4757 H   0  0  0  0  0  0
  -24.0004   -7.4638   22.7466 H   0  0  0  0  0  0
  -21.0816   -8.8738   19.8953 H   0  0  0  0  0  0
  -22.3636  -10.9645   19.6160 H   0  0  0  0  0  0
  -21.2002   -7.6128   23.9705 H   0  0  0  0  0  0
  -21.1487   -6.0508   25.9078 H   0  0  0  0  0  0
  -22.0598   -2.7597   23.2842 H   0  0  0  0  0  0
  -22.4043  -11.9868   22.4767 H   0  0  0  0  0  0
  -21.1089  -13.1282   22.2593 H   0  0  0  0  0  0
  -24.6495  -15.8316   20.5086 H   0  0  0  0  0  0
  -26.2560  -15.6218   20.0309 H   0  0  0  0  0  0
  -26.7179  -32.5468   23.1106 H   0  0  0  0  0  0
  -25.0096  -33.9731   25.0465 H   0  0  0  0  0  0
  -22.7116  -31.3083   21.4125 H   0  0  0  0  0  0
  -23.3778  -35.9553   23.3220 H   0  0  0  0  0  0
  -24.3602  -36.8956   22.2067 H   0  0  0  0  0  0
  -23.7135  -37.6412   23.6687 H   0  0  0  0  0  0
  -26.0853  -31.5521   20.5919 H   0  0  0  0  0  0
  -26.8430  -30.8548   21.9917 H   0  0  0  0  0  0
  -28.1088  -28.9820   21.1965 H   0  0  0  0  0  0
  -25.9792  -25.9299   18.9995 H   0  0  0  0  0  0
  -23.9739  -27.3165   19.0012 H   0  0  0  0  0  0
  -23.7437  -30.5989   19.4039 H   0  0  0  0  0  0
  -22.7477  -29.2517   19.8689 H   0  0  0  0  0  0
  -25.1241  -36.1946   25.0838 H   0  0  0  0  0  0
  -21.0051  -28.3243   24.1419 H   0  0  0  0  0  0
  -20.5738  -26.2254   23.3613 H   0  0  0  0  0  0
  -21.6641  -26.7457   22.1199 H   0  0  0  0  0  0
  -19.6869  -25.6342   21.1233 H   0  0  0  0  0  0
  -19.6661  -27.3254   20.6793 H   0  0  0  0  0  0
  -17.4213  -26.6795   21.4014 H   0  0  0  0  0  0
  -18.0245  -26.0067   22.9007 H   0  0  0  0  0  0
  -19.7914  -30.7339   24.2263 H   0  0  0  0  0  0
  -17.4974  -31.6270   24.5187 H   0  0  0  0  0  0
  -15.5334  -30.2972   23.7657 H   0  0  0  0  0  0
  -15.8697  -28.0828   22.7054 H   0  0  0  0  0  0
  -24.5934  -30.7002   25.7775 H   0  0  0  0  0  0
  -24.8871  -32.2832   26.4882 H   0  0  0  0  0  0
  -25.8085  -30.8878   27.0231 H   0  0  0  0  0  0
  -26.2852  -29.6799   24.1165 H   0  0  0  0  0  0
  -27.4103  -29.7269   25.4542 H   0  0  0  0  0  0
  -27.8676  -30.4356   23.9230 H   0  0  0  0  0  0
  -27.2781  -33.3618   26.2015 H   0  0  0  0  0  0
  -28.3894  -32.6785   25.0269 H   0  0  0  0  0  0
  -28.0750  -31.8414   26.5377 H   0  0  0  0  0  0
  -28.2525  -38.0148   24.7695 H   0  0  0  0  0  0
  -28.1183  -36.2712   24.6013 H   0  0  0  0  0  0
  -27.2375  -37.1100   25.8856 H   0  0  0  0  0  0
  -20.9352  -29.8707   21.6884 H   0  0  0  0  0  0
  -26.0130  -38.2861   24.1572 H   0  0  0  0  0  0
  -27.8169  -19.5135   22.5320 H   0  0  0  0  0  0
  -31.0774  -20.0186   19.7662 H   0  0  0  0  0  0
  -28.0529  -17.0909   22.3808 H   0  0  0  0  0  0
  -31.3352  -17.5568   19.6267 H   0  0  0  0  0  0
  -30.6211  -26.1499   21.5453 H   0  0  0  0  0  0
  -31.2627  -26.4472   19.9235 H   0  0  0  0  0  0
  -32.2392  -25.5719   21.1147 H   0  0  0  0  0  0
  -27.1990  -24.7273   20.5152 H   0  0  0  0  0  0
  -28.0589  -24.7579   19.0000 H   0  0  0  0  0  0
  -29.1811  -24.2111   21.7971 H   0  0  0  0  0  0
  -29.5417  -21.1506   23.3842 H   0  0  0  0  0  0
  -29.2620  -22.8119   22.9864 H   0  0  0  0  0  0
  -28.9204  -15.2029   21.3935 H   0  0  0  0  0  0
  -29.0498  -22.2117   19.5387 H   0  0  0  0  0  0
  1 25  1  0  0  0
  1 30  2  0  0  0
  1 83  1  0  0  0
  2  3  1  0  0  0
  2 25  1  0  0  0
  2 86  1  0  0  0
  2 87  1  0  0  0
  3  4  1  0  0  0
  3 88  1  0  0  0
  3 89  1  0  0  0
  4  5  1  0  0  0
  4 90  1  0  0  0
  4 91  1  0  0  0
  5  6  1  0  0  0
  5 26  1  0  0  0
  5 92  1  0  0  0
  6 25  1  0  0  0
  6 93  1  0  0  0
  6 94  1  0  0  0
  7  8  2  0  0  0
  7 26  1  0  0  0
  7 29  1  0  0  0
  8  9  1  0  0  0
  8 22  1  0  0  0
  9 10  1  0  0  0
  9 27  2  0  0  0
 10 11  2  0  0  0
 10 15  1  0  0  0
 11 12  1  0  0  0
 11 95  1  0  0  0
 12 13  2  0  0  0
 12 96  1  0  0  0
 13 14  1  0  0  0
 13 31  1  0  0  0
 14 15  2  0  0  0
 14 97  1  0  0  0
 15 98  1  0  0  0
 16 17  2  0  0  0
 16 21  1  0  0  0
 16 31  1  0  0  0
 17 18  1  0  0  0
 17 99  1  0  0  0
 18 19  2  0  0  0
 18100  1  0  0  0
 19 20  1  0  0  0
 19 24  1  0  0  0
 20 21  2  0  0  0
 20101  1  0  0  0
 21 23  1  0  0  0
 22 28  1  0  0  0
 22 32  2  0  0  0
 26 27  1  0  0  0
 28102  1  0  0  0
 28103  1  0  0  0
 29104  1  0  0  0
 29105  1  0  0  0
 33 34  1  0  0  0
 33 66  1  0  0  0
 33 70  2  0  0  0
 34 36  1  0  0  0
 34 59  1  0  0  0
 34106  1  0  0  0
 35 44  2  0  0  0
 35 45  1  0  0  0
 35 68  1  0  0  0
 36 56  1  0  0  0
 36107  1  0  0  0
 37 39  1  0  0  0
 37 47  1  0  0  0
 37 66  1  0  0  0
 37108  1  0  0  0
 38 43  2  0  0  0
 38 46  1  0  0  0
 38 47  1  0  0  0
 39 64  1  0  0  0
 39 67  2  0  0  0
 40 52  1  0  0  0
 40 53  2  0  0  0
 40 58  1  0  0  0
 41109  1  0  0  0
 41110  1  0  0  0
 41111  1  0  0  0
 41 48  1  0  0  0
 42 43  1  0  0  0
 42 66  1  0  0  0
 42112  1  0  0  0
 42113  1  0  0  0
 43 44  1  0  0  0
 44114  1  0  0  0
 45 46  2  0  0  0
 45115  1  0  0  0
 46116  1  0  0  0
 47117  1  0  0  0
 47118  1  0  0  0
 48 56  1  0  0  0
 48 65  1  0  0  0
 48119  1  0  0  0
 49 50  1  0  0  0
 49 53  1  0  0  0
 49 64  1  0  0  0
 49120  1  0  0  0
 50 51  1  0  0  0
 50121  1  0  0  0
 50122  1  0  0  0
 51 52  1  0  0  0
 51123  1  0  0  0
 51124  1  0  0  0
 52125  1  0  0  0
 52126  1  0  0  0
 53 54  1  0  0  0
 54 55  2  0  0  0
 54127  1  0  0  0
 55 57  1  0  0  0
 55128  1  0  0  0
 56 69  2  0  0  0
 57 58  2  0  0  0
 57129  1  0  0  0
 58130  1  0  0  0
 59 60  1  0  0  0
 59 61  1  0  0  0
 59 62  1  0  0  0
 60131  1  0  0  0
 60132  1  0  0  0
 60133  1  0  0  0
 61134  1  0  0  0
 61135  1  0  0  0
 61136  1  0  0  0
 62137  1  0  0  0
 62138  1  0  0  0
 62139  1  0  0  0
 63 65  1  0  0  0
 63140  1  0  0  0
 63141  1  0  0  0
 63142  1  0  0  0
 64143  1  0  0  0
 65144  1  0  0  0
 68 80  1  0  0  0
 71 73  2  0  0  0
 71 75  1  0  0  0
 71145  1  0  0  0
 72 74  1  0  0  0
 72 75  2  0  0  0
 72146  1  0  0  0
 73 76  1  0  0  0
 73147  1  0  0  0
 74 76  2  0  0  0
 74148  1  0  0  0
 75 77  1  0  0  0
 76 83  1  0  0  0
 77 82  1  0  0  0
 77 84  2  0  0  0
 78 79  1  0  0  0
 78 81  1  0  0  0
 78 85  2  0  0  0
 79149  1  0  0  0
 79150  1  0  0  0
 79151  1  0  0  0
 80152  1  0  0  0
 80153  1  0  0  0
 80 81  1  0  0  0
 81 84  1  0  0  0
 81154  1  0  0  0
 82155  1  0  0  0
 82156  1  0  0  0
 83157  1  0  0  0
 84158  1  0  0  0
M  CHG  1  84   1
M  ISO  4   1 100  68 101  80 101  83 100
M  END
> <chiral flag>
0

> <version>
0

> <s_m_source_file>
/data/baiqing/PycharmProjects/Reinvent-master-3.2/result/LINK_invent/BTK/process_docking_weight1_custom_product_contain_oxygen_bond_distance_aromatic_linkinvent_7_9_3/rearranged_h_0076.sdf

> <i_m_source_file_index>
45

> <r_mmod_Potential_Energy-OPLS-2005>
-271.154754638672

> <r_mmod_Stretch_Energy-OPLS-2005>
83.048698425293

> <r_mmod_Bend_Energy-OPLS-2005>
149.773300170898

> <r_mmod_Torsional_Energy-OPLS-2005>
215.952453613281

> <r_mmod_Improper_Torsional_Energy-OPLS-2005>
4.72381210327148

> <r_mmod_Van_der_Waal_Energy-OPLS-2005>
146.408966064453

> <r_mmod_Electrostatic_Energy-OPLS-2005>
-479.627777099609

> <r_mmod_Solvation_Energy-OPLS-2005>
-442.766937255859

> <b_mmod_Minimization_Converged-OPLS-2005>
0

> <r_mmod_RMS_Derivative-OPLS-2005>
3.27122640609741

$$$$
45
                    3D
 Structure written by MMmdl.
158167  0  0  1  0            999 V2000
  -30.6198  -14.7582   20.5409 C   0  0  0  0  0  0
  -30.4294  -12.4755   19.5064 C   0  0  0  0  0  0
  -29.5197  -12.5156   18.2628 C   0  0  0  0  0  0
  -28.0497  -12.3219   18.6765 C   0  0  0  0  0  0
  -27.6437  -13.2355   19.8618 C   0  0  2  0  0  0
  -28.6751  -13.1695   21.0071 C   0  0  0  0  0  0
  -25.2499  -13.8205   20.5743 C   0  0  0  0  0  0
  -24.1780  -13.0475   20.9208 C   0  0  0  0  0  0
  -24.6382  -11.6943   20.8751 C   0  0  0  0  0  0
  -23.9081  -10.4305   21.0418 C   0  0  0  0  0  0
  -24.3630   -9.4219   21.9190 C   0  0  0  0  0  0
  -23.6309   -8.2256   22.0759 C   0  0  0  0  0  0
  -22.4284   -8.0281   21.3544 C   0  0  0  0  0  0
  -21.9924   -9.0268   20.4642 C   0  0  0  0  0  0
  -22.7258  -10.2153   20.3064 C   0  0  0  0  0  0
  -21.6860   -6.0745   22.5284 C   0  0  0  0  0  0
  -21.4005   -6.5649   23.8221 C   0  0  0  0  0  0
  -21.3649   -5.6804   24.9176 C   0  0  0  0  0  0
  -21.6061   -4.3074   24.7240 C   0  0  0  0  0  0
  -21.8811   -3.8161   23.4365 C   0  0  0  0  0  0
  -21.9172   -4.6967   22.3413 C   0  0  0  0  0  0
  -22.7785  -13.5238   21.1891 C   0  0  0  0  0  0
  -22.1649   -4.2151   21.0997 F   0  0  0  0  0  0
  -21.5634   -3.4551   25.7762 F   0  0  0  0  0  0
  -29.9849  -13.5319   20.4500 N   0  0  0  0  0  0
  -26.2929  -12.9427   20.3302 N   0  0  0  0  0  0
  -25.9315  -11.6572   20.5757 N   0  0  0  0  0  0
  -22.0442  -12.8196   22.0431 N   0  0  0  0  0  0
  -25.4257  -15.1939   20.4250 N   0  0  0  0  0  0
  -31.7189  -14.9092   19.9967 O   0  0  0  0  0  0
  -21.6652   -6.8881   21.4239 O   0  0  0  0  0  0
  -22.3466  -14.5552   20.6748 O   0  0  0  0  0  0
  -24.6308  -31.8554   23.1995 C   0  0  0  0  0  0
  -25.9099  -32.4780   23.8359 C   0  0  1  0  0  0
  -27.2340  -27.2871   20.1163 C   0  0  0  0  0  0
  -25.5868  -33.8579   24.2264 N   0  0  0  0  0  0
  -23.4275  -30.4717   21.5502 C   0  0  2  0  0  0
  -24.8691  -28.9176   20.1112 C   0  0  0  0  0  0
  -22.7507  -29.4602   22.5038 C   0  0  0  0  0  0
  -18.0306  -28.1409   22.8505 C   0  0  0  0  0  0
  -24.1457  -36.7295   23.2665 C   0  0  0  0  0  0
  -25.9675  -30.7764   21.3660 C   0  0  0  0  0  0
  -26.0393  -29.3999   20.7105 C   0  0  0  0  0  0
  -27.2217  -28.5974   20.6943 C   0  0  0  0  0  0
  -26.0334  -26.8565   19.5074 C   0  0  0  0  0  0
  -24.8717  -27.6549   19.4935 C   0  0  0  0  0  0
  -23.6321  -29.7904   20.1702 C   0  0  0  0  0  0
  -25.4101  -36.3119   24.0354 C   0  0  1  0  0  0
  -20.5904  -28.3710   23.1306 C   0  0  2  0  0  0
  -20.6825  -26.9397   22.5516 C   0  0  0  0  0  0
  -19.5807  -26.6281   21.5335 C   0  0  0  0  0  0
  -18.1955  -26.7921   22.1700 C   0  0  0  0  0  0
  -19.1556  -28.8890   23.2875 C   0  0  0  0  0  0
  -18.9487  -30.1499   23.8878 C   0  0  0  0  0  0
  -17.6481  -30.6621   24.0539 C   0  0  0  0  0  0
  -25.9041  -34.9481   23.5128 C   0  0  0  0  0  0
  -16.5364  -29.9107   23.6340 C   0  0  0  0  0  0
  -16.7288  -28.6507   23.0370 C   0  0  0  0  0  0
  -26.4443  -31.6616   25.0759 C   0  0  0  0  0  0
  -25.3656  -31.3738   26.1484 C   0  0  0  0  0  0
  -27.0258  -30.3053   24.6168 C   0  0  0  0  0  0
  -27.6002  -32.4367   25.7503 C   0  0  0  0  0  0
  -27.5565  -37.1822   24.8474 C   0  0  0  0  0  0
  -21.4239  -29.2978   22.3665 N   0  0  0  0  0  0
  -26.4289  -37.3817   23.9411 N   0  0  0  0  0  0
  -24.6969  -31.0515   22.0965 N   0  0  0  0  0  0
  -23.4188  -28.8191   23.3190 O   0  0  0  0  0  0
  -28.3780  -26.4617   20.1888 O   0  0  0  0  0  0
  -26.5639  -34.8949   22.4719 O   0  0  0  0  0  0
  -23.5463  -32.1381   23.7311 O   0  0  0  0  0  0
  -29.2303  -19.1988   19.5458 C   0  0  0  0  0  0
  -29.5300  -17.7937   19.7373 C   0  0  0  0  0  0
  -29.6272  -18.1911   22.0637 C   0  0  0  0  0  0
  -29.1444  -20.1838   20.5884 C   0  0  0  0  0  0
  -29.7677  -17.2162   21.0231 C   0  0  0  0  0  0
  -29.3492  -19.5798   21.8602 C   0  0  0  0  0  0
  -27.9612  -22.4512   19.7003 C   0  0  0  0  0  0
  -29.6712  -22.7637   20.7897 C   0  0  0  0  0  0
  -28.4432  -23.7347   20.5176 C   0  0  2  0  0  0
  -27.5619  -24.0203   21.7388 C   0  0  0  0  0  0
  -30.4768  -15.5294   22.7460 C   0  0  0  0  0  0
  -28.4754  -25.0796   19.6189 C   0  0  0  0  0  0
  -28.7812  -21.6257   20.4700 N   0  0  0  0  0  0
  -30.0908  -15.7715   21.3429 N   0  0  0  0  0  0
  -27.2566  -22.2115   18.7378 O   0  0  0  0  0  0
  -29.2307  -20.3646   22.9596 F   0  0  0  0  0  0
  -31.4723  -12.5960   19.2155 H   0  0  0  0  0  0
  -30.3776  -11.4999   19.9880 H   0  0  0  0  0  0
  -29.8181  -11.7409   17.5542 H   0  0  0  0  0  0
  -29.6379  -13.4675   17.7430 H   0  0  0  0  0  0
  -27.9349  -11.2775   18.9720 H   0  0  0  0  0  0
  -27.3859  -12.4754   17.8260 H   0  0  0  0  0  0
  -27.6418  -14.2558   19.4805 H   0  0  0  0  0  0
  -28.3804  -13.8387   21.8144 H   0  0  0  0  0  0
  -28.7164  -12.1694   21.4425 H   0  0  0  0  0  0
  -25.2762   -9.5700   22.4777 H   0  0  0  0  0  0
  -24.0021   -7.4638   22.7468 H   0  0  0  0  0  0
  -21.0870   -8.8790   19.8938 H   0  0  0  0  0  0
  -22.3715  -10.9698   19.6194 H   0  0  0  0  0  0
  -21.2004   -7.6159   23.9732 H   0  0  0  0  0  0
  -21.1474   -6.0527   25.9086 H   0  0  0  0  0  0
  -22.0597   -2.7622   23.2871 H   0  0  0  0  0  0
  -22.4070  -11.9833   22.4752 H   0  0  0  0  0  0
  -21.1046  -13.1172   22.2700 H   0  0  0  0  0  0
  -24.6771  -15.8624   20.5674 H   0  0  0  0  0  0
  -26.2954  -15.6305   20.1462 H   0  0  0  0  0  0
  -26.7170  -32.5419   23.1118 H   0  0  0  0  0  0
  -24.9912  -33.9700   25.0334 H   0  0  0  0  0  0
  -22.7258  -31.2974   21.4068 H   0  0  0  0  0  0
  -23.3752  -35.9594   23.3357 H   0  0  0  0  0  0
  -24.3533  -36.8896   22.2072 H   0  0  0  0  0  0
  -23.7150  -37.6488   23.6650 H   0  0  0  0  0  0
  -26.0897  -31.5319   20.5889 H   0  0  0  0  0  0
  -26.8562  -30.8385   21.9853 H   0  0  0  0  0  0
  -28.1262  -28.9733   21.1533 H   0  0  0  0  0  0
  -25.9509  -25.8762   19.0663 H   0  0  0  0  0  0
  -23.9717  -27.2739   19.0236 H   0  0  0  0  0  0
  -23.7196  -30.5581   19.4016 H   0  0  0  0  0  0
  -22.7535  -29.2018   19.8959 H   0  0  0  0  0  0
  -25.1279  -36.2026   25.0853 H   0  0  0  0  0  0
  -20.9951  -28.3377   24.1453 H   0  0  0  0  0  0
  -20.5704  -26.2359   23.3778 H   0  0  0  0  0  0
  -21.6702  -26.7433   22.1333 H   0  0  0  0  0  0
  -19.6970  -25.6135   21.1532 H   0  0  0  0  0  0
  -19.6784  -27.2972   20.6782 H   0  0  0  0  0  0
  -17.4260  -26.6668   21.4070 H   0  0  0  0  0  0
  -18.0300  -26.0099   22.9113 H   0  0  0  0  0  0
  -19.7962  -30.7320   24.2192 H   0  0  0  0  0  0
  -17.5046  -31.6314   24.5115 H   0  0  0  0  0  0
  -15.5362  -30.3003   23.7708 H   0  0  0  0  0  0
  -15.8680  -28.0815   22.7132 H   0  0  0  0  0  0
  -24.5834  -30.7074   25.7816 H   0  0  0  0  0  0
  -24.8817  -32.2879   26.4932 H   0  0  0  0  0  0
  -25.7990  -30.8913   27.0256 H   0  0  0  0  0  0
  -26.2806  -29.6863   24.1147 H   0  0  0  0  0  0
  -27.3919  -29.7257   25.4649 H   0  0  0  0  0  0
  -27.8693  -30.4381   23.9392 H   0  0  0  0  0  0
  -27.2602  -33.3687   26.2038 H   0  0  0  0  0  0
  -28.3789  -32.6919   25.0296 H   0  0  0  0  0  0
  -28.0666  -31.8525   26.5444 H   0  0  0  0  0  0
  -28.2649  -38.0059   24.7514 H   0  0  0  0  0  0
  -28.1006  -36.2614   24.6329 H   0  0  0  0  0  0
  -27.2283  -37.1508   25.8876 H   0  0  0  0  0  0
  -20.9522  -29.8480   21.6631 H   0  0  0  0  0  0
  -26.0205  -38.2921   24.1379 H   0  0  0  0  0  0
  -29.0504  -19.5350   18.5343 H   0  0  0  0  0  0
  -29.5612  -17.1583   18.8627 H   0  0  0  0  0  0
  -29.7148  -17.9063   23.1001 H   0  0  0  0  0  0
  -30.0321  -22.7725   21.8218 H   0  0  0  0  0  0
  -30.5029  -22.8776   20.0861 H   0  0  0  0  0  0
  -27.5846  -23.2007   22.4547 H   0  0  0  0  0  0
  -26.5256  -24.1986   21.4612 H   0  0  0  0  0  0
  -27.9182  -24.9015   22.2754 H   0  0  0  0  0  0
  -29.6588  -15.7510   23.4304 H   0  0  0  0  0  0
  -31.3327  -16.1596   23.0025 H   0  0  0  0  0  0
  -30.7824  -14.5028   22.9655 H   0  0  0  0  0  0
  -27.7889  -24.9892   18.7788 H   0  0  0  0  0  0
  -29.4465  -25.0935   19.1255 H   0  0  0  0  0  0
  1 25  1  0  0  0
  1 30  2  0  0  0
  1 84  1  0  0  0
  2  3  1  0  0  0
  2 25  1  0  0  0
  2 87  1  0  0  0
  2 88  1  0  0  0
  3  4  1  0  0  0
  3 89  1  0  0  0
  3 90  1  0  0  0
  4  5  1  0  0  0
  4 91  1  0  0  0
  4 92  1  0  0  0
  5  6  1  0  0  0
  5 26  1  0  0  0
  5 93  1  0  0  0
  6 25  1  0  0  0
  6 94  1  0  0  0
  6 95  1  0  0  0
  7  8  2  0  0  0
  7 26  1  0  0  0
  7 29  1  0  0  0
  8  9  1  0  0  0
  8 22  1  0  0  0
  9 10  1  0  0  0
  9 27  2  0  0  0
 10 11  2  0  0  0
 10 15  1  0  0  0
 11 12  1  0  0  0
 11 96  1  0  0  0
 12 13  2  0  0  0
 12 97  1  0  0  0
 13 14  1  0  0  0
 13 31  1  0  0  0
 14 15  2  0  0  0
 14 98  1  0  0  0
 15 99  1  0  0  0
 16 17  2  0  0  0
 16 21  1  0  0  0
 16 31  1  0  0  0
 17 18  1  0  0  0
 17100  1  0  0  0
 18 19  2  0  0  0
 18101  1  0  0  0
 19 20  1  0  0  0
 19 24  1  0  0  0
 20 21  2  0  0  0
 20102  1  0  0  0
 21 23  1  0  0  0
 22 28  1  0  0  0
 22 32  2  0  0  0
 26 27  1  0  0  0
 28103  1  0  0  0
 28104  1  0  0  0
 29105  1  0  0  0
 29106  1  0  0  0
 33 34  1  0  0  0
 33 66  1  0  0  0
 33 70  2  0  0  0
 34 36  1  0  0  0
 34 59  1  0  0  0
 34107  1  0  0  0
 35 44  2  0  0  0
 35 45  1  0  0  0
 35 68  1  0  0  0
 36 56  1  0  0  0
 36108  1  0  0  0
 37 39  1  0  0  0
 37 47  1  0  0  0
 37 66  1  0  0  0
 37109  1  0  0  0
 38 43  2  0  0  0
 38 46  1  0  0  0
 38 47  1  0  0  0
 39 64  1  0  0  0
 39 67  2  0  0  0
 40 52  1  0  0  0
 40 53  2  0  0  0
 40 58  1  0  0  0
 41110  1  0  0  0
 41111  1  0  0  0
 41112  1  0  0  0
 41 48  1  0  0  0
 42 43  1  0  0  0
 42 66  1  0  0  0
 42113  1  0  0  0
 42114  1  0  0  0
 43 44  1  0  0  0
 44115  1  0  0  0
 45 46  2  0  0  0
 45116  1  0  0  0
 46117  1  0  0  0
 47118  1  0  0  0
 47119  1  0  0  0
 48 56  1  0  0  0
 48 65  1  0  0  0
 48120  1  0  0  0
 49 50  1  0  0  0
 49 53  1  0  0  0
 49 64  1  0  0  0
 49121  1  0  0  0
 50 51  1  0  0  0
 50122  1  0  0  0
 50123  1  0  0  0
 51 52  1  0  0  0
 51124  1  0  0  0
 51125  1  0  0  0
 52126  1  0  0  0
 52127  1  0  0  0
 53 54  1  0  0  0
 54 55  2  0  0  0
 54128  1  0  0  0
 55 57  1  0  0  0
 55129  1  0  0  0
 56 69  2  0  0  0
 57 58  2  0  0  0
 57130  1  0  0  0
 58131  1  0  0  0
 59 60  1  0  0  0
 59 61  1  0  0  0
 59 62  1  0  0  0
 60132  1  0  0  0
 60133  1  0  0  0
 60134  1  0  0  0
 61135  1  0  0  0
 61136  1  0  0  0
 61137  1  0  0  0
 62138  1  0  0  0
 62139  1  0  0  0
 62140  1  0  0  0
 63 65  1  0  0  0
 63141  1  0  0  0
 63142  1  0  0  0
 63143  1  0  0  0
 64144  1  0  0  0
 65145  1  0  0  0
 68 82  1  0  0  0
 71 72  2  0  0  0
 71 74  1  0  0  0
 71146  1  0  0  0
 72 75  1  0  0  0
 72147  1  0  0  0
 73 75  2  0  0  0
 73 76  1  0  0  0
 73148  1  0  0  0
 74 76  2  0  0  0
 74 83  1  0  0  0
 75 84  1  0  0  0
 76 86  1  0  0  0
 77 79  1  0  0  0
 77 83  1  0  0  0
 77 85  2  0  0  0
 78 79  1  0  0  0
 78 83  1  0  0  0
 78149  1  0  0  0
 78150  1  0  0  0
 79 80  1  0  0  0
 79 82  1  0  0  0
 80151  1  0  0  0
 80152  1  0  0  0
 80153  1  0  0  0
 81 84  1  0  0  0
 81154  1  0  0  0
 81155  1  0  0  0
 81156  1  0  0  0
 82157  1  0  0  0
 82158  1  0  0  0
M  ISO  4   1 100  68 101  82 101  84 100
M  END
> <chiral flag>
0

> <version>
0

> <s_m_source_file>
/data/baiqing/PycharmProjects/Reinvent-master-3.2/result/LINK_invent/BTK/process_docking_weight1_custom_product_contain_oxygen_bond_distance_aromatic_linkinvent_7_9_3/rearranged_h_0076.sdf

> <i_m_source_file_index>
46

> <r_mmod_Potential_Energy-OPLS-2005>
372.890502929688

> <r_mmod_Stretch_Energy-OPLS-2005>
125.58080291748

> <r_mmod_Bend_Energy-OPLS-2005>
235.124801635742

> <r_mmod_Torsional_Energy-OPLS-2005>
303.615264892578

> <r_mmod_Improper_Torsional_Energy-OPLS-2005>
6.93285417556763

> <r_mmod_Van_der_Waal_Energy-OPLS-2005>
145.064346313477

> <r_mmod_Electrostatic_Energy-OPLS-2005>
-326.854644775391

> <r_mmod_Solvation_Energy-OPLS-2005>
-196.979675292969

> <b_mmod_Minimization_Converged-OPLS-2005>
0

> <r_mmod_RMS_Derivative-OPLS-2005>
5.84940338134766

$$$$
46
                    3D
 Structure written by MMmdl.
152160  0  0  1  0            999 V2000
  -30.5806  -14.7052   20.5286 C   0  0  0  0  0  0
  -30.4517  -12.4440   19.4742 C   0  0  0  0  0  0
  -29.5206  -12.5299   18.2407 C   0  0  0  0  0  0
  -28.0408  -12.3560   18.6413 C   0  0  0  0  0  0
  -27.6534  -13.2221   19.8690 C   0  0  2  0  0  0
  -28.6933  -13.0808   21.0030 C   0  0  0  0  0  0
  -25.2540  -13.8178   20.5700 C   0  0  0  0  0  0
  -24.1806  -13.0426   20.9182 C   0  0  0  0  0  0
  -24.6394  -11.6907   20.8746 C   0  0  0  0  0  0
  -23.9057  -10.4287   21.0423 C   0  0  0  0  0  0
  -24.3600   -9.4203   21.9202 C   0  0  0  0  0  0
  -23.6277   -8.2238   22.0760 C   0  0  0  0  0  0
  -22.4272   -8.0276   21.3535 C   0  0  0  0  0  0
  -21.9902   -9.0256   20.4657 C   0  0  0  0  0  0
  -22.7235  -10.2137   20.3076 C   0  0  0  0  0  0
  -21.6843   -6.0724   22.5273 C   0  0  0  0  0  0
  -21.4018   -6.5627   23.8214 C   0  0  0  0  0  0
  -21.3665   -5.6779   24.9173 C   0  0  0  0  0  0
  -21.6040   -4.3044   24.7223 C   0  0  0  0  0  0
  -21.8822   -3.8142   23.4345 C   0  0  0  0  0  0
  -21.9187   -4.6953   22.3399 C   0  0  0  0  0  0
  -22.7828  -13.5237   21.1851 C   0  0  0  0  0  0
  -22.1663   -4.2142   21.0982 F   0  0  0  0  0  0
  -21.5627   -3.4536   25.7738 F   0  0  0  0  0  0
  -30.0079  -13.4564   20.4575 N   0  0  0  0  0  0
  -26.2974  -12.9365   20.3322 N   0  0  0  0  0  0
  -25.9323  -11.6518   20.5737 N   0  0  0  0  0  0
  -22.0467  -12.8245   22.0418 N   0  0  0  0  0  0
  -25.4224  -15.1897   20.4169 N   0  0  0  0  0  0
  -31.7129  -14.9073   20.0756 O   0  0  0  0  0  0
  -21.6637   -6.8871   21.4239 O   0  0  0  0  0  0
  -22.3506  -14.5533   20.6694 O   0  0  0  0  0  0
  -24.6284  -31.8529   23.1964 C   0  0  0  0  0  0
  -25.9113  -32.4746   23.8333 C   0  0  1  0  0  0
  -27.2357  -27.2858   20.1133 C   0  0  0  0  0  0
  -25.5914  -33.8552   24.2255 N   0  0  0  0  0  0
  -23.4247  -30.4743   21.5390 C   0  0  2  0  0  0
  -24.8778  -28.9191   20.1055 C   0  0  0  0  0  0
  -22.7479  -29.4589   22.4910 C   0  0  0  0  0  0
  -18.0284  -28.1355   22.8485 C   0  0  0  0  0  0
  -24.1482  -36.7298   23.2637 C   0  0  0  0  0  0
  -25.9678  -30.7749   21.3681 C   0  0  0  0  0  0
  -26.0444  -29.3964   20.7153 C   0  0  0  0  0  0
  -27.2213  -28.5868   20.7138 C   0  0  0  0  0  0
  -26.0446  -26.8628   19.4852 C   0  0  0  0  0  0
  -24.8802  -27.6585   19.4852 C   0  0  0  0  0  0
  -23.6441  -29.8012   20.1551 C   0  0  0  0  0  0
  -25.4104  -36.3074   24.0329 C   0  0  1  0  0  0
  -20.5896  -28.3662   23.1265 C   0  0  2  0  0  0
  -20.6769  -26.9388   22.5377 C   0  0  0  0  0  0
  -19.5751  -26.6392   21.5161 C   0  0  0  0  0  0
  -18.1926  -26.7921   22.1570 C   0  0  0  0  0  0
  -19.1539  -28.8823   23.2887 C   0  0  0  0  0  0
  -18.9461  -30.1423   23.8919 C   0  0  0  0  0  0
  -17.6462  -30.6560   24.0564 C   0  0  0  0  0  0
  -25.9046  -34.9439   23.5099 C   0  0  0  0  0  0
  -16.5361  -29.9064   23.6309 C   0  0  0  0  0  0
  -16.7275  -28.6474   23.0347 C   0  0  0  0  0  0
  -26.4490  -31.6576   25.0713 C   0  0  0  0  0  0
  -25.3724  -31.3733   26.1449 C   0  0  0  0  0  0
  -27.0340  -30.3013   24.6156 C   0  0  0  0  0  0
  -27.6048  -32.4309   25.7493 C   0  0  0  0  0  0
  -27.5574  -37.1803   24.8466 C   0  0  0  0  0  0
  -21.4190  -29.3034   22.3668 N   0  0  0  0  0  0
  -26.4275  -37.3768   23.9409 N   0  0  0  0  0  0
  -24.6936  -31.0529   22.0914 N   0  0  0  0  0  0
  -23.4200  -28.8107   23.2966 O   0  0  0  0  0  0
  -28.3620  -26.4413   20.1809 O   0  0  0  0  0  0
  -26.5615  -34.8918   22.4669 O   0  0  0  0  0  0
  -23.5437  -32.1342   23.7271 O   0  0  0  0  0  0
  -29.8557  -19.3829   19.7348 C   0  0  0  0  0  0
  -30.0951  -17.9612   19.7972 C   0  0  0  0  0  0
  -28.9606  -19.3207   21.9542 C   0  0  0  0  0  0
  -29.2804  -20.1141   20.8187 C   0  0  0  0  0  0
  -29.7490  -17.1777   20.9386 C   0  0  0  0  0  0
  -29.1686  -17.9101   22.0082 C   0  0  0  0  0  0
  -28.3641  -25.0769   19.7774 C   0  0  0  0  0  0
  -28.7236  -23.9838   20.5480 C   0  0  0  0  0  0
  -28.8351  -22.5823   19.9847 C   0  0  0  0  0  0
  -29.0483  -24.1876   22.0237 C   0  0  0  0  0  0
  -29.0690  -21.5784   20.9001 N   0  0  0  0  0  0
  -29.7996  -15.7066   21.0577 N   0  0  0  0  0  0
  -28.7407  -22.3236   18.7826 O   0  0  0  0  0  0
  -28.7855  -17.2403   23.1226 F   0  0  0  0  0  0
  -31.4889  -12.6005   19.1705 H   0  0  0  0  0  0
  -30.4201  -11.4517   19.9242 H   0  0  0  0  0  0
  -29.8007  -11.7792   17.5000 H   0  0  0  0  0  0
  -29.6479  -13.4983   17.7552 H   0  0  0  0  0  0
  -27.8781  -11.2995   18.8620 H   0  0  0  0  0  0
  -27.3976  -12.5931   17.7926 H   0  0  0  0  0  0
  -27.6700  -14.2582   19.5301 H   0  0  0  0  0  0
  -28.7198  -12.0562   21.3732 H   0  0  0  0  0  0
  -28.4176  -13.6924   21.8627 H   0  0  0  0  0  0
  -25.2752   -9.5662   22.4779 H   0  0  0  0  0  0
  -23.9977   -7.4617   22.7484 H   0  0  0  0  0  0
  -21.0823   -8.8778   19.8973 H   0  0  0  0  0  0
  -22.3697  -10.9668   19.6181 H   0  0  0  0  0  0
  -21.2030   -7.6151   23.9706 H   0  0  0  0  0  0
  -21.1479   -6.0524   25.9063 H   0  0  0  0  0  0
  -22.0599   -2.7608   23.2850 H   0  0  0  0  0  0
  -22.4060  -11.9911   22.4821 H   0  0  0  0  0  0
  -21.1088  -13.1290   22.2602 H   0  0  0  0  0  0
  -24.6543  -15.8419   20.5310 H   0  0  0  0  0  0
  -26.2769  -15.6368   20.1085 H   0  0  0  0  0  0
  -26.7181  -32.5421   23.1091 H   0  0  0  0  0  0
  -25.0089  -33.9682   25.0416 H   0  0  0  0  0  0
  -22.7202  -31.2950   21.3874 H   0  0  0  0  0  0
  -23.3731  -35.9643   23.3300 H   0  0  0  0  0  0
  -24.3582  -36.8925   22.2054 H   0  0  0  0  0  0
  -23.7244  -37.6504   23.6665 H   0  0  0  0  0  0
  -26.0892  -31.5313   20.5914 H   0  0  0  0  0  0
  -26.8497  -30.8388   21.9944 H   0  0  0  0  0  0
  -28.1156  -28.9393   21.2061 H   0  0  0  0  0  0
  -25.9914  -25.8926   19.0150 H   0  0  0  0  0  0
  -23.9856  -27.2801   19.0084 H   0  0  0  0  0  0
  -23.7658  -30.5740   19.3951 H   0  0  0  0  0  0
  -22.7650  -29.2330   19.8477 H   0  0  0  0  0  0
  -25.1280  -36.1930   25.0817 H   0  0  0  0  0  0
  -20.9992  -28.3195   24.1385 H   0  0  0  0  0  0
  -20.5613  -26.2260   23.3564 H   0  0  0  0  0  0
  -21.6629  -26.7389   22.1177 H   0  0  0  0  0  0
  -19.6910  -25.6321   21.1153 H   0  0  0  0  0  0
  -19.6673  -27.3230   20.6707 H   0  0  0  0  0  0
  -17.4206  -26.6713   21.3964 H   0  0  0  0  0  0
  -18.0306  -26.0035   22.8929 H   0  0  0  0  0  0
  -19.7926  -30.7222   24.2329 H   0  0  0  0  0  0
  -17.5001  -31.6242   24.5146 H   0  0  0  0  0  0
  -15.5352  -30.2959   23.7603 H   0  0  0  0  0  0
  -15.8699  -28.0773   22.7063 H   0  0  0  0  0  0
  -24.5893  -30.7080   25.7797 H   0  0  0  0  0  0
  -24.8925  -32.2911   26.4871 H   0  0  0  0  0  0
  -25.8062  -30.8932   27.0232 H   0  0  0  0  0  0
  -26.2921  -29.6771   24.1170 H   0  0  0  0  0  0
  -27.4044  -29.7265   25.4649 H   0  0  0  0  0  0
  -27.8778  -30.4324   23.9377 H   0  0  0  0  0  0
  -27.2663  -33.3604   26.2083 H   0  0  0  0  0  0
  -28.3869  -32.6874   25.0335 H   0  0  0  0  0  0
  -28.0704  -31.8426   26.5410 H   0  0  0  0  0  0
  -28.2583  -38.0102   24.7495 H   0  0  0  0  0  0
  -28.1073  -36.2639   24.6303 H   0  0  0  0  0  0
  -27.2306  -37.1465   25.8868 H   0  0  0  0  0  0
  -20.9344  -29.8835   21.6972 H   0  0  0  0  0  0
  -26.0170  -38.2843   24.1408 H   0  0  0  0  0  0
  -30.1282  -19.9125   18.8321 H   0  0  0  0  0  0
  -30.5213  -17.4691   18.9340 H   0  0  0  0  0  0
  -28.5232  -19.7963   22.8193 H   0  0  0  0  0  0
  -28.0951  -24.9742   18.7349 H   0  0  0  0  0  0
  -28.8917  -25.2216   22.3286 H   0  0  0  0  0  0
  -30.0876  -23.9319   22.2358 H   0  0  0  0  0  0
  -28.4032  -23.5748   22.6530 H   0  0  0  0  0  0
  -29.0328  -21.9412   21.8423 H   0  0  0  0  0  0
  -29.0462  -15.3436   21.6228 H   0  0  0  0  0  0
  1 25  1  0  0  0
  1 30  2  0  0  0
  1 82  1  0  0  0
  2  3  1  0  0  0
  2 25  1  0  0  0
  2 85  1  0  0  0
  2 86  1  0  0  0
  3  4  1  0  0  0
  3 87  1  0  0  0
  3 88  1  0  0  0
  4  5  1  0  0  0
  4 89  1  0  0  0
  4 90  1  0  0  0
  5  6  1  0  0  0
  5 26  1  0  0  0
  5 91  1  0  0  0
  6 25  1  0  0  0
  6 92  1  0  0  0
  6 93  1  0  0  0
  7  8  2  0  0  0
  7 26  1  0  0  0
  7 29  1  0  0  0
  8  9  1  0  0  0
  8 22  1  0  0  0
  9 10  1  0  0  0
  9 27  2  0  0  0
 10 11  2  0  0  0
 10 15  1  0  0  0
 11 12  1  0  0  0
 11 94  1  0  0  0
 12 13  2  0  0  0
 12 95  1  0  0  0
 13 14  1  0  0  0
 13 31  1  0  0  0
 14 15  2  0  0  0
 14 96  1  0  0  0
 15 97  1  0  0  0
 16 17  2  0  0  0
 16 21  1  0  0  0
 16 31  1  0  0  0
 17 18  1  0  0  0
 17 98  1  0  0  0
 18 19  2  0  0  0
 18 99  1  0  0  0
 19 20  1  0  0  0
 19 24  1  0  0  0
 20 21  2  0  0  0
 20100  1  0  0  0
 21 23  1  0  0  0
 22 28  1  0  0  0
 22 32  2  0  0  0
 26 27  1  0  0  0
 28101  1  0  0  0
 28102  1  0  0  0
 29103  1  0  0  0
 29104  1  0  0  0
 33 34  1  0  0  0
 33 66  1  0  0  0
 33 70  2  0  0  0
 34 36  1  0  0  0
 34 59  1  0  0  0
 34105  1  0  0  0
 35 44  2  0  0  0
 35 45  1  0  0  0
 35 68  1  0  0  0
 36 56  1  0  0  0
 36106  1  0  0  0
 37 39  1  0  0  0
 37 47  1  0  0  0
 37 66  1  0  0  0
 37107  1  0  0  0
 38 43  2  0  0  0
 38 46  1  0  0  0
 38 47  1  0  0  0
 39 64  1  0  0  0
 39 67  2  0  0  0
 40 52  1  0  0  0
 40 53  2  0  0  0
 40 58  1  0  0  0
 41108  1  0  0  0
 41109  1  0  0  0
 41110  1  0  0  0
 41 48  1  0  0  0
 42 43  1  0  0  0
 42 66  1  0  0  0
 42111  1  0  0  0
 42112  1  0  0  0
 43 44  1  0  0  0
 44113  1  0  0  0
 45 46  2  0  0  0
 45114  1  0  0  0
 46115  1  0  0  0
 47116  1  0  0  0
 47117  1  0  0  0
 48 56  1  0  0  0
 48 65  1  0  0  0
 48118  1  0  0  0
 49 50  1  0  0  0
 49 53  1  0  0  0
 49 64  1  0  0  0
 49119  1  0  0  0
 50 51  1  0  0  0
 50120  1  0  0  0
 50121  1  0  0  0
 51 52  1  0  0  0
 51122  1  0  0  0
 51123  1  0  0  0
 52124  1  0  0  0
 52125  1  0  0  0
 53 54  1  0  0  0
 54 55  2  0  0  0
 54126  1  0  0  0
 55 57  1  0  0  0
 55127  1  0  0  0
 56 69  2  0  0  0
 57 58  2  0  0  0
 57128  1  0  0  0
 58129  1  0  0  0
 59 60  1  0  0  0
 59 61  1  0  0  0
 59 62  1  0  0  0
 60130  1  0  0  0
 60131  1  0  0  0
 60132  1  0  0  0
 61133  1  0  0  0
 61134  1  0  0  0
 61135  1  0  0  0
 62136  1  0  0  0
 62137  1  0  0  0
 62138  1  0  0  0
 63 65  1  0  0  0
 63139  1  0  0  0
 63140  1  0  0  0
 63141  1  0  0  0
 64142  1  0  0  0
 65143  1  0  0  0
 68 77  1  0  0  0
 71 72  2  0  0  0
 71 74  1  0  0  0
 71144  1  0  0  0
 72 75  1  0  0  0
 72145  1  0  0  0
 73 74  2  0  0  0
 73 76  1  0  0  0
 73146  1  0  0  0
 74 81  1  0  0  0
 75 76  2  0  0  0
 75 82  1  0  0  0
 76 84  1  0  0  0
 77 78  2  0  0  0
 77147  1  0  0  0
 78 79  1  0  0  0
 78 80  1  0  0  0
 79 81  1  0  0  0
 79 83  2  0  0  0
 80148  1  0  0  0
 80149  1  0  0  0
 80150  1  0  0  0
 81151  1  0  0  0
 82152  1  0  0  0
M  ISO  4   1 100  68 101  77 101  82 100
M  END
> <chiral flag>
0

> <version>
0

> <s_m_source_file>
/data/baiqing/PycharmProjects/Reinvent-master-3.2/result/LINK_invent/BTK/process_docking_weight1_custom_product_contain_oxygen_bond_distance_aromatic_linkinvent_7_9_3/rearranged_h_0076.sdf

> <i_m_source_file_index>
47

> <r_mmod_Potential_Energy-OPLS-2005>
61.502799987793

> <r_mmod_Stretch_Energy-OPLS-2005>
96.2074508666992

> <r_mmod_Bend_Energy-OPLS-2005>
163.371017456055

> <r_mmod_Torsional_Energy-OPLS-2005>
245.481582641602

> <r_mmod_Improper_Torsional_Energy-OPLS-2005>
3.62760353088379

> <r_mmod_Van_der_Waal_Energy-OPLS-2005>
139.638580322266

> <r_mmod_Electrostatic_Energy-OPLS-2005>
-437.818298339844

> <r_mmod_Solvation_Energy-OPLS-2005>
-216.971466064453

> <b_mmod_Minimization_Converged-OPLS-2005>
0

> <r_mmod_RMS_Derivative-OPLS-2005>
3.32272529602051

$$$$
47
                    3D
 Structure written by MMmdl.
143150  0  0  1  0            999 V2000
  -30.3109  -15.6300   20.3285 C   0  0  0  0  0  0
  -30.4248  -13.0783   19.5347 C   0  0  0  0  0  0
  -29.5516  -12.6503   18.3204 C   0  0  0  0  0  0
  -28.1230  -12.2987   18.7636 C   0  0  0  0  0  0
  -27.5948  -13.3056   19.8107 C   0  0  2  0  0  0
  -28.6119  -13.6391   20.9276 C   0  0  0  0  0  0
  -25.2310  -13.8270   20.5784 C   0  0  0  0  0  0
  -24.1707  -13.0422   20.9309 C   0  0  0  0  0  0
  -24.6414  -11.6938   20.8777 C   0  0  0  0  0  0
  -23.9121  -10.4286   21.0408 C   0  0  0  0  0  0
  -24.3655   -9.4197   21.9186 C   0  0  0  0  0  0
  -23.6313   -8.2242   22.0755 C   0  0  0  0  0  0
  -22.4293   -8.0288   21.3546 C   0  0  0  0  0  0
  -21.9942   -9.0266   20.4647 C   0  0  0  0  0  0
  -22.7290  -10.2135   20.3056 C   0  0  0  0  0  0
  -21.6860   -6.0742   22.5278 C   0  0  0  0  0  0
  -21.4017   -6.5642   23.8212 C   0  0  0  0  0  0
  -21.3661   -5.6793   24.9174 C   0  0  0  0  0  0
  -21.6046   -4.3056   24.7222 C   0  0  0  0  0  0
  -21.8818   -3.8149   23.4342 C   0  0  0  0  0  0
  -21.9194   -4.6968   22.3399 C   0  0  0  0  0  0
  -22.7719  -13.5162   21.1934 C   0  0  0  0  0  0
  -22.1662   -4.2153   21.0975 F   0  0  0  0  0  0
  -21.5628   -3.4537   25.7733 F   0  0  0  0  0  0
  -29.7841  -14.2631   20.2676 N   0  0  0  0  0  0
  -26.2760  -12.9603   20.3217 N   0  0  0  0  0  0
  -25.9359  -11.6680   20.5704 N   0  0  0  0  0  0
  -22.0373  -12.8141   22.0481 N   0  0  0  0  0  0
  -25.3869  -15.2008   20.4178 N   0  0  0  0  0  0
  -31.5525  -15.5735   20.1838 O   0  0  0  0  0  0
  -21.6650   -6.8889   21.4243 O   0  0  0  0  0  0
  -22.3404  -14.5464   20.6767 O   0  0  0  0  0  0
  -24.6843  -31.7984   23.1509 C   0  0  0  0  0  0
  -25.9420  -32.4461   23.8063 C   0  0  1  0  0  0
  -27.2298  -26.6958   20.2113 C   0  0  0  0  0  0
  -25.6000  -33.8290   24.1947 N   0  0  0  0  0  0
  -23.5110  -30.3993   21.5051 C   0  0  2  0  0  0
  -24.9694  -28.7385   20.1187 C   0  0  0  0  0  0
  -22.7771  -29.4300   22.4710 C   0  0  0  0  0  0
  -18.0338  -28.1417   22.8453 C   0  0  0  0  0  0
  -24.1496  -36.7150   23.2651 C   0  0  0  0  0  0
  -26.0925  -30.5290   21.4162 C   0  0  0  0  0  0
  -26.1591  -29.0931   20.7655 C   0  0  0  0  0  0
  -27.2742  -28.1002   20.7782 C   0  0  0  0  0  0
  -26.0062  -26.5527   19.5080 C   0  0  0  0  0  0
  -24.9321  -27.4936   19.4668 C   0  0  0  0  0  0
  -23.7658  -29.6948   20.1410 C   0  0  0  0  0  0
  -25.4147  -36.2892   24.0278 C   0  0  1  0  0  0
  -20.5974  -28.3776   23.1137 C   0  0  2  0  0  0
  -20.6800  -26.9434   22.5398 C   0  0  0  0  0  0
  -19.5777  -26.6366   21.5210 C   0  0  0  0  0  0
  -18.1960  -26.7945   22.1616 C   0  0  0  0  0  0
  -19.1604  -28.8922   23.2775 C   0  0  0  0  0  0
  -18.9509  -30.1506   23.8820 C   0  0  0  0  0  0
  -17.6498  -30.6600   24.0548 C   0  0  0  0  0  0
  -25.9127  -34.9284   23.4948 C   0  0  0  0  0  0
  -16.5388  -29.9080   23.6349 C   0  0  0  0  0  0
  -16.7317  -28.6501   23.0368 C   0  0  0  0  0  0
  -26.4598  -31.6504   25.0692 C   0  0  0  0  0  0
  -25.3658  -31.3821   26.1303 C   0  0  0  0  0  0
  -27.0532  -30.2840   24.6601 C   0  0  0  0  0  0
  -27.6049  -32.4371   25.7506 C   0  0  0  0  0  0
  -27.5565  -37.1732   24.8467 C   0  0  0  0  0  0
  -21.4416  -29.3022   22.3462 N   0  0  0  0  0  0
  -26.4274  -37.3652   23.9405 N   0  0  0  0  0  0
  -24.7862  -30.9423   22.0764 N   0  0  0  0  0  0
  -23.4214  -28.7898   23.3052 O   0  0  0  0  0  0
  -28.1929  -25.4740   20.2788 O   0  0  0  0  0  0
  -26.5769  -34.8860   22.4566 O   0  0  0  0  0  0
  -23.5859  -32.1062   23.6456 O   0  0  0  0  0  0
  -29.0025  -22.1955   20.3027 C   0  0  0  0  0  0
  -29.7494  -18.7393   20.3060 C   0  0  0  0  0  0
  -28.7485  -20.3343   20.2665 C   0  0  0  0  0  0
  -27.9393  -23.7300   20.1619 C   0  0  0  0  0  0
  -29.4947  -17.1825   20.3467 N   0  0  0  0  0  0
  -31.0634  -19.0378   20.2819 N   0  3  0  0  0  0
  -30.1944  -22.4870   20.4588 O   0  0  0  0  0  0
  -31.4191  -13.3406   19.1704 H   0  0  0  0  0  0
  -30.5840  -12.2354   20.2096 H   0  0  0  0  0  0
  -30.0052  -11.8033   17.8034 H   0  0  0  0  0  0
  -29.5173  -13.4670   17.5980 H   0  0  0  0  0  0
  -28.1466  -11.2996   19.2007 H   0  0  0  0  0  0
  -27.4549  -12.2433   17.9032 H   0  0  0  0  0  0
  -27.4558  -14.2266   19.2431 H   0  0  0  0  0  0
  -28.8740  -12.7567   21.5136 H   0  0  0  0  0  0
  -28.1771  -14.3528   21.6298 H   0  0  0  0  0  0
  -25.2794   -9.5667   22.4771 H   0  0  0  0  0  0
  -24.0013   -7.4633   22.7480 H   0  0  0  0  0  0
  -21.0871   -8.8798   19.8954 H   0  0  0  0  0  0
  -22.3753  -10.9679   19.6169 H   0  0  0  0  0  0
  -21.2010   -7.6148   23.9718 H   0  0  0  0  0  0
  -21.1485   -6.0519   25.9078 H   0  0  0  0  0  0
  -22.0597   -2.7610   23.2838 H   0  0  0  0  0  0
  -22.4006  -11.9825   22.4896 H   0  0  0  0  0  0
  -21.0979  -13.1138   22.2669 H   0  0  0  0  0  0
  -24.6010  -15.8357   20.5106 H   0  0  0  0  0  0
  -26.1967  -15.6345   19.9976 H   0  0  0  0  0  0
  -26.7507  -32.4929   23.0781 H   0  0  0  0  0  0
  -25.0066  -33.9335   25.0047 H   0  0  0  0  0  0
  -22.8363  -31.2360   21.3137 H   0  0  0  0  0  0
  -23.3777  -35.9459   23.3265 H   0  0  0  0  0  0
  -24.3555  -36.8862   22.2073 H   0  0  0  0  0  0
  -23.7239  -37.6308   23.6762 H   0  0  0  0  0  0
  -26.2981  -31.2546   20.6282 H   0  0  0  0  0  0
  -26.9422  -30.5957   22.0832 H   0  0  0  0  0  0
  -28.1708  -28.3782   21.3146 H   0  0  0  0  0  0
  -25.8400  -25.6125   19.0025 H   0  0  0  0  0  0
  -24.0346  -27.2129   18.9329 H   0  0  0  0  0  0
  -23.9419  -30.4542   19.3782 H   0  0  0  0  0  0
  -22.8706  -29.1612   19.8164 H   0  0  0  0  0  0
  -25.1358  -36.1650   25.0767 H   0  0  0  0  0  0
  -21.0056  -28.3397   24.1265 H   0  0  0  0  0  0
  -20.5648  -26.2402   23.3661 H   0  0  0  0  0  0
  -21.6660  -26.7363   22.1224 H   0  0  0  0  0  0
  -19.6928  -25.6256   21.1287 H   0  0  0  0  0  0
  -19.6718  -27.3135   20.6706 H   0  0  0  0  0  0
  -17.4227  -26.6687   21.4023 H   0  0  0  0  0  0
  -18.0350  -26.0105   22.9027 H   0  0  0  0  0  0
  -19.7982  -30.7341   24.2159 H   0  0  0  0  0  0
  -17.5045  -31.6273   24.5163 H   0  0  0  0  0  0
  -15.5383  -30.2957   23.7713 H   0  0  0  0  0  0
  -15.8719  -28.0790   22.7132 H   0  0  0  0  0  0
  -24.5874  -30.7144   25.7594 H   0  0  0  0  0  0
  -24.8816  -32.3043   26.4526 H   0  0  0  0  0  0
  -25.7828  -30.9112   27.0214 H   0  0  0  0  0  0
  -26.3250  -29.6454   24.1593 H   0  0  0  0  0  0
  -27.3953  -29.7289   25.5346 H   0  0  0  0  0  0
  -27.9233  -30.3963   24.0131 H   0  0  0  0  0  0
  -27.2597  -33.3747   26.1874 H   0  0  0  0  0  0
  -28.3965  -32.6814   25.0409 H   0  0  0  0  0  0
  -28.0608  -31.8644   26.5592 H   0  0  0  0  0  0
  -28.2550  -38.0058   24.7514 H   0  0  0  0  0  0
  -28.1094  -36.2579   24.6299 H   0  0  0  0  0  0
  -27.2278  -37.1374   25.8869 H   0  0  0  0  0  0
  -20.9726  -29.8686   21.6534 H   0  0  0  0  0  0
  -26.0099  -38.2698   24.1421 H   0  0  0  0  0  0
  -28.1405  -20.2217   19.3695 H   0  0  0  0  0  0
  -28.0266  -20.1998   21.0709 H   0  0  0  0  0  0
  -27.1351  -23.5404   20.8722 H   0  0  0  0  0  0
  -27.4639  -23.6091   19.1885 H   0  0  0  0  0  0
  -28.4924  -17.0923   20.3856 H   0  0  0  0  0  0
  -31.7815  -18.3254   20.2773 H   0  0  0  0  0  0
  -31.3716  -20.0027   20.2722 H   0  0  0  0  0  0
  1 25  1  0  0  0
  1 30  2  0  0  0
  1 75  1  0  0  0
  2  3  1  0  0  0
  2 25  1  0  0  0
  2 78  1  0  0  0
  2 79  1  0  0  0
  3  4  1  0  0  0
  3 80  1  0  0  0
  3 81  1  0  0  0
  4  5  1  0  0  0
  4 82  1  0  0  0
  4 83  1  0  0  0
  5  6  1  0  0  0
  5 26  1  0  0  0
  5 84  1  0  0  0
  6 25  1  0  0  0
  6 85  1  0  0  0
  6 86  1  0  0  0
  7  8  2  0  0  0
  7 26  1  0  0  0
  7 29  1  0  0  0
  8  9  1  0  0  0
  8 22  1  0  0  0
  9 10  1  0  0  0
  9 27  2  0  0  0
 10 11  2  0  0  0
 10 15  1  0  0  0
 11 12  1  0  0  0
 11 87  1  0  0  0
 12 13  2  0  0  0
 12 88  1  0  0  0
 13 14  1  0  0  0
 13 31  1  0  0  0
 14 15  2  0  0  0
 14 89  1  0  0  0
 15 90  1  0  0  0
 16 17  2  0  0  0
 16 21  1  0  0  0
 16 31  1  0  0  0
 17 18  1  0  0  0
 17 91  1  0  0  0
 18 19  2  0  0  0
 18 92  1  0  0  0
 19 20  1  0  0  0
 19 24  1  0  0  0
 20 21  2  0  0  0
 20 93  1  0  0  0
 21 23  1  0  0  0
 22 28  1  0  0  0
 22 32  2  0  0  0
 26 27  1  0  0  0
 28 94  1  0  0  0
 28 95  1  0  0  0
 29 96  1  0  0  0
 29 97  1  0  0  0
 33 34  1  0  0  0
 33 66  1  0  0  0
 33 70  2  0  0  0
 34 36  1  0  0  0
 34 59  1  0  0  0
 34 98  1  0  0  0
 35 44  2  0  0  0
 35 45  1  0  0  0
 35 68  1  0  0  0
 36 56  1  0  0  0
 36 99  1  0  0  0
 37 39  1  0  0  0
 37 47  1  0  0  0
 37 66  1  0  0  0
 37100  1  0  0  0
 38 43  2  0  0  0
 38 46  1  0  0  0
 38 47  1  0  0  0
 39 64  1  0  0  0
 39 67  2  0  0  0
 40 52  1  0  0  0
 40 53  2  0  0  0
 40 58  1  0  0  0
 41101  1  0  0  0
 41102  1  0  0  0
 41103  1  0  0  0
 41 48  1  0  0  0
 42 43  1  0  0  0
 42 66  1  0  0  0
 42104  1  0  0  0
 42105  1  0  0  0
 43 44  1  0  0  0
 44106  1  0  0  0
 45 46  2  0  0  0
 45107  1  0  0  0
 46108  1  0  0  0
 47109  1  0  0  0
 47110  1  0  0  0
 48 56  1  0  0  0
 48 65  1  0  0  0
 48111  1  0  0  0
 49 50  1  0  0  0
 49 53  1  0  0  0
 49 64  1  0  0  0
 49112  1  0  0  0
 50 51  1  0  0  0
 50113  1  0  0  0
 50114  1  0  0  0
 51 52  1  0  0  0
 51115  1  0  0  0
 51116  1  0  0  0
 52117  1  0  0  0
 52118  1  0  0  0
 53 54  1  0  0  0
 54 55  2  0  0  0
 54119  1  0  0  0
 55 57  1  0  0  0
 55120  1  0  0  0
 56 69  2  0  0  0
 57 58  2  0  0  0
 57121  1  0  0  0
 58122  1  0  0  0
 59 60  1  0  0  0
 59 61  1  0  0  0
 59 62  1  0  0  0
 60123  1  0  0  0
 60124  1  0  0  0
 60125  1  0  0  0
 61126  1  0  0  0
 61127  1  0  0  0
 61128  1  0  0  0
 62129  1  0  0  0
 62130  1  0  0  0
 62131  1  0  0  0
 63 65  1  0  0  0
 63132  1  0  0  0
 63133  1  0  0  0
 63134  1  0  0  0
 64135  1  0  0  0
 65136  1  0  0  0
 68 74  1  0  0  0
 71 73  1  0  0  0
 71 74  1  0  0  0
 71 77  2  0  0  0
 72 73  1  0  0  0
 72 75  1  0  0  0
 72 76  2  0  0  0
 73137  1  0  0  0
 73138  1  0  0  0
 74139  1  0  0  0
 74140  1  0  0  0
 75141  1  0  0  0
 76142  1  0  0  0
 76143  1  0  0  0
M  CHG  1  76   1
M  ISO  4   1 100  68 101  74 101  75 100
M  END
> <chiral flag>
0

> <version>
0

> <s_m_source_file>
/data/baiqing/PycharmProjects/Reinvent-master-3.2/result/LINK_invent/BTK/process_docking_weight1_custom_product_contain_oxygen_bond_distance_aromatic_linkinvent_7_9_3/rearranged_h_0076.sdf

> <i_m_source_file_index>
48

> <r_mmod_Potential_Energy-OPLS-2005>
2395.90966796875

> <r_mmod_Stretch_Energy-OPLS-2005>
1170.79443359375

> <r_mmod_Bend_Energy-OPLS-2005>
609.350524902344

> <r_mmod_Torsional_Energy-OPLS-2005>
206.560897827148

> <r_mmod_Improper_Torsional_Energy-OPLS-2005>
4.5830020904541

> <r_mmod_Van_der_Waal_Energy-OPLS-2005>
109.403991699219

> <r_mmod_Electrostatic_Energy-OPLS-2005>
-111.339691162109

> <r_mmod_Solvation_Energy-OPLS-2005>
-496.615478515625

> <b_mmod_Minimization_Converged-OPLS-2005>
0

> <r_mmod_RMS_Derivative-OPLS-2005>
0.711792469024658

$$$$
48
                    3D
 Structure written by MMmdl.
154163  0  0  1  0            999 V2000
  -30.5938  -14.7966   20.4603 C   0  0  0  0  0  0
  -30.4390  -12.4968   19.4702 C   0  0  0  0  0  0
  -29.5122  -12.5031   18.2358 C   0  0  0  0  0  0
  -28.0411  -12.3180   18.6538 C   0  0  0  0  0  0
  -27.6370  -13.2322   19.8416 C   0  0  2  0  0  0
  -28.6832  -13.1944   20.9756 C   0  0  0  0  0  0
  -25.2526  -13.8177   20.5735 C   0  0  0  0  0  0
  -24.1811  -13.0416   20.9217 C   0  0  0  0  0  0
  -24.6411  -11.6903   20.8745 C   0  0  0  0  0  0
  -23.9086  -10.4282   21.0389 C   0  0  0  0  0  0
  -24.3631   -9.4200   21.9167 C   0  0  0  0  0  0
  -23.6296   -8.2242   22.0757 C   0  0  0  0  0  0
  -22.4278   -8.0282   21.3542 C   0  0  0  0  0  0
  -21.9905   -9.0261   20.4652 C   0  0  0  0  0  0
  -22.7245  -10.2133   20.3054 C   0  0  0  0  0  0
  -21.6852   -6.0736   22.5283 C   0  0  0  0  0  0
  -21.4007   -6.5641   23.8211 C   0  0  0  0  0  0
  -21.3661   -5.6795   24.9170 C   0  0  0  0  0  0
  -21.6050   -4.3059   24.7228 C   0  0  0  0  0  0
  -21.8817   -3.8155   23.4344 C   0  0  0  0  0  0
  -21.9196   -4.6964   22.3402 C   0  0  0  0  0  0
  -22.7842  -13.5205   21.1877 C   0  0  0  0  0  0
  -22.1656   -4.2145   21.0973 F   0  0  0  0  0  0
  -21.5639   -3.4551   25.7740 F   0  0  0  0  0  0
  -29.9721  -13.5673   20.3832 N   0  0  0  0  0  0
  -26.2929  -12.9382   20.3249 N   0  0  0  0  0  0
  -25.9331  -11.6529   20.5718 N   0  0  0  0  0  0
  -22.0489  -12.8192   22.0423 N   0  0  0  0  0  0
  -25.4270  -15.1901   20.4265 N   0  0  0  0  0  0
  -31.7958  -14.8694   20.1857 O   0  0  0  0  0  0
  -21.6639   -6.8883   21.4242 O   0  0  0  0  0  0
  -22.3540  -14.5518   20.6731 O   0  0  0  0  0  0
  -24.6340  -31.8538   23.1980 C   0  0  0  0  0  0
  -25.9156  -32.4744   23.8326 C   0  0  1  0  0  0
  -27.2133  -27.2429   20.1432 C   0  0  0  0  0  0
  -25.5930  -33.8553   24.2234 N   0  0  0  0  0  0
  -23.4319  -30.4769   21.5414 C   0  0  2  0  0  0
  -24.8793  -28.9210   20.1158 C   0  0  0  0  0  0
  -22.7526  -29.4603   22.4915 C   0  0  0  0  0  0
  -18.0322  -28.1377   22.8442 C   0  0  0  0  0  0
  -24.1497  -36.7281   23.2636 C   0  0  0  0  0  0
  -25.9817  -30.7623   21.3806 C   0  0  0  0  0  0
  -26.0542  -29.3851   20.7210 C   0  0  0  0  0  0
  -27.2300  -28.5619   20.7174 C   0  0  0  0  0  0
  -26.0117  -26.8466   19.5213 C   0  0  0  0  0  0
  -24.8629  -27.6599   19.5023 C   0  0  0  0  0  0
  -23.6527  -29.8124   20.1586 C   0  0  0  0  0  0
  -25.4120  -36.3054   24.0310 C   0  0  1  0  0  0
  -20.5929  -28.3676   23.1251 C   0  0  2  0  0  0
  -20.6814  -26.9432   22.5299 C   0  0  0  0  0  0
  -19.5790  -26.6492   21.5076 C   0  0  0  0  0  0
  -18.1962  -26.7969   22.1485 C   0  0  0  0  0  0
  -19.1577  -28.8824   23.2872 C   0  0  0  0  0  0
  -18.9484  -30.1404   23.8932 C   0  0  0  0  0  0
  -17.6486  -30.6547   24.0591 C   0  0  0  0  0  0
  -25.9064  -34.9428   23.5074 C   0  0  0  0  0  0
  -16.5378  -29.9053   23.6338 C   0  0  0  0  0  0
  -16.7309  -28.6488   23.0320 C   0  0  0  0  0  0
  -26.4510  -31.6589   25.0739 C   0  0  0  0  0  0
  -25.3733  -31.3769   26.1461 C   0  0  0  0  0  0
  -27.0360  -30.2989   24.6265 C   0  0  0  0  0  0
  -27.6036  -32.4343   25.7531 C   0  0  0  0  0  0
  -27.5578  -37.1792   24.8459 C   0  0  0  0  0  0
  -21.4231  -29.3054   22.3666 N   0  0  0  0  0  0
  -26.4297  -37.3751   23.9399 N   0  0  0  0  0  0
  -24.7009  -31.0488   22.0960 N   0  0  0  0  0  0
  -23.4223  -28.8130   23.3010 O   0  0  0  0  0  0
  -28.2817  -26.3121   20.1500 O   0  0  0  0  0  0
  -26.5647  -34.8915   22.4656 O   0  0  0  0  0  0
  -23.5480  -32.1352   23.7264 O   0  0  0  0  0  0
  -31.7897  -19.0366   21.6338 C   0  0  0  0  0  0
  -30.9658  -20.1316   21.3047 C   0  0  0  0  0  0
  -31.4040  -17.7076   21.3683 C   0  0  0  0  0  0
  -29.3338  -18.5620   20.4195 C   0  0  0  0  0  0
  -29.7167  -19.9607   20.6710 C   0  0  0  0  0  0
  -30.1670  -17.3980   20.7586 C   0  0  0  0  0  0
  -29.0480  -22.4994   20.9739 C   0  0  0  0  0  0
  -28.4493  -23.5442   20.3146 C   0  0  0  0  0  0
  -27.9921  -22.8932   19.1042 C   0  0  0  0  0  0
  -28.3175  -21.4550   19.1425 C   0  0  0  0  0  0
  -27.3912  -23.4771   18.0525 C   0  0  0  0  0  0
  -28.0651  -25.0055   20.8760 C   0  0  0  0  0  0
  -28.9858  -21.2258   20.2988 N   0  0  0  0  0  0
  -29.8068  -15.9508   20.5836 N   0  0  0  0  0  0
  -28.0455  -20.6054   18.2847 O   0  0  0  0  0  0
  -31.4715  -12.6473   19.1528 H   0  0  0  0  0  0
  -30.4195  -11.5294   19.9737 H   0  0  0  0  0  0
  -29.8081  -11.7132   17.5433 H   0  0  0  0  0  0
  -29.6237  -13.4456   17.6980 H   0  0  0  0  0  0
  -27.9139  -11.2726   18.9374 H   0  0  0  0  0  0
  -27.3804  -12.4843   17.8016 H   0  0  0  0  0  0
  -27.6185  -14.2463   19.4434 H   0  0  0  0  0  0
  -28.7404  -12.2008   21.4225 H   0  0  0  0  0  0
  -28.4126  -13.8827   21.7782 H   0  0  0  0  0  0
  -25.2771   -9.5673   22.4737 H   0  0  0  0  0  0
  -24.0014   -7.4642   22.7484 H   0  0  0  0  0  0
  -21.0841   -8.8787   19.8966 H   0  0  0  0  0  0
  -22.3698  -10.9678   19.6183 H   0  0  0  0  0  0
  -21.1979   -7.6148   23.9707 H   0  0  0  0  0  0
  -21.1483   -6.0528   25.9068 H   0  0  0  0  0  0
  -22.0593   -2.7623   23.2851 H   0  0  0  0  0  0
  -22.4105  -11.9809   22.4734 H   0  0  0  0  0  0
  -21.1126  -13.1251   22.2670 H   0  0  0  0  0  0
  -24.6797  -15.8550   20.5990 H   0  0  0  0  0  0
  -26.2922  -15.6335   20.1484 H   0  0  0  0  0  0
  -26.7226  -32.5387   23.1064 H   0  0  0  0  0  0
  -25.0045  -33.9684   25.0348 H   0  0  0  0  0  0
  -22.7306  -31.3011   21.3947 H   0  0  0  0  0  0
  -23.3756  -35.9620   23.3292 H   0  0  0  0  0  0
  -24.3584  -36.8913   22.2055 H   0  0  0  0  0  0
  -23.7274  -37.6480   23.6683 H   0  0  0  0  0  0
  -26.1314  -31.5259   20.6153 H   0  0  0  0  0  0
  -26.8549  -30.8040   22.0203 H   0  0  0  0  0  0
  -28.1328  -28.9175   21.1940 H   0  0  0  0  0  0
  -25.9386  -25.8708   19.0695 H   0  0  0  0  0  0
  -23.9614  -27.2952   19.0308 H   0  0  0  0  0  0
  -23.7843  -30.5886   19.4049 H   0  0  0  0  0  0
  -22.7696  -29.2490   19.8507 H   0  0  0  0  0  0
  -25.1317  -36.1876   25.0803 H   0  0  0  0  0  0
  -21.0034  -28.3171   24.1363 H   0  0  0  0  0  0
  -20.5750  -26.2239   23.3434 H   0  0  0  0  0  0
  -21.6667  -26.7504   22.1039 H   0  0  0  0  0  0
  -19.6976  -25.6462   21.0956 H   0  0  0  0  0  0
  -19.6725  -27.3418   20.6697 H   0  0  0  0  0  0
  -17.4267  -26.6805   21.3834 H   0  0  0  0  0  0
  -18.0333  -26.0023   22.8783 H   0  0  0  0  0  0
  -19.7956  -30.7202   24.2350 H   0  0  0  0  0  0
  -17.5041  -31.6216   24.5223 H   0  0  0  0  0  0
  -15.5371  -30.2944   23.7663 H   0  0  0  0  0  0
  -15.8727  -28.0816   22.6989 H   0  0  0  0  0  0
  -24.5890  -30.7121   25.7820 H   0  0  0  0  0  0
  -24.8955  -32.2962   26.4861 H   0  0  0  0  0  0
  -25.8049  -30.8973   27.0259 H   0  0  0  0  0  0
  -26.2965  -29.6734   24.1250 H   0  0  0  0  0  0
  -27.3975  -29.7246   25.4809 H   0  0  0  0  0  0
  -27.8875  -30.4236   23.9570 H   0  0  0  0  0  0
  -27.2600  -33.3630   26.2103 H   0  0  0  0  0  0
  -28.3869  -32.6928   25.0397 H   0  0  0  0  0  0
  -28.0695  -31.8490   26.5465 H   0  0  0  0  0  0
  -28.2592  -38.0089   24.7487 H   0  0  0  0  0  0
  -28.1072  -36.2614   24.6302 H   0  0  0  0  0  0
  -27.2295  -37.1465   25.8863 H   0  0  0  0  0  0
  -20.9423  -29.8753   21.6848 H   0  0  0  0  0  0
  -26.0156  -38.2824   24.1382 H   0  0  0  0  0  0
  -32.7470  -19.2201   22.1033 H   0  0  0  0  0  0
  -31.3353  -21.1265   21.5168 H   0  0  0  0  0  0
  -32.0826  -16.9212   21.6679 H   0  0  0  0  0  0
  -28.3742  -18.3805   19.9549 H   0  0  0  0  0  0
  -29.4528  -22.5053   21.9750 H   0  0  0  0  0  0
  -27.2048  -24.5384   18.0288 H   0  0  0  0  0  0
  -27.1007  -22.9059   17.1822 H   0  0  0  0  0  0
  -28.6073  -25.1157   21.8147 H   0  0  0  0  0  0
  -27.0203  -24.9401   21.1820 H   0  0  0  0  0  0
  -28.8171  -15.7602   20.5766 H   0  0  0  0  0  0
  1 25  1  0  0  0
  1 30  2  0  0  0
  1 84  1  0  0  0
  2  3  1  0  0  0
  2 25  1  0  0  0
  2 86  1  0  0  0
  2 87  1  0  0  0
  3  4  1  0  0  0
  3 88  1  0  0  0
  3 89  1  0  0  0
  4  5  1  0  0  0
  4 90  1  0  0  0
  4 91  1  0  0  0
  5  6  1  0  0  0
  5 26  1  0  0  0
  5 92  1  0  0  0
  6 25  1  0  0  0
  6 93  1  0  0  0
  6 94  1  0  0  0
  7  8  2  0  0  0
  7 26  1  0  0  0
  7 29  1  0  0  0
  8  9  1  0  0  0
  8 22  1  0  0  0
  9 10  1  0  0  0
  9 27  2  0  0  0
 10 11  2  0  0  0
 10 15  1  0  0  0
 11 12  1  0  0  0
 11 95  1  0  0  0
 12 13  2  0  0  0
 12 96  1  0  0  0
 13 14  1  0  0  0
 13 31  1  0  0  0
 14 15  2  0  0  0
 14 97  1  0  0  0
 15 98  1  0  0  0
 16 17  2  0  0  0
 16 21  1  0  0  0
 16 31  1  0  0  0
 17 18  1  0  0  0
 17 99  1  0  0  0
 18 19  2  0  0  0
 18100  1  0  0  0
 19 20  1  0  0  0
 19 24  1  0  0  0
 20 21  2  0  0  0
 20101  1  0  0  0
 21 23  1  0  0  0
 22 28  1  0  0  0
 22 32  2  0  0  0
 26 27  1  0  0  0
 28102  1  0  0  0
 28103  1  0  0  0
 29104  1  0  0  0
 29105  1  0  0  0
 33 34  1  0  0  0
 33 66  1  0  0  0
 33 70  2  0  0  0
 34 36  1  0  0  0
 34 59  1  0  0  0
 34106  1  0  0  0
 35 44  2  0  0  0
 35 45  1  0  0  0
 35 68  1  0  0  0
 36 56  1  0  0  0
 36107  1  0  0  0
 37 39  1  0  0  0
 37 47  1  0  0  0
 37 66  1  0  0  0
 37108  1  0  0  0
 38 43  2  0  0  0
 38 46  1  0  0  0
 38 47  1  0  0  0
 39 64  1  0  0  0
 39 67  2  0  0  0
 40 52  1  0  0  0
 40 53  2  0  0  0
 40 58  1  0  0  0
 41109  1  0  0  0
 41110  1  0  0  0
 41111  1  0  0  0
 41 48  1  0  0  0
 42 43  1  0  0  0
 42 66  1  0  0  0
 42112  1  0  0  0
 42113  1  0  0  0
 43 44  1  0  0  0
 44114  1  0  0  0
 45 46  2  0  0  0
 45115  1  0  0  0
 46116  1  0  0  0
 47117  1  0  0  0
 47118  1  0  0  0
 48 56  1  0  0  0
 48 65  1  0  0  0
 48119  1  0  0  0
 49 50  1  0  0  0
 49 53  1  0  0  0
 49 64  1  0  0  0
 49120  1  0  0  0
 50 51  1  0  0  0
 50121  1  0  0  0
 50122  1  0  0  0
 51 52  1  0  0  0
 51123  1  0  0  0
 51124  1  0  0  0
 52125  1  0  0  0
 52126  1  0  0  0
 53 54  1  0  0  0
 54 55  2  0  0  0
 54127  1  0  0  0
 55 57  1  0  0  0
 55128  1  0  0  0
 56 69  2  0  0  0
 57 58  2  0  0  0
 57129  1  0  0  0
 58130  1  0  0  0
 59 60  1  0  0  0
 59 61  1  0  0  0
 59 62  1  0  0  0
 60131  1  0  0  0
 60132  1  0  0  0
 60133  1  0  0  0
 61134  1  0  0  0
 61135  1  0  0  0
 61136  1  0  0  0
 62137  1  0  0  0
 62138  1  0  0  0
 62139  1  0  0  0
 63 65  1  0  0  0
 63140  1  0  0  0
 63141  1  0  0  0
 63142  1  0  0  0
 64143  1  0  0  0
 65144  1  0  0  0
 68 82  1  0  0  0
 71 72  2  0  0  0
 71 73  1  0  0  0
 71145  1  0  0  0
 72 75  1  0  0  0
 72146  1  0  0  0
 73 76  2  0  0  0
 73147  1  0  0  0
 74 75  2  0  0  0
 74 76  1  0  0  0
 74148  1  0  0  0
 75 83  1  0  0  0
 76 84  1  0  0  0
 77 78  2  0  0  0
 77 83  1  0  0  0
 77149  1  0  0  0
 78 79  1  0  0  0
 78 82  1  0  0  0
 79 80  1  0  0  0
 79 81  2  0  0  0
 80 83  1  0  0  0
 80 85  2  0  0  0
 81150  1  0  0  0
 81151  1  0  0  0
 82152  1  0  0  0
 82153  1  0  0  0
 84154  1  0  0  0
M  ISO  4   1 100  68 101  82 101  84 100
M  END
> <chiral flag>
0

> <version>
0

> <s_m_source_file>
/data/baiqing/PycharmProjects/Reinvent-master-3.2/result/LINK_invent/BTK/process_docking_weight1_custom_product_contain_oxygen_bond_distance_aromatic_linkinvent_7_9_3/rearranged_h_0076.sdf

> <i_m_source_file_index>
49

> <r_mmod_Potential_Energy-OPLS-2005>
380.10009765625

> <r_mmod_Stretch_Energy-OPLS-2005>
143.331832885742

> <r_mmod_Bend_Energy-OPLS-2005>
247.346786499023

> <r_mmod_Torsional_Energy-OPLS-2005>
268.156158447266

> <r_mmod_Improper_Torsional_Energy-OPLS-2005>
7.04195261001587

> <r_mmod_Van_der_Waal_Energy-OPLS-2005>
133.510635375977

> <r_mmod_Electrostatic_Energy-OPLS-2005>
-308.098602294922

> <r_mmod_Solvation_Energy-OPLS-2005>
-217.617630004883

> <b_mmod_Minimization_Converged-OPLS-2005>
0

> <r_mmod_RMS_Derivative-OPLS-2005>
2.72088432312012

$$$$
49
                    3D
 Structure written by MMmdl.
158167  0  0  1  0            999 V2000
  -30.6437  -14.6893   20.5824 C   0  0  0  0  0  0
  -30.4351  -12.4464   19.4676 C   0  0  0  0  0  0
  -29.5088  -12.5273   18.2343 C   0  0  0  0  0  0
  -28.0367  -12.3382   18.6443 C   0  0  0  0  0  0
  -27.6478  -13.2223   19.8562 C   0  0  2  0  0  0
  -28.6819  -13.0990   20.9909 C   0  0  0  0  0  0
  -25.2535  -13.8181   20.5685 C   0  0  0  0  0  0
  -24.1808  -13.0437   20.9187 C   0  0  0  0  0  0
  -24.6389  -11.6912   20.8724 C   0  0  0  0  0  0
  -23.9060  -10.4288   21.0393 C   0  0  0  0  0  0
  -24.3616   -9.4207   21.9174 C   0  0  0  0  0  0
  -23.6298   -8.2240   22.0747 C   0  0  0  0  0  0
  -22.4276   -8.0278   21.3542 C   0  0  0  0  0  0
  -21.9904   -9.0245   20.4642 C   0  0  0  0  0  0
  -22.7227  -10.2128   20.3046 C   0  0  0  0  0  0
  -21.6849   -6.0739   22.5286 C   0  0  0  0  0  0
  -21.4012   -6.5644   23.8218 C   0  0  0  0  0  0
  -21.3661   -5.6796   24.9180 C   0  0  0  0  0  0
  -21.6039   -4.3057   24.7227 C   0  0  0  0  0  0
  -21.8823   -3.8152   23.4349 C   0  0  0  0  0  0
  -21.9192   -4.6969   22.3409 C   0  0  0  0  0  0
  -22.7835  -13.5227   21.1865 C   0  0  0  0  0  0
  -22.1663   -4.2154   21.0985 F   0  0  0  0  0  0
  -21.5625   -3.4542   25.7742 F   0  0  0  0  0  0
  -30.0003  -13.4720   20.4479 N   0  0  0  0  0  0
  -26.2951  -12.9367   20.3262 N   0  0  0  0  0  0
  -25.9311  -11.6512   20.5707 N   0  0  0  0  0  0
  -22.0497  -12.8208   22.0427 N   0  0  0  0  0  0
  -25.4259  -15.1908   20.4161 N   0  0  0  0  0  0
  -31.7377  -14.8668   20.0344 O   0  0  0  0  0  0
  -21.6636   -6.8880   21.4245 O   0  0  0  0  0  0
  -22.3514  -14.5529   20.6709 O   0  0  0  0  0  0
  -24.6317  -31.8550   23.1989 C   0  0  0  0  0  0
  -25.9149  -32.4746   23.8322 C   0  0  1  0  0  0
  -27.2212  -27.2683   20.1233 C   0  0  0  0  0  0
  -25.5961  -33.8553   24.2259 N   0  0  0  0  0  0
  -23.4273  -30.4799   21.5416 C   0  0  2  0  0  0
  -24.8744  -28.9295   20.1074 C   0  0  0  0  0  0
  -22.7496  -29.4606   22.4901 C   0  0  0  0  0  0
  -18.0293  -28.1390   22.8466 C   0  0  0  0  0  0
  -24.1495  -36.7278   23.2633 C   0  0  0  0  0  0
  -25.9737  -30.7708   21.3778 C   0  0  0  0  0  0
  -26.0458  -29.3940   20.7188 C   0  0  0  0  0  0
  -27.2205  -28.5754   20.7185 C   0  0  0  0  0  0
  -26.0287  -26.8794   19.4696 C   0  0  0  0  0  0
  -24.8709  -27.6806   19.4706 C   0  0  0  0  0  0
  -23.6453  -29.8169   20.1564 C   0  0  0  0  0  0
  -25.4110  -36.3061   24.0329 C   0  0  1  0  0  0
  -20.5897  -28.3704   23.1260 C   0  0  2  0  0  0
  -20.6785  -26.9425   22.5407 C   0  0  0  0  0  0
  -19.5764  -26.6387   21.5211 C   0  0  0  0  0  0
  -18.1937  -26.7933   22.1613 C   0  0  0  0  0  0
  -19.1548  -28.8860   23.2858 C   0  0  0  0  0  0
  -18.9470  -30.1460   23.8881 C   0  0  0  0  0  0
  -17.6469  -30.6588   24.0558 C   0  0  0  0  0  0
  -25.9048  -34.9435   23.5082 C   0  0  0  0  0  0
  -16.5355  -29.9084   23.6339 C   0  0  0  0  0  0
  -16.7279  -28.6506   23.0342 C   0  0  0  0  0  0
  -26.4520  -31.6562   25.0704 C   0  0  0  0  0  0
  -25.3763  -31.3749   26.1446 C   0  0  0  0  0  0
  -27.0326  -30.2955   24.6198 C   0  0  0  0  0  0
  -27.6096  -32.4284   25.7461 C   0  0  0  0  0  0
  -27.5581  -37.1774   24.8457 C   0  0  0  0  0  0
  -21.4208  -29.3037   22.3635 N   0  0  0  0  0  0
  -26.4275  -37.3767   23.9423 N   0  0  0  0  0  0
  -24.6966  -31.0536   22.0952 N   0  0  0  0  0  0
  -23.4197  -28.8155   23.3007 O   0  0  0  0  0  0
  -28.3153  -26.3710   20.1971 O   0  0  0  0  0  0
  -26.5616  -34.8915   22.4646 O   0  0  0  0  0  0
  -23.5472  -32.1368   23.7298 O   0  0  0  0  0  0
  -28.7983  -19.3291   21.7552 C   0  0  0  0  0  0
  -30.1282  -19.3041   19.8167 C   0  0  0  0  0  0
  -29.0002  -17.9229   21.9169 C   0  0  0  0  0  0
  -30.3411  -17.8834   19.9612 C   0  0  0  0  0  0
  -29.3662  -20.1212   20.7168 C   0  0  0  0  0  0
  -29.8070  -17.1295   21.0481 C   0  0  0  0  0  0
  -28.4797  -22.6013   21.3566 C   0  0  0  0  0  0
  -29.4159  -22.4690   19.5119 C   0  0  0  0  0  0
  -29.1042  -23.7338   20.4233 C   0  0  2  0  0  0
  -30.2957  -24.3854   21.1317 C   0  0  0  0  0  0
  -30.0775  -15.3708   22.8017 C   0  0  0  0  0  0
  -28.0813  -24.8998   19.9624 C   0  0  0  0  0  0
  -29.1901  -21.5985   20.6728 N   0  0  0  0  0  0
  -30.0640  -15.6871   21.3613 N   0  0  0  0  0  0
  -27.6890  -22.5402   22.2743 O   0  0  0  0  0  0
  -31.4745  -12.5793   19.1637 H   0  0  0  0  0  0
  -30.3865  -11.4541   19.9185 H   0  0  0  0  0  0
  -29.7915  -11.7727   17.4988 H   0  0  0  0  0  0
  -29.6316  -13.4951   17.7452 H   0  0  0  0  0  0
  -27.8979  -11.2867   18.8981 H   0  0  0  0  0  0
  -27.3761  -12.5377   17.7992 H   0  0  0  0  0  0
  -27.6626  -14.2544   19.5061 H   0  0  0  0  0  0
  -28.7090  -12.0811   21.3827 H   0  0  0  0  0  0
  -28.3695  -13.7242   21.8217 H   0  0  0  0  0  0
  -25.2767   -9.5687   22.4733 H   0  0  0  0  0  0
  -24.0012   -7.4637   22.7463 H   0  0  0  0  0  0
  -21.0836   -8.8763   19.8952 H   0  0  0  0  0  0
  -22.3685  -10.9661   19.6151 H   0  0  0  0  0  0
  -21.1999   -7.6149   23.9721 H   0  0  0  0  0  0
  -21.1477   -6.0526   25.9082 H   0  0  0  0  0  0
  -22.0594   -2.7614   23.2850 H   0  0  0  0  0  0
  -22.4128  -11.9876   22.4810 H   0  0  0  0  0  0
  -21.1115  -13.1224   22.2641 H   0  0  0  0  0  0
  -24.6677  -15.8511   20.5482 H   0  0  0  0  0  0
  -26.2894  -15.6321   20.1252 H   0  0  0  0  0  0
  -26.7213  -32.5406   23.1056 H   0  0  0  0  0  0
  -25.0146  -33.9686   25.0434 H   0  0  0  0  0  0
  -22.7241  -31.3031   21.3984 H   0  0  0  0  0  0
  -23.3766  -35.9602   23.3268 H   0  0  0  0  0  0
  -24.3592  -36.8924   22.2053 H   0  0  0  0  0  0
  -23.7238  -37.6466   23.6670 H   0  0  0  0  0  0
  -26.1133  -31.5331   20.6098 H   0  0  0  0  0  0
  -26.8509  -30.8166   22.0111 H   0  0  0  0  0  0
  -28.1137  -28.9263   21.2173 H   0  0  0  0  0  0
  -25.9564  -25.9316   18.9584 H   0  0  0  0  0  0
  -23.9790  -27.3223   18.9758 H   0  0  0  0  0  0
  -23.7722  -30.5963   19.4039 H   0  0  0  0  0  0
  -22.7638  -29.2523   19.8480 H   0  0  0  0  0  0
  -25.1295  -36.1888   25.0823 H   0  0  0  0  0  0
  -20.9993  -28.3293   24.1378 H   0  0  0  0  0  0
  -20.5671  -26.2328   23.3614 H   0  0  0  0  0  0
  -21.6658  -26.7435   22.1215 H   0  0  0  0  0  0
  -19.6923  -25.6293   21.1250 H   0  0  0  0  0  0
  -19.6716  -27.3194   20.6737 H   0  0  0  0  0  0
  -17.4217  -26.6683   21.4001 H   0  0  0  0  0  0
  -18.0326  -26.0080   22.9019 H   0  0  0  0  0  0
  -19.7940  -30.7283   24.2250 H   0  0  0  0  0  0
  -17.5022  -31.6263   24.5168 H   0  0  0  0  0  0
  -15.5350  -30.2980   23.7681 H   0  0  0  0  0  0
  -15.8678  -28.0831   22.7053 H   0  0  0  0  0  0
  -24.5943  -30.7067   25.7813 H   0  0  0  0  0  0
  -24.8952  -32.2937   26.4807 H   0  0  0  0  0  0
  -25.8097  -30.8991   27.0250 H   0  0  0  0  0  0
  -26.2870  -29.6710   24.1251 H   0  0  0  0  0  0
  -27.4008  -29.7215   25.4712 H   0  0  0  0  0  0
  -27.8776  -30.4192   23.9420 H   0  0  0  0  0  0
  -27.2728  -33.3612   26.1995 H   0  0  0  0  0  0
  -28.3915  -32.6774   25.0277 H   0  0  0  0  0  0
  -28.0746  -31.8425   26.5401 H   0  0  0  0  0  0
  -28.2581  -38.0090   24.7523 H   0  0  0  0  0  0
  -28.1091  -36.2614   24.6238 H   0  0  0  0  0  0
  -27.2318  -37.1386   25.8868 H   0  0  0  0  0  0
  -20.9396  -29.8744   21.6828 H   0  0  0  0  0  0
  -26.0152  -38.2832   24.1458 H   0  0  0  0  0  0
  -28.1862  -19.8233   22.4966 H   0  0  0  0  0  0
  -30.6113  -19.7908   18.9829 H   0  0  0  0  0  0
  -28.5156  -17.4661   22.7662 H   0  0  0  0  0  0
  -30.9719  -17.3886   19.2372 H   0  0  0  0  0  0
  -30.4363  -22.4323   19.1265 H   0  0  0  0  0  0
  -28.6849  -22.3018   18.7173 H   0  0  0  0  0  0
  -31.0264  -23.6465   21.4624 H   0  0  0  0  0  0
  -29.9786  -24.9433   22.0144 H   0  0  0  0  0  0
  -30.8183  -25.0783   20.4721 H   0  0  0  0  0  0
  -30.6834  -16.1000   23.3419 H   0  0  0  0  0  0
  -30.5006  -14.3903   23.0363 H   0  0  0  0  0  0
  -29.0723  -15.3865   23.2230 H   0  0  0  0  0  0
  -27.1155  -24.6612   20.4110 H   0  0  0  0  0  0
  -27.9288  -24.7916   18.8882 H   0  0  0  0  0  0
  1 25  1  0  0  0
  1 30  2  0  0  0
  1 84  1  0  0  0
  2  3  1  0  0  0
  2 25  1  0  0  0
  2 86  1  0  0  0
  2 87  1  0  0  0
  3  4  1  0  0  0
  3 88  1  0  0  0
  3 89  1  0  0  0
  4  5  1  0  0  0
  4 90  1  0  0  0
  4 91  1  0  0  0
  5  6  1  0  0  0
  5 26  1  0  0  0
  5 92  1  0  0  0
  6 25  1  0  0  0
  6 93  1  0  0  0
  6 94  1  0  0  0
  7  8  2  0  0  0
  7 26  1  0  0  0
  7 29  1  0  0  0
  8  9  1  0  0  0
  8 22  1  0  0  0
  9 10  1  0  0  0
  9 27  2  0  0  0
 10 11  2  0  0  0
 10 15  1  0  0  0
 11 12  1  0  0  0
 11 95  1  0  0  0
 12 13  2  0  0  0
 12 96  1  0  0  0
 13 14  1  0  0  0
 13 31  1  0  0  0
 14 15  2  0  0  0
 14 97  1  0  0  0
 15 98  1  0  0  0
 16 17  2  0  0  0
 16 21  1  0  0  0
 16 31  1  0  0  0
 17 18  1  0  0  0
 17 99  1  0  0  0
 18 19  2  0  0  0
 18100  1  0  0  0
 19 20  1  0  0  0
 19 24  1  0  0  0
 20 21  2  0  0  0
 20101  1  0  0  0
 21 23  1  0  0  0
 22 28  1  0  0  0
 22 32  2  0  0  0
 26 27  1  0  0  0
 28102  1  0  0  0
 28103  1  0  0  0
 29104  1  0  0  0
 29105  1  0  0  0
 33 34  1  0  0  0
 33 66  1  0  0  0
 33 70  2  0  0  0
 34 36  1  0  0  0
 34 59  1  0  0  0
 34106  1  0  0  0
 35 44  2  0  0  0
 35 45  1  0  0  0
 35 68  1  0  0  0
 36 56  1  0  0  0
 36107  1  0  0  0
 37 39  1  0  0  0
 37 47  1  0  0  0
 37 66  1  0  0  0
 37108  1  0  0  0
 38 43  2  0  0  0
 38 46  1  0  0  0
 38 47  1  0  0  0
 39 64  1  0  0  0
 39 67  2  0  0  0
 40 52  1  0  0  0
 40 53  2  0  0  0
 40 58  1  0  0  0
 41109  1  0  0  0
 41110  1  0  0  0
 41111  1  0  0  0
 41 48  1  0  0  0
 42 43  1  0  0  0
 42 66  1  0  0  0
 42112  1  0  0  0
 42113  1  0  0  0
 43 44  1  0  0  0
 44114  1  0  0  0
 45 46  2  0  0  0
 45115  1  0  0  0
 46116  1  0  0  0
 47117  1  0  0  0
 47118  1  0  0  0
 48 56  1  0  0  0
 48 65  1  0  0  0
 48119  1  0  0  0
 49 50  1  0  0  0
 49 53  1  0  0  0
 49 64  1  0  0  0
 49120  1  0  0  0
 50 51  1  0  0  0
 50121  1  0  0  0
 50122  1  0  0  0
 51 52  1  0  0  0
 51123  1  0  0  0
 51124  1  0  0  0
 52125  1  0  0  0
 52126  1  0  0  0
 53 54  1  0  0  0
 54 55  2  0  0  0
 54127  1  0  0  0
 55 57  1  0  0  0
 55128  1  0  0  0
 56 69  2  0  0  0
 57 58  2  0  0  0
 57129  1  0  0  0
 58130  1  0  0  0
 59 60  1  0  0  0
 59 61  1  0  0  0
 59 62  1  0  0  0
 60131  1  0  0  0
 60132  1  0  0  0
 60133  1  0  0  0
 61134  1  0  0  0
 61135  1  0  0  0
 61136  1  0  0  0
 62137  1  0  0  0
 62138  1  0  0  0
 62139  1  0  0  0
 63 65  1  0  0  0
 63140  1  0  0  0
 63141  1  0  0  0
 63142  1  0  0  0
 64143  1  0  0  0
 65144  1  0  0  0
 68 82  1  0  0  0
 71 73  2  0  0  0
 71 75  1  0  0  0
 71145  1  0  0  0
 72 74  1  0  0  0
 72 75  2  0  0  0
 72146  1  0  0  0
 73 76  1  0  0  0
 73147  1  0  0  0
 74 76  2  0  0  0
 74148  1  0  0  0
 75 83  1  0  0  0
 76 84  1  0  0  0
 77 79  1  0  0  0
 77 83  1  0  0  0
 77 85  2  0  0  0
 78 79  1  0  0  0
 78 83  1  0  0  0
 78149  1  0  0  0
 78150  1  0  0  0
 79 80  1  0  0  0
 79 82  1  0  0  0
 80151  1  0  0  0
 80152  1  0  0  0
 80153  1  0  0  0
 81 84  1  0  0  0
 81154  1  0  0  0
 81155  1  0  0  0
 81156  1  0  0  0
 82157  1  0  0  0
 82158  1  0  0  0
M  ISO  4   1 100  68 101  82 101  84 100
M  END
> <chiral flag>
0

> <version>
0

> <s_m_source_file>
/data/baiqing/PycharmProjects/Reinvent-master-3.2/result/LINK_invent/BTK/process_docking_weight1_custom_product_contain_oxygen_bond_distance_aromatic_linkinvent_7_9_3/rearranged_h_0076.sdf

> <i_m_source_file_index>
50

> <r_mmod_Potential_Energy-OPLS-2005>
323.776519775391

> <r_mmod_Stretch_Energy-OPLS-2005>
120.273368835449

> <r_mmod_Bend_Energy-OPLS-2005>
203.279037475586

> <r_mmod_Torsional_Energy-OPLS-2005>
299.830535888672

> <r_mmod_Improper_Torsional_Energy-OPLS-2005>
3.7621386051178

> <r_mmod_Van_der_Waal_Energy-OPLS-2005>
150.763824462891

> <r_mmod_Electrostatic_Energy-OPLS-2005>
-322.555358886719

> <r_mmod_Solvation_Energy-OPLS-2005>
-202.280807495117

> <b_mmod_Minimization_Converged-OPLS-2005>
0

> <r_mmod_RMS_Derivative-OPLS-2005>
1.75935685634613

$$$$
50
                    3D
 Structure written by MMmdl.
158166  0  0  1  0            999 V2000
  -30.7570  -14.3660   20.6765 C   0  0  0  0  0  0
  -30.4196  -12.2833   19.3967 C   0  0  0  0  0  0
  -29.4860  -12.5225   18.1946 C   0  0  0  0  0  0
  -28.0097  -12.3791   18.6102 C   0  0  0  0  0  0
  -27.6683  -13.1989   19.8821 C   0  0  2  0  0  0
  -28.7051  -12.9299   20.9955 C   0  0  0  0  0  0
  -25.2618  -13.8152   20.5671 C   0  0  0  0  0  0
  -24.1854  -13.0441   20.9161 C   0  0  0  0  0  0
  -24.6392  -11.6902   20.8721 C   0  0  0  0  0  0
  -23.9053  -10.4294   21.0399 C   0  0  0  0  0  0
  -24.3609   -9.4211   21.9178 C   0  0  0  0  0  0
  -23.6287   -8.2245   22.0752 C   0  0  0  0  0  0
  -22.4269   -8.0282   21.3545 C   0  0  0  0  0  0
  -21.9902   -9.0253   20.4646 C   0  0  0  0  0  0
  -22.7226  -10.2134   20.3050 C   0  0  0  0  0  0
  -21.6853   -6.0735   22.5280 C   0  0  0  0  0  0
  -21.4013   -6.5639   23.8213 C   0  0  0  0  0  0
  -21.3658   -5.6792   24.9175 C   0  0  0  0  0  0
  -21.6044   -4.3055   24.7226 C   0  0  0  0  0  0
  -21.8819   -3.8147   23.4347 C   0  0  0  0  0  0
  -21.9193   -4.6964   22.3404 C   0  0  0  0  0  0
  -22.7878  -13.5247   21.1829 C   0  0  0  0  0  0
  -22.1661   -4.2151   21.0981 F   0  0  0  0  0  0
  -21.5628   -3.4537   25.7739 F   0  0  0  0  0  0
  -30.0501  -13.2255   20.4632 N   0  0  0  0  0  0
  -26.3052  -12.9307   20.3381 N   0  0  0  0  0  0
  -25.9315  -11.6472   20.5755 N   0  0  0  0  0  0
  -22.0514  -12.8244   22.0388 N   0  0  0  0  0  0
  -25.4366  -15.1867   20.4088 N   0  0  0  0  0  0
  -31.7882  -14.6406   20.0539 O   0  0  0  0  0  0
  -21.6636   -6.8877   21.4242 O   0  0  0  0  0  0
  -22.3565  -14.5556   20.6682 O   0  0  0  0  0  0
  -24.6111  -31.8703   23.2123 C   0  0  0  0  0  0
  -25.9023  -32.4831   23.8405 C   0  0  1  0  0  0
  -27.2348  -27.4659   20.0910 C   0  0  0  0  0  0
  -25.5896  -33.8628   24.2342 N   0  0  0  0  0  0
  -23.3968  -30.4952   21.5520 C   0  0  2  0  0  0
  -24.8418  -28.9633   20.1164 C   0  0  0  0  0  0
  -22.7385  -29.4678   22.5001 C   0  0  0  0  0  0
  -18.0270  -28.1375   22.8489 C   0  0  0  0  0  0
  -24.1491  -36.7320   23.2641 C   0  0  0  0  0  0
  -25.9221  -30.8460   21.3593 C   0  0  0  0  0  0
  -25.9997  -29.4819   20.7090 C   0  0  0  0  0  0
  -27.1993  -28.7404   20.6921 C   0  0  0  0  0  0
  -26.0623  -26.9574   19.4865 C   0  0  0  0  0  0
  -24.8662  -27.6983   19.5040 C   0  0  0  0  0  0
  -23.6027  -29.8271   20.1661 C   0  0  0  0  0  0
  -25.4109  -36.3118   24.0345 C   0  0  1  0  0  0
  -20.5859  -28.3658   23.1327 C   0  0  2  0  0  0
  -20.6762  -26.9399   22.5417 C   0  0  0  0  0  0
  -19.5744  -26.6388   21.5208 C   0  0  0  0  0  0
  -18.1921  -26.7922   22.1620 C   0  0  0  0  0  0
  -19.1519  -28.8832   23.2908 C   0  0  0  0  0  0
  -18.9451  -30.1438   23.8915 C   0  0  0  0  0  0
  -17.6456  -30.6581   24.0567 C   0  0  0  0  0  0
  -25.9035  -34.9481   23.5141 C   0  0  0  0  0  0
  -16.5345  -29.9088   23.6324 C   0  0  0  0  0  0
  -16.7261  -28.6508   23.0337 C   0  0  0  0  0  0
  -26.4465  -31.6594   25.0714 C   0  0  0  0  0  0
  -25.3746  -31.3687   26.1474 C   0  0  0  0  0  0
  -27.0292  -30.3045   24.6053 C   0  0  0  0  0  0
  -27.6046  -32.4302   25.7475 C   0  0  0  0  0  0
  -27.5582  -37.1815   24.8468 C   0  0  0  0  0  0
  -21.4118  -29.3032   22.3734 N   0  0  0  0  0  0
  -26.4296  -37.3796   23.9411 N   0  0  0  0  0  0
  -24.6616  -31.0840   22.1004 N   0  0  0  0  0  0
  -23.4171  -28.8221   23.3033 O   0  0  0  0  0  0
  -28.4213  -26.7720   20.0795 O   0  0  0  0  0  0
  -26.5590  -34.8929   22.4698 O   0  0  0  0  0  0
  -23.5317  -32.1437   23.7549 O   0  0  0  0  0  0
  -32.0898  -18.4308   21.9997 C   0  0  0  0  0  0
  -31.8611  -17.0583   21.7833 C   0  0  0  0  0  0
  -29.4967  -17.3861   22.2514 C   0  0  0  0  0  0
  -31.0242  -19.3039   22.3169 C   0  0  0  0  0  0
  -30.5528  -16.5309   21.8753 C   0  0  0  0  0  0
  -29.7230  -18.7600   22.4674 C   0  0  0  0  0  0
  -29.2769  -23.5564   21.7911 C   0  0  0  0  0  0
  -31.3017  -20.7755   22.4865 C   0  0  0  0  0  0
  -29.4433  -25.8924   23.8253 C   0  0  0  0  0  0
  -28.3544  -25.3704   20.3498 C   0  0  0  0  0  0
  -29.2035  -25.0524   21.5938 C   0  0  1  0  0  0
  -30.3680  -22.9488   22.0985 N   0  0  0  0  0  0
  -30.2508  -15.1642   21.6304 N   0  0  0  0  0  0
  -30.2847  -21.5975   22.1922 N   0  0  0  0  0  0
  -32.4280  -21.1815   22.7966 O   0  0  0  0  0  0
  -28.5794  -25.6835   22.7142 O   0  0  0  0  0  0
  -28.6671  -19.5456   22.7972 F   0  0  0  0  0  0
  -31.4624  -12.3853   19.0905 H   0  0  0  0  0  0
  -30.3201  -11.2590   19.7589 H   0  0  0  0  0  0
  -29.7175  -11.8199   17.3930 H   0  0  0  0  0  0
  -29.6577  -13.5200   17.7872 H   0  0  0  0  0  0
  -27.8152  -11.3209   18.7882 H   0  0  0  0  0  0
  -27.3571  -12.6725   17.7871 H   0  0  0  0  0  0
  -27.7303  -14.2540   19.6143 H   0  0  0  0  0  0
  -28.6660  -11.8820   21.2972 H   0  0  0  0  0  0
  -28.4492  -13.4903   21.8948 H   0  0  0  0  0  0
  -25.2758   -9.5688   22.4747 H   0  0  0  0  0  0
  -24.0001   -7.4638   22.7471 H   0  0  0  0  0  0
  -21.0834   -8.8767   19.8952 H   0  0  0  0  0  0
  -22.3684  -10.9669   19.6156 H   0  0  0  0  0  0
  -21.2004   -7.6147   23.9718 H   0  0  0  0  0  0
  -21.1479   -6.0522   25.9079 H   0  0  0  0  0  0
  -22.0600   -2.7610   23.2847 H   0  0  0  0  0  0
  -22.4124  -11.9903   22.4776 H   0  0  0  0  0  0
  -21.1133  -13.1276   22.2590 H   0  0  0  0  0  0
  -24.6740  -15.8464   20.5178 H   0  0  0  0  0  0
  -26.2954  -15.6224   20.0962 H   0  0  0  0  0  0
  -26.7096  -32.5556   23.1175 H   0  0  0  0  0  0
  -25.0050  -33.9793   25.0490 H   0  0  0  0  0  0
  -22.6842  -31.3110   21.4143 H   0  0  0  0  0  0
  -23.3742  -35.9663   23.3317 H   0  0  0  0  0  0
  -24.3589  -36.8917   22.2053 H   0  0  0  0  0  0
  -23.7253  -37.6537   23.6639 H   0  0  0  0  0  0
  -26.0278  -31.6120   20.5897 H   0  0  0  0  0  0
  -26.8129  -30.9016   21.9729 H   0  0  0  0  0  0
  -28.0963  -29.1385   21.1459 H   0  0  0  0  0  0
  -26.0675  -25.9989   18.9873 H   0  0  0  0  0  0
  -23.9773  -27.2958   19.0375 H   0  0  0  0  0  0
  -23.7084  -30.6015   19.4053 H   0  0  0  0  0  0
  -22.7273  -29.2452   19.8716 H   0  0  0  0  0  0
  -25.1282  -36.1986   25.0835 H   0  0  0  0  0  0
  -20.9955  -28.3218   24.1447 H   0  0  0  0  0  0
  -20.5673  -26.2259   23.3596 H   0  0  0  0  0  0
  -21.6634  -26.7448   22.1207 H   0  0  0  0  0  0
  -19.6911  -25.6306   21.1223 H   0  0  0  0  0  0
  -19.6691  -27.3209   20.6750 H   0  0  0  0  0  0
  -17.4193  -26.6671   21.4021 H   0  0  0  0  0  0
  -18.0326  -26.0058   22.9015 H   0  0  0  0  0  0
  -19.7929  -30.7247   24.2288 H   0  0  0  0  0  0
  -17.5016  -31.6263   24.5164 H   0  0  0  0  0  0
  -15.5348  -30.3000   23.7639 H   0  0  0  0  0  0
  -15.8660  -28.0844   22.7029 H   0  0  0  0  0  0
  -24.5916  -30.7037   25.7816 H   0  0  0  0  0  0
  -24.8941  -32.2838   26.4942 H   0  0  0  0  0  0
  -25.8115  -30.8845   27.0217 H   0  0  0  0  0  0
  -26.2822  -29.6810   24.1127 H   0  0  0  0  0  0
  -27.4109  -29.7267   25.4483 H   0  0  0  0  0  0
  -27.8632  -30.4381   23.9160 H   0  0  0  0  0  0
  -27.2664  -33.3583   26.2094 H   0  0  0  0  0  0
  -28.3831  -32.6891   25.0288 H   0  0  0  0  0  0
  -28.0736  -31.8399   26.5356 H   0  0  0  0  0  0
  -28.2606  -38.0104   24.7497 H   0  0  0  0  0  0
  -28.1067  -36.2633   24.6306 H   0  0  0  0  0  0
  -27.2299  -37.1481   25.8872 H   0  0  0  0  0  0
  -20.9266  -29.8760   21.6970 H   0  0  0  0  0  0
  -26.0191  -38.2879   24.1397 H   0  0  0  0  0  0
  -33.0945  -18.8174   21.9007 H   0  0  0  0  0  0
  -32.7029  -16.4261   21.5373 H   0  0  0  0  0  0
  -28.4915  -17.0031   22.3525 H   0  0  0  0  0  0
  -28.3458  -22.9999   21.6656 H   0  0  0  0  0  0
  -28.8895  -26.3758   24.6304 H   0  0  0  0  0  0
  -30.2763  -26.5440   23.5586 H   0  0  0  0  0  0
  -29.8454  -24.9567   24.2153 H   0  0  0  0  0  0
  -27.3416  -24.9990   20.5133 H   0  0  0  0  0  0
  -28.7445  -24.8458   19.4766 H   0  0  0  0  0  0
  -30.2053  -25.4607   21.4455 H   0  0  0  0  0  0
  -29.4039  -14.8117   22.0497 H   0  0  0  0  0  0
  -29.3818  -21.1812   21.9926 H   0  0  0  0  0  0
  1 25  1  0  0  0
  1 30  2  0  0  0
  1 83  1  0  0  0
  2  3  1  0  0  0
  2 25  1  0  0  0
  2 88  1  0  0  0
  2 89  1  0  0  0
  3  4  1  0  0  0
  3 90  1  0  0  0
  3 91  1  0  0  0
  4  5  1  0  0  0
  4 92  1  0  0  0
  4 93  1  0  0  0
  5  6  1  0  0  0
  5 26  1  0  0  0
  5 94  1  0  0  0
  6 25  1  0  0  0
  6 95  1  0  0  0
  6 96  1  0  0  0
  7  8  2  0  0  0
  7 26  1  0  0  0
  7 29  1  0  0  0
  8  9  1  0  0  0
  8 22  1  0  0  0
  9 10  1  0  0  0
  9 27  2  0  0  0
 10 11  2  0  0  0
 10 15  1  0  0  0
 11 12  1  0  0  0
 11 97  1  0  0  0
 12 13  2  0  0  0
 12 98  1  0  0  0
 13 14  1  0  0  0
 13 31  1  0  0  0
 14 15  2  0  0  0
 14 99  1  0  0  0
 15100  1  0  0  0
 16 17  2  0  0  0
 16 21  1  0  0  0
 16 31  1  0  0  0
 17 18  1  0  0  0
 17101  1  0  0  0
 18 19  2  0  0  0
 18102  1  0  0  0
 19 20  1  0  0  0
 19 24  1  0  0  0
 20 21  2  0  0  0
 20103  1  0  0  0
 21 23  1  0  0  0
 22 28  1  0  0  0
 22 32  2  0  0  0
 26 27  1  0  0  0
 28104  1  0  0  0
 28105  1  0  0  0
 29106  1  0  0  0
 29107  1  0  0  0
 33 34  1  0  0  0
 33 66  1  0  0  0
 33 70  2  0  0  0
 34 36  1  0  0  0
 34 59  1  0  0  0
 34108  1  0  0  0
 35 44  2  0  0  0
 35 45  1  0  0  0
 35 68  1  0  0  0
 36 56  1  0  0  0
 36109  1  0  0  0
 37 39  1  0  0  0
 37 47  1  0  0  0
 37 66  1  0  0  0
 37110  1  0  0  0
 38 43  2  0  0  0
 38 46  1  0  0  0
 38 47  1  0  0  0
 39 64  1  0  0  0
 39 67  2  0  0  0
 40 52  1  0  0  0
 40 53  2  0  0  0
 40 58  1  0  0  0
 41111  1  0  0  0
 41112  1  0  0  0
 41113  1  0  0  0
 41 48  1  0  0  0
 42 43  1  0  0  0
 42 66  1  0  0  0
 42114  1  0  0  0
 42115  1  0  0  0
 43 44  1  0  0  0
 44116  1  0  0  0
 45 46  2  0  0  0
 45117  1  0  0  0
 46118  1  0  0  0
 47119  1  0  0  0
 47120  1  0  0  0
 48 56  1  0  0  0
 48 65  1  0  0  0
 48121  1  0  0  0
 49 50  1  0  0  0
 49 53  1  0  0  0
 49 64  1  0  0  0
 49122  1  0  0  0
 50 51  1  0  0  0
 50123  1  0  0  0
 50124  1  0  0  0
 51 52  1  0  0  0
 51125  1  0  0  0
 51126  1  0  0  0
 52127  1  0  0  0
 52128  1  0  0  0
 53 54  1  0  0  0
 54 55  2  0  0  0
 54129  1  0  0  0
 55 57  1  0  0  0
 55130  1  0  0  0
 56 69  2  0  0  0
 57 58  2  0  0  0
 57131  1  0  0  0
 58132  1  0  0  0
 59 60  1  0  0  0
 59 61  1  0  0  0
 59 62  1  0  0  0
 60133  1  0  0  0
 60134  1  0  0  0
 60135  1  0  0  0
 61136  1  0  0  0
 61137  1  0  0  0
 61138  1  0  0  0
 62139  1  0  0  0
 62140  1  0  0  0
 62141  1  0  0  0
 63 65  1  0  0  0
 63142  1  0  0  0
 63143  1  0  0  0
 63144  1  0  0  0
 64145  1  0  0  0
 65146  1  0  0  0
 68 80  1  0  0  0
 71 72  2  0  0  0
 71 74  1  0  0  0
 71147  1  0  0  0
 72 75  1  0  0  0
 72148  1  0  0  0
 73 75  2  0  0  0
 73 76  1  0  0  0
 73149  1  0  0  0
 74 76  2  0  0  0
 74 78  1  0  0  0
 75 83  1  0  0  0
 76 87  1  0  0  0
 77 81  1  0  0  0
 77 82  2  0  0  0
 77150  1  0  0  0
 78 84  1  0  0  0
 78 85  2  0  0  0
 79 86  1  0  0  0
 79151  1  0  0  0
 79152  1  0  0  0
 79153  1  0  0  0
 80154  1  0  0  0
 80155  1  0  0  0
 80 81  1  0  0  0
 81 86  1  0  0  0
 81156  1  0  0  0
 82 84  1  0  0  0
 83157  1  0  0  0
 84158  1  0  0  0
M  ISO  4   1 100  68 101  80 101  83 100
M  END
> <chiral flag>
0

> <version>
0

> <s_m_source_file>
/data/baiqing/PycharmProjects/Reinvent-master-3.2/result/LINK_invent/BTK/process_docking_weight1_custom_product_contain_oxygen_bond_distance_aromatic_linkinvent_7_9_3/rearranged_h_0076.sdf

> <i_m_source_file_index>
51

> <r_mmod_Potential_Energy-OPLS-2005>
-12.9652738571167

> <r_mmod_Stretch_Energy-OPLS-2005>
33.8020210266113

> <r_mmod_Bend_Energy-OPLS-2005>
93.7444915771484

> <r_mmod_Torsional_Energy-OPLS-2005>
214.869918823242

> <r_mmod_Improper_Torsional_Energy-OPLS-2005>
3.0814733505249

> <r_mmod_Van_der_Waal_Energy-OPLS-2005>
167.822616577148

> <r_mmod_Electrostatic_Energy-OPLS-2005>
-291.460235595703

> <r_mmod_Solvation_Energy-OPLS-2005>
-241.876068115234

> <b_mmod_Minimization_Converged-OPLS-2005>
0

> <r_mmod_RMS_Derivative-OPLS-2005>
0.526810526847839

$$$$
51
                    3D
 Structure written by MMmdl.
162171  0  0  1  0            999 V2000
  -30.5865  -14.6937   20.4882 C   0  0  0  0  0  0
  -30.4466  -12.4261   19.4539 C   0  0  0  0  0  0
  -29.5118  -12.5125   18.2254 C   0  0  0  0  0  0
  -28.0352  -12.3394   18.6378 C   0  0  0  0  0  0
  -27.6504  -13.2169   19.8579 C   0  0  2  0  0  0
  -28.6963  -13.0883   20.9879 C   0  0  0  0  0  0
  -25.2560  -13.8176   20.5669 C   0  0  0  0  0  0
  -24.1830  -13.0442   20.9190 C   0  0  0  0  0  0
  -24.6394  -11.6911   20.8736 C   0  0  0  0  0  0
  -23.9061  -10.4294   21.0405 C   0  0  0  0  0  0
  -24.3614   -9.4210   21.9183 C   0  0  0  0  0  0
  -23.6291   -8.2244   22.0754 C   0  0  0  0  0  0
  -22.4273   -8.0281   21.3544 C   0  0  0  0  0  0
  -21.9907   -9.0254   20.4647 C   0  0  0  0  0  0
  -22.7234  -10.2134   20.3056 C   0  0  0  0  0  0
  -21.6853   -6.0735   22.5279 C   0  0  0  0  0  0
  -21.4015   -6.5638   23.8213 C   0  0  0  0  0  0
  -21.3660   -5.6791   24.9175 C   0  0  0  0  0  0
  -21.6044   -4.3054   24.7226 C   0  0  0  0  0  0
  -21.8819   -3.8146   23.4348 C   0  0  0  0  0  0
  -21.9193   -4.6962   22.3403 C   0  0  0  0  0  0
  -22.7852  -13.5235   21.1857 C   0  0  0  0  0  0
  -22.1660   -4.2148   21.0981 F   0  0  0  0  0  0
  -21.5630   -3.4538   25.7739 F   0  0  0  0  0  0
  -30.0047  -13.4511   20.4210 N   0  0  0  0  0  0
  -26.2977  -12.9348   20.3287 N   0  0  0  0  0  0
  -25.9321  -11.6506   20.5743 N   0  0  0  0  0  0
  -22.0493  -12.8229   22.0414 N   0  0  0  0  0  0
  -25.4279  -15.1898   20.4075 N   0  0  0  0  0  0
  -31.7625  -14.8671   20.1524 O   0  0  0  0  0  0
  -21.6639   -6.8877   21.4240 O   0  0  0  0  0  0
  -22.3537  -14.5540   20.6703 O   0  0  0  0  0  0
  -24.6295  -31.8572   23.1996 C   0  0  0  0  0  0
  -25.9129  -32.4763   23.8336 C   0  0  1  0  0  0
  -27.2287  -27.2929   20.1062 C   0  0  0  0  0  0
  -25.5932  -33.8564   24.2263 N   0  0  0  0  0  0
  -23.4239  -30.4808   21.5438 C   0  0  2  0  0  0
  -24.8688  -28.9309   20.1124 C   0  0  0  0  0  0
  -22.7489  -29.4615   22.4930 C   0  0  0  0  0  0
  -18.0289  -28.1385   22.8486 C   0  0  0  0  0  0
  -24.1490  -36.7288   23.2639 C   0  0  0  0  0  0
  -25.9681  -30.7801   21.3728 C   0  0  0  0  0  0
  -26.0416  -29.4058   20.7121 C   0  0  0  0  0  0
  -27.2220  -28.5992   20.6975 C   0  0  0  0  0  0
  -26.0158  -26.8649   19.5174 C   0  0  0  0  0  0
  -24.8586  -27.6657   19.5080 C   0  0  0  0  0  0
  -23.6390  -29.8150   20.1600 C   0  0  0  0  0  0
  -25.4117  -36.3074   24.0326 C   0  0  1  0  0  0
  -20.5891  -28.3693   23.1278 C   0  0  2  0  0  0
  -20.6779  -26.9414   22.5409 C   0  0  0  0  0  0
  -19.5753  -26.6384   21.5212 C   0  0  0  0  0  0
  -18.1934  -26.7927   22.1625 C   0  0  0  0  0  0
  -19.1542  -28.8856   23.2877 C   0  0  0  0  0  0
  -18.9463  -30.1457   23.8894 C   0  0  0  0  0  0
  -17.6462  -30.6587   24.0563 C   0  0  0  0  0  0
  -25.9056  -34.9444   23.5097 C   0  0  0  0  0  0
  -16.5354  -29.9084   23.6330 C   0  0  0  0  0  0
  -16.7275  -28.6501   23.0353 C   0  0  0  0  0  0
  -26.4501  -31.6578   25.0716 C   0  0  0  0  0  0
  -25.3726  -31.3722   26.1437 C   0  0  0  0  0  0
  -27.0346  -30.2997   24.6185 C   0  0  0  0  0  0
  -27.6054  -32.4317   25.7494 C   0  0  0  0  0  0
  -27.5579  -37.1801   24.8465 C   0  0  0  0  0  0
  -21.4200  -29.3044   22.3671 N   0  0  0  0  0  0
  -26.4293  -37.3771   23.9406 N   0  0  0  0  0  0
  -24.6931  -31.0562   22.0956 N   0  0  0  0  0  0
  -23.4200  -28.8157   23.3021 O   0  0  0  0  0  0
  -28.3550  -26.4399   20.1598 O   0  0  0  0  0  0
  -26.5627  -34.8917   22.4665 O   0  0  0  0  0  0
  -23.5452  -32.1383   23.7309 O   0  0  0  0  0  0
  -30.4374  -19.4555   21.4217 C   0  0  0  0  0  0
  -30.5820  -18.0320   21.4326 C   0  0  0  0  0  0
  -28.7720  -19.2941   19.7096 C   0  0  0  0  0  0
  -29.5219  -20.1432   20.5715 C   0  0  0  0  0  0
  -29.7943  -17.1910   20.6052 C   0  0  0  0  0  0
  -28.8747  -17.8539   19.7398 C   0  0  0  0  0  0
  -29.0809  -23.7590   21.6352 C   0  0  0  0  0  0
  -28.6992  -23.9454   20.2519 C   0  0  0  0  0  0
  -28.9937  -24.6822   22.6081 C   0  0  0  0  0  0
  -28.3818  -25.1311   19.6010 C   0  0  0  0  0  0
  -29.5686  -22.3307   21.8790 C   0  0  0  0  0  0
  -28.7899  -22.5235   19.6143 C   0  0  0  0  0  0
  -28.1940  -25.1464   18.0905 C   0  0  0  0  0  0
  -27.1728  -17.6081   18.0538 C   0  0  0  0  0  0
  -29.3592  -21.5848   20.6302 N   0  0  0  0  0  0
  -29.7252  -15.7302   20.7625 N   0  0  0  0  0  0
  -28.0834  -17.0204   18.9735 O   0  0  0  0  0  0
  -31.4845  -12.5727   19.1497 H   0  0  0  0  0  0
  -30.4026  -11.4338   19.9056 H   0  0  0  0  0  0
  -29.7855  -11.7554   17.4893 H   0  0  0  0  0  0
  -29.6419  -13.4777   17.7335 H   0  0  0  0  0  0
  -27.8812  -11.2869   18.8783 H   0  0  0  0  0  0
  -27.3789  -12.5569   17.7942 H   0  0  0  0  0  0
  -27.6602  -14.2479   19.5043 H   0  0  0  0  0  0
  -28.7218  -12.0684   21.3744 H   0  0  0  0  0  0
  -28.4354  -13.7216   21.8374 H   0  0  0  0  0  0
  -25.2760   -9.5689   22.4756 H   0  0  0  0  0  0
  -24.0003   -7.4636   22.7471 H   0  0  0  0  0  0
  -21.0840   -8.8771   19.8953 H   0  0  0  0  0  0
  -22.3691  -10.9673   19.6165 H   0  0  0  0  0  0
  -21.2006   -7.6146   23.9717 H   0  0  0  0  0  0
  -21.1482   -6.0521   25.9078 H   0  0  0  0  0  0
  -22.0598   -2.7608   23.2848 H   0  0  0  0  0  0
  -22.4104  -11.9889   22.4806 H   0  0  0  0  0  0
  -21.1112  -13.1259   22.2618 H   0  0  0  0  0  0
  -24.6584  -15.8405   20.5197 H   0  0  0  0  0  0
  -26.2708  -15.6310   20.0616 H   0  0  0  0  0  0
  -26.7196  -32.5420   23.1080 H   0  0  0  0  0  0
  -25.0072  -33.9703   25.0404 H   0  0  0  0  0  0
  -22.7192  -31.3024   21.3996 H   0  0  0  0  0  0
  -23.3752  -35.9620   23.3301 H   0  0  0  0  0  0
  -24.3580  -36.8911   22.2054 H   0  0  0  0  0  0
  -23.7245  -37.6489   23.6664 H   0  0  0  0  0  0
  -26.1028  -31.5438   20.6055 H   0  0  0  0  0  0
  -26.8472  -30.8276   22.0040 H   0  0  0  0  0  0
  -28.1237  -28.9611   21.1711 H   0  0  0  0  0  0
  -25.9271  -25.8831   19.0803 H   0  0  0  0  0  0
  -23.9541  -27.2871   19.0518 H   0  0  0  0  0  0
  -23.7613  -30.5909   19.4034 H   0  0  0  0  0  0
  -22.7576  -29.2470   19.8567 H   0  0  0  0  0  0
  -25.1299  -36.1923   25.0819 H   0  0  0  0  0  0
  -20.9982  -28.3268   24.1399 H   0  0  0  0  0  0
  -20.5682  -26.2302   23.3610 H   0  0  0  0  0  0
  -21.6647  -26.7444   22.1200 H   0  0  0  0  0  0
  -19.6917  -25.6294   21.1244 H   0  0  0  0  0  0
  -19.6691  -27.3193   20.6741 H   0  0  0  0  0  0
  -17.4204  -26.6673   21.4027 H   0  0  0  0  0  0
  -18.0336  -26.0070   22.9022 H   0  0  0  0  0  0
  -19.7939  -30.7274   24.2263 H   0  0  0  0  0  0
  -17.5016  -31.6266   24.5164 H   0  0  0  0  0  0
  -15.5354  -30.2985   23.7655 H   0  0  0  0  0  0
  -15.8675  -28.0818   22.7071 H   0  0  0  0  0  0
  -24.5905  -30.7068   25.7763 H   0  0  0  0  0  0
  -24.8913  -32.2890   26.4853 H   0  0  0  0  0  0
  -25.8044  -30.8905   27.0219 H   0  0  0  0  0  0
  -26.2924  -29.6746   24.1205 H   0  0  0  0  0  0
  -27.4032  -29.7255   25.4695 H   0  0  0  0  0  0
  -27.8799  -30.4276   23.9419 H   0  0  0  0  0  0
  -27.2659  -33.3618   26.2065 H   0  0  0  0  0  0
  -28.3871  -32.6876   25.0328 H   0  0  0  0  0  0
  -28.0716  -31.8446   26.5418 H   0  0  0  0  0  0
  -28.2596  -38.0097   24.7508 H   0  0  0  0  0  0
  -28.1075  -36.2628   24.6296 H   0  0  0  0  0  0
  -27.2296  -37.1455   25.8867 H   0  0  0  0  0  0
  -20.9382  -29.8765   21.6877 H   0  0  0  0  0  0
  -26.0172  -38.2846   24.1402 H   0  0  0  0  0  0
  -31.0511  -20.0227   22.1063 H   0  0  0  0  0  0
  -31.2711  -17.5868   22.1357 H   0  0  0  0  0  0
  -28.0629  -19.7718   19.0522 H   0  0  0  0  0  0
  -28.6259  -25.6808   22.4295 H   0  0  0  0  0  0
  -29.2901  -24.4441   23.6194 H   0  0  0  0  0  0
  -29.0090  -21.8758   22.6983 H   0  0  0  0  0  0
  -30.6254  -22.3440   22.1499 H   0  0  0  0  0  0
  -29.4268  -22.5497   18.7292 H   0  0  0  0  0  0
  -27.7955  -22.1984   19.3054 H   0  0  0  0  0  0
  -27.3247  -24.5554   17.8018 H   0  0  0  0  0  0
  -29.0689  -24.7191   17.6002 H   0  0  0  0  0  0
  -28.0706  -26.1585   17.7049 H   0  0  0  0  0  0
  -26.4179  -18.2065   18.5656 H   0  0  0  0  0  0
  -26.6518  -16.8199   17.5101 H   0  0  0  0  0  0
  -27.6888  -18.2272   17.3186 H   0  0  0  0  0  0
  -28.7836  -15.3919   20.8834 H   0  0  0  0  0  0
  1 25  1  0  0  0
  1 30  2  0  0  0
  1 86  1  0  0  0
  2  3  1  0  0  0
  2 25  1  0  0  0
  2 88  1  0  0  0
  2 89  1  0  0  0
  3  4  1  0  0  0
  3 90  1  0  0  0
  3 91  1  0  0  0
  4  5  1  0  0  0
  4 92  1  0  0  0
  4 93  1  0  0  0
  5  6  1  0  0  0
  5 26  1  0  0  0
  5 94  1  0  0  0
  6 25  1  0  0  0
  6 95  1  0  0  0
  6 96  1  0  0  0
  7  8  2  0  0  0
  7 26  1  0  0  0
  7 29  1  0  0  0
  8  9  1  0  0  0
  8 22  1  0  0  0
  9 10  1  0  0  0
  9 27  2  0  0  0
 10 11  2  0  0  0
 10 15  1  0  0  0
 11 12  1  0  0  0
 11 97  1  0  0  0
 12 13  2  0  0  0
 12 98  1  0  0  0
 13 14  1  0  0  0
 13 31  1  0  0  0
 14 15  2  0  0  0
 14 99  1  0  0  0
 15100  1  0  0  0
 16 17  2  0  0  0
 16 21  1  0  0  0
 16 31  1  0  0  0
 17 18  1  0  0  0
 17101  1  0  0  0
 18 19  2  0  0  0
 18102  1  0  0  0
 19 20  1  0  0  0
 19 24  1  0  0  0
 20 21  2  0  0  0
 20103  1  0  0  0
 21 23  1  0  0  0
 22 28  1  0  0  0
 22 32  2  0  0  0
 26 27  1  0  0  0
 28104  1  0  0  0
 28105  1  0  0  0
 29106  1  0  0  0
 29107  1  0  0  0
 33 34  1  0  0  0
 33 66  1  0  0  0
 33 70  2  0  0  0
 34 36  1  0  0  0
 34 59  1  0  0  0
 34108  1  0  0  0
 35 44  2  0  0  0
 35 45  1  0  0  0
 35 68  1  0  0  0
 36 56  1  0  0  0
 36109  1  0  0  0
 37 39  1  0  0  0
 37 47  1  0  0  0
 37 66  1  0  0  0
 37110  1  0  0  0
 38 43  2  0  0  0
 38 46  1  0  0  0
 38 47  1  0  0  0
 39 64  1  0  0  0
 39 67  2  0  0  0
 40 52  1  0  0  0
 40 53  2  0  0  0
 40 58  1  0  0  0
 41111  1  0  0  0
 41112  1  0  0  0
 41113  1  0  0  0
 41 48  1  0  0  0
 42 43  1  0  0  0
 42 66  1  0  0  0
 42114  1  0  0  0
 42115  1  0  0  0
 43 44  1  0  0  0
 44116  1  0  0  0
 45 46  2  0  0  0
 45117  1  0  0  0
 46118  1  0  0  0
 47119  1  0  0  0
 47120  1  0  0  0
 48 56  1  0  0  0
 48 65  1  0  0  0
 48121  1  0  0  0
 49 50  1  0  0  0
 49 53  1  0  0  0
 49 64  1  0  0  0
 49122  1  0  0  0
 50 51  1  0  0  0
 50123  1  0  0  0
 50124  1  0  0  0
 51 52  1  0  0  0
 51125  1  0  0  0
 51126  1  0  0  0
 52127  1  0  0  0
 52128  1  0  0  0
 53 54  1  0  0  0
 54 55  2  0  0  0
 54129  1  0  0  0
 55 57  1  0  0  0
 55130  1  0  0  0
 56 69  2  0  0  0
 57 58  2  0  0  0
 57131  1  0  0  0
 58132  1  0  0  0
 59 60  1  0  0  0
 59 61  1  0  0  0
 59 62  1  0  0  0
 60133  1  0  0  0
 60134  1  0  0  0
 60135  1  0  0  0
 61136  1  0  0  0
 61137  1  0  0  0
 61138  1  0  0  0
 62139  1  0  0  0
 62140  1  0  0  0
 62141  1  0  0  0
 63 65  1  0  0  0
 63142  1  0  0  0
 63143  1  0  0  0
 63144  1  0  0  0
 64145  1  0  0  0
 65146  1  0  0  0
 68 80  1  0  0  0
 71 72  2  0  0  0
 71 74  1  0  0  0
 71147  1  0  0  0
 72 75  1  0  0  0
 72148  1  0  0  0
 73 74  2  0  0  0
 73 76  1  0  0  0
 73149  1  0  0  0
 74 85  1  0  0  0
 75 76  2  0  0  0
 75 86  1  0  0  0
 76 87  1  0  0  0
 77 78  1  0  0  0
 77 79  2  0  0  0
 77 81  1  0  0  0
 78 80  2  0  0  0
 78 82  1  0  0  0
 79150  1  0  0  0
 79151  1  0  0  0
 80 83  1  0  0  0
 81 85  1  0  0  0
 81152  1  0  0  0
 81153  1  0  0  0
 82 85  1  0  0  0
 82154  1  0  0  0
 82155  1  0  0  0
 83156  1  0  0  0
 83157  1  0  0  0
 83158  1  0  0  0
 84 87  1  0  0  0
 84159  1  0  0  0
 84160  1  0  0  0
 84161  1  0  0  0
 86162  1  0  0  0
M  ISO  4   1 100  68 101  80 101  86 100
M  END
> <chiral flag>
0

> <version>
0

> <s_m_source_file>
/data/baiqing/PycharmProjects/Reinvent-master-3.2/result/LINK_invent/BTK/process_docking_weight1_custom_product_contain_oxygen_bond_distance_aromatic_linkinvent_7_9_3/rearranged_h_0076.sdf

> <i_m_source_file_index>
52

> <r_mmod_Potential_Energy-OPLS-2005>
147.368392944336

> <r_mmod_Stretch_Energy-OPLS-2005>
90.4359970092773

> <r_mmod_Bend_Energy-OPLS-2005>
226.497222900391

> <r_mmod_Torsional_Energy-OPLS-2005>
242.245620727539

> <r_mmod_Improper_Torsional_Energy-OPLS-2005>
6.86069107055664

> <r_mmod_Van_der_Waal_Energy-OPLS-2005>
141.181335449219

> <r_mmod_Electrostatic_Energy-OPLS-2005>
-406.253448486328

> <r_mmod_Solvation_Energy-OPLS-2005>
-218.091796875

> <b_mmod_Minimization_Converged-OPLS-2005>
0

> <r_mmod_RMS_Derivative-OPLS-2005>
0.232799500226974

$$$$
52
                    3D
 Structure written by MMmdl.
170179  0  0  1  0            999 V2000
  -30.6282  -14.6015   20.5887 C   0  0  0  0  0  0
  -30.4470  -12.3930   19.4442 C   0  0  0  0  0  0
  -29.5109  -12.5352   18.2230 C   0  0  0  0  0  0
  -28.0326  -12.3693   18.6321 C   0  0  0  0  0  0
  -27.6629  -13.2150   19.8797 C   0  0  2  0  0  0
  -28.7053  -13.0083   21.0034 C   0  0  0  0  0  0
  -25.2558  -13.8150   20.5630 C   0  0  0  0  0  0
  -24.1836  -13.0423   20.9189 C   0  0  0  0  0  0
  -24.6426  -11.6904   20.8764 C   0  0  0  0  0  0
  -23.9098  -10.4288   21.0417 C   0  0  0  0  0  0
  -24.3637   -9.4198   21.9193 C   0  0  0  0  0  0
  -23.6291   -8.2247   22.0757 C   0  0  0  0  0  0
  -22.4271   -8.0291   21.3546 C   0  0  0  0  0  0
  -21.9919   -9.0275   20.4650 C   0  0  0  0  0  0
  -22.7272  -10.2143   20.3061 C   0  0  0  0  0  0
  -21.6853   -6.0754   22.5284 C   0  0  0  0  0  0
  -21.4018   -6.5644   23.8222 C   0  0  0  0  0  0
  -21.3655   -5.6785   24.9175 C   0  0  0  0  0  0
  -21.6047   -4.3055   24.7219 C   0  0  0  0  0  0
  -21.8818   -3.8157   23.4339 C   0  0  0  0  0  0
  -21.9189   -4.6986   22.3401 C   0  0  0  0  0  0
  -22.7854  -13.5218   21.1861 C   0  0  0  0  0  0
  -22.1645   -4.2171   21.0980 F   0  0  0  0  0  0
  -21.5640   -3.4542   25.7735 F   0  0  0  0  0  0
  -30.0315  -13.3713   20.4690 N   0  0  0  0  0  0
  -26.3035  -12.9354   20.3375 N   0  0  0  0  0  0
  -25.9359  -11.6507   20.5802 N   0  0  0  0  0  0
  -22.0479  -12.8219   22.0416 N   0  0  0  0  0  0
  -25.4196  -15.1845   20.3931 N   0  0  0  0  0  0
  -31.6854  -14.8733   20.0099 O   0  0  0  0  0  0
  -21.6626   -6.8895   21.4242 O   0  0  0  0  0  0
  -22.3522  -14.5512   20.6699 O   0  0  0  0  0  0
  -24.6244  -31.8606   23.2017 C   0  0  0  0  0  0
  -25.9100  -32.4782   23.8349 C   0  0  1  0  0  0
  -27.2318  -27.3339   20.1162 C   0  0  0  0  0  0
  -25.5924  -33.8577   24.2276 N   0  0  0  0  0  0
  -23.4179  -30.4821   21.5447 C   0  0  2  0  0  0
  -24.8645  -28.9342   20.1162 C   0  0  0  0  0  0
  -22.7465  -29.4629   22.4958 C   0  0  0  0  0  0
  -18.0277  -28.1388   22.8490 C   0  0  0  0  0  0
  -24.1486  -36.7294   23.2637 C   0  0  0  0  0  0
  -25.9560  -30.7960   21.3701 C   0  0  0  0  0  0
  -26.0318  -29.4222   20.7160 C   0  0  0  0  0  0
  -27.2184  -28.6338   20.7051 C   0  0  0  0  0  0
  -26.0439  -26.8953   19.4888 C   0  0  0  0  0  0
  -24.8713  -27.6747   19.4949 C   0  0  0  0  0  0
  -23.6313  -29.8125   20.1619 C   0  0  0  0  0  0
  -25.4117  -36.3088   24.0321 C   0  0  1  0  0  0
  -20.5880  -28.3689   23.1290 C   0  0  2  0  0  0
  -20.6771  -26.9416   22.5415 C   0  0  0  0  0  0
  -19.5751  -26.6391   21.5215 C   0  0  0  0  0  0
  -18.1925  -26.7937   22.1619 C   0  0  0  0  0  0
  -19.1530  -28.8857   23.2886 C   0  0  0  0  0  0
  -18.9459  -30.1460   23.8904 C   0  0  0  0  0  0
  -17.6459  -30.6590   24.0567 C   0  0  0  0  0  0
  -25.9050  -34.9449   23.5099 C   0  0  0  0  0  0
  -16.5348  -29.9090   23.6331 C   0  0  0  0  0  0
  -16.7265  -28.6504   23.0358 C   0  0  0  0  0  0
  -26.4494  -31.6589   25.0714 C   0  0  0  0  0  0
  -25.3737  -31.3713   26.1447 C   0  0  0  0  0  0
  -27.0334  -30.3015   24.6159 C   0  0  0  0  0  0
  -27.6049  -32.4331   25.7492 C   0  0  0  0  0  0
  -27.5582  -37.1805   24.8465 C   0  0  0  0  0  0
  -21.4186  -29.3044   22.3684 N   0  0  0  0  0  0
  -26.4301  -37.3782   23.9400 N   0  0  0  0  0  0
  -24.6847  -31.0627   22.0961 N   0  0  0  0  0  0
  -23.4183  -28.8181   23.3046 O   0  0  0  0  0  0
  -28.3741  -26.5248   20.1161 O   0  0  0  0  0  0
  -26.5619  -34.8919   22.4667 O   0  0  0  0  0  0
  -23.5413  -32.1401   23.7353 O   0  0  0  0  0  0
  -27.7136  -19.0787   21.3732 C   0  0  0  0  0  0
  -28.0499  -16.7235   21.8533 C   0  0  0  0  0  0
  -29.8229  -18.0010   20.7693 C   0  0  0  0  0  0
  -27.2363  -17.8655   21.9109 C   0  0  0  0  0  0
  -29.0141  -19.2086   20.8270 C   0  0  0  0  0  0
  -29.3392  -16.7398   21.2844 C   0  0  0  0  0  0
  -29.5497  -22.8187   19.7734 C   0  0  0  0  0  0
  -30.5464  -22.1057   19.0089 C   0  0  0  0  0  0
  -28.9064  -21.7928   20.6143 C   0  0  0  0  0  0
  -31.3874  -22.6382   18.1046 C   0  0  0  0  0  0
  -29.2799  -24.1711   19.6910 C   0  0  0  0  0  0
  -25.4874  -18.6359   23.2257 C   0  0  0  0  0  0
  -23.5229  -19.9987   23.9382 C   0  0  0  0  0  0
  -30.5186  -20.6396   19.3529 C   0  0  0  0  0  0
  -24.0587  -17.8178   25.1508 C   0  0  0  0  0  0
  -28.2413  -25.0798   20.4053 C   0  0  0  0  0  0
  -24.0836  -18.5714   23.8073 C   0  0  2  0  0  0
  -25.9563  -17.7304   22.4618 N   0  0  0  0  0  0
  -29.4331  -20.5349   20.3280 N   0  0  0  0  0  0
  -22.7566  -20.4614   22.9552 N   0  0  0  0  0  0
  -30.0297  -15.4647   21.4536 N   0  0  0  0  0  0
  -28.0483  -22.0367   21.4689 O   0  0  0  0  0  0
  -23.7542  -20.6909   24.9297 O   0  0  0  0  0  0
  -31.4868  -12.5372   19.1436 H   0  0  0  0  0  0
  -30.3939  -11.3833   19.8547 H   0  0  0  0  0  0
  -29.7732  -11.8002   17.4610 H   0  0  0  0  0  0
  -29.6564  -13.5140   17.7633 H   0  0  0  0  0  0
  -27.8618  -11.3124   18.8388 H   0  0  0  0  0  0
  -27.3785  -12.6197   17.7967 H   0  0  0  0  0  0
  -27.6992  -14.2626   19.5806 H   0  0  0  0  0  0
  -28.7106  -11.9653   21.3243 H   0  0  0  0  0  0
  -28.4313  -13.5763   21.8915 H   0  0  0  0  0  0
  -25.2788   -9.5679   22.4762 H   0  0  0  0  0  0
  -24.0018   -7.4639   22.7458 H   0  0  0  0  0  0
  -21.0863   -8.8813   19.8927 H   0  0  0  0  0  0
  -22.3760  -10.9694   19.6167 H   0  0  0  0  0  0
  -21.1999   -7.6145   23.9757 H   0  0  0  0  0  0
  -21.1473   -6.0492   25.9086 H   0  0  0  0  0  0
  -22.0598   -2.7623   23.2836 H   0  0  0  0  0  0
  -22.4053  -11.9877   22.4827 H   0  0  0  0  0  0
  -21.1091  -13.1260   22.2571 H   0  0  0  0  0  0
  -24.6883  -15.8465   20.6264 H   0  0  0  0  0  0
  -26.2987  -15.6403   20.1871 H   0  0  0  0  0  0
  -26.7173  -32.5461   23.1101 H   0  0  0  0  0  0
  -25.0091  -33.9727   25.0434 H   0  0  0  0  0  0
  -22.7112  -31.3016   21.3987 H   0  0  0  0  0  0
  -23.3754  -35.9625   23.3308 H   0  0  0  0  0  0
  -24.3580  -36.8911   22.2055 H   0  0  0  0  0  0
  -23.7236  -37.6490   23.6662 H   0  0  0  0  0  0
  -26.0841  -31.5594   20.6008 H   0  0  0  0  0  0
  -26.8364  -30.8467   21.9988 H   0  0  0  0  0  0
  -28.1192  -29.0089   21.1708 H   0  0  0  0  0  0
  -26.0116  -25.9471   18.9735 H   0  0  0  0  0  0
  -23.9774  -27.2990   19.0156 H   0  0  0  0  0  0
  -23.7464  -30.5846   19.4001 H   0  0  0  0  0  0
  -22.7526  -29.2372   19.8659 H   0  0  0  0  0  0
  -25.1307  -36.1942   25.0819 H   0  0  0  0  0  0
  -20.9962  -28.3261   24.1413 H   0  0  0  0  0  0
  -20.5674  -26.2306   23.3618 H   0  0  0  0  0  0
  -21.6641  -26.7451   22.1204 H   0  0  0  0  0  0
  -19.6910  -25.6298   21.1258 H   0  0  0  0  0  0
  -19.6685  -27.3197   20.6745 H   0  0  0  0  0  0
  -17.4197  -26.6696   21.4010 H   0  0  0  0  0  0
  -18.0301  -26.0069   22.9004 H   0  0  0  0  0  0
  -19.7931  -30.7282   24.2267 H   0  0  0  0  0  0
  -17.5008  -31.6274   24.5164 H   0  0  0  0  0  0
  -15.5349  -30.2998   23.7648 H   0  0  0  0  0  0
  -15.8666  -28.0825   22.7081 H   0  0  0  0  0  0
  -24.5915  -30.7063   25.7771 H   0  0  0  0  0  0
  -24.8934  -32.2875   26.4890 H   0  0  0  0  0  0
  -25.8076  -30.8879   27.0210 H   0  0  0  0  0  0
  -26.2898  -29.6765   24.1204 H   0  0  0  0  0  0
  -27.4054  -29.7273   25.4653 H   0  0  0  0  0  0
  -27.8758  -30.4296   23.9357 H   0  0  0  0  0  0
  -27.2649  -33.3629   26.2065 H   0  0  0  0  0  0
  -28.3865  -32.6900   25.0328 H   0  0  0  0  0  0
  -28.0715  -31.8468   26.5416 H   0  0  0  0  0  0
  -28.2601  -38.0098   24.7514 H   0  0  0  0  0  0
  -28.1077  -36.2631   24.6299 H   0  0  0  0  0  0
  -27.2296  -37.1459   25.8866 H   0  0  0  0  0  0
  -20.9360  -29.8766   21.6896 H   0  0  0  0  0  0
  -26.0179  -38.2855   24.1414 H   0  0  0  0  0  0
  -27.0383  -19.9193   21.3705 H   0  0  0  0  0  0
  -27.6609  -15.8079   22.2755 H   0  0  0  0  0  0
  -30.8248  -18.0470   20.3640 H   0  0  0  0  0  0
  -31.3943  -23.6900   17.8600 H   0  0  0  0  0  0
  -32.0966  -22.0114   17.5828 H   0  0  0  0  0  0
  -29.8735  -24.7403   18.9943 H   0  0  0  0  0  0
  -26.0671  -19.5186   23.5188 H   0  0  0  0  0  0
  -31.4687  -20.3254   19.7861 H   0  0  0  0  0  0
  -30.3041  -20.0378   18.4678 H   0  0  0  0  0  0
  -24.3915  -16.7870   25.0274 H   0  0  0  0  0  0
  -23.0507  -17.7899   25.5647 H   0  0  0  0  0  0
  -24.7076  -18.2883   25.8915 H   0  0  0  0  0  0
  -28.3674  -24.9479   21.4803 H   0  0  0  0  0  0
  -27.2518  -24.6872   20.1785 H   0  0  0  0  0  0
  -23.4534  -18.0240   23.1054 H   0  0  0  0  0  0
  -22.5612  -19.8938   22.1417 H   0  0  0  0  0  0
  -22.3527  -21.3862   23.0160 H   0  0  0  0  0  0
  -29.5134  -14.8878   22.1001 H   0  0  0  0  0  0
  1 25  1  0  0  0
  1 30  2  0  0  0
  1 91  1  0  0  0
  2  3  1  0  0  0
  2 25  1  0  0  0
  2 94  1  0  0  0
  2 95  1  0  0  0
  3  4  1  0  0  0
  3 96  1  0  0  0
  3 97  1  0  0  0
  4  5  1  0  0  0
  4 98  1  0  0  0
  4 99  1  0  0  0
  5  6  1  0  0  0
  5 26  1  0  0  0
  5100  1  0  0  0
  6 25  1  0  0  0
  6101  1  0  0  0
  6102  1  0  0  0
  7  8  2  0  0  0
  7 26  1  0  0  0
  7 29  1  0  0  0
  8  9  1  0  0  0
  8 22  1  0  0  0
  9 10  1  0  0  0
  9 27  2  0  0  0
 10 11  2  0  0  0
 10 15  1  0  0  0
 11 12  1  0  0  0
 11103  1  0  0  0
 12 13  2  0  0  0
 12104  1  0  0  0
 13 14  1  0  0  0
 13 31  1  0  0  0
 14 15  2  0  0  0
 14105  1  0  0  0
 15106  1  0  0  0
 16 17  2  0  0  0
 16 21  1  0  0  0
 16 31  1  0  0  0
 17 18  1  0  0  0
 17107  1  0  0  0
 18 19  2  0  0  0
 18108  1  0  0  0
 19 20  1  0  0  0
 19 24  1  0  0  0
 20 21  2  0  0  0
 20109  1  0  0  0
 21 23  1  0  0  0
 22 28  1  0  0  0
 22 32  2  0  0  0
 26 27  1  0  0  0
 28110  1  0  0  0
 28111  1  0  0  0
 29112  1  0  0  0
 29113  1  0  0  0
 33 34  1  0  0  0
 33 66  1  0  0  0
 33 70  2  0  0  0
 34 36  1  0  0  0
 34 59  1  0  0  0
 34114  1  0  0  0
 35 44  2  0  0  0
 35 45  1  0  0  0
 35 68  1  0  0  0
 36 56  1  0  0  0
 36115  1  0  0  0
 37 39  1  0  0  0
 37 47  1  0  0  0
 37 66  1  0  0  0
 37116  1  0  0  0
 38 43  2  0  0  0
 38 46  1  0  0  0
 38 47  1  0  0  0
 39 64  1  0  0  0
 39 67  2  0  0  0
 40 52  1  0  0  0
 40 53  2  0  0  0
 40 58  1  0  0  0
 41117  1  0  0  0
 41118  1  0  0  0
 41119  1  0  0  0
 41 48  1  0  0  0
 42 43  1  0  0  0
 42 66  1  0  0  0
 42120  1  0  0  0
 42121  1  0  0  0
 43 44  1  0  0  0
 44122  1  0  0  0
 45 46  2  0  0  0
 45123  1  0  0  0
 46124  1  0  0  0
 47125  1  0  0  0
 47126  1  0  0  0
 48 56  1  0  0  0
 48 65  1  0  0  0
 48127  1  0  0  0
 49 50  1  0  0  0
 49 53  1  0  0  0
 49 64  1  0  0  0
 49128  1  0  0  0
 50 51  1  0  0  0
 50129  1  0  0  0
 50130  1  0  0  0
 51 52  1  0  0  0
 51131  1  0  0  0
 51132  1  0  0  0
 52133  1  0  0  0
 52134  1  0  0  0
 53 54  1  0  0  0
 54 55  2  0  0  0
 54135  1  0  0  0
 55 57  1  0  0  0
 55136  1  0  0  0
 56 69  2  0  0  0
 57 58  2  0  0  0
 57137  1  0  0  0
 58138  1  0  0  0
 59 60  1  0  0  0
 59 61  1  0  0  0
 59 62  1  0  0  0
 60139  1  0  0  0
 60140  1  0  0  0
 60141  1  0  0  0
 61142  1  0  0  0
 61143  1  0  0  0
 61144  1  0  0  0
 62145  1  0  0  0
 62146  1  0  0  0
 62147  1  0  0  0
 63 65  1  0  0  0
 63148  1  0  0  0
 63149  1  0  0  0
 63150  1  0  0  0
 64151  1  0  0  0
 65152  1  0  0  0
 68 86  1  0  0  0
 71 74  2  0  0  0
 71 75  1  0  0  0
 71153  1  0  0  0
 72 74  1  0  0  0
 72 76  2  0  0  0
 72154  1  0  0  0
 73 75  2  0  0  0
 73 76  1  0  0  0
 73155  1  0  0  0
 74 88  1  0  0  0
 75 89  1  0  0  0
 76 91  1  0  0  0
 77 78  1  0  0  0
 77 79  1  0  0  0
 77 81  2  0  0  0
 78 80  2  0  0  0
 78 84  1  0  0  0
 79 89  1  0  0  0
 79 92  2  0  0  0
 80156  1  0  0  0
 80157  1  0  0  0
 81 86  1  0  0  0
 81158  1  0  0  0
 82 87  1  0  0  0
 82 88  2  0  0  0
 82159  1  0  0  0
 83 87  1  0  0  0
 83 90  1  0  0  0
 83 93  2  0  0  0
 84 89  1  0  0  0
 84160  1  0  0  0
 84161  1  0  0  0
 85162  1  0  0  0
 85163  1  0  0  0
 85164  1  0  0  0
 85 87  1  0  0  0
 86165  1  0  0  0
 86166  1  0  0  0
 87167  1  0  0  0
 90168  1  0  0  0
 90169  1  0  0  0
 91170  1  0  0  0
M  ISO  4   1 100  68 101  86 101  91 100
M  END
> <chiral flag>
0

> <version>
0

> <s_m_source_file>
/data/baiqing/PycharmProjects/Reinvent-master-3.2/result/LINK_invent/BTK/process_docking_weight1_custom_product_contain_oxygen_bond_distance_aromatic_linkinvent_7_9_3/rearranged_h_0076.sdf

> <i_m_source_file_index>
53

> <r_mmod_Potential_Energy-OPLS-2005>
121.129638671875

> <r_mmod_Stretch_Energy-OPLS-2005>
85.5099716186523

> <r_mmod_Bend_Energy-OPLS-2005>
213.771438598633

> <r_mmod_Torsional_Energy-OPLS-2005>
306.244079589844

> <r_mmod_Improper_Torsional_Energy-OPLS-2005>
7.40541219711304

> <r_mmod_Van_der_Waal_Energy-OPLS-2005>
144.786605834961

> <r_mmod_Electrostatic_Energy-OPLS-2005>
-425.892608642578

> <r_mmod_Solvation_Energy-OPLS-2005>
-249.367218017578

> <b_mmod_Minimization_Converged-OPLS-2005>
0

> <r_mmod_RMS_Derivative-OPLS-2005>
1.96465015411377

$$$$
53
                    3D
 Structure written by MMmdl.
157166  0  0  1  0            999 V2000
  -30.6050  -14.8238   20.3977 C   0  0  0  0  0  0
  -30.4337  -12.4955   19.4898 C   0  0  0  0  0  0
  -29.5202  -12.4993   18.2439 C   0  0  0  0  0  0
  -28.0447  -12.3253   18.6555 C   0  0  0  0  0  0
  -27.6359  -13.2455   19.8371 C   0  0  2  0  0  0
  -28.6817  -13.2372   20.9744 C   0  0  0  0  0  0
  -25.2489  -13.8233   20.5684 C   0  0  0  0  0  0
  -24.1790  -13.0457   20.9205 C   0  0  0  0  0  0
  -24.6397  -11.6935   20.8727 C   0  0  0  0  0  0
  -23.9082  -10.4298   21.0394 C   0  0  0  0  0  0
  -24.3617   -9.4206   21.9176 C   0  0  0  0  0  0
  -23.6286   -8.2251   22.0755 C   0  0  0  0  0  0
  -22.4272   -8.0287   21.3549 C   0  0  0  0  0  0
  -21.9898   -9.0263   20.4657 C   0  0  0  0  0  0
  -22.7241  -10.2135   20.3055 C   0  0  0  0  0  0
  -21.6859   -6.0719   22.5270 C   0  0  0  0  0  0
  -21.4022   -6.5623   23.8197 C   0  0  0  0  0  0
  -21.3658   -5.6781   24.9162 C   0  0  0  0  0  0
  -21.6047   -4.3045   24.7215 C   0  0  0  0  0  0
  -21.8825   -3.8130   23.4343 C   0  0  0  0  0  0
  -21.9188   -4.6946   22.3392 C   0  0  0  0  0  0
  -22.7808  -13.5226   21.1867 C   0  0  0  0  0  0
  -22.1664   -4.2127   21.0967 F   0  0  0  0  0  0
  -21.5619   -3.4527   25.7734 F   0  0  0  0  0  0
  -29.9750  -13.5923   20.3800 N   0  0  0  0  0  0
  -26.2921  -12.9463   20.3228 N   0  0  0  0  0  0
  -25.9332  -11.6591   20.5720 N   0  0  0  0  0  0
  -22.0463  -12.8214   22.0427 N   0  0  0  0  0  0
  -25.4181  -15.1956   20.4078 N   0  0  0  0  0  0
  -31.8162  -14.8566   20.1700 O   0  0  0  0  0  0
  -21.6655   -6.8875   21.4235 O   0  0  0  0  0  0
  -22.3479  -14.5517   20.6703 O   0  0  0  0  0  0
  -24.6388  -31.8501   23.1931 C   0  0  0  0  0  0
  -25.9187  -32.4731   23.8293 C   0  0  1  0  0  0
  -27.2121  -27.2103   20.1099 C   0  0  0  0  0  0
  -25.5965  -33.8528   24.2218 N   0  0  0  0  0  0
  -23.4363  -30.4740   21.5395 C   0  0  2  0  0  0
  -24.8778  -28.9141   20.1067 C   0  0  0  0  0  0
  -22.7530  -29.4585   22.4886 C   0  0  0  0  0  0
  -18.0313  -28.1383   22.8483 C   0  0  0  0  0  0
  -24.1487  -36.7271   23.2635 C   0  0  0  0  0  0
  -25.9883  -30.7475   21.3781 C   0  0  0  0  0  0
  -26.0572  -29.3678   20.7103 C   0  0  0  0  0  0
  -27.2262  -28.5298   20.6970 C   0  0  0  0  0  0
  -25.9926  -26.8248   19.5112 C   0  0  0  0  0  0
  -24.8524  -27.6514   19.4981 C   0  0  0  0  0  0
  -23.6543  -29.8111   20.1551 C   0  0  0  0  0  0
  -25.4113  -36.3054   24.0318 C   0  0  1  0  0  0
  -20.5917  -28.3712   23.1247 C   0  0  2  0  0  0
  -20.6798  -26.9421   22.5403 C   0  0  0  0  0  0
  -19.5770  -26.6374   21.5209 C   0  0  0  0  0  0
  -18.1950  -26.7926   22.1620 C   0  0  0  0  0  0
  -19.1563  -28.8864   23.2862 C   0  0  0  0  0  0
  -18.9482  -30.1454   23.8894 C   0  0  0  0  0  0
  -17.6473  -30.6582   24.0566 C   0  0  0  0  0  0
  -25.9069  -34.9427   23.5073 C   0  0  0  0  0  0
  -16.5371  -29.9068   23.6333 C   0  0  0  0  0  0
  -16.7294  -28.6491   23.0357 C   0  0  0  0  0  0
  -26.4514  -31.6583   25.0717 C   0  0  0  0  0  0
  -25.3704  -31.3793   26.1428 C   0  0  0  0  0  0
  -27.0348  -30.2976   24.6264 C   0  0  0  0  0  0
  -27.6046  -32.4339   25.7511 C   0  0  0  0  0  0
  -27.5583  -37.1788   24.8448 C   0  0  0  0  0  0
  -21.4234  -29.3046   22.3627 N   0  0  0  0  0  0
  -26.4279  -37.3765   23.9417 N   0  0  0  0  0  0
  -24.7079  -31.0414   22.0939 N   0  0  0  0  0  0
  -23.4194  -28.8130   23.3015 O   0  0  0  0  0  0
  -28.2889  -26.2745   20.1939 O   0  0  0  0  0  0
  -26.5637  -34.8918   22.4644 O   0  0  0  0  0  0
  -23.5527  -32.1349   23.7197 O   0  0  0  0  0  0
  -30.5027  -19.9187   18.5764 C   0  0  0  0  0  0
  -31.0492  -18.7179   18.0909 C   0  0  0  0  0  0
  -29.5182  -18.6667   20.4091 C   0  0  0  0  0  0
  -29.6910  -19.9696   19.7346 C   0  0  0  0  0  0
  -30.0805  -17.3850   19.9271 C   0  0  0  0  0  0
  -30.8259  -17.4819   18.7221 C   0  0  0  0  0  0
  -28.6241  -23.7192   20.0513 C   0  0  0  0  0  0
  -28.8019  -23.3085   21.4263 C   0  0  0  0  0  0
  -28.8229  -22.4200   19.3011 C   0  0  0  0  0  0
  -28.6650  -24.1118   22.4952 C   0  0  0  0  0  0
  -28.3468  -25.0003   19.5129 C   0  0  0  0  0  0
  -29.1241  -21.8128   21.5188 C   0  0  0  0  0  0
  -28.2144  -25.2126   18.0055 C   0  0  0  0  0  0
  -29.1741  -21.3448   20.1288 N   0  0  0  0  0  0
  -29.8556  -16.0083   20.5136 N   0  0  0  0  0  0
  -28.6714  -22.2819   18.0811 O   0  0  0  0  0  0
  -31.3067  -16.3812   18.0967 F   0  0  0  0  0  0
  -31.4756  -12.6128   19.1869 H   0  0  0  0  0  0
  -30.3808  -11.5378   20.0085 H   0  0  0  0  0  0
  -29.8101  -11.6989   17.5620 H   0  0  0  0  0  0
  -29.6489  -13.4332   17.6949 H   0  0  0  0  0  0
  -27.9050  -11.2796   18.9351 H   0  0  0  0  0  0
  -27.3948  -12.5021   17.7972 H   0  0  0  0  0  0
  -27.6115  -14.2552   19.4254 H   0  0  0  0  0  0
  -28.7320  -12.2575   21.4517 H   0  0  0  0  0  0
  -28.4103  -13.9525   21.7528 H   0  0  0  0  0  0
  -25.2761   -9.5662   22.4749 H   0  0  0  0  0  0
  -23.9980   -7.4628   22.7467 H   0  0  0  0  0  0
  -21.0826   -8.8779   19.8966 H   0  0  0  0  0  0
  -22.3702  -10.9656   19.6148 H   0  0  0  0  0  0
  -21.2038   -7.6135   23.9690 H   0  0  0  0  0  0
  -21.1474   -6.0519   25.9056 H   0  0  0  0  0  0
  -22.0607   -2.7594   23.2862 H   0  0  0  0  0  0
  -22.4084  -11.9881   22.4825 H   0  0  0  0  0  0
  -21.1072  -13.1227   22.2638 H   0  0  0  0  0  0
  -24.6545  -15.8541   20.5141 H   0  0  0  0  0  0
  -26.2596  -15.6247   20.0455 H   0  0  0  0  0  0
  -26.7258  -32.5348   23.1026 H   0  0  0  0  0  0
  -25.0133  -33.9644   25.0384 H   0  0  0  0  0  0
  -22.7380  -31.3005   21.3933 H   0  0  0  0  0  0
  -23.3759  -35.9591   23.3260 H   0  0  0  0  0  0
  -24.3596  -36.8934   22.2061 H   0  0  0  0  0  0
  -23.7217  -37.6449   23.6688 H   0  0  0  0  0  0
  -26.1359  -31.5137   20.6158 H   0  0  0  0  0  0
  -26.8618  -30.7900   22.0177 H   0  0  0  0  0  0
  -28.1312  -28.8699   21.1796 H   0  0  0  0  0  0
  -25.8826  -25.8417   19.0802 H   0  0  0  0  0  0
  -23.9425  -27.2878   19.0412 H   0  0  0  0  0  0
  -23.7892  -30.5896   19.4033 H   0  0  0  0  0  0
  -22.7676  -29.2557   19.8437 H   0  0  0  0  0  0
  -25.1290  -36.1895   25.0806 H   0  0  0  0  0  0
  -21.0013  -28.3300   24.1364 H   0  0  0  0  0  0
  -20.5700  -26.2317   23.3611 H   0  0  0  0  0  0
  -21.6670  -26.7442   22.1203 H   0  0  0  0  0  0
  -19.6932  -25.6277   21.1251 H   0  0  0  0  0  0
  -19.6695  -27.3171   20.6723 H   0  0  0  0  0  0
  -17.4216  -26.6678   21.4022 H   0  0  0  0  0  0
  -18.0349  -26.0060   22.9011 H   0  0  0  0  0  0
  -19.7951  -30.7278   24.2257 H   0  0  0  0  0  0
  -17.5025  -31.6259   24.5164 H   0  0  0  0  0  0
  -15.5364  -30.2966   23.7656 H   0  0  0  0  0  0
  -15.8701  -28.0795   22.7077 H   0  0  0  0  0  0
  -24.5851  -30.7177   25.7768 H   0  0  0  0  0  0
  -24.8940  -32.2994   26.4821 H   0  0  0  0  0  0
  -25.7990  -30.8985   27.0229 H   0  0  0  0  0  0
  -26.2945  -29.6732   24.1255 H   0  0  0  0  0  0
  -27.3946  -29.7257   25.4828 H   0  0  0  0  0  0
  -27.8864  -30.4214   23.9568 H   0  0  0  0  0  0
  -27.2623  -33.3630   26.2086 H   0  0  0  0  0  0
  -28.3867  -32.6922   25.0358 H   0  0  0  0  0  0
  -28.0700  -31.8472   26.5445 H   0  0  0  0  0  0
  -28.2564  -38.0123   24.7555 H   0  0  0  0  0  0
  -28.1122  -36.2663   24.6190 H   0  0  0  0  0  0
  -27.2329  -37.1335   25.8856 H   0  0  0  0  0  0
  -20.9421  -29.8761   21.6831 H   0  0  0  0  0  0
  -26.0151  -38.2833   24.1444 H   0  0  0  0  0  0
  -30.7326  -20.8178   18.0236 H   0  0  0  0  0  0
  -31.6438  -18.7374   17.1883 H   0  0  0  0  0  0
  -28.9207  -18.6466   21.3091 H   0  0  0  0  0  0
  -28.4103  -25.1570   22.3977 H   0  0  0  0  0  0
  -28.7954  -23.7308   23.4978 H   0  0  0  0  0  0
  -28.3493  -21.2791   22.0701 H   0  0  0  0  0  0
  -30.0835  -21.6537   22.0119 H   0  0  0  0  0  0
  -27.3315  -24.6944   17.6291 H   0  0  0  0  0  0
  -29.0858  -24.8225   17.4806 H   0  0  0  0  0  0
  -28.1236  -26.2656   17.7376 H   0  0  0  0  0  0
  -28.9389  -15.8683   20.9107 H   0  0  0  0  0  0
  1 25  1  0  0  0
  1 30  2  0  0  0
  1 85  1  0  0  0
  2  3  1  0  0  0
  2 25  1  0  0  0
  2 88  1  0  0  0
  2 89  1  0  0  0
  3  4  1  0  0  0
  3 90  1  0  0  0
  3 91  1  0  0  0
  4  5  1  0  0  0
  4 92  1  0  0  0
  4 93  1  0  0  0
  5  6  1  0  0  0
  5 26  1  0  0  0
  5 94  1  0  0  0
  6 25  1  0  0  0
  6 95  1  0  0  0
  6 96  1  0  0  0
  7  8  2  0  0  0
  7 26  1  0  0  0
  7 29  1  0  0  0
  8  9  1  0  0  0
  8 22  1  0  0  0
  9 10  1  0  0  0
  9 27  2  0  0  0
 10 11  2  0  0  0
 10 15  1  0  0  0
 11 12  1  0  0  0
 11 97  1  0  0  0
 12 13  2  0  0  0
 12 98  1  0  0  0
 13 14  1  0  0  0
 13 31  1  0  0  0
 14 15  2  0  0  0
 14 99  1  0  0  0
 15100  1  0  0  0
 16 17  2  0  0  0
 16 21  1  0  0  0
 16 31  1  0  0  0
 17 18  1  0  0  0
 17101  1  0  0  0
 18 19  2  0  0  0
 18102  1  0  0  0
 19 20  1  0  0  0
 19 24  1  0  0  0
 20 21  2  0  0  0
 20103  1  0  0  0
 21 23  1  0  0  0
 22 28  1  0  0  0
 22 32  2  0  0  0
 26 27  1  0  0  0
 28104  1  0  0  0
 28105  1  0  0  0
 29106  1  0  0  0
 29107  1  0  0  0
 33 34  1  0  0  0
 33 66  1  0  0  0
 33 70  2  0  0  0
 34 36  1  0  0  0
 34 59  1  0  0  0
 34108  1  0  0  0
 35 44  2  0  0  0
 35 45  1  0  0  0
 35 68  1  0  0  0
 36 56  1  0  0  0
 36109  1  0  0  0
 37 39  1  0  0  0
 37 47  1  0  0  0
 37 66  1  0  0  0
 37110  1  0  0  0
 38 43  2  0  0  0
 38 46  1  0  0  0
 38 47  1  0  0  0
 39 64  1  0  0  0
 39 67  2  0  0  0
 40 52  1  0  0  0
 40 53  2  0  0  0
 40 58  1  0  0  0
 41111  1  0  0  0
 41112  1  0  0  0
 41113  1  0  0  0
 41 48  1  0  0  0
 42 43  1  0  0  0
 42 66  1  0  0  0
 42114  1  0  0  0
 42115  1  0  0  0
 43 44  1  0  0  0
 44116  1  0  0  0
 45 46  2  0  0  0
 45117  1  0  0  0
 46118  1  0  0  0
 47119  1  0  0  0
 47120  1  0  0  0
 48 56  1  0  0  0
 48 65  1  0  0  0
 48121  1  0  0  0
 49 50  1  0  0  0
 49 53  1  0  0  0
 49 64  1  0  0  0
 49122  1  0  0  0
 50 51  1  0  0  0
 50123  1  0  0  0
 50124  1  0  0  0
 51 52  1  0  0  0
 51125  1  0  0  0
 51126  1  0  0  0
 52127  1  0  0  0
 52128  1  0  0  0
 53 54  1  0  0  0
 54 55  2  0  0  0
 54129  1  0  0  0
 55 57  1  0  0  0
 55130  1  0  0  0
 56 69  2  0  0  0
 57 58  2  0  0  0
 57131  1  0  0  0
 58132  1  0  0  0
 59 60  1  0  0  0
 59 61  1  0  0  0
 59 62  1  0  0  0
 60133  1  0  0  0
 60134  1  0  0  0
 60135  1  0  0  0
 61136  1  0  0  0
 61137  1  0  0  0
 61138  1  0  0  0
 62139  1  0  0  0
 62140  1  0  0  0
 62141  1  0  0  0
 63 65  1  0  0  0
 63142  1  0  0  0
 63143  1  0  0  0
 63144  1  0  0  0
 64145  1  0  0  0
 65146  1  0  0  0
 68 81  1  0  0  0
 71 72  2  0  0  0
 71 74  1  0  0  0
 71147  1  0  0  0
 72 76  1  0  0  0
 72148  1  0  0  0
 73 74  2  0  0  0
 73 75  1  0  0  0
 73149  1  0  0  0
 74 84  1  0  0  0
 75 76  2  0  0  0
 75 85  1  0  0  0
 76 87  1  0  0  0
 77 78  1  0  0  0
 77 79  1  0  0  0
 77 81  2  0  0  0
 78 80  2  0  0  0
 78 82  1  0  0  0
 79 84  1  0  0  0
 79 86  2  0  0  0
 80150  1  0  0  0
 80151  1  0  0  0
 81 83  1  0  0  0
 82 84  1  0  0  0
 82152  1  0  0  0
 82153  1  0  0  0
 83154  1  0  0  0
 83155  1  0  0  0
 83156  1  0  0  0
 85157  1  0  0  0
M  ISO  4   1 100  68 101  81 101  85 100
M  END
> <chiral flag>
0

> <version>
0

> <s_m_source_file>
/data/baiqing/PycharmProjects/Reinvent-master-3.2/result/LINK_invent/BTK/process_docking_weight1_custom_product_contain_oxygen_bond_distance_aromatic_linkinvent_7_9_3/rearranged_h_0076.sdf

> <i_m_source_file_index>
54

> <r_mmod_Potential_Energy-OPLS-2005>
439.645965576172

> <r_mmod_Stretch_Energy-OPLS-2005>
171.615524291992

> <r_mmod_Bend_Energy-OPLS-2005>
227.797286987305

> <r_mmod_Torsional_Energy-OPLS-2005>
291.046539306641

> <r_mmod_Improper_Torsional_Energy-OPLS-2005>
4.73177289962769

> <r_mmod_Van_der_Waal_Energy-OPLS-2005>
147.009201049805

> <r_mmod_Electrostatic_Energy-OPLS-2005>
-316.897674560547

> <r_mmod_Solvation_Energy-OPLS-2005>
-211.545837402344

> <b_mmod_Minimization_Converged-OPLS-2005>
0

> <r_mmod_RMS_Derivative-OPLS-2005>
2.68913888931274

$$$$
54
                    3D
 Structure written by MMmdl.
144151  0  0  1  0            999 V2000
  -30.0823  -16.2236   20.2733 C   0  0  0  0  0  0
  -30.3677  -13.5196   19.5641 C   0  0  0  0  0  0
  -29.5706  -12.8309   18.3969 C   0  0  0  0  0  0
  -28.1962  -12.3427   18.8616 C   0  0  0  0  0  0
  -27.5810  -13.3786   19.8189 C   0  0  2  0  0  0
  -28.5472  -13.9488   20.9061 C   0  0  0  0  0  0
  -25.2218  -13.8395   20.5884 C   0  0  0  0  0  0
  -24.1677  -13.0449   20.9320 C   0  0  0  0  0  0
  -24.6477  -11.6992   20.8753 C   0  0  0  0  0  0
  -23.9191  -10.4307   21.0367 C   0  0  0  0  0  0
  -24.3699   -9.4217   21.9163 C   0  0  0  0  0  0
  -23.6340   -8.2267   22.0750 C   0  0  0  0  0  0
  -22.4318   -8.0307   21.3545 C   0  0  0  0  0  0
  -21.9979   -9.0284   20.4638 C   0  0  0  0  0  0
  -22.7342  -10.2146   20.3033 C   0  0  0  0  0  0
  -21.6869   -6.0754   22.5279 C   0  0  0  0  0  0
  -21.4026   -6.5651   23.8213 C   0  0  0  0  0  0
  -21.3663   -5.6799   24.9173 C   0  0  0  0  0  0
  -21.6043   -4.3061   24.7220 C   0  0  0  0  0  0
  -21.8817   -3.8157   23.4340 C   0  0  0  0  0  0
  -21.9197   -4.6978   22.3398 C   0  0  0  0  0  0
  -22.7670  -13.5120   21.1936 C   0  0  0  0  0  0
  -22.1663   -4.2162   21.0976 F   0  0  0  0  0  0
  -21.5625   -3.4542   25.7731 F   0  0  0  0  0  0
  -29.6330  -14.7495   20.2317 N   0  0  0  0  0  0
  -26.2764  -12.9872   20.3364 N   0  0  0  0  0  0
  -25.9457  -11.6859   20.5685 N   0  0  0  0  0  0
  -22.0357  -12.8079   22.0488 N   0  0  0  0  0  0
  -25.3698  -15.2150   20.4322 N   0  0  0  0  0  0
  -31.3191  -16.0627   20.0906 O   0  0  0  0  0  0
  -21.6663   -6.8910   21.4247 O   0  0  0  0  0  0
  -22.3324  -14.5411   20.6770 O   0  0  0  0  0  0
  -24.7214  -31.7507   23.1172 C   0  0  0  0  0  0
  -25.9600  -32.4223   23.7869 C   0  0  1  0  0  0
  -27.2522  -26.2952   20.2451 C   0  0  0  0  0  0
  -25.6009  -33.8074   24.1710 N   0  0  0  0  0  0
  -23.5672  -30.3322   21.4792 C   0  0  2  0  0  0
  -25.0320  -28.5878   20.1224 C   0  0  0  0  0  0
  -22.7938  -29.4043   22.4589 C   0  0  0  0  0  0
  -18.0363  -28.1443   22.8432 C   0  0  0  0  0  0
  -24.1497  -36.7050   23.2665 C   0  0  0  0  0  0
  -26.1607  -30.3457   21.4468 C   0  0  0  0  0  0
  -26.2214  -28.8656   20.8033 C   0  0  0  0  0  0
  -27.2878  -27.7574   20.8294 C   0  0  0  0  0  0
  -26.0335  -26.3361   19.4854 C   0  0  0  0  0  0
  -25.0018  -27.3536   19.4386 C   0  0  0  0  0  0
  -23.8443  -29.5902   20.1314 C   0  0  0  0  0  0
  -25.4164  -36.2755   24.0251 C   0  0  1  0  0  0
  -20.6016  -28.3817   23.1067 C   0  0  2  0  0  0
  -20.6805  -26.9437   22.5415 C   0  0  0  0  0  0
  -19.5791  -26.6355   21.5221 C   0  0  0  0  0  0
  -18.1972  -26.7962   22.1610 C   0  0  0  0  0  0
  -19.1639  -28.8964   23.2718 C   0  0  0  0  0  0
  -18.9538  -30.1536   23.8781 C   0  0  0  0  0  0
  -17.6523  -30.6613   24.0541 C   0  0  0  0  0  0
  -25.9166  -34.9155   23.4851 C   0  0  0  0  0  0
  -16.5410  -29.9088   23.6360 C   0  0  0  0  0  0
  -16.7340  -28.6514   23.0373 C   0  0  0  0  0  0
  -26.4654  -31.6441   25.0664 C   0  0  0  0  0  0
  -25.3613  -31.3874   26.1202 C   0  0  0  0  0  0
  -27.0657  -30.2738   24.6869 C   0  0  0  0  0  0
  -27.6021  -32.4407   25.7503 C   0  0  0  0  0  0
  -27.5549  -37.1682   24.8469 C   0  0  0  0  0  0
  -21.4548  -29.2977   22.3337 N   0  0  0  0  0  0
  -26.4256  -37.3560   23.9403 N   0  0  0  0  0  0
  -24.8446  -30.8536   22.0657 N   0  0  0  0  0  0
  -23.4190  -28.7716   23.3126 O   0  0  0  0  0  0
  -28.1579  -24.8935   20.3909 O   0  0  0  0  0  0
  -26.5870  -34.8814   22.4512 O   0  0  0  0  0  0
  -23.6147  -32.0775   23.5864 O   0  0  0  0  0  0
  -28.8129  -21.6590   20.4523 C   0  0  0  0  0  0
  -28.2567  -23.1676   20.0153 C   0  0  0  0  0  0
  -30.7879  -19.8950   19.7113 C   0  0  0  0  0  0
  -28.6064  -19.6267   18.5592 C   0  0  0  0  0  0
  -29.2810  -19.6969   19.9374 C   0  0  0  0  0  0
  -29.3453  -17.7557   20.3520 N   0  0  0  0  0  0
  -31.3171  -13.8488   19.1415 H   0  0  0  0  0  0
  -30.6593  -12.7811   20.3133 H   0  0  0  0  0  0
  -30.1432  -12.0032   17.9760 H   0  0  0  0  0  0
  -29.4392  -13.5536   17.5903 H   0  0  0  0  0  0
  -28.3265  -11.3960   19.3875 H   0  0  0  0  0  0
  -27.5408  -12.1448   18.0123 H   0  0  0  0  0  0
  -27.3717  -14.2220   19.1588 H   0  0  0  0  0  0
  -28.9262  -13.1668   21.5661 H   0  0  0  0  0  0
  -28.0010  -14.6345   21.5549 H   0  0  0  0  0  0
  -25.2833   -9.5685   22.4757 H   0  0  0  0  0  0
  -24.0030   -7.4663   22.7485 H   0  0  0  0  0  0
  -21.0905   -8.8823   19.8947 H   0  0  0  0  0  0
  -22.3802  -10.9686   19.6144 H   0  0  0  0  0  0
  -21.2026   -7.6160   23.9721 H   0  0  0  0  0  0
  -21.1484   -6.0528   25.9076 H   0  0  0  0  0  0
  -22.0591   -2.7619   23.2837 H   0  0  0  0  0  0
  -22.4027  -11.9769   22.4884 H   0  0  0  0  0  0
  -21.0952  -13.1044   22.2681 H   0  0  0  0  0  0
  -24.5918  -15.8569   20.5405 H   0  0  0  0  0  0
  -26.2113  -15.6639   20.0951 H   0  0  0  0  0  0
  -26.7725  -32.4602   23.0608 H   0  0  0  0  0  0
  -24.9992  -33.9042   24.9756 H   0  0  0  0  0  0
  -22.9161  -31.1792   21.2535 H   0  0  0  0  0  0
  -23.3782  -35.9354   23.3252 H   0  0  0  0  0  0
  -24.3546  -36.8814   22.2094 H   0  0  0  0  0  0
  -23.7241  -37.6186   23.6828 H   0  0  0  0  0  0
  -26.4068  -31.0421   20.6441 H   0  0  0  0  0  0
  -26.9966  -30.4271   22.1279 H   0  0  0  0  0  0
  -28.1642  -27.9862   21.4190 H   0  0  0  0  0  0
  -25.8059  -25.4302   18.9415 H   0  0  0  0  0  0
  -24.1183  -27.1254   18.8582 H   0  0  0  0  0  0
  -24.0488  -30.3333   19.3598 H   0  0  0  0  0  0
  -22.9420  -29.0741   19.7994 H   0  0  0  0  0  0
  -25.1396  -36.1458   25.0739 H   0  0  0  0  0  0
  -21.0083  -28.3476   24.1200 H   0  0  0  0  0  0
  -20.5626  -26.2453   23.3714 H   0  0  0  0  0  0
  -21.6664  -26.7311   22.1261 H   0  0  0  0  0  0
  -19.6939  -25.6235   21.1326 H   0  0  0  0  0  0
  -19.6751  -27.3101   20.6703 H   0  0  0  0  0  0
  -17.4246  -26.6707   21.4008 H   0  0  0  0  0  0
  -18.0342  -26.0132   22.9030 H   0  0  0  0  0  0
  -19.8015  -30.7379   24.2102 H   0  0  0  0  0  0
  -17.5074  -31.6281   24.5167 H   0  0  0  0  0  0
  -15.5407  -30.2956   23.7753 H   0  0  0  0  0  0
  -15.8739  -28.0797   22.7154 H   0  0  0  0  0  0
  -24.5860  -30.7159   25.7492 H   0  0  0  0  0  0
  -24.8736  -32.3128   26.4277 H   0  0  0  0  0  0
  -25.7697  -30.9269   27.0207 H   0  0  0  0  0  0
  -26.3449  -29.6214   24.1934 H   0  0  0  0  0  0
  -27.3990  -29.7363   25.5758 H   0  0  0  0  0  0
  -27.9462  -30.3773   24.0527 H   0  0  0  0  0  0
  -27.2509  -33.3833   26.1713 H   0  0  0  0  0  0
  -28.4012  -32.6768   25.0463 H   0  0  0  0  0  0
  -28.0491  -31.8791   26.5717 H   0  0  0  0  0  0
  -28.2521  -38.0016   24.7500 H   0  0  0  0  0  0
  -28.1088  -36.2530   24.6321 H   0  0  0  0  0  0
  -27.2257  -37.1336   25.8870 H   0  0  0  0  0  0
  -20.9950  -29.8566   21.6283 H   0  0  0  0  0  0
  -26.0047  -38.2590   24.1414 H   0  0  0  0  0  0
  -29.2125  -21.7588   21.4514 H   0  0  0  0  0  0
  -27.8451  -23.1174   19.0171 H   0  0  0  0  0  0
  -30.9968  -20.8229   19.1773 H   0  0  0  0  0  0
  -31.2268  -19.0834   19.1298 H   0  0  0  0  0  0
  -31.3174  -19.9415   20.6632 H   0  0  0  0  0  0
  -28.7620  -20.5436   17.9891 H   0  0  0  0  0  0
  -27.5301  -19.4877   18.6628 H   0  0  0  0  0  0
  -28.9904  -18.8024   17.9571 H   0  0  0  0  0  0
  -28.4034  -17.5230   20.6398 H   0  0  0  0  0  0
  1 25  1  0  0  0
  1 30  2  0  0  0
  1 76  1  0  0  0
  2  3  1  0  0  0
  2 25  1  0  0  0
  2 77  1  0  0  0
  2 78  1  0  0  0
  3  4  1  0  0  0
  3 79  1  0  0  0
  3 80  1  0  0  0
  4  5  1  0  0  0
  4 81  1  0  0  0
  4 82  1  0  0  0
  5  6  1  0  0  0
  5 26  1  0  0  0
  5 83  1  0  0  0
  6 25  1  0  0  0
  6 84  1  0  0  0
  6 85  1  0  0  0
  7  8  2  0  0  0
  7 26  1  0  0  0
  7 29  1  0  0  0
  8  9  1  0  0  0
  8 22  1  0  0  0
  9 10  1  0  0  0
  9 27  2  0  0  0
 10 11  2  0  0  0
 10 15  1  0  0  0
 11 12  1  0  0  0
 11 86  1  0  0  0
 12 13  2  0  0  0
 12 87  1  0  0  0
 13 14  1  0  0  0
 13 31  1  0  0  0
 14 15  2  0  0  0
 14 88  1  0  0  0
 15 89  1  0  0  0
 16 17  2  0  0  0
 16 21  1  0  0  0
 16 31  1  0  0  0
 17 18  1  0  0  0
 17 90  1  0  0  0
 18 19  2  0  0  0
 18 91  1  0  0  0
 19 20  1  0  0  0
 19 24  1  0  0  0
 20 21  2  0  0  0
 20 92  1  0  0  0
 21 23  1  0  0  0
 22 28  1  0  0  0
 22 32  2  0  0  0
 26 27  1  0  0  0
 28 93  1  0  0  0
 28 94  1  0  0  0
 29 95  1  0  0  0
 29 96  1  0  0  0
 33 34  1  0  0  0
 33 66  1  0  0  0
 33 70  2  0  0  0
 34 36  1  0  0  0
 34 59  1  0  0  0
 34 97  1  0  0  0
 35 44  2  0  0  0
 35 45  1  0  0  0
 35 68  1  0  0  0
 36 56  1  0  0  0
 36 98  1  0  0  0
 37 39  1  0  0  0
 37 47  1  0  0  0
 37 66  1  0  0  0
 37 99  1  0  0  0
 38 43  2  0  0  0
 38 46  1  0  0  0
 38 47  1  0  0  0
 39 64  1  0  0  0
 39 67  2  0  0  0
 40 52  1  0  0  0
 40 53  2  0  0  0
 40 58  1  0  0  0
 41100  1  0  0  0
 41101  1  0  0  0
 41102  1  0  0  0
 41 48  1  0  0  0
 42 43  1  0  0  0
 42 66  1  0  0  0
 42103  1  0  0  0
 42104  1  0  0  0
 43 44  1  0  0  0
 44105  1  0  0  0
 45 46  2  0  0  0
 45106  1  0  0  0
 46107  1  0  0  0
 47108  1  0  0  0
 47109  1  0  0  0
 48 56  1  0  0  0
 48 65  1  0  0  0
 48110  1  0  0  0
 49 50  1  0  0  0
 49 53  1  0  0  0
 49 64  1  0  0  0
 49111  1  0  0  0
 50 51  1  0  0  0
 50112  1  0  0  0
 50113  1  0  0  0
 51 52  1  0  0  0
 51114  1  0  0  0
 51115  1  0  0  0
 52116  1  0  0  0
 52117  1  0  0  0
 53 54  1  0  0  0
 54 55  2  0  0  0
 54118  1  0  0  0
 55 57  1  0  0  0
 55119  1  0  0  0
 56 69  2  0  0  0
 57 58  2  0  0  0
 57120  1  0  0  0
 58121  1  0  0  0
 59 60  1  0  0  0
 59 61  1  0  0  0
 59 62  1  0  0  0
 60122  1  0  0  0
 60123  1  0  0  0
 60124  1  0  0  0
 61125  1  0  0  0
 61126  1  0  0  0
 61127  1  0  0  0
 62128  1  0  0  0
 62129  1  0  0  0
 62130  1  0  0  0
 63 65  1  0  0  0
 63131  1  0  0  0
 63132  1  0  0  0
 63133  1  0  0  0
 64134  1  0  0  0
 65135  1  0  0  0
 68 72  1  0  0  0
 71 72  2  0  0  0
 71 75  1  0  0  0
 71136  1  0  0  0
 72137  1  0  0  0
 73138  1  0  0  0
 73139  1  0  0  0
 73140  1  0  0  0
 73 75  1  0  0  0
 74 75  1  0  0  0
 74141  1  0  0  0
 74142  1  0  0  0
 74143  1  0  0  0
 75 76  1  0  0  0
 76144  1  0  0  0
M  ISO  4   1 100  68 101  72 101  76 100
M  END
> <chiral flag>
0

> <version>
0

> <s_m_source_file>
/data/baiqing/PycharmProjects/Reinvent-master-3.2/result/LINK_invent/BTK/process_docking_weight1_custom_product_contain_oxygen_bond_distance_aromatic_linkinvent_7_9_3/rearranged_h_0076.sdf

> <i_m_source_file_index>
55

> <r_mmod_Potential_Energy-OPLS-2005>
4872.41064453125

> <r_mmod_Stretch_Energy-OPLS-2005>
2139.50854492188

> <r_mmod_Bend_Energy-OPLS-2005>
946.720397949219

> <r_mmod_Torsional_Energy-OPLS-2005>
218.331481933594

> <r_mmod_Improper_Torsional_Energy-OPLS-2005>
6.20317697525024

> <r_mmod_Van_der_Waal_Energy-OPLS-2005>
114.695037841797

> <r_mmod_Electrostatic_Energy-OPLS-2005>
-336.661285400391

> <r_mmod_Solvation_Energy-OPLS-2005>
-208.540817260742

> <b_mmod_Minimization_Converged-OPLS-2005>
0

> <r_mmod_RMS_Derivative-OPLS-2005>
0.23868715763092

$$$$
55
                    3D
 Structure written by MMmdl.
165174  0  0  1  0            999 V2000
  -30.5501  -15.0199   20.3547 C   0  0  0  0  0  0
  -30.4527  -12.6335   19.4677 C   0  0  0  0  0  0
  -29.5131  -12.4301   18.2531 C   0  0  0  0  0  0
  -28.0488  -12.2653   18.6926 C   0  0  0  0  0  0
  -27.6256  -13.2427   19.8196 C   0  0  2  0  0  0
  -28.6836  -13.3386   20.9367 C   0  0  0  0  0  0
  -25.2501  -13.8227   20.5738 C   0  0  0  0  0  0
  -24.1794  -13.0471   20.9233 C   0  0  0  0  0  0
  -24.6393  -11.6942   20.8786 C   0  0  0  0  0  0
  -23.9061  -10.4309   21.0414 C   0  0  0  0  0  0
  -24.3606   -9.4221   21.9190 C   0  0  0  0  0  0
  -23.6285   -8.2253   22.0757 C   0  0  0  0  0  0
  -22.4275   -8.0288   21.3548 C   0  0  0  0  0  0
  -21.9911   -9.0252   20.4648 C   0  0  0  0  0  0
  -22.7230  -10.2141   20.3061 C   0  0  0  0  0  0
  -21.6857   -6.0732   22.5267 C   0  0  0  0  0  0
  -21.4017   -6.5630   23.8207 C   0  0  0  0  0  0
  -21.3664   -5.6783   24.9167 C   0  0  0  0  0  0
  -21.6051   -4.3048   24.7213 C   0  0  0  0  0  0
  -21.8823   -3.8142   23.4335 C   0  0  0  0  0  0
  -21.9200   -4.6958   22.3398 C   0  0  0  0  0  0
  -22.7808  -13.5254   21.1841 C   0  0  0  0  0  0
  -22.1666   -4.2145   21.0973 F   0  0  0  0  0  0
  -21.5636   -3.4534   25.7722 F   0  0  0  0  0  0
  -29.9283  -13.7661   20.2825 N   0  0  0  0  0  0
  -26.2904  -12.9433   20.3272 N   0  0  0  0  0  0
  -25.9329  -11.6575   20.5801 N   0  0  0  0  0  0
  -22.0415  -12.8269   22.0383 N   0  0  0  0  0  0
  -25.4244  -15.1945   20.4166 N   0  0  0  0  0  0
  -31.7865  -14.9948   20.3599 O   0  0  0  0  0  0
  -21.6660   -6.8875   21.4231 O   0  0  0  0  0  0
  -22.3517  -14.5540   20.6639 O   0  0  0  0  0  0
  -24.6430  -31.8440   23.1894 C   0  0  0  0  0  0
  -25.9191  -32.4713   23.8302 C   0  0  1  0  0  0
  -27.2215  -27.1114   20.1611 C   0  0  0  0  0  0
  -25.5938  -33.8522   24.2226 N   0  0  0  0  0  0
  -23.4486  -30.4609   21.5353 C   0  0  2  0  0  0
  -24.9013  -28.8828   20.1151 C   0  0  0  0  0  0
  -22.7579  -29.4533   22.4876 C   0  0  0  0  0  0
  -18.0293  -28.1386   22.8486 C   0  0  0  0  0  0
  -24.1482  -36.7254   23.2637 C   0  0  0  0  0  0
  -26.0043  -30.7064   21.3954 C   0  0  0  0  0  0
  -26.0766  -29.3138   20.7419 C   0  0  0  0  0  0
  -27.2318  -28.4416   20.7542 C   0  0  0  0  0  0
  -26.0225  -26.7940   19.4814 C   0  0  0  0  0  0
  -24.8884  -27.6371   19.4720 C   0  0  0  0  0  0
  -23.6785  -29.7889   20.1542 C   0  0  0  0  0  0
  -25.4118  -36.3057   24.0323 C   0  0  1  0  0  0
  -20.5909  -28.3715   23.1249 C   0  0  2  0  0  0
  -20.6779  -26.9422   22.5409 C   0  0  0  0  0  0
  -19.5753  -26.6375   21.5217 C   0  0  0  0  0  0
  -18.1933  -26.7930   22.1624 C   0  0  0  0  0  0
  -19.1554  -28.8867   23.2853 C   0  0  0  0  0  0
  -18.9475  -30.1462   23.8881 C   0  0  0  0  0  0
  -17.6468  -30.6592   24.0547 C   0  0  0  0  0  0
  -25.9071  -34.9422   23.5085 C   0  0  0  0  0  0
  -16.5356  -29.9081   23.6324 C   0  0  0  0  0  0
  -16.7271  -28.6486   23.0366 C   0  0  0  0  0  0
  -26.4504  -31.6573   25.0732 C   0  0  0  0  0  0
  -25.3662  -31.3795   26.1406 C   0  0  0  0  0  0
  -27.0364  -30.2969   24.6316 C   0  0  0  0  0  0
  -27.6043  -32.4325   25.7511 C   0  0  0  0  0  0
  -27.5588  -37.1784   24.8468 C   0  0  0  0  0  0
  -21.4263  -29.3052   22.3636 N   0  0  0  0  0  0
  -26.4296  -37.3767   23.9410 N   0  0  0  0  0  0
  -24.7179  -31.0265   22.0957 N   0  0  0  0  0  0
  -23.4205  -28.8082   23.3038 O   0  0  0  0  0  0
  -28.2864  -26.1307   20.2458 O   0  0  0  0  0  0
  -26.5657  -34.8911   22.4668 O   0  0  0  0  0  0
  -23.5541  -32.1327   23.7095 O   0  0  0  0  0  0
  -30.0541  -20.0351   21.0355 C   0  0  0  0  0  0
  -28.4673  -19.8505   19.3304 C   0  0  0  0  0  0
  -30.2557  -18.5752   21.0179 C   0  0  0  0  0  0
  -28.6518  -18.4120   19.3237 C   0  0  0  0  0  0
  -29.1728  -20.7849   20.1555 C   0  0  0  0  0  0
  -29.6018  -17.6597   20.1093 C   0  0  0  0  0  0
  -30.3139  -23.9557   20.9635 C   0  0  0  0  0  0
  -29.0526  -23.6042   20.3708 C   0  0  0  0  0  0
  -30.4914  -24.8273   21.9706 C   0  0  0  0  0  0
  -30.5186  -17.7779   16.5359 C   0  0  0  0  0  0
  -28.1601  -24.6692   20.0478 C   0  0  0  0  0  0
  -30.9248  -17.0570   17.5936 C   0  0  0  0  0  0
  -31.4030  -23.1971   20.2695 C   0  0  0  0  0  0
  -30.5933  -22.3423   19.2682 C   0  0  0  0  0  0
  -32.3249  -17.2103   18.1587 C   0  0  0  0  0  0
  -30.0153  -16.0295   18.2735 C   0  0  0  0  0  0
  -29.2077  -22.2418   19.7783 N   0  0  0  0  0  0
  -29.9055  -16.1654   19.7549 N   0  0  0  0  0  0
  -31.4643  -12.8337   19.1113 H   0  0  0  0  0  0
  -30.5218  -11.7239   20.0663 H   0  0  0  0  0  0
  -29.8244  -11.5461   17.6935 H   0  0  0  0  0  0
  -29.5824  -13.2514   17.5464 H   0  0  0  0  0  0
  -27.9417  -11.2397   19.0454 H   0  0  0  0  0  0
  -27.3845  -12.3617   17.8330 H   0  0  0  0  0  0
  -27.5696  -14.2243   19.3477 H   0  0  0  0  0  0
  -28.8079  -12.3849   21.4520 H   0  0  0  0  0  0
  -28.3797  -14.0712   21.6870 H   0  0  0  0  0  0
  -25.2743   -9.5718   22.4778 H   0  0  0  0  0  0
  -24.0001   -7.4662   22.7476 H   0  0  0  0  0  0
  -21.0856   -8.8761   19.8947 H   0  0  0  0  0  0
  -22.3672  -10.9680   19.6184 H   0  0  0  0  0  0
  -21.1999   -7.6136   23.9695 H   0  0  0  0  0  0
  -21.1487   -6.0520   25.9069 H   0  0  0  0  0  0
  -22.0599   -2.7599   23.2833 H   0  0  0  0  0  0
  -22.4002  -11.9974   22.4880 H   0  0  0  0  0  0
  -21.1009  -13.1304   22.2464 H   0  0  0  0  0  0
  -24.6668  -15.8553   20.5466 H   0  0  0  0  0  0
  -26.2901  -15.6321   20.1279 H   0  0  0  0  0  0
  -26.7250  -32.5310   23.1027 H   0  0  0  0  0  0
  -25.0057  -33.9667   25.0353 H   0  0  0  0  0  0
  -22.7522  -31.2871   21.3823 H   0  0  0  0  0  0
  -23.3780  -35.9553   23.3286 H   0  0  0  0  0  0
  -24.3564  -36.8891   22.2056 H   0  0  0  0  0  0
  -23.7198  -37.6430   23.6672 H   0  0  0  0  0  0
  -26.1602  -31.4562   20.6195 H   0  0  0  0  0  0
  -26.8751  -30.7669   22.0369 H   0  0  0  0  0  0
  -28.1253  -28.7655   21.2702 H   0  0  0  0  0  0
  -25.9155  -25.8531   18.9658 H   0  0  0  0  0  0
  -23.9918  -27.3030   18.9673 H   0  0  0  0  0  0
  -23.8220  -30.5652   19.4013 H   0  0  0  0  0  0
  -22.7929  -29.2340   19.8363 H   0  0  0  0  0  0
  -25.1309  -36.1909   25.0824 H   0  0  0  0  0  0
  -20.9997  -28.3291   24.1370 H   0  0  0  0  0  0
  -20.5682  -26.2327   23.3622 H   0  0  0  0  0  0
  -21.6637  -26.7430   22.1198 H   0  0  0  0  0  0
  -19.6913  -25.6277   21.1261 H   0  0  0  0  0  0
  -19.6687  -27.3168   20.6733 H   0  0  0  0  0  0
  -17.4206  -26.6672   21.4021 H   0  0  0  0  0  0
  -18.0326  -26.0060   22.9013 H   0  0  0  0  0  0
  -19.7948  -30.7281   24.2253 H   0  0  0  0  0  0
  -17.5015  -31.6277   24.5142 H   0  0  0  0  0  0
  -15.5355  -30.2981   23.7654 H   0  0  0  0  0  0
  -15.8664  -28.0788   22.7123 H   0  0  0  0  0  0
  -24.5839  -30.7162   25.7714 H   0  0  0  0  0  0
  -24.8839  -32.2987   26.4746 H   0  0  0  0  0  0
  -25.7891  -30.9008   27.0244 H   0  0  0  0  0  0
  -26.2989  -29.6712   24.1281 H   0  0  0  0  0  0
  -27.3939  -29.7263   25.4900 H   0  0  0  0  0  0
  -27.8920  -30.4229   23.9676 H   0  0  0  0  0  0
  -27.2658  -33.3644   26.2061 H   0  0  0  0  0  0
  -28.3864  -32.6853   25.0340 H   0  0  0  0  0  0
  -28.0688  -31.8450   26.5442 H   0  0  0  0  0  0
  -28.2603  -38.0086   24.7531 H   0  0  0  0  0  0
  -28.1089  -36.2616   24.6284 H   0  0  0  0  0  0
  -27.2297  -37.1418   25.8869 H   0  0  0  0  0  0
  -20.9477  -29.8787   21.6833 H   0  0  0  0  0  0
  -26.0177  -38.2847   24.1405 H   0  0  0  0  0  0
  -30.6860  -20.6073   21.6991 H   0  0  0  0  0  0
  -27.7969  -20.2596   18.5880 H   0  0  0  0  0  0
  -31.0141  -18.1757   21.6743 H   0  0  0  0  0  0
  -28.0719  -17.8785   18.5862 H   0  0  0  0  0  0
  -29.6533  -25.3391   22.4235 H   0  0  0  0  0  0
  -31.4755  -25.0424   22.3619 H   0  0  0  0  0  0
  -31.1735  -18.4930   16.0577 H   0  0  0  0  0  0
  -29.5255  -17.6693   16.1235 H   0  0  0  0  0  0
  -27.3159  -24.4342   19.4214 H   0  0  0  0  0  0
  -31.9490  -22.5861   20.9885 H   0  0  0  0  0  0
  -32.1059  -23.8637   19.7697 H   0  0  0  0  0  0
  -31.1037  -21.3976   19.0576 H   0  0  0  0  0  0
  -30.5485  -22.8583   18.3078 H   0  0  0  0  0  0
  -32.9160  -17.9264   17.5877 H   0  0  0  0  0  0
  -32.8421  -16.2512   18.1425 H   0  0  0  0  0  0
  -32.2937  -17.5609   19.1893 H   0  0  0  0  0  0
  -30.4656  -15.0910   17.9582 H   0  0  0  0  0  0
  -29.0197  -16.0247   17.8292 H   0  0  0  0  0  0
  1 25  1  0  0  0
  1 30  2  0  0  0
  1 88  1  0  0  0
  2  3  1  0  0  0
  2 25  1  0  0  0
  2 89  1  0  0  0
  2 90  1  0  0  0
  3  4  1  0  0  0
  3 91  1  0  0  0
  3 92  1  0  0  0
  4  5  1  0  0  0
  4 93  1  0  0  0
  4 94  1  0  0  0
  5  6  1  0  0  0
  5 26  1  0  0  0
  5 95  1  0  0  0
  6 25  1  0  0  0
  6 96  1  0  0  0
  6 97  1  0  0  0
  7  8  2  0  0  0
  7 26  1  0  0  0
  7 29  1  0  0  0
  8  9  1  0  0  0
  8 22  1  0  0  0
  9 10  1  0  0  0
  9 27  2  0  0  0
 10 11  2  0  0  0
 10 15  1  0  0  0
 11 12  1  0  0  0
 11 98  1  0  0  0
 12 13  2  0  0  0
 12 99  1  0  0  0
 13 14  1  0  0  0
 13 31  1  0  0  0
 14 15  2  0  0  0
 14100  1  0  0  0
 15101  1  0  0  0
 16 17  2  0  0  0
 16 21  1  0  0  0
 16 31  1  0  0  0
 17 18  1  0  0  0
 17102  1  0  0  0
 18 19  2  0  0  0
 18103  1  0  0  0
 19 20  1  0  0  0
 19 24  1  0  0  0
 20 21  2  0  0  0
 20104  1  0  0  0
 21 23  1  0  0  0
 22 28  1  0  0  0
 22 32  2  0  0  0
 26 27  1  0  0  0
 28105  1  0  0  0
 28106  1  0  0  0
 29107  1  0  0  0
 29108  1  0  0  0
 33 34  1  0  0  0
 33 66  1  0  0  0
 33 70  2  0  0  0
 34 36  1  0  0  0
 34 59  1  0  0  0
 34109  1  0  0  0
 35 44  2  0  0  0
 35 45  1  0  0  0
 35 68  1  0  0  0
 36 56  1  0  0  0
 36110  1  0  0  0
 37 39  1  0  0  0
 37 47  1  0  0  0
 37 66  1  0  0  0
 37111  1  0  0  0
 38 43  2  0  0  0
 38 46  1  0  0  0
 38 47  1  0  0  0
 39 64  1  0  0  0
 39 67  2  0  0  0
 40 52  1  0  0  0
 40 53  2  0  0  0
 40 58  1  0  0  0
 41112  1  0  0  0
 41113  1  0  0  0
 41114  1  0  0  0
 41 48  1  0  0  0
 42 43  1  0  0  0
 42 66  1  0  0  0
 42115  1  0  0  0
 42116  1  0  0  0
 43 44  1  0  0  0
 44117  1  0  0  0
 45 46  2  0  0  0
 45118  1  0  0  0
 46119  1  0  0  0
 47120  1  0  0  0
 47121  1  0  0  0
 48 56  1  0  0  0
 48 65  1  0  0  0
 48122  1  0  0  0
 49 50  1  0  0  0
 49 53  1  0  0  0
 49 64  1  0  0  0
 49123  1  0  0  0
 50 51  1  0  0  0
 50124  1  0  0  0
 50125  1  0  0  0
 51 52  1  0  0  0
 51126  1  0  0  0
 51127  1  0  0  0
 52128  1  0  0  0
 52129  1  0  0  0
 53 54  1  0  0  0
 54 55  2  0  0  0
 54130  1  0  0  0
 55 57  1  0  0  0
 55131  1  0  0  0
 56 69  2  0  0  0
 57 58  2  0  0  0
 57132  1  0  0  0
 58133  1  0  0  0
 59 60  1  0  0  0
 59 61  1  0  0  0
 59 62  1  0  0  0
 60134  1  0  0  0
 60135  1  0  0  0
 60136  1  0  0  0
 61137  1  0  0  0
 61138  1  0  0  0
 61139  1  0  0  0
 62140  1  0  0  0
 62141  1  0  0  0
 62142  1  0  0  0
 63 65  1  0  0  0
 63143  1  0  0  0
 63144  1  0  0  0
 63145  1  0  0  0
 64146  1  0  0  0
 65147  1  0  0  0
 68 81  1  0  0  0
 71 73  2  0  0  0
 71 75  1  0  0  0
 71148  1  0  0  0
 72 74  1  0  0  0
 72 75  2  0  0  0
 72149  1  0  0  0
 73 76  1  0  0  0
 73150  1  0  0  0
 74 76  2  0  0  0
 74151  1  0  0  0
 75 87  1  0  0  0
 76 88  1  0  0  0
 77 78  1  0  0  0
 77 79  2  0  0  0
 77 83  1  0  0  0
 78 81  2  0  0  0
 78 87  1  0  0  0
 79152  1  0  0  0
 79153  1  0  0  0
 80 82  2  0  0  0
 80154  1  0  0  0
 80155  1  0  0  0
 81156  1  0  0  0
 82 85  1  0  0  0
 82 86  1  0  0  0
 83 84  1  0  0  0
 83157  1  0  0  0
 83158  1  0  0  0
 84 87  1  0  0  0
 84159  1  0  0  0
 84160  1  0  0  0
 85161  1  0  0  0
 85162  1  0  0  0
 85163  1  0  0  0
 86 88  1  0  0  0
 86164  1  0  0  0
 86165  1  0  0  0
M  ISO  4   1 100  68 101  81 101  88 100
M  END
> <chiral flag>
0

> <version>
0

> <s_m_source_file>
/data/baiqing/PycharmProjects/Reinvent-master-3.2/result/LINK_invent/BTK/process_docking_weight1_custom_product_contain_oxygen_bond_distance_aromatic_linkinvent_7_9_3/rearranged_h_0076.sdf

> <i_m_source_file_index>
56

> <r_mmod_Potential_Energy-OPLS-2005>
960.135864257812

> <r_mmod_Stretch_Energy-OPLS-2005>
261.170776367188

> <r_mmod_Bend_Energy-OPLS-2005>
391.013122558594

> <r_mmod_Torsional_Energy-OPLS-2005>
417.659912109375

> <r_mmod_Improper_Torsional_Energy-OPLS-2005>
41.5617485046387

> <r_mmod_Van_der_Waal_Energy-OPLS-2005>
147.111999511719

> <r_mmod_Electrostatic_Energy-OPLS-2005>
-353.958038330078

> <r_mmod_Solvation_Energy-OPLS-2005>
-185.548645019531

> <b_mmod_Minimization_Converged-OPLS-2005>
0

> <r_mmod_RMS_Derivative-OPLS-2005>
2.95981192588806

$$$$
56
                    3D
 Structure written by MMmdl.
157166  0  0  1  0            999 V2000
  -30.6279  -14.7591   20.5035 C   0  0  0  0  0  0
  -30.4298  -12.4770   19.4762 C   0  0  0  0  0  0
  -29.5103  -12.5225   18.2360 C   0  0  0  0  0  0
  -28.0364  -12.3392   18.6446 C   0  0  0  0  0  0
  -27.6402  -13.2334   19.8484 C   0  0  2  0  0  0
  -28.6796  -13.1537   20.9828 C   0  0  0  0  0  0
  -25.2509  -13.8202   20.5694 C   0  0  0  0  0  0
  -24.1798  -13.0444   20.9193 C   0  0  0  0  0  0
  -24.6390  -11.6921   20.8730 C   0  0  0  0  0  0
  -23.9070  -10.4296   21.0400 C   0  0  0  0  0  0
  -24.3621   -9.4212   21.9179 C   0  0  0  0  0  0
  -23.6296   -8.2248   22.0752 C   0  0  0  0  0  0
  -22.4276   -8.0284   21.3544 C   0  0  0  0  0  0
  -21.9912   -9.0258   20.4646 C   0  0  0  0  0  0
  -22.7242  -10.2136   20.3052 C   0  0  0  0  0  0
  -21.6855   -6.0736   22.5279 C   0  0  0  0  0  0
  -21.4017   -6.5640   23.8212 C   0  0  0  0  0  0
  -21.3659   -5.6792   24.9174 C   0  0  0  0  0  0
  -21.6044   -4.3055   24.7224 C   0  0  0  0  0  0
  -21.8819   -3.8146   23.4345 C   0  0  0  0  0  0
  -21.9194   -4.6964   22.3402 C   0  0  0  0  0  0
  -22.7821  -13.5224   21.1867 C   0  0  0  0  0  0
  -22.1662   -4.2150   21.0979 F   0  0  0  0  0  0
  -21.5627   -3.4539   25.7737 F   0  0  0  0  0  0
  -29.9803  -13.5380   20.4141 N   0  0  0  0  0  0
  -26.2925  -12.9407   20.3253 N   0  0  0  0  0  0
  -25.9317  -11.6547   20.5720 N   0  0  0  0  0  0
  -22.0473  -12.8210   22.0425 N   0  0  0  0  0  0
  -25.4230  -15.1928   20.4164 N   0  0  0  0  0  0
  -31.7933  -14.8394   20.1002 O   0  0  0  0  0  0
  -21.6643   -6.8880   21.4240 O   0  0  0  0  0  0
  -22.3502  -14.5533   20.6723 O   0  0  0  0  0  0
  -24.6347  -31.8528   23.1952 C   0  0  0  0  0  0
  -25.9159  -32.4740   23.8308 C   0  0  1  0  0  0
  -27.2240  -27.2432   20.1063 C   0  0  0  0  0  0
  -25.5943  -33.8542   24.2235 N   0  0  0  0  0  0
  -23.4311  -30.4762   21.5403 C   0  0  2  0  0  0
  -24.8759  -28.9241   20.1042 C   0  0  0  0  0  0
  -22.7518  -29.4591   22.4901 C   0  0  0  0  0  0
  -18.0296  -28.1392   22.8483 C   0  0  0  0  0  0
  -24.1490  -36.7274   23.2641 C   0  0  0  0  0  0
  -25.9795  -30.7627   21.3738 C   0  0  0  0  0  0
  -26.0516  -29.3869   20.7058 C   0  0  0  0  0  0
  -27.2242  -28.5612   20.6917 C   0  0  0  0  0  0
  -26.0043  -26.8412   19.5150 C   0  0  0  0  0  0
  -24.8591  -27.6604   19.4984 C   0  0  0  0  0  0
  -23.6479  -29.8126   20.1556 C   0  0  0  0  0  0
  -25.4118  -36.3058   24.0324 C   0  0  1  0  0  0
  -20.5903  -28.3702   23.1268 C   0  0  2  0  0  0
  -20.6785  -26.9419   22.5409 C   0  0  0  0  0  0
  -19.5757  -26.6386   21.5215 C   0  0  0  0  0  0
  -18.1936  -26.7933   22.1626 C   0  0  0  0  0  0
  -19.1550  -28.8864   23.2869 C   0  0  0  0  0  0
  -18.9467  -30.1465   23.8887 C   0  0  0  0  0  0
  -17.6465  -30.6591   24.0561 C   0  0  0  0  0  0
  -25.9061  -34.9432   23.5082 C   0  0  0  0  0  0
  -16.5357  -29.9085   23.6334 C   0  0  0  0  0  0
  -16.7282  -28.6504   23.0353 C   0  0  0  0  0  0
  -26.4512  -31.6575   25.0711 C   0  0  0  0  0  0
  -25.3724  -31.3733   26.1425 C   0  0  0  0  0  0
  -27.0363  -30.2987   24.6216 C   0  0  0  0  0  0
  -27.6057  -32.4323   25.7493 C   0  0  0  0  0  0
  -27.5577  -37.1795   24.8466 C   0  0  0  0  0  0
  -21.4222  -29.3042   22.3652 N   0  0  0  0  0  0
  -26.4289  -37.3762   23.9407 N   0  0  0  0  0  0
  -24.7015  -31.0483   22.0928 N   0  0  0  0  0  0
  -23.4214  -28.8133   23.3006 O   0  0  0  0  0  0
  -28.3157  -26.3442   20.2539 O   0  0  0  0  0  0
  -26.5637  -34.8915   22.4654 O   0  0  0  0  0  0
  -23.5493  -32.1353   23.7243 O   0  0  0  0  0  0
  -29.7392  -19.6370   18.5612 C   0  0  0  0  0  0
  -29.4660  -18.5321   20.6709 C   0  0  0  0  0  0
  -30.1778  -17.2246   18.7522 C   0  0  0  0  0  0
  -29.3861  -19.7922   19.9241 C   0  0  0  0  0  0
  -30.1182  -18.4050   17.9850 C   0  0  0  0  0  0
  -29.8666  -17.2244   20.1306 C   0  0  0  0  0  0
  -27.9052  -22.0159   19.9815 C   0  0  0  0  0  0
  -29.9064  -22.2924   20.2693 C   0  0  0  0  0  0
  -28.7064  -23.2966   20.4520 C   0  0  1  0  0  0
  -29.6109  -16.0160   22.3171 C   0  0  0  0  0  0
  -28.9629  -21.1529   20.3869 N   0  0  0  0  0  0
  -30.4361  -18.3536   16.6272 N   0  0  0  0  0  0
  -29.9400  -15.9247   20.8900 N   0  0  0  0  0  0
  -26.8680  -21.7557   19.4043 O   0  0  0  0  0  0
  -27.6660  -24.7374   18.2470 O   0  0  0  0  0  0
  -30.0762  -25.1007   18.8391 O   0  0  0  0  0  0
  -28.6882  -24.8861   19.3007 S   0  0  0  0  0  0
  -31.4704  -12.6001   19.1718 H   0  0  0  0  0  0
  -30.3804  -11.4985   19.9564 H   0  0  0  0  0  0
  -29.7994  -11.7505   17.5216 H   0  0  0  0  0  0
  -29.6327  -13.4774   17.7223 H   0  0  0  0  0  0
  -27.8954  -11.2890   18.9035 H   0  0  0  0  0  0
  -27.3801  -12.5340   17.7955 H   0  0  0  0  0  0
  -27.6393  -14.2599   19.4796 H   0  0  0  0  0  0
  -28.7251  -12.1454   21.3968 H   0  0  0  0  0  0
  -28.3755  -13.7961   21.8053 H   0  0  0  0  0  0
  -25.2767   -9.5692   22.4752 H   0  0  0  0  0  0
  -24.0007   -7.4640   22.7471 H   0  0  0  0  0  0
  -21.0842   -8.8775   19.8952 H   0  0  0  0  0  0
  -22.3698  -10.9673   19.6159 H   0  0  0  0  0  0
  -21.2011   -7.6148   23.9715 H   0  0  0  0  0  0
  -21.1481   -6.0523   25.9077 H   0  0  0  0  0  0
  -22.0598   -2.7609   23.2845 H   0  0  0  0  0  0
  -22.4098  -11.9872   22.4806 H   0  0  0  0  0  0
  -21.1091  -13.1228   22.2637 H   0  0  0  0  0  0
  -24.6629  -15.8523   20.5408 H   0  0  0  0  0  0
  -26.2871  -15.6334   20.1263 H   0  0  0  0  0  0
  -26.7225  -32.5377   23.1046 H   0  0  0  0  0  0
  -25.0085  -33.9668   25.0378 H   0  0  0  0  0  0
  -22.7280  -31.2991   21.3952 H   0  0  0  0  0  0
  -23.3755  -35.9605   23.3300 H   0  0  0  0  0  0
  -24.3578  -36.8902   22.2056 H   0  0  0  0  0  0
  -23.7245  -37.6472   23.6671 H   0  0  0  0  0  0
  -26.1221  -31.5285   20.6102 H   0  0  0  0  0  0
  -26.8552  -30.8066   22.0102 H   0  0  0  0  0  0
  -28.1213  -28.9105   21.1840 H   0  0  0  0  0  0
  -25.8703  -25.8552   19.1056 H   0  0  0  0  0  0
  -23.9503  -27.2882   19.0454 H   0  0  0  0  0  0
  -23.7729  -30.5899   19.4010 H   0  0  0  0  0  0
  -22.7647  -29.2486   19.8499 H   0  0  0  0  0  0
  -25.1305  -36.1897   25.0817 H   0  0  0  0  0  0
  -20.9992  -28.3284   24.1391 H   0  0  0  0  0  0
  -20.5689  -26.2312   23.3616 H   0  0  0  0  0  0
  -21.6651  -26.7446   22.1199 H   0  0  0  0  0  0
  -19.6918  -25.6295   21.1249 H   0  0  0  0  0  0
  -19.6693  -27.3194   20.6742 H   0  0  0  0  0  0
  -17.4208  -26.6681   21.4028 H   0  0  0  0  0  0
  -18.0333  -26.0082   22.9027 H   0  0  0  0  0  0
  -19.7941  -30.7286   24.2252 H   0  0  0  0  0  0
  -17.5017  -31.6270   24.5165 H   0  0  0  0  0  0
  -15.5354  -30.2980   23.7667 H   0  0  0  0  0  0
  -15.8683  -28.0820   22.7071 H   0  0  0  0  0  0
  -24.5908  -30.7075   25.7749 H   0  0  0  0  0  0
  -24.8908  -32.2905   26.4823 H   0  0  0  0  0  0
  -25.8035  -30.8927   27.0216 H   0  0  0  0  0  0
  -26.2952  -29.6727   24.1231 H   0  0  0  0  0  0
  -27.4022  -29.7261   25.4748 H   0  0  0  0  0  0
  -27.8839  -30.4249   23.9478 H   0  0  0  0  0  0
  -27.2657  -33.3630   26.2048 H   0  0  0  0  0  0
  -28.3884  -32.6874   25.0335 H   0  0  0  0  0  0
  -28.0709  -31.8464   26.5430 H   0  0  0  0  0  0
  -28.2596  -38.0090   24.7508 H   0  0  0  0  0  0
  -28.1074  -36.2621   24.6303 H   0  0  0  0  0  0
  -27.2295  -37.1456   25.8870 H   0  0  0  0  0  0
  -20.9416  -29.8760   21.6848 H   0  0  0  0  0  0
  -26.0164  -38.2836   24.1401 H   0  0  0  0  0  0
  -29.7026  -20.5073   17.9213 H   0  0  0  0  0  0
  -29.1942  -18.5863   21.7146 H   0  0  0  0  0  0
  -30.4679  -16.3060   18.2624 H   0  0  0  0  0  0
  -30.6502  -22.3346   21.0660 H   0  0  0  0  0  0
  -30.3828  -22.3690   19.2879 H   0  0  0  0  0  0
  -28.5419  -23.5900   21.4831 H   0  0  0  0  0  0
  -28.5473  -16.2189   22.4473 H   0  0  0  0  0  0
  -30.1751  -16.8197   22.7910 H   0  0  0  0  0  0
  -29.8489  -15.1104   22.8792 H   0  0  0  0  0  0
  -30.1524  -19.1163   16.0192 H   0  0  0  0  0  0
  -30.4593  -17.4558   16.1527 H   0  0  0  0  0  0
  1 25  1  0  0  0
  1 30  2  0  0  0
  1 83  1  0  0  0
  2  3  1  0  0  0
  2 25  1  0  0  0
  2 88  1  0  0  0
  2 89  1  0  0  0
  3  4  1  0  0  0
  3 90  1  0  0  0
  3 91  1  0  0  0
  4  5  1  0  0  0
  4 92  1  0  0  0
  4 93  1  0  0  0
  5  6  1  0  0  0
  5 26  1  0  0  0
  5 94  1  0  0  0
  6 25  1  0  0  0
  6 95  1  0  0  0
  6 96  1  0  0  0
  7  8  2  0  0  0
  7 26  1  0  0  0
  7 29  1  0  0  0
  8  9  1  0  0  0
  8 22  1  0  0  0
  9 10  1  0  0  0
  9 27  2  0  0  0
 10 11  2  0  0  0
 10 15  1  0  0  0
 11 12  1  0  0  0
 11 97  1  0  0  0
 12 13  2  0  0  0
 12 98  1  0  0  0
 13 14  1  0  0  0
 13 31  1  0  0  0
 14 15  2  0  0  0
 14 99  1  0  0  0
 15100  1  0  0  0
 16 17  2  0  0  0
 16 21  1  0  0  0
 16 31  1  0  0  0
 17 18  1  0  0  0
 17101  1  0  0  0
 18 19  2  0  0  0
 18102  1  0  0  0
 19 20  1  0  0  0
 19 24  1  0  0  0
 20 21  2  0  0  0
 20103  1  0  0  0
 21 23  1  0  0  0
 22 28  1  0  0  0
 22 32  2  0  0  0
 26 27  1  0  0  0
 28104  1  0  0  0
 28105  1  0  0  0
 29106  1  0  0  0
 29107  1  0  0  0
 33 34  1  0  0  0
 33 66  1  0  0  0
 33 70  2  0  0  0
 34 36  1  0  0  0
 34 59  1  0  0  0
 34108  1  0  0  0
 35 44  2  0  0  0
 35 45  1  0  0  0
 35 68  1  0  0  0
 36 56  1  0  0  0
 36109  1  0  0  0
 37 39  1  0  0  0
 37 47  1  0  0  0
 37 66  1  0  0  0
 37110  1  0  0  0
 38 43  2  0  0  0
 38 46  1  0  0  0
 38 47  1  0  0  0
 39 64  1  0  0  0
 39 67  2  0  0  0
 40 52  1  0  0  0
 40 53  2  0  0  0
 40 58  1  0  0  0
 41111  1  0  0  0
 41112  1  0  0  0
 41113  1  0  0  0
 41 48  1  0  0  0
 42 43  1  0  0  0
 42 66  1  0  0  0
 42114  1  0  0  0
 42115  1  0  0  0
 43 44  1  0  0  0
 44116  1  0  0  0
 45 46  2  0  0  0
 45117  1  0  0  0
 46118  1  0  0  0
 47119  1  0  0  0
 47120  1  0  0  0
 48 56  1  0  0  0
 48 65  1  0  0  0
 48121  1  0  0  0
 49 50  1  0  0  0
 49 53  1  0  0  0
 49 64  1  0  0  0
 49122  1  0  0  0
 50 51  1  0  0  0
 50123  1  0  0  0
 50124  1  0  0  0
 51 52  1  0  0  0
 51125  1  0  0  0
 51126  1  0  0  0
 52127  1  0  0  0
 52128  1  0  0  0
 53 54  1  0  0  0
 54 55  2  0  0  0
 54129  1  0  0  0
 55 57  1  0  0  0
 55130  1  0  0  0
 56 69  2  0  0  0
 57 58  2  0  0  0
 57131  1  0  0  0
 58132  1  0  0  0
 59 60  1  0  0  0
 59 61  1  0  0  0
 59 62  1  0  0  0
 60133  1  0  0  0
 60134  1  0  0  0
 60135  1  0  0  0
 61136  1  0  0  0
 61137  1  0  0  0
 61138  1  0  0  0
 62139  1  0  0  0
 62140  1  0  0  0
 62141  1  0  0  0
 63 65  1  0  0  0
 63142  1  0  0  0
 63143  1  0  0  0
 63144  1  0  0  0
 64145  1  0  0  0
 65146  1  0  0  0
 68 87  1  0  0  0
 71 74  2  0  0  0
 71 75  1  0  0  0
 71147  1  0  0  0
 72 74  1  0  0  0
 72 76  2  0  0  0
 72148  1  0  0  0
 73 75  2  0  0  0
 73 76  1  0  0  0
 73149  1  0  0  0
 74 81  1  0  0  0
 75 82  1  0  0  0
 76 83  1  0  0  0
 77 79  1  0  0  0
 77 81  1  0  0  0
 77 84  2  0  0  0
 78 81  1  0  0  0
 78150  1  0  0  0
 78151  1  0  0  0
 78 79  1  0  0  0
 79 87  1  0  0  0
 79152  1  0  0  0
 80 83  1  0  0  0
 80153  1  0  0  0
 80154  1  0  0  0
 80155  1  0  0  0
 82156  1  0  0  0
 82157  1  0  0  0
 85 87  2  0  0  0
 86 87  2  0  0  0
M  ISO  4   1 100  68 101  83 100  87 101
M  END
> <chiral flag>
0

> <version>
0

> <s_m_source_file>
/data/baiqing/PycharmProjects/Reinvent-master-3.2/result/LINK_invent/BTK/process_docking_weight1_custom_product_contain_oxygen_bond_distance_aromatic_linkinvent_7_9_3/rearranged_h_0076.sdf

> <i_m_source_file_index>
57

> <r_mmod_Potential_Energy-OPLS-2005>
312.548461914062

> <r_mmod_Stretch_Energy-OPLS-2005>
143.955535888672

> <r_mmod_Bend_Energy-OPLS-2005>
222.040328979492

> <r_mmod_Torsional_Energy-OPLS-2005>
303.080657958984

> <r_mmod_Improper_Torsional_Energy-OPLS-2005>
12.7180376052856

> <r_mmod_Van_der_Waal_Energy-OPLS-2005>
137.8193359375

> <r_mmod_Electrostatic_Energy-OPLS-2005>
-326.396240234375

> <r_mmod_Solvation_Energy-OPLS-2005>
-273.778472900391

> <b_mmod_Minimization_Converged-OPLS-2005>
0

> <r_mmod_RMS_Derivative-OPLS-2005>
0.431885212659836

$$$$
57
                    3D
 Structure written by MMmdl.
160169  0  0  1  0            999 V2000
  -30.5641  -14.9646   20.3869 C   0  0  0  0  0  0
  -30.4386  -12.5832   19.4935 C   0  0  0  0  0  0
  -29.5123  -12.4510   18.2587 C   0  0  0  0  0  0
  -28.0410  -12.2865   18.6826 C   0  0  0  0  0  0
  -27.6234  -13.2406   19.8315 C   0  0  2  0  0  0
  -28.6748  -13.3138   20.9566 C   0  0  0  0  0  0
  -25.2474  -13.8212   20.5746 C   0  0  0  0  0  0
  -24.1764  -13.0442   20.9232 C   0  0  0  0  0  0
  -24.6363  -11.6927   20.8778 C   0  0  0  0  0  0
  -23.9038  -10.4301   21.0438 C   0  0  0  0  0  0
  -24.3593   -9.4218   21.9211 C   0  0  0  0  0  0
  -23.6282   -8.2238   22.0770 C   0  0  0  0  0  0
  -22.4265   -8.0273   21.3552 C   0  0  0  0  0  0
  -21.9894   -9.0249   20.4656 C   0  0  0  0  0  0
  -22.7213  -10.2138   20.3082 C   0  0  0  0  0  0
  -21.6846   -6.0731   22.5283 C   0  0  0  0  0  0
  -21.4015   -6.5641   23.8215 C   0  0  0  0  0  0
  -21.3661   -5.6797   24.9180 C   0  0  0  0  0  0
  -21.6040   -4.3059   24.7229 C   0  0  0  0  0  0
  -21.8820   -3.8146   23.4350 C   0  0  0  0  0  0
  -21.9196   -4.6961   22.3405 C   0  0  0  0  0  0
  -22.7792  -13.5231   21.1885 C   0  0  0  0  0  0
  -22.1668   -4.2146   21.0982 F   0  0  0  0  0  0
  -21.5628   -3.4545   25.7743 F   0  0  0  0  0  0
  -29.9396  -13.7153   20.3262 N   0  0  0  0  0  0
  -26.2872  -12.9415   20.3298 N   0  0  0  0  0  0
  -25.9297  -11.6556   20.5800 N   0  0  0  0  0  0
  -22.0454  -12.8192   22.0439 N   0  0  0  0  0  0
  -25.4204  -15.1933   20.4200 N   0  0  0  0  0  0
  -31.7961  -14.9606   20.2982 O   0  0  0  0  0  0
  -21.6642   -6.8862   21.4237 O   0  0  0  0  0  0
  -22.3471  -14.5533   20.6750 O   0  0  0  0  0  0
  -24.6443  -31.8413   23.1867 C   0  0  0  0  0  0
  -25.9211  -32.4671   23.8267 C   0  0  1  0  0  0
  -27.2357  -27.1217   20.1897 C   0  0  0  0  0  0
  -25.5958  -33.8481   24.2178 N   0  0  0  0  0  0
  -23.4528  -30.4560   21.5293 C   0  0  2  0  0  0
  -24.9093  -28.8681   20.1232 C   0  0  0  0  0  0
  -22.7581  -29.4541   22.4852 C   0  0  0  0  0  0
  -18.0306  -28.1415   22.8464 C   0  0  0  0  0  0
  -24.1498  -36.7244   23.2645 C   0  0  0  0  0  0
  -26.0072  -30.7128   21.3862 C   0  0  0  0  0  0
  -26.0837  -29.3170   20.7407 C   0  0  0  0  0  0
  -27.2496  -28.4622   20.7529 C   0  0  0  0  0  0
  -26.0388  -26.7725   19.5308 C   0  0  0  0  0  0
  -24.8978  -27.6075   19.5028 C   0  0  0  0  0  0
  -23.6858  -29.7727   20.1543 C   0  0  0  0  0  0
  -25.4121  -36.3016   24.0324 C   0  0  1  0  0  0
  -20.5921  -28.3753   23.1221 C   0  0  2  0  0  0
  -20.6805  -26.9454   22.5408 C   0  0  0  0  0  0
  -19.5788  -26.6398   21.5216 C   0  0  0  0  0  0
  -18.1960  -26.7954   22.1611 C   0  0  0  0  0  0
  -19.1563  -28.8899   23.2832 C   0  0  0  0  0  0
  -18.9485  -30.1490   23.8873 C   0  0  0  0  0  0
  -17.6481  -30.6611   24.0563 C   0  0  0  0  0  0
  -25.9078  -34.9391   23.5057 C   0  0  0  0  0  0
  -16.5372  -29.9105   23.6343 C   0  0  0  0  0  0
  -16.7291  -28.6527   23.0356 C   0  0  0  0  0  0
  -26.4545  -31.6545   25.0713 C   0  0  0  0  0  0
  -25.3736  -31.3722   26.1412 C   0  0  0  0  0  0
  -27.0414  -30.2937   24.6307 C   0  0  0  0  0  0
  -27.6076  -32.4314   25.7493 C   0  0  0  0  0  0
  -27.5578  -37.1762   24.8464 C   0  0  0  0  0  0
  -21.4269  -29.3067   22.3584 N   0  0  0  0  0  0
  -26.4281  -37.3733   23.9416 N   0  0  0  0  0  0
  -24.7207  -31.0251   22.0900 N   0  0  0  0  0  0
  -23.4201  -28.8094   23.3032 O   0  0  0  0  0  0
  -28.3087  -26.1541   20.1892 O   0  0  0  0  0  0
  -26.5675  -34.8903   22.4646 O   0  0  0  0  0  0
  -23.5557  -32.1306   23.7077 O   0  0  0  0  0  0
  -28.5455  -19.8834   19.6616 C   0  0  0  0  0  0
  -28.7470  -18.4492   19.5414 C   0  0  0  0  0  0
  -30.1188  -19.9013   21.3902 C   0  0  0  0  0  0
  -30.3259  -18.4465   21.2915 C   0  0  0  0  0  0
  -29.2415  -20.7258   20.5811 C   0  0  0  0  0  0
  -29.6686  -17.6207   20.2959 C   0  0  0  0  0  0
  -29.6304  -24.4793   21.5677 C   0  0  0  0  0  0
  -28.2871  -23.2783   20.1583 C   0  0  0  0  0  0
  -29.9515  -22.9773   21.6925 C   0  0  0  0  0  0
  -28.2817  -24.7486   20.8969 C   0  0  1  0  0  0
  -27.1904  -24.7593   21.9923 C   0  0  0  0  0  0
  -29.7463  -15.9771   18.4305 C   0  0  0  0  0  0
  -31.3080  -17.8087   22.2747 C   0  0  0  0  0  0
  -29.0951  -22.2652   20.7369 N   0  0  0  0  0  0
  -29.8600  -16.1206   19.8999 N   0  0  0  0  0  0
  -30.3835  -25.3692   21.9825 O   0  0  0  0  0  0
  -27.5610  -23.0740   19.1789 O   0  0  0  0  0  0
  -31.5884  -18.6129   23.3020 F   0  0  0  0  0  0
  -30.8004  -16.6870   22.7858 F   0  0  0  0  0  0
  -32.4511  -17.5329   21.6489 F   0  0  0  0  0  0
  -31.4683  -12.7405   19.1680 H   0  0  0  0  0  0
  -30.4429  -11.6594   20.0759 H   0  0  0  0  0  0
  -29.8136  -11.5919   17.6572 H   0  0  0  0  0  0
  -29.6088  -13.3117   17.6016 H   0  0  0  0  0  0
  -27.9145  -11.2525   19.0062 H   0  0  0  0  0  0
  -27.3789  -12.4157   17.8248 H   0  0  0  0  0  0
  -27.5679  -14.2294   19.3817 H   0  0  0  0  0  0
  -28.7706  -12.3581   21.4742 H   0  0  0  0  0  0
  -28.3757  -14.0492   21.7057 H   0  0  0  0  0  0
  -25.2744   -9.5699   22.4780 H   0  0  0  0  0  0
  -24.0017   -7.4618   22.7465 H   0  0  0  0  0  0
  -21.0841   -8.8753   19.8939 H   0  0  0  0  0  0
  -22.3675  -10.9680   19.6191 H   0  0  0  0  0  0
  -21.2010   -7.6153   23.9710 H   0  0  0  0  0  0
  -21.1481   -6.0536   25.9078 H   0  0  0  0  0  0
  -22.0592   -2.7607   23.2854 H   0  0  0  0  0  0
  -22.4101  -11.9851   22.4800 H   0  0  0  0  0  0
  -21.1077  -13.1197   22.2691 H   0  0  0  0  0  0
  -24.6579  -15.8518   20.5360 H   0  0  0  0  0  0
  -26.2841  -15.6356   20.1315 H   0  0  0  0  0  0
  -26.7287  -32.5292   23.1001 H   0  0  0  0  0  0
  -25.0046  -33.9593   25.0288 H   0  0  0  0  0  0
  -22.7584  -31.2824   21.3634 H   0  0  0  0  0  0
  -23.3770  -35.9568   23.3282 H   0  0  0  0  0  0
  -24.3585  -36.8913   22.2068 H   0  0  0  0  0  0
  -23.7265  -37.6434   23.6700 H   0  0  0  0  0  0
  -26.1584  -31.4585   20.6044 H   0  0  0  0  0  0
  -26.8801  -30.7747   22.0246 H   0  0  0  0  0  0
  -28.1494  -28.8060   21.2447 H   0  0  0  0  0  0
  -25.9802  -25.8042   19.0536 H   0  0  0  0  0  0
  -24.0018  -27.2529   19.0116 H   0  0  0  0  0  0
  -23.8286  -30.5405   19.3930 H   0  0  0  0  0  0
  -22.8036  -29.2120   19.8410 H   0  0  0  0  0  0
  -25.1305  -36.1832   25.0820 H   0  0  0  0  0  0
  -20.9997  -28.3381   24.1348 H   0  0  0  0  0  0
  -20.5706  -26.2385   23.3642 H   0  0  0  0  0  0
  -21.6674  -26.7466   22.1216 H   0  0  0  0  0  0
  -19.6960  -25.6300   21.1281 H   0  0  0  0  0  0
  -19.6737  -27.3190   20.6735 H   0  0  0  0  0  0
  -17.4230  -26.6693   21.4014 H   0  0  0  0  0  0
  -18.0346  -26.0111   22.9019 H   0  0  0  0  0  0
  -19.7965  -30.7295   24.2264 H   0  0  0  0  0  0
  -17.5045  -31.6290   24.5164 H   0  0  0  0  0  0
  -15.5377  -30.2996   23.7699 H   0  0  0  0  0  0
  -15.8689  -28.0838   22.7088 H   0  0  0  0  0  0
  -24.5939  -30.7040   25.7740 H   0  0  0  0  0  0
  -24.8890  -32.2888   26.4776 H   0  0  0  0  0  0
  -25.8035  -30.8951   27.0227 H   0  0  0  0  0  0
  -26.3040  -29.6634   24.1319 H   0  0  0  0  0  0
  -27.4027  -29.7258   25.4892 H   0  0  0  0  0  0
  -27.8951  -30.4160   23.9638 H   0  0  0  0  0  0
  -27.2678  -33.3637   26.2008 H   0  0  0  0  0  0
  -28.3914  -32.6831   25.0339 H   0  0  0  0  0  0
  -28.0710  -31.8477   26.5454 H   0  0  0  0  0  0
  -28.2555  -38.0093   24.7527 H   0  0  0  0  0  0
  -28.1111  -36.2614   24.6254 H   0  0  0  0  0  0
  -27.2294  -37.1382   25.8869 H   0  0  0  0  0  0
  -20.9507  -29.8747   21.6712 H   0  0  0  0  0  0
  -26.0141  -38.2799   24.1431 H   0  0  0  0  0  0
  -27.8288  -20.3458   18.9986 H   0  0  0  0  0  0
  -28.1479  -17.9703   18.7806 H   0  0  0  0  0  0
  -30.6897  -20.4150   22.1484 H   0  0  0  0  0  0
  -29.7612  -22.6438   22.7123 H   0  0  0  0  0  0
  -31.0022  -22.8028   21.4599 H   0  0  0  0  0  0
  -27.3630  -25.5570   22.7170 H   0  0  0  0  0  0
  -27.1657  -23.8185   22.5467 H   0  0  0  0  0  0
  -26.1975  -24.8988   21.5677 H   0  0  0  0  0  0
  -28.7409  -15.6826   18.1345 H   0  0  0  0  0  0
  -30.4466  -15.2626   17.9913 H   0  0  0  0  0  0
  -29.9943  -16.9013   17.9087 H   0  0  0  0  0  0
  1 25  1  0  0  0
  1 30  2  0  0  0
  1 85  1  0  0  0
  2  3  1  0  0  0
  2 25  1  0  0  0
  2 91  1  0  0  0
  2 92  1  0  0  0
  3  4  1  0  0  0
  3 93  1  0  0  0
  3 94  1  0  0  0
  4  5  1  0  0  0
  4 95  1  0  0  0
  4 96  1  0  0  0
  5  6  1  0  0  0
  5 26  1  0  0  0
  5 97  1  0  0  0
  6 25  1  0  0  0
  6 98  1  0  0  0
  6 99  1  0  0  0
  7  8  2  0  0  0
  7 26  1  0  0  0
  7 29  1  0  0  0
  8  9  1  0  0  0
  8 22  1  0  0  0
  9 10  1  0  0  0
  9 27  2  0  0  0
 10 11  2  0  0  0
 10 15  1  0  0  0
 11 12  1  0  0  0
 11100  1  0  0  0
 12 13  2  0  0  0
 12101  1  0  0  0
 13 14  1  0  0  0
 13 31  1  0  0  0
 14 15  2  0  0  0
 14102  1  0  0  0
 15103  1  0  0  0
 16 17  2  0  0  0
 16 21  1  0  0  0
 16 31  1  0  0  0
 17 18  1  0  0  0
 17104  1  0  0  0
 18 19  2  0  0  0
 18105  1  0  0  0
 19 20  1  0  0  0
 19 24  1  0  0  0
 20 21  2  0  0  0
 20106  1  0  0  0
 21 23  1  0  0  0
 22 28  1  0  0  0
 22 32  2  0  0  0
 26 27  1  0  0  0
 28107  1  0  0  0
 28108  1  0  0  0
 29109  1  0  0  0
 29110  1  0  0  0
 33 34  1  0  0  0
 33 66  1  0  0  0
 33 70  2  0  0  0
 34 36  1  0  0  0
 34 59  1  0  0  0
 34111  1  0  0  0
 35 44  2  0  0  0
 35 45  1  0  0  0
 35 68  1  0  0  0
 36 56  1  0  0  0
 36112  1  0  0  0
 37 39  1  0  0  0
 37 47  1  0  0  0
 37 66  1  0  0  0
 37113  1  0  0  0
 38 43  2  0  0  0
 38 46  1  0  0  0
 38 47  1  0  0  0
 39 64  1  0  0  0
 39 67  2  0  0  0
 40 52  1  0  0  0
 40 53  2  0  0  0
 40 58  1  0  0  0
 41114  1  0  0  0
 41115  1  0  0  0
 41116  1  0  0  0
 41 48  1  0  0  0
 42 43  1  0  0  0
 42 66  1  0  0  0
 42117  1  0  0  0
 42118  1  0  0  0
 43 44  1  0  0  0
 44119  1  0  0  0
 45 46  2  0  0  0
 45120  1  0  0  0
 46121  1  0  0  0
 47122  1  0  0  0
 47123  1  0  0  0
 48 56  1  0  0  0
 48 65  1  0  0  0
 48124  1  0  0  0
 49 50  1  0  0  0
 49 53  1  0  0  0
 49 64  1  0  0  0
 49125  1  0  0  0
 50 51  1  0  0  0
 50126  1  0  0  0
 50127  1  0  0  0
 51 52  1  0  0  0
 51128  1  0  0  0
 51129  1  0  0  0
 52130  1  0  0  0
 52131  1  0  0  0
 53 54  1  0  0  0
 54 55  2  0  0  0
 54132  1  0  0  0
 55 57  1  0  0  0
 55133  1  0  0  0
 56 69  2  0  0  0
 57 58  2  0  0  0
 57134  1  0  0  0
 58135  1  0  0  0
 59 60  1  0  0  0
 59 61  1  0  0  0
 59 62  1  0  0  0
 60136  1  0  0  0
 60137  1  0  0  0
 60138  1  0  0  0
 61139  1  0  0  0
 61140  1  0  0  0
 61141  1  0  0  0
 62142  1  0  0  0
 62143  1  0  0  0
 62144  1  0  0  0
 63 65  1  0  0  0
 63145  1  0  0  0
 63146  1  0  0  0
 63147  1  0  0  0
 64148  1  0  0  0
 65149  1  0  0  0
 68 80  1  0  0  0
 71 72  2  0  0  0
 71 75  1  0  0  0
 71150  1  0  0  0
 72 76  1  0  0  0
 72151  1  0  0  0
 73 74  1  0  0  0
 73 75  2  0  0  0
 73152  1  0  0  0
 74 76  2  0  0  0
 74 83  1  0  0  0
 75 84  1  0  0  0
 76 85  1  0  0  0
 77 79  1  0  0  0
 77 80  1  0  0  0
 77 86  2  0  0  0
 78 80  1  0  0  0
 78 84  1  0  0  0
 78 87  2  0  0  0
 79 84  1  0  0  0
 79153  1  0  0  0
 79154  1  0  0  0
 80 81  1  0  0  0
 81155  1  0  0  0
 81156  1  0  0  0
 81157  1  0  0  0
 82 85  1  0  0  0
 82158  1  0  0  0
 82159  1  0  0  0
 82160  1  0  0  0
 83 88  1  0  0  0
 83 89  1  0  0  0
 83 90  1  0  0  0
M  ISO  4   1 100  68 101  80 101  85 100
M  END
> <chiral flag>
0

> <version>
0

> <s_m_source_file>
/data/baiqing/PycharmProjects/Reinvent-master-3.2/result/LINK_invent/BTK/process_docking_weight1_custom_product_contain_oxygen_bond_distance_aromatic_linkinvent_7_9_3/rearranged_h_0076.sdf

> <i_m_source_file_index>
58

> <r_mmod_Potential_Energy-OPLS-2005>
890.30224609375

> <r_mmod_Stretch_Energy-OPLS-2005>
265.016632080078

> <r_mmod_Bend_Energy-OPLS-2005>
335.116455078125

> <r_mmod_Torsional_Energy-OPLS-2005>
375.288696289062

> <r_mmod_Improper_Torsional_Energy-OPLS-2005>
26.6344528198242

> <r_mmod_Van_der_Waal_Energy-OPLS-2005>
136.467086791992

> <r_mmod_Electrostatic_Energy-OPLS-2005>
-234.090667724609

> <r_mmod_Solvation_Energy-OPLS-2005>
-220.971084594727

> <b_mmod_Minimization_Converged-OPLS-2005>
0

> <r_mmod_RMS_Derivative-OPLS-2005>
2.31923794746399

$$$$
58
                    3D
 Structure written by MMmdl.
163171  0  0  1  0            999 V2000
  -30.5776  -14.7027   20.4956 C   0  0  0  0  0  0
  -30.4505  -12.4320   19.4586 C   0  0  0  0  0  0
  -29.5150  -12.5180   18.2299 C   0  0  0  0  0  0
  -28.0385  -12.3416   18.6403 C   0  0  0  0  0  0
  -27.6531  -13.2153   19.8627 C   0  0  2  0  0  0
  -28.6983  -13.0788   20.9932 C   0  0  0  0  0  0
  -25.2562  -13.8153   20.5668 C   0  0  0  0  0  0
  -24.1835  -13.0428   20.9202 C   0  0  0  0  0  0
  -24.6403  -11.6898   20.8749 C   0  0  0  0  0  0
  -23.9066  -10.4288   21.0413 C   0  0  0  0  0  0
  -24.3618   -9.4202   21.9189 C   0  0  0  0  0  0
  -23.6292   -8.2238   22.0757 C   0  0  0  0  0  0
  -22.4273   -8.0279   21.3547 C   0  0  0  0  0  0
  -21.9911   -9.0254   20.4647 C   0  0  0  0  0  0
  -22.7241  -10.2132   20.3059 C   0  0  0  0  0  0
  -21.6851   -6.0735   22.5281 C   0  0  0  0  0  0
  -21.4013   -6.5639   23.8216 C   0  0  0  0  0  0
  -21.3659   -5.6791   24.9178 C   0  0  0  0  0  0
  -21.6045   -4.3054   24.7226 C   0  0  0  0  0  0
  -21.8819   -3.8146   23.4347 C   0  0  0  0  0  0
  -21.9194   -4.6964   22.3404 C   0  0  0  0  0  0
  -22.7857  -13.5226   21.1858 C   0  0  0  0  0  0
  -22.1661   -4.2152   21.0980 F   0  0  0  0  0  0
  -21.5629   -3.4537   25.7738 F   0  0  0  0  0  0
  -30.0082  -13.4520   20.4331 N   0  0  0  0  0  0
  -26.2988  -12.9331   20.3302 N   0  0  0  0  0  0
  -25.9329  -11.6490   20.5754 N   0  0  0  0  0  0
  -22.0492  -12.8222   22.0410 N   0  0  0  0  0  0
  -25.4253  -15.1868   20.4016 N   0  0  0  0  0  0
  -31.7380  -14.8920   20.1154 O   0  0  0  0  0  0
  -21.6638   -6.8878   21.4243 O   0  0  0  0  0  0
  -22.3548  -14.5534   20.6704 O   0  0  0  0  0  0
  -24.6287  -31.8573   23.2004 C   0  0  0  0  0  0
  -25.9123  -32.4767   23.8343 C   0  0  1  0  0  0
  -27.2268  -27.2843   20.1258 C   0  0  0  0  0  0
  -25.5928  -33.8568   24.2269 N   0  0  0  0  0  0
  -23.4249  -30.4795   21.5434 C   0  0  2  0  0  0
  -24.8735  -28.9284   20.1130 C   0  0  0  0  0  0
  -22.7489  -29.4609   22.4925 C   0  0  0  0  0  0
  -18.0288  -28.1385   22.8487 C   0  0  0  0  0  0
  -24.1490  -36.7287   23.2639 C   0  0  0  0  0  0
  -25.9690  -30.7752   21.3797 C   0  0  0  0  0  0
  -26.0425  -29.3979   20.7258 C   0  0  0  0  0  0
  -27.2200  -28.5861   20.7271 C   0  0  0  0  0  0
  -26.0354  -26.8809   19.4807 C   0  0  0  0  0  0
  -24.8728  -27.6749   19.4826 C   0  0  0  0  0  0
  -23.6430  -29.8128   20.1598 C   0  0  0  0  0  0
  -25.4117  -36.3077   24.0327 C   0  0  1  0  0  0
  -20.5891  -28.3695   23.1276 C   0  0  2  0  0  0
  -20.6777  -26.9415   22.5409 C   0  0  0  0  0  0
  -19.5752  -26.6384   21.5212 C   0  0  0  0  0  0
  -18.1932  -26.7929   22.1623 C   0  0  0  0  0  0
  -19.1541  -28.8857   23.2876 C   0  0  0  0  0  0
  -18.9463  -30.1459   23.8892 C   0  0  0  0  0  0
  -17.6462  -30.6589   24.0561 C   0  0  0  0  0  0
  -25.9056  -34.9446   23.5101 C   0  0  0  0  0  0
  -16.5354  -29.9086   23.6330 C   0  0  0  0  0  0
  -16.7275  -28.6502   23.0355 C   0  0  0  0  0  0
  -26.4497  -31.6586   25.0725 C   0  0  0  0  0  0
  -25.3723  -31.3728   26.1446 C   0  0  0  0  0  0
  -27.0348  -30.3004   24.6206 C   0  0  0  0  0  0
  -27.6049  -32.4327   25.7501 C   0  0  0  0  0  0
  -27.5582  -37.1797   24.8464 C   0  0  0  0  0  0
  -21.4199  -29.3045   22.3667 N   0  0  0  0  0  0
  -26.4293  -37.3775   23.9408 N   0  0  0  0  0  0
  -24.6929  -31.0551   22.0975 N   0  0  0  0  0  0
  -23.4198  -28.8148   23.3014 O   0  0  0  0  0  0
  -28.3379  -26.4133   20.1443 O   0  0  0  0  0  0
  -26.5628  -34.8917   22.4669 O   0  0  0  0  0  0
  -23.5441  -32.1387   23.7308 O   0  0  0  0  0  0
  -30.5079  -19.5096   20.2739 C   0  0  0  0  0  0
  -28.1669  -19.2027   20.6464 C   0  0  0  0  0  0
  -30.7230  -18.0895   20.4131 C   0  0  0  0  0  0
  -28.3794  -17.8010   20.8089 C   0  0  0  0  0  0
  -29.2171  -20.1168   20.3641 C   0  0  0  0  0  0
  -29.6531  -17.1834   20.6776 C   0  0  0  0  0  0
  -28.8986  -21.6264   20.0739 C   0  0  0  0  0  0
  -28.2399  -24.9650   20.3640 C   0  0  0  0  0  0
  -30.6197  -24.7612   21.1019 C   0  0  0  0  0  0
  -29.9789  -23.3927   16.3855 C   0  0  0  0  0  0
  -30.1399  -24.2723   18.7039 C   0  0  0  0  0  0
  -29.5840  -24.1193   20.1526 C   0  0  2  0  0  0
  -29.5788  -22.6352   20.5724 N   0  0  0  0  0  0
  -27.8488  -21.7847   19.1979 N   0  0  0  0  0  0
  -29.7203  -15.7187   20.8606 N   0  0  0  0  0  0
  -29.2848  -23.6773   17.6556 N   0  3  0  0  0  0
  -27.1962  -24.3869   20.6813 O   0  0  0  0  0  0
  -31.4878  -12.5820   19.1542 H   0  0  0  0  0  0
  -30.4107  -11.4377   19.9060 H   0  0  0  0  0  0
  -29.7905  -11.7631   17.4923 H   0  0  0  0  0  0
  -29.6442  -13.4842   17.7396 H   0  0  0  0  0  0
  -27.8852  -11.2882   18.8777 H   0  0  0  0  0  0
  -27.3832  -12.5613   17.7965 H   0  0  0  0  0  0
  -27.6664  -14.2484   19.5149 H   0  0  0  0  0  0
  -28.7264  -12.0540   21.3670 H   0  0  0  0  0  0
  -28.4314  -13.6973   21.8512 H   0  0  0  0  0  0
  -25.2765   -9.5675   22.4762 H   0  0  0  0  0  0
  -24.0000   -7.4630   22.7477 H   0  0  0  0  0  0
  -21.0842   -8.8774   19.8951 H   0  0  0  0  0  0
  -22.3706  -10.9670   19.6167 H   0  0  0  0  0  0
  -21.2004   -7.6147   23.9718 H   0  0  0  0  0  0
  -21.1480   -6.0522   25.9080 H   0  0  0  0  0  0
  -22.0599   -2.7609   23.2848 H   0  0  0  0  0  0
  -22.4095  -11.9879   22.4798 H   0  0  0  0  0  0
  -21.1111  -13.1256   22.2608 H   0  0  0  0  0  0
  -24.6456  -15.8304   20.4830 H   0  0  0  0  0  0
  -26.2444  -15.6101   19.9863 H   0  0  0  0  0  0
  -26.7190  -32.5426   23.1087 H   0  0  0  0  0  0
  -25.0073  -33.9712   25.0413 H   0  0  0  0  0  0
  -22.7204  -31.3008   21.3974 H   0  0  0  0  0  0
  -23.3756  -35.9617   23.3299 H   0  0  0  0  0  0
  -24.3581  -36.8911   22.2054 H   0  0  0  0  0  0
  -23.7240  -37.6485   23.6666 H   0  0  0  0  0  0
  -26.1058  -31.5350   20.6091 H   0  0  0  0  0  0
  -26.8473  -30.8253   22.0116 H   0  0  0  0  0  0
  -28.1165  -28.9423   21.2147 H   0  0  0  0  0  0
  -25.9858  -25.9246   18.9808 H   0  0  0  0  0  0
  -23.9788  -27.3106   18.9955 H   0  0  0  0  0  0
  -23.7657  -30.5883   19.4029 H   0  0  0  0  0  0
  -22.7625  -29.2441   19.8554 H   0  0  0  0  0  0
  -25.1298  -36.1927   25.0820 H   0  0  0  0  0  0
  -20.9983  -28.3271   24.1397 H   0  0  0  0  0  0
  -20.5680  -26.2304   23.3611 H   0  0  0  0  0  0
  -21.6646  -26.7441   22.1202 H   0  0  0  0  0  0
  -19.6915  -25.6293   21.1245 H   0  0  0  0  0  0
  -19.6691  -27.3192   20.6740 H   0  0  0  0  0  0
  -17.4203  -26.6678   21.4025 H   0  0  0  0  0  0
  -18.0331  -26.0072   22.9019 H   0  0  0  0  0  0
  -19.7938  -30.7276   24.2262 H   0  0  0  0  0  0
  -17.5015  -31.6269   24.5162 H   0  0  0  0  0  0
  -15.5354  -30.2985   23.7657 H   0  0  0  0  0  0
  -15.8675  -28.0817   22.7077 H   0  0  0  0  0  0
  -24.5901  -30.7076   25.7769 H   0  0  0  0  0  0
  -24.8914  -32.2896   26.4865 H   0  0  0  0  0  0
  -25.8042  -30.8905   27.0225 H   0  0  0  0  0  0
  -26.2934  -29.6747   24.1224 H   0  0  0  0  0  0
  -27.4024  -29.7268   25.4725 H   0  0  0  0  0  0
  -27.8814  -30.4279   23.9456 H   0  0  0  0  0  0
  -27.2653  -33.3628   26.2069 H   0  0  0  0  0  0
  -28.3866  -32.6885   25.0337 H   0  0  0  0  0  0
  -28.0712  -31.8461   26.5425 H   0  0  0  0  0  0
  -28.2590  -38.0103   24.7522 H   0  0  0  0  0  0
  -28.1088  -36.2634   24.6279 H   0  0  0  0  0  0
  -27.2299  -37.1435   25.8866 H   0  0  0  0  0  0
  -20.9383  -29.8768   21.6874 H   0  0  0  0  0  0
  -26.0171  -38.2848   24.1413 H   0  0  0  0  0  0
  -31.3561  -20.1422   20.0541 H   0  0  0  0  0  0
  -27.1577  -19.5787   20.7378 H   0  0  0  0  0  0
  -31.7280  -17.7041   20.3127 H   0  0  0  0  0  0
  -27.5168  -17.1879   21.0278 H   0  0  0  0  0  0
  -30.8091  -25.8084   20.8609 H   0  0  0  0  0  0
  -31.5805  -24.2468   21.0547 H   0  0  0  0  0  0
  -30.2863  -24.7229   22.1401 H   0  0  0  0  0  0
  -29.2860  -22.9571   15.6658 H   0  0  0  0  0  0
  -30.7951  -22.6849   16.5335 H   0  0  0  0  0  0
  -30.3885  -24.3046   15.9505 H   0  0  0  0  0  0
  -31.1242  -23.8033   18.6602 H   0  0  0  0  0  0
  -30.3011  -25.3240   18.4603 H   0  0  0  0  0  0
  -27.3723  -20.9546   18.8594 H   0  0  0  0  0  0
  -27.1244  -22.4588   19.4283 H   0  0  0  0  0  0
  -28.8476  -15.3264   21.1786 H   0  0  0  0  0  0
  -28.9159  -22.8091   18.0369 H   0  0  0  0  0  0
  -28.5010  -24.2797   17.4667 H   0  0  0  0  0  0
  1 25  1  0  0  0
  1 30  2  0  0  0
  1 85  1  0  0  0
  2  3  1  0  0  0
  2 25  1  0  0  0
  2 88  1  0  0  0
  2 89  1  0  0  0
  3  4  1  0  0  0
  3 90  1  0  0  0
  3 91  1  0  0  0
  4  5  1  0  0  0
  4 92  1  0  0  0
  4 93  1  0  0  0
  5  6  1  0  0  0
  5 26  1  0  0  0
  5 94  1  0  0  0
  6 25  1  0  0  0
  6 95  1  0  0  0
  6 96  1  0  0  0
  7  8  2  0  0  0
  7 26  1  0  0  0
  7 29  1  0  0  0
  8  9  1  0  0  0
  8 22  1  0  0  0
  9 10  1  0  0  0
  9 27  2  0  0  0
 10 11  2  0  0  0
 10 15  1  0  0  0
 11 12  1  0  0  0
 11 97  1  0  0  0
 12 13  2  0  0  0
 12 98  1  0  0  0
 13 14  1  0  0  0
 13 31  1  0  0  0
 14 15  2  0  0  0
 14 99  1  0  0  0
 15100  1  0  0  0
 16 17  2  0  0  0
 16 21  1  0  0  0
 16 31  1  0  0  0
 17 18  1  0  0  0
 17101  1  0  0  0
 18 19  2  0  0  0
 18102  1  0  0  0
 19 20  1  0  0  0
 19 24  1  0  0  0
 20 21  2  0  0  0
 20103  1  0  0  0
 21 23  1  0  0  0
 22 28  1  0  0  0
 22 32  2  0  0  0
 26 27  1  0  0  0
 28104  1  0  0  0
 28105  1  0  0  0
 29106  1  0  0  0
 29107  1  0  0  0
 33 34  1  0  0  0
 33 66  1  0  0  0
 33 70  2  0  0  0
 34 36  1  0  0  0
 34 59  1  0  0  0
 34108  1  0  0  0
 35 44  2  0  0  0
 35 45  1  0  0  0
 35 68  1  0  0  0
 36 56  1  0  0  0
 36109  1  0  0  0
 37 39  1  0  0  0
 37 47  1  0  0  0
 37 66  1  0  0  0
 37110  1  0  0  0
 38 43  2  0  0  0
 38 46  1  0  0  0
 38 47  1  0  0  0
 39 64  1  0  0  0
 39 67  2  0  0  0
 40 52  1  0  0  0
 40 53  2  0  0  0
 40 58  1  0  0  0
 41111  1  0  0  0
 41112  1  0  0  0
 41113  1  0  0  0
 41 48  1  0  0  0
 42 43  1  0  0  0
 42 66  1  0  0  0
 42114  1  0  0  0
 42115  1  0  0  0
 43 44  1  0  0  0
 44116  1  0  0  0
 45 46  2  0  0  0
 45117  1  0  0  0
 46118  1  0  0  0
 47119  1  0  0  0
 47120  1  0  0  0
 48 56  1  0  0  0
 48 65  1  0  0  0
 48121  1  0  0  0
 49 50  1  0  0  0
 49 53  1  0  0  0
 49 64  1  0  0  0
 49122  1  0  0  0
 50 51  1  0  0  0
 50123  1  0  0  0
 50124  1  0  0  0
 51 52  1  0  0  0
 51125  1  0  0  0
 51126  1  0  0  0
 52127  1  0  0  0
 52128  1  0  0  0
 53 54  1  0  0  0
 54 55  2  0  0  0
 54129  1  0  0  0
 55 57  1  0  0  0
 55130  1  0  0  0
 56 69  2  0  0  0
 57 58  2  0  0  0
 57131  1  0  0  0
 58132  1  0  0  0
 59 60  1  0  0  0
 59 61  1  0  0  0
 59 62  1  0  0  0
 60133  1  0  0  0
 60134  1  0  0  0
 60135  1  0  0  0
 61136  1  0  0  0
 61137  1  0  0  0
 61138  1  0  0  0
 62139  1  0  0  0
 62140  1  0  0  0
 62141  1  0  0  0
 63 65  1  0  0  0
 63142  1  0  0  0
 63143  1  0  0  0
 63144  1  0  0  0
 64145  1  0  0  0
 65146  1  0  0  0
 68 78  1  0  0  0
 71 73  2  0  0  0
 71 75  1  0  0  0
 71147  1  0  0  0
 72 74  1  0  0  0
 72 75  2  0  0  0
 72148  1  0  0  0
 73 76  1  0  0  0
 73149  1  0  0  0
 74 76  2  0  0  0
 74150  1  0  0  0
 75 77  1  0  0  0
 76 85  1  0  0  0
 77 83  2  0  0  0
 77 84  1  0  0  0
 78 87  2  0  0  0
 78 82  1  0  0  0
 79151  1  0  0  0
 79152  1  0  0  0
 79153  1  0  0  0
 79 82  1  0  0  0
 80 86  1  0  0  0
 80154  1  0  0  0
 80155  1  0  0  0
 80156  1  0  0  0
 81 82  1  0  0  0
 81 86  1  0  0  0
 81157  1  0  0  0
 81158  1  0  0  0
 82 83  1  0  0  0
 84159  1  0  0  0
 84160  1  0  0  0
 85161  1  0  0  0
 86162  1  0  0  0
 86163  1  0  0  0
M  CHG  1  86   1
M  ISO  4   1 100  68 101  78 101  85 100
M  END
> <chiral flag>
0

> <version>
0

> <s_m_source_file>
/data/baiqing/PycharmProjects/Reinvent-master-3.2/result/LINK_invent/BTK/process_docking_weight1_custom_product_contain_oxygen_bond_distance_aromatic_linkinvent_7_9_3/rearranged_h_0076.sdf

> <i_m_source_file_index>
59

> <r_mmod_Potential_Energy-OPLS-2005>
-144.443145751953

> <r_mmod_Stretch_Energy-OPLS-2005>
119.651679992676

> <r_mmod_Bend_Energy-OPLS-2005>
200.383575439453

> <r_mmod_Torsional_Energy-OPLS-2005>
228.951019287109

> <r_mmod_Improper_Torsional_Energy-OPLS-2005>
9.56498050689697

> <r_mmod_Van_der_Waal_Energy-OPLS-2005>
149.310760498047

> <r_mmod_Electrostatic_Energy-OPLS-2005>
-447.155639648438

> <r_mmod_Solvation_Energy-OPLS-2005>
-472.920989990234

> <b_mmod_Minimization_Converged-OPLS-2005>
0

> <r_mmod_RMS_Derivative-OPLS-2005>
0.41032549738884

$$$$
59
                    3D
 Structure written by MMmdl.
159168  0  0  1  0            999 V2000
  -30.6606  -14.5988   20.5114 C   0  0  0  0  0  0
  -30.4345  -12.3631   19.4686 C   0  0  0  0  0  0
  -29.5131  -12.4817   18.2372 C   0  0  0  0  0  0
  -28.0303  -12.3527   18.6395 C   0  0  0  0  0  0
  -27.6562  -13.2168   19.8742 C   0  0  2  0  0  0
  -28.6992  -13.0702   21.0056 C   0  0  0  0  0  0
  -25.2575  -13.8182   20.5741 C   0  0  0  0  0  0
  -24.1832  -13.0454   20.9206 C   0  0  0  0  0  0
  -24.6395  -11.6916   20.8743 C   0  0  0  0  0  0
  -23.9061  -10.4293   21.0397 C   0  0  0  0  0  0
  -24.3620   -9.4200   21.9171 C   0  0  0  0  0  0
  -23.6292   -8.2242   22.0748 C   0  0  0  0  0  0
  -22.4272   -8.0275   21.3539 C   0  0  0  0  0  0
  -21.9898   -9.0256   20.4650 C   0  0  0  0  0  0
  -22.7228  -10.2131   20.3048 C   0  0  0  0  0  0
  -21.6857   -6.0726   22.5270 C   0  0  0  0  0  0
  -21.4021   -6.5629   23.8205 C   0  0  0  0  0  0
  -21.3667   -5.6785   24.9168 C   0  0  0  0  0  0
  -21.6049   -4.3048   24.7221 C   0  0  0  0  0  0
  -21.8821   -3.8139   23.4337 C   0  0  0  0  0  0
  -21.9202   -4.6958   22.3392 C   0  0  0  0  0  0
  -22.7848  -13.5246   21.1865 C   0  0  0  0  0  0
  -22.1662   -4.2147   21.0973 F   0  0  0  0  0  0
  -21.5638   -3.4525   25.7734 F   0  0  0  0  0  0
  -30.0225  -13.3886   20.4490 N   0  0  0  0  0  0
  -26.3002  -12.9356   20.3374 N   0  0  0  0  0  0
  -25.9330  -11.6510   20.5799 N   0  0  0  0  0  0
  -22.0492  -12.8225   22.0406 N   0  0  0  0  0  0
  -25.4302  -15.1903   20.4158 N   0  0  0  0  0  0
  -31.8049  -14.7520   20.0755 O   0  0  0  0  0  0
  -21.6644   -6.8860   21.4230 O   0  0  0  0  0  0
  -22.3507  -14.5539   20.6692 O   0  0  0  0  0  0
  -24.6203  -31.8610   23.2064 C   0  0  0  0  0  0
  -25.9076  -32.4785   23.8357 C   0  0  1  0  0  0
  -27.2265  -27.3713   20.1160 C   0  0  0  0  0  0
  -25.5922  -33.8588   24.2297 N   0  0  0  0  0  0
  -23.4099  -30.4837   21.5495 C   0  0  2  0  0  0
  -24.8552  -28.9454   20.1117 C   0  0  0  0  0  0
  -22.7409  -29.4619   22.4966 C   0  0  0  0  0  0
  -18.0264  -28.1382   22.8492 C   0  0  0  0  0  0
  -24.1487  -36.7310   23.2630 C   0  0  0  0  0  0
  -25.9434  -30.8134   21.3628 C   0  0  0  0  0  0
  -26.0189  -29.4419   20.7102 C   0  0  0  0  0  0
  -27.2088  -28.6666   20.7006 C   0  0  0  0  0  0
  -26.0429  -26.9097   19.4936 C   0  0  0  0  0  0
  -24.8654  -27.6835   19.4949 C   0  0  0  0  0  0
  -23.6198  -29.8179   20.1635 C   0  0  0  0  0  0
  -25.4108  -36.3091   24.0331 C   0  0  1  0  0  0
  -20.5873  -28.3667   23.1319 C   0  0  2  0  0  0
  -20.6763  -26.9400   22.5411 C   0  0  0  0  0  0
  -19.5749  -26.6384   21.5207 C   0  0  0  0  0  0
  -18.1925  -26.7925   22.1618 C   0  0  0  0  0  0
  -19.1521  -28.8834   23.2914 C   0  0  0  0  0  0
  -18.9455  -30.1447   23.8909 C   0  0  0  0  0  0
  -17.6450  -30.6595   24.0567 C   0  0  0  0  0  0
  -25.9035  -34.9461   23.5117 C   0  0  0  0  0  0
  -16.5334  -29.9093   23.6332 C   0  0  0  0  0  0
  -16.7248  -28.6517   23.0335 C   0  0  0  0  0  0
  -26.4499  -31.6566   25.0693 C   0  0  0  0  0  0
  -25.3770  -31.3679   26.1442 C   0  0  0  0  0  0
  -27.0318  -30.2999   24.6076 C   0  0  0  0  0  0
  -27.6062  -32.4270   25.7477 C   0  0  0  0  0  0
  -27.5585  -37.1806   24.8461 C   0  0  0  0  0  0
  -21.4137  -29.3030   22.3715 N   0  0  0  0  0  0
  -26.4285  -37.3792   23.9412 N   0  0  0  0  0  0
  -24.6772  -31.0652   22.1000 N   0  0  0  0  0  0
  -23.4148  -28.8145   23.3015 O   0  0  0  0  0  0
  -28.3697  -26.5794   20.1655 O   0  0  0  0  0  0
  -26.5591  -34.8929   22.4678 O   0  0  0  0  0  0
  -23.5393  -32.1383   23.7440 O   0  0  0  0  0  0
  -29.1559  -19.3192   18.8230 C   0  0  0  0  0  0
  -29.8983  -18.2269   20.8757 C   0  0  0  0  0  0
  -29.5866  -19.4459   20.1660 C   0  0  0  0  0  0
  -29.0101  -18.0615   18.2159 C   0  0  0  0  0  0
  -29.7650  -16.9284   20.2648 C   0  0  0  0  0  0
  -29.3138  -16.8831   18.9229 C   0  0  0  0  0  0
  -29.7036  -23.1001   21.0301 C   0  0  0  0  0  0
  -30.7821  -22.5645   21.8228 C   0  0  0  0  0  0
  -29.0764  -21.9463   20.3696 C   0  0  0  0  0  0
  -31.6934  -23.2748   22.5130 C   0  0  0  0  0  0
  -29.3374  -24.4208   20.9626 C   0  0  0  0  0  0
  -30.7766  -21.0609   21.7315 C   0  0  0  0  0  0
  -28.1957  -25.1294   20.2103 C   0  0  0  0  0  0
  -29.7423  -20.7896   20.7296 N   0  0  0  0  0  0
  -28.5460  -17.9768   16.9023 N   0  0  0  0  0  0
  -29.9465  -15.6670   20.9710 N   0  0  0  0  0  0
  -28.0839  -21.9982   19.6357 O   0  0  0  0  0  0
  -29.1317  -15.6983   18.2939 F   0  0  0  0  0  0
  -31.4785  -12.4723   19.1684 H   0  0  0  0  0  0
  -30.3587  -11.3674   19.9079 H   0  0  0  0  0  0
  -29.7678  -11.7135   17.5074 H   0  0  0  0  0  0
  -29.6832  -13.4344   17.7384 H   0  0  0  0  0  0
  -27.8378  -11.3002   18.8531 H   0  0  0  0  0  0
  -27.3902  -12.6096   17.7944 H   0  0  0  0  0  0
  -27.6685  -14.2539   19.5461 H   0  0  0  0  0  0
  -28.6991  -12.0520   21.3955 H   0  0  0  0  0  0
  -28.4496  -13.7107   21.8517 H   0  0  0  0  0  0
  -25.2776   -9.5671   22.4738 H   0  0  0  0  0  0
  -24.0016   -7.4628   22.7441 H   0  0  0  0  0  0
  -21.0848   -8.8755   19.8949 H   0  0  0  0  0  0
  -22.3688  -10.9662   19.6156 H   0  0  0  0  0  0
  -21.1996   -7.6138   23.9703 H   0  0  0  0  0  0
  -21.1499   -6.0516   25.9076 H   0  0  0  0  0  0
  -22.0597   -2.7602   23.2840 H   0  0  0  0  0  0
  -22.4136  -11.9899   22.4800 H   0  0  0  0  0  0
  -21.1094  -13.1212   22.2636 H   0  0  0  0  0  0
  -24.6670  -15.8494   20.5209 H   0  0  0  0  0  0
  -26.2771  -15.6177   20.0646 H   0  0  0  0  0  0
  -26.7127  -32.5470   23.1096 H   0  0  0  0  0  0
  -25.0077  -33.9737   25.0445 H   0  0  0  0  0  0
  -22.7064  -31.3074   21.4097 H   0  0  0  0  0  0
  -23.3745  -35.9646   23.3279 H   0  0  0  0  0  0
  -24.3568  -36.8938   22.2043 H   0  0  0  0  0  0
  -23.7255  -37.6520   23.6654 H   0  0  0  0  0  0
  -26.0540  -31.5745   20.5887 H   0  0  0  0  0  0
  -26.8327  -30.8703   21.9776 H   0  0  0  0  0  0
  -28.1047  -29.0454   21.1729 H   0  0  0  0  0  0
  -26.0150  -25.9454   19.0052 H   0  0  0  0  0  0
  -23.9720  -27.3034   19.0196 H   0  0  0  0  0  0
  -23.7315  -30.5955   19.4066 H   0  0  0  0  0  0
  -22.7423  -29.2411   19.8641 H   0  0  0  0  0  0
  -25.1295  -36.1932   25.0827 H   0  0  0  0  0  0
  -20.9969  -28.3230   24.1437 H   0  0  0  0  0  0
  -20.5671  -26.2267   23.3605 H   0  0  0  0  0  0
  -21.6644  -26.7437   22.1211 H   0  0  0  0  0  0
  -19.6919  -25.6295   21.1241 H   0  0  0  0  0  0
  -19.6704  -27.3200   20.6756 H   0  0  0  0  0  0
  -17.4193  -26.6667   21.4011 H   0  0  0  0  0  0
  -18.0333  -26.0074   22.9030 H   0  0  0  0  0  0
  -19.7934  -30.7283   24.2273 H   0  0  0  0  0  0
  -17.5000  -31.6279   24.5169 H   0  0  0  0  0  0
  -15.5340  -30.2992   23.7666 H   0  0  0  0  0  0
  -15.8651  -28.0845   22.7020 H   0  0  0  0  0  0
  -24.5944  -30.7029   25.7786 H   0  0  0  0  0  0
  -24.8950  -32.2822   26.4901 H   0  0  0  0  0  0
  -25.8128  -30.8833   27.0183 H   0  0  0  0  0  0
  -26.2846  -29.6760   24.1143 H   0  0  0  0  0  0
  -27.4096  -29.7242   25.4535 H   0  0  0  0  0  0
  -27.8691  -30.4306   23.9213 H   0  0  0  0  0  0
  -27.2690  -33.3551   26.2095 H   0  0  0  0  0  0
  -28.3873  -32.6845   25.0320 H   0  0  0  0  0  0
  -28.0733  -31.8354   26.5354 H   0  0  0  0  0  0
  -28.2599  -38.0109   24.7512 H   0  0  0  0  0  0
  -28.1088  -36.2636   24.6274 H   0  0  0  0  0  0
  -27.2292  -37.1446   25.8862 H   0  0  0  0  0  0
  -20.9294  -29.8730   21.6928 H   0  0  0  0  0  0
  -26.0164  -38.2869   24.1417 H   0  0  0  0  0  0
  -28.9402  -20.1963   18.2310 H   0  0  0  0  0  0
  -30.2310  -18.2826   21.9033 H   0  0  0  0  0  0
  -31.6926  -24.3558   22.5374 H   0  0  0  0  0  0
  -32.4775  -22.7760   23.0654 H   0  0  0  0  0  0
  -29.8968  -25.1151   21.5712 H   0  0  0  0  0  0
  -30.5226  -20.6197   22.6958 H   0  0  0  0  0  0
  -31.7495  -20.6891   21.4098 H   0  0  0  0  0  0
  -27.2814  -24.8841   20.7513 H   0  0  0  0  0  0
  -28.0944  -24.7274   19.2022 H   0  0  0  0  0  0
  -28.6519  -18.7809   16.2919 H   0  0  0  0  0  0
  -28.6664  -17.0838   16.4331 H   0  0  0  0  0  0
  -29.1478  -15.3940   21.5231 H   0  0  0  0  0  0
  1 25  1  0  0  0
  1 30  2  0  0  0
  1 86  1  0  0  0
  2  3  1  0  0  0
  2 25  1  0  0  0
  2 89  1  0  0  0
  2 90  1  0  0  0
  3  4  1  0  0  0
  3 91  1  0  0  0
  3 92  1  0  0  0
  4  5  1  0  0  0
  4 93  1  0  0  0
  4 94  1  0  0  0
  5  6  1  0  0  0
  5 26  1  0  0  0
  5 95  1  0  0  0
  6 25  1  0  0  0
  6 96  1  0  0  0
  6 97  1  0  0  0
  7  8  2  0  0  0
  7 26  1  0  0  0
  7 29  1  0  0  0
  8  9  1  0  0  0
  8 22  1  0  0  0
  9 10  1  0  0  0
  9 27  2  0  0  0
 10 11  2  0  0  0
 10 15  1  0  0  0
 11 12  1  0  0  0
 11 98  1  0  0  0
 12 13  2  0  0  0
 12 99  1  0  0  0
 13 14  1  0  0  0
 13 31  1  0  0  0
 14 15  2  0  0  0
 14100  1  0  0  0
 15101  1  0  0  0
 16 17  2  0  0  0
 16 21  1  0  0  0
 16 31  1  0  0  0
 17 18  1  0  0  0
 17102  1  0  0  0
 18 19  2  0  0  0
 18103  1  0  0  0
 19 20  1  0  0  0
 19 24  1  0  0  0
 20 21  2  0  0  0
 20104  1  0  0  0
 21 23  1  0  0  0
 22 28  1  0  0  0
 22 32  2  0  0  0
 26 27  1  0  0  0
 28105  1  0  0  0
 28106  1  0  0  0
 29107  1  0  0  0
 29108  1  0  0  0
 33 34  1  0  0  0
 33 66  1  0  0  0
 33 70  2  0  0  0
 34 36  1  0  0  0
 34 59  1  0  0  0
 34109  1  0  0  0
 35 44  2  0  0  0
 35 45  1  0  0  0
 35 68  1  0  0  0
 36 56  1  0  0  0
 36110  1  0  0  0
 37 39  1  0  0  0
 37 47  1  0  0  0
 37 66  1  0  0  0
 37111  1  0  0  0
 38 43  2  0  0  0
 38 46  1  0  0  0
 38 47  1  0  0  0
 39 64  1  0  0  0
 39 67  2  0  0  0
 40 52  1  0  0  0
 40 53  2  0  0  0
 40 58  1  0  0  0
 41112  1  0  0  0
 41113  1  0  0  0
 41114  1  0  0  0
 41 48  1  0  0  0
 42 43  1  0  0  0
 42 66  1  0  0  0
 42115  1  0  0  0
 42116  1  0  0  0
 43 44  1  0  0  0
 44117  1  0  0  0
 45 46  2  0  0  0
 45118  1  0  0  0
 46119  1  0  0  0
 47120  1  0  0  0
 47121  1  0  0  0
 48 56  1  0  0  0
 48 65  1  0  0  0
 48122  1  0  0  0
 49 50  1  0  0  0
 49 53  1  0  0  0
 49 64  1  0  0  0
 49123  1  0  0  0
 50 51  1  0  0  0
 50124  1  0  0  0
 50125  1  0  0  0
 51 52  1  0  0  0
 51126  1  0  0  0
 51127  1  0  0  0
 52128  1  0  0  0
 52129  1  0  0  0
 53 54  1  0  0  0
 54 55  2  0  0  0
 54130  1  0  0  0
 55 57  1  0  0  0
 55131  1  0  0  0
 56 69  2  0  0  0
 57 58  2  0  0  0
 57132  1  0  0  0
 58133  1  0  0  0
 59 60  1  0  0  0
 59 61  1  0  0  0
 59 62  1  0  0  0
 60134  1  0  0  0
 60135  1  0  0  0
 60136  1  0  0  0
 61137  1  0  0  0
 61138  1  0  0  0
 61139  1  0  0  0
 62140  1  0  0  0
 62141  1  0  0  0
 62142  1  0  0  0
 63 65  1  0  0  0
 63143  1  0  0  0
 63144  1  0  0  0
 63145  1  0  0  0
 64146  1  0  0  0
 65147  1  0  0  0
 68 83  1  0  0  0
 71 73  2  0  0  0
 71 74  1  0  0  0
 71148  1  0  0  0
 72 73  1  0  0  0
 72 75  2  0  0  0
 72149  1  0  0  0
 73 84  1  0  0  0
 74 76  2  0  0  0
 74 85  1  0  0  0
 75 76  1  0  0  0
 75 86  1  0  0  0
 76 88  1  0  0  0
 77 78  1  0  0  0
 77 79  1  0  0  0
 77 81  2  0  0  0
 78 80  2  0  0  0
 78 82  1  0  0  0
 79 84  1  0  0  0
 79 87  2  0  0  0
 80150  1  0  0  0
 80151  1  0  0  0
 81 83  1  0  0  0
 81152  1  0  0  0
 82 84  1  0  0  0
 82153  1  0  0  0
 82154  1  0  0  0
 83155  1  0  0  0
 83156  1  0  0  0
 85157  1  0  0  0
 85158  1  0  0  0
 86159  1  0  0  0
M  ISO  4   1 100  68 101  83 101  86 100
M  END
> <chiral flag>
0

> <version>
0

> <s_m_source_file>
/data/baiqing/PycharmProjects/Reinvent-master-3.2/result/LINK_invent/BTK/process_docking_weight1_custom_product_contain_oxygen_bond_distance_aromatic_linkinvent_7_9_3/rearranged_h_0076.sdf

> <i_m_source_file_index>
60

> <r_mmod_Potential_Energy-OPLS-2005>
172.995407104492

> <r_mmod_Stretch_Energy-OPLS-2005>
67.6025924682617

> <r_mmod_Bend_Energy-OPLS-2005>
167.431533813477

> <r_mmod_Torsional_Energy-OPLS-2005>
305.303619384766

> <r_mmod_Improper_Torsional_Energy-OPLS-2005>
9.11334228515625

> <r_mmod_Van_der_Waal_Energy-OPLS-2005>
150.194793701172

> <r_mmod_Electrostatic_Energy-OPLS-2005>
-338.247802734375

> <r_mmod_Solvation_Energy-OPLS-2005>
-221.126495361328

> <b_mmod_Minimization_Converged-OPLS-2005>
0

> <r_mmod_RMS_Derivative-OPLS-2005>
3.59346175193787

$$$$
60
                    3D
 Structure written by MMmdl.
155164  0  0  1  0            999 V2000
  -30.6232  -14.7707   20.4955 C   0  0  0  0  0  0
  -30.4416  -12.4805   19.4822 C   0  0  0  0  0  0
  -29.5199  -12.5158   18.2425 C   0  0  0  0  0  0
  -28.0497  -12.3215   18.6555 C   0  0  0  0  0  0
  -27.6428  -13.2359   19.8421 C   0  0  2  0  0  0
  -28.6839  -13.1918   20.9797 C   0  0  0  0  0  0
  -25.2526  -13.8239   20.5648 C   0  0  0  0  0  0
  -24.1834  -13.0475   20.9230 C   0  0  0  0  0  0
  -24.6433  -11.6946   20.8793 C   0  0  0  0  0  0
  -23.9148  -10.4285   21.0433 C   0  0  0  0  0  0
  -24.3692   -9.4196   21.9207 C   0  0  0  0  0  0
  -23.6366   -8.2225   22.0744 C   0  0  0  0  0  0
  -22.4334   -8.0319   21.3542 C   0  0  0  0  0  0
  -21.9982   -9.0278   20.4640 C   0  0  0  0  0  0
  -22.7328  -10.2144   20.3076 C   0  0  0  0  0  0
  -21.6829   -6.0793   22.5299 C   0  0  0  0  0  0
  -21.3984   -6.5675   23.8252 C   0  0  0  0  0  0
  -21.3643   -5.6837   24.9210 C   0  0  0  0  0  0
  -21.6043   -4.3089   24.7246 C   0  0  0  0  0  0
  -21.8815   -3.8193   23.4355 C   0  0  0  0  0  0
  -21.9179   -4.7009   22.3433 C   0  0  0  0  0  0
  -22.7842  -13.5224   21.1902 C   0  0  0  0  0  0
  -22.1663   -4.2208   21.1006 F   0  0  0  0  0  0
  -21.5613   -3.4574   25.7731 F   0  0  0  0  0  0
  -29.9846  -13.5517   20.3999 N   0  0  0  0  0  0
  -26.2951  -12.9443   20.3213 N   0  0  0  0  0  0
  -25.9344  -11.6588   20.5733 N   0  0  0  0  0  0
  -22.0505  -12.8140   22.0430 N   0  0  0  0  0  0
  -25.4204  -15.1971   20.3942 N   0  0  0  0  0  0
  -31.8172  -14.8509   20.1924 O   0  0  0  0  0  0
  -21.6667   -6.8927   21.4261 O   0  0  0  0  0  0
  -22.3486  -14.5523   20.6771 O   0  0  0  0  0  0
  -24.6361  -31.8514   23.2040 C   0  0  0  0  0  0
  -25.9176  -32.4750   23.8368 C   0  0  1  0  0  0
  -27.2014  -27.2096   20.1648 C   0  0  0  0  0  0
  -25.5942  -33.8541   24.2266 N   0  0  0  0  0  0
  -23.4329  -30.4796   21.5458 C   0  0  2  0  0  0
  -24.8830  -28.9196   20.1168 C   0  0  0  0  0  0
  -22.7506  -29.4619   22.4936 C   0  0  0  0  0  0
  -18.0287  -28.1312   22.8506 C   0  0  0  0  0  0
  -24.1484  -36.7283   23.2638 C   0  0  0  0  0  0
  -25.9825  -30.7513   21.3907 C   0  0  0  0  0  0
  -26.0572  -29.3700   20.7362 C   0  0  0  0  0  0
  -27.2218  -28.5234   20.7555 C   0  0  0  0  0  0
  -26.0115  -26.8523   19.4988 C   0  0  0  0  0  0
  -24.8677  -27.6687   19.4847 C   0  0  0  0  0  0
  -23.6551  -29.8126   20.1643 C   0  0  0  0  0  0
  -25.4131  -36.3095   24.0322 C   0  0  1  0  0  0
  -20.5881  -28.3688   23.1256 C   0  0  2  0  0  0
  -20.6833  -26.9447   22.5346 C   0  0  0  0  0  0
  -19.5800  -26.6417   21.5157 C   0  0  0  0  0  0
  -18.1999  -26.7865   22.1618 C   0  0  0  0  0  0
  -19.1521  -28.8807   23.2885 C   0  0  0  0  0  0
  -18.9413  -30.1419   23.8893 C   0  0  0  0  0  0
  -17.6403  -30.6506   24.0559 C   0  0  0  0  0  0
  -25.9064  -34.9441   23.5116 C   0  0  0  0  0  0
  -16.5296  -29.8987   23.6363 C   0  0  0  0  0  0
  -16.7263  -28.6406   23.0349 C   0  0  0  0  0  0
  -26.4503  -31.6616   25.0778 C   0  0  0  0  0  0
  -25.3710  -31.3778   26.1494 C   0  0  0  0  0  0
  -27.0340  -30.3033   24.6285 C   0  0  0  0  0  0
  -27.6041  -32.4375   25.7557 C   0  0  0  0  0  0
  -27.5592  -37.1828   24.8470 C   0  0  0  0  0  0
  -21.4204  -29.3061   22.3687 N   0  0  0  0  0  0
  -26.4313  -37.3802   23.9402 N   0  0  0  0  0  0
  -24.7037  -31.0457   22.1030 N   0  0  0  0  0  0
  -23.4179  -28.8155   23.3028 O   0  0  0  0  0  0
  -28.2421  -26.2404   20.2060 O   0  0  0  0  0  0
  -26.5621  -34.8916   22.4672 O   0  0  0  0  0  0
  -23.5506  -32.1308   23.7330 O   0  0  0  0  0  0
  -29.4393  -18.5317   20.6483 C   0  0  0  0  0  0
  -31.0236  -20.0341   21.7156 C   0  0  0  0  0  0
  -31.4509  -17.6046   21.6513 C   0  0  0  0  0  0
  -29.8136  -19.9086   21.0010 C   0  0  0  0  0  0
  -30.2427  -17.3465   20.9598 C   0  0  0  0  0  0
  -31.8258  -18.9142   22.0260 C   0  0  0  0  0  0
  -29.1804  -22.5135   21.0942 C   0  0  0  0  0  0
  -28.3857  -23.4369   20.4390 C   0  0  0  0  0  0
  -27.6817  -22.5886   19.4859 C   0  0  0  0  0  0
  -26.7677  -22.9915   18.5911 C   0  0  0  0  0  0
  -28.0933  -21.1238   19.6157 C   0  0  0  0  0  0
  -27.9439  -24.9242   20.9104 C   0  0  0  0  0  0
  -29.0861  -21.1375   20.6728 N   0  0  0  0  0  0
  -29.8556  -15.9251   20.6781 N   0  0  0  0  0  0
  -32.9820  -19.0991   22.7080 F   0  0  0  0  0  0
  -31.4856  -12.6007   19.1873 H   0  0  0  0  0  0
  -30.3881  -11.5084   19.9775 H   0  0  0  0  0  0
  -29.8126  -11.7501   17.5215 H   0  0  0  0  0  0
  -29.6350  -13.4786   17.7371 H   0  0  0  0  0  0
  -27.9289  -11.2763   18.9440 H   0  0  0  0  0  0
  -27.3887  -12.4774   17.8004 H   0  0  0  0  0  0
  -27.6345  -14.2519   19.4432 H   0  0  0  0  0  0
  -28.7216  -12.2020   21.4384 H   0  0  0  0  0  0
  -28.4043  -13.8905   21.7705 H   0  0  0  0  0  0
  -25.2835   -9.5634   22.4799 H   0  0  0  0  0  0
  -24.0064   -7.4572   22.7432 H   0  0  0  0  0  0
  -21.0912   -8.8818   19.8928 H   0  0  0  0  0  0
  -22.3829  -10.9697   19.6192 H   0  0  0  0  0  0
  -21.1968   -7.6185   23.9774 H   0  0  0  0  0  0
  -21.1473   -6.0558   25.9124 H   0  0  0  0  0  0
  -22.0602   -2.7654   23.2854 H   0  0  0  0  0  0
  -22.4165  -11.9810   22.4793 H   0  0  0  0  0  0
  -21.1107  -13.1062   22.2722 H   0  0  0  0  0  0
  -24.6442  -15.8481   20.4635 H   0  0  0  0  0  0
  -26.2476  -15.6199   19.9970 H   0  0  0  0  0  0
  -26.7224  -32.5397   23.1088 H   0  0  0  0  0  0
  -25.0100  -33.9641   25.0427 H   0  0  0  0  0  0
  -22.7307  -31.3030   21.4029 H   0  0  0  0  0  0
  -23.3777  -35.9590   23.3325 H   0  0  0  0  0  0
  -24.3547  -36.8892   22.2051 H   0  0  0  0  0  0
  -23.7209  -37.6476   23.6636 H   0  0  0  0  0  0
  -26.1219  -31.5080   20.6182 H   0  0  0  0  0  0
  -26.8597  -30.8045   22.0251 H   0  0  0  0  0  0
  -28.1137  -28.8456   21.2709 H   0  0  0  0  0  0
  -25.9417  -25.9011   19.0075 H   0  0  0  0  0  0
  -23.9666  -27.3199   18.9970 H   0  0  0  0  0  0
  -23.7859  -30.5860   19.4086 H   0  0  0  0  0  0
  -22.7748  -29.2470   19.8589 H   0  0  0  0  0  0
  -25.1324  -36.1968   25.0818 H   0  0  0  0  0  0
  -20.9957  -28.3242   24.1381 H   0  0  0  0  0  0
  -20.5836  -26.2293   23.3510 H   0  0  0  0  0  0
  -21.6716  -26.7578   22.1133 H   0  0  0  0  0  0
  -19.7102  -25.6353   21.1120 H   0  0  0  0  0  0
  -19.6647  -27.3235   20.6671 H   0  0  0  0  0  0
  -17.4273  -26.6484   21.4039 H   0  0  0  0  0  0
  -18.0569  -25.9940   22.8995 H   0  0  0  0  0  0
  -19.7874  -30.7265   24.2234 H   0  0  0  0  0  0
  -17.4903  -31.6221   24.5075 H   0  0  0  0  0  0
  -15.5278  -30.2874   23.7663 H   0  0  0  0  0  0
  -15.8652  -28.0751   22.7018 H   0  0  0  0  0  0
  -24.5876  -30.7122   25.7849 H   0  0  0  0  0  0
  -24.8871  -32.2927   26.4919 H   0  0  0  0  0  0
  -25.7995  -30.8971   27.0294 H   0  0  0  0  0  0
  -26.2924  -29.6816   24.1228 H   0  0  0  0  0  0
  -27.3927  -29.7272   25.4826 H   0  0  0  0  0  0
  -27.8845  -30.4311   23.9582 H   0  0  0  0  0  0
  -27.2639  -33.3687   26.2096 H   0  0  0  0  0  0
  -28.3862  -32.6938   25.0402 H   0  0  0  0  0  0
  -28.0677  -31.8529   26.5516 H   0  0  0  0  0  0
  -28.2661  -38.0083   24.7521 H   0  0  0  0  0  0
  -28.1036  -36.2627   24.6315 H   0  0  0  0  0  0
  -27.2267  -37.1508   25.8856 H   0  0  0  0  0  0
  -20.9429  -29.8801   21.6895 H   0  0  0  0  0  0
  -26.0213  -38.2881   24.1402 H   0  0  0  0  0  0
  -28.5030  -18.3762   20.1326 H   0  0  0  0  0  0
  -31.3735  -21.0079   22.0235 H   0  0  0  0  0  0
  -32.1095  -16.7935   21.9272 H   0  0  0  0  0  0
  -29.7475  -22.7091   21.9950 H   0  0  0  0  0  0
  -26.4660  -24.0145   18.4975 H   0  0  0  0  0  0
  -26.2952  -22.2764   17.9279 H   0  0  0  0  0  0
  -28.5282  -20.7593   18.6847 H   0  0  0  0  0  0
  -27.2429  -20.4975   19.8961 H   0  0  0  0  0  0
  -28.3121  -25.0451   21.9303 H   0  0  0  0  0  0
  -26.8641  -24.8448   21.0356 H   0  0  0  0  0  0
  -28.8625  -15.7558   20.6363 H   0  0  0  0  0  0
  1 25  1  0  0  0
  1 30  2  0  0  0
  1 84  1  0  0  0
  2  3  1  0  0  0
  2 25  1  0  0  0
  2 86  1  0  0  0
  2 87  1  0  0  0
  3  4  1  0  0  0
  3 88  1  0  0  0
  3 89  1  0  0  0
  4  5  1  0  0  0
  4 90  1  0  0  0
  4 91  1  0  0  0
  5  6  1  0  0  0
  5 26  1  0  0  0
  5 92  1  0  0  0
  6 25  1  0  0  0
  6 93  1  0  0  0
  6 94  1  0  0  0
  7  8  2  0  0  0
  7 26  1  0  0  0
  7 29  1  0  0  0
  8  9  1  0  0  0
  8 22  1  0  0  0
  9 10  1  0  0  0
  9 27  2  0  0  0
 10 11  2  0  0  0
 10 15  1  0  0  0
 11 12  1  0  0  0
 11 95  1  0  0  0
 12 13  2  0  0  0
 12 96  1  0  0  0
 13 14  1  0  0  0
 13 31  1  0  0  0
 14 15  2  0  0  0
 14 97  1  0  0  0
 15 98  1  0  0  0
 16 17  2  0  0  0
 16 21  1  0  0  0
 16 31  1  0  0  0
 17 18  1  0  0  0
 17 99  1  0  0  0
 18 19  2  0  0  0
 18100  1  0  0  0
 19 20  1  0  0  0
 19 24  1  0  0  0
 20 21  2  0  0  0
 20101  1  0  0  0
 21 23  1  0  0  0
 22 28  1  0  0  0
 22 32  2  0  0  0
 26 27  1  0  0  0
 28102  1  0  0  0
 28103  1  0  0  0
 29104  1  0  0  0
 29105  1  0  0  0
 33 34  1  0  0  0
 33 66  1  0  0  0
 33 70  2  0  0  0
 34 36  1  0  0  0
 34 59  1  0  0  0
 34106  1  0  0  0
 35 44  2  0  0  0
 35 45  1  0  0  0
 35 68  1  0  0  0
 36 56  1  0  0  0
 36107  1  0  0  0
 37 39  1  0  0  0
 37 47  1  0  0  0
 37 66  1  0  0  0
 37108  1  0  0  0
 38 43  2  0  0  0
 38 46  1  0  0  0
 38 47  1  0  0  0
 39 64  1  0  0  0
 39 67  2  0  0  0
 40 52  1  0  0  0
 40 53  2  0  0  0
 40 58  1  0  0  0
 41109  1  0  0  0
 41110  1  0  0  0
 41111  1  0  0  0
 41 48  1  0  0  0
 42 43  1  0  0  0
 42 66  1  0  0  0
 42112  1  0  0  0
 42113  1  0  0  0
 43 44  1  0  0  0
 44114  1  0  0  0
 45 46  2  0  0  0
 45115  1  0  0  0
 46116  1  0  0  0
 47117  1  0  0  0
 47118  1  0  0  0
 48 56  1  0  0  0
 48 65  1  0  0  0
 48119  1  0  0  0
 49 50  1  0  0  0
 49 53  1  0  0  0
 49 64  1  0  0  0
 49120  1  0  0  0
 50 51  1  0  0  0
 50121  1  0  0  0
 50122  1  0  0  0
 51 52  1  0  0  0
 51123  1  0  0  0
 51124  1  0  0  0
 52125  1  0  0  0
 52126  1  0  0  0
 53 54  1  0  0  0
 54 55  2  0  0  0
 54127  1  0  0  0
 55 57  1  0  0  0
 55128  1  0  0  0
 56 69  2  0  0  0
 57 58  2  0  0  0
 57129  1  0  0  0
 58130  1  0  0  0
 59 60  1  0  0  0
 59 61  1  0  0  0
 59 62  1  0  0  0
 60131  1  0  0  0
 60132  1  0  0  0
 60133  1  0  0  0
 61134  1  0  0  0
 61135  1  0  0  0
 61136  1  0  0  0
 62137  1  0  0  0
 62138  1  0  0  0
 62139  1  0  0  0
 63 65  1  0  0  0
 63140  1  0  0  0
 63141  1  0  0  0
 63142  1  0  0  0
 64143  1  0  0  0
 65144  1  0  0  0
 68 82  1  0  0  0
 71 74  2  0  0  0
 71 75  1  0  0  0
 71145  1  0  0  0
 72 74  1  0  0  0
 72 76  2  0  0  0
 72146  1  0  0  0
 73 75  2  0  0  0
 73 76  1  0  0  0
 73147  1  0  0  0
 74 83  1  0  0  0
 75 84  1  0  0  0
 76 85  1  0  0  0
 77 78  2  0  0  0
 77 83  1  0  0  0
 77148  1  0  0  0
 78 79  1  0  0  0
 78 82  1  0  0  0
 79 80  2  0  0  0
 79 81  1  0  0  0
 80149  1  0  0  0
 80150  1  0  0  0
 81 83  1  0  0  0
 81151  1  0  0  0
 81152  1  0  0  0
 82153  1  0  0  0
 82154  1  0  0  0
 84155  1  0  0  0
M  ISO  4   1 100  68 101  82 101  84 100
M  END
> <chiral flag>
0

> <version>
0

> <s_m_source_file>
/data/baiqing/PycharmProjects/Reinvent-master-3.2/result/LINK_invent/BTK/process_docking_weight1_custom_product_contain_oxygen_bond_distance_aromatic_linkinvent_7_9_3/rearranged_h_0076.sdf

> <i_m_source_file_index>
61

> <r_mmod_Potential_Energy-OPLS-2005>
367.008117675781

> <r_mmod_Stretch_Energy-OPLS-2005>
144.48274230957

> <r_mmod_Bend_Energy-OPLS-2005>
266.240692138672

> <r_mmod_Torsional_Energy-OPLS-2005>
235.287612915039

> <r_mmod_Improper_Torsional_Energy-OPLS-2005>
8.10983371734619

> <r_mmod_Van_der_Waal_Energy-OPLS-2005>
133.351989746094

> <r_mmod_Electrostatic_Energy-OPLS-2005>
-321.096923828125

> <r_mmod_Solvation_Energy-OPLS-2005>
-212.850311279297

> <b_mmod_Minimization_Converged-OPLS-2005>
0

> <r_mmod_RMS_Derivative-OPLS-2005>
5.85364866256714

$$$$
61
                    3D
 Structure written by MMmdl.
165173  0  0  1  0            999 V2000
  -30.6813  -14.4793   20.5651 C   0  0  0  0  0  0
  -30.4276  -12.3096   19.4176 C   0  0  0  0  0  0
  -29.4949  -12.5085   18.2042 C   0  0  0  0  0  0
  -28.0152  -12.3710   18.6163 C   0  0  0  0  0  0
  -27.6624  -13.2051   19.8772 C   0  0  2  0  0  0
  -28.7051  -12.9726   20.9941 C   0  0  0  0  0  0
  -25.2590  -13.8154   20.5690 C   0  0  0  0  0  0
  -24.1829  -13.0426   20.9135 C   0  0  0  0  0  0
  -24.6388  -11.6896   20.8706 C   0  0  0  0  0  0
  -23.9053  -10.4286   21.0388 C   0  0  0  0  0  0
  -24.3607   -9.4208   21.9174 C   0  0  0  0  0  0
  -23.6284   -8.2245   22.0752 C   0  0  0  0  0  0
  -22.4267   -8.0280   21.3542 C   0  0  0  0  0  0
  -21.9895   -9.0251   20.4646 C   0  0  0  0  0  0
  -22.7221  -10.2129   20.3046 C   0  0  0  0  0  0
  -21.6853   -6.0731   22.5277 C   0  0  0  0  0  0
  -21.4018   -6.5636   23.8211 C   0  0  0  0  0  0
  -21.3658   -5.6789   24.9172 C   0  0  0  0  0  0
  -21.6042   -4.3051   24.7224 C   0  0  0  0  0  0
  -21.8822   -3.8143   23.4347 C   0  0  0  0  0  0
  -21.9194   -4.6959   22.3401 C   0  0  0  0  0  0
  -22.7856  -13.5234   21.1818 C   0  0  0  0  0  0
  -22.1661   -4.2145   21.0978 F   0  0  0  0  0  0
  -21.5627   -3.4536   25.7737 F   0  0  0  0  0  0
  -30.0358  -13.2874   20.4444 N   0  0  0  0  0  0
  -26.3033  -12.9323   20.3390 N   0  0  0  0  0  0
  -25.9320  -11.6481   20.5760 N   0  0  0  0  0  0
  -22.0502  -12.8236   22.0387 N   0  0  0  0  0  0
  -25.4296  -15.1877   20.4201 N   0  0  0  0  0  0
  -31.8124  -14.6714   20.1089 O   0  0  0  0  0  0
  -21.6635   -6.8875   21.4240 O   0  0  0  0  0  0
  -22.3535  -14.5542   20.6675 O   0  0  0  0  0  0
  -24.6146  -31.8673   23.2097 C   0  0  0  0  0  0
  -25.9036  -32.4821   23.8391 C   0  0  1  0  0  0
  -27.2319  -27.4273   20.1035 C   0  0  0  0  0  0
  -25.5891  -33.8621   24.2318 N   0  0  0  0  0  0
  -23.4031  -30.4897   21.5499 C   0  0  2  0  0  0
  -24.8504  -28.9505   20.1189 C   0  0  0  0  0  0
  -22.7407  -29.4651   22.4988 C   0  0  0  0  0  0
  -18.0269  -28.1371   22.8489 C   0  0  0  0  0  0
  -24.1488  -36.7324   23.2636 C   0  0  0  0  0  0
  -25.9320  -30.8304   21.3638 C   0  0  0  0  0  0
  -26.0105  -29.4625   20.7148 C   0  0  0  0  0  0
  -27.2073  -28.7086   20.7021 C   0  0  0  0  0  0
  -26.0584  -26.9292   19.5027 C   0  0  0  0  0  0
  -24.8687  -27.6825   19.5113 C   0  0  0  0  0  0
  -23.6129  -29.8190   20.1659 C   0  0  0  0  0  0
  -25.4107  -36.3115   24.0333 C   0  0  1  0  0  0
  -20.5857  -28.3658   23.1317 C   0  0  2  0  0  0
  -20.6761  -26.9393   22.5414 C   0  0  0  0  0  0
  -19.5740  -26.6379   21.5209 C   0  0  0  0  0  0
  -18.1917  -26.7916   22.1620 C   0  0  0  0  0  0
  -19.1517  -28.8831   23.2901 C   0  0  0  0  0  0
  -18.9447  -30.1439   23.8909 C   0  0  0  0  0  0
  -17.6451  -30.6579   24.0561 C   0  0  0  0  0  0
  -25.9033  -34.9480   23.5125 C   0  0  0  0  0  0
  -16.5343  -29.9079   23.6327 C   0  0  0  0  0  0
  -16.7258  -28.6495   23.0347 C   0  0  0  0  0  0
  -26.4471  -31.6600   25.0716 C   0  0  0  0  0  0
  -25.3745  -31.3701   26.1470 C   0  0  0  0  0  0
  -27.0300  -30.3042   24.6092 C   0  0  0  0  0  0
  -27.6049  -32.4321   25.7472 C   0  0  0  0  0  0
  -27.5576  -37.1818   24.8461 C   0  0  0  0  0  0
  -21.4133  -29.3030   22.3731 N   0  0  0  0  0  0
  -26.4296  -37.3797   23.9398 N   0  0  0  0  0  0
  -24.6680  -31.0769   22.0998 N   0  0  0  0  0  0
  -23.4180  -28.8197   23.3034 O   0  0  0  0  0  0
  -28.3913  -26.6872   20.0591 O   0  0  0  0  0  0
  -26.5601  -34.8932   22.4692 O   0  0  0  0  0  0
  -23.5341  -32.1424   23.7495 O   0  0  0  0  0  0
  -31.3731  -18.9594   20.8290 C   0  0  0  0  0  0
  -31.3238  -17.5496   20.9120 C   0  0  0  0  0  0
  -28.9493  -19.0704   20.8758 C   0  0  0  0  0  0
  -30.1926  -19.7422   20.8065 C   0  0  0  0  0  0
  -30.0788  -16.8829   20.9750 C   0  0  0  0  0  0
  -28.8988  -17.6591   20.9610 C   0  0  0  0  0  0
  -30.3000  -21.2519   20.7818 C   0  0  0  0  0  0
  -28.2104  -24.1953   20.2171 C   0  0  0  0  0  0
  -31.1166  -22.8121   17.8859 C   0  0  0  0  0  0
  -29.9075  -24.9742   17.7777 C   0  0  0  0  0  0
  -28.6730  -22.8425   17.3383 C   0  0  0  0  0  0
  -28.4422  -25.5472   20.9377 C   0  0  0  0  0  0
  -29.4533  -23.3817   19.7468 C   0  0  2  0  0  0
  -29.7700  -23.4972   18.2097 C   0  0  0  0  0  0
  -29.9342  -15.4654   21.0993 N   0  0  0  0  0  0
  -29.3498  -21.9547   20.1375 N   0  0  0  0  0  0
  -31.2897  -21.7955   21.2758 O   0  0  0  0  0  0
  -27.0593  -23.7693   20.0770 O   0  0  0  0  0  0
  -27.6992  -17.0336   21.0320 F   0  0  0  0  0  0
  -31.4711  -12.4164   19.1151 H   0  0  0  0  0  0
  -30.3351  -11.2960   19.8106 H   0  0  0  0  0  0
  -29.7329  -11.7855   17.4231 H   0  0  0  0  0  0
  -29.6633  -13.4945   17.7680 H   0  0  0  0  0  0
  -27.8207  -11.3144   18.8048 H   0  0  0  0  0  0
  -27.3665  -12.6542   17.7866 H   0  0  0  0  0  0
  -27.7071  -14.2548   19.5859 H   0  0  0  0  0  0
  -28.6843  -11.9314   21.3196 H   0  0  0  0  0  0
  -28.4665  -13.5561   21.8844 H   0  0  0  0  0  0
  -25.2758   -9.5686   22.4741 H   0  0  0  0  0  0
  -23.9994   -7.4639   22.7473 H   0  0  0  0  0  0
  -21.0823   -8.8767   19.8956 H   0  0  0  0  0  0
  -22.3678  -10.9665   19.6152 H   0  0  0  0  0  0
  -21.2012   -7.6144   23.9713 H   0  0  0  0  0  0
  -21.1476   -6.0518   25.9075 H   0  0  0  0  0  0
  -22.0602   -2.7605   23.2847 H   0  0  0  0  0  0
  -22.4117  -11.9899   22.4776 H   0  0  0  0  0  0
  -21.1127  -13.1277   22.2605 H   0  0  0  0  0  0
  -24.6722  -15.8417   20.5799 H   0  0  0  0  0  0
  -26.3164  -15.6514   20.2566 H   0  0  0  0  0  0
  -26.7103  -32.5538   23.1153 H   0  0  0  0  0  0
  -25.0041  -33.9779   25.0462 H   0  0  0  0  0  0
  -22.6919  -31.3060   21.4094 H   0  0  0  0  0  0
  -23.3743  -35.9666   23.3325 H   0  0  0  0  0  0
  -24.3574  -36.8917   22.2044 H   0  0  0  0  0  0
  -23.7258  -37.6543   23.6641 H   0  0  0  0  0  0
  -26.0434  -31.5946   20.5936 H   0  0  0  0  0  0
  -26.8199  -30.8855   21.9820 H   0  0  0  0  0  0
  -28.1075  -29.1017   21.1534 H   0  0  0  0  0  0
  -26.0627  -25.9621   19.0204 H   0  0  0  0  0  0
  -23.9774  -27.2821   19.0479 H   0  0  0  0  0  0
  -23.7239  -30.5922   19.4048 H   0  0  0  0  0  0
  -22.7372  -29.2388   19.8695 H   0  0  0  0  0  0
  -25.1292  -36.1984   25.0828 H   0  0  0  0  0  0
  -20.9945  -28.3219   24.1439 H   0  0  0  0  0  0
  -20.5661  -26.2261   23.3599 H   0  0  0  0  0  0
  -21.6634  -26.7437   22.1209 H   0  0  0  0  0  0
  -19.6906  -25.6294   21.1229 H   0  0  0  0  0  0
  -19.6685  -27.3196   20.6747 H   0  0  0  0  0  0
  -17.4189  -26.6663   21.4021 H   0  0  0  0  0  0
  -18.0322  -26.0049   22.9011 H   0  0  0  0  0  0
  -19.7926  -30.7248   24.2281 H   0  0  0  0  0  0
  -17.5010  -31.6261   24.5157 H   0  0  0  0  0  0
  -15.5344  -30.2988   23.7644 H   0  0  0  0  0  0
  -15.8656  -28.0822   22.7057 H   0  0  0  0  0  0
  -24.5909  -30.7060   25.7802 H   0  0  0  0  0  0
  -24.8951  -32.2858   26.4942 H   0  0  0  0  0  0
  -25.8099  -30.8847   27.0213 H   0  0  0  0  0  0
  -26.2836  -29.6800   24.1164 H   0  0  0  0  0  0
  -27.4089  -29.7281   25.4543 H   0  0  0  0  0  0
  -27.8668  -30.4358   23.9226 H   0  0  0  0  0  0
  -27.2664  -33.3602   26.2092 H   0  0  0  0  0  0
  -28.3833  -32.6912   25.0281 H   0  0  0  0  0  0
  -28.0756  -31.8428   26.5353 H   0  0  0  0  0  0
  -28.2618  -38.0094   24.7495 H   0  0  0  0  0  0
  -28.1055  -36.2630   24.6317 H   0  0  0  0  0  0
  -27.2294  -37.1503   25.8865 H   0  0  0  0  0  0
  -20.9292  -29.8757   21.6960 H   0  0  0  0  0  0
  -26.0194  -38.2882   24.1392 H   0  0  0  0  0  0
  -32.3390  -19.4450   20.7929 H   0  0  0  0  0  0
  -32.2517  -16.9969   20.9444 H   0  0  0  0  0  0
  -28.0242  -19.6271   20.8843 H   0  0  0  0  0  0
  -31.4036  -22.9689   16.8455 H   0  0  0  0  0  0
  -31.0772  -21.7333   18.0381 H   0  0  0  0  0  0
  -31.9234  -23.2042   18.5061 H   0  0  0  0  0  0
  -28.9592  -25.5092   17.8310 H   0  0  0  0  0  0
  -30.2466  -25.0595   16.7447 H   0  0  0  0  0  0
  -30.6273  -25.5093   18.3983 H   0  0  0  0  0  0
  -28.9191  -22.9089   16.2775 H   0  0  0  0  0  0
  -27.7040  -23.3252   17.4690 H   0  0  0  0  0  0
  -28.5436  -21.7843   17.5671 H   0  0  0  0  0  0
  -29.4196  -25.5277   21.4191 H   0  0  0  0  0  0
  -27.7100  -25.6507   21.7393 H   0  0  0  0  0  0
  -30.3056  -23.8203   20.2671 H   0  0  0  0  0  0
  -29.0156  -15.1676   21.3916 H   0  0  0  0  0  0
  -28.5546  -21.4512   19.7741 H   0  0  0  0  0  0
  1 25  1  0  0  0
  1 30  2  0  0  0
  1 85  1  0  0  0
  2  3  1  0  0  0
  2 25  1  0  0  0
  2 90  1  0  0  0
  2 91  1  0  0  0
  3  4  1  0  0  0
  3 92  1  0  0  0
  3 93  1  0  0  0
  4  5  1  0  0  0
  4 94  1  0  0  0
  4 95  1  0  0  0
  5  6  1  0  0  0
  5 26  1  0  0  0
  5 96  1  0  0  0
  6 25  1  0  0  0
  6 97  1  0  0  0
  6 98  1  0  0  0
  7  8  2  0  0  0
  7 26  1  0  0  0
  7 29  1  0  0  0
  8  9  1  0  0  0
  8 22  1  0  0  0
  9 10  1  0  0  0
  9 27  2  0  0  0
 10 11  2  0  0  0
 10 15  1  0  0  0
 11 12  1  0  0  0
 11 99  1  0  0  0
 12 13  2  0  0  0
 12100  1  0  0  0
 13 14  1  0  0  0
 13 31  1  0  0  0
 14 15  2  0  0  0
 14101  1  0  0  0
 15102  1  0  0  0
 16 17  2  0  0  0
 16 21  1  0  0  0
 16 31  1  0  0  0
 17 18  1  0  0  0
 17103  1  0  0  0
 18 19  2  0  0  0
 18104  1  0  0  0
 19 20  1  0  0  0
 19 24  1  0  0  0
 20 21  2  0  0  0
 20105  1  0  0  0
 21 23  1  0  0  0
 22 28  1  0  0  0
 22 32  2  0  0  0
 26 27  1  0  0  0
 28106  1  0  0  0
 28107  1  0  0  0
 29108  1  0  0  0
 29109  1  0  0  0
 33 34  1  0  0  0
 33 66  1  0  0  0
 33 70  2  0  0  0
 34 36  1  0  0  0
 34 59  1  0  0  0
 34110  1  0  0  0
 35 44  2  0  0  0
 35 45  1  0  0  0
 35 68  1  0  0  0
 36 56  1  0  0  0
 36111  1  0  0  0
 37 39  1  0  0  0
 37 47  1  0  0  0
 37 66  1  0  0  0
 37112  1  0  0  0
 38 43  2  0  0  0
 38 46  1  0  0  0
 38 47  1  0  0  0
 39 64  1  0  0  0
 39 67  2  0  0  0
 40 52  1  0  0  0
 40 53  2  0  0  0
 40 58  1  0  0  0
 41113  1  0  0  0
 41114  1  0  0  0
 41115  1  0  0  0
 41 48  1  0  0  0
 42 43  1  0  0  0
 42 66  1  0  0  0
 42116  1  0  0  0
 42117  1  0  0  0
 43 44  1  0  0  0
 44118  1  0  0  0
 45 46  2  0  0  0
 45119  1  0  0  0
 46120  1  0  0  0
 47121  1  0  0  0
 47122  1  0  0  0
 48 56  1  0  0  0
 48 65  1  0  0  0
 48123  1  0  0  0
 49 50  1  0  0  0
 49 53  1  0  0  0
 49 64  1  0  0  0
 49124  1  0  0  0
 50 51  1  0  0  0
 50125  1  0  0  0
 50126  1  0  0  0
 51 52  1  0  0  0
 51127  1  0  0  0
 51128  1  0  0  0
 52129  1  0  0  0
 52130  1  0  0  0
 53 54  1  0  0  0
 54 55  2  0  0  0
 54131  1  0  0  0
 55 57  1  0  0  0
 55132  1  0  0  0
 56 69  2  0  0  0
 57 58  2  0  0  0
 57133  1  0  0  0
 58134  1  0  0  0
 59 60  1  0  0  0
 59 61  1  0  0  0
 59 62  1  0  0  0
 60135  1  0  0  0
 60136  1  0  0  0
 60137  1  0  0  0
 61138  1  0  0  0
 61139  1  0  0  0
 61140  1  0  0  0
 62141  1  0  0  0
 62142  1  0  0  0
 62143  1  0  0  0
 63 65  1  0  0  0
 63144  1  0  0  0
 63145  1  0  0  0
 63146  1  0  0  0
 64147  1  0  0  0
 65148  1  0  0  0
 68 82  1  0  0  0
 71 72  2  0  0  0
 71 74  1  0  0  0
 71149  1  0  0  0
 72 75  1  0  0  0
 72150  1  0  0  0
 73 74  2  0  0  0
 73 76  1  0  0  0
 73151  1  0  0  0
 74 77  1  0  0  0
 75 76  2  0  0  0
 75 85  1  0  0  0
 76 89  1  0  0  0
 77 86  1  0  0  0
 77 87  2  0  0  0
 78 82  1  0  0  0
 78 83  1  0  0  0
 78 88  2  0  0  0
 79152  1  0  0  0
 79153  1  0  0  0
 79154  1  0  0  0
 79 84  1  0  0  0
 80 84  1  0  0  0
 80155  1  0  0  0
 80156  1  0  0  0
 80157  1  0  0  0
 81 84  1  0  0  0
 81158  1  0  0  0
 81159  1  0  0  0
 81160  1  0  0  0
 82161  1  0  0  0
 82162  1  0  0  0
 83 84  1  0  0  0
 83 86  1  0  0  0
 83163  1  0  0  0
 85164  1  0  0  0
 86165  1  0  0  0
M  ISO  4   1 100  68 101  82 101  85 100
M  END
> <chiral flag>
0

> <version>
0

> <s_m_source_file>
/data/baiqing/PycharmProjects/Reinvent-master-3.2/result/LINK_invent/BTK/process_docking_weight1_custom_product_contain_oxygen_bond_distance_aromatic_linkinvent_7_9_3/rearranged_h_0076.sdf

> <i_m_source_file_index>
62

> <r_mmod_Potential_Energy-OPLS-2005>
-138.981063842773

> <r_mmod_Stretch_Energy-OPLS-2005>
43.0426368713379

> <r_mmod_Bend_Energy-OPLS-2005>
106.925117492676

> <r_mmod_Torsional_Energy-OPLS-2005>
255.531448364258

> <r_mmod_Improper_Torsional_Energy-OPLS-2005>
5.22440528869629

> <r_mmod_Van_der_Waal_Energy-OPLS-2005>
152.771102905273

> <r_mmod_Electrostatic_Energy-OPLS-2005>
-506.355346679688

> <r_mmod_Solvation_Energy-OPLS-2005>
-208.548141479492

> <b_mmod_Minimization_Converged-OPLS-2005>
0

> <r_mmod_RMS_Derivative-OPLS-2005>
0.82864111661911

$$$$
62
                    3D
 Structure written by MMmdl.
167176  0  0  1  0            999 V2000
  -30.6599  -14.7578   20.5101 C   0  0  0  0  0  0
  -30.4548  -12.4603   19.5602 C   0  0  0  0  0  0
  -29.5580  -12.4929   18.3004 C   0  0  0  0  0  0
  -28.0823  -12.3007   18.6899 C   0  0  0  0  0  0
  -27.6562  -13.2329   19.8570 C   0  0  2  0  0  0
  -28.6771  -13.2441   21.0214 C   0  0  0  0  0  0
  -25.2606  -13.8222   20.5597 C   0  0  0  0  0  0
  -24.1854  -13.0457   20.9135 C   0  0  0  0  0  0
  -24.6455  -11.6941   20.8740 C   0  0  0  0  0  0
  -23.9123  -10.4301   21.0394 C   0  0  0  0  0  0
  -24.3658   -9.4234   21.9180 C   0  0  0  0  0  0
  -23.6292   -8.2286   22.0766 C   0  0  0  0  0  0
  -22.4282   -8.0307   21.3549 C   0  0  0  0  0  0
  -21.9917   -9.0303   20.4679 C   0  0  0  0  0  0
  -22.7273  -10.2180   20.3061 C   0  0  0  0  0  0
  -21.6860   -6.0751   22.5287 C   0  0  0  0  0  0
  -21.4028   -6.5651   23.8215 C   0  0  0  0  0  0
  -21.3655   -5.6793   24.9170 C   0  0  0  0  0  0
  -21.6013   -4.3049   24.7232 C   0  0  0  0  0  0
  -21.8833   -3.8153   23.4359 C   0  0  0  0  0  0
  -21.9202   -4.6971   22.3410 C   0  0  0  0  0  0
  -22.7892  -13.5297   21.1765 C   0  0  0  0  0  0
  -22.1652   -4.2176   21.0972 F   0  0  0  0  0  0
  -21.5626   -3.4522   25.7722 F   0  0  0  0  0  0
  -30.0054  -13.5460   20.4705 N   0  0  0  0  0  0
  -26.3019  -12.9399   20.3199 N   0  0  0  0  0  0
  -25.9398  -11.6571   20.5754 N   0  0  0  0  0  0
  -22.0523  -12.8307   22.0365 N   0  0  0  0  0  0
  -25.4298  -15.1922   20.4084 N   0  0  0  0  0  0
  -31.8163  -14.8385   20.0930 O   0  0  0  0  0  0
  -21.6624   -6.8916   21.4245 O   0  0  0  0  0  0
  -22.3566  -14.5546   20.6557 O   0  0  0  0  0  0
  -24.6189  -31.8634   23.2198 C   0  0  0  0  0  0
  -25.9092  -32.4768   23.8467 C   0  0  1  0  0  0
  -27.2002  -27.3024   20.1057 C   0  0  0  0  0  0
  -25.5970  -33.8596   24.2402 N   0  0  0  0  0  0
  -23.4239  -30.5034   21.5457 C   0  0  2  0  0  0
  -24.8740  -28.9659   20.1255 C   0  0  0  0  0  0
  -22.7463  -29.4726   22.4822 C   0  0  0  0  0  0
  -18.0316  -28.1388   22.8473 C   0  0  0  0  0  0
  -24.1522  -36.7269   23.2637 C   0  0  0  0  0  0
  -25.9721  -30.7804   21.4232 C   0  0  0  0  0  0
  -26.0424  -29.4097   20.7524 C   0  0  0  0  0  0
  -27.1962  -28.5669   20.7752 C   0  0  0  0  0  0
  -26.0234  -26.9737   19.3894 C   0  0  0  0  0  0
  -24.8530  -27.7376   19.4665 C   0  0  0  0  0  0
  -23.6564  -29.8599   20.1607 C   0  0  0  0  0  0
  -25.4123  -36.3036   24.0326 C   0  0  1  0  0  0
  -20.5917  -28.3738   23.1222 C   0  0  2  0  0  0
  -20.6807  -26.9431   22.5392 C   0  0  0  0  0  0
  -19.5766  -26.6380   21.5214 C   0  0  0  0  0  0
  -18.1949  -26.7935   22.1629 C   0  0  0  0  0  0
  -19.1560  -28.8867   23.2875 C   0  0  0  0  0  0
  -18.9478  -30.1461   23.8905 C   0  0  0  0  0  0
  -17.6488  -30.6577   24.0587 C   0  0  0  0  0  0
  -25.9020  -34.9416   23.5124 C   0  0  0  0  0  0
  -16.5384  -29.9063   23.6317 C   0  0  0  0  0  0
  -16.7315  -28.6503   23.0307 C   0  0  0  0  0  0
  -26.4525  -31.6557   25.0829 C   0  0  0  0  0  0
  -25.3833  -31.3796   26.1638 C   0  0  0  0  0  0
  -27.0384  -30.2903   24.6417 C   0  0  0  0  0  0
  -27.6047  -32.4345   25.7591 C   0  0  0  0  0  0
  -27.5574  -37.1793   24.8438 C   0  0  0  0  0  0
  -21.4170  -29.3117   22.3554 N   0  0  0  0  0  0
  -26.4297  -37.3715   23.9384 N   0  0  0  0  0  0
  -24.6858  -31.0672   22.1174 N   0  0  0  0  0  0
  -23.4183  -28.8207   23.2877 O   0  0  0  0  0  0
  -28.2841  -26.4061   20.1837 O   0  0  0  0  0  0
  -26.5483  -34.8840   22.4624 O   0  0  0  0  0  0
  -23.5332  -32.1449   23.7469 O   0  0  0  0  0  0
  -29.7238  -19.6402   18.6680 C   0  0  0  0  0  0
  -29.8135  -18.5313   20.8369 C   0  0  0  0  0  0
  -29.9837  -17.2074   18.7959 C   0  0  0  0  0  0
  -29.7316  -19.7714   20.0724 C   0  0  0  0  0  0
  -29.8466  -18.3862   18.0375 C   0  0  0  0  0  0
  -29.9528  -17.2209   20.2122 C   0  0  0  0  0  0
  -26.9235  -24.2384   25.0240 C   0  0  0  0  0  0
  -27.9367  -24.4755   24.1642 C   0  0  0  0  0  0
  -27.6993  -24.4426   22.7243 C   0  0  0  0  0  0
  -29.5356  -21.5296   22.1136 C   0  0  0  0  0  0
  -29.1207  -22.4320   19.7631 C   0  0  0  0  0  0
  -29.7866  -23.0282   22.4352 C   0  0  0  0  0  0
  -29.7864  -21.2663   20.6213 C   0  0  2  0  0  0
  -28.4099  -23.6776   20.4884 C   0  0  2  0  0  0
  -28.1929  -25.0184   19.6313 C   0  0  0  0  0  0
  -28.6703  -23.8647   21.9406 N   0  0  0  0  0  0
  -29.8484  -18.3148   16.6435 N   0  0  0  0  0  0
  -29.9870  -15.9067   20.9013 N   0  0  0  0  0  0
  -26.6537  -24.8832   22.2395 O   0  0  0  0  0  0
  -31.5111  -12.5562   19.2871 H   0  0  0  0  0  0
  -30.3726  -11.5090   20.0906 H   0  0  0  0  0  0
  -29.8723  -11.7097   17.6062 H   0  0  0  0  0  0
  -29.6886  -13.4439   17.7888 H   0  0  0  0  0  0
  -27.9643  -11.2550   18.9732 H   0  0  0  0  0  0
  -27.4418  -12.4610   17.8242 H   0  0  0  0  0  0
  -27.6394  -14.2341   19.4273 H   0  0  0  0  0  0
  -28.7015  -12.2937   21.5549 H   0  0  0  0  0  0
  -28.3889  -14.0015   21.7540 H   0  0  0  0  0  0
  -25.2859   -9.5621   22.4730 H   0  0  0  0  0  0
  -23.9980   -7.4658   22.7477 H   0  0  0  0  0  0
  -21.0875   -8.8883   19.9003 H   0  0  0  0  0  0
  -22.3791  -10.9719   19.6151 H   0  0  0  0  0  0
  -21.2025   -7.6158   23.9744 H   0  0  0  0  0  0
  -21.1424   -6.0505   25.9082 H   0  0  0  0  0  0
  -22.0610   -2.7623   23.2845 H   0  0  0  0  0  0
  -22.4130  -12.0030   22.4843 H   0  0  0  0  0  0
  -21.1154  -13.1406   22.2575 H   0  0  0  0  0  0
  -24.6551  -15.8426   20.4859 H   0  0  0  0  0  0
  -26.2926  -15.6414   20.1209 H   0  0  0  0  0  0
  -26.7184  -32.5499   23.1243 H   0  0  0  0  0  0
  -25.0363  -33.9811   25.0701 H   0  0  0  0  0  0
  -22.7173  -31.3197   21.3900 H   0  0  0  0  0  0
  -23.3744  -35.9636   23.3260 H   0  0  0  0  0  0
  -24.3665  -36.8902   22.2058 H   0  0  0  0  0  0
  -23.7305  -37.6480   23.6678 H   0  0  0  0  0  0
  -26.1324  -31.5643   20.6823 H   0  0  0  0  0  0
  -26.8339  -30.8061   22.0784 H   0  0  0  0  0  0
  -28.0695  -28.8485   21.3475 H   0  0  0  0  0  0
  -25.9409  -26.1365   18.7279 H   0  0  0  0  0  0
  -23.9452  -27.4018   18.9840 H   0  0  0  0  0  0
  -23.8212  -30.6309   19.4034 H   0  0  0  0  0  0
  -22.7733  -29.3042   19.8467 H   0  0  0  0  0  0
  -25.1298  -36.1878   25.0805 H   0  0  0  0  0  0
  -21.0084  -28.3343   24.1322 H   0  0  0  0  0  0
  -20.5678  -26.2343   23.3602 H   0  0  0  0  0  0
  -21.6666  -26.7403   22.1203 H   0  0  0  0  0  0
  -19.6905  -25.6278   21.1239 H   0  0  0  0  0  0
  -19.6706  -27.3186   20.6743 H   0  0  0  0  0  0
  -17.4205  -26.6675   21.4043 H   0  0  0  0  0  0
  -18.0357  -26.0081   22.9034 H   0  0  0  0  0  0
  -19.7964  -30.7275   24.2242 H   0  0  0  0  0  0
  -17.5042  -31.6254   24.5174 H   0  0  0  0  0  0
  -15.5368  -30.2971   23.7642 H   0  0  0  0  0  0
  -15.8730  -28.0864   22.6941 H   0  0  0  0  0  0
  -24.5915  -30.7190   25.8094 H   0  0  0  0  0  0
  -24.9181  -32.3033   26.5064 H   0  0  0  0  0  0
  -25.8238  -30.9008   27.0391 H   0  0  0  0  0  0
  -26.3054  -29.6628   24.1316 H   0  0  0  0  0  0
  -27.3811  -29.7185   25.5047 H   0  0  0  0  0  0
  -27.9041  -30.4036   23.9900 H   0  0  0  0  0  0
  -27.2553  -33.3568   26.2236 H   0  0  0  0  0  0
  -28.3828  -32.7019   25.0454 H   0  0  0  0  0  0
  -28.0753  -31.8464   26.5475 H   0  0  0  0  0  0
  -28.2520  -38.0145   24.7431 H   0  0  0  0  0  0
  -28.1136  -36.2632   24.6306 H   0  0  0  0  0  0
  -27.2297  -37.1492   25.8853 H   0  0  0  0  0  0
  -20.9200  -29.8971   21.6955 H   0  0  0  0  0  0
  -26.0130  -38.2767   24.1402 H   0  0  0  0  0  0
  -29.6598  -20.5295   18.0526 H   0  0  0  0  0  0
  -29.8055  -18.6025   21.9188 H   0  0  0  0  0  0
  -30.0763  -16.2666   18.2736 H   0  0  0  0  0  0
  -27.0883  -24.2704   26.0892 H   0  0  0  0  0  0
  -25.9206  -23.9993   24.6912 H   0  0  0  0  0  0
  -28.9109  -24.7083   24.5676 H   0  0  0  0  0  0
  -28.5312  -21.2401   22.4134 H   0  0  0  0  0  0
  -30.2268  -20.9225   22.6964 H   0  0  0  0  0  0
  -28.3708  -21.9888   19.0981 H   0  0  0  0  0  0
  -29.8836  -22.8035   19.0820 H   0  0  0  0  0  0
  -30.7191  -23.3799   21.9835 H   0  0  0  0  0  0
  -29.9465  -23.1054   23.5069 H   0  0  0  0  0  0
  -30.8531  -21.4834   20.5313 H   0  0  0  0  0  0
  -27.4036  -23.2471   20.5383 H   0  0  0  0  0  0
  -27.2112  -24.7862   19.2288 H   0  0  0  0  0  0
  -28.8316  -25.0025   18.7426 H   0  0  0  0  0  0
  -29.9209  -19.1522   16.0703 H   0  0  0  0  0  0
  -30.1365  -17.4673   16.1652 H   0  0  0  0  0  0
  -29.2545  -15.7667   21.5777 H   0  0  0  0  0  0
  1 25  1  0  0  0
  1 30  2  0  0  0
  1 88  1  0  0  0
  2  3  1  0  0  0
  2 25  1  0  0  0
  2 90  1  0  0  0
  2 91  1  0  0  0
  3  4  1  0  0  0
  3 92  1  0  0  0
  3 93  1  0  0  0
  4  5  1  0  0  0
  4 94  1  0  0  0
  4 95  1  0  0  0
  5  6  1  0  0  0
  5 26  1  0  0  0
  5 96  1  0  0  0
  6 25  1  0  0  0
  6 97  1  0  0  0
  6 98  1  0  0  0
  7  8  2  0  0  0
  7 26  1  0  0  0
  7 29  1  0  0  0
  8  9  1  0  0  0
  8 22  1  0  0  0
  9 10  1  0  0  0
  9 27  2  0  0  0
 10 11  2  0  0  0
 10 15  1  0  0  0
 11 12  1  0  0  0
 11 99  1  0  0  0
 12 13  2  0  0  0
 12100  1  0  0  0
 13 14  1  0  0  0
 13 31  1  0  0  0
 14 15  2  0  0  0
 14101  1  0  0  0
 15102  1  0  0  0
 16 17  2  0  0  0
 16 21  1  0  0  0
 16 31  1  0  0  0
 17 18  1  0  0  0
 17103  1  0  0  0
 18 19  2  0  0  0
 18104  1  0  0  0
 19 20  1  0  0  0
 19 24  1  0  0  0
 20 21  2  0  0  0
 20105  1  0  0  0
 21 23  1  0  0  0
 22 28  1  0  0  0
 22 32  2  0  0  0
 26 27  1  0  0  0
 28106  1  0  0  0
 28107  1  0  0  0
 29108  1  0  0  0
 29109  1  0  0  0
 33 34  1  0  0  0
 33 66  1  0  0  0
 33 70  2  0  0  0
 34 36  1  0  0  0
 34 59  1  0  0  0
 34110  1  0  0  0
 35 44  2  0  0  0
 35 45  1  0  0  0
 35 68  1  0  0  0
 36 56  1  0  0  0
 36111  1  0  0  0
 37 39  1  0  0  0
 37 47  1  0  0  0
 37 66  1  0  0  0
 37112  1  0  0  0
 38 43  2  0  0  0
 38 46  1  0  0  0
 38 47  1  0  0  0
 39 64  1  0  0  0
 39 67  2  0  0  0
 40 52  1  0  0  0
 40 53  2  0  0  0
 40 58  1  0  0  0
 41113  1  0  0  0
 41114  1  0  0  0
 41115  1  0  0  0
 41 48  1  0  0  0
 42 43  1  0  0  0
 42 66  1  0  0  0
 42116  1  0  0  0
 42117  1  0  0  0
 43 44  1  0  0  0
 44118  1  0  0  0
 45 46  2  0  0  0
 45119  1  0  0  0
 46120  1  0  0  0
 47121  1  0  0  0
 47122  1  0  0  0
 48 56  1  0  0  0
 48 65  1  0  0  0
 48123  1  0  0  0
 49 50  1  0  0  0
 49 53  1  0  0  0
 49 64  1  0  0  0
 49124  1  0  0  0
 50 51  1  0  0  0
 50125  1  0  0  0
 50126  1  0  0  0
 51 52  1  0  0  0
 51127  1  0  0  0
 51128  1  0  0  0
 52129  1  0  0  0
 52130  1  0  0  0
 53 54  1  0  0  0
 54 55  2  0  0  0
 54131  1  0  0  0
 55 57  1  0  0  0
 55132  1  0  0  0
 56 69  2  0  0  0
 57 58  2  0  0  0
 57133  1  0  0  0
 58134  1  0  0  0
 59 60  1  0  0  0
 59 61  1  0  0  0
 59 62  1  0  0  0
 60135  1  0  0  0
 60136  1  0  0  0
 60137  1  0  0  0
 61138  1  0  0  0
 61139  1  0  0  0
 61140  1  0  0  0
 62141  1  0  0  0
 62142  1  0  0  0
 62143  1  0  0  0
 63 65  1  0  0  0
 63144  1  0  0  0
 63145  1  0  0  0
 63146  1  0  0  0
 64147  1  0  0  0
 65148  1  0  0  0
 68 85  1  0  0  0
 71 74  2  0  0  0
 71 75  1  0  0  0
 71149  1  0  0  0
 72 74  1  0  0  0
 72 76  2  0  0  0
 72150  1  0  0  0
 73 75  2  0  0  0
 73 76  1  0  0  0
 73151  1  0  0  0
 74 83  1  0  0  0
 75 87  1  0  0  0
 76 88  1  0  0  0
 77 78  2  0  0  0
 77152  1  0  0  0
 77153  1  0  0  0
 78 79  1  0  0  0
 78154  1  0  0  0
 79 86  1  0  0  0
 79 89  2  0  0  0
 80 82  1  0  0  0
 80 83  1  0  0  0
 80155  1  0  0  0
 80156  1  0  0  0
 81 83  1  0  0  0
 81 84  1  0  0  0
 81157  1  0  0  0
 81158  1  0  0  0
 82 86  1  0  0  0
 82159  1  0  0  0
 82160  1  0  0  0
 83161  1  0  0  0
 84 85  1  0  0  0
 84 86  1  0  0  0
 84162  1  0  0  0
 85163  1  0  0  0
 85164  1  0  0  0
 87165  1  0  0  0
 87166  1  0  0  0
 88167  1  0  0  0
M  ISO  4   1 100  68 101  85 101  88 100
M  END
> <chiral flag>
0

> <version>
0

> <s_m_source_file>
/data/baiqing/PycharmProjects/Reinvent-master-3.2/result/LINK_invent/BTK/process_docking_weight1_custom_product_contain_oxygen_bond_distance_aromatic_linkinvent_7_9_3/rearranged_h_0076.sdf

> <i_m_source_file_index>
63

> <r_mmod_Potential_Energy-OPLS-2005>
356.704284667969

> <r_mmod_Stretch_Energy-OPLS-2005>
116.542831420898

> <r_mmod_Bend_Energy-OPLS-2005>
217.746871948242

> <r_mmod_Torsional_Energy-OPLS-2005>
359.226196289062

> <r_mmod_Improper_Torsional_Energy-OPLS-2005>
6.67026042938232

> <r_mmod_Van_der_Waal_Energy-OPLS-2005>
171.358627319336

> <r_mmod_Electrostatic_Energy-OPLS-2005>
-362.393371582031

> <r_mmod_Solvation_Energy-OPLS-2005>
-243.577743530273

> <b_mmod_Minimization_Converged-OPLS-2005>
0

> <r_mmod_RMS_Derivative-OPLS-2005>
9.84715270996094

$$$$
63
                    3D
 Structure written by MMmdl.
167176  0  0  1  0            999 V2000
  -30.6882  -14.4617   20.4975 C   0  0  0  0  0  0
  -30.4302  -12.2734   19.4297 C   0  0  0  0  0  0
  -29.5020  -12.4645   18.2110 C   0  0  0  0  0  0
  -28.0214  -12.3368   18.6233 C   0  0  0  0  0  0
  -27.6617  -13.1950   19.8636 C   0  0  2  0  0  0
  -28.7037  -12.9919   20.9892 C   0  0  0  0  0  0
  -25.2592  -13.8140   20.5626 C   0  0  0  0  0  0
  -24.1840  -13.0424   20.9161 C   0  0  0  0  0  0
  -24.6392  -11.6884   20.8722 C   0  0  0  0  0  0
  -23.9037  -10.4275   21.0386 C   0  0  0  0  0  0
  -24.3584   -9.4203   21.9169 C   0  0  0  0  0  0
  -23.6263   -8.2237   22.0763 C   0  0  0  0  0  0
  -22.4257   -8.0267   21.3530 C   0  0  0  0  0  0
  -21.9883   -9.0248   20.4643 C   0  0  0  0  0  0
  -22.7202  -10.2127   20.3034 C   0  0  0  0  0  0
  -21.6855   -6.0703   22.5263 C   0  0  0  0  0  0
  -21.4024   -6.5618   23.8194 C   0  0  0  0  0  0
  -21.3664   -5.6781   24.9164 C   0  0  0  0  0  0
  -21.6044   -4.3039   24.7228 C   0  0  0  0  0  0
  -21.8827   -3.8120   23.4353 C   0  0  0  0  0  0
  -21.9198   -4.6926   22.3404 C   0  0  0  0  0  0
  -22.7857  -13.5227   21.1849 C   0  0  0  0  0  0
  -22.1659   -4.2117   21.0976 F   0  0  0  0  0  0
  -21.5631   -3.4518   25.7735 F   0  0  0  0  0  0
  -30.0403  -13.2693   20.4352 N   0  0  0  0  0  0
  -26.3015  -12.9289   20.3287 N   0  0  0  0  0  0
  -25.9311  -11.6460   20.5723 N   0  0  0  0  0  0
  -22.0489  -12.8224   22.0403 N   0  0  0  0  0  0
  -25.4356  -15.1854   20.4050 N   0  0  0  0  0  0
  -31.8668  -14.6080   20.1697 O   0  0  0  0  0  0
  -21.6647   -6.8837   21.4209 O   0  0  0  0  0  0
  -22.3528  -14.5518   20.6698 O   0  0  0  0  0  0
  -24.6094  -31.8710   23.2129 C   0  0  0  0  0  0
  -25.9015  -32.4827   23.8397 C   0  0  1  0  0  0
  -27.2364  -27.4778   20.0828 C   0  0  0  0  0  0
  -25.5903  -33.8620   24.2339 N   0  0  0  0  0  0
  -23.3929  -30.4933   21.5549 C   0  0  2  0  0  0
  -24.8399  -28.9598   20.1206 C   0  0  0  0  0  0
  -22.7375  -29.4668   22.5033 C   0  0  0  0  0  0
  -18.0265  -28.1384   22.8503 C   0  0  0  0  0  0
  -24.1510  -36.7324   23.2631 C   0  0  0  0  0  0
  -25.9152  -30.8496   21.3549 C   0  0  0  0  0  0
  -25.9969  -29.4845   20.7100 C   0  0  0  0  0  0
  -27.1999  -28.7506   20.6865 C   0  0  0  0  0  0
  -26.0663  -26.9546   19.4936 C   0  0  0  0  0  0
  -24.8658  -27.6905   19.5157 C   0  0  0  0  0  0
  -23.5975  -29.8206   20.1713 C   0  0  0  0  0  0
  -25.4118  -36.3094   24.0328 C   0  0  1  0  0  0
  -20.5847  -28.3654   23.1347 C   0  0  2  0  0  0
  -20.6759  -26.9393   22.5425 C   0  0  0  0  0  0
  -19.5745  -26.6394   21.5220 C   0  0  0  0  0  0
  -18.1925  -26.7930   22.1628 C   0  0  0  0  0  0
  -19.1510  -28.8837   23.2918 C   0  0  0  0  0  0
  -18.9430  -30.1455   23.8913 C   0  0  0  0  0  0
  -17.6426  -30.6582   24.0567 C   0  0  0  0  0  0
  -25.9037  -34.9467   23.5124 C   0  0  0  0  0  0
  -16.5324  -29.9081   23.6327 C   0  0  0  0  0  0
  -16.7252  -28.6504   23.0335 C   0  0  0  0  0  0
  -26.4473  -31.6571   25.0692 C   0  0  0  0  0  0
  -25.3774  -31.3647   26.1461 C   0  0  0  0  0  0
  -27.0290  -30.3026   24.6004 C   0  0  0  0  0  0
  -27.6066  -32.4268   25.7450 C   0  0  0  0  0  0
  -27.5571  -37.1811   24.8456 C   0  0  0  0  0  0
  -21.4103  -29.3025   22.3759 N   0  0  0  0  0  0
  -26.4296  -37.3770   23.9399 N   0  0  0  0  0  0
  -24.6581  -31.0858   22.1007 N   0  0  0  0  0  0
  -23.4165  -28.8221   23.3047 O   0  0  0  0  0  0
  -28.4183  -26.7859   20.0339 O   0  0  0  0  0  0
  -26.5580  -34.8911   22.4672 O   0  0  0  0  0  0
  -23.5312  -32.1421   23.7576 O   0  0  0  0  0  0
  -29.0854  -19.1256   20.4150 C   0  0  0  0  0  0
  -29.1756  -17.8120   20.9229 C   0  0  0  0  0  0
  -30.5566  -18.5082   18.5827 C   0  0  0  0  0  0
  -29.7882  -19.4938   19.2453 C   0  0  0  0  0  0
  -29.9350  -16.8226   20.2598 C   0  0  0  0  0  0
  -30.6076  -17.1835   19.0576 C   0  0  0  0  0  0
  -30.0729  -22.2074   20.6099 C   0  0  0  0  0  0
  -29.6102  -20.8250   18.6292 C   0  0  0  0  0  0
  -29.6941  -23.4696   21.3735 C   0  0  0  0  0  0
  -29.9119  -24.4421   19.0541 C   0  0  0  0  0  0
  -29.0851  -23.2226   18.6525 C   0  0  0  0  0  0
  -29.7372  -24.7859   20.5409 C   0  0  2  0  0  0
  -30.9199  -25.6811   20.9872 C   0  0  0  0  0  0
  -28.4236  -25.5728   20.7787 C   0  0  0  0  0  0
  -29.6335  -22.0181   19.3169 N   0  0  0  0  0  0
  -29.8933  -15.5010   20.7956 N   0  0  0  0  0  0
  -30.8557  -21.3578   21.3224 N   0  3  0  0  0  0
  -29.3610  -20.7997   17.3081 N   0  3  0  0  0  0
  -31.2509  -16.2722   18.2936 F   0  0  0  0  0  0
  -31.4758  -12.3661   19.1310 H   0  0  0  0  0  0
  -30.3204  -11.2677   19.8421 H   0  0  0  0  0  0
  -29.7398  -11.7233   17.4466 H   0  0  0  0  0  0
  -29.6755  -13.4390   17.7509 H   0  0  0  0  0  0
  -27.8350  -11.2837   18.8388 H   0  0  0  0  0  0
  -27.3732  -12.5899   17.7833 H   0  0  0  0  0  0
  -27.7023  -14.2362   19.5465 H   0  0  0  0  0  0
  -28.6711  -11.9681   21.3625 H   0  0  0  0  0  0
  -28.4809  -13.6196   21.8518 H   0  0  0  0  0  0
  -25.2739   -9.5679   22.4729 H   0  0  0  0  0  0
  -23.9983   -7.4623   22.7487 H   0  0  0  0  0  0
  -21.0819   -8.8749   19.8965 H   0  0  0  0  0  0
  -22.3642  -10.9661   19.6144 H   0  0  0  0  0  0
  -21.2025   -7.6129   23.9679 H   0  0  0  0  0  0
  -21.1480   -6.0515   25.9059 H   0  0  0  0  0  0
  -22.0607   -2.7578   23.2866 H   0  0  0  0  0  0
  -22.4137  -11.9901   22.4800 H   0  0  0  0  0  0
  -21.1099  -13.1251   22.2595 H   0  0  0  0  0  0
  -24.6693  -15.8421   20.5125 H   0  0  0  0  0  0
  -26.2744  -15.6203   20.0451 H   0  0  0  0  0  0
  -26.7082  -32.5568   23.1160 H   0  0  0  0  0  0
  -25.0084  -33.9810   25.0500 H   0  0  0  0  0  0
  -22.6793  -31.3079   21.4182 H   0  0  0  0  0  0
  -23.3745  -35.9678   23.3287 H   0  0  0  0  0  0
  -24.3602  -36.8949   22.2042 H   0  0  0  0  0  0
  -23.7302  -37.6544   23.6661 H   0  0  0  0  0  0
  -26.0086  -31.6108   20.5798 H   0  0  0  0  0  0
  -26.8102  -30.9152   21.9632 H   0  0  0  0  0  0
  -28.0995  -29.1566   21.1271 H   0  0  0  0  0  0
  -26.0828  -25.9924   19.0040 H   0  0  0  0  0  0
  -23.9705  -27.2807   19.0685 H   0  0  0  0  0  0
  -23.6988  -30.5912   19.4070 H   0  0  0  0  0  0
  -22.7258  -29.2314   19.8815 H   0  0  0  0  0  0
  -25.1297  -36.1939   25.0814 H   0  0  0  0  0  0
  -20.9935  -28.3229   24.1470 H   0  0  0  0  0  0
  -20.5699  -26.2251   23.3608 H   0  0  0  0  0  0
  -21.6635  -26.7473   22.1206 H   0  0  0  0  0  0
  -19.6909  -25.6318   21.1234 H   0  0  0  0  0  0
  -19.6696  -27.3226   20.6779 H   0  0  0  0  0  0
  -17.4195  -26.6686   21.4025 H   0  0  0  0  0  0
  -18.0314  -26.0062   22.9017 H   0  0  0  0  0  0
  -19.7911  -30.7280   24.2276 H   0  0  0  0  0  0
  -17.4983  -31.6274   24.5168 H   0  0  0  0  0  0
  -15.5330  -30.2977   23.7665 H   0  0  0  0  0  0
  -15.8656  -28.0849   22.7002 H   0  0  0  0  0  0
  -24.5936  -30.7010   25.7779 H   0  0  0  0  0  0
  -24.8995  -32.2804   26.4960 H   0  0  0  0  0  0
  -25.8154  -30.8767   27.0176 H   0  0  0  0  0  0
  -26.2798  -29.6786   24.1115 H   0  0  0  0  0  0
  -27.4147  -29.7246   25.4408 H   0  0  0  0  0  0
  -27.8589  -30.4353   23.9056 H   0  0  0  0  0  0
  -27.2685  -33.3523   26.2115 H   0  0  0  0  0  0
  -28.3827  -32.6886   25.0246 H   0  0  0  0  0  0
  -28.0784  -31.8339   26.5298 H   0  0  0  0  0  0
  -28.2584  -38.0106   24.7460 H   0  0  0  0  0  0
  -28.1077  -36.2630   24.6332 H   0  0  0  0  0  0
  -27.2290  -37.1507   25.8860 H   0  0  0  0  0  0
  -20.9262  -29.8713   21.6951 H   0  0  0  0  0  0
  -26.0182  -38.2848   24.1387 H   0  0  0  0  0  0
  -28.4584  -19.8408   20.9293 H   0  0  0  0  0  0
  -28.6312  -17.5652   21.8215 H   0  0  0  0  0  0
  -31.0738  -18.7401   17.6605 H   0  0  0  0  0  0
  -30.3046  -23.5757   22.2723 H   0  0  0  0  0  0
  -28.6829  -23.2948   21.7516 H   0  0  0  0  0  0
  -29.6617  -25.2900   18.4155 H   0  0  0  0  0  0
  -30.9617  -24.2275   18.8470 H   0  0  0  0  0  0
  -29.1019  -23.1564   17.5648 H   0  0  0  0  0  0
  -28.0393  -23.3461   18.9302 H   0  0  0  0  0  0
  -31.8772  -25.1731   20.8692 H   0  0  0  0  0  0
  -30.8305  -25.9770   22.0335 H   0  0  0  0  0  0
  -30.9722  -26.5986   20.3990 H   0  0  0  0  0  0
  -28.3236  -25.8238   21.8365 H   0  0  0  0  0  0
  -27.5597  -24.9576   20.5229 H   0  0  0  0  0  0
  -29.0344  -15.2531   21.2571 H   0  0  0  0  0  0
  -31.1246  -21.5965   22.2720 H   0  0  0  0  0  0
  -31.2740  -20.5126   20.9562 H   0  0  0  0  0  0
  -29.2290  -19.9151   16.8455 H   0  0  0  0  0  0
  -29.3408  -21.6391   16.7515 H   0  0  0  0  0  0
  1 25  1  0  0  0
  1 30  2  0  0  0
  1 86  1  0  0  0
  2  3  1  0  0  0
  2 25  1  0  0  0
  2 90  1  0  0  0
  2 91  1  0  0  0
  3  4  1  0  0  0
  3 92  1  0  0  0
  3 93  1  0  0  0
  4  5  1  0  0  0
  4 94  1  0  0  0
  4 95  1  0  0  0
  5  6  1  0  0  0
  5 26  1  0  0  0
  5 96  1  0  0  0
  6 25  1  0  0  0
  6 97  1  0  0  0
  6 98  1  0  0  0
  7  8  2  0  0  0
  7 26  1  0  0  0
  7 29  1  0  0  0
  8  9  1  0  0  0
  8 22  1  0  0  0
  9 10  1  0  0  0
  9 27  2  0  0  0
 10 11  2  0  0  0
 10 15  1  0  0  0
 11 12  1  0  0  0
 11 99  1  0  0  0
 12 13  2  0  0  0
 12100  1  0  0  0
 13 14  1  0  0  0
 13 31  1  0  0  0
 14 15  2  0  0  0
 14101  1  0  0  0
 15102  1  0  0  0
 16 17  2  0  0  0
 16 21  1  0  0  0
 16 31  1  0  0  0
 17 18  1  0  0  0
 17103  1  0  0  0
 18 19  2  0  0  0
 18104  1  0  0  0
 19 20  1  0  0  0
 19 24  1  0  0  0
 20 21  2  0  0  0
 20105  1  0  0  0
 21 23  1  0  0  0
 22 28  1  0  0  0
 22 32  2  0  0  0
 26 27  1  0  0  0
 28106  1  0  0  0
 28107  1  0  0  0
 29108  1  0  0  0
 29109  1  0  0  0
 33 34  1  0  0  0
 33 66  1  0  0  0
 33 70  2  0  0  0
 34 36  1  0  0  0
 34 59  1  0  0  0
 34110  1  0  0  0
 35 44  2  0  0  0
 35 45  1  0  0  0
 35 68  1  0  0  0
 36 56  1  0  0  0
 36111  1  0  0  0
 37 39  1  0  0  0
 37 47  1  0  0  0
 37 66  1  0  0  0
 37112  1  0  0  0
 38 43  2  0  0  0
 38 46  1  0  0  0
 38 47  1  0  0  0
 39 64  1  0  0  0
 39 67  2  0  0  0
 40 52  1  0  0  0
 40 53  2  0  0  0
 40 58  1  0  0  0
 41113  1  0  0  0
 41114  1  0  0  0
 41115  1  0  0  0
 41 48  1  0  0  0
 42 43  1  0  0  0
 42 66  1  0  0  0
 42116  1  0  0  0
 42117  1  0  0  0
 43 44  1  0  0  0
 44118  1  0  0  0
 45 46  2  0  0  0
 45119  1  0  0  0
 46120  1  0  0  0
 47121  1  0  0  0
 47122  1  0  0  0
 48 56  1  0  0  0
 48 65  1  0  0  0
 48123  1  0  0  0
 49 50  1  0  0  0
 49 53  1  0  0  0
 49 64  1  0  0  0
 49124  1  0  0  0
 50 51  1  0  0  0
 50125  1  0  0  0
 50126  1  0  0  0
 51 52  1  0  0  0
 51127  1  0  0  0
 51128  1  0  0  0
 52129  1  0  0  0
 52130  1  0  0  0
 53 54  1  0  0  0
 54 55  2  0  0  0
 54131  1  0  0  0
 55 57  1  0  0  0
 55132  1  0  0  0
 56 69  2  0  0  0
 57 58  2  0  0  0
 57133  1  0  0  0
 58134  1  0  0  0
 59 60  1  0  0  0
 59 61  1  0  0  0
 59 62  1  0  0  0
 60135  1  0  0  0
 60136  1  0  0  0
 60137  1  0  0  0
 61138  1  0  0  0
 61139  1  0  0  0
 61140  1  0  0  0
 62141  1  0  0  0
 62142  1  0  0  0
 62143  1  0  0  0
 63 65  1  0  0  0
 63144  1  0  0  0
 63145  1  0  0  0
 63146  1  0  0  0
 64147  1  0  0  0
 65148  1  0  0  0
 68 84  1  0  0  0
 71 72  2  0  0  0
 71 74  1  0  0  0
 71149  1  0  0  0
 72 75  1  0  0  0
 72150  1  0  0  0
 73 74  2  0  0  0
 73 76  1  0  0  0
 73151  1  0  0  0
 74 78  1  0  0  0
 75 76  2  0  0  0
 75 86  1  0  0  0
 76 89  1  0  0  0
 77 79  1  0  0  0
 77 85  1  0  0  0
 77 87  2  0  0  0
 78 85  1  0  0  0
 78 88  2  0  0  0
 79 82  1  0  0  0
 79152  1  0  0  0
 79153  1  0  0  0
 80 81  1  0  0  0
 80 82  1  0  0  0
 80154  1  0  0  0
 80155  1  0  0  0
 81 85  1  0  0  0
 81156  1  0  0  0
 81157  1  0  0  0
 82 83  1  0  0  0
 82 84  1  0  0  0
 83158  1  0  0  0
 83159  1  0  0  0
 83160  1  0  0  0
 84161  1  0  0  0
 84162  1  0  0  0
 86163  1  0  0  0
 87164  1  0  0  0
 87165  1  0  0  0
 88166  1  0  0  0
 88167  1  0  0  0
M  CHG  2  87   1  88   1
M  ISO  4   1 100  68 101  84 101  86 100
M  END
> <chiral flag>
0

> <version>
0

> <s_m_source_file>
/data/baiqing/PycharmProjects/Reinvent-master-3.2/result/LINK_invent/BTK/process_docking_weight1_custom_product_contain_oxygen_bond_distance_aromatic_linkinvent_7_9_3/rearranged_h_0076.sdf

> <i_m_source_file_index>
64

> <r_mmod_Potential_Energy-OPLS-2005>
-151.527099609375

> <r_mmod_Stretch_Energy-OPLS-2005>
43.0127067565918

> <r_mmod_Bend_Energy-OPLS-2005>
121.654563903809

> <r_mmod_Torsional_Energy-OPLS-2005>
300.052154541016

> <r_mmod_Improper_Torsional_Energy-OPLS-2005>
5.78775262832642

> <r_mmod_Van_der_Waal_Energy-OPLS-2005>
184.579284667969

> <r_mmod_Electrostatic_Energy-OPLS-2005>
166.644744873047

> <r_mmod_Solvation_Energy-OPLS-2005>
-988.125366210938

> <b_mmod_Minimization_Converged-OPLS-2005>
0

> <r_mmod_RMS_Derivative-OPLS-2005>
3.83551073074341

$$$$
64
                    3D
 Structure written by MMmdl.
155164  0  0  1  0            999 V2000
  -30.6043  -14.7006   20.4628 C   0  0  0  0  0  0
  -30.4449  -12.4248   19.4552 C   0  0  0  0  0  0
  -29.5100  -12.5070   18.2270 C   0  0  0  0  0  0
  -28.0341  -12.3383   18.6431 C   0  0  0  0  0  0
  -27.6488  -13.2220   19.8599 C   0  0  2  0  0  0
  -28.7007  -13.1110   20.9870 C   0  0  0  0  0  0
  -25.2510  -13.8141   20.5751 C   0  0  0  0  0  0
  -24.1789  -13.0380   20.9179 C   0  0  0  0  0  0
  -24.6397  -11.6874   20.8726 C   0  0  0  0  0  0
  -23.9074  -10.4262   21.0391 C   0  0  0  0  0  0
  -24.3621   -9.4186   21.9178 C   0  0  0  0  0  0
  -23.6289   -8.2229   22.0755 C   0  0  0  0  0  0
  -22.4270   -8.0272   21.3545 C   0  0  0  0  0  0
  -21.9906   -9.0243   20.4644 C   0  0  0  0  0  0
  -22.7243  -10.2114   20.3045 C   0  0  0  0  0  0
  -21.6849   -6.0731   22.5281 C   0  0  0  0  0  0
  -21.4013   -6.5637   23.8214 C   0  0  0  0  0  0
  -21.3657   -5.6789   24.9176 C   0  0  0  0  0  0
  -21.6043   -4.3052   24.7226 C   0  0  0  0  0  0
  -21.8821   -3.8144   23.4348 C   0  0  0  0  0  0
  -21.9192   -4.6960   22.3404 C   0  0  0  0  0  0
  -22.7812  -13.5173   21.1850 C   0  0  0  0  0  0
  -22.1661   -4.2147   21.0981 F   0  0  0  0  0  0
  -21.5627   -3.4536   25.7739 F   0  0  0  0  0  0
  -30.0090  -13.4627   20.4110 N   0  0  0  0  0  0
  -26.2977  -12.9367   20.3354 N   0  0  0  0  0  0
  -25.9334  -11.6506   20.5763 N   0  0  0  0  0  0
  -22.0465  -12.8178   22.0422 N   0  0  0  0  0  0
  -25.4025  -15.1884   20.4358 N   0  0  0  0  0  0
  -31.7883  -14.8519   20.1477 O   0  0  0  0  0  0
  -21.6632   -6.8873   21.4244 O   0  0  0  0  0  0
  -22.3492  -14.5484   20.6707 O   0  0  0  0  0  0
  -24.6282  -31.8578   23.2016 C   0  0  0  0  0  0
  -25.9120  -32.4768   23.8351 C   0  0  1  0  0  0
  -27.2268  -27.2948   20.1234 C   0  0  0  0  0  0
  -25.5927  -33.8570   24.2273 N   0  0  0  0  0  0
  -23.4244  -30.4806   21.5438 C   0  0  2  0  0  0
  -24.8742  -28.9338   20.1097 C   0  0  0  0  0  0
  -22.7489  -29.4610   22.4922 C   0  0  0  0  0  0
  -18.0290  -28.1385   22.8484 C   0  0  0  0  0  0
  -24.1490  -36.7291   23.2639 C   0  0  0  0  0  0
  -25.9681  -30.7785   21.3804 C   0  0  0  0  0  0
  -26.0426  -29.4031   20.7244 C   0  0  0  0  0  0
  -27.2209  -28.5931   20.7278 C   0  0  0  0  0  0
  -26.0418  -26.8959   19.4636 C   0  0  0  0  0  0
  -24.8764  -27.6852   19.4702 C   0  0  0  0  0  0
  -23.6423  -29.8159   20.1591 C   0  0  0  0  0  0
  -25.4114  -36.3078   24.0328 C   0  0  1  0  0  0
  -20.5892  -28.3693   23.1273 C   0  0  2  0  0  0
  -20.6778  -26.9413   22.5408 C   0  0  0  0  0  0
  -19.5754  -26.6383   21.5211 C   0  0  0  0  0  0
  -18.1935  -26.7927   22.1624 C   0  0  0  0  0  0
  -19.1543  -28.8856   23.2874 C   0  0  0  0  0  0
  -18.9465  -30.1457   23.8893 C   0  0  0  0  0  0
  -17.6464  -30.6586   24.0563 C   0  0  0  0  0  0
  -25.9051  -34.9446   23.5101 C   0  0  0  0  0  0
  -16.5355  -29.9084   23.6330 C   0  0  0  0  0  0
  -16.7276  -28.6502   23.0352 C   0  0  0  0  0  0
  -26.4497  -31.6585   25.0730 C   0  0  0  0  0  0
  -25.3724  -31.3732   26.1453 C   0  0  0  0  0  0
  -27.0344  -30.3003   24.6208 C   0  0  0  0  0  0
  -27.6053  -32.4326   25.7500 C   0  0  0  0  0  0
  -27.5578  -37.1802   24.8465 C   0  0  0  0  0  0
  -21.4200  -29.3042   22.3663 N   0  0  0  0  0  0
  -26.4292  -37.3772   23.9405 N   0  0  0  0  0  0
  -24.6922  -31.0563   22.0983 N   0  0  0  0  0  0
  -23.4199  -28.8149   23.3013 O   0  0  0  0  0  0
  -28.3193  -26.4035   20.1623 O   0  0  0  0  0  0
  -26.5623  -34.8915   22.4669 O   0  0  0  0  0  0
  -23.5438  -32.1390   23.7324 O   0  0  0  0  0  0
  -30.8654  -19.4834   20.7115 C   0  0  0  0  0  0
  -30.9532  -18.0510   20.7782 C   0  0  0  0  0  0
  -28.5493  -19.3379   20.1207 C   0  0  0  0  0  0
  -29.6566  -20.1872   20.4027 C   0  0  0  0  0  0
  -29.8320  -17.2202   20.5115 C   0  0  0  0  0  0
  -28.6423  -17.9112   20.1527 C   0  0  0  0  0  0
  -28.9192  -23.9358   20.2586 C   0  0  0  0  0  0
  -28.5102  -22.5213   20.4611 C   0  0  0  0  0  0
  -28.0643  -25.0177   20.3587 C   0  0  0  0  0  0
  -30.3859  -23.9518   19.9435 C   0  0  0  0  0  0
  -30.8119  -22.4742   20.1224 C   0  0  0  0  0  0
  -29.5929  -21.6756   20.3292 N   0  0  0  0  0  0
  -27.5348  -17.1551   19.7737 N   0  0  0  0  0  0
  -29.7505  -15.7580   20.6638 N   0  0  0  0  0  0
  -27.3616  -22.1453   20.7175 O   0  0  0  0  0  0
  -31.4835  -12.5613   19.1489 H   0  0  0  0  0  0
  -30.3940  -11.4375   19.9168 H   0  0  0  0  0  0
  -29.7810  -11.7445   17.4955 H   0  0  0  0  0  0
  -29.6420  -13.4687   17.7285 H   0  0  0  0  0  0
  -27.8810  -11.2869   18.8892 H   0  0  0  0  0  0
  -27.3767  -12.5505   17.7992 H   0  0  0  0  0  0
  -27.6487  -14.2499   19.4997 H   0  0  0  0  0  0
  -28.7263  -12.0985   21.3924 H   0  0  0  0  0  0
  -28.4456  -13.7632   21.8239 H   0  0  0  0  0  0
  -25.2769   -9.5660   22.4751 H   0  0  0  0  0  0
  -23.9993   -7.4622   22.7479 H   0  0  0  0  0  0
  -21.0835   -8.8765   19.8954 H   0  0  0  0  0  0
  -22.3708  -10.9652   19.6152 H   0  0  0  0  0  0
  -21.2008   -7.6145   23.9719 H   0  0  0  0  0  0
  -21.1476   -6.0518   25.9079 H   0  0  0  0  0  0
  -22.0603   -2.7606   23.2849 H   0  0  0  0  0  0
  -22.4084  -11.9839   22.4807 H   0  0  0  0  0  0
  -21.1090  -13.1215   22.2644 H   0  0  0  0  0  0
  -24.6209  -15.8150   20.5885 H   0  0  0  0  0  0
  -26.2667  -15.7007   20.2576 H   0  0  0  0  0  0
  -26.7187  -32.5433   23.1098 H   0  0  0  0  0  0
  -25.0066  -33.9712   25.0413 H   0  0  0  0  0  0
  -22.7198  -31.3022   21.3993 H   0  0  0  0  0  0
  -23.3748  -35.9628   23.3304 H   0  0  0  0  0  0
  -24.3580  -36.8910   22.2053 H   0  0  0  0  0  0
  -23.7248  -37.6496   23.6660 H   0  0  0  0  0  0
  -26.1046  -31.5397   20.6109 H   0  0  0  0  0  0
  -26.8465  -30.8275   22.0120 H   0  0  0  0  0  0
  -28.1144  -28.9437   21.2250 H   0  0  0  0  0  0
  -26.0008  -25.9445   18.9527 H   0  0  0  0  0  0
  -23.9850  -27.3234   18.9763 H   0  0  0  0  0  0
  -23.7631  -30.5931   19.4036 H   0  0  0  0  0  0
  -22.7622  -29.2466   19.8548 H   0  0  0  0  0  0
  -25.1295  -36.1930   25.0821 H   0  0  0  0  0  0
  -20.9986  -28.3272   24.1393 H   0  0  0  0  0  0
  -20.5678  -26.2304   23.3611 H   0  0  0  0  0  0
  -21.6647  -26.7439   22.1203 H   0  0  0  0  0  0
  -19.6916  -25.6293   21.1243 H   0  0  0  0  0  0
  -19.6690  -27.3191   20.6739 H   0  0  0  0  0  0
  -17.4203  -26.6671   21.4030 H   0  0  0  0  0  0
  -18.0339  -26.0071   22.9023 H   0  0  0  0  0  0
  -19.7941  -30.7274   24.2262 H   0  0  0  0  0  0
  -17.5018  -31.6267   24.5165 H   0  0  0  0  0  0
  -15.5355  -30.2986   23.7655 H   0  0  0  0  0  0
  -15.8677  -28.0819   22.7069 H   0  0  0  0  0  0
  -24.5895  -30.7088   25.7779 H   0  0  0  0  0  0
  -24.8924  -32.2903   26.4878 H   0  0  0  0  0  0
  -25.8042  -30.8905   27.0230 H   0  0  0  0  0  0
  -26.2928  -29.6751   24.1222 H   0  0  0  0  0  0
  -27.4017  -29.7264   25.4726 H   0  0  0  0  0  0
  -27.8809  -30.4278   23.9456 H   0  0  0  0  0  0
  -27.2658  -33.3624   26.2075 H   0  0  0  0  0  0
  -28.3862  -32.6890   25.0328 H   0  0  0  0  0  0
  -28.0723  -31.8456   26.5418 H   0  0  0  0  0  0
  -28.2599  -38.0096   24.7504 H   0  0  0  0  0  0
  -28.1072  -36.2627   24.6299 H   0  0  0  0  0  0
  -27.2296  -37.1462   25.8868 H   0  0  0  0  0  0
  -20.9383  -29.8765   21.6871 H   0  0  0  0  0  0
  -26.0173  -38.2848   24.1400 H   0  0  0  0  0  0
  -31.7626  -20.0452   20.9288 H   0  0  0  0  0  0
  -31.8933  -17.5973   21.0583 H   0  0  0  0  0  0
  -27.6082  -19.7860   19.8370 H   0  0  0  0  0  0
  -27.0330  -24.8393   20.6327 H   0  0  0  0  0  0
  -30.9257  -24.6208   20.6145 H   0  0  0  0  0  0
  -30.5370  -24.2887   18.9173 H   0  0  0  0  0  0
  -31.4613  -22.3751   20.9933 H   0  0  0  0  0  0
  -31.3631  -22.1146   19.2525 H   0  0  0  0  0  0
  -26.7650  -17.7101   19.4147 H   0  0  0  0  0  0
  -27.7743  -16.4466   19.0895 H   0  0  0  0  0  0
  -28.7964  -15.4584   20.7961 H   0  0  0  0  0  0
  1 25  1  0  0  0
  1 30  2  0  0  0
  1 84  1  0  0  0
  2  3  1  0  0  0
  2 25  1  0  0  0
  2 86  1  0  0  0
  2 87  1  0  0  0
  3  4  1  0  0  0
  3 88  1  0  0  0
  3 89  1  0  0  0
  4  5  1  0  0  0
  4 90  1  0  0  0
  4 91  1  0  0  0
  5  6  1  0  0  0
  5 26  1  0  0  0
  5 92  1  0  0  0
  6 25  1  0  0  0
  6 93  1  0  0  0
  6 94  1  0  0  0
  7  8  2  0  0  0
  7 26  1  0  0  0
  7 29  1  0  0  0
  8  9  1  0  0  0
  8 22  1  0  0  0
  9 10  1  0  0  0
  9 27  2  0  0  0
 10 11  2  0  0  0
 10 15  1  0  0  0
 11 12  1  0  0  0
 11 95  1  0  0  0
 12 13  2  0  0  0
 12 96  1  0  0  0
 13 14  1  0  0  0
 13 31  1  0  0  0
 14 15  2  0  0  0
 14 97  1  0  0  0
 15 98  1  0  0  0
 16 17  2  0  0  0
 16 21  1  0  0  0
 16 31  1  0  0  0
 17 18  1  0  0  0
 17 99  1  0  0  0
 18 19  2  0  0  0
 18100  1  0  0  0
 19 20  1  0  0  0
 19 24  1  0  0  0
 20 21  2  0  0  0
 20101  1  0  0  0
 21 23  1  0  0  0
 22 28  1  0  0  0
 22 32  2  0  0  0
 26 27  1  0  0  0
 28102  1  0  0  0
 28103  1  0  0  0
 29104  1  0  0  0
 29105  1  0  0  0
 33 34  1  0  0  0
 33 66  1  0  0  0
 33 70  2  0  0  0
 34 36  1  0  0  0
 34 59  1  0  0  0
 34106  1  0  0  0
 35 44  2  0  0  0
 35 45  1  0  0  0
 35 68  1  0  0  0
 36 56  1  0  0  0
 36107  1  0  0  0
 37 39  1  0  0  0
 37 47  1  0  0  0
 37 66  1  0  0  0
 37108  1  0  0  0
 38 43  2  0  0  0
 38 46  1  0  0  0
 38 47  1  0  0  0
 39 64  1  0  0  0
 39 67  2  0  0  0
 40 52  1  0  0  0
 40 53  2  0  0  0
 40 58  1  0  0  0
 41109  1  0  0  0
 41110  1  0  0  0
 41111  1  0  0  0
 41 48  1  0  0  0
 42 43  1  0  0  0
 42 66  1  0  0  0
 42112  1  0  0  0
 42113  1  0  0  0
 43 44  1  0  0  0
 44114  1  0  0  0
 45 46  2  0  0  0
 45115  1  0  0  0
 46116  1  0  0  0
 47117  1  0  0  0
 47118  1  0  0  0
 48 56  1  0  0  0
 48 65  1  0  0  0
 48119  1  0  0  0
 49 50  1  0  0  0
 49 53  1  0  0  0
 49 64  1  0  0  0
 49120  1  0  0  0
 50 51  1  0  0  0
 50121  1  0  0  0
 50122  1  0  0  0
 51 52  1  0  0  0
 51123  1  0  0  0
 51124  1  0  0  0
 52125  1  0  0  0
 52126  1  0  0  0
 53 54  1  0  0  0
 54 55  2  0  0  0
 54127  1  0  0  0
 55 57  1  0  0  0
 55128  1  0  0  0
 56 69  2  0  0  0
 57 58  2  0  0  0
 57129  1  0  0  0
 58130  1  0  0  0
 59 60  1  0  0  0
 59 61  1  0  0  0
 59 62  1  0  0  0
 60131  1  0  0  0
 60132  1  0  0  0
 60133  1  0  0  0
 61134  1  0  0  0
 61135  1  0  0  0
 61136  1  0  0  0
 62137  1  0  0  0
 62138  1  0  0  0
 62139  1  0  0  0
 63 65  1  0  0  0
 63140  1  0  0  0
 63141  1  0  0  0
 63142  1  0  0  0
 64143  1  0  0  0
 65144  1  0  0  0
 68 79  1  0  0  0
 71 72  2  0  0  0
 71 74  1  0  0  0
 71145  1  0  0  0
 72 75  1  0  0  0
 72146  1  0  0  0
 73 74  2  0  0  0
 73 76  1  0  0  0
 73147  1  0  0  0
 74 82  1  0  0  0
 75 76  2  0  0  0
 75 84  1  0  0  0
 76 83  1  0  0  0
 77 78  1  0  0  0
 77 79  2  0  0  0
 77 80  1  0  0  0
 78 82  1  0  0  0
 78 85  2  0  0  0
 79148  1  0  0  0
 80 81  1  0  0  0
 80149  1  0  0  0
 80150  1  0  0  0
 81 82  1  0  0  0
 81151  1  0  0  0
 81152  1  0  0  0
 83153  1  0  0  0
 83154  1  0  0  0
 84155  1  0  0  0
M  ISO  4   1 100  68 101  79 101  84 100
M  END
> <chiral flag>
0

> <version>
0

> <s_m_source_file>
/data/baiqing/PycharmProjects/Reinvent-master-3.2/result/LINK_invent/BTK/process_docking_weight1_custom_product_contain_oxygen_bond_distance_aromatic_linkinvent_7_9_3/rearranged_h_0076.sdf

> <i_m_source_file_index>
65

> <r_mmod_Potential_Energy-OPLS-2005>
91.5329360961914

> <r_mmod_Stretch_Energy-OPLS-2005>
91.3141937255859

> <r_mmod_Bend_Energy-OPLS-2005>
171.801162719727

> <r_mmod_Torsional_Energy-OPLS-2005>
273.915649414062

> <r_mmod_Improper_Torsional_Energy-OPLS-2005>
11.3972654342651

> <r_mmod_Van_der_Waal_Energy-OPLS-2005>
147.474670410156

> <r_mmod_Electrostatic_Energy-OPLS-2005>
-463.108673095703

> <r_mmod_Solvation_Energy-OPLS-2005>
-209.65852355957

> <b_mmod_Minimization_Converged-OPLS-2005>
0

> <r_mmod_RMS_Derivative-OPLS-2005>
0.224768400192261

$$$$
65
                    3D
 Structure written by MMmdl.
160169  0  0  1  0            999 V2000
  -30.6379  -14.5368   20.5628 C   0  0  0  0  0  0
  -30.4404  -12.3408   19.4273 C   0  0  0  0  0  0
  -29.5025  -12.5130   18.2113 C   0  0  0  0  0  0
  -28.0240  -12.3583   18.6241 C   0  0  0  0  0  0
  -27.6637  -13.1998   19.8761 C   0  0  2  0  0  0
  -28.7058  -12.9750   20.9959 C   0  0  0  0  0  0
  -25.2618  -13.8153   20.5688 C   0  0  0  0  0  0
  -24.1848  -13.0446   20.9166 C   0  0  0  0  0  0
  -24.6385  -11.6908   20.8721 C   0  0  0  0  0  0
  -23.9050  -10.4299   21.0396 C   0  0  0  0  0  0
  -24.3603   -9.4220   21.9178 C   0  0  0  0  0  0
  -23.6278   -8.2258   22.0764 C   0  0  0  0  0  0
  -22.4262   -8.0295   21.3552 C   0  0  0  0  0  0
  -21.9887   -9.0266   20.4662 C   0  0  0  0  0  0
  -22.7215  -10.2144   20.3058 C   0  0  0  0  0  0
  -21.6856   -6.0732   22.5278 C   0  0  0  0  0  0
  -21.4023   -6.5637   23.8211 C   0  0  0  0  0  0
  -21.3656   -5.6786   24.9172 C   0  0  0  0  0  0
  -21.6035   -4.3046   24.7226 C   0  0  0  0  0  0
  -21.8822   -3.8143   23.4347 C   0  0  0  0  0  0
  -21.9198   -4.6958   22.3397 C   0  0  0  0  0  0
  -22.7876  -13.5265   21.1823 C   0  0  0  0  0  0
  -22.1665   -4.2143   21.0976 F   0  0  0  0  0  0
  -21.5615   -3.4534   25.7743 F   0  0  0  0  0  0
  -30.0340  -13.3172   20.4524 N   0  0  0  0  0  0
  -26.3036  -12.9296   20.3362 N   0  0  0  0  0  0
  -25.9313  -11.6468   20.5758 N   0  0  0  0  0  0
  -22.0494  -12.8292   22.0381 N   0  0  0  0  0  0
  -25.4376  -15.1876   20.4124 N   0  0  0  0  0  0
  -31.7561  -14.7684   20.0898 O   0  0  0  0  0  0
  -21.6635   -6.8886   21.4248 O   0  0  0  0  0  0
  -22.3578  -14.5567   20.6659 O   0  0  0  0  0  0
  -24.6180  -31.8641   23.2064 C   0  0  0  0  0  0
  -25.9052  -32.4804   23.8382 C   0  0  1  0  0  0
  -27.2342  -27.3936   20.1146 C   0  0  0  0  0  0
  -25.5888  -33.8600   24.2309 N   0  0  0  0  0  0
  -23.4102  -30.4846   21.5469 C   0  0  2  0  0  0
  -24.8603  -28.9405   20.1187 C   0  0  0  0  0  0
  -22.7431  -29.4632   22.4972 C   0  0  0  0  0  0
  -18.0275  -28.1374   22.8489 C   0  0  0  0  0  0
  -24.1480  -36.7310   23.2635 C   0  0  0  0  0  0
  -25.9423  -30.8154   21.3678 C   0  0  0  0  0  0
  -26.0217  -29.4441   20.7207 C   0  0  0  0  0  0
  -27.2150  -28.6778   20.7162 C   0  0  0  0  0  0
  -26.0618  -26.9126   19.5021 C   0  0  0  0  0  0
  -24.8761  -27.6744   19.5064 C   0  0  0  0  0  0
  -23.6242  -29.8139   20.1635 C   0  0  0  0  0  0
  -25.4091  -36.3096   24.0340 C   0  0  1  0  0  0
  -20.5867  -28.3663   23.1308 C   0  0  2  0  0  0
  -20.6773  -26.9396   22.5415 C   0  0  0  0  0  0
  -19.5750  -26.6383   21.5211 C   0  0  0  0  0  0
  -18.1926  -26.7924   22.1620 C   0  0  0  0  0  0
  -19.1525  -28.8835   23.2897 C   0  0  0  0  0  0
  -18.9454  -30.1439   23.8908 C   0  0  0  0  0  0
  -17.6457  -30.6579   24.0567 C   0  0  0  0  0  0
  -25.9026  -34.9465   23.5124 C   0  0  0  0  0  0
  -16.5346  -29.9083   23.6322 C   0  0  0  0  0  0
  -16.7266  -28.6500   23.0344 C   0  0  0  0  0  0
  -26.4468  -31.6595   25.0726 C   0  0  0  0  0  0
  -25.3735  -31.3732   26.1488 C   0  0  0  0  0  0
  -27.0298  -30.3028   24.6124 C   0  0  0  0  0  0
  -27.6051  -32.4324   25.7466 C   0  0  0  0  0  0
  -27.5583  -37.1785   24.8445 C   0  0  0  0  0  0
  -21.4154  -29.3028   22.3711 N   0  0  0  0  0  0
  -26.4271  -37.3790   23.9430 N   0  0  0  0  0  0
  -24.6748  -31.0703   22.0988 N   0  0  0  0  0  0
  -23.4181  -28.8182   23.3038 O   0  0  0  0  0  0
  -28.3676  -26.6029   20.0772 O   0  0  0  0  0  0
  -26.5608  -34.8924   22.4697 O   0  0  0  0  0  0
  -23.5359  -32.1418   23.7427 O   0  0  0  0  0  0
  -30.5166  -19.1657   20.3387 C   0  0  0  0  0  0
  -28.3039  -18.8871   21.2391 C   0  0  0  0  0  0
  -30.7466  -17.7645   20.4560 C   0  0  0  0  0  0
  -28.5335  -17.4981   21.3676 C   0  0  0  0  0  0
  -29.2785  -19.7796   20.7088 C   0  0  0  0  0  0
  -29.7492  -16.9025   20.9718 C   0  0  0  0  0  0
  -28.5274  -24.1262   20.7276 C   0  0  0  0  0  0
  -29.5983  -23.5620   20.0983 C   0  0  0  0  0  0
  -27.4884  -23.2133   21.1868 C   0  0  0  0  0  0
  -29.7069  -22.1028   19.8185 C   0  0  0  0  0  0
  -26.2477  -23.6421   21.4847 C   0  0  0  0  0  0
  -27.8077  -21.7308   21.3345 C   0  0  0  0  0  0
  -30.7824  -24.3943   19.6071 C   0  0  0  0  0  0
  -28.4965  -25.6301   21.1422 C   0  0  0  0  0  0
  -29.0010  -21.2301   20.6146 N   0  0  0  0  0  0
  -29.8661  -15.4776   21.1575 N   0  0  0  0  0  0
  -30.4208  -21.6983   18.8943 O   0  0  0  0  0  0
  -31.4827  -12.4649   19.1262 H   0  0  0  0  0  0
  -30.3648  -11.3287   19.8269 H   0  0  0  0  0  0
  -29.7482  -11.7831   17.4393 H   0  0  0  0  0  0
  -29.6572  -13.4958   17.7622 H   0  0  0  0  0  0
  -27.8443  -11.3019   18.8276 H   0  0  0  0  0  0
  -27.3712  -12.6226   17.7914 H   0  0  0  0  0  0
  -27.7075  -14.2464   19.5760 H   0  0  0  0  0  0
  -28.6978  -11.9319   21.3141 H   0  0  0  0  0  0
  -28.4508  -13.5454   21.8901 H   0  0  0  0  0  0
  -25.2748   -9.5694   22.4750 H   0  0  0  0  0  0
  -23.9986   -7.4650   22.7486 H   0  0  0  0  0  0
  -21.0807   -8.8789   19.8971 H   0  0  0  0  0  0
  -22.3669  -10.9686   19.6171 H   0  0  0  0  0  0
  -21.2028   -7.6146   23.9713 H   0  0  0  0  0  0
  -21.1463   -6.0516   25.9069 H   0  0  0  0  0  0
  -22.0600   -2.7607   23.2851 H   0  0  0  0  0  0
  -22.4083  -11.9956   22.4795 H   0  0  0  0  0  0
  -21.1132  -13.1369   22.2582 H   0  0  0  0  0  0
  -24.6731  -15.8449   20.5209 H   0  0  0  0  0  0
  -26.2868  -15.6210   20.0722 H   0  0  0  0  0  0
  -26.7122  -32.5507   23.1140 H   0  0  0  0  0  0
  -25.0023  -33.9755   25.0447 H   0  0  0  0  0  0
  -22.7011  -31.3020   21.4027 H   0  0  0  0  0  0
  -23.3748  -35.9633   23.3258 H   0  0  0  0  0  0
  -24.3594  -36.8971   22.2060 H   0  0  0  0  0  0
  -23.7218  -37.6494   23.6682 H   0  0  0  0  0  0
  -26.0604  -31.5760   20.5950 H   0  0  0  0  0  0
  -26.8274  -30.8719   21.9894 H   0  0  0  0  0  0
  -28.1134  -29.0612   21.1802 H   0  0  0  0  0  0
  -26.0677  -25.9417   19.0264 H   0  0  0  0  0  0
  -23.9862  -27.2792   19.0364 H   0  0  0  0  0  0
  -23.7412  -30.5885   19.4048 H   0  0  0  0  0  0
  -22.7469  -29.2387   19.8630 H   0  0  0  0  0  0
  -25.1258  -36.1950   25.0831 H   0  0  0  0  0  0
  -20.9952  -28.3235   24.1429 H   0  0  0  0  0  0
  -20.5663  -26.2271   23.3602 H   0  0  0  0  0  0
  -21.6651  -26.7433   22.1213 H   0  0  0  0  0  0
  -19.6914  -25.6297   21.1231 H   0  0  0  0  0  0
  -19.6687  -27.3200   20.6746 H   0  0  0  0  0  0
  -17.4195  -26.6666   21.4024 H   0  0  0  0  0  0
  -18.0321  -26.0054   22.9003 H   0  0  0  0  0  0
  -19.7931  -30.7255   24.2281 H   0  0  0  0  0  0
  -17.5012  -31.6255   24.5172 H   0  0  0  0  0  0
  -15.5351  -30.2991   23.7632 H   0  0  0  0  0  0
  -15.8668  -28.0824   22.7051 H   0  0  0  0  0  0
  -24.5874  -30.7108   25.7846 H   0  0  0  0  0  0
  -24.8966  -32.2901   26.4960 H   0  0  0  0  0  0
  -25.8085  -30.8885   27.0236 H   0  0  0  0  0  0
  -26.2844  -29.6781   24.1182 H   0  0  0  0  0  0
  -27.4069  -29.7278   25.4592 H   0  0  0  0  0  0
  -27.8685  -30.4343   23.9281 H   0  0  0  0  0  0
  -27.2678  -33.3627   26.2046 H   0  0  0  0  0  0
  -28.3837  -32.6877   25.0266 H   0  0  0  0  0  0
  -28.0738  -31.8450   26.5370 H   0  0  0  0  0  0
  -28.2550  -38.0134   24.7576 H   0  0  0  0  0  0
  -28.1136  -36.2678   24.6144 H   0  0  0  0  0  0
  -27.2336  -37.1282   25.8854 H   0  0  0  0  0  0
  -20.9317  -29.8749   21.6931 H   0  0  0  0  0  0
  -26.0157  -38.2857   24.1484 H   0  0  0  0  0  0
  -31.3368  -19.7577   19.9621 H   0  0  0  0  0  0
  -27.3372  -19.2301   21.5712 H   0  0  0  0  0  0
  -31.7060  -17.3660   20.1567 H   0  0  0  0  0  0
  -27.7427  -16.8870   21.7810 H   0  0  0  0  0  0
  -25.9425  -24.6727   21.3825 H   0  0  0  0  0  0
  -25.4903  -22.9480   21.8215 H   0  0  0  0  0  0
  -26.9284  -21.1982   20.9719 H   0  0  0  0  0  0
  -27.9158  -21.5055   22.3967 H   0  0  0  0  0  0
  -30.7425  -25.4448   19.8884 H   0  0  0  0  0  0
  -30.8274  -24.3598   18.5178 H   0  0  0  0  0  0
  -31.7172  -23.9878   19.9948 H   0  0  0  0  0  0
  -29.4280  -25.8475   21.6647 H   0  0  0  0  0  0
  -27.7416  -25.7980   21.9116 H   0  0  0  0  0  0
  -29.0568  -15.0579   21.5886 H   0  0  0  0  0  0
  1 25  1  0  0  0
  1 30  2  0  0  0
  1 86  1  0  0  0
  2  3  1  0  0  0
  2 25  1  0  0  0
  2 88  1  0  0  0
  2 89  1  0  0  0
  3  4  1  0  0  0
  3 90  1  0  0  0
  3 91  1  0  0  0
  4  5  1  0  0  0
  4 92  1  0  0  0
  4 93  1  0  0  0
  5  6  1  0  0  0
  5 26  1  0  0  0
  5 94  1  0  0  0
  6 25  1  0  0  0
  6 95  1  0  0  0
  6 96  1  0  0  0
  7  8  2  0  0  0
  7 26  1  0  0  0
  7 29  1  0  0  0
  8  9  1  0  0  0
  8 22  1  0  0  0
  9 10  1  0  0  0
  9 27  2  0  0  0
 10 11  2  0  0  0
 10 15  1  0  0  0
 11 12  1  0  0  0
 11 97  1  0  0  0
 12 13  2  0  0  0
 12 98  1  0  0  0
 13 14  1  0  0  0
 13 31  1  0  0  0
 14 15  2  0  0  0
 14 99  1  0  0  0
 15100  1  0  0  0
 16 17  2  0  0  0
 16 21  1  0  0  0
 16 31  1  0  0  0
 17 18  1  0  0  0
 17101  1  0  0  0
 18 19  2  0  0  0
 18102  1  0  0  0
 19 20  1  0  0  0
 19 24  1  0  0  0
 20 21  2  0  0  0
 20103  1  0  0  0
 21 23  1  0  0  0
 22 28  1  0  0  0
 22 32  2  0  0  0
 26 27  1  0  0  0
 28104  1  0  0  0
 28105  1  0  0  0
 29106  1  0  0  0
 29107  1  0  0  0
 33 34  1  0  0  0
 33 66  1  0  0  0
 33 70  2  0  0  0
 34 36  1  0  0  0
 34 59  1  0  0  0
 34108  1  0  0  0
 35 44  2  0  0  0
 35 45  1  0  0  0
 35 68  1  0  0  0
 36 56  1  0  0  0
 36109  1  0  0  0
 37 39  1  0  0  0
 37 47  1  0  0  0
 37 66  1  0  0  0
 37110  1  0  0  0
 38 43  2  0  0  0
 38 46  1  0  0  0
 38 47  1  0  0  0
 39 64  1  0  0  0
 39 67  2  0  0  0
 40 52  1  0  0  0
 40 53  2  0  0  0
 40 58  1  0  0  0
 41111  1  0  0  0
 41112  1  0  0  0
 41113  1  0  0  0
 41 48  1  0  0  0
 42 43  1  0  0  0
 42 66  1  0  0  0
 42114  1  0  0  0
 42115  1  0  0  0
 43 44  1  0  0  0
 44116  1  0  0  0
 45 46  2  0  0  0
 45117  1  0  0  0
 46118  1  0  0  0
 47119  1  0  0  0
 47120  1  0  0  0
 48 56  1  0  0  0
 48 65  1  0  0  0
 48121  1  0  0  0
 49 50  1  0  0  0
 49 53  1  0  0  0
 49 64  1  0  0  0
 49122  1  0  0  0
 50 51  1  0  0  0
 50123  1  0  0  0
 50124  1  0  0  0
 51 52  1  0  0  0
 51125  1  0  0  0
 51126  1  0  0  0
 52127  1  0  0  0
 52128  1  0  0  0
 53 54  1  0  0  0
 54 55  2  0  0  0
 54129  1  0  0  0
 55 57  1  0  0  0
 55130  1  0  0  0
 56 69  2  0  0  0
 57 58  2  0  0  0
 57131  1  0  0  0
 58132  1  0  0  0
 59 60  1  0  0  0
 59 61  1  0  0  0
 59 62  1  0  0  0
 60133  1  0  0  0
 60134  1  0  0  0
 60135  1  0  0  0
 61136  1  0  0  0
 61137  1  0  0  0
 61138  1  0  0  0
 62139  1  0  0  0
 62140  1  0  0  0
 62141  1  0  0  0
 63 65  1  0  0  0
 63142  1  0  0  0
 63143  1  0  0  0
 63144  1  0  0  0
 64145  1  0  0  0
 65146  1  0  0  0
 68 84  1  0  0  0
 71 73  2  0  0  0
 71 75  1  0  0  0
 71147  1  0  0  0
 72 74  1  0  0  0
 72 75  2  0  0  0
 72148  1  0  0  0
 73 76  1  0  0  0
 73149  1  0  0  0
 74 76  2  0  0  0
 74150  1  0  0  0
 75 85  1  0  0  0
 76 86  1  0  0  0
 77 78  2  0  0  0
 77 79  1  0  0  0
 77 84  1  0  0  0
 78 80  1  0  0  0
 78 83  1  0  0  0
 79 81  2  0  0  0
 79 82  1  0  0  0
 80 85  1  0  0  0
 80 87  2  0  0  0
 81151  1  0  0  0
 81152  1  0  0  0
 82 85  1  0  0  0
 82153  1  0  0  0
 82154  1  0  0  0
 83155  1  0  0  0
 83156  1  0  0  0
 83157  1  0  0  0
 84158  1  0  0  0
 84159  1  0  0  0
 86160  1  0  0  0
M  ISO  4   1 100  68 101  84 101  86 100
M  END
> <chiral flag>
0

> <version>
0

> <s_m_source_file>
/data/baiqing/PycharmProjects/Reinvent-master-3.2/result/LINK_invent/BTK/process_docking_weight1_custom_product_contain_oxygen_bond_distance_aromatic_linkinvent_7_9_3/rearranged_h_0076.sdf

> <i_m_source_file_index>
66

> <r_mmod_Potential_Energy-OPLS-2005>
141.407760620117

> <r_mmod_Stretch_Energy-OPLS-2005>
64.7872543334961

> <r_mmod_Bend_Energy-OPLS-2005>
142.410675048828

> <r_mmod_Torsional_Energy-OPLS-2005>
278.067535400391

> <r_mmod_Improper_Torsional_Energy-OPLS-2005>
4.15344381332397

> <r_mmod_Van_der_Waal_Energy-OPLS-2005>
180.891403198242

> <r_mmod_Electrostatic_Energy-OPLS-2005>
-338.018981933594

> <r_mmod_Solvation_Energy-OPLS-2005>
-211.998046875

> <b_mmod_Minimization_Converged-OPLS-2005>
0

> <r_mmod_RMS_Derivative-OPLS-2005>
1.7746753692627

$$$$
66
                    3D
 Structure written by MMmdl.
161170  0  0  1  0            999 V2000
  -30.6071  -14.7506   20.4751 C   0  0  0  0  0  0
  -30.4347  -12.4633   19.4677 C   0  0  0  0  0  0
  -29.5107  -12.5063   18.2312 C   0  0  0  0  0  0
  -28.0359  -12.3297   18.6442 C   0  0  0  0  0  0
  -27.6390  -13.2281   19.8463 C   0  0  2  0  0  0
  -28.6857  -13.1623   20.9786 C   0  0  0  0  0  0
  -25.2498  -13.8192   20.5692 C   0  0  0  0  0  0
  -24.1796  -13.0438   20.9231 C   0  0  0  0  0  0
  -24.6385  -11.6914   20.8760 C   0  0  0  0  0  0
  -23.9054  -10.4303   21.0412 C   0  0  0  0  0  0
  -24.3617   -9.4209   21.9183 C   0  0  0  0  0  0
  -23.6299   -8.2237   22.0741 C   0  0  0  0  0  0
  -22.4274   -8.0285   21.3539 C   0  0  0  0  0  0
  -21.9911   -9.0251   20.4632 C   0  0  0  0  0  0
  -22.7229  -10.2137   20.3047 C   0  0  0  0  0  0
  -21.6855   -6.0738   22.5275 C   0  0  0  0  0  0
  -21.4016   -6.5639   23.8211 C   0  0  0  0  0  0
  -21.3665   -5.6785   24.9172 C   0  0  0  0  0  0
  -21.6046   -4.3045   24.7215 C   0  0  0  0  0  0
  -21.8816   -3.8145   23.4328 C   0  0  0  0  0  0
  -21.9191   -4.6971   22.3395 C   0  0  0  0  0  0
  -22.7819  -13.5216   21.1873 C   0  0  0  0  0  0
  -22.1661   -4.2158   21.0975 F   0  0  0  0  0  0
  -21.5639   -3.4531   25.7727 F   0  0  0  0  0  0
  -29.9785  -13.5281   20.3885 N   0  0  0  0  0  0
  -26.2918  -12.9384   20.3263 N   0  0  0  0  0  0
  -25.9309  -11.6535   20.5760 N   0  0  0  0  0  0
  -22.0449  -12.8237   22.0441 N   0  0  0  0  0  0
  -25.4160  -15.1925   20.4092 N   0  0  0  0  0  0
  -31.8097  -14.8367   20.2110 O   0  0  0  0  0  0
  -21.6631   -6.8877   21.4233 O   0  0  0  0  0  0
  -22.3504  -14.5509   20.6689 O   0  0  0  0  0  0
  -24.6314  -31.8552   23.1955 C   0  0  0  0  0  0
  -25.9133  -32.4756   23.8316 C   0  0  1  0  0  0
  -27.2146  -27.2441   20.1456 C   0  0  0  0  0  0
  -25.5931  -33.8564   24.2240 N   0  0  0  0  0  0
  -23.4304  -30.4761   21.5405 C   0  0  2  0  0  0
  -24.8770  -28.9188   20.1115 C   0  0  0  0  0  0
  -22.7520  -29.4602   22.4914 C   0  0  0  0  0  0
  -18.0287  -28.1411   22.8493 C   0  0  0  0  0  0
  -24.1489  -36.7272   23.2644 C   0  0  0  0  0  0
  -25.9769  -30.7612   21.3785 C   0  0  0  0  0  0
  -26.0483  -29.3811   20.7259 C   0  0  0  0  0  0
  -27.2217  -28.5573   20.7290 C   0  0  0  0  0  0
  -26.0264  -26.8576   19.4902 C   0  0  0  0  0  0
  -24.8723  -27.6658   19.4803 C   0  0  0  0  0  0
  -23.6487  -29.8089   20.1576 C   0  0  0  0  0  0
  -25.4117  -36.3073   24.0329 C   0  0  1  0  0  0
  -20.5895  -28.3721   23.1274 C   0  0  2  0  0  0
  -20.6790  -26.9439   22.5422 C   0  0  0  0  0  0
  -19.5758  -26.6402   21.5240 C   0  0  0  0  0  0
  -18.1930  -26.7950   22.1636 C   0  0  0  0  0  0
  -19.1542  -28.8879   23.2881 C   0  0  0  0  0  0
  -18.9461  -30.1483   23.8899 C   0  0  0  0  0  0
  -17.6460  -30.6604   24.0578 C   0  0  0  0  0  0
  -25.9066  -34.9447   23.5079 C   0  0  0  0  0  0
  -16.5352  -29.9104   23.6341 C   0  0  0  0  0  0
  -16.7277  -28.6527   23.0357 C   0  0  0  0  0  0
  -26.4488  -31.6585   25.0712 C   0  0  0  0  0  0
  -25.3698  -31.3747   26.1424 C   0  0  0  0  0  0
  -27.0333  -30.2998   24.6200 C   0  0  0  0  0  0
  -27.6041  -32.4335   25.7475 C   0  0  0  0  0  0
  -27.5574  -37.1792   24.8467 C   0  0  0  0  0  0
  -21.4217  -29.3053   22.3655 N   0  0  0  0  0  0
  -26.4287  -37.3774   23.9409 N   0  0  0  0  0  0
  -24.6993  -31.0501   22.0937 N   0  0  0  0  0  0
  -23.4203  -28.8151   23.3032 O   0  0  0  0  0  0
  -28.3004  -26.3368   20.1740 O   0  0  0  0  0  0
  -26.5651  -34.8934   22.4663 O   0  0  0  0  0  0
  -23.5462  -32.1369   23.7244 O   0  0  0  0  0  0
  -30.8488  -19.9181   21.9238 C   0  0  0  0  0  0
  -29.5108  -18.5174   20.4562 C   0  0  0  0  0  0
  -31.1647  -17.4826   21.9228 C   0  0  0  0  0  0
  -29.8356  -19.8647   20.9348 C   0  0  0  0  0  0
  -31.4940  -18.7632   22.4104 C   0  0  0  0  0  0
  -30.1665  -17.2983   20.9397 C   0  0  0  0  0  0
  -28.4511  -22.8530   18.9135 C   0  0  0  0  0  0
  -29.2457  -22.4164   21.0686 C   0  0  0  0  0  0
  -27.6949  -23.3478   17.9210 C   0  0  0  0  0  0
  -28.7840  -21.3611   19.0792 C   0  0  0  0  0  0
  -28.9874  -23.6420   20.0973 C   0  0  1  0  0  0
  -30.3695  -24.2294   19.7472 C   0  0  0  0  0  0
  -28.0602  -24.9000   20.5949 C   0  0  0  0  0  0
  -29.2697  -21.1712   20.4493 N   0  0  0  0  0  0
  -32.4753  -18.8977   23.3924 N   0  0  0  0  0  0
  -29.8187  -15.8960   20.5703 N   0  0  0  0  0  0
  -29.4025  -22.5996   22.2803 O   0  0  0  0  0  0
  -31.4750  -12.6000   19.1668 H   0  0  0  0  0  0
  -30.3871  -11.4884   19.9551 H   0  0  0  0  0  0
  -29.7979  -11.7316   17.5178 H   0  0  0  0  0  0
  -29.6372  -13.4597   17.7157 H   0  0  0  0  0  0
  -27.8925  -11.2815   18.9083 H   0  0  0  0  0  0
  -27.3802  -12.5204   17.7942 H   0  0  0  0  0  0
  -27.6280  -14.2494   19.4644 H   0  0  0  0  0  0
  -28.7274  -12.1597   21.4082 H   0  0  0  0  0  0
  -28.4208  -13.8381   21.7935 H   0  0  0  0  0  0
  -25.2758   -9.5713   22.4753 H   0  0  0  0  0  0
  -24.0023   -7.4627   22.7455 H   0  0  0  0  0  0
  -21.0842   -8.8762   19.8931 H   0  0  0  0  0  0
  -22.3677  -10.9682   19.6160 H   0  0  0  0  0  0
  -21.1996   -7.6142   23.9732 H   0  0  0  0  0  0
  -21.1501   -6.0504   25.9083 H   0  0  0  0  0  0
  -22.0588   -2.7604   23.2826 H   0  0  0  0  0  0
  -22.4054  -11.9928   22.4895 H   0  0  0  0  0  0
  -21.1046  -13.1260   22.2552 H   0  0  0  0  0  0
  -24.6420  -15.8406   20.5173 H   0  0  0  0  0  0
  -26.2532  -15.6382   20.0578 H   0  0  0  0  0  0
  -26.7213  -32.5406   23.1072 H   0  0  0  0  0  0
  -25.0070  -33.9718   25.0376 H   0  0  0  0  0  0
  -22.7276  -31.2988   21.3948 H   0  0  0  0  0  0
  -23.3761  -35.9594   23.3307 H   0  0  0  0  0  0
  -24.3565  -36.8892   22.2055 H   0  0  0  0  0  0
  -23.7237  -37.6473   23.6667 H   0  0  0  0  0  0
  -26.1192  -31.5164   20.6038 H   0  0  0  0  0  0
  -26.8535  -30.8134   22.0120 H   0  0  0  0  0  0
  -28.1169  -28.9026   21.2244 H   0  0  0  0  0  0
  -25.9736  -25.9056   18.9842 H   0  0  0  0  0  0
  -23.9804  -27.3071   18.9841 H   0  0  0  0  0  0
  -23.7792  -30.5861   19.4043 H   0  0  0  0  0  0
  -22.7646  -29.2478   19.8496 H   0  0  0  0  0  0
  -25.1303  -36.1913   25.0823 H   0  0  0  0  0  0
  -20.9992  -28.3314   24.1398 H   0  0  0  0  0  0
  -20.5729  -26.2332   23.3635 H   0  0  0  0  0  0
  -21.6649  -26.7499   22.1190 H   0  0  0  0  0  0
  -19.6930  -25.6320   21.1263 H   0  0  0  0  0  0
  -19.6688  -27.3223   20.6780 H   0  0  0  0  0  0
  -17.4211  -26.6721   21.4029 H   0  0  0  0  0  0
  -18.0306  -26.0103   22.9034 H   0  0  0  0  0  0
  -19.7941  -30.7309   24.2261 H   0  0  0  0  0  0
  -17.5015  -31.6282   24.5186 H   0  0  0  0  0  0
  -15.5353  -30.3008   23.7675 H   0  0  0  0  0  0
  -15.8681  -28.0861   22.7061 H   0  0  0  0  0  0
  -24.5888  -30.7079   25.7740 H   0  0  0  0  0  0
  -24.8869  -32.2926   26.4791 H   0  0  0  0  0  0
  -25.7997  -30.8962   27.0232 H   0  0  0  0  0  0
  -26.2920  -29.6748   24.1207 H   0  0  0  0  0  0
  -27.4000  -29.7253   25.4713 H   0  0  0  0  0  0
  -27.8802  -30.4263   23.9451 H   0  0  0  0  0  0
  -27.2646  -33.3649   26.2009 H   0  0  0  0  0  0
  -28.3852  -32.6868   25.0299 H   0  0  0  0  0  0
  -28.0703  -31.8494   26.5416 H   0  0  0  0  0  0
  -28.2599  -38.0084   24.7514 H   0  0  0  0  0  0
  -28.1071  -36.2618   24.6293 H   0  0  0  0  0  0
  -27.2301  -37.1438   25.8876 H   0  0  0  0  0  0
  -20.9410  -29.8740   21.6828 H   0  0  0  0  0  0
  -26.0164  -38.2849   24.1407 H   0  0  0  0  0  0
  -31.1728  -20.8719   22.3132 H   0  0  0  0  0  0
  -28.7446  -18.4199   19.7004 H   0  0  0  0  0  0
  -31.6742  -16.6202   22.3312 H   0  0  0  0  0  0
  -27.3091  -22.7044   17.1431 H   0  0  0  0  0  0
  -27.4526  -24.3987   17.8664 H   0  0  0  0  0  0
  -29.5668  -21.0785   18.3734 H   0  0  0  0  0  0
  -27.9063  -20.7420   18.8872 H   0  0  0  0  0  0
  -31.0914  -23.4609   19.4670 H   0  0  0  0  0  0
  -30.7809  -24.7788   20.5948 H   0  0  0  0  0  0
  -30.2970  -24.9244   18.9111 H   0  0  0  0  0  0
  -27.0210  -24.6201   20.4259 H   0  0  0  0  0  0
  -28.1305  -24.9332   21.6828 H   0  0  0  0  0  0
  -32.5473  -19.7788   23.8936 H   0  0  0  0  0  0
  -32.6978  -18.0966   23.9765 H   0  0  0  0  0  0
  -28.8345  -15.7182   20.4513 H   0  0  0  0  0  0
  1 25  1  0  0  0
  1 30  2  0  0  0
  1 86  1  0  0  0
  2  3  1  0  0  0
  2 25  1  0  0  0
  2 88  1  0  0  0
  2 89  1  0  0  0
  3  4  1  0  0  0
  3 90  1  0  0  0
  3 91  1  0  0  0
  4  5  1  0  0  0
  4 92  1  0  0  0
  4 93  1  0  0  0
  5  6  1  0  0  0
  5 26  1  0  0  0
  5 94  1  0  0  0
  6 25  1  0  0  0
  6 95  1  0  0  0
  6 96  1  0  0  0
  7  8  2  0  0  0
  7 26  1  0  0  0
  7 29  1  0  0  0
  8  9  1  0  0  0
  8 22  1  0  0  0
  9 10  1  0  0  0
  9 27  2  0  0  0
 10 11  2  0  0  0
 10 15  1  0  0  0
 11 12  1  0  0  0
 11 97  1  0  0  0
 12 13  2  0  0  0
 12 98  1  0  0  0
 13 14  1  0  0  0
 13 31  1  0  0  0
 14 15  2  0  0  0
 14 99  1  0  0  0
 15100  1  0  0  0
 16 17  2  0  0  0
 16 21  1  0  0  0
 16 31  1  0  0  0
 17 18  1  0  0  0
 17101  1  0  0  0
 18 19  2  0  0  0
 18102  1  0  0  0
 19 20  1  0  0  0
 19 24  1  0  0  0
 20 21  2  0  0  0
 20103  1  0  0  0
 21 23  1  0  0  0
 22 28  1  0  0  0
 22 32  2  0  0  0
 26 27  1  0  0  0
 28104  1  0  0  0
 28105  1  0  0  0
 29106  1  0  0  0
 29107  1  0  0  0
 33 34  1  0  0  0
 33 66  1  0  0  0
 33 70  2  0  0  0
 34 36  1  0  0  0
 34 59  1  0  0  0
 34108  1  0  0  0
 35 44  2  0  0  0
 35 45  1  0  0  0
 35 68  1  0  0  0
 36 56  1  0  0  0
 36109  1  0  0  0
 37 39  1  0  0  0
 37 47  1  0  0  0
 37 66  1  0  0  0
 37110  1  0  0  0
 38 43  2  0  0  0
 38 46  1  0  0  0
 38 47  1  0  0  0
 39 64  1  0  0  0
 39 67  2  0  0  0
 40 52  1  0  0  0
 40 53  2  0  0  0
 40 58  1  0  0  0
 41111  1  0  0  0
 41112  1  0  0  0
 41113  1  0  0  0
 41 48  1  0  0  0
 42 43  1  0  0  0
 42 66  1  0  0  0
 42114  1  0  0  0
 42115  1  0  0  0
 43 44  1  0  0  0
 44116  1  0  0  0
 45 46  2  0  0  0
 45117  1  0  0  0
 46118  1  0  0  0
 47119  1  0  0  0
 47120  1  0  0  0
 48 56  1  0  0  0
 48 65  1  0  0  0
 48121  1  0  0  0
 49 50  1  0  0  0
 49 53  1  0  0  0
 49 64  1  0  0  0
 49122  1  0  0  0
 50 51  1  0  0  0
 50123  1  0  0  0
 50124  1  0  0  0
 51 52  1  0  0  0
 51125  1  0  0  0
 51126  1  0  0  0
 52127  1  0  0  0
 52128  1  0  0  0
 53 54  1  0  0  0
 54 55  2  0  0  0
 54129  1  0  0  0
 55 57  1  0  0  0
 55130  1  0  0  0
 56 69  2  0  0  0
 57 58  2  0  0  0
 57131  1  0  0  0
 58132  1  0  0  0
 59 60  1  0  0  0
 59 61  1  0  0  0
 59 62  1  0  0  0
 60133  1  0  0  0
 60134  1  0  0  0
 60135  1  0  0  0
 61136  1  0  0  0
 61137  1  0  0  0
 61138  1  0  0  0
 62139  1  0  0  0
 62140  1  0  0  0
 62141  1  0  0  0
 63 65  1  0  0  0
 63142  1  0  0  0
 63143  1  0  0  0
 63144  1  0  0  0
 64145  1  0  0  0
 65146  1  0  0  0
 68 83  1  0  0  0
 71 74  2  0  0  0
 71 75  1  0  0  0
 71147  1  0  0  0
 72 74  1  0  0  0
 72 76  2  0  0  0
 72148  1  0  0  0
 73 75  2  0  0  0
 73 76  1  0  0  0
 73149  1  0  0  0
 74 84  1  0  0  0
 75 85  1  0  0  0
 76 86  1  0  0  0
 77 79  2  0  0  0
 77 80  1  0  0  0
 77 81  1  0  0  0
 78 81  1  0  0  0
 78 84  1  0  0  0
 78 87  2  0  0  0
 79150  1  0  0  0
 79151  1  0  0  0
 80 84  1  0  0  0
 80152  1  0  0  0
 80153  1  0  0  0
 81 82  1  0  0  0
 81 83  1  0  0  0
 82154  1  0  0  0
 82155  1  0  0  0
 82156  1  0  0  0
 83157  1  0  0  0
 83158  1  0  0  0
 85159  1  0  0  0
 85160  1  0  0  0
 86161  1  0  0  0
M  ISO  4   1 100  68 101  83 101  86 100
M  END
> <chiral flag>
0

> <version>
0

> <s_m_source_file>
/data/baiqing/PycharmProjects/Reinvent-master-3.2/result/LINK_invent/BTK/process_docking_weight1_custom_product_contain_oxygen_bond_distance_aromatic_linkinvent_7_9_3/rearranged_h_0076.sdf

> <i_m_source_file_index>
67

> <r_mmod_Potential_Energy-OPLS-2005>
353.685363769531

> <r_mmod_Stretch_Energy-OPLS-2005>
137.856063842773

> <r_mmod_Bend_Energy-OPLS-2005>
207.72541809082

> <r_mmod_Torsional_Energy-OPLS-2005>
299.237762451172

> <r_mmod_Improper_Torsional_Energy-OPLS-2005>
10.4853277206421

> <r_mmod_Van_der_Waal_Energy-OPLS-2005>
133.49983215332

> <r_mmod_Electrostatic_Energy-OPLS-2005>
-295.396942138672

> <r_mmod_Solvation_Energy-OPLS-2005>
-232.341278076172

> <b_mmod_Minimization_Converged-OPLS-2005>
0

> <r_mmod_RMS_Derivative-OPLS-2005>
2.1196277141571

$$$$
67
                    3D
 Structure written by MMmdl.
161170  0  0  1  0            999 V2000
  -30.5968  -14.6531   20.4992 C   0  0  0  0  0  0
  -30.4452  -12.4034   19.4357 C   0  0  0  0  0  0
  -29.5057  -12.5199   18.2130 C   0  0  0  0  0  0
  -28.0260  -12.3634   18.6238 C   0  0  0  0  0  0
  -27.6558  -13.2177   19.8656 C   0  0  2  0  0  0
  -28.7051  -13.0413   20.9862 C   0  0  0  0  0  0
  -25.2547  -13.8158   20.5602 C   0  0  0  0  0  0
  -24.1847  -13.0430   20.9213 C   0  0  0  0  0  0
  -24.6433  -11.6907   20.8781 C   0  0  0  0  0  0
  -23.9097  -10.4291   21.0429 C   0  0  0  0  0  0
  -24.3640   -9.4193   21.9197 C   0  0  0  0  0  0
  -23.6304   -8.2231   22.0745 C   0  0  0  0  0  0
  -22.4280   -8.0290   21.3544 C   0  0  0  0  0  0
  -21.9937   -9.0269   20.4645 C   0  0  0  0  0  0
  -22.7275  -10.2142   20.3067 C   0  0  0  0  0  0
  -21.6849   -6.0750   22.5293 C   0  0  0  0  0  0
  -21.4009   -6.5647   23.8229 C   0  0  0  0  0  0
  -21.3651   -5.6798   24.9191 C   0  0  0  0  0  0
  -21.6039   -4.3061   24.7239 C   0  0  0  0  0  0
  -21.8818   -3.8156   23.4358 C   0  0  0  0  0  0
  -21.9188   -4.6976   22.3414 C   0  0  0  0  0  0
  -22.7865  -13.5214   21.1869 C   0  0  0  0  0  0
  -22.1654   -4.2157   21.0992 F   0  0  0  0  0  0
  -21.5632   -3.4541   25.7749 F   0  0  0  0  0  0
  -30.0185  -13.4107   20.4289 N   0  0  0  0  0  0
  -26.3017  -12.9356   20.3332 N   0  0  0  0  0  0
  -25.9365  -11.6514   20.5798 N   0  0  0  0  0  0
  -22.0522  -12.8210   22.0438 N   0  0  0  0  0  0
  -25.4144  -15.1864   20.3794 N   0  0  0  0  0  0
  -31.7445  -14.8522   20.0867 O   0  0  0  0  0  0
  -21.6638   -6.8891   21.4251 O   0  0  0  0  0  0
  -22.3539  -14.5506   20.6697 O   0  0  0  0  0  0
  -24.6261  -31.8605   23.2031 C   0  0  0  0  0  0
  -25.9113  -32.4787   23.8338 C   0  0  1  0  0  0
  -27.2144  -27.3092   20.1127 C   0  0  0  0  0  0
  -25.5917  -33.8585   24.2251 N   0  0  0  0  0  0
  -23.4175  -30.4877   21.5467 C   0  0  2  0  0  0
  -24.8615  -28.9434   20.1083 C   0  0  0  0  0  0
  -22.7461  -29.4652   22.4929 C   0  0  0  0  0  0
  -18.0304  -28.1414   22.8500 C   0  0  0  0  0  0
  -24.1484  -36.7272   23.2641 C   0  0  0  0  0  0
  -25.9616  -30.7857   21.3792 C   0  0  0  0  0  0
  -26.0315  -29.4151   20.7156 C   0  0  0  0  0  0
  -27.2097  -28.6094   20.7090 C   0  0  0  0  0  0
  -26.0215  -26.8950   19.4754 C   0  0  0  0  0  0
  -24.8591  -27.6889   19.4793 C   0  0  0  0  0  0
  -23.6312  -29.8269   20.1597 C   0  0  0  0  0  0
  -25.4115  -36.3071   24.0315 C   0  0  1  0  0  0
  -20.5896  -28.3705   23.1298 C   0  0  2  0  0  0
  -20.6803  -26.9434   22.5421 C   0  0  0  0  0  0
  -19.5781  -26.6404   21.5233 C   0  0  0  0  0  0
  -18.1962  -26.7966   22.1630 C   0  0  0  0  0  0
  -19.1555  -28.8876   23.2902 C   0  0  0  0  0  0
  -18.9487  -30.1479   23.8908 C   0  0  0  0  0  0
  -17.6493  -30.6617   24.0587 C   0  0  0  0  0  0
  -25.9048  -34.9460   23.5082 C   0  0  0  0  0  0
  -16.5381  -29.9127   23.6345 C   0  0  0  0  0  0
  -16.7294  -28.6539   23.0361 C   0  0  0  0  0  0
  -26.4480  -31.6617   25.0718 C   0  0  0  0  0  0
  -25.3692  -31.3805   26.1434 C   0  0  0  0  0  0
  -27.0309  -30.3025   24.6200 C   0  0  0  0  0  0
  -27.6025  -32.4350   25.7509 C   0  0  0  0  0  0
  -27.5571  -37.1790   24.8468 C   0  0  0  0  0  0
  -21.4179  -29.3060   22.3675 N   0  0  0  0  0  0
  -26.4282  -37.3773   23.9412 N   0  0  0  0  0  0
  -24.6874  -31.0602   22.0992 N   0  0  0  0  0  0
  -23.4199  -28.8197   23.3002 O   0  0  0  0  0  0
  -28.3290  -26.4537   20.1764 O   0  0  0  0  0  0
  -26.5645  -34.8928   22.4661 O   0  0  0  0  0  0
  -23.5424  -32.1421   23.7350 O   0  0  0  0  0  0
  -30.3608  -19.3616   19.9156 C   0  0  0  0  0  0
  -30.5148  -17.9341   19.9672 C   0  0  0  0  0  0
  -28.6807  -19.2390   21.6244 C   0  0  0  0  0  0
  -28.8079  -17.8218   21.6667 C   0  0  0  0  0  0
  -29.4465  -20.0599   20.7590 C   0  0  0  0  0  0
  -29.7433  -17.1208   20.8496 C   0  0  0  0  0  0
  -29.1905  -22.4822   19.8940 C   0  0  0  0  0  0
  -29.1069  -23.6896   21.9478 C   0  0  0  0  0  0
  -29.3337  -22.1787   22.1703 C   0  0  0  0  0  0
  -29.2446  -23.9635   20.4388 C   0  0  1  0  0  0
  -27.9237  -17.0677   22.6465 C   0  0  0  0  0  0
  -30.6392  -24.5344   20.1080 C   0  0  0  0  0  0
  -28.1499  -25.0011   19.9029 C   0  0  0  0  0  0
  -29.3412  -21.5277   20.8605 N   0  0  0  0  0  0
  -29.7709  -15.6550   20.9395 N   0  0  0  0  0  0
  -29.0530  -22.2392   18.6903 O   0  0  0  0  0  0
  -31.4817  -12.5467   19.1257 H   0  0  0  0  0  0
  -30.3980  -11.3997   19.8619 H   0  0  0  0  0  0
  -29.7645  -11.7723   17.4617 H   0  0  0  0  0  0
  -29.6488  -13.4907   17.7360 H   0  0  0  0  0  0
  -27.8492  -11.3071   18.8318 H   0  0  0  0  0  0
  -27.3745  -12.6174   17.7865 H   0  0  0  0  0  0
  -27.6788  -14.2597   19.5449 H   0  0  0  0  0  0
  -28.7222  -12.0031   21.3214 H   0  0  0  0  0  0
  -28.4489  -13.6287   21.8690 H   0  0  0  0  0  0
  -25.2781   -9.5656   22.4783 H   0  0  0  0  0  0
  -24.0008   -7.4606   22.7452 H   0  0  0  0  0  0
  -21.0871   -8.8809   19.8942 H   0  0  0  0  0  0
  -22.3747  -10.9696   19.6181 H   0  0  0  0  0  0
  -21.2000   -7.6151   23.9743 H   0  0  0  0  0  0
  -21.1462   -6.0519   25.9092 H   0  0  0  0  0  0
  -22.0598   -2.7616   23.2862 H   0  0  0  0  0  0
  -22.4150  -11.9877   22.4830 H   0  0  0  0  0  0
  -21.1132  -13.1213   22.2632 H   0  0  0  0  0  0
  -24.6037  -15.7966   20.3836 H   0  0  0  0  0  0
  -26.2135  -15.6004   19.9154 H   0  0  0  0  0  0
  -26.7174  -32.5424   23.1067 H   0  0  0  0  0  0
  -25.0022  -33.9745   25.0366 H   0  0  0  0  0  0
  -22.7119  -31.3100   21.4068 H   0  0  0  0  0  0
  -23.3758  -35.9588   23.3312 H   0  0  0  0  0  0
  -24.3572  -36.8889   22.2054 H   0  0  0  0  0  0
  -23.7242  -37.6467   23.6670 H   0  0  0  0  0  0
  -26.1020  -31.5529   20.6161 H   0  0  0  0  0  0
  -26.8391  -30.8227   22.0129 H   0  0  0  0  0  0
  -28.1048  -28.9669   21.1970 H   0  0  0  0  0  0
  -25.9546  -25.9398   18.9758 H   0  0  0  0  0  0
  -23.9618  -27.3230   18.9989 H   0  0  0  0  0  0
  -23.7526  -30.6080   19.4093 H   0  0  0  0  0  0
  -22.7493  -29.2605   19.8536 H   0  0  0  0  0  0
  -25.1309  -36.1888   25.0806 H   0  0  0  0  0  0
  -20.9989  -28.3281   24.1417 H   0  0  0  0  0  0
  -20.5751  -26.2304   23.3608 H   0  0  0  0  0  0
  -21.6673  -26.7512   22.1183 H   0  0  0  0  0  0
  -19.6952  -25.6314   21.1266 H   0  0  0  0  0  0
  -19.6732  -27.3215   20.6764 H   0  0  0  0  0  0
  -17.4232  -26.6721   21.4031 H   0  0  0  0  0  0
  -18.0349  -26.0116   22.9023 H   0  0  0  0  0  0
  -19.7966  -30.7300   24.2256 H   0  0  0  0  0  0
  -17.5067  -31.6302   24.5177 H   0  0  0  0  0  0
  -15.5386  -30.3046   23.7686 H   0  0  0  0  0  0
  -15.8686  -28.0886   22.7052 H   0  0  0  0  0  0
  -24.5852  -30.7171   25.7785 H   0  0  0  0  0  0
  -24.8904  -32.3001   26.4803 H   0  0  0  0  0  0
  -25.7973  -30.9030   27.0255 H   0  0  0  0  0  0
  -26.2893  -29.6803   24.1173 H   0  0  0  0  0  0
  -27.3952  -29.7254   25.4715 H   0  0  0  0  0  0
  -27.8793  -30.4319   23.9469 H   0  0  0  0  0  0
  -27.2618  -33.3661   26.2057 H   0  0  0  0  0  0
  -28.3855  -32.6887   25.0352 H   0  0  0  0  0  0
  -28.0655  -31.8493   26.5461 H   0  0  0  0  0  0
  -28.2577  -38.0099   24.7507 H   0  0  0  0  0  0
  -28.1069  -36.2619   24.6282 H   0  0  0  0  0  0
  -27.2286  -37.1426   25.8874 H   0  0  0  0  0  0
  -20.9335  -29.8748   21.6871 H   0  0  0  0  0  0
  -26.0143  -38.2827   24.1460 H   0  0  0  0  0  0
  -30.9875  -19.9284   19.2403 H   0  0  0  0  0  0
  -31.2372  -17.4713   19.3102 H   0  0  0  0  0  0
  -27.9632  -19.7076   22.2823 H   0  0  0  0  0  0
  -29.8113  -24.2758   22.5383 H   0  0  0  0  0  0
  -28.1103  -23.9603   22.2998 H   0  0  0  0  0  0
  -28.5517  -21.7795   22.8158 H   0  0  0  0  0  0
  -30.2897  -22.0002   22.6652 H   0  0  0  0  0  0
  -28.5040  -16.7783   23.5230 H   0  0  0  0  0  0
  -27.4927  -16.1727   22.1982 H   0  0  0  0  0  0
  -27.0929  -17.6878   22.9855 H   0  0  0  0  0  0
  -31.4383  -23.8422   20.3775 H   0  0  0  0  0  0
  -30.8210  -25.4613   20.6506 H   0  0  0  0  0  0
  -30.7329  -24.7519   19.0438 H   0  0  0  0  0  0
  -27.1902  -24.6687   20.3018 H   0  0  0  0  0  0
  -28.0729  -24.8875   18.8210 H   0  0  0  0  0  0
  -28.9327  -15.2723   21.3474 H   0  0  0  0  0  0
  1 25  1  0  0  0
  1 30  2  0  0  0
  1 85  1  0  0  0
  2  3  1  0  0  0
  2 25  1  0  0  0
  2 87  1  0  0  0
  2 88  1  0  0  0
  3  4  1  0  0  0
  3 89  1  0  0  0
  3 90  1  0  0  0
  4  5  1  0  0  0
  4 91  1  0  0  0
  4 92  1  0  0  0
  5  6  1  0  0  0
  5 26  1  0  0  0
  5 93  1  0  0  0
  6 25  1  0  0  0
  6 94  1  0  0  0
  6 95  1  0  0  0
  7  8  2  0  0  0
  7 26  1  0  0  0
  7 29  1  0  0  0
  8  9  1  0  0  0
  8 22  1  0  0  0
  9 10  1  0  0  0
  9 27  2  0  0  0
 10 11  2  0  0  0
 10 15  1  0  0  0
 11 12  1  0  0  0
 11 96  1  0  0  0
 12 13  2  0  0  0
 12 97  1  0  0  0
 13 14  1  0  0  0
 13 31  1  0  0  0
 14 15  2  0  0  0
 14 98  1  0  0  0
 15 99  1  0  0  0
 16 17  2  0  0  0
 16 21  1  0  0  0
 16 31  1  0  0  0
 17 18  1  0  0  0
 17100  1  0  0  0
 18 19  2  0  0  0
 18101  1  0  0  0
 19 20  1  0  0  0
 19 24  1  0  0  0
 20 21  2  0  0  0
 20102  1  0  0  0
 21 23  1  0  0  0
 22 28  1  0  0  0
 22 32  2  0  0  0
 26 27  1  0  0  0
 28103  1  0  0  0
 28104  1  0  0  0
 29105  1  0  0  0
 29106  1  0  0  0
 33 34  1  0  0  0
 33 66  1  0  0  0
 33 70  2  0  0  0
 34 36  1  0  0  0
 34 59  1  0  0  0
 34107  1  0  0  0
 35 44  2  0  0  0
 35 45  1  0  0  0
 35 68  1  0  0  0
 36 56  1  0  0  0
 36108  1  0  0  0
 37 39  1  0  0  0
 37 47  1  0  0  0
 37 66  1  0  0  0
 37109  1  0  0  0
 38 43  2  0  0  0
 38 46  1  0  0  0
 38 47  1  0  0  0
 39 64  1  0  0  0
 39 67  2  0  0  0
 40 52  1  0  0  0
 40 53  2  0  0  0
 40 58  1  0  0  0
 41110  1  0  0  0
 41111  1  0  0  0
 41112  1  0  0  0
 41 48  1  0  0  0
 42 43  1  0  0  0
 42 66  1  0  0  0
 42113  1  0  0  0
 42114  1  0  0  0
 43 44  1  0  0  0
 44115  1  0  0  0
 45 46  2  0  0  0
 45116  1  0  0  0
 46117  1  0  0  0
 47118  1  0  0  0
 47119  1  0  0  0
 48 56  1  0  0  0
 48 65  1  0  0  0
 48120  1  0  0  0
 49 50  1  0  0  0
 49 53  1  0  0  0
 49 64  1  0  0  0
 49121  1  0  0  0
 50 51  1  0  0  0
 50122  1  0  0  0
 50123  1  0  0  0
 51 52  1  0  0  0
 51124  1  0  0  0
 51125  1  0  0  0
 52126  1  0  0  0
 52127  1  0  0  0
 53 54  1  0  0  0
 54 55  2  0  0  0
 54128  1  0  0  0
 55 57  1  0  0  0
 55129  1  0  0  0
 56 69  2  0  0  0
 57 58  2  0  0  0
 57130  1  0  0  0
 58131  1  0  0  0
 59 60  1  0  0  0
 59 61  1  0  0  0
 59 62  1  0  0  0
 60132  1  0  0  0
 60133  1  0  0  0
 60134  1  0  0  0
 61135  1  0  0  0
 61136  1  0  0  0
 61137  1  0  0  0
 62138  1  0  0  0
 62139  1  0  0  0
 62140  1  0  0  0
 63 65  1  0  0  0
 63141  1  0  0  0
 63142  1  0  0  0
 63143  1  0  0  0
 64144  1  0  0  0
 65145  1  0  0  0
 68 83  1  0  0  0
 71 72  2  0  0  0
 71 75  1  0  0  0
 71146  1  0  0  0
 72 76  1  0  0  0
 72147  1  0  0  0
 73 74  1  0  0  0
 73 75  2  0  0  0
 73148  1  0  0  0
 74 76  2  0  0  0
 74 81  1  0  0  0
 75 84  1  0  0  0
 76 85  1  0  0  0
 77 80  1  0  0  0
 77 84  1  0  0  0
 77 86  2  0  0  0
 78 79  1  0  0  0
 78 80  1  0  0  0
 78149  1  0  0  0
 78150  1  0  0  0
 79 84  1  0  0  0
 79151  1  0  0  0
 79152  1  0  0  0
 80 82  1  0  0  0
 80 83  1  0  0  0
 81153  1  0  0  0
 81154  1  0  0  0
 81155  1  0  0  0
 82156  1  0  0  0
 82157  1  0  0  0
 82158  1  0  0  0
 83159  1  0  0  0
 83160  1  0  0  0
 85161  1  0  0  0
M  ISO  4   1 100  68 101  83 101  85 100
M  END
> <chiral flag>
0

> <version>
0

> <s_m_source_file>
/data/baiqing/PycharmProjects/Reinvent-master-3.2/result/LINK_invent/BTK/process_docking_weight1_custom_product_contain_oxygen_bond_distance_aromatic_linkinvent_7_9_3/rearranged_h_0076.sdf

> <i_m_source_file_index>
68

> <r_mmod_Potential_Energy-OPLS-2005>
167.794799804688

> <r_mmod_Stretch_Energy-OPLS-2005>
84.8404998779297

> <r_mmod_Bend_Energy-OPLS-2005>
168.040679931641

> <r_mmod_Torsional_Energy-OPLS-2005>
293.046722412109

> <r_mmod_Improper_Torsional_Energy-OPLS-2005>
5.04230642318726

> <r_mmod_Van_der_Waal_Energy-OPLS-2005>
139.96728515625

> <r_mmod_Electrostatic_Energy-OPLS-2005>
-362.898529052734

> <r_mmod_Solvation_Energy-OPLS-2005>
-213.900054931641

> <b_mmod_Minimization_Converged-OPLS-2005>
0

> <r_mmod_RMS_Derivative-OPLS-2005>
2.57225298881531

$$$$
68
                    3D
 Structure written by MMmdl.
167176  0  0  1  0            999 V2000
  -30.6481  -14.6533   20.4362 C   0  0  0  0  0  0
  -30.4218  -12.3826   19.4748 C   0  0  0  0  0  0
  -29.5039  -12.4745   18.2358 C   0  0  0  0  0  0
  -28.0259  -12.3327   18.6422 C   0  0  0  0  0  0
  -27.6442  -13.2255   19.8538 C   0  0  2  0  0  0
  -28.6891  -13.1351   20.9888 C   0  0  0  0  0  0
  -25.2532  -13.8194   20.5706 C   0  0  0  0  0  0
  -24.1815  -13.0444   20.9198 C   0  0  0  0  0  0
  -24.6385  -11.6916   20.8738 C   0  0  0  0  0  0
  -23.9054  -10.4296   21.0402 C   0  0  0  0  0  0
  -24.3607   -9.4212   21.9183 C   0  0  0  0  0  0
  -23.6286   -8.2250   22.0755 C   0  0  0  0  0  0
  -22.4275   -8.0282   21.3542 C   0  0  0  0  0  0
  -21.9908   -9.0250   20.4639 C   0  0  0  0  0  0
  -22.7227  -10.2129   20.3050 C   0  0  0  0  0  0
  -21.6864   -6.0725   22.5275 C   0  0  0  0  0  0
  -21.4023   -6.5631   23.8206 C   0  0  0  0  0  0
  -21.3665   -5.6789   24.9168 C   0  0  0  0  0  0
  -21.6048   -4.3052   24.7226 C   0  0  0  0  0  0
  -21.8822   -3.8139   23.4349 C   0  0  0  0  0  0
  -21.9199   -4.6954   22.3401 C   0  0  0  0  0  0
  -22.7844  -13.5224   21.1864 C   0  0  0  0  0  0
  -22.1666   -4.2132   21.0981 F   0  0  0  0  0  0
  -21.5625   -3.4538   25.7741 F   0  0  0  0  0  0
  -30.0035  -13.4450   20.4117 N   0  0  0  0  0  0
  -26.2950  -12.9389   20.3302 N   0  0  0  0  0  0
  -25.9315  -11.6537   20.5767 N   0  0  0  0  0  0
  -22.0494  -12.8194   22.0403 N   0  0  0  0  0  0
  -25.4238  -15.1919   20.4134 N   0  0  0  0  0  0
  -31.8476  -14.7311   20.1656 O   0  0  0  0  0  0
  -21.6648   -6.8869   21.4236 O   0  0  0  0  0  0
  -22.3527  -14.5532   20.6715 O   0  0  0  0  0  0
  -24.6263  -31.8596   23.2047 C   0  0  0  0  0  0
  -25.9110  -32.4778   23.8371 C   0  0  1  0  0  0
  -27.2164  -27.3048   20.1098 C   0  0  0  0  0  0
  -25.5928  -33.8582   24.2292 N   0  0  0  0  0  0
  -23.4199  -30.4857   21.5473 C   0  0  2  0  0  0
  -24.8638  -28.9447   20.1097 C   0  0  0  0  0  0
  -22.7479  -29.4618   22.4930 C   0  0  0  0  0  0
  -18.0281  -28.1381   22.8484 C   0  0  0  0  0  0
  -24.1488  -36.7289   23.2638 C   0  0  0  0  0  0
  -25.9637  -30.7848   21.3801 C   0  0  0  0  0  0
  -26.0334  -29.4126   20.7196 C   0  0  0  0  0  0
  -27.2077  -28.6015   20.7164 C   0  0  0  0  0  0
  -26.0148  -26.8954   19.4822 C   0  0  0  0  0  0
  -24.8563  -27.6906   19.4863 C   0  0  0  0  0  0
  -23.6340  -29.8268   20.1609 C   0  0  0  0  0  0
  -25.4119  -36.3081   24.0327 C   0  0  1  0  0  0
  -20.5881  -28.3685   23.1278 C   0  0  2  0  0  0
  -20.6770  -26.9408   22.5403 C   0  0  0  0  0  0
  -19.5749  -26.6379   21.5207 C   0  0  0  0  0  0
  -18.1929  -26.7927   22.1623 C   0  0  0  0  0  0
  -19.1532  -28.8848   23.2875 C   0  0  0  0  0  0
  -18.9459  -30.1446   23.8900 C   0  0  0  0  0  0
  -17.6457  -30.6583   24.0557 C   0  0  0  0  0  0
  -25.9052  -34.9449   23.5105 C   0  0  0  0  0  0
  -16.5351  -29.9079   23.6327 C   0  0  0  0  0  0
  -16.7269  -28.6491   23.0360 C   0  0  0  0  0  0
  -26.4495  -31.6587   25.0746 C   0  0  0  0  0  0
  -25.3727  -31.3709   26.1468 C   0  0  0  0  0  0
  -27.0339  -30.3009   24.6203 C   0  0  0  0  0  0
  -27.6045  -32.4325   25.7530 C   0  0  0  0  0  0
  -27.5584  -37.1804   24.8460 C   0  0  0  0  0  0
  -21.4191  -29.3042   22.3677 N   0  0  0  0  0  0
  -26.4297  -37.3780   23.9404 N   0  0  0  0  0  0
  -24.6891  -31.0601   22.0998 N   0  0  0  0  0  0
  -23.4195  -28.8150   23.3011 O   0  0  0  0  0  0
  -28.3407  -26.4613   20.1946 O   0  0  0  0  0  0
  -26.5623  -34.8913   22.4673 O   0  0  0  0  0  0
  -23.5426  -32.1397   23.7367 O   0  0  0  0  0  0
  -30.3359  -19.6254   18.5140 C   0  0  0  0  0  0
  -30.6756  -18.4299   17.8711 C   0  0  0  0  0  0
  -29.6681  -18.3483   20.4785 C   0  0  0  0  0  0
  -29.8184  -19.6305   19.8228 C   0  0  0  0  0  0
  -30.5447  -17.1767   18.5098 C   0  0  0  0  0  0
  -30.0569  -17.0964   19.8538 C   0  0  0  0  0  0
  -28.7510  -23.8085   20.1078 C   0  0  0  0  0  0
  -30.0301  -23.3556   20.2863 C   0  0  0  0  0  0
  -27.6894  -22.8086   20.2878 C   0  0  0  0  0  0
  -30.3882  -21.9242   20.5495 C   0  0  0  0  0  0
  -26.4021  -23.1813   20.3811 C   0  0  0  0  0  0
  -31.8204  -15.7812   16.9020 C   0  0  0  0  0  0
  -28.0136  -21.3078   20.3836 C   0  0  0  0  0  0
  -31.2228  -24.2909   20.0879 C   0  0  0  0  0  0
  -31.8730  -14.4112   16.2396 C   0  0  0  0  0  0
  -28.4567  -25.2076   19.4147 C   0  0  0  0  0  0
  -29.4407  -20.9566   20.3331 N   0  0  0  0  0  0
  -30.7913  -16.0083   17.7366 N   0  0  0  0  0  0
  -29.8701  -15.7870   20.5118 N   0  0  0  0  0  0
  -31.5291  -21.5916   20.8925 O   0  0  0  0  0  0
  -32.7070  -16.6022   16.6550 O   0  0  0  0  0  0
  -31.4691  -12.4719   19.1806 H   0  0  0  0  0  0
  -30.3283  -11.4044   19.9508 H   0  0  0  0  0  0
  -29.7670  -11.7024   17.5115 H   0  0  0  0  0  0
  -29.6460  -13.4279   17.7319 H   0  0  0  0  0  0
  -27.8531  -11.2838   18.8846 H   0  0  0  0  0  0
  -27.3797  -12.5547   17.7923 H   0  0  0  0  0  0
  -27.6447  -14.2508   19.4849 H   0  0  0  0  0  0
  -28.6959  -12.1368   21.4290 H   0  0  0  0  0  0
  -28.4449  -13.8236   21.8001 H   0  0  0  0  0  0
  -25.2751   -9.5694   22.4747 H   0  0  0  0  0  0
  -23.9993   -7.4653   22.7479 H   0  0  0  0  0  0
  -21.0846   -8.8759   19.8943 H   0  0  0  0  0  0
  -22.3686  -10.9661   19.6158 H   0  0  0  0  0  0
  -21.2014   -7.6139   23.9692 H   0  0  0  0  0  0
  -21.1490   -6.0527   25.9062 H   0  0  0  0  0  0
  -22.0596   -2.7598   23.2859 H   0  0  0  0  0  0
  -22.4131  -11.9839   22.4746 H   0  0  0  0  0  0
  -21.1107  -13.1199   22.2616 H   0  0  0  0  0  0
  -24.6555  -15.8447   20.5268 H   0  0  0  0  0  0
  -26.2665  -15.6328   20.0685 H   0  0  0  0  0  0
  -26.7181  -32.5440   23.1121 H   0  0  0  0  0  0
  -25.0072  -33.9737   25.0434 H   0  0  0  0  0  0
  -22.7134  -31.3061   21.4077 H   0  0  0  0  0  0
  -23.3757  -35.9613   23.3291 H   0  0  0  0  0  0
  -24.3576  -36.8922   22.2053 H   0  0  0  0  0  0
  -23.7234  -37.6484   23.6672 H   0  0  0  0  0  0
  -26.1007  -31.5499   20.6143 H   0  0  0  0  0  0
  -26.8422  -30.8299   22.0118 H   0  0  0  0  0  0
  -28.1034  -28.9541   21.2087 H   0  0  0  0  0  0
  -25.8979  -25.9409   19.0013 H   0  0  0  0  0  0
  -23.9566  -27.3211   19.0136 H   0  0  0  0  0  0
  -23.7571  -30.6059   19.4077 H   0  0  0  0  0  0
  -22.7530  -29.2598   19.8544 H   0  0  0  0  0  0
  -25.1299  -36.1943   25.0823 H   0  0  0  0  0  0
  -20.9971  -28.3264   24.1401 H   0  0  0  0  0  0
  -20.5669  -26.2302   23.3602 H   0  0  0  0  0  0
  -21.6642  -26.7433   22.1210 H   0  0  0  0  0  0
  -19.6913  -25.6286   21.1242 H   0  0  0  0  0  0
  -19.6690  -27.3185   20.6734 H   0  0  0  0  0  0
  -17.4195  -26.6662   21.4022 H   0  0  0  0  0  0
  -18.0332  -26.0064   22.9015 H   0  0  0  0  0  0
  -19.7929  -30.7258   24.2288 H   0  0  0  0  0  0
  -17.5007  -31.6266   24.5156 H   0  0  0  0  0  0
  -15.5350  -30.2987   23.7634 H   0  0  0  0  0  0
  -15.8669  -28.0803   22.7098 H   0  0  0  0  0  0
  -24.5908  -30.7060   25.7783 H   0  0  0  0  0  0
  -24.8920  -32.2868   26.4915 H   0  0  0  0  0  0
  -25.8056  -30.8864   27.0229 H   0  0  0  0  0  0
  -26.2911  -29.6774   24.1212 H   0  0  0  0  0  0
  -27.4004  -29.7258   25.4714 H   0  0  0  0  0  0
  -27.8800  -30.4288   23.9450 H   0  0  0  0  0  0
  -27.2644  -33.3611   26.2129 H   0  0  0  0  0  0
  -28.3861  -32.6911   25.0375 H   0  0  0  0  0  0
  -28.0715  -31.8443   26.5438 H   0  0  0  0  0  0
  -28.2584  -38.0115   24.7525 H   0  0  0  0  0  0
  -28.1092  -36.2644   24.6269 H   0  0  0  0  0  0
  -27.2290  -37.1436   25.8858 H   0  0  0  0  0  0
  -20.9362  -29.8788   21.6910 H   0  0  0  0  0  0
  -26.0168  -38.2850   24.1419 H   0  0  0  0  0  0
  -30.4442  -20.5520   17.9673 H   0  0  0  0  0  0
  -31.0143  -18.4924   16.8465 H   0  0  0  0  0  0
  -29.2568  -18.3294   21.4778 H   0  0  0  0  0  0
  -26.0942  -24.2141   20.3539 H   0  0  0  0  0  0
  -25.6221  -22.4448   20.5141 H   0  0  0  0  0  0
  -27.4965  -20.7890   19.5759 H   0  0  0  0  0  0
  -27.6060  -20.9176   21.3178 H   0  0  0  0  0  0
  -30.9633  -25.3326   20.2740 H   0  0  0  0  0  0
  -31.6071  -24.2058   19.0714 H   0  0  0  0  0  0
  -32.0356  -24.0592   20.7785 H   0  0  0  0  0  0
  -32.0684  -13.6358   16.9801 H   0  0  0  0  0  0
  -32.6691  -14.3721   15.4950 H   0  0  0  0  0  0
  -30.9314  -14.1887   15.7367 H   0  0  0  0  0  0
  -27.6456  -25.0440   18.7143 H   0  0  0  0  0  0
  -29.2739  -25.3943   18.7185 H   0  0  0  0  0  0
  -30.1865  -15.2230   17.9208 H   0  0  0  0  0  0
  -28.9684  -15.6500   20.9427 H   0  0  0  0  0  0
  1 25  1  0  0  0
  1 30  2  0  0  0
  1 89  1  0  0  0
  2  3  1  0  0  0
  2 25  1  0  0  0
  2 92  1  0  0  0
  2 93  1  0  0  0
  3  4  1  0  0  0
  3 94  1  0  0  0
  3 95  1  0  0  0
  4  5  1  0  0  0
  4 96  1  0  0  0
  4 97  1  0  0  0
  5  6  1  0  0  0
  5 26  1  0  0  0
  5 98  1  0  0  0
  6 25  1  0  0  0
  6 99  1  0  0  0
  6100  1  0  0  0
  7  8  2  0  0  0
  7 26  1  0  0  0
  7 29  1  0  0  0
  8  9  1  0  0  0
  8 22  1  0  0  0
  9 10  1  0  0  0
  9 27  2  0  0  0
 10 11  2  0  0  0
 10 15  1  0  0  0
 11 12  1  0  0  0
 11101  1  0  0  0
 12 13  2  0  0  0
 12102  1  0  0  0
 13 14  1  0  0  0
 13 31  1  0  0  0
 14 15  2  0  0  0
 14103  1  0  0  0
 15104  1  0  0  0
 16 17  2  0  0  0
 16 21  1  0  0  0
 16 31  1  0  0  0
 17 18  1  0  0  0
 17105  1  0  0  0
 18 19  2  0  0  0
 18106  1  0  0  0
 19 20  1  0  0  0
 19 24  1  0  0  0
 20 21  2  0  0  0
 20107  1  0  0  0
 21 23  1  0  0  0
 22 28  1  0  0  0
 22 32  2  0  0  0
 26 27  1  0  0  0
 28108  1  0  0  0
 28109  1  0  0  0
 29110  1  0  0  0
 29111  1  0  0  0
 33 34  1  0  0  0
 33 66  1  0  0  0
 33 70  2  0  0  0
 34 36  1  0  0  0
 34 59  1  0  0  0
 34112  1  0  0  0
 35 44  2  0  0  0
 35 45  1  0  0  0
 35 68  1  0  0  0
 36 56  1  0  0  0
 36113  1  0  0  0
 37 39  1  0  0  0
 37 47  1  0  0  0
 37 66  1  0  0  0
 37114  1  0  0  0
 38 43  2  0  0  0
 38 46  1  0  0  0
 38 47  1  0  0  0
 39 64  1  0  0  0
 39 67  2  0  0  0
 40 52  1  0  0  0
 40 53  2  0  0  0
 40 58  1  0  0  0
 41115  1  0  0  0
 41116  1  0  0  0
 41117  1  0  0  0
 41 48  1  0  0  0
 42 43  1  0  0  0
 42 66  1  0  0  0
 42118  1  0  0  0
 42119  1  0  0  0
 43 44  1  0  0  0
 44120  1  0  0  0
 45 46  2  0  0  0
 45121  1  0  0  0
 46122  1  0  0  0
 47123  1  0  0  0
 47124  1  0  0  0
 48 56  1  0  0  0
 48 65  1  0  0  0
 48125  1  0  0  0
 49 50  1  0  0  0
 49 53  1  0  0  0
 49 64  1  0  0  0
 49126  1  0  0  0
 50 51  1  0  0  0
 50127  1  0  0  0
 50128  1  0  0  0
 51 52  1  0  0  0
 51129  1  0  0  0
 51130  1  0  0  0
 52131  1  0  0  0
 52132  1  0  0  0
 53 54  1  0  0  0
 54 55  2  0  0  0
 54133  1  0  0  0
 55 57  1  0  0  0
 55134  1  0  0  0
 56 69  2  0  0  0
 57 58  2  0  0  0
 57135  1  0  0  0
 58136  1  0  0  0
 59 60  1  0  0  0
 59 61  1  0  0  0
 59 62  1  0  0  0
 60137  1  0  0  0
 60138  1  0  0  0
 60139  1  0  0  0
 61140  1  0  0  0
 61141  1  0  0  0
 61142  1  0  0  0
 62143  1  0  0  0
 62144  1  0  0  0
 62145  1  0  0  0
 63 65  1  0  0  0
 63146  1  0  0  0
 63147  1  0  0  0
 63148  1  0  0  0
 64149  1  0  0  0
 65150  1  0  0  0
 68 86  1  0  0  0
 71 72  2  0  0  0
 71 74  1  0  0  0
 71151  1  0  0  0
 72 75  1  0  0  0
 72152  1  0  0  0
 73 74  2  0  0  0
 73 76  1  0  0  0
 73153  1  0  0  0
 74 87  1  0  0  0
 75 76  2  0  0  0
 75 88  1  0  0  0
 76 89  1  0  0  0
 77 78  2  0  0  0
 77 79  1  0  0  0
 77 86  1  0  0  0
 78 80  1  0  0  0
 78 84  1  0  0  0
 79 81  2  0  0  0
 79 83  1  0  0  0
 80 87  1  0  0  0
 80 90  2  0  0  0
 81154  1  0  0  0
 81155  1  0  0  0
 82 85  1  0  0  0
 82 88  1  0  0  0
 82 91  2  0  0  0
 83 87  1  0  0  0
 83156  1  0  0  0
 83157  1  0  0  0
 84158  1  0  0  0
 84159  1  0  0  0
 84160  1  0  0  0
 85161  1  0  0  0
 85162  1  0  0  0
 85163  1  0  0  0
 86164  1  0  0  0
 86165  1  0  0  0
 88166  1  0  0  0
 89167  1  0  0  0
M  ISO  4   1 100  68 101  86 101  89 100
M  END
> <chiral flag>
0

> <version>
0

> <s_m_source_file>
/data/baiqing/PycharmProjects/Reinvent-master-3.2/result/LINK_invent/BTK/process_docking_weight1_custom_product_contain_oxygen_bond_distance_aromatic_linkinvent_7_9_3/rearranged_h_0076.sdf

> <i_m_source_file_index>
69

> <r_mmod_Potential_Energy-OPLS-2005>
156.785858154297

> <r_mmod_Stretch_Energy-OPLS-2005>
97.5457382202148

> <r_mmod_Bend_Energy-OPLS-2005>
168.310836791992

> <r_mmod_Torsional_Energy-OPLS-2005>
338.845825195312

> <r_mmod_Improper_Torsional_Energy-OPLS-2005>
8.60864639282227

> <r_mmod_Van_der_Waal_Energy-OPLS-2005>
172.671600341797

> <r_mmod_Electrostatic_Energy-OPLS-2005>
-433.607360839844

> <r_mmod_Solvation_Energy-OPLS-2005>
-254.003494262695

> <b_mmod_Minimization_Converged-OPLS-2005>
0

> <r_mmod_RMS_Derivative-OPLS-2005>
1.61876356601715

$$$$
69
                    3D
 Structure written by MMmdl.
164173  0  0  1  0            999 V2000
  -30.6039  -14.5486   20.5584 C   0  0  0  0  0  0
  -30.4415  -12.3570   19.4151 C   0  0  0  0  0  0
  -29.4970  -12.5098   18.2011 C   0  0  0  0  0  0
  -28.0188  -12.3516   18.6172 C   0  0  0  0  0  0
  -27.6541  -13.1926   19.8695 C   0  0  2  0  0  0
  -28.6974  -12.9728   20.9862 C   0  0  0  0  0  0
  -25.2584  -13.8122   20.5659 C   0  0  0  0  0  0
  -24.1824  -13.0422   20.9184 C   0  0  0  0  0  0
  -24.6358  -11.6877   20.8749 C   0  0  0  0  0  0
  -23.9019  -10.4276   21.0428 C   0  0  0  0  0  0
  -24.3594   -9.4200   21.9201 C   0  0  0  0  0  0
  -23.6281   -8.2221   22.0758 C   0  0  0  0  0  0
  -22.4263   -8.0261   21.3553 C   0  0  0  0  0  0
  -21.9893   -9.0229   20.4646 C   0  0  0  0  0  0
  -22.7203  -10.2124   20.3062 C   0  0  0  0  0  0
  -21.6843   -6.0723   22.5278 C   0  0  0  0  0  0
  -21.4000   -6.5640   23.8206 C   0  0  0  0  0  0
  -21.3667   -5.6790   24.9168 C   0  0  0  0  0  0
  -21.6039   -4.3046   24.7220 C   0  0  0  0  0  0
  -21.8829   -3.8148   23.4337 C   0  0  0  0  0  0
  -21.9191   -4.6956   22.3392 C   0  0  0  0  0  0
  -22.7854  -13.5250   21.1860 C   0  0  0  0  0  0
  -22.1666   -4.2155   21.0961 F   0  0  0  0  0  0
  -21.5637   -3.4534   25.7726 F   0  0  0  0  0  0
  -30.0139  -13.3285   20.4306 N   0  0  0  0  0  0
  -26.2975  -12.9242   20.3314 N   0  0  0  0  0  0
  -25.9277  -11.6440   20.5755 N   0  0  0  0  0  0
  -22.0482  -12.8222   22.0402 N   0  0  0  0  0  0
  -25.4330  -15.1822   20.4034 N   0  0  0  0  0  0
  -31.7673  -14.7742   20.2059 O   0  0  0  0  0  0
  -21.6628   -6.8867   21.4238 O   0  0  0  0  0  0
  -22.3552  -14.5562   20.6718 O   0  0  0  0  0  0
  -24.6149  -31.8615   23.2024 C   0  0  0  0  0  0
  -25.9018  -32.4818   23.8323 C   0  0  1  0  0  0
  -27.2292  -27.3890   20.1010 C   0  0  0  0  0  0
  -25.5873  -33.8638   24.2249 N   0  0  0  0  0  0
  -23.4043  -30.4846   21.5458 C   0  0  2  0  0  0
  -24.8477  -28.9438   20.1056 C   0  0  0  0  0  0
  -22.7408  -29.4633   22.4983 C   0  0  0  0  0  0
  -18.0244  -28.1406   22.8494 C   0  0  0  0  0  0
  -24.1486  -36.7268   23.2644 C   0  0  0  0  0  0
  -25.9334  -30.8224   21.3511 C   0  0  0  0  0  0
  -26.0079  -29.4526   20.6973 C   0  0  0  0  0  0
  -27.1982  -28.6873   20.6800 C   0  0  0  0  0  0
  -26.0417  -26.8968   19.5185 C   0  0  0  0  0  0
  -24.8629  -27.6704   19.5095 C   0  0  0  0  0  0
  -23.6108  -29.8139   20.1625 C   0  0  0  0  0  0
  -25.4112  -36.3098   24.0324 C   0  0  1  0  0  0
  -20.5834  -28.3656   23.1341 C   0  0  2  0  0  0
  -20.6744  -26.9402   22.5424 C   0  0  0  0  0  0
  -19.5727  -26.6391   21.5238 C   0  0  0  0  0  0
  -18.1892  -26.7936   22.1641 C   0  0  0  0  0  0
  -19.1488  -28.8844   23.2928 C   0  0  0  0  0  0
  -18.9469  -30.1465   23.8919 C   0  0  0  0  0  0
  -17.6475  -30.6614   24.0604 C   0  0  0  0  0  0
  -25.9053  -34.9483   23.5073 C   0  0  0  0  0  0
  -16.5354  -29.9118   23.6368 C   0  0  0  0  0  0
  -16.7251  -28.6547   23.0361 C   0  0  0  0  0  0
  -26.4420  -31.6628   25.0672 C   0  0  0  0  0  0
  -25.3666  -31.3786   26.1415 C   0  0  0  0  0  0
  -27.0216  -30.3053   24.6029 C   0  0  0  0  0  0
  -27.5989  -32.4313   25.7460 C   0  0  0  0  0  0
  -27.5581  -37.1760   24.8464 C   0  0  0  0  0  0
  -21.4125  -29.3026   22.3760 N   0  0  0  0  0  0
  -26.4271  -37.3784   23.9445 N   0  0  0  0  0  0
  -24.6703  -31.0701   22.0918 N   0  0  0  0  0  0
  -23.4179  -28.8157   23.3014 O   0  0  0  0  0  0
  -28.4229  -26.6792   20.1575 O   0  0  0  0  0  0
  -26.5635  -34.8924   22.4649 O   0  0  0  0  0  0
  -23.5320  -32.1398   23.7365 O   0  0  0  0  0  0
  -29.7538  -19.3027   22.8010 C   0  0  0  0  0  0
  -29.4706  -18.0252   20.7449 C   0  0  0  0  0  0
  -30.2216  -16.9015   22.7834 C   0  0  0  0  0  0
  -29.4007  -19.2825   21.4256 C   0  0  0  0  0  0
  -30.1599  -18.1272   23.4752 C   0  0  0  0  0  0
  -29.8768  -16.8308   21.4165 C   0  0  0  0  0  0
  -28.5341  -22.7420   20.3068 C   0  0  0  0  0  0
  -28.3906  -21.6066   21.2375 C   0  0  0  0  0  0
  -28.2164  -24.0981   20.5892 C   0  0  0  0  0  0
  -29.1667  -22.1984   19.0428 C   0  0  0  0  0  0
  -29.3892  -20.7071   19.3276 C   0  0  0  0  0  0
  -28.3755  -25.1908   18.1680 C   0  0  0  0  0  0
  -30.2307  -25.4181   19.8304 C   0  0  0  0  0  0
  -28.6961  -25.3193   19.6753 C   0  0  0  0  0  0
  -29.0349  -20.5125   20.7290 N   0  0  0  0  0  0
  -30.4903  -18.1588   24.8312 N   0  0  0  0  0  0
  -29.7111  -15.5396   20.8205 N   0  0  0  0  0  0
  -27.6499  -24.5661   21.6026 O   0  5  0  0  0  0
  -27.7859  -21.6093   22.3133 O   0  0  0  0  0  0
  -31.4800  -12.5147   19.1141 H   0  0  0  0  0  0
  -30.3948  -11.3418   19.8170 H   0  0  0  0  0  0
  -29.7501  -11.7775   17.4332 H   0  0  0  0  0  0
  -29.6425  -13.4888   17.7450 H   0  0  0  0  0  0
  -27.8445  -11.2938   18.8196 H   0  0  0  0  0  0
  -27.3646  -12.6118   17.7852 H   0  0  0  0  0  0
  -27.6887  -14.2356   19.5615 H   0  0  0  0  0  0
  -28.6977  -11.9277   21.3017 H   0  0  0  0  0  0
  -28.4568  -13.5478   21.8821 H   0  0  0  0  0  0
  -25.2758   -9.5682   22.4764 H   0  0  0  0  0  0
  -24.0001   -7.4617   22.7472 H   0  0  0  0  0  0
  -21.0831   -8.8744   19.8936 H   0  0  0  0  0  0
  -22.3678  -10.9662   19.6157 H   0  0  0  0  0  0
  -21.1985   -7.6146   23.9711 H   0  0  0  0  0  0
  -21.1485   -6.0515   25.9071 H   0  0  0  0  0  0
  -22.0604   -2.7612   23.2824 H   0  0  0  0  0  0
  -22.4101  -11.9877   22.4756 H   0  0  0  0  0  0
  -21.1105  -13.1265   22.2611 H   0  0  0  0  0  0
  -24.6672  -15.8386   20.5104 H   0  0  0  0  0  0
  -26.2684  -15.6140   20.0340 H   0  0  0  0  0  0
  -26.7109  -32.5517   23.1110 H   0  0  0  0  0  0
  -25.0087  -33.9834   25.0421 H   0  0  0  0  0  0
  -22.6941  -31.3012   21.4032 H   0  0  0  0  0  0
  -23.3778  -35.9572   23.3294 H   0  0  0  0  0  0
  -24.3617  -36.8864   22.2072 H   0  0  0  0  0  0
  -23.7184  -37.6440   23.6642 H   0  0  0  0  0  0
  -26.0382  -31.5857   20.5815 H   0  0  0  0  0  0
  -26.8243  -30.8817   21.9650 H   0  0  0  0  0  0
  -28.0966  -29.0845   21.1334 H   0  0  0  0  0  0
  -26.0052  -25.9071   19.0927 H   0  0  0  0  0  0
  -23.9646  -27.2683   19.0627 H   0  0  0  0  0  0
  -23.7128  -30.5892   19.4044 H   0  0  0  0  0  0
  -22.7369  -29.2306   19.8728 H   0  0  0  0  0  0
  -25.1281  -36.1930   25.0799 H   0  0  0  0  0  0
  -20.9954  -28.3215   24.1461 H   0  0  0  0  0  0
  -20.5668  -26.2262   23.3603 H   0  0  0  0  0  0
  -21.6603  -26.7447   22.1210 H   0  0  0  0  0  0
  -19.6901  -25.6313   21.1258 H   0  0  0  0  0  0
  -19.6691  -27.3239   20.6806 H   0  0  0  0  0  0
  -17.4185  -26.6714   21.4048 H   0  0  0  0  0  0
  -18.0299  -26.0069   22.9017 H   0  0  0  0  0  0
  -19.7968  -30.7265   24.2288 H   0  0  0  0  0  0
  -17.5065  -31.6302   24.5186 H   0  0  0  0  0  0
  -15.5381  -30.3060   23.7680 H   0  0  0  0  0  0
  -15.8646  -28.0917   22.7041 H   0  0  0  0  0  0
  -24.5930  -30.7010   25.7781 H   0  0  0  0  0  0
  -24.8785  -32.2975   26.4685 H   0  0  0  0  0  0
  -25.8041  -30.9136   27.0281 H   0  0  0  0  0  0
  -26.2765  -29.6899   24.0987 H   0  0  0  0  0  0
  -27.3896  -29.7169   25.4454 H   0  0  0  0  0  0
  -27.8607  -30.4368   23.9204 H   0  0  0  0  0  0
  -27.2651  -33.3676   26.1965 H   0  0  0  0  0  0
  -28.3874  -32.6779   25.0330 H   0  0  0  0  0  0
  -28.0569  -31.8476   26.5466 H   0  0  0  0  0  0
  -28.2535  -38.0131   24.7591 H   0  0  0  0  0  0
  -28.1123  -36.2649   24.6149 H   0  0  0  0  0  0
  -27.2317  -37.1215   25.8870 H   0  0  0  0  0  0
  -20.9248  -29.8797   21.7048 H   0  0  0  0  0  0
  -26.0144  -38.2812   24.1555 H   0  0  0  0  0  0
  -29.7287  -20.2379   23.3466 H   0  0  0  0  0  0
  -29.1791  -17.9649   19.7055 H   0  0  0  0  0  0
  -30.4895  -15.9969   23.3138 H   0  0  0  0  0  0
  -30.1193  -22.6702   18.8224 H   0  0  0  0  0  0
  -28.5078  -22.3299   18.1836 H   0  0  0  0  0  0
  -30.4182  -20.4058   19.1390 H   0  0  0  0  0  0
  -28.7388  -20.0934   18.6999 H   0  0  0  0  0  0
  -29.1429  -24.6292   17.6379 H   0  0  0  0  0  0
  -28.3190  -26.1710   17.6892 H   0  0  0  0  0  0
  -27.4347  -24.6685   17.9992 H   0  0  0  0  0  0
  -30.7454  -24.4910   19.6002 H   0  0  0  0  0  0
  -30.4847  -25.6619   20.8612 H   0  0  0  0  0  0
  -30.6546  -26.1896   19.1900 H   0  0  0  0  0  0
  -30.1734  -18.9237   25.4222 H   0  0  0  0  0  0
  -30.6160  -17.2852   25.3379 H   0  0  0  0  0  0
  -28.7630  -15.1966   20.8507 H   0  0  0  0  0  0
  1 25  1  0  0  0
  1 30  2  0  0  0
  1 87  1  0  0  0
  2  3  1  0  0  0
  2 25  1  0  0  0
  2 90  1  0  0  0
  2 91  1  0  0  0
  3  4  1  0  0  0
  3 92  1  0  0  0
  3 93  1  0  0  0
  4  5  1  0  0  0
  4 94  1  0  0  0
  4 95  1  0  0  0
  5  6  1  0  0  0
  5 26  1  0  0  0
  5 96  1  0  0  0
  6 25  1  0  0  0
  6 97  1  0  0  0
  6 98  1  0  0  0
  7  8  2  0  0  0
  7 26  1  0  0  0
  7 29  1  0  0  0
  8  9  1  0  0  0
  8 22  1  0  0  0
  9 10  1  0  0  0
  9 27  2  0  0  0
 10 11  2  0  0  0
 10 15  1  0  0  0
 11 12  1  0  0  0
 11 99  1  0  0  0
 12 13  2  0  0  0
 12100  1  0  0  0
 13 14  1  0  0  0
 13 31  1  0  0  0
 14 15  2  0  0  0
 14101  1  0  0  0
 15102  1  0  0  0
 16 17  2  0  0  0
 16 21  1  0  0  0
 16 31  1  0  0  0
 17 18  1  0  0  0
 17103  1  0  0  0
 18 19  2  0  0  0
 18104  1  0  0  0
 19 20  1  0  0  0
 19 24  1  0  0  0
 20 21  2  0  0  0
 20105  1  0  0  0
 21 23  1  0  0  0
 22 28  1  0  0  0
 22 32  2  0  0  0
 26 27  1  0  0  0
 28106  1  0  0  0
 28107  1  0  0  0
 29108  1  0  0  0
 29109  1  0  0  0
 33 34  1  0  0  0
 33 66  1  0  0  0
 33 70  2  0  0  0
 34 36  1  0  0  0
 34 59  1  0  0  0
 34110  1  0  0  0
 35 44  2  0  0  0
 35 45  1  0  0  0
 35 68  1  0  0  0
 36 56  1  0  0  0
 36111  1  0  0  0
 37 39  1  0  0  0
 37 47  1  0  0  0
 37 66  1  0  0  0
 37112  1  0  0  0
 38 43  2  0  0  0
 38 46  1  0  0  0
 38 47  1  0  0  0
 39 64  1  0  0  0
 39 67  2  0  0  0
 40 52  1  0  0  0
 40 53  2  0  0  0
 40 58  1  0  0  0
 41113  1  0  0  0
 41114  1  0  0  0
 41115  1  0  0  0
 41 48  1  0  0  0
 42 43  1  0  0  0
 42 66  1  0  0  0
 42116  1  0  0  0
 42117  1  0  0  0
 43 44  1  0  0  0
 44118  1  0  0  0
 45 46  2  0  0  0
 45119  1  0  0  0
 46120  1  0  0  0
 47121  1  0  0  0
 47122  1  0  0  0
 48 56  1  0  0  0
 48 65  1  0  0  0
 48123  1  0  0  0
 49 50  1  0  0  0
 49 53  1  0  0  0
 49 64  1  0  0  0
 49124  1  0  0  0
 50 51  1  0  0  0
 50125  1  0  0  0
 50126  1  0  0  0
 51 52  1  0  0  0
 51127  1  0  0  0
 51128  1  0  0  0
 52129  1  0  0  0
 52130  1  0  0  0
 53 54  1  0  0  0
 54 55  2  0  0  0
 54131  1  0  0  0
 55 57  1  0  0  0
 55132  1  0  0  0
 56 69  2  0  0  0
 57 58  2  0  0  0
 57133  1  0  0  0
 58134  1  0  0  0
 59 60  1  0  0  0
 59 61  1  0  0  0
 59 62  1  0  0  0
 60135  1  0  0  0
 60136  1  0  0  0
 60137  1  0  0  0
 61138  1  0  0  0
 61139  1  0  0  0
 61140  1  0  0  0
 62141  1  0  0  0
 62142  1  0  0  0
 62143  1  0  0  0
 63 65  1  0  0  0
 63144  1  0  0  0
 63145  1  0  0  0
 63146  1  0  0  0
 64147  1  0  0  0
 65148  1  0  0  0
 68 84  1  0  0  0
 71 74  2  0  0  0
 71 75  1  0  0  0
 71149  1  0  0  0
 72 74  1  0  0  0
 72 76  2  0  0  0
 72150  1  0  0  0
 73 75  2  0  0  0
 73 76  1  0  0  0
 73151  1  0  0  0
 74 85  1  0  0  0
 75 86  1  0  0  0
 76 87  1  0  0  0
 77 78  1  0  0  0
 77 79  2  0  0  0
 77 80  1  0  0  0
 78 85  1  0  0  0
 78 89  2  0  0  0
 79 84  1  0  0  0
 79 88  1  0  0  0
 80 81  1  0  0  0
 80152  1  0  0  0
 80153  1  0  0  0
 81 85  1  0  0  0
 81154  1  0  0  0
 81155  1  0  0  0
 82156  1  0  0  0
 82157  1  0  0  0
 82158  1  0  0  0
 82 84  1  0  0  0
 83 84  1  0  0  0
 83159  1  0  0  0
 83160  1  0  0  0
 83161  1  0  0  0
 86162  1  0  0  0
 86163  1  0  0  0
 87164  1  0  0  0
M  CHG  1  88  -1
M  ISO  4   1 100  68 101  84 101  87 100
M  END
> <chiral flag>
0

> <version>
0

> <s_m_source_file>
/data/baiqing/PycharmProjects/Reinvent-master-3.2/result/LINK_invent/BTK/process_docking_weight1_custom_product_contain_oxygen_bond_distance_aromatic_linkinvent_7_9_3/rearranged_h_0076.sdf

> <i_m_source_file_index>
70

> <r_mmod_Potential_Energy-OPLS-2005>
-70.3048782348633

> <r_mmod_Stretch_Energy-OPLS-2005>
65.6857223510742

> <r_mmod_Bend_Energy-OPLS-2005>
192.810119628906

> <r_mmod_Torsional_Energy-OPLS-2005>
294.844360351562

> <r_mmod_Improper_Torsional_Energy-OPLS-2005>
12.0022954940796

> <r_mmod_Van_der_Waal_Energy-OPLS-2005>
149.324035644531

> <r_mmod_Electrostatic_Energy-OPLS-2005>
-296.471282958984

> <r_mmod_Solvation_Energy-OPLS-2005>
-514.731689453125

> <b_mmod_Minimization_Converged-OPLS-2005>
0

> <r_mmod_RMS_Derivative-OPLS-2005>
5.6793065071106

$$$$
70
                    3D
 Structure written by MMmdl.
151160  0  0  1  0            999 V2000
  -30.6242  -14.8328   20.4221 C   0  0  0  0  0  0
  -30.4250  -12.5084   19.4923 C   0  0  0  0  0  0
  -29.5130  -12.5083   18.2472 C   0  0  0  0  0  0
  -28.0431  -12.3195   18.6639 C   0  0  0  0  0  0
  -27.6334  -13.2460   19.8399 C   0  0  2  0  0  0
  -28.6776  -13.2526   20.9776 C   0  0  0  0  0  0
  -25.2474  -13.8222   20.5710 C   0  0  0  0  0  0
  -24.1781  -13.0448   20.9210 C   0  0  0  0  0  0
  -24.6390  -11.6929   20.8744 C   0  0  0  0  0  0
  -23.9074  -10.4296   21.0402 C   0  0  0  0  0  0
  -24.3622   -9.4209   21.9179 C   0  0  0  0  0  0
  -23.6294   -8.2247   22.0753 C   0  0  0  0  0  0
  -22.4276   -8.0284   21.3546 C   0  0  0  0  0  0
  -21.9913   -9.0256   20.4649 C   0  0  0  0  0  0
  -22.7246  -10.2134   20.3053 C   0  0  0  0  0  0
  -21.6857   -6.0731   22.5279 C   0  0  0  0  0  0
  -21.4019   -6.5634   23.8212 C   0  0  0  0  0  0
  -21.3658   -5.6788   24.9173 C   0  0  0  0  0  0
  -21.6046   -4.3052   24.7225 C   0  0  0  0  0  0
  -21.8817   -3.8142   23.4347 C   0  0  0  0  0  0
  -21.9193   -4.6959   22.3404 C   0  0  0  0  0  0
  -22.7799  -13.5217   21.1865 C   0  0  0  0  0  0
  -22.1661   -4.2141   21.0983 F   0  0  0  0  0  0
  -21.5627   -3.4537   25.7738 F   0  0  0  0  0  0
  -29.9678  -13.6130   20.3788 N   0  0  0  0  0  0
  -26.2903  -12.9457   20.3259 N   0  0  0  0  0  0
  -25.9326  -11.6582   20.5737 N   0  0  0  0  0  0
  -22.0445  -12.8208   22.0424 N   0  0  0  0  0  0
  -25.4135  -15.1954   20.4155 N   0  0  0  0  0  0
  -31.8273  -14.8182   20.1580 O   0  0  0  0  0  0
  -21.6643   -6.8878   21.4241 O   0  0  0  0  0  0
  -22.3476  -14.5511   20.6697 O   0  0  0  0  0  0
  -24.6375  -31.8504   23.1956 C   0  0  0  0  0  0
  -25.9181  -32.4722   23.8315 C   0  0  1  0  0  0
  -27.2082  -27.2059   20.1441 C   0  0  0  0  0  0
  -25.5964  -33.8526   24.2243 N   0  0  0  0  0  0
  -23.4369  -30.4735   21.5395 C   0  0  2  0  0  0
  -24.8853  -28.9155   20.1086 C   0  0  0  0  0  0
  -22.7536  -29.4576   22.4884 C   0  0  0  0  0  0
  -18.0297  -28.1386   22.8475 C   0  0  0  0  0  0
  -24.1491  -36.7265   23.2637 C   0  0  0  0  0  0
  -25.9882  -30.7463   21.3856 C   0  0  0  0  0  0
  -26.0602  -29.3646   20.7273 C   0  0  0  0  0  0
  -27.2276  -28.5233   20.7331 C   0  0  0  0  0  0
  -26.0196  -26.8526   19.4708 C   0  0  0  0  0  0
  -24.8737  -27.6701   19.4650 C   0  0  0  0  0  0
  -23.6592  -29.8090   20.1557 C   0  0  0  0  0  0
  -25.4116  -36.3048   24.0322 C   0  0  1  0  0  0
  -20.5908  -28.3706   23.1244 C   0  0  2  0  0  0
  -20.6785  -26.9420   22.5394 C   0  0  0  0  0  0
  -19.5758  -26.6383   21.5202 C   0  0  0  0  0  0
  -18.1941  -26.7924   22.1620 C   0  0  0  0  0  0
  -19.1554  -28.8862   23.2850 C   0  0  0  0  0  0
  -18.9473  -30.1465   23.8872 C   0  0  0  0  0  0
  -17.6471  -30.6588   24.0555 C   0  0  0  0  0  0
  -25.9060  -34.9421   23.5080 C   0  0  0  0  0  0
  -16.5361  -29.9079   23.6339 C   0  0  0  0  0  0
  -16.7284  -28.6498   23.0356 C   0  0  0  0  0  0
  -26.4532  -31.6560   25.0723 C   0  0  0  0  0  0
  -25.3750  -31.3747   26.1446 C   0  0  0  0  0  0
  -27.0373  -30.2958   24.6258 C   0  0  0  0  0  0
  -27.6082  -32.4304   25.7499 C   0  0  0  0  0  0
  -27.5573  -37.1792   24.8468 C   0  0  0  0  0  0
  -21.4236  -29.3042   22.3625 N   0  0  0  0  0  0
  -26.4288  -37.3751   23.9405 N   0  0  0  0  0  0
  -24.7068  -31.0426   22.0957 N   0  0  0  0  0  0
  -23.4208  -28.8117   23.3004 O   0  0  0  0  0  0
  -28.2437  -26.2264   20.1958 O   0  0  0  0  0  0
  -26.5629  -34.8903   22.4646 O   0  0  0  0  0  0
  -23.5514  -32.1348   23.7223 O   0  0  0  0  0  0
  -32.1529  -19.0792   19.8329 C   0  0  0  0  0  0
  -31.2948  -20.1858   19.8935 C   0  0  0  0  0  0
  -31.6888  -17.7771   20.0603 C   0  0  0  0  0  0
  -29.9181  -20.1059   20.1983 C   0  0  0  0  0  0
  -30.3342  -17.5004   20.3590 C   0  0  0  0  0  0
  -29.4716  -18.7061   20.4349 C   0  0  0  0  0  0
  -29.5653  -22.8448   19.7836 C   0  0  0  0  0  0
  -28.5234  -23.4159   20.4303 C   0  0  0  0  0  0
  -28.1539  -21.9996   20.9601 C   0  0  0  0  0  0
  -27.8509  -24.8571   20.7452 C   0  0  0  0  0  0
  -29.2995  -21.4897   20.1669 N   0  0  0  0  0  0
  -29.9149  -16.0481   20.5504 N   0  0  0  0  0  0
  -28.1623  -18.5080   20.7242 F   0  0  0  0  0  0
  -31.4668  -12.6159   19.1866 H   0  0  0  0  0  0
  -30.3696  -11.5514   20.0133 H   0  0  0  0  0  0
  -29.8122  -11.7175   17.5580 H   0  0  0  0  0  0
  -29.6273  -13.4484   17.7053 H   0  0  0  0  0  0
  -27.9204  -11.2764   18.9578 H   0  0  0  0  0  0
  -27.3831  -12.4732   17.8095 H   0  0  0  0  0  0
  -27.6060  -14.2528   19.4224 H   0  0  0  0  0  0
  -28.7334  -12.2782   21.4657 H   0  0  0  0  0  0
  -28.3992  -13.9710   21.7501 H   0  0  0  0  0  0
  -25.2769   -9.5685   22.4751 H   0  0  0  0  0  0
  -24.0003   -7.4639   22.7475 H   0  0  0  0  0  0
  -21.0843   -8.8778   19.8957 H   0  0  0  0  0  0
  -22.3704  -10.9669   19.6159 H   0  0  0  0  0  0
  -21.2019   -7.6142   23.9711 H   0  0  0  0  0  0
  -21.1482   -6.0520   25.9074 H   0  0  0  0  0  0
  -22.0598   -2.7602   23.2851 H   0  0  0  0  0  0
  -22.4068  -11.9886   22.4837 H   0  0  0  0  0  0
  -21.1059  -13.1231   22.2612 H   0  0  0  0  0  0
  -24.6449  -15.8469   20.5337 H   0  0  0  0  0  0
  -26.2625  -15.6438   20.0964 H   0  0  0  0  0  0
  -26.7243  -32.5358   23.1046 H   0  0  0  0  0  0
  -25.0146  -33.9657   25.0413 H   0  0  0  0  0  0
  -22.7359  -31.2978   21.3916 H   0  0  0  0  0  0
  -23.3748  -35.9605   23.3313 H   0  0  0  0  0  0
  -24.3577  -36.8871   22.2050 H   0  0  0  0  0  0
  -23.7255  -37.6473   23.6652 H   0  0  0  0  0  0
  -26.1364  -31.5042   20.6152 H   0  0  0  0  0  0
  -26.8615  -30.7940   22.0243 H   0  0  0  0  0  0
  -28.1220  -28.8564   21.2408 H   0  0  0  0  0  0
  -25.9572  -25.9020   18.9601 H   0  0  0  0  0  0
  -23.9798  -27.3260   18.9632 H   0  0  0  0  0  0
  -23.7902  -30.5860   19.4013 H   0  0  0  0  0  0
  -22.7756  -29.2473   19.8469 H   0  0  0  0  0  0
  -25.1301  -36.1886   25.0816 H   0  0  0  0  0  0
  -20.9999  -28.3288   24.1364 H   0  0  0  0  0  0
  -20.5681  -26.2319   23.3603 H   0  0  0  0  0  0
  -21.6652  -26.7434   22.1192 H   0  0  0  0  0  0
  -19.6920  -25.6290   21.1245 H   0  0  0  0  0  0
  -19.6695  -27.3182   20.6720 H   0  0  0  0  0  0
  -17.4209  -26.6659   21.4028 H   0  0  0  0  0  0
  -18.0354  -26.0071   22.9026 H   0  0  0  0  0  0
  -19.7950  -30.7286   24.2228 H   0  0  0  0  0  0
  -17.5027  -31.6267   24.5157 H   0  0  0  0  0  0
  -15.5359  -30.2970   23.7677 H   0  0  0  0  0  0
  -15.8683  -28.0808   22.7083 H   0  0  0  0  0  0
  -24.5879  -30.7151   25.7774 H   0  0  0  0  0  0
  -24.9011  -32.2943   26.4888 H   0  0  0  0  0  0
  -25.8055  -30.8889   27.0213 H   0  0  0  0  0  0
  -26.2965  -29.6695   24.1272 H   0  0  0  0  0  0
  -27.4007  -29.7236   25.4804 H   0  0  0  0  0  0
  -27.8874  -30.4195   23.9545 H   0  0  0  0  0  0
  -27.2691  -33.3620   26.2043 H   0  0  0  0  0  0
  -28.3914  -32.6831   25.0339 H   0  0  0  0  0  0
  -28.0725  -31.8447   26.5444 H   0  0  0  0  0  0
  -28.2598  -38.0078   24.7488 H   0  0  0  0  0  0
  -28.1057  -36.2605   24.6324 H   0  0  0  0  0  0
  -27.2292  -37.1485   25.8873 H   0  0  0  0  0  0
  -20.9432  -29.8761   21.6818 H   0  0  0  0  0  0
  -26.0161  -38.2826   24.1386 H   0  0  0  0  0  0
  -33.1976  -19.2336   19.6010 H   0  0  0  0  0  0
  -31.7408  -21.1512   19.7006 H   0  0  0  0  0  0
  -32.4374  -17.0084   19.9853 H   0  0  0  0  0  0
  -30.4274  -23.0781   19.1624 H   0  0  0  0  0  0
  -27.2069  -21.5686   20.6317 H   0  0  0  0  0  0
  -28.2901  -21.8247   22.0284 H   0  0  0  0  0  0
  -27.9290  -24.9660   21.8269 H   0  0  0  0  0  0
  -26.7895  -24.6834   20.5792 H   0  0  0  0  0  0
  -28.9326  -15.9259   20.7424 H   0  0  0  0  0  0
  1 25  1  0  0  0
  1 30  2  0  0  0
  1 82  1  0  0  0
  2  3  1  0  0  0
  2 25  1  0  0  0
  2 84  1  0  0  0
  2 85  1  0  0  0
  3  4  1  0  0  0
  3 86  1  0  0  0
  3 87  1  0  0  0
  4  5  1  0  0  0
  4 88  1  0  0  0
  4 89  1  0  0  0
  5  6  1  0  0  0
  5 26  1  0  0  0
  5 90  1  0  0  0
  6 25  1  0  0  0
  6 91  1  0  0  0
  6 92  1  0  0  0
  7  8  2  0  0  0
  7 26  1  0  0  0
  7 29  1  0  0  0
  8  9  1  0  0  0
  8 22  1  0  0  0
  9 10  1  0  0  0
  9 27  2  0  0  0
 10 11  2  0  0  0
 10 15  1  0  0  0
 11 12  1  0  0  0
 11 93  1  0  0  0
 12 13  2  0  0  0
 12 94  1  0  0  0
 13 14  1  0  0  0
 13 31  1  0  0  0
 14 15  2  0  0  0
 14 95  1  0  0  0
 15 96  1  0  0  0
 16 17  2  0  0  0
 16 21  1  0  0  0
 16 31  1  0  0  0
 17 18  1  0  0  0
 17 97  1  0  0  0
 18 19  2  0  0  0
 18 98  1  0  0  0
 19 20  1  0  0  0
 19 24  1  0  0  0
 20 21  2  0  0  0
 20 99  1  0  0  0
 21 23  1  0  0  0
 22 28  1  0  0  0
 22 32  2  0  0  0
 26 27  1  0  0  0
 28100  1  0  0  0
 28101  1  0  0  0
 29102  1  0  0  0
 29103  1  0  0  0
 33 34  1  0  0  0
 33 66  1  0  0  0
 33 70  2  0  0  0
 34 36  1  0  0  0
 34 59  1  0  0  0
 34104  1  0  0  0
 35 44  2  0  0  0
 35 45  1  0  0  0
 35 68  1  0  0  0
 36 56  1  0  0  0
 36105  1  0  0  0
 37 39  1  0  0  0
 37 47  1  0  0  0
 37 66  1  0  0  0
 37106  1  0  0  0
 38 43  2  0  0  0
 38 46  1  0  0  0
 38 47  1  0  0  0
 39 64  1  0  0  0
 39 67  2  0  0  0
 40 52  1  0  0  0
 40 53  2  0  0  0
 40 58  1  0  0  0
 41107  1  0  0  0
 41108  1  0  0  0
 41109  1  0  0  0
 41 48  1  0  0  0
 42 43  1  0  0  0
 42 66  1  0  0  0
 42110  1  0  0  0
 42111  1  0  0  0
 43 44  1  0  0  0
 44112  1  0  0  0
 45 46  2  0  0  0
 45113  1  0  0  0
 46114  1  0  0  0
 47115  1  0  0  0
 47116  1  0  0  0
 48 56  1  0  0  0
 48 65  1  0  0  0
 48117  1  0  0  0
 49 50  1  0  0  0
 49 53  1  0  0  0
 49 64  1  0  0  0
 49118  1  0  0  0
 50 51  1  0  0  0
 50119  1  0  0  0
 50120  1  0  0  0
 51 52  1  0  0  0
 51121  1  0  0  0
 51122  1  0  0  0
 52123  1  0  0  0
 52124  1  0  0  0
 53 54  1  0  0  0
 54 55  2  0  0  0
 54125  1  0  0  0
 55 57  1  0  0  0
 55126  1  0  0  0
 56 69  2  0  0  0
 57 58  2  0  0  0
 57127  1  0  0  0
 58128  1  0  0  0
 59 60  1  0  0  0
 59 61  1  0  0  0
 59 62  1  0  0  0
 60129  1  0  0  0
 60130  1  0  0  0
 60131  1  0  0  0
 61132  1  0  0  0
 61133  1  0  0  0
 61134  1  0  0  0
 62135  1  0  0  0
 62136  1  0  0  0
 62137  1  0  0  0
 63 65  1  0  0  0
 63138  1  0  0  0
 63139  1  0  0  0
 63140  1  0  0  0
 64141  1  0  0  0
 65142  1  0  0  0
 68 80  1  0  0  0
 71 72  2  0  0  0
 71 73  1  0  0  0
 71143  1  0  0  0
 72 74  1  0  0  0
 72144  1  0  0  0
 73 75  2  0  0  0
 73145  1  0  0  0
 74 76  2  0  0  0
 74 81  1  0  0  0
 75 76  1  0  0  0
 75 82  1  0  0  0
 76 83  1  0  0  0
 77 78  2  0  0  0
 77 81  1  0  0  0
 77146  1  0  0  0
 78 79  1  0  0  0
 78 80  1  0  0  0
 79 81  1  0  0  0
 79147  1  0  0  0
 79148  1  0  0  0
 80149  1  0  0  0
 80150  1  0  0  0
 82151  1  0  0  0
M  ISO  4   1 100  68 101  80 101  82 100
M  END
> <chiral flag>
0

> <version>
0

> <s_m_source_file>
/data/baiqing/PycharmProjects/Reinvent-master-3.2/result/LINK_invent/BTK/process_docking_weight1_custom_product_contain_oxygen_bond_distance_aromatic_linkinvent_7_9_3/rearranged_h_0076.sdf

> <i_m_source_file_index>
71

> <r_mmod_Potential_Energy-OPLS-2005>
447.683013916016

> <r_mmod_Stretch_Energy-OPLS-2005>
177.919708251953

> <r_mmod_Bend_Energy-OPLS-2005>
293.690704345703

> <r_mmod_Torsional_Energy-OPLS-2005>
241.542541503906

> <r_mmod_Improper_Torsional_Energy-OPLS-2005>
5.04110717773438

> <r_mmod_Van_der_Waal_Energy-OPLS-2005>
144.359024047852

> <r_mmod_Electrostatic_Energy-OPLS-2005>
-345.26708984375

> <r_mmod_Solvation_Energy-OPLS-2005>
-201.974838256836

> <b_mmod_Minimization_Converged-OPLS-2005>
0

> <r_mmod_RMS_Derivative-OPLS-2005>
0.780362844467163

$$$$
71
                    3D
 Structure written by MMmdl.
158166  0  0  1  0            999 V2000
  -30.6299  -14.6640   20.5066 C   0  0  0  0  0  0
  -30.4416  -12.4127   19.4546 C   0  0  0  0  0  0
  -29.5079  -12.5126   18.2272 C   0  0  0  0  0  0
  -28.0337  -12.3375   18.6411 C   0  0  0  0  0  0
  -27.6515  -13.2187   19.8593 C   0  0  2  0  0  0
  -28.6989  -13.0954   20.9905 C   0  0  0  0  0  0
  -25.2557  -13.8165   20.5684 C   0  0  0  0  0  0
  -24.1828  -13.0426   20.9191 C   0  0  0  0  0  0
  -24.6404  -11.6901   20.8736 C   0  0  0  0  0  0
  -23.9067  -10.4280   21.0401 C   0  0  0  0  0  0
  -24.3615   -9.4199   21.9185 C   0  0  0  0  0  0
  -23.6285   -8.2237   22.0761 C   0  0  0  0  0  0
  -22.4269   -8.0271   21.3542 C   0  0  0  0  0  0
  -21.9899   -9.0250   20.4652 C   0  0  0  0  0  0
  -22.7233  -10.2128   20.3059 C   0  0  0  0  0  0
  -21.6853   -6.0728   22.5277 C   0  0  0  0  0  0
  -21.4013   -6.5636   23.8208 C   0  0  0  0  0  0
  -21.3664   -5.6792   24.9173 C   0  0  0  0  0  0
  -21.6043   -4.3055   24.7225 C   0  0  0  0  0  0
  -21.8819   -3.8142   23.4350 C   0  0  0  0  0  0
  -21.9197   -4.6957   22.3403 C   0  0  0  0  0  0
  -22.7852  -13.5230   21.1843 C   0  0  0  0  0  0
  -22.1662   -4.2137   21.0984 F   0  0  0  0  0  0
  -21.5628   -3.4545   25.7743 F   0  0  0  0  0  0
  -30.0125  -13.4404   20.4237 N   0  0  0  0  0  0
  -26.2984  -12.9350   20.3302 N   0  0  0  0  0  0
  -25.9337  -11.6506   20.5757 N   0  0  0  0  0  0
  -22.0506  -12.8219   22.0413 N   0  0  0  0  0  0
  -25.4256  -15.1883   20.4100 N   0  0  0  0  0  0
  -31.8036  -14.8139   20.1557 O   0  0  0  0  0  0
  -21.6636   -6.8868   21.4235 O   0  0  0  0  0  0
  -22.3542  -14.5537   20.6699 O   0  0  0  0  0  0
  -24.6259  -31.8605   23.2050 C   0  0  0  0  0  0
  -25.9110  -32.4776   23.8366 C   0  0  1  0  0  0
  -27.2230  -27.3070   20.1175 C   0  0  0  0  0  0
  -25.5903  -33.8569   24.2286 N   0  0  0  0  0  0
  -23.4201  -30.4875   21.5493 C   0  0  2  0  0  0
  -24.8686  -28.9569   20.1118 C   0  0  0  0  0  0
  -22.7480  -29.4624   22.4939 C   0  0  0  0  0  0
  -18.0283  -28.1372   22.8494 C   0  0  0  0  0  0
  -24.1494  -36.7291   23.2637 C   0  0  0  0  0  0
  -25.9666  -30.7896   21.3833 C   0  0  0  0  0  0
  -26.0408  -29.4199   20.7207 C   0  0  0  0  0  0
  -27.2187  -28.6077   20.7179 C   0  0  0  0  0  0
  -26.0230  -26.9296   19.4640 C   0  0  0  0  0  0
  -24.8632  -27.7150   19.4738 C   0  0  0  0  0  0
  -23.6342  -29.8294   20.1643 C   0  0  0  0  0  0
  -25.4119  -36.3071   24.0323 C   0  0  1  0  0  0
  -20.5883  -28.3673   23.1279 C   0  0  2  0  0  0
  -20.6757  -26.9389   22.5412 C   0  0  0  0  0  0
  -19.5741  -26.6376   21.5205 C   0  0  0  0  0  0
  -18.1927  -26.7916   22.1626 C   0  0  0  0  0  0
  -19.1535  -28.8844   23.2883 C   0  0  0  0  0  0
  -18.9456  -30.1450   23.8893 C   0  0  0  0  0  0
  -17.6454  -30.6578   24.0553 C   0  0  0  0  0  0
  -25.9053  -34.9433   23.5115 C   0  0  0  0  0  0
  -16.5345  -29.9073   23.6330 C   0  0  0  0  0  0
  -16.7268  -28.6487   23.0360 C   0  0  0  0  0  0
  -26.4495  -31.6571   25.0727 C   0  0  0  0  0  0
  -25.3738  -31.3697   26.1463 C   0  0  0  0  0  0
  -27.0334  -30.2983   24.6196 C   0  0  0  0  0  0
  -27.6047  -32.4300   25.7497 C   0  0  0  0  0  0
  -27.5583  -37.1812   24.8472 C   0  0  0  0  0  0
  -21.4192  -29.3025   22.3666 N   0  0  0  0  0  0
  -26.4307  -37.3761   23.9396 N   0  0  0  0  0  0
  -24.6892  -31.0621   22.1010 N   0  0  0  0  0  0
  -23.4201  -28.8162   23.3013 O   0  0  0  0  0  0
  -28.3330  -26.4278   20.1953 O   0  0  0  0  0  0
  -26.5636  -34.8896   22.4691 O   0  0  0  0  0  0
  -23.5421  -32.1402   23.7374 O   0  0  0  0  0  0
  -29.0776  -19.4286   20.0640 C   0  0  0  0  0  0
  -31.1551  -19.3093   21.2599 C   0  0  0  0  0  0
  -28.9904  -17.9994   20.1142 C   0  0  0  0  0  0
  -31.0840  -17.8804   21.2810 C   0  0  0  0  0  0
  -30.1689  -20.1361   20.6356 C   0  0  0  0  0  0
  -29.9967  -17.1777   20.7017 C   0  0  0  0  0  0
  -30.3565  -21.6536   20.5521 C   0  0  0  0  0  0
  -29.4778  -24.0979   20.4427 C   0  0  0  0  0  0
  -27.8432  -24.5585   18.6215 C   0  0  0  0  0  0
  -27.1007  -24.4661   21.1228 C   0  0  0  0  0  0
  -28.1698  -24.9311   20.0941 C   0  0  0  0  0  0
  -29.8093  -15.7263   20.7929 N   0  0  0  0  0  0
  -29.3626  -22.6099   20.4746 N   0  0  0  0  0  0
  -31.6280  -22.0705   20.5397 N   0  3  0  0  0  0
  -30.5635  -24.6598   20.6340 O   0  0  0  0  0  0
  -31.4823  -12.5425   19.1519 H   0  0  0  0  0  0
  -30.3831  -11.4226   19.9083 H   0  0  0  0  0  0
  -29.7803  -11.7643   17.4817 H   0  0  0  0  0  0
  -29.6378  -13.4831   17.7459 H   0  0  0  0  0  0
  -27.8842  -11.2855   18.8856 H   0  0  0  0  0  0
  -27.3767  -12.5495   17.7964 H   0  0  0  0  0  0
  -27.6606  -14.2483   19.5025 H   0  0  0  0  0  0
  -28.7198  -12.0786   21.3848 H   0  0  0  0  0  0
  -28.4435  -13.7370   21.8362 H   0  0  0  0  0  0
  -25.2768   -9.5672   22.4747 H   0  0  0  0  0  0
  -24.0000   -7.4630   22.7481 H   0  0  0  0  0  0
  -21.0830   -8.8771   19.8957 H   0  0  0  0  0  0
  -22.3698  -10.9665   19.6162 H   0  0  0  0  0  0
  -21.1999   -7.6144   23.9705 H   0  0  0  0  0  0
  -21.1487   -6.0526   25.9074 H   0  0  0  0  0  0
  -22.0594   -2.7604   23.2856 H   0  0  0  0  0  0
  -22.4130  -11.9878   22.4784 H   0  0  0  0  0  0
  -21.1125  -13.1237   22.2643 H   0  0  0  0  0  0
  -24.6525  -15.8369   20.5090 H   0  0  0  0  0  0
  -26.2628  -15.6264   20.0500 H   0  0  0  0  0  0
  -26.7174  -32.5462   23.1110 H   0  0  0  0  0  0
  -24.9955  -33.9705   25.0361 H   0  0  0  0  0  0
  -22.7128  -31.3071   21.4072 H   0  0  0  0  0  0
  -23.3749  -35.9637   23.3311 H   0  0  0  0  0  0
  -24.3587  -36.8909   22.2052 H   0  0  0  0  0  0
  -23.7260  -37.6491   23.6670 H   0  0  0  0  0  0
  -26.1052  -31.5578   20.6213 H   0  0  0  0  0  0
  -26.8440  -30.8306   22.0166 H   0  0  0  0  0  0
  -28.1108  -28.9568   21.2205 H   0  0  0  0  0  0
  -25.9062  -25.9950   18.9566 H   0  0  0  0  0  0
  -23.9692  -27.3517   18.9869 H   0  0  0  0  0  0
  -23.7435  -30.6055   19.4064 H   0  0  0  0  0  0
  -22.7590  -29.2489   19.8652 H   0  0  0  0  0  0
  -25.1308  -36.1917   25.0816 H   0  0  0  0  0  0
  -20.9976  -28.3251   24.1398 H   0  0  0  0  0  0
  -20.5623  -26.2282   23.3615 H   0  0  0  0  0  0
  -21.6632  -26.7393   22.1223 H   0  0  0  0  0  0
  -19.6896  -25.6293   21.1221 H   0  0  0  0  0  0
  -19.6676  -27.3199   20.6745 H   0  0  0  0  0  0
  -17.4180  -26.6656   21.4039 H   0  0  0  0  0  0
  -18.0344  -26.0056   22.9020 H   0  0  0  0  0  0
  -19.7930  -30.7269   24.2259 H   0  0  0  0  0  0
  -17.5004  -31.6260   24.5149 H   0  0  0  0  0  0
  -15.5346  -30.2964   23.7663 H   0  0  0  0  0  0
  -15.8667  -28.0797   22.7085 H   0  0  0  0  0  0
  -24.5928  -30.7021   25.7808 H   0  0  0  0  0  0
  -24.8914  -32.2848   26.4895 H   0  0  0  0  0  0
  -25.8078  -30.8878   27.0234 H   0  0  0  0  0  0
  -26.2914  -29.6731   24.1215 H   0  0  0  0  0  0
  -27.4011  -29.7238   25.4708 H   0  0  0  0  0  0
  -27.8797  -30.4252   23.9446 H   0  0  0  0  0  0
  -27.2650  -33.3594   26.2083 H   0  0  0  0  0  0
  -28.3848  -32.6867   25.0317 H   0  0  0  0  0  0
  -28.0729  -31.8416   26.5401 H   0  0  0  0  0  0
  -28.2613  -38.0090   24.7459 H   0  0  0  0  0  0
  -28.1061  -36.2611   24.6371 H   0  0  0  0  0  0
  -27.2297  -37.1550   25.8875 H   0  0  0  0  0  0
  -20.9370  -29.8719   21.6850 H   0  0  0  0  0  0
  -26.0186  -38.2843   24.1349 H   0  0  0  0  0  0
  -28.2871  -19.9738   19.5670 H   0  0  0  0  0  0
  -32.0064  -19.7716   21.7398 H   0  0  0  0  0  0
  -28.1252  -17.5299   19.6711 H   0  0  0  0  0  0
  -31.8661  -17.3243   21.7786 H   0  0  0  0  0  0
  -26.8174  -24.2137   18.5015 H   0  0  0  0  0  0
  -28.4563  -23.7518   18.2194 H   0  0  0  0  0  0
  -28.0024  -25.4133   17.9613 H   0  0  0  0  0  0
  -26.9282  -23.3918   21.0837 H   0  0  0  0  0  0
  -26.1219  -24.9153   20.9870 H   0  0  0  0  0  0
  -27.4117  -24.7094   22.1402 H   0  0  0  0  0  0
  -28.8564  -15.4395   20.9464 H   0  0  0  0  0  0
  -28.4567  -22.1811   20.3830 H   0  0  0  0  0  0
  -32.3869  -21.4088   20.4985 H   0  0  0  0  0  0
  -31.8217  -23.0636   20.5633 H   0  0  0  0  0  0
  1 25  1  0  0  0
  1 30  2  0  0  0
  1 82  1  0  0  0
  2  3  1  0  0  0
  2 25  1  0  0  0
  2 86  1  0  0  0
  2 87  1  0  0  0
  3  4  1  0  0  0
  3 88  1  0  0  0
  3 89  1  0  0  0
  4  5  1  0  0  0
  4 90  1  0  0  0
  4 91  1  0  0  0
  5  6  1  0  0  0
  5 26  1  0  0  0
  5 92  1  0  0  0
  6 25  1  0  0  0
  6 93  1  0  0  0
  6 94  1  0  0  0
  7  8  2  0  0  0
  7 26  1  0  0  0
  7 29  1  0  0  0
  8  9  1  0  0  0
  8 22  1  0  0  0
  9 10  1  0  0  0
  9 27  2  0  0  0
 10 11  2  0  0  0
 10 15  1  0  0  0
 11 12  1  0  0  0
 11 95  1  0  0  0
 12 13  2  0  0  0
 12 96  1  0  0  0
 13 14  1  0  0  0
 13 31  1  0  0  0
 14 15  2  0  0  0
 14 97  1  0  0  0
 15 98  1  0  0  0
 16 17  2  0  0  0
 16 21  1  0  0  0
 16 31  1  0  0  0
 17 18  1  0  0  0
 17 99  1  0  0  0
 18 19  2  0  0  0
 18100  1  0  0  0
 19 20  1  0  0  0
 19 24  1  0  0  0
 20 21  2  0  0  0
 20101  1  0  0  0
 21 23  1  0  0  0
 22 28  1  0  0  0
 22 32  2  0  0  0
 26 27  1  0  0  0
 28102  1  0  0  0
 28103  1  0  0  0
 29104  1  0  0  0
 29105  1  0  0  0
 33 34  1  0  0  0
 33 66  1  0  0  0
 33 70  2  0  0  0
 34 36  1  0  0  0
 34 59  1  0  0  0
 34106  1  0  0  0
 35 44  2  0  0  0
 35 45  1  0  0  0
 35 68  1  0  0  0
 36 56  1  0  0  0
 36107  1  0  0  0
 37 39  1  0  0  0
 37 47  1  0  0  0
 37 66  1  0  0  0
 37108  1  0  0  0
 38 43  2  0  0  0
 38 46  1  0  0  0
 38 47  1  0  0  0
 39 64  1  0  0  0
 39 67  2  0  0  0
 40 52  1  0  0  0
 40 53  2  0  0  0
 40 58  1  0  0  0
 41109  1  0  0  0
 41110  1  0  0  0
 41111  1  0  0  0
 41 48  1  0  0  0
 42 43  1  0  0  0
 42 66  1  0  0  0
 42112  1  0  0  0
 42113  1  0  0  0
 43 44  1  0  0  0
 44114  1  0  0  0
 45 46  2  0  0  0
 45115  1  0  0  0
 46116  1  0  0  0
 47117  1  0  0  0
 47118  1  0  0  0
 48 56  1  0  0  0
 48 65  1  0  0  0
 48119  1  0  0  0
 49 50  1  0  0  0
 49 53  1  0  0  0
 49 64  1  0  0  0
 49120  1  0  0  0
 50 51  1  0  0  0
 50121  1  0  0  0
 50122  1  0  0  0
 51 52  1  0  0  0
 51123  1  0  0  0
 51124  1  0  0  0
 52125  1  0  0  0
 52126  1  0  0  0
 53 54  1  0  0  0
 54 55  2  0  0  0
 54127  1  0  0  0
 55 57  1  0  0  0
 55128  1  0  0  0
 56 69  2  0  0  0
 57 58  2  0  0  0
 57129  1  0  0  0
 58130  1  0  0  0
 59 60  1  0  0  0
 59 61  1  0  0  0
 59 62  1  0  0  0
 60131  1  0  0  0
 60132  1  0  0  0
 60133  1  0  0  0
 61134  1  0  0  0
 61135  1  0  0  0
 61136  1  0  0  0
 62137  1  0  0  0
 62138  1  0  0  0
 62139  1  0  0  0
 63 65  1  0  0  0
 63140  1  0  0  0
 63141  1  0  0  0
 63142  1  0  0  0
 64143  1  0  0  0
 65144  1  0  0  0
 68 81  1  0  0  0
 71 73  2  0  0  0
 71 75  1  0  0  0
 71145  1  0  0  0
 72 74  1  0  0  0
 72 75  2  0  0  0
 72146  1  0  0  0
 73 76  1  0  0  0
 73147  1  0  0  0
 74 76  2  0  0  0
 74148  1  0  0  0
 75 77  1  0  0  0
 76 82  1  0  0  0
 77 83  1  0  0  0
 77 84  2  0  0  0
 78 81  1  0  0  0
 78 83  1  0  0  0
 78 85  2  0  0  0
 79149  1  0  0  0
 79150  1  0  0  0
 79151  1  0  0  0
 79 81  1  0  0  0
 80 81  1  0  0  0
 80152  1  0  0  0
 80153  1  0  0  0
 80154  1  0  0  0
 82155  1  0  0  0
 83156  1  0  0  0
 84157  1  0  0  0
 84158  1  0  0  0
M  CHG  1  84   1
M  ISO  4   1 100  68 101  81 101  82 100
M  END
> <chiral flag>
0

> <version>
0

> <s_m_source_file>
/data/baiqing/PycharmProjects/Reinvent-master-3.2/result/LINK_invent/BTK/process_docking_weight1_custom_product_contain_oxygen_bond_distance_aromatic_linkinvent_7_9_3/rearranged_h_0076.sdf

> <i_m_source_file_index>
72

> <r_mmod_Potential_Energy-OPLS-2005>
-173.642227172852

> <r_mmod_Stretch_Energy-OPLS-2005>
98.8418502807617

> <r_mmod_Bend_Energy-OPLS-2005>
155.377197265625

> <r_mmod_Torsional_Energy-OPLS-2005>
240.033966064453

> <r_mmod_Improper_Torsional_Energy-OPLS-2005>
5.89040660858154

> <r_mmod_Van_der_Waal_Energy-OPLS-2005>
171.324096679688

> <r_mmod_Electrostatic_Energy-OPLS-2005>
-447.759704589844

> <r_mmod_Solvation_Energy-OPLS-2005>
-455.037445068359

> <b_mmod_Minimization_Converged-OPLS-2005>
0

> <r_mmod_RMS_Derivative-OPLS-2005>
2.27807903289795

$$$$
72
                    3D
 Structure written by MMmdl.
161170  0  0  1  0            999 V2000
  -30.6210  -14.7605   20.4364 C   0  0  0  0  0  0
  -30.4220  -12.4608   19.4818 C   0  0  0  0  0  0
  -29.5078  -12.5114   18.2388 C   0  0  0  0  0  0
  -28.0335  -12.3382   18.6497 C   0  0  0  0  0  0
  -27.6370  -13.2414   19.8484 C   0  0  2  0  0  0
  -28.6803  -13.1967   20.9859 C   0  0  0  0  0  0
  -25.2474  -13.8220   20.5698 C   0  0  0  0  0  0
  -24.1782  -13.0443   20.9214 C   0  0  0  0  0  0
  -24.6398  -11.6926   20.8757 C   0  0  0  0  0  0
  -23.9088  -10.4292   21.0409 C   0  0  0  0  0  0
  -24.3637   -9.4205   21.9185 C   0  0  0  0  0  0
  -23.6311   -8.2238   22.0752 C   0  0  0  0  0  0
  -22.4287   -8.0280   21.3548 C   0  0  0  0  0  0
  -21.9926   -9.0256   20.4652 C   0  0  0  0  0  0
  -22.7260  -10.2133   20.3062 C   0  0  0  0  0  0
  -21.6854   -6.0737   22.5282 C   0  0  0  0  0  0
  -21.4016   -6.5646   23.8215 C   0  0  0  0  0  0
  -21.3661   -5.6798   24.9180 C   0  0  0  0  0  0
  -21.6035   -4.3058   24.7231 C   0  0  0  0  0  0
  -21.8819   -3.8150   23.4354 C   0  0  0  0  0  0
  -21.9194   -4.6964   22.3407 C   0  0  0  0  0  0
  -22.7803  -13.5205   21.1892 C   0  0  0  0  0  0
  -22.1659   -4.2149   21.0984 F   0  0  0  0  0  0
  -21.5626   -3.4542   25.7743 F   0  0  0  0  0  0
  -29.9812  -13.5393   20.4001 N   0  0  0  0  0  0
  -26.2914  -12.9446   20.3283 N   0  0  0  0  0  0
  -25.9332  -11.6579   20.5766 N   0  0  0  0  0  0
  -22.0481  -12.8168   22.0452 N   0  0  0  0  0  0
  -25.4156  -15.1948   20.4089 N   0  0  0  0  0  0
  -31.8220  -14.7955   20.1578 O   0  0  0  0  0  0
  -21.6647   -6.8881   21.4242 O   0  0  0  0  0  0
  -22.3469  -14.5510   20.6749 O   0  0  0  0  0  0
  -24.6326  -31.8519   23.1972 C   0  0  0  0  0  0
  -25.9146  -32.4737   23.8320 C   0  0  1  0  0  0
  -27.2180  -27.2446   20.1274 C   0  0  0  0  0  0
  -25.5952  -33.8547   24.2236 N   0  0  0  0  0  0
  -23.4292  -30.4756   21.5386 C   0  0  2  0  0  0
  -24.8749  -28.9191   20.1057 C   0  0  0  0  0  0
  -22.7511  -29.4591   22.4895 C   0  0  0  0  0  0
  -18.0293  -28.1400   22.8486 C   0  0  0  0  0  0
  -24.1478  -36.7274   23.2643 C   0  0  0  0  0  0
  -25.9750  -30.7613   21.3766 C   0  0  0  0  0  0
  -26.0450  -29.3812   20.7195 C   0  0  0  0  0  0
  -27.2137  -28.5544   20.7215 C   0  0  0  0  0  0
  -26.0186  -26.8461   19.4962 C   0  0  0  0  0  0
  -24.8688  -27.6617   19.4835 C   0  0  0  0  0  0
  -23.6465  -29.8079   20.1540 C   0  0  0  0  0  0
  -25.4098  -36.3053   24.0319 C   0  0  1  0  0  0
  -20.5898  -28.3709   23.1265 C   0  0  2  0  0  0
  -20.6768  -26.9426   22.5424 C   0  0  0  0  0  0
  -19.5754  -26.6380   21.5222 C   0  0  0  0  0  0
  -18.1925  -26.7952   22.1607 C   0  0  0  0  0  0
  -19.1550  -28.8870   23.2870 C   0  0  0  0  0  0
  -18.9472  -30.1472   23.8893 C   0  0  0  0  0  0
  -17.6472  -30.6601   24.0567 C   0  0  0  0  0  0
  -25.9047  -34.9430   23.5065 C   0  0  0  0  0  0
  -16.5358  -29.9094   23.6342 C   0  0  0  0  0  0
  -16.7280  -28.6508   23.0365 C   0  0  0  0  0  0
  -26.4525  -31.6594   25.0729 C   0  0  0  0  0  0
  -25.3761  -31.3786   26.1474 C   0  0  0  0  0  0
  -27.0377  -30.3008   24.6247 C   0  0  0  0  0  0
  -27.6078  -32.4371   25.7475 C   0  0  0  0  0  0
  -27.5574  -37.1766   24.8454 C   0  0  0  0  0  0
  -21.4210  -29.3051   22.3651 N   0  0  0  0  0  0
  -26.4259  -37.3765   23.9433 N   0  0  0  0  0  0
  -24.6979  -31.0494   22.0936 N   0  0  0  0  0  0
  -23.4205  -28.8125   23.2991 O   0  0  0  0  0  0
  -28.3261  -26.3658   20.2233 O   0  0  0  0  0  0
  -26.5619  -34.8912   22.4637 O   0  0  0  0  0  0
  -23.5473  -32.1329   23.7279 O   0  0  0  0  0  0
  -30.7794  -20.0652   19.3986 C   0  0  0  0  0  0
  -31.3100  -17.6673   19.4792 C   0  0  0  0  0  0
  -29.3257  -18.5214   20.5800 C   0  0  0  0  0  0
  -31.6164  -18.9793   19.0700 C   0  0  0  0  0  0
  -29.6009  -19.9064   20.1635 C   0  0  0  0  0  0
  -30.1617  -17.3626   20.2483 C   0  0  0  0  0  0
  -28.9509  -22.4431   19.8746 C   0  0  0  0  0  0
  -28.3655  -23.6289   20.2985 C   0  0  0  0  0  0
  -26.9541  -22.1686   21.7891 C   0  0  0  0  0  0
  -25.6675  -21.9589   22.1140 C   0  0  0  0  0  0
  -27.4944  -23.5810   21.5430 C   0  0  0  0  0  0
  -27.9260  -20.9950   21.6093 C   0  0  0  0  0  0
  -32.8698  -19.2165   18.2505 C   0  0  0  0  0  0
  -28.4290  -25.0321   19.5274 C   0  0  0  0  0  0
  -28.8278  -21.1218   20.4586 N   0  0  0  0  0  0
  -29.8716  -15.9309   20.6081 N   0  0  0  0  0  0
  -31.4654  -12.5668   19.1809 H   0  0  0  0  0  0
  -30.3528  -11.4892   19.9733 H   0  0  0  0  0  0
  -29.7915  -11.7359   17.5262 H   0  0  0  0  0  0
  -29.6362  -13.4646   17.7221 H   0  0  0  0  0  0
  -27.8881  -11.2900   18.9132 H   0  0  0  0  0  0
  -27.3774  -12.5302   17.7999 H   0  0  0  0  0  0
  -27.6252  -14.2611   19.4615 H   0  0  0  0  0  0
  -28.7159  -12.2088   21.4473 H   0  0  0  0  0  0
  -28.4152  -13.8971   21.7801 H   0  0  0  0  0  0
  -25.2789   -9.5666   22.4753 H   0  0  0  0  0  0
  -24.0022   -7.4624   22.7464 H   0  0  0  0  0  0
  -21.0857   -8.8779   19.8961 H   0  0  0  0  0  0
  -22.3729  -10.9667   19.6166 H   0  0  0  0  0  0
  -21.2010   -7.6157   23.9721 H   0  0  0  0  0  0
  -21.1476   -6.0530   25.9082 H   0  0  0  0  0  0
  -22.0596   -2.7612   23.2855 H   0  0  0  0  0  0
  -22.4128  -11.9824   22.4798 H   0  0  0  0  0  0
  -21.1109  -13.1165   22.2718 H   0  0  0  0  0  0
  -24.6431  -15.8455   20.5042 H   0  0  0  0  0  0
  -26.2577  -15.6311   20.0557 H   0  0  0  0  0  0
  -26.7211  -32.5380   23.1054 H   0  0  0  0  0  0
  -25.0165  -33.9690   25.0429 H   0  0  0  0  0  0
  -22.7262  -31.2974   21.3908 H   0  0  0  0  0  0
  -23.3750  -35.9600   23.3260 H   0  0  0  0  0  0
  -24.3584  -36.8949   22.2074 H   0  0  0  0  0  0
  -23.7208  -37.6440   23.6712 H   0  0  0  0  0  0
  -26.1159  -31.5186   20.6044 H   0  0  0  0  0  0
  -26.8528  -30.8119   22.0087 H   0  0  0  0  0  0
  -28.1068  -28.9026   21.2223 H   0  0  0  0  0  0
  -25.9180  -25.8742   19.0414 H   0  0  0  0  0  0
  -23.9695  -27.2988   19.0044 H   0  0  0  0  0  0
  -23.7698  -30.5816   19.3951 H   0  0  0  0  0  0
  -22.7655  -29.2393   19.8504 H   0  0  0  0  0  0
  -25.1279  -36.1867   25.0807 H   0  0  0  0  0  0
  -20.9995  -28.3295   24.1382 H   0  0  0  0  0  0
  -20.5650  -26.2336   23.3637 H   0  0  0  0  0  0
  -21.6634  -26.7431   22.1230 H   0  0  0  0  0  0
  -19.6906  -25.6282   21.1277 H   0  0  0  0  0  0
  -19.6697  -27.3170   20.6739 H   0  0  0  0  0  0
  -17.4208  -26.6750   21.3989 H   0  0  0  0  0  0
  -18.0275  -26.0085   22.8983 H   0  0  0  0  0  0
  -19.7951  -30.7294   24.2254 H   0  0  0  0  0  0
  -17.5024  -31.6283   24.5171 H   0  0  0  0  0  0
  -15.5359  -30.2993   23.7673 H   0  0  0  0  0  0
  -15.8676  -28.0820   22.7095 H   0  0  0  0  0  0
  -24.5927  -30.7128   25.7843 H   0  0  0  0  0  0
  -24.8968  -32.2976   26.4862 H   0  0  0  0  0  0
  -25.8086  -30.9010   27.0273 H   0  0  0  0  0  0
  -26.2962  -29.6736   24.1289 H   0  0  0  0  0  0
  -27.4066  -29.7310   25.4783 H   0  0  0  0  0  0
  -27.8841  -30.4274   23.9491 H   0  0  0  0  0  0
  -27.2696  -33.3713   26.1978 H   0  0  0  0  0  0
  -28.3912  -32.6876   25.0306 H   0  0  0  0  0  0
  -28.0733  -31.8558   26.5446 H   0  0  0  0  0  0
  -28.2554  -38.0104   24.7544 H   0  0  0  0  0  0
  -28.1100  -36.2632   24.6185 H   0  0  0  0  0  0
  -27.2327  -37.1305   25.8867 H   0  0  0  0  0  0
  -20.9400  -29.8794   21.6869 H   0  0  0  0  0  0
  -26.0120  -38.2817   24.1499 H   0  0  0  0  0  0
  -31.0798  -21.0447   19.0593 H   0  0  0  0  0  0
  -31.9936  -16.8959   19.1630 H   0  0  0  0  0  0
  -28.4411  -18.3222   21.1644 H   0  0  0  0  0  0
  -29.5110  -22.4551   18.9505 H   0  0  0  0  0  0
  -24.9728  -22.7790   22.2307 H   0  0  0  0  0  0
  -25.2835  -20.9604   22.2700 H   0  0  0  0  0  0
  -26.6671  -24.2850   21.4404 H   0  0  0  0  0  0
  -28.0870  -23.9031   22.3996 H   0  0  0  0  0  0
  -27.3355  -20.0822   21.5359 H   0  0  0  0  0  0
  -28.5299  -20.9110   22.5138 H   0  0  0  0  0  0
  -33.1326  -20.2737   18.2119 H   0  0  0  0  0  0
  -32.7244  -18.8660   17.2284 H   0  0  0  0  0  0
  -33.7179  -18.6793   18.6765 H   0  0  0  0  0  0
  -27.7414  -24.9732   18.6876 H   0  0  0  0  0  0
  -29.4039  -25.0493   19.0389 H   0  0  0  0  0  0
  -28.9322  -15.7573   20.9328 H   0  0  0  0  0  0
  1 25  1  0  0  0
  1 30  2  0  0  0
  1 86  1  0  0  0
  2  3  1  0  0  0
  2 25  1  0  0  0
  2 87  1  0  0  0
  2 88  1  0  0  0
  3  4  1  0  0  0
  3 89  1  0  0  0
  3 90  1  0  0  0
  4  5  1  0  0  0
  4 91  1  0  0  0
  4 92  1  0  0  0
  5  6  1  0  0  0
  5 26  1  0  0  0
  5 93  1  0  0  0
  6 25  1  0  0  0
  6 94  1  0  0  0
  6 95  1  0  0  0
  7  8  2  0  0  0
  7 26  1  0  0  0
  7 29  1  0  0  0
  8  9  1  0  0  0
  8 22  1  0  0  0
  9 10  1  0  0  0
  9 27  2  0  0  0
 10 11  2  0  0  0
 10 15  1  0  0  0
 11 12  1  0  0  0
 11 96  1  0  0  0
 12 13  2  0  0  0
 12 97  1  0  0  0
 13 14  1  0  0  0
 13 31  1  0  0  0
 14 15  2  0  0  0
 14 98  1  0  0  0
 15 99  1  0  0  0
 16 17  2  0  0  0
 16 21  1  0  0  0
 16 31  1  0  0  0
 17 18  1  0  0  0
 17100  1  0  0  0
 18 19  2  0  0  0
 18101  1  0  0  0
 19 20  1  0  0  0
 19 24  1  0  0  0
 20 21  2  0  0  0
 20102  1  0  0  0
 21 23  1  0  0  0
 22 28  1  0  0  0
 22 32  2  0  0  0
 26 27  1  0  0  0
 28103  1  0  0  0
 28104  1  0  0  0
 29105  1  0  0  0
 29106  1  0  0  0
 33 34  1  0  0  0
 33 66  1  0  0  0
 33 70  2  0  0  0
 34 36  1  0  0  0
 34 59  1  0  0  0
 34107  1  0  0  0
 35 44  2  0  0  0
 35 45  1  0  0  0
 35 68  1  0  0  0
 36 56  1  0  0  0
 36108  1  0  0  0
 37 39  1  0  0  0
 37 47  1  0  0  0
 37 66  1  0  0  0
 37109  1  0  0  0
 38 43  2  0  0  0
 38 46  1  0  0  0
 38 47  1  0  0  0
 39 64  1  0  0  0
 39 67  2  0  0  0
 40 52  1  0  0  0
 40 53  2  0  0  0
 40 58  1  0  0  0
 41110  1  0  0  0
 41111  1  0  0  0
 41112  1  0  0  0
 41 48  1  0  0  0
 42 43  1  0  0  0
 42 66  1  0  0  0
 42113  1  0  0  0
 42114  1  0  0  0
 43 44  1  0  0  0
 44115  1  0  0  0
 45 46  2  0  0  0
 45116  1  0  0  0
 46117  1  0  0  0
 47118  1  0  0  0
 47119  1  0  0  0
 48 56  1  0  0  0
 48 65  1  0  0  0
 48120  1  0  0  0
 49 50  1  0  0  0
 49 53  1  0  0  0
 49 64  1  0  0  0
 49121  1  0  0  0
 50 51  1  0  0  0
 50122  1  0  0  0
 50123  1  0  0  0
 51 52  1  0  0  0
 51124  1  0  0  0
 51125  1  0  0  0
 52126  1  0  0  0
 52127  1  0  0  0
 53 54  1  0  0  0
 54 55  2  0  0  0
 54128  1  0  0  0
 55 57  1  0  0  0
 55129  1  0  0  0
 56 69  2  0  0  0
 57 58  2  0  0  0
 57130  1  0  0  0
 58131  1  0  0  0
 59 60  1  0  0  0
 59 61  1  0  0  0
 59 62  1  0  0  0
 60132  1  0  0  0
 60133  1  0  0  0
 60134  1  0  0  0
 61135  1  0  0  0
 61136  1  0  0  0
 61137  1  0  0  0
 62138  1  0  0  0
 62139  1  0  0  0
 62140  1  0  0  0
 63 65  1  0  0  0
 63141  1  0  0  0
 63142  1  0  0  0
 63143  1  0  0  0
 64144  1  0  0  0
 65145  1  0  0  0
 68 84  1  0  0  0
 71 74  2  0  0  0
 71 75  1  0  0  0
 71146  1  0  0  0
 72 74  1  0  0  0
 72 76  2  0  0  0
 72147  1  0  0  0
 73 75  2  0  0  0
 73 76  1  0  0  0
 73148  1  0  0  0
 74 83  1  0  0  0
 75 85  1  0  0  0
 76 86  1  0  0  0
 77 78  2  0  0  0
 77 85  1  0  0  0
 77149  1  0  0  0
 78 81  1  0  0  0
 78 84  1  0  0  0
 79 80  2  0  0  0
 79 81  1  0  0  0
 79 82  1  0  0  0
 80150  1  0  0  0
 80151  1  0  0  0
 81152  1  0  0  0
 81153  1  0  0  0
 82 85  1  0  0  0
 82154  1  0  0  0
 82155  1  0  0  0
 83156  1  0  0  0
 83157  1  0  0  0
 83158  1  0  0  0
 84159  1  0  0  0
 84160  1  0  0  0
 86161  1  0  0  0
M  ISO  4   1 100  68 101  84 101  86 100
M  END
> <chiral flag>
0

> <version>
0

> <s_m_source_file>
/data/baiqing/PycharmProjects/Reinvent-master-3.2/result/LINK_invent/BTK/process_docking_weight1_custom_product_contain_oxygen_bond_distance_aromatic_linkinvent_7_9_3/rearranged_h_0076.sdf

> <i_m_source_file_index>
73

> <r_mmod_Potential_Energy-OPLS-2005>
231.073120117188

> <r_mmod_Stretch_Energy-OPLS-2005>
141.537307739258

> <r_mmod_Bend_Energy-OPLS-2005>
175.660568237305

> <r_mmod_Torsional_Energy-OPLS-2005>
199.861145019531

> <r_mmod_Improper_Torsional_Energy-OPLS-2005>
4.52820444107056

> <r_mmod_Van_der_Waal_Energy-OPLS-2005>
158.219085693359

> <r_mmod_Electrostatic_Energy-OPLS-2005>
-335.198028564453

> <r_mmod_Solvation_Energy-OPLS-2005>
-207.488861083984

> <b_mmod_Minimization_Converged-OPLS-2005>
0

> <r_mmod_RMS_Derivative-OPLS-2005>
1.76971352100372

$$$$
73
                    3D
 Structure written by MMmdl.
162171  0  0  1  0            999 V2000
  -30.6570  -14.6841   20.5697 C   0  0  0  0  0  0
  -30.4295  -12.4411   19.4706 C   0  0  0  0  0  0
  -29.5076  -12.5267   18.2351 C   0  0  0  0  0  0
  -28.0356  -12.3412   18.6452 C   0  0  0  0  0  0
  -27.6475  -13.2267   19.8573 C   0  0  2  0  0  0
  -28.6841  -13.1188   20.9951 C   0  0  0  0  0  0
  -25.2537  -13.8193   20.5701 C   0  0  0  0  0  0
  -24.1814  -13.0443   20.9195 C   0  0  0  0  0  0
  -24.6393  -11.6918   20.8730 C   0  0  0  0  0  0
  -23.9063  -10.4296   21.0396 C   0  0  0  0  0  0
  -24.3614   -9.4214   21.9177 C   0  0  0  0  0  0
  -23.6292   -8.2246   22.0752 C   0  0  0  0  0  0
  -22.4272   -8.0280   21.3540 C   0  0  0  0  0  0
  -21.9906   -9.0252   20.4640 C   0  0  0  0  0  0
  -22.7234  -10.2134   20.3048 C   0  0  0  0  0  0
  -21.6853   -6.0739   22.5276 C   0  0  0  0  0  0
  -21.4012   -6.5642   23.8212 C   0  0  0  0  0  0
  -21.3657   -5.6793   24.9169 C   0  0  0  0  0  0
  -21.6042   -4.3058   24.7222 C   0  0  0  0  0  0
  -21.8819   -3.8147   23.4344 C   0  0  0  0  0  0
  -21.9194   -4.6964   22.3399 C   0  0  0  0  0  0
  -22.7836  -13.5231   21.1862 C   0  0  0  0  0  0
  -22.1661   -4.2153   21.0979 F   0  0  0  0  0  0
  -21.5628   -3.4538   25.7736 F   0  0  0  0  0  0
  -30.0025  -13.4745   20.4453 N   0  0  0  0  0  0
  -26.2955  -12.9388   20.3277 N   0  0  0  0  0  0
  -25.9318  -11.6536   20.5725 N   0  0  0  0  0  0
  -22.0475  -12.8215   22.0409 N   0  0  0  0  0  0
  -25.4271  -15.1915   20.4169 N   0  0  0  0  0  0
  -31.7472  -14.8515   20.0134 O   0  0  0  0  0  0
  -21.6638   -6.8879   21.4238 O   0  0  0  0  0  0
  -22.3519  -14.5538   20.6712 O   0  0  0  0  0  0
  -24.6310  -31.8561   23.1994 C   0  0  0  0  0  0
  -25.9143  -32.4754   23.8328 C   0  0  1  0  0  0
  -27.2194  -27.2658   20.1235 C   0  0  0  0  0  0
  -25.5936  -33.8555   24.2251 N   0  0  0  0  0  0
  -23.4261  -30.4798   21.5431 C   0  0  2  0  0  0
  -24.8733  -28.9285   20.1091 C   0  0  0  0  0  0
  -22.7494  -29.4606   22.4920 C   0  0  0  0  0  0
  -18.0288  -28.1391   22.8482 C   0  0  0  0  0  0
  -24.1479  -36.7263   23.2638 C   0  0  0  0  0  0
  -25.9726  -30.7711   21.3765 C   0  0  0  0  0  0
  -26.0452  -29.3942   20.7176 C   0  0  0  0  0  0
  -27.2203  -28.5753   20.7133 C   0  0  0  0  0  0
  -26.0229  -26.8733   19.4776 C   0  0  0  0  0  0
  -24.8679  -27.6766   19.4773 C   0  0  0  0  0  0
  -23.6433  -29.8140   20.1591 C   0  0  0  0  0  0
  -25.4111  -36.3059   24.0323 C   0  0  1  0  0  0
  -20.5890  -28.3695   23.1265 C   0  0  2  0  0  0
  -20.6771  -26.9417   22.5400 C   0  0  0  0  0  0
  -19.5751  -26.6395   21.5200 C   0  0  0  0  0  0
  -18.1932  -26.7931   22.1625 C   0  0  0  0  0  0
  -19.1545  -28.8862   23.2866 C   0  0  0  0  0  0
  -18.9466  -30.1460   23.8887 C   0  0  0  0  0  0
  -17.6464  -30.6586   24.0560 C   0  0  0  0  0  0
  -25.9055  -34.9439   23.5088 C   0  0  0  0  0  0
  -16.5357  -29.9083   23.6334 C   0  0  0  0  0  0
  -16.7272  -28.6506   23.0355 C   0  0  0  0  0  0
  -26.4515  -31.6576   25.0715 C   0  0  0  0  0  0
  -25.3744  -31.3724   26.1433 C   0  0  0  0  0  0
  -27.0362  -30.2994   24.6202 C   0  0  0  0  0  0
  -27.6048  -32.4325   25.7503 C   0  0  0  0  0  0
  -27.5568  -37.1798   24.8477 C   0  0  0  0  0  0
  -21.4204  -29.3041   22.3658 N   0  0  0  0  0  0
  -26.4283  -37.3763   23.9414 N   0  0  0  0  0  0
  -24.6955  -31.0534   22.0958 N   0  0  0  0  0  0
  -23.4199  -28.8133   23.3006 O   0  0  0  0  0  0
  -28.3128  -26.3670   20.1969 O   0  0  0  0  0  0
  -26.5628  -34.8926   22.4656 O   0  0  0  0  0  0
  -23.5465  -32.1372   23.7311 O   0  0  0  0  0  0
  -30.1223  -19.2496   19.7864 C   0  0  0  0  0  0
  -30.3383  -17.8362   19.9785 C   0  0  0  0  0  0
  -28.7973  -19.3275   21.7156 C   0  0  0  0  0  0
  -29.3618  -20.0984   20.6566 C   0  0  0  0  0  0
  -29.8135  -17.1045   21.0851 C   0  0  0  0  0  0
  -28.9956  -17.9208   21.9402 C   0  0  0  0  0  0
  -29.3872  -22.5316   19.4979 C   0  0  0  0  0  0
  -28.5427  -22.5648   21.3339 C   0  0  0  0  0  0
  -27.5111  -16.9894   26.4773 C   0  0  0  0  0  0
  -27.5298  -16.8263   25.1426 C   0  0  0  0  0  0
  -28.2831  -17.7332   24.2964 C   0  0  0  0  0  0
  -29.0997  -23.7436   20.4612 C   0  0  0  0  0  0
  -30.4281  -15.3568   22.8121 C   0  0  0  0  0  0
  -28.0673  -24.8923   19.9903 C   0  0  0  0  0  0
  -29.1655  -21.5750   20.5242 N   0  0  0  0  0  0
  -28.2918  -17.3209   23.0197 N   0  0  0  0  0  0
  -30.1314  -15.6667   21.3973 N   0  0  0  0  0  0
  -29.7069  -22.3910   18.3341 O   0  0  0  0  0  0
  -27.8660  -22.4654   22.3379 O   0  0  0  0  0  0
  -28.8605  -18.7520   24.6877 O   0  0  0  0  0  0
  -31.4719  -12.5594   19.1691 H   0  0  0  0  0  0
  -30.3676  -11.4516   19.9262 H   0  0  0  0  0  0
  -29.7894  -11.7715   17.5002 H   0  0  0  0  0  0
  -29.6337  -13.4937   17.7455 H   0  0  0  0  0  0
  -27.8920  -11.2894   18.8954 H   0  0  0  0  0  0
  -27.3768  -12.5439   17.7994 H   0  0  0  0  0  0
  -27.6568  -14.2568   19.5003 H   0  0  0  0  0  0
  -28.7070  -12.1078   21.4039 H   0  0  0  0  0  0
  -28.3888  -13.7672   21.8181 H   0  0  0  0  0  0
  -25.2759   -9.5695   22.4751 H   0  0  0  0  0  0
  -24.0005   -7.4644   22.7474 H   0  0  0  0  0  0
  -21.0840   -8.8767   19.8947 H   0  0  0  0  0  0
  -22.3686  -10.9668   19.6158 H   0  0  0  0  0  0
  -21.1998   -7.6153   23.9713 H   0  0  0  0  0  0
  -21.1476   -6.0522   25.9075 H   0  0  0  0  0  0
  -22.0598   -2.7608   23.2840 H   0  0  0  0  0  0
  -22.4097  -11.9872   22.4782 H   0  0  0  0  0  0
  -21.1092  -13.1235   22.2615 H   0  0  0  0  0  0
  -24.6594  -15.8457   20.5193 H   0  0  0  0  0  0
  -26.2772  -15.6267   20.0818 H   0  0  0  0  0  0
  -26.7194  -32.5426   23.1057 H   0  0  0  0  0  0
  -25.0099  -33.9669   25.0410 H   0  0  0  0  0  0
  -22.7230  -31.3030   21.3982 H   0  0  0  0  0  0
  -23.3751  -35.9584   23.3314 H   0  0  0  0  0  0
  -24.3554  -36.8878   22.2048 H   0  0  0  0  0  0
  -23.7242  -37.6476   23.6645 H   0  0  0  0  0  0
  -26.1136  -31.5328   20.6081 H   0  0  0  0  0  0
  -26.8493  -30.8170   22.0111 H   0  0  0  0  0  0
  -28.1160  -28.9264   21.2057 H   0  0  0  0  0  0
  -25.9425  -25.9196   18.9783 H   0  0  0  0  0  0
  -23.9726  -27.3159   18.9902 H   0  0  0  0  0  0
  -23.7651  -30.5894   19.4019 H   0  0  0  0  0  0
  -22.7628  -29.2446   19.8547 H   0  0  0  0  0  0
  -25.1304  -36.1888   25.0817 H   0  0  0  0  0  0
  -20.9984  -28.3263   24.1385 H   0  0  0  0  0  0
  -20.5655  -26.2313   23.3601 H   0  0  0  0  0  0
  -21.6641  -26.7430   22.1208 H   0  0  0  0  0  0
  -19.6908  -25.6308   21.1226 H   0  0  0  0  0  0
  -19.6678  -27.3203   20.6724 H   0  0  0  0  0  0
  -17.4198  -26.6669   21.4029 H   0  0  0  0  0  0
  -18.0340  -26.0074   22.9022 H   0  0  0  0  0  0
  -19.7944  -30.7277   24.2259 H   0  0  0  0  0  0
  -17.5023  -31.6268   24.5167 H   0  0  0  0  0  0
  -15.5360  -30.2980   23.7671 H   0  0  0  0  0  0
  -15.8671  -28.0817   22.7088 H   0  0  0  0  0  0
  -24.5921  -30.7062   25.7774 H   0  0  0  0  0  0
  -24.8942  -32.2897   26.4841 H   0  0  0  0  0  0
  -25.8073  -30.8923   27.0218 H   0  0  0  0  0  0
  -26.2946  -29.6745   24.1212 H   0  0  0  0  0  0
  -27.4033  -29.7246   25.4721 H   0  0  0  0  0  0
  -27.8815  -30.4282   23.9438 H   0  0  0  0  0  0
  -27.2636  -33.3633   26.2046 H   0  0  0  0  0  0
  -28.3871  -32.6888   25.0342 H   0  0  0  0  0  0
  -28.0686  -31.8488   26.5469 H   0  0  0  0  0  0
  -28.2603  -38.0078   24.7498 H   0  0  0  0  0  0
  -28.1045  -36.2613   24.6320 H   0  0  0  0  0  0
  -27.2282  -37.1469   25.8882 H   0  0  0  0  0  0
  -20.9395  -29.8758   21.6856 H   0  0  0  0  0  0
  -26.0154  -38.2835   24.1417 H   0  0  0  0  0  0
  -30.5916  -19.7066   18.9261 H   0  0  0  0  0  0
  -30.9652  -17.3215   19.2644 H   0  0  0  0  0  0
  -28.1610  -19.8534   22.4125 H   0  0  0  0  0  0
  -26.9490  -16.3173   27.1088 H   0  0  0  0  0  0
  -28.0534  -17.7898   26.9629 H   0  0  0  0  0  0
  -26.9721  -16.0084   24.7080 H   0  0  0  0  0  0
  -30.0150  -24.1679   20.8702 H   0  0  0  0  0  0
  -30.8043  -16.2369   23.3350 H   0  0  0  0  0  0
  -31.1943  -14.5880   22.9479 H   0  0  0  0  0  0
  -29.5413  -15.0023   23.3366 H   0  0  0  0  0  0
  -27.1097  -24.6671   20.4621 H   0  0  0  0  0  0
  -27.8917  -24.7678   18.9211 H   0  0  0  0  0  0
  -27.8810  -16.4155   22.8433 H   0  0  0  0  0  0
  1 25  1  0  0  0
  1 30  2  0  0  0
  1 87  1  0  0  0
  2  3  1  0  0  0
  2 25  1  0  0  0
  2 91  1  0  0  0
  2 92  1  0  0  0
  3  4  1  0  0  0
  3 93  1  0  0  0
  3 94  1  0  0  0
  4  5  1  0  0  0
  4 95  1  0  0  0
  4 96  1  0  0  0
  5  6  1  0  0  0
  5 26  1  0  0  0
  5 97  1  0  0  0
  6 25  1  0  0  0
  6 98  1  0  0  0
  6 99  1  0  0  0
  7  8  2  0  0  0
  7 26  1  0  0  0
  7 29  1  0  0  0
  8  9  1  0  0  0
  8 22  1  0  0  0
  9 10  1  0  0  0
  9 27  2  0  0  0
 10 11  2  0  0  0
 10 15  1  0  0  0
 11 12  1  0  0  0
 11100  1  0  0  0
 12 13  2  0  0  0
 12101  1  0  0  0
 13 14  1  0  0  0
 13 31  1  0  0  0
 14 15  2  0  0  0
 14102  1  0  0  0
 15103  1  0  0  0
 16 17  2  0  0  0
 16 21  1  0  0  0
 16 31  1  0  0  0
 17 18  1  0  0  0
 17104  1  0  0  0
 18 19  2  0  0  0
 18105  1  0  0  0
 19 20  1  0  0  0
 19 24  1  0  0  0
 20 21  2  0  0  0
 20106  1  0  0  0
 21 23  1  0  0  0
 22 28  1  0  0  0
 22 32  2  0  0  0
 26 27  1  0  0  0
 28107  1  0  0  0
 28108  1  0  0  0
 29109  1  0  0  0
 29110  1  0  0  0
 33 34  1  0  0  0
 33 66  1  0  0  0
 33 70  2  0  0  0
 34 36  1  0  0  0
 34 59  1  0  0  0
 34111  1  0  0  0
 35 44  2  0  0  0
 35 45  1  0  0  0
 35 68  1  0  0  0
 36 56  1  0  0  0
 36112  1  0  0  0
 37 39  1  0  0  0
 37 47  1  0  0  0
 37 66  1  0  0  0
 37113  1  0  0  0
 38 43  2  0  0  0
 38 46  1  0  0  0
 38 47  1  0  0  0
 39 64  1  0  0  0
 39 67  2  0  0  0
 40 52  1  0  0  0
 40 53  2  0  0  0
 40 58  1  0  0  0
 41114  1  0  0  0
 41115  1  0  0  0
 41116  1  0  0  0
 41 48  1  0  0  0
 42 43  1  0  0  0
 42 66  1  0  0  0
 42117  1  0  0  0
 42118  1  0  0  0
 43 44  1  0  0  0
 44119  1  0  0  0
 45 46  2  0  0  0
 45120  1  0  0  0
 46121  1  0  0  0
 47122  1  0  0  0
 47123  1  0  0  0
 48 56  1  0  0  0
 48 65  1  0  0  0
 48124  1  0  0  0
 49 50  1  0  0  0
 49 53  1  0  0  0
 49 64  1  0  0  0
 49125  1  0  0  0
 50 51  1  0  0  0
 50126  1  0  0  0
 50127  1  0  0  0
 51 52  1  0  0  0
 51128  1  0  0  0
 51129  1  0  0  0
 52130  1  0  0  0
 52131  1  0  0  0
 53 54  1  0  0  0
 54 55  2  0  0  0
 54132  1  0  0  0
 55 57  1  0  0  0
 55133  1  0  0  0
 56 69  2  0  0  0
 57 58  2  0  0  0
 57134  1  0  0  0
 58135  1  0  0  0
 59 60  1  0  0  0
 59 61  1  0  0  0
 59 62  1  0  0  0
 60136  1  0  0  0
 60137  1  0  0  0
 60138  1  0  0  0
 61139  1  0  0  0
 61140  1  0  0  0
 61141  1  0  0  0
 62142  1  0  0  0
 62143  1  0  0  0
 62144  1  0  0  0
 63 65  1  0  0  0
 63145  1  0  0  0
 63146  1  0  0  0
 63147  1  0  0  0
 64148  1  0  0  0
 65149  1  0  0  0
 68 84  1  0  0  0
 71 72  2  0  0  0
 71 74  1  0  0  0
 71150  1  0  0  0
 72 75  1  0  0  0
 72151  1  0  0  0
 73 74  2  0  0  0
 73 76  1  0  0  0
 73152  1  0  0  0
 74 85  1  0  0  0
 75 76  2  0  0  0
 75 87  1  0  0  0
 76 86  1  0  0  0
 77 82  1  0  0  0
 77 85  1  0  0  0
 77 88  2  0  0  0
 78 82  1  0  0  0
 78 85  1  0  0  0
 78 89  2  0  0  0
 79 80  2  0  0  0
 79153  1  0  0  0
 79154  1  0  0  0
 80 81  1  0  0  0
 80155  1  0  0  0
 81 86  1  0  0  0
 81 90  2  0  0  0
 82 84  1  0  0  0
 82156  1  0  0  0
 83 87  1  0  0  0
 83157  1  0  0  0
 83158  1  0  0  0
 83159  1  0  0  0
 84160  1  0  0  0
 84161  1  0  0  0
 86162  1  0  0  0
M  ISO  4   1 100  68 101  84 101  87 100
M  END
> <chiral flag>
0

> <version>
0

> <s_m_source_file>
/data/baiqing/PycharmProjects/Reinvent-master-3.2/result/LINK_invent/BTK/process_docking_weight1_custom_product_contain_oxygen_bond_distance_aromatic_linkinvent_7_9_3/rearranged_h_0076.sdf

> <i_m_source_file_index>
74

> <r_mmod_Potential_Energy-OPLS-2005>
151.088516235352

> <r_mmod_Stretch_Energy-OPLS-2005>
123.55460357666

> <r_mmod_Bend_Energy-OPLS-2005>
188.092712402344

> <r_mmod_Torsional_Energy-OPLS-2005>
300.605377197266

> <r_mmod_Improper_Torsional_Energy-OPLS-2005>
4.59094047546387

> <r_mmod_Van_der_Waal_Energy-OPLS-2005>
152.664001464844

> <r_mmod_Electrostatic_Energy-OPLS-2005>
-448.779205322266

> <r_mmod_Solvation_Energy-OPLS-2005>
-240.190765380859

> <b_mmod_Minimization_Converged-OPLS-2005>
0

> <r_mmod_RMS_Derivative-OPLS-2005>
1.98426234722137

$$$$
74
                    3D
 Structure written by MMmdl.
163172  0  0  1  0            999 V2000
  -30.6156  -14.7345   20.3618 C   0  0  0  0  0  0
  -30.4445  -12.4228   19.4684 C   0  0  0  0  0  0
  -29.5186  -12.3864   18.2346 C   0  0  0  0  0  0
  -28.0307  -12.2924   18.6458 C   0  0  0  0  0  0
  -27.6327  -13.2143   19.8351 C   0  0  2  0  0  0
  -28.6911  -13.1994   20.9595 C   0  0  0  0  0  0
  -25.2427  -13.8111   20.5653 C   0  0  0  0  0  0
  -24.1715  -13.0380   20.9202 C   0  0  0  0  0  0
  -24.6311  -11.6873   20.8780 C   0  0  0  0  0  0
  -23.9002  -10.4251   21.0410 C   0  0  0  0  0  0
  -24.3555   -9.4161   21.9180 C   0  0  0  0  0  0
  -23.6216   -8.2201   22.0740 C   0  0  0  0  0  0
  -22.4203   -8.0241   21.3533 C   0  0  0  0  0  0
  -21.9821   -9.0227   20.4631 C   0  0  0  0  0  0
  -22.7174  -10.2101   20.3049 C   0  0  0  0  0  0
  -21.6835   -6.0653   22.5264 C   0  0  0  0  0  0
  -21.4012   -6.5567   23.8196 C   0  0  0  0  0  0
  -21.3666   -5.6744   24.9181 C   0  0  0  0  0  0
  -21.6056   -4.3010   24.7245 C   0  0  0  0  0  0
  -21.8812   -3.8077   23.4373 C   0  0  0  0  0  0
  -21.9168   -4.6875   22.3406 C   0  0  0  0  0  0
  -22.7727  -13.5176   21.1874 C   0  0  0  0  0  0
  -22.1632   -4.2044   21.0984 F   0  0  0  0  0  0
  -21.5651   -3.4494   25.7762 F   0  0  0  0  0  0
  -29.9854  -13.5146   20.3454 N   0  0  0  0  0  0
  -26.2879  -12.9296   20.3280 N   0  0  0  0  0  0
  -25.9259  -11.6481   20.5840 N   0  0  0  0  0  0
  -22.0339  -12.8216   22.0442 N   0  0  0  0  0  0
  -25.4101  -15.1814   20.3973 N   0  0  0  0  0  0
  -31.8447  -14.7928   20.2563 O   0  0  0  0  0  0
  -21.6638   -6.8798   21.4215 O   0  0  0  0  0  0
  -22.3448  -14.5474   20.6685 O   0  0  0  0  0  0
  -24.6292  -31.8599   23.2021 C   0  0  0  0  0  0
  -25.9133  -32.4765   23.8348 C   0  0  1  0  0  0
  -27.2147  -27.3011   20.1450 C   0  0  0  0  0  0
  -25.5945  -33.8567   24.2274 N   0  0  0  0  0  0
  -23.4248  -30.4816   21.5437 C   0  0  2  0  0  0
  -24.8687  -28.9268   20.1141 C   0  0  0  0  0  0
  -22.7505  -29.4632   22.4957 C   0  0  0  0  0  0
  -18.0303  -28.1385   22.8486 C   0  0  0  0  0  0
  -24.1486  -36.7281   23.2648 C   0  0  0  0  0  0
  -25.9645  -30.7804   21.3776 C   0  0  0  0  0  0
  -26.0329  -29.4015   20.7324 C   0  0  0  0  0  0
  -27.2120  -28.5987   20.7387 C   0  0  0  0  0  0
  -26.0480  -26.8934   19.4752 C   0  0  0  0  0  0
  -24.8791  -27.6788   19.4697 C   0  0  0  0  0  0
  -23.6401  -29.8129   20.1605 C   0  0  0  0  0  0
  -25.4107  -36.3078   24.0338 C   0  0  1  0  0  0
  -20.5898  -28.3703   23.1272 C   0  0  2  0  0  0
  -20.6814  -26.9428   22.5383 C   0  0  0  0  0  0
  -19.5766  -26.6374   21.5221 C   0  0  0  0  0  0
  -18.1949  -26.7921   22.1646 C   0  0  0  0  0  0
  -19.1547  -28.8872   23.2863 C   0  0  0  0  0  0
  -18.9463  -30.1482   23.8877 C   0  0  0  0  0  0
  -17.6453  -30.6582   24.0564 C   0  0  0  0  0  0
  -25.9039  -34.9439   23.5097 C   0  0  0  0  0  0
  -16.5362  -29.9070   23.6324 C   0  0  0  0  0  0
  -16.7282  -28.6486   23.0354 C   0  0  0  0  0  0
  -26.4491  -31.6592   25.0735 C   0  0  0  0  0  0
  -25.3724  -31.3721   26.1476 C   0  0  0  0  0  0
  -27.0319  -30.3010   24.6183 C   0  0  0  0  0  0
  -27.6033  -32.4341   25.7476 C   0  0  0  0  0  0
  -27.5570  -37.1811   24.8477 C   0  0  0  0  0  0
  -21.4221  -29.3068   22.3705 N   0  0  0  0  0  0
  -26.4285  -37.3773   23.9410 N   0  0  0  0  0  0
  -24.6912  -31.0601   22.0962 N   0  0  0  0  0  0
  -23.4243  -28.8190   23.3064 O   0  0  0  0  0  0
  -28.3329  -26.4636   20.1027 O   0  0  0  0  0  0
  -26.5609  -34.8924   22.4665 O   0  0  0  0  0  0
  -23.5455  -32.1412   23.7338 O   0  0  0  0  0  0
  -28.1307  -19.1060   20.5108 C   0  0  0  0  0  0
  -28.3977  -17.7039   20.5039 C   0  0  0  0  0  0
  -30.4939  -19.5442   20.4617 C   0  0  0  0  0  0
  -29.1721  -20.0691   20.4493 C   0  0  0  0  0  0
  -29.7096  -17.1727   20.4031 C   0  0  0  0  0  0
  -30.7654  -18.1364   20.4227 C   0  0  0  0  0  0
  -28.6222  -22.5030   21.0722 C   0  0  0  0  0  0
  -28.3481  -23.4825   18.9435 C   0  0  0  0  0  0
  -28.5921  -21.9564   18.8424 C   0  0  0  0  0  0
  -27.9480  -23.7627   20.3986 C   0  0  1  0  0  0
  -26.4230  -23.5636   20.6052 C   0  0  0  0  0  0
  -29.7101  -15.8184   18.4214 C   0  0  0  0  0  0
  -28.3919  -25.2227   20.9185 C   0  0  0  0  0  0
  -28.8850  -21.4883   20.1957 N   0  0  0  0  0  0
  -32.0901  -17.7265   20.2836 N   0  0  0  0  0  0
  -29.8604  -15.8006   19.8901 N   0  0  0  0  0  0
  -28.8451  -22.4555   22.2856 O   0  0  0  0  0  0
  -31.4808  -12.5639   19.1532 H   0  0  0  0  0  0
  -30.4196  -11.4746   20.0058 H   0  0  0  0  0  0
  -29.7748  -11.5203   17.6200 H   0  0  0  0  0  0
  -29.6998  -13.2462   17.5933 H   0  0  0  0  0  0
  -27.8466  -11.2542   18.9244 H   0  0  0  0  0  0
  -27.3911  -12.4842   17.7851 H   0  0  0  0  0  0
  -27.5911  -14.2231   19.4353 H   0  0  0  0  0  0
  -28.7250  -12.2292   21.4537 H   0  0  0  0  0  0
  -28.4515  -13.9404   21.7259 H   0  0  0  0  0  0
  -25.2689   -9.5633   22.4775 H   0  0  0  0  0  0
  -23.9899   -7.4548   22.7429 H   0  0  0  0  0  0
  -21.0746   -8.8771   19.8896 H   0  0  0  0  0  0
  -22.3632  -10.9657   19.6168 H   0  0  0  0  0  0
  -21.2030   -7.6076   23.9688 H   0  0  0  0  0  0
  -21.1504   -6.0480   25.9088 H   0  0  0  0  0  0
  -22.0595   -2.7523   23.2933 H   0  0  0  0  0  0
  -22.3919  -11.9910   22.4926 H   0  0  0  0  0  0
  -21.0977  -13.1257   22.2719 H   0  0  0  0  0  0
  -24.6464  -15.8449   20.4793 H   0  0  0  0  0  0
  -26.2603  -15.5936   20.0410 H   0  0  0  0  0  0
  -26.7223  -32.5417   23.1110 H   0  0  0  0  0  0
  -25.0104  -33.9686   25.0434 H   0  0  0  0  0  0
  -22.7218  -31.3051   21.4006 H   0  0  0  0  0  0
  -23.3739  -35.9623   23.3324 H   0  0  0  0  0  0
  -24.3591  -36.8889   22.2069 H   0  0  0  0  0  0
  -23.7258  -37.6503   23.6641 H   0  0  0  0  0  0
  -26.1056  -31.5340   20.6017 H   0  0  0  0  0  0
  -26.8443  -30.8307   22.0093 H   0  0  0  0  0  0
  -28.1116  -28.9651   21.2138 H   0  0  0  0  0  0
  -26.0453  -25.9682   18.9244 H   0  0  0  0  0  0
  -23.9986  -27.3219   18.9523 H   0  0  0  0  0  0
  -23.7696  -30.5892   19.4067 H   0  0  0  0  0  0
  -22.7560  -29.2517   19.8545 H   0  0  0  0  0  0
  -25.1294  -36.1923   25.0833 H   0  0  0  0  0  0
  -20.9976  -28.3278   24.1392 H   0  0  0  0  0  0
  -20.5832  -26.2291   23.3583 H   0  0  0  0  0  0
  -21.6667  -26.7538   22.1109 H   0  0  0  0  0  0
  -19.6932  -25.6270   21.1283 H   0  0  0  0  0  0
  -19.6679  -27.3174   20.6731 H   0  0  0  0  0  0
  -17.4230  -26.6677   21.4038 H   0  0  0  0  0  0
  -18.0333  -26.0073   22.9053 H   0  0  0  0  0  0
  -19.7936  -30.7296   24.2250 H   0  0  0  0  0  0
  -17.4993  -31.6269   24.5175 H   0  0  0  0  0  0
  -15.5340  -30.2956   23.7654 H   0  0  0  0  0  0
  -15.8690  -28.0804   22.7059 H   0  0  0  0  0  0
  -24.5879  -30.7080   25.7841 H   0  0  0  0  0  0
  -24.8918  -32.2877   26.4925 H   0  0  0  0  0  0
  -25.8086  -30.8908   27.0253 H   0  0  0  0  0  0
  -26.2883  -29.6768   24.1201 H   0  0  0  0  0  0
  -27.4040  -29.7259   25.4687 H   0  0  0  0  0  0
  -27.8759  -30.4325   23.9394 H   0  0  0  0  0  0
  -27.2621  -33.3648   26.2034 H   0  0  0  0  0  0
  -28.3809  -32.6924   25.0266 H   0  0  0  0  0  0
  -28.0730  -31.8492   26.5412 H   0  0  0  0  0  0
  -28.2618  -38.0077   24.7466 H   0  0  0  0  0  0
  -28.1047  -36.2616   24.6355 H   0  0  0  0  0  0
  -27.2286  -37.1512   25.8885 H   0  0  0  0  0  0
  -20.9406  -29.8761   21.6888 H   0  0  0  0  0  0
  -26.0167  -38.2852   24.1399 H   0  0  0  0  0  0
  -27.1014  -19.4361   20.4780 H   0  0  0  0  0  0
  -27.5562  -17.0278   20.4537 H   0  0  0  0  0  0
  -31.3196  -20.2404   20.4034 H   0  0  0  0  0  0
  -27.5880  -23.8177   18.2364 H   0  0  0  0  0  0
  -29.2668  -24.0226   18.7085 H   0  0  0  0  0  0
  -29.4039  -21.7223   18.1511 H   0  0  0  0  0  0
  -27.6942  -21.4538   18.4820 H   0  0  0  0  0  0
  -26.1083  -22.5447   20.3715 H   0  0  0  0  0  0
  -25.8196  -24.2089   19.9787 H   0  0  0  0  0  0
  -26.1327  -23.7464   21.6401 H   0  0  0  0  0  0
  -30.6227  -15.4994   17.9102 H   0  0  0  0  0  0
  -29.4851  -16.8149   18.0381 H   0  0  0  0  0  0
  -28.8915  -15.1932   18.0788 H   0  0  0  0  0  0
  -29.4475  -25.1368   21.1794 H   0  0  0  0  0  0
  -27.8981  -25.4200   21.8698 H   0  0  0  0  0  0
  -32.2902  -16.7252   20.2591 H   0  0  0  0  0  0
  -32.8458  -18.2994   20.6515 H   0  0  0  0  0  0
  1 25  1  0  0  0
  1 30  2  0  0  0
  1 86  1  0  0  0
  2  3  1  0  0  0
  2 25  1  0  0  0
  2 88  1  0  0  0
  2 89  1  0  0  0
  3  4  1  0  0  0
  3 90  1  0  0  0
  3 91  1  0  0  0
  4  5  1  0  0  0
  4 92  1  0  0  0
  4 93  1  0  0  0
  5  6  1  0  0  0
  5 26  1  0  0  0
  5 94  1  0  0  0
  6 25  1  0  0  0
  6 95  1  0  0  0
  6 96  1  0  0  0
  7  8  2  0  0  0
  7 26  1  0  0  0
  7 29  1  0  0  0
  8  9  1  0  0  0
  8 22  1  0  0  0
  9 10  1  0  0  0
  9 27  2  0  0  0
 10 11  2  0  0  0
 10 15  1  0  0  0
 11 12  1  0  0  0
 11 97  1  0  0  0
 12 13  2  0  0  0
 12 98  1  0  0  0
 13 14  1  0  0  0
 13 31  1  0  0  0
 14 15  2  0  0  0
 14 99  1  0  0  0
 15100  1  0  0  0
 16 17  2  0  0  0
 16 21  1  0  0  0
 16 31  1  0  0  0
 17 18  1  0  0  0
 17101  1  0  0  0
 18 19  2  0  0  0
 18102  1  0  0  0
 19 20  1  0  0  0
 19 24  1  0  0  0
 20 21  2  0  0  0
 20103  1  0  0  0
 21 23  1  0  0  0
 22 28  1  0  0  0
 22 32  2  0  0  0
 26 27  1  0  0  0
 28104  1  0  0  0
 28105  1  0  0  0
 29106  1  0  0  0
 29107  1  0  0  0
 33 34  1  0  0  0
 33 66  1  0  0  0
 33 70  2  0  0  0
 34 36  1  0  0  0
 34 59  1  0  0  0
 34108  1  0  0  0
 35 44  2  0  0  0
 35 45  1  0  0  0
 35 68  1  0  0  0
 36 56  1  0  0  0
 36109  1  0  0  0
 37 39  1  0  0  0
 37 47  1  0  0  0
 37 66  1  0  0  0
 37110  1  0  0  0
 38 43  2  0  0  0
 38 46  1  0  0  0
 38 47  1  0  0  0
 39 64  1  0  0  0
 39 67  2  0  0  0
 40 52  1  0  0  0
 40 53  2  0  0  0
 40 58  1  0  0  0
 41111  1  0  0  0
 41112  1  0  0  0
 41113  1  0  0  0
 41 48  1  0  0  0
 42 43  1  0  0  0
 42 66  1  0  0  0
 42114  1  0  0  0
 42115  1  0  0  0
 43 44  1  0  0  0
 44116  1  0  0  0
 45 46  2  0  0  0
 45117  1  0  0  0
 46118  1  0  0  0
 47119  1  0  0  0
 47120  1  0  0  0
 48 56  1  0  0  0
 48 65  1  0  0  0
 48121  1  0  0  0
 49 50  1  0  0  0
 49 53  1  0  0  0
 49 64  1  0  0  0
 49122  1  0  0  0
 50 51  1  0  0  0
 50123  1  0  0  0
 50124  1  0  0  0
 51 52  1  0  0  0
 51125  1  0  0  0
 51126  1  0  0  0
 52127  1  0  0  0
 52128  1  0  0  0
 53 54  1  0  0  0
 54 55  2  0  0  0
 54129  1  0  0  0
 55 57  1  0  0  0
 55130  1  0  0  0
 56 69  2  0  0  0
 57 58  2  0  0  0
 57131  1  0  0  0
 58132  1  0  0  0
 59 60  1  0  0  0
 59 61  1  0  0  0
 59 62  1  0  0  0
 60133  1  0  0  0
 60134  1  0  0  0
 60135  1  0  0  0
 61136  1  0  0  0
 61137  1  0  0  0
 61138  1  0  0  0
 62139  1  0  0  0
 62140  1  0  0  0
 62141  1  0  0  0
 63 65  1  0  0  0
 63142  1  0  0  0
 63143  1  0  0  0
 63144  1  0  0  0
 64145  1  0  0  0
 65146  1  0  0  0
 68 83  1  0  0  0
 71 72  2  0  0  0
 71 74  1  0  0  0
 71147  1  0  0  0
 72 75  1  0  0  0
 72148  1  0  0  0
 73 74  2  0  0  0
 73 76  1  0  0  0
 73149  1  0  0  0
 74 84  1  0  0  0
 75 76  2  0  0  0
 75 86  1  0  0  0
 76 85  1  0  0  0
 77 80  1  0  0  0
 77 84  1  0  0  0
 77 87  2  0  0  0
 78 79  1  0  0  0
 78 80  1  0  0  0
 78150  1  0  0  0
 78151  1  0  0  0
 79 84  1  0  0  0
 79152  1  0  0  0
 79153  1  0  0  0
 80 81  1  0  0  0
 80 83  1  0  0  0
 81154  1  0  0  0
 81155  1  0  0  0
 81156  1  0  0  0
 82 86  1  0  0  0
 82157  1  0  0  0
 82158  1  0  0  0
 82159  1  0  0  0
 83160  1  0  0  0
 83161  1  0  0  0
 85162  1  0  0  0
 85163  1  0  0  0
M  ISO  4   1 100  68 101  83 101  86 100
M  END
> <chiral flag>
0

> <version>
0

> <s_m_source_file>
/data/baiqing/PycharmProjects/Reinvent-master-3.2/result/LINK_invent/BTK/process_docking_weight1_custom_product_contain_oxygen_bond_distance_aromatic_linkinvent_7_9_3/rearranged_h_0076.sdf

> <i_m_source_file_index>
75

> <r_mmod_Potential_Energy-OPLS-2005>
447.893859863281

> <r_mmod_Stretch_Energy-OPLS-2005>
88.6742477416992

> <r_mmod_Bend_Energy-OPLS-2005>
193.116653442383

> <r_mmod_Torsional_Energy-OPLS-2005>
467.118865966797

> <r_mmod_Improper_Torsional_Energy-OPLS-2005>
31.5699653625488

> <r_mmod_Van_der_Waal_Energy-OPLS-2005>
132.000686645508

> <r_mmod_Electrostatic_Energy-OPLS-2005>
-341.746459960938

> <r_mmod_Solvation_Energy-OPLS-2005>
-205.88591003418

> <b_mmod_Minimization_Converged-OPLS-2005>
0

> <r_mmod_RMS_Derivative-OPLS-2005>
4.89923429489136

$$$$
75
                    3D
 Structure written by MMmdl.
154162  0  0  1  0            999 V2000
  -30.6073  -14.6358   20.5742 C   0  0  0  0  0  0
  -30.4532  -12.4098   19.4437 C   0  0  0  0  0  0
  -29.5117  -12.5337   18.2234 C   0  0  0  0  0  0
  -28.0346  -12.3626   18.6338 C   0  0  0  0  0  0
  -27.6635  -13.2119   19.8778 C   0  0  2  0  0  0
  -28.7073  -13.0135   20.9994 C   0  0  0  0  0  0
  -25.2589  -13.8156   20.5665 C   0  0  0  0  0  0
  -24.1845  -13.0433   20.9167 C   0  0  0  0  0  0
  -24.6406  -11.6902   20.8729 C   0  0  0  0  0  0
  -23.9063  -10.4290   21.0399 C   0  0  0  0  0  0
  -24.3611   -9.4207   21.9181 C   0  0  0  0  0  0
  -23.6287   -8.2243   22.0753 C   0  0  0  0  0  0
  -22.4270   -8.0279   21.3543 C   0  0  0  0  0  0
  -21.9903   -9.0254   20.4648 C   0  0  0  0  0  0
  -22.7231  -10.2134   20.3054 C   0  0  0  0  0  0
  -21.6853   -6.0732   22.5277 C   0  0  0  0  0  0
  -21.4014   -6.5636   23.8210 C   0  0  0  0  0  0
  -21.3661   -5.6791   24.9172 C   0  0  0  0  0  0
  -21.6044   -4.3053   24.7224 C   0  0  0  0  0  0
  -21.8819   -3.8143   23.4345 C   0  0  0  0  0  0
  -21.9193   -4.6959   22.3401 C   0  0  0  0  0  0
  -22.7868  -13.5236   21.1836 C   0  0  0  0  0  0
  -22.1664   -4.2146   21.0978 F   0  0  0  0  0  0
  -21.5629   -3.4536   25.7736 F   0  0  0  0  0  0
  -30.0290  -13.3939   20.4613 N   0  0  0  0  0  0
  -26.3041  -12.9336   20.3376 N   0  0  0  0  0  0
  -25.9339  -11.6489   20.5765 N   0  0  0  0  0  0
  -22.0509  -12.8236   22.0400 N   0  0  0  0  0  0
  -25.4282  -15.1867   20.4020 N   0  0  0  0  0  0
  -31.6825  -14.9043   20.0279 O   0  0  0  0  0  0
  -21.6636   -6.8875   21.4239 O   0  0  0  0  0  0
  -22.3546  -14.5540   20.6686 O   0  0  0  0  0  0
  -24.6258  -31.8589   23.2017 C   0  0  0  0  0  0
  -25.9100  -32.4777   23.8355 C   0  0  1  0  0  0
  -27.2359  -27.3309   20.1145 C   0  0  0  0  0  0
  -25.5912  -33.8578   24.2280 N   0  0  0  0  0  0
  -23.4223  -30.4802   21.5427 C   0  0  2  0  0  0
  -24.8755  -28.9355   20.1088 C   0  0  0  0  0  0
  -22.7483  -29.4613   22.4925 C   0  0  0  0  0  0
  -18.0288  -28.1391   22.8487 C   0  0  0  0  0  0
  -24.1488  -36.7297   23.2640 C   0  0  0  0  0  0
  -25.9624  -30.7924   21.3734 C   0  0  0  0  0  0
  -26.0426  -29.4201   20.7159 C   0  0  0  0  0  0
  -27.2292  -28.6269   20.7145 C   0  0  0  0  0  0
  -26.0519  -26.8931   19.4890 C   0  0  0  0  0  0
  -24.8807  -27.6759   19.4867 C   0  0  0  0  0  0
  -23.6401  -29.8125   20.1587 C   0  0  0  0  0  0
  -25.4111  -36.3084   24.0331 C   0  0  1  0  0  0
  -20.5889  -28.3692   23.1280 C   0  0  2  0  0  0
  -20.6772  -26.9413   22.5412 C   0  0  0  0  0  0
  -19.5748  -26.6389   21.5213 C   0  0  0  0  0  0
  -18.1930  -26.7934   22.1627 C   0  0  0  0  0  0
  -19.1541  -28.8859   23.2880 C   0  0  0  0  0  0
  -18.9465  -30.1461   23.8896 C   0  0  0  0  0  0
  -17.6464  -30.6590   24.0567 C   0  0  0  0  0  0
  -25.9045  -34.9451   23.5108 C   0  0  0  0  0  0
  -16.5354  -29.9089   23.6334 C   0  0  0  0  0  0
  -16.7276  -28.6508   23.0352 C   0  0  0  0  0  0
  -26.4489  -31.6586   25.0723 C   0  0  0  0  0  0
  -25.3730  -31.3735   26.1461 C   0  0  0  0  0  0
  -27.0324  -30.3005   24.6179 C   0  0  0  0  0  0
  -27.6055  -32.4321   25.7485 C   0  0  0  0  0  0
  -27.5580  -37.1799   24.8464 C   0  0  0  0  0  0
  -21.4193  -29.3043   22.3670 N   0  0  0  0  0  0
  -26.4290  -37.3777   23.9410 N   0  0  0  0  0  0
  -24.6885  -31.0601   22.0965 N   0  0  0  0  0  0
  -23.4200  -28.8155   23.3011 O   0  0  0  0  0  0
  -28.3002  -26.4226   20.1640 O   0  0  0  0  0  0
  -26.5620  -34.8918   22.4678 O   0  0  0  0  0  0
  -23.5418  -32.1383   23.7339 O   0  0  0  0  0  0
  -28.0217  -19.3483   21.6475 C   0  0  0  0  0  0
  -27.5766  -18.1811   22.2854 C   0  0  0  0  0  0
  -29.8854  -18.0852   20.6748 C   0  0  0  0  0  0
  -29.1870  -19.3550   20.8445 C   0  0  0  0  0  0
  -29.4241  -16.8746   21.3263 C   0  0  0  0  0  0
  -28.2714  -16.9743   22.1330 C   0  0  0  0  0  0
  -28.1897  -25.4592   21.1764 C   0  0  0  0  0  0
  -29.5742  -20.6887   20.1582 C   0  0  0  0  0  0
  -28.4890  -24.1115   21.2999 C   0  0  0  0  0  0
  -29.0890  -23.1761   20.2934 C   0  0  0  0  0  0
  -28.1642  -23.4918   22.6627 C   0  0  0  0  0  0
  -29.9443  -15.5069   21.3843 N   0  0  0  0  0  0
  -29.0856  -21.8558   20.7025 N   0  0  0  0  0  0
  -30.3063  -20.6524   19.1646 O   0  0  0  0  0  0
  -29.5476  -23.5436   19.2075 O   0  0  0  0  0  0
  -27.8182  -15.8724   22.7813 F   0  0  0  0  0  0
  -31.4900  -12.5623   19.1385 H   0  0  0  0  0  0
  -30.4124  -11.4012   19.8581 H   0  0  0  0  0  0
  -29.7773  -11.7940   17.4669 H   0  0  0  0  0  0
  -29.6480  -13.5100   17.7556 H   0  0  0  0  0  0
  -27.8697  -11.3057   18.8478 H   0  0  0  0  0  0
  -27.3788  -12.6089   17.7980 H   0  0  0  0  0  0
  -27.6983  -14.2577   19.5711 H   0  0  0  0  0  0
  -28.7236  -11.9700   21.3178 H   0  0  0  0  0  0
  -28.4275  -13.5732   21.8913 H   0  0  0  0  0  0
  -25.2758   -9.5686   22.4751 H   0  0  0  0  0  0
  -23.9999   -7.4635   22.7472 H   0  0  0  0  0  0
  -21.0833   -8.8770   19.8956 H   0  0  0  0  0  0
  -22.3686  -10.9670   19.6161 H   0  0  0  0  0  0
  -21.2006   -7.6144   23.9712 H   0  0  0  0  0  0
  -21.1486   -6.0520   25.9076 H   0  0  0  0  0  0
  -22.0597   -2.7605   23.2843 H   0  0  0  0  0  0
  -22.4126  -11.9903   22.4796 H   0  0  0  0  0  0
  -21.1132  -13.1273   22.2610 H   0  0  0  0  0  0
  -24.6664  -15.8447   20.5218 H   0  0  0  0  0  0
  -26.2924  -15.6265   20.1149 H   0  0  0  0  0  0
  -26.7171  -32.5457   23.1111 H   0  0  0  0  0  0
  -25.0044  -33.9721   25.0414 H   0  0  0  0  0  0
  -22.7161  -31.3001   21.3966 H   0  0  0  0  0  0
  -23.3747  -35.9633   23.3304 H   0  0  0  0  0  0
  -24.3580  -36.8919   22.2055 H   0  0  0  0  0  0
  -23.7242  -37.6500   23.6662 H   0  0  0  0  0  0
  -26.0924  -31.5561   20.6054 H   0  0  0  0  0  0
  -26.8424  -30.8432   22.0028 H   0  0  0  0  0  0
  -28.1225  -28.9859   21.2058 H   0  0  0  0  0  0
  -26.0305  -25.9154   19.0283 H   0  0  0  0  0  0
  -23.9855  -27.2959   19.0138 H   0  0  0  0  0  0
  -23.7564  -30.5881   19.4009 H   0  0  0  0  0  0
  -22.7619  -29.2384   19.8576 H   0  0  0  0  0  0
  -25.1290  -36.1937   25.0824 H   0  0  0  0  0  0
  -20.9987  -28.3271   24.1399 H   0  0  0  0  0  0
  -20.5670  -26.2303   23.3614 H   0  0  0  0  0  0
  -21.6640  -26.7437   22.1206 H   0  0  0  0  0  0
  -19.6906  -25.6301   21.1240 H   0  0  0  0  0  0
  -19.6685  -27.3201   20.6744 H   0  0  0  0  0  0
  -17.4197  -26.6684   21.4031 H   0  0  0  0  0  0
  -18.0330  -26.0079   22.9027 H   0  0  0  0  0  0
  -19.7940  -30.7280   24.2263 H   0  0  0  0  0  0
  -17.5018  -31.6269   24.5172 H   0  0  0  0  0  0
  -15.5355  -30.2991   23.7659 H   0  0  0  0  0  0
  -15.8677  -28.0829   22.7063 H   0  0  0  0  0  0
  -24.5886  -30.7102   25.7798 H   0  0  0  0  0  0
  -24.8942  -32.2906   26.4903 H   0  0  0  0  0  0
  -25.8059  -30.8899   27.0227 H   0  0  0  0  0  0
  -26.2893  -29.6760   24.1208 H   0  0  0  0  0  0
  -27.4018  -29.7261   25.4686 H   0  0  0  0  0  0
  -27.8769  -30.4284   23.9404 H   0  0  0  0  0  0
  -27.2671  -33.3623   26.2066 H   0  0  0  0  0  0
  -28.3860  -32.6882   25.0305 H   0  0  0  0  0  0
  -28.0732  -31.8444   26.5397 H   0  0  0  0  0  0
  -28.2600  -38.0094   24.7509 H   0  0  0  0  0  0
  -28.1073  -36.2625   24.6291 H   0  0  0  0  0  0
  -27.2301  -37.1454   25.8869 H   0  0  0  0  0  0
  -20.9370  -29.8770   21.6884 H   0  0  0  0  0  0
  -26.0175  -38.2854   24.1410 H   0  0  0  0  0  0
  -27.4307  -20.2419   21.7862 H   0  0  0  0  0  0
  -26.6889  -18.2074   22.9007 H   0  0  0  0  0  0
  -30.7715  -18.0515   20.0568 H   0  0  0  0  0  0
  -27.7599  -25.9459   22.0416 H   0  0  0  0  0  0
  -27.8024  -24.2314   23.3776 H   0  0  0  0  0  0
  -29.0507  -23.0379   23.1089 H   0  0  0  0  0  0
  -27.3834  -22.7359   22.5729 H   0  0  0  0  0  0
  -29.3311  -14.9678   21.9808 H   0  0  0  0  0  0
  -28.6138  -21.7235   21.5815 H   0  0  0  0  0  0
  1 25  1  0  0  0
  1 30  2  0  0  0
  1 82  1  0  0  0
  2  3  1  0  0  0
  2 25  1  0  0  0
  2 87  1  0  0  0
  2 88  1  0  0  0
  3  4  1  0  0  0
  3 89  1  0  0  0
  3 90  1  0  0  0
  4  5  1  0  0  0
  4 91  1  0  0  0
  4 92  1  0  0  0
  5  6  1  0  0  0
  5 26  1  0  0  0
  5 93  1  0  0  0
  6 25  1  0  0  0
  6 94  1  0  0  0
  6 95  1  0  0  0
  7  8  2  0  0  0
  7 26  1  0  0  0
  7 29  1  0  0  0
  8  9  1  0  0  0
  8 22  1  0  0  0
  9 10  1  0  0  0
  9 27  2  0  0  0
 10 11  2  0  0  0
 10 15  1  0  0  0
 11 12  1  0  0  0
 11 96  1  0  0  0
 12 13  2  0  0  0
 12 97  1  0  0  0
 13 14  1  0  0  0
 13 31  1  0  0  0
 14 15  2  0  0  0
 14 98  1  0  0  0
 15 99  1  0  0  0
 16 17  2  0  0  0
 16 21  1  0  0  0
 16 31  1  0  0  0
 17 18  1  0  0  0
 17100  1  0  0  0
 18 19  2  0  0  0
 18101  1  0  0  0
 19 20  1  0  0  0
 19 24  1  0  0  0
 20 21  2  0  0  0
 20102  1  0  0  0
 21 23  1  0  0  0
 22 28  1  0  0  0
 22 32  2  0  0  0
 26 27  1  0  0  0
 28103  1  0  0  0
 28104  1  0  0  0
 29105  1  0  0  0
 29106  1  0  0  0
 33 34  1  0  0  0
 33 66  1  0  0  0
 33 70  2  0  0  0
 34 36  1  0  0  0
 34 59  1  0  0  0
 34107  1  0  0  0
 35 44  2  0  0  0
 35 45  1  0  0  0
 35 68  1  0  0  0
 36 56  1  0  0  0
 36108  1  0  0  0
 37 39  1  0  0  0
 37 47  1  0  0  0
 37 66  1  0  0  0
 37109  1  0  0  0
 38 43  2  0  0  0
 38 46  1  0  0  0
 38 47  1  0  0  0
 39 64  1  0  0  0
 39 67  2  0  0  0
 40 52  1  0  0  0
 40 53  2  0  0  0
 40 58  1  0  0  0
 41110  1  0  0  0
 41111  1  0  0  0
 41112  1  0  0  0
 41 48  1  0  0  0
 42 43  1  0  0  0
 42 66  1  0  0  0
 42113  1  0  0  0
 42114  1  0  0  0
 43 44  1  0  0  0
 44115  1  0  0  0
 45 46  2  0  0  0
 45116  1  0  0  0
 46117  1  0  0  0
 47118  1  0  0  0
 47119  1  0  0  0
 48 56  1  0  0  0
 48 65  1  0  0  0
 48120  1  0  0  0
 49 50  1  0  0  0
 49 53  1  0  0  0
 49 64  1  0  0  0
 49121  1  0  0  0
 50 51  1  0  0  0
 50122  1  0  0  0
 50123  1  0  0  0
 51 52  1  0  0  0
 51124  1  0  0  0
 51125  1  0  0  0
 52126  1  0  0  0
 52127  1  0  0  0
 53 54  1  0  0  0
 54 55  2  0  0  0
 54128  1  0  0  0
 55 57  1  0  0  0
 55129  1  0  0  0
 56 69  2  0  0  0
 57 58  2  0  0  0
 57130  1  0  0  0
 58131  1  0  0  0
 59 60  1  0  0  0
 59 61  1  0  0  0
 59 62  1  0  0  0
 60132  1  0  0  0
 60133  1  0  0  0
 60134  1  0  0  0
 61135  1  0  0  0
 61136  1  0  0  0
 61137  1  0  0  0
 62138  1  0  0  0
 62139  1  0  0  0
 62140  1  0  0  0
 63 65  1  0  0  0
 63141  1  0  0  0
 63142  1  0  0  0
 63143  1  0  0  0
 64144  1  0  0  0
 65145  1  0  0  0
 68 77  1  0  0  0
 71 72  2  0  0  0
 71 74  1  0  0  0
 71146  1  0  0  0
 72 76  1  0  0  0
 72147  1  0  0  0
 73 74  2  0  0  0
 73 75  1  0  0  0
 73148  1  0  0  0
 74 78  1  0  0  0
 75 76  2  0  0  0
 75 82  1  0  0  0
 76 86  1  0  0  0
 77 79  2  0  0  0
 77149  1  0  0  0
 78 83  1  0  0  0
 78 84  2  0  0  0
 79 80  1  0  0  0
 79 81  1  0  0  0
 80 83  1  0  0  0
 80 85  2  0  0  0
 81150  1  0  0  0
 81151  1  0  0  0
 81152  1  0  0  0
 82153  1  0  0  0
 83154  1  0  0  0
M  ISO  4   1 100  68 101  77 101  82 100
M  END
> <chiral flag>
0

> <version>
0

> <s_m_source_file>
/data/baiqing/PycharmProjects/Reinvent-master-3.2/result/LINK_invent/BTK/process_docking_weight1_custom_product_contain_oxygen_bond_distance_aromatic_linkinvent_7_9_3/rearranged_h_0076.sdf

> <i_m_source_file_index>
76

> <r_mmod_Potential_Energy-OPLS-2005>
-24.0465908050537

> <r_mmod_Stretch_Energy-OPLS-2005>
85.6050491333008

> <r_mmod_Bend_Energy-OPLS-2005>
213.006393432617

> <r_mmod_Torsional_Energy-OPLS-2005>
251.725112915039

> <r_mmod_Improper_Torsional_Energy-OPLS-2005>
5.18017721176147

> <r_mmod_Van_der_Waal_Energy-OPLS-2005>
148.413284301758

> <r_mmod_Electrostatic_Energy-OPLS-2005>
-513.738342285156

> <r_mmod_Solvation_Energy-OPLS-2005>
-266.595550537109

> <b_mmod_Minimization_Converged-OPLS-2005>
0

> <r_mmod_RMS_Derivative-OPLS-2005>
0.4202661216259

$$$$
76
                    3D
 Structure written by MMmdl.
158167  0  0  1  0            999 V2000
  -30.7452  -14.4394   20.5012 C   0  0  0  0  0  0
  -30.3861  -12.2671   19.4530 C   0  0  0  0  0  0
  -29.4887  -12.4765   18.2177 C   0  0  0  0  0  0
  -28.0076  -12.3575   18.6193 C   0  0  0  0  0  0
  -27.6511  -13.2149   19.8660 C   0  0  2  0  0  0
  -28.6878  -13.0530   21.0027 C   0  0  0  0  0  0
  -25.2535  -13.8194   20.5697 C   0  0  0  0  0  0
  -24.1812  -13.0458   20.9199 C   0  0  0  0  0  0
  -24.6372  -11.6921   20.8743 C   0  0  0  0  0  0
  -23.9060  -10.4296   21.0394 C   0  0  0  0  0  0
  -24.3619   -9.4214   21.9175 C   0  0  0  0  0  0
  -23.6297   -8.2253   22.0749 C   0  0  0  0  0  0
  -22.4287   -8.0290   21.3541 C   0  0  0  0  0  0
  -21.9924   -9.0260   20.4640 C   0  0  0  0  0  0
  -22.7238  -10.2138   20.3044 C   0  0  0  0  0  0
  -21.6863   -6.0743   22.5280 C   0  0  0  0  0  0
  -21.4015   -6.5644   23.8210 C   0  0  0  0  0  0
  -21.3664   -5.6790   24.9168 C   0  0  0  0  0  0
  -21.6044   -4.3051   24.7228 C   0  0  0  0  0  0
  -21.8815   -3.8155   23.4348 C   0  0  0  0  0  0
  -21.9198   -4.6970   22.3409 C   0  0  0  0  0  0
  -22.7838  -13.5257   21.1865 C   0  0  0  0  0  0
  -22.1662   -4.2161   21.0986 F   0  0  0  0  0  0
  -21.5640   -3.4533   25.7745 F   0  0  0  0  0  0
  -30.0202  -13.2927   20.4428 N   0  0  0  0  0  0
  -26.2963  -12.9373   20.3332 N   0  0  0  0  0  0
  -25.9308  -11.6529   20.5769 N   0  0  0  0  0  0
  -22.0490  -12.8231   22.0402 N   0  0  0  0  0  0
  -25.4247  -15.1921   20.4082 N   0  0  0  0  0  0
  -31.9168  -14.5013   20.1138 O   0  0  0  0  0  0
  -21.6658   -6.8887   21.4241 O   0  0  0  0  0  0
  -22.3535  -14.5577   20.6708 O   0  0  0  0  0  0
  -24.6096  -31.8716   23.2119 C   0  0  0  0  0  0
  -25.9005  -32.4845   23.8417 C   0  0  1  0  0  0
  -27.2398  -27.4729   20.1017 C   0  0  0  0  0  0
  -25.5867  -33.8639   24.2354 N   0  0  0  0  0  0
  -23.3973  -30.4920   21.5518 C   0  0  2  0  0  0
  -24.8462  -28.9632   20.1153 C   0  0  0  0  0  0
  -22.7392  -29.4657   22.5019 C   0  0  0  0  0  0
  -18.0257  -28.1394   22.8513 C   0  0  0  0  0  0
  -24.1487  -36.7309   23.2645 C   0  0  0  0  0  0
  -25.9223  -30.8488   21.3630 C   0  0  0  0  0  0
  -26.0023  -29.4855   20.7094 C   0  0  0  0  0  0
  -27.2038  -28.7469   20.7009 C   0  0  0  0  0  0
  -26.0734  -26.9551   19.4969 C   0  0  0  0  0  0
  -24.8741  -27.6947   19.5067 C   0  0  0  0  0  0
  -23.6036  -29.8219   20.1665 C   0  0  0  0  0  0
  -25.4114  -36.3128   24.0350 C   0  0  1  0  0  0
  -20.5841  -28.3643   23.1346 C   0  0  2  0  0  0
  -20.6748  -26.9388   22.5435 C   0  0  0  0  0  0
  -19.5710  -26.6404   21.5239 C   0  0  0  0  0  0
  -18.1887  -26.7943   22.1650 C   0  0  0  0  0  0
  -19.1512  -28.8830   23.2933 C   0  0  0  0  0  0
  -18.9447  -30.1430   23.8948 C   0  0  0  0  0  0
  -17.6455  -30.6600   24.0566 C   0  0  0  0  0  0
  -25.9040  -34.9483   23.5155 C   0  0  0  0  0  0
  -16.5341  -29.9105   23.6337 C   0  0  0  0  0  0
  -16.7255  -28.6524   23.0366 C   0  0  0  0  0  0
  -26.4452  -31.6596   25.0723 C   0  0  0  0  0  0
  -25.3733  -31.3663   26.1471 C   0  0  0  0  0  0
  -27.0277  -30.3044   24.6080 C   0  0  0  0  0  0
  -27.6045  -32.4281   25.7487 C   0  0  0  0  0  0
  -27.5592  -37.1793   24.8468 C   0  0  0  0  0  0
  -21.4122  -29.3003   22.3754 N   0  0  0  0  0  0
  -26.4307  -37.3806   23.9409 N   0  0  0  0  0  0
  -24.6605  -31.0849   22.1009 N   0  0  0  0  0  0
  -23.4166  -28.8233   23.3089 O   0  0  0  0  0  0
  -28.3973  -26.7386   20.1194 O   0  0  0  0  0  0
  -26.5629  -34.8928   22.4736 O   0  0  0  0  0  0
  -23.5295  -32.1441   23.7530 O   0  0  0  0  0  0
  -29.0224  -18.7914   20.7679 C   0  0  0  0  0  0
  -28.9950  -20.1941   20.9618 C   0  0  0  0  0  0
  -31.4043  -18.9362   20.3154 C   0  0  0  0  0  0
  -30.2265  -18.1650   20.3864 C   0  0  0  0  0  0
  -30.1624  -20.9982   20.7956 C   0  0  0  0  0  0
  -31.3832  -20.3219   20.5280 C   0  0  0  0  0  0
  -29.2829  -24.5605   20.6504 C   0  0  0  0  0  0
  -30.5505  -24.5905   19.9830 C   0  0  0  0  0  0
  -29.0987  -23.2323   21.2154 C   0  0  0  0  0  0
  -31.1243  -25.6326   19.3553 C   0  0  0  0  0  0
  -28.3243  -25.5071   20.7215 C   0  0  0  0  0  0
  -30.3238  -16.7766   19.9193 C   0  0  0  0  0  0
  -31.1627  -23.2332   20.1060 C   0  0  0  0  0  0
  -30.1215  -22.4444   20.7896 N   0  0  0  0  0  0
  -30.0470  -15.6856   20.6810 N   0  0  0  0  0  0
  -30.7570  -16.6657   18.6518 N   0  3  0  0  0  0
  -28.1799  -22.8851   21.9640 O   0  0  0  0  0  0
  -32.5655  -20.9802   20.4287 F   0  0  0  0  0  0
  -31.4380  -12.3021   19.1654 H   0  0  0  0  0  0
  -30.2296  -11.2710   19.8714 H   0  0  0  0  0  0
  -29.7322  -11.7428   17.4488 H   0  0  0  0  0  0
  -29.6780  -13.4569   17.7758 H   0  0  0  0  0  0
  -27.8060  -11.3039   18.8197 H   0  0  0  0  0  0
  -27.3665  -12.6319   17.7808 H   0  0  0  0  0  0
  -27.6820  -14.2559   19.5463 H   0  0  0  0  0  0
  -28.6449  -12.0458   21.4194 H   0  0  0  0  0  0
  -28.4674  -13.7324   21.8278 H   0  0  0  0  0  0
  -25.2759   -9.5700   22.4760 H   0  0  0  0  0  0
  -24.0011   -7.4652   22.7462 H   0  0  0  0  0  0
  -21.0870   -8.8756   19.8941 H   0  0  0  0  0  0
  -22.3685  -10.9674   19.6164 H   0  0  0  0  0  0
  -21.1989   -7.6141   23.9731 H   0  0  0  0  0  0
  -21.1492   -6.0510   25.9076 H   0  0  0  0  0  0
  -22.0589   -2.7627   23.2850 H   0  0  0  0  0  0
  -22.4098  -11.9870   22.4753 H   0  0  0  0  0  0
  -21.1099  -13.1228   22.2615 H   0  0  0  0  0  0
  -24.6476  -15.8389   20.4942 H   0  0  0  0  0  0
  -26.2575  -15.6246   20.0323 H   0  0  0  0  0  0
  -26.7093  -32.5577   23.1200 H   0  0  0  0  0  0
  -24.9944  -33.9842   25.0449 H   0  0  0  0  0  0
  -22.6833  -31.3063   21.4122 H   0  0  0  0  0  0
  -23.3775  -35.9616   23.3306 H   0  0  0  0  0  0
  -24.3592  -36.8923   22.2062 H   0  0  0  0  0  0
  -23.7194  -37.6492   23.6660 H   0  0  0  0  0  0
  -26.0367  -31.6206   20.5992 H   0  0  0  0  0  0
  -26.8077  -30.8976   21.9860 H   0  0  0  0  0  0
  -28.0963  -29.1421   21.1658 H   0  0  0  0  0  0
  -26.0938  -25.9810   19.0279 H   0  0  0  0  0  0
  -23.9849  -27.2820   19.0491 H   0  0  0  0  0  0
  -23.6997  -30.5926   19.4011 H   0  0  0  0  0  0
  -22.7330  -29.2290   19.8816 H   0  0  0  0  0  0
  -25.1299  -36.2006   25.0847 H   0  0  0  0  0  0
  -20.9926  -28.3208   24.1467 H   0  0  0  0  0  0
  -20.5650  -26.2268   23.3633 H   0  0  0  0  0  0
  -21.6623  -26.7441   22.1222 H   0  0  0  0  0  0
  -19.6854  -25.6323   21.1247 H   0  0  0  0  0  0
  -19.6649  -27.3244   20.6794 H   0  0  0  0  0  0
  -17.4165  -26.6690   21.4045 H   0  0  0  0  0  0
  -18.0267  -26.0095   22.9053 H   0  0  0  0  0  0
  -19.7930  -30.7221   24.2359 H   0  0  0  0  0  0
  -17.5018  -31.6297   24.5123 H   0  0  0  0  0  0
  -15.5326  -30.3010   23.7656 H   0  0  0  0  0  0
  -15.8663  -28.0844   22.7066 H   0  0  0  0  0  0
  -24.5922  -30.7015   25.7781 H   0  0  0  0  0  0
  -24.8930  -32.2799   26.4962 H   0  0  0  0  0  0
  -25.8092  -30.8784   27.0192 H   0  0  0  0  0  0
  -26.2803  -29.6802   24.1176 H   0  0  0  0  0  0
  -27.4088  -29.7280   25.4520 H   0  0  0  0  0  0
  -27.8616  -30.4385   23.9192 H   0  0  0  0  0  0
  -27.2692  -33.3560   26.2126 H   0  0  0  0  0  0
  -28.3818  -32.6848   25.0282 H   0  0  0  0  0  0
  -28.0748  -31.8358   26.5346 H   0  0  0  0  0  0
  -28.2593  -38.0111   24.7561 H   0  0  0  0  0  0
  -28.1094  -36.2637   24.6236 H   0  0  0  0  0  0
  -27.2307  -37.1370   25.8870 H   0  0  0  0  0  0
  -20.9280  -29.8712   21.6979 H   0  0  0  0  0  0
  -26.0204  -38.2878   24.1442 H   0  0  0  0  0  0
  -28.1007  -18.2282   20.8325 H   0  0  0  0  0  0
  -28.0360  -20.6372   21.1749 H   0  0  0  0  0  0
  -32.3445  -18.4745   20.0462 H   0  0  0  0  0  0
  -30.6555  -26.6019   19.2894 H   0  0  0  0  0  0
  -32.0944  -25.5302   18.8889 H   0  0  0  0  0  0
  -27.3909  -25.3476   21.2458 H   0  0  0  0  0  0
  -32.0698  -23.2997   20.7091 H   0  0  0  0  0  0
  -31.4050  -22.8298   19.1224 H   0  0  0  0  0  0
  -29.2316  -15.7781   21.2612 H   0  0  0  0  0  0
  -30.9057  -17.5021   18.1077 H   0  0  0  0  0  0
  -30.9949  -15.7761   18.2442 H   0  0  0  0  0  0
  1 25  1  0  0  0
  1 30  2  0  0  0
  1 85  1  0  0  0
  2  3  1  0  0  0
  2 25  1  0  0  0
  2 89  1  0  0  0
  2 90  1  0  0  0
  3  4  1  0  0  0
  3 91  1  0  0  0
  3 92  1  0  0  0
  4  5  1  0  0  0
  4 93  1  0  0  0
  4 94  1  0  0  0
  5  6  1  0  0  0
  5 26  1  0  0  0
  5 95  1  0  0  0
  6 25  1  0  0  0
  6 96  1  0  0  0
  6 97  1  0  0  0
  7  8  2  0  0  0
  7 26  1  0  0  0
  7 29  1  0  0  0
  8  9  1  0  0  0
  8 22  1  0  0  0
  9 10  1  0  0  0
  9 27  2  0  0  0
 10 11  2  0  0  0
 10 15  1  0  0  0
 11 12  1  0  0  0
 11 98  1  0  0  0
 12 13  2  0  0  0
 12 99  1  0  0  0
 13 14  1  0  0  0
 13 31  1  0  0  0
 14 15  2  0  0  0
 14100  1  0  0  0
 15101  1  0  0  0
 16 17  2  0  0  0
 16 21  1  0  0  0
 16 31  1  0  0  0
 17 18  1  0  0  0
 17102  1  0  0  0
 18 19  2  0  0  0
 18103  1  0  0  0
 19 20  1  0  0  0
 19 24  1  0  0  0
 20 21  2  0  0  0
 20104  1  0  0  0
 21 23  1  0  0  0
 22 28  1  0  0  0
 22 32  2  0  0  0
 26 27  1  0  0  0
 28105  1  0  0  0
 28106  1  0  0  0
 29107  1  0  0  0
 29108  1  0  0  0
 33 34  1  0  0  0
 33 66  1  0  0  0
 33 70  2  0  0  0
 34 36  1  0  0  0
 34 59  1  0  0  0
 34109  1  0  0  0
 35 44  2  0  0  0
 35 45  1  0  0  0
 35 68  1  0  0  0
 36 56  1  0  0  0
 36110  1  0  0  0
 37 39  1  0  0  0
 37 47  1  0  0  0
 37 66  1  0  0  0
 37111  1  0  0  0
 38 43  2  0  0  0
 38 46  1  0  0  0
 38 47  1  0  0  0
 39 64  1  0  0  0
 39 67  2  0  0  0
 40 52  1  0  0  0
 40 53  2  0  0  0
 40 58  1  0  0  0
 41112  1  0  0  0
 41113  1  0  0  0
 41114  1  0  0  0
 41 48  1  0  0  0
 42 43  1  0  0  0
 42 66  1  0  0  0
 42115  1  0  0  0
 42116  1  0  0  0
 43 44  1  0  0  0
 44117  1  0  0  0
 45 46  2  0  0  0
 45118  1  0  0  0
 46119  1  0  0  0
 47120  1  0  0  0
 47121  1  0  0  0
 48 56  1  0  0  0
 48 65  1  0  0  0
 48122  1  0  0  0
 49 50  1  0  0  0
 49 53  1  0  0  0
 49 64  1  0  0  0
 49123  1  0  0  0
 50 51  1  0  0  0
 50124  1  0  0  0
 50125  1  0  0  0
 51 52  1  0  0  0
 51126  1  0  0  0
 51127  1  0  0  0
 52128  1  0  0  0
 52129  1  0  0  0
 53 54  1  0  0  0
 54 55  2  0  0  0
 54130  1  0  0  0
 55 57  1  0  0  0
 55131  1  0  0  0
 56 69  2  0  0  0
 57 58  2  0  0  0
 57132  1  0  0  0
 58133  1  0  0  0
 59 60  1  0  0  0
 59 61  1  0  0  0
 59 62  1  0  0  0
 60134  1  0  0  0
 60135  1  0  0  0
 60136  1  0  0  0
 61137  1  0  0  0
 61138  1  0  0  0
 61139  1  0  0  0
 62140  1  0  0  0
 62141  1  0  0  0
 62142  1  0  0  0
 63 65  1  0  0  0
 63143  1  0  0  0
 63144  1  0  0  0
 63145  1  0  0  0
 64146  1  0  0  0
 65147  1  0  0  0
 68 81  1  0  0  0
 71 72  2  0  0  0
 71 74  1  0  0  0
 71148  1  0  0  0
 72 75  1  0  0  0
 72149  1  0  0  0
 73 74  2  0  0  0
 73 76  1  0  0  0
 73150  1  0  0  0
 74 82  1  0  0  0
 75 76  2  0  0  0
 75 84  1  0  0  0
 76 88  1  0  0  0
 77 78  1  0  0  0
 77 79  1  0  0  0
 77 81  2  0  0  0
 78 80  2  0  0  0
 78 83  1  0  0  0
 79 84  1  0  0  0
 79 87  2  0  0  0
 80151  1  0  0  0
 80152  1  0  0  0
 81153  1  0  0  0
 82 85  1  0  0  0
 82 86  2  0  0  0
 83 84  1  0  0  0
 83154  1  0  0  0
 83155  1  0  0  0
 85156  1  0  0  0
 86157  1  0  0  0
 86158  1  0  0  0
M  CHG  1  86   1
M  ISO  4   1 100  68 101  81 101  85 100
M  END
> <chiral flag>
0

> <version>
0

> <s_m_source_file>
/data/baiqing/PycharmProjects/Reinvent-master-3.2/result/LINK_invent/BTK/process_docking_weight1_custom_product_contain_oxygen_bond_distance_aromatic_linkinvent_7_9_3/rearranged_h_0076.sdf

> <i_m_source_file_index>
77

> <r_mmod_Potential_Energy-OPLS-2005>
-126.72184753418

> <r_mmod_Stretch_Energy-OPLS-2005>
38.9880790710449

> <r_mmod_Bend_Energy-OPLS-2005>
157.949981689453

> <r_mmod_Torsional_Energy-OPLS-2005>
319.914733886719

> <r_mmod_Improper_Torsional_Energy-OPLS-2005>
10.1882486343384

> <r_mmod_Van_der_Waal_Energy-OPLS-2005>
176.948211669922

> <r_mmod_Electrostatic_Energy-OPLS-2005>
-405.289703369141

> <r_mmod_Solvation_Energy-OPLS-2005>
-443.446319580078

> <b_mmod_Minimization_Converged-OPLS-2005>
0

> <r_mmod_RMS_Derivative-OPLS-2005>
2.92769145965576

$$$$
77
                    3D
 Structure written by MMmdl.
160168  0  0  1  0            999 V2000
  -30.7501  -14.3453   20.7160 C   0  0  0  0  0  0
  -30.4276  -12.2885   19.3804 C   0  0  0  0  0  0
  -29.4872  -12.5408   18.1860 C   0  0  0  0  0  0
  -28.0102  -12.3903   18.6008 C   0  0  0  0  0  0
  -27.6715  -13.1946   19.8815 C   0  0  2  0  0  0
  -28.7067  -12.8998   20.9873 C   0  0  0  0  0  0
  -25.2639  -13.8143   20.5648 C   0  0  0  0  0  0
  -24.1868  -13.0437   20.9133 C   0  0  0  0  0  0
  -24.6396  -11.6896   20.8696 C   0  0  0  0  0  0
  -23.9046  -10.4289   21.0392 C   0  0  0  0  0  0
  -24.3597   -9.4212   21.9179 C   0  0  0  0  0  0
  -23.6273   -8.2254   22.0759 C   0  0  0  0  0  0
  -22.4261   -8.0284   21.3541 C   0  0  0  0  0  0
  -21.9879   -9.0262   20.4648 C   0  0  0  0  0  0
  -22.7208  -10.2140   20.3050 C   0  0  0  0  0  0
  -21.6850   -6.0728   22.5271 C   0  0  0  0  0  0
  -21.4025   -6.5632   23.8208 C   0  0  0  0  0  0
  -21.3658   -5.6785   24.9167 C   0  0  0  0  0  0
  -21.6042   -4.3048   24.7220 C   0  0  0  0  0  0
  -21.8819   -3.8138   23.4341 C   0  0  0  0  0  0
  -21.9197   -4.6951   22.3393 C   0  0  0  0  0  0
  -22.7892  -13.5267   21.1794 C   0  0  0  0  0  0
  -22.1659   -4.2135   21.0970 F   0  0  0  0  0  0
  -21.5620   -3.4538   25.7733 F   0  0  0  0  0  0
  -30.0569  -13.2045   20.4670 N   0  0  0  0  0  0
  -26.3073  -12.9286   20.3366 N   0  0  0  0  0  0
  -25.9321  -11.6453   20.5735 N   0  0  0  0  0  0
  -22.0511  -12.8298   22.0356 N   0  0  0  0  0  0
  -25.4395  -15.1861   20.4069 N   0  0  0  0  0  0
  -31.7364  -14.7041   20.0626 O   0  0  0  0  0  0
  -21.6636   -6.8876   21.4235 O   0  0  0  0  0  0
  -22.3586  -14.5569   20.6623 O   0  0  0  0  0  0
  -24.6094  -31.8687   23.2117 C   0  0  0  0  0  0
  -25.9002  -32.4833   23.8406 C   0  0  1  0  0  0
  -27.2459  -27.4721   20.0987 C   0  0  0  0  0  0
  -25.5860  -33.8631   24.2329 N   0  0  0  0  0  0
  -23.3970  -30.4901   21.5499 C   0  0  2  0  0  0
  -24.8451  -28.9495   20.1243 C   0  0  0  0  0  0
  -22.7377  -29.4664   22.5008 C   0  0  0  0  0  0
  -18.0264  -28.1387   22.8504 C   0  0  0  0  0  0
  -24.1475  -36.7330   23.2642 C   0  0  0  0  0  0
  -25.9205  -30.8465   21.3576 C   0  0  0  0  0  0
  -25.9998  -29.4806   20.7110 C   0  0  0  0  0  0
  -27.2037  -28.7506   20.6884 C   0  0  0  0  0  0
  -26.0746  -26.9325   19.5243 C   0  0  0  0  0  0
  -24.8749  -27.6730   19.5302 C   0  0  0  0  0  0
  -23.6050  -29.8132   20.1673 C   0  0  0  0  0  0
  -25.4093  -36.3122   24.0341 C   0  0  1  0  0  0
  -20.5849  -28.3663   23.1338 C   0  0  2  0  0  0
  -20.6752  -26.9405   22.5426 C   0  0  0  0  0  0
  -19.5735  -26.6394   21.5217 C   0  0  0  0  0  0
  -18.1909  -26.7939   22.1621 C   0  0  0  0  0  0
  -19.1513  -28.8843   23.2923 C   0  0  0  0  0  0
  -18.9445  -30.1447   23.8936 C   0  0  0  0  0  0
  -17.6448  -30.6592   24.0575 C   0  0  0  0  0  0
  -25.9017  -34.9484   23.5140 C   0  0  0  0  0  0
  -16.5337  -29.9099   23.6326 C   0  0  0  0  0  0
  -16.7254  -28.6514   23.0353 C   0  0  0  0  0  0
  -26.4448  -31.6617   25.0730 C   0  0  0  0  0  0
  -25.3742  -31.3721   26.1508 C   0  0  0  0  0  0
  -27.0255  -30.3058   24.6084 C   0  0  0  0  0  0
  -27.6036  -32.4339   25.7467 C   0  0  0  0  0  0
  -27.5577  -37.1810   24.8457 C   0  0  0  0  0  0
  -21.4111  -29.3027   22.3744 N   0  0  0  0  0  0
  -26.4282  -37.3802   23.9412 N   0  0  0  0  0  0
  -24.6606  -31.0821   22.0993 N   0  0  0  0  0  0
  -23.4159  -28.8216   23.3050 O   0  0  0  0  0  0
  -28.4529  -26.8274   20.0441 O   0  0  0  0  0  0
  -26.5597  -34.8933   22.4711 O   0  0  0  0  0  0
  -23.5299  -32.1415   23.7541 O   0  0  0  0  0  0
  -31.0111  -18.6850   21.9296 C   0  0  0  0  0  0
  -31.2095  -17.3135   21.6525 C   0  0  0  0  0  0
  -28.8476  -18.1721   22.9345 C   0  0  0  0  0  0
  -29.8264  -19.1223   22.5699 C   0  0  0  0  0  0
  -30.2219  -16.3716   22.0179 C   0  0  0  0  0  0
  -29.0501  -16.8076   22.6680 C   0  0  0  0  0  0
  -29.6034  -20.5386   22.8829 C   0  0  0  0  0  0
  -29.9566  -25.1784   20.9092 C   0  0  0  0  0  0
  -29.7664  -22.9131   22.0855 C   0  0  0  0  0  0
  -28.5074  -25.4706   20.4764 C   0  0  0  0  0  0
  -30.4403  -23.7089   20.9559 C   0  0  2  0  0  0
  -30.3370  -14.9781   21.8173 N   0  0  0  0  0  0
  -29.9054  -21.4831   21.9650 N   0  0  0  0  0  0
  -29.1126  -20.8480   24.0882 N   0  3  0  0  0  0
  -31.8922  -23.7529   21.2040 N   0  3  0  0  0  0
  -30.7090  -26.1271   21.1850 O   0  0  0  0  0  0
  -29.2321  -23.4399   23.0708 O   0  0  0  0  0  0
  -28.1093  -15.9019   23.0311 F   0  0  0  0  0  0
  -31.4697  -12.4075   19.0760 H   0  0  0  0  0  0
  -30.3355  -11.2565   19.7246 H   0  0  0  0  0  0
  -29.7172  -11.8506   17.3730 H   0  0  0  0  0  0
  -29.6577  -13.5440   17.7927 H   0  0  0  0  0  0
  -27.8105  -11.3309   18.7637 H   0  0  0  0  0  0
  -27.3594  -12.6982   17.7824 H   0  0  0  0  0  0
  -27.7400  -14.2527   19.6297 H   0  0  0  0  0  0
  -28.6674  -11.8444   21.2604 H   0  0  0  0  0  0
  -28.4382  -13.4342   21.8987 H   0  0  0  0  0  0
  -25.2756   -9.5689   22.4742 H   0  0  0  0  0  0
  -23.9973   -7.4656   22.7503 H   0  0  0  0  0  0
  -21.0790   -8.8793   19.8973 H   0  0  0  0  0  0
  -22.3671  -10.9678   19.6156 H   0  0  0  0  0  0
  -21.2025   -7.6143   23.9708 H   0  0  0  0  0  0
  -21.1473   -6.0514   25.9071 H   0  0  0  0  0  0
  -22.0596   -2.7596   23.2851 H   0  0  0  0  0  0
  -22.4086  -11.9962   22.4769 H   0  0  0  0  0  0
  -21.1143  -13.1389   22.2555 H   0  0  0  0  0  0
  -24.6834  -15.8494   20.5371 H   0  0  0  0  0  0
  -26.3081  -15.6234   20.1240 H   0  0  0  0  0  0
  -26.7081  -32.5560   23.1183 H   0  0  0  0  0  0
  -24.9979  -33.9795   25.0452 H   0  0  0  0  0  0
  -22.6847  -31.3055   21.4075 H   0  0  0  0  0  0
  -23.3725  -35.9676   23.3311 H   0  0  0  0  0  0
  -24.3573  -36.8937   22.2055 H   0  0  0  0  0  0
  -23.7241  -37.6544   23.6652 H   0  0  0  0  0  0
  -26.0244  -31.6125   20.5879 H   0  0  0  0  0  0
  -26.8111  -30.9044   21.9713 H   0  0  0  0  0  0
  -28.1048  -29.1653   21.1189 H   0  0  0  0  0  0
  -26.0923  -25.9607   19.0508 H   0  0  0  0  0  0
  -23.9857  -27.2599   19.0735 H   0  0  0  0  0  0
  -23.7108  -30.5831   19.4021 H   0  0  0  0  0  0
  -22.7307  -29.2275   19.8765 H   0  0  0  0  0  0
  -25.1274  -36.1990   25.0836 H   0  0  0  0  0  0
  -20.9935  -28.3234   24.1461 H   0  0  0  0  0  0
  -20.5637  -26.2278   23.3610 H   0  0  0  0  0  0
  -21.6629  -26.7447   22.1231 H   0  0  0  0  0  0
  -19.6890  -25.6310   21.1233 H   0  0  0  0  0  0
  -19.6675  -27.3214   20.6758 H   0  0  0  0  0  0
  -17.4179  -26.6705   21.4020 H   0  0  0  0  0  0
  -18.0297  -26.0071   22.9001 H   0  0  0  0  0  0
  -19.7924  -30.7255   24.2317 H   0  0  0  0  0  0
  -17.5007  -31.6277   24.5171 H   0  0  0  0  0  0
  -15.5337  -30.3013   23.7636 H   0  0  0  0  0  0
  -15.8653  -28.0840   22.7050 H   0  0  0  0  0  0
  -24.5892  -30.7080   25.7874 H   0  0  0  0  0  0
  -24.8960  -32.2875   26.5005 H   0  0  0  0  0  0
  -25.8125  -30.8868   27.0236 H   0  0  0  0  0  0
  -26.2771  -29.6839   24.1153 H   0  0  0  0  0  0
  -27.4036  -29.7287   25.4533 H   0  0  0  0  0  0
  -27.8612  -30.4380   23.9206 H   0  0  0  0  0  0
  -27.2658  -33.3614   26.2101 H   0  0  0  0  0  0
  -28.3798  -32.6942   25.0262 H   0  0  0  0  0  0
  -28.0757  -31.8441   26.5331 H   0  0  0  0  0  0
  -28.2602  -38.0100   24.7507 H   0  0  0  0  0  0
  -28.1062  -36.2638   24.6261 H   0  0  0  0  0  0
  -27.2308  -37.1447   25.8863 H   0  0  0  0  0  0
  -20.9262  -29.8746   21.6970 H   0  0  0  0  0  0
  -26.0174  -38.2879   24.1423 H   0  0  0  0  0  0
  -31.7899  -19.3860   21.6626 H   0  0  0  0  0  0
  -32.1253  -16.9960   21.1744 H   0  0  0  0  0  0
  -27.9319  -18.4770   23.4213 H   0  0  0  0  0  0
  -27.8398  -25.3126   21.3241 H   0  0  0  0  0  0
  -28.2031  -24.8026   19.6704 H   0  0  0  0  0  0
  -30.2359  -23.2274   20.0000 H   0  0  0  0  0  0
  -29.6390  -14.4515   22.3219 H   0  0  0  0  0  0
  -30.2549  -21.0554   21.1205 H   0  0  0  0  0  0
  -28.9832  -20.1341   24.7878 H   0  0  0  0  0  0
  -28.9217  -21.8155   24.3139 H   0  0  0  0  0  0
  -32.0507  -24.3627   21.9873 H   0  0  0  0  0  0
  -32.3616  -24.1508   20.4123 H   0  0  0  0  0  0
  -32.2686  -22.8464   21.4064 H   0  0  0  0  0  0
  1 25  1  0  0  0
  1 30  2  0  0  0
  1 82  1  0  0  0
  2  3  1  0  0  0
  2 25  1  0  0  0
  2 89  1  0  0  0
  2 90  1  0  0  0
  3  4  1  0  0  0
  3 91  1  0  0  0
  3 92  1  0  0  0
  4  5  1  0  0  0
  4 93  1  0  0  0
  4 94  1  0  0  0
  5  6  1  0  0  0
  5 26  1  0  0  0
  5 95  1  0  0  0
  6 25  1  0  0  0
  6 96  1  0  0  0
  6 97  1  0  0  0
  7  8  2  0  0  0
  7 26  1  0  0  0
  7 29  1  0  0  0
  8  9  1  0  0  0
  8 22  1  0  0  0
  9 10  1  0  0  0
  9 27  2  0  0  0
 10 11  2  0  0  0
 10 15  1  0  0  0
 11 12  1  0  0  0
 11 98  1  0  0  0
 12 13  2  0  0  0
 12 99  1  0  0  0
 13 14  1  0  0  0
 13 31  1  0  0  0
 14 15  2  0  0  0
 14100  1  0  0  0
 15101  1  0  0  0
 16 17  2  0  0  0
 16 21  1  0  0  0
 16 31  1  0  0  0
 17 18  1  0  0  0
 17102  1  0  0  0
 18 19  2  0  0  0
 18103  1  0  0  0
 19 20  1  0  0  0
 19 24  1  0  0  0
 20 21  2  0  0  0
 20104  1  0  0  0
 21 23  1  0  0  0
 22 28  1  0  0  0
 22 32  2  0  0  0
 26 27  1  0  0  0
 28105  1  0  0  0
 28106  1  0  0  0
 29107  1  0  0  0
 29108  1  0  0  0
 33 34  1  0  0  0
 33 66  1  0  0  0
 33 70  2  0  0  0
 34 36  1  0  0  0
 34 59  1  0  0  0
 34109  1  0  0  0
 35 44  2  0  0  0
 35 45  1  0  0  0
 35 68  1  0  0  0
 36 56  1  0  0  0
 36110  1  0  0  0
 37 39  1  0  0  0
 37 47  1  0  0  0
 37 66  1  0  0  0
 37111  1  0  0  0
 38 43  2  0  0  0
 38 46  1  0  0  0
 38 47  1  0  0  0
 39 64  1  0  0  0
 39 67  2  0  0  0
 40 52  1  0  0  0
 40 53  2  0  0  0
 40 58  1  0  0  0
 41112  1  0  0  0
 41113  1  0  0  0
 41114  1  0  0  0
 41 48  1  0  0  0
 42 43  1  0  0  0
 42 66  1  0  0  0
 42115  1  0  0  0
 42116  1  0  0  0
 43 44  1  0  0  0
 44117  1  0  0  0
 45 46  2  0  0  0
 45118  1  0  0  0
 46119  1  0  0  0
 47120  1  0  0  0
 47121  1  0  0  0
 48 56  1  0  0  0
 48 65  1  0  0  0
 48122  1  0  0  0
 49 50  1  0  0  0
 49 53  1  0  0  0
 49 64  1  0  0  0
 49123  1  0  0  0
 50 51  1  0  0  0
 50124  1  0  0  0
 50125  1  0  0  0
 51 52  1  0  0  0
 51126  1  0  0  0
 51127  1  0  0  0
 52128  1  0  0  0
 52129  1  0  0  0
 53 54  1  0  0  0
 54 55  2  0  0  0
 54130  1  0  0  0
 55 57  1  0  0  0
 55131  1  0  0  0
 56 69  2  0  0  0
 57 58  2  0  0  0
 57132  1  0  0  0
 58133  1  0  0  0
 59 60  1  0  0  0
 59 61  1  0  0  0
 59 62  1  0  0  0
 60134  1  0  0  0
 60135  1  0  0  0
 60136  1  0  0  0
 61137  1  0  0  0
 61138  1  0  0  0
 61139  1  0  0  0
 62140  1  0  0  0
 62141  1  0  0  0
 62142  1  0  0  0
 63 65  1  0  0  0
 63143  1  0  0  0
 63144  1  0  0  0
 63145  1  0  0  0
 64146  1  0  0  0
 65147  1  0  0  0
 68 80  1  0  0  0
 71 72  2  0  0  0
 71 74  1  0  0  0
 71148  1  0  0  0
 72 75  1  0  0  0
 72149  1  0  0  0
 73 74  2  0  0  0
 73 76  1  0  0  0
 73150  1  0  0  0
 74 77  1  0  0  0
 75 76  2  0  0  0
 75 82  1  0  0  0
 76 88  1  0  0  0
 77 83  1  0  0  0
 77 84  2  0  0  0
 78 80  1  0  0  0
 78 81  1  0  0  0
 78 86  2  0  0  0
 79 81  1  0  0  0
 79 83  1  0  0  0
 79 87  2  0  0  0
 80151  1  0  0  0
 80152  1  0  0  0
 81 85  1  0  0  0
 81153  1  0  0  0
 82154  1  0  0  0
 83155  1  0  0  0
 84156  1  0  0  0
 84157  1  0  0  0
 85158  1  0  0  0
 85159  1  0  0  0
 85160  1  0  0  0
M  CHG  2  84   1  85   1
M  ISO  4   1 100  68 101  80 101  82 100
M  END
> <chiral flag>
0

> <version>
0

> <s_m_source_file>
/data/baiqing/PycharmProjects/Reinvent-master-3.2/result/LINK_invent/BTK/process_docking_weight1_custom_product_contain_oxygen_bond_distance_aromatic_linkinvent_7_9_3/rearranged_h_0076.sdf

> <i_m_source_file_index>
78

> <r_mmod_Potential_Energy-OPLS-2005>
-849.79296875

> <r_mmod_Stretch_Energy-OPLS-2005>
34.3363418579102

> <r_mmod_Bend_Energy-OPLS-2005>
109.777328491211

> <r_mmod_Torsional_Energy-OPLS-2005>
247.647872924805

> <r_mmod_Improper_Torsional_Energy-OPLS-2005>
6.00094556808472

> <r_mmod_Van_der_Waal_Energy-OPLS-2005>
169.498428344727

> <r_mmod_Electrostatic_Energy-OPLS-2005>
-338.87890625

> <r_mmod_Solvation_Energy-OPLS-2005>
-1086.5625

> <b_mmod_Minimization_Converged-OPLS-2005>
0

> <r_mmod_RMS_Derivative-OPLS-2005>
1.80181908607483

$$$$
78
                    3D
 Structure written by MMmdl.
166176  0  0  1  0            999 V2000
  -30.6580  -14.4923   20.5644 C   0  0  0  0  0  0
  -30.4249  -12.3197   19.4317 C   0  0  0  0  0  0
  -29.5076  -12.5428   18.2094 C   0  0  0  0  0  0
  -28.0270  -12.3739   18.6096 C   0  0  0  0  0  0
  -27.6597  -13.2032   19.8725 C   0  0  2  0  0  0
  -28.6917  -12.9797   21.0011 C   0  0  0  0  0  0
  -25.2604  -13.8112   20.5738 C   0  0  0  0  0  0
  -24.1842  -13.0367   20.9168 C   0  0  0  0  0  0
  -24.6382  -11.6857   20.8653 C   0  0  0  0  0  0
  -23.9044  -10.4261   21.0318 C   0  0  0  0  0  0
  -24.3658   -9.4169   21.9017 C   0  0  0  0  0  0
  -23.6326   -8.2230   22.0631 C   0  0  0  0  0  0
  -22.4222   -8.0302   21.3564 C   0  0  0  0  0  0
  -21.9801   -9.0336   20.4757 C   0  0  0  0  0  0
  -22.7141  -10.2185   20.3125 C   0  0  0  0  0  0
  -21.6880   -6.0719   22.5273 C   0  0  0  0  0  0
  -21.4088   -6.5576   23.8243 C   0  0  0  0  0  0
  -21.3681   -5.6698   24.9195 C   0  0  0  0  0  0
  -21.5982   -4.2958   24.7175 C   0  0  0  0  0  0
  -21.8700   -3.8074   23.4285 C   0  0  0  0  0  0
  -21.9179   -4.6946   22.3390 C   0  0  0  0  0  0
  -22.7907  -13.5233   21.1870 C   0  0  0  0  0  0
  -22.1653   -4.2157   21.0966 F   0  0  0  0  0  0
  -21.5582   -3.4431   25.7686 F   0  0  0  0  0  0
  -30.0290  -13.2879   20.4677 N   0  0  0  0  0  0
  -26.3011  -12.9284   20.3302 N   0  0  0  0  0  0
  -25.9266  -11.6421   20.5584 N   0  0  0  0  0  0
  -22.0612  -12.8375   22.0597 N   0  0  0  0  0  0
  -25.4244  -15.1826   20.4302 N   0  0  0  0  0  0
  -31.8190  -14.6468   20.1861 O   0  0  0  0  0  0
  -21.6587   -6.8897   21.4271 O   0  0  0  0  0  0
  -22.3561  -14.5472   20.6637 O   0  0  0  0  0  0
  -24.6174  -31.8684   23.2108 C   0  0  0  0  0  0
  -25.9085  -32.4842   23.8445 C   0  0  1  0  0  0
  -27.2026  -27.4369   20.0962 C   0  0  0  0  0  0
  -25.6038  -33.8670   24.2447 N   0  0  0  0  0  0
  -23.3981  -30.5002   21.5437 C   0  0  2  0  0  0
  -24.8369  -28.9674   20.1058 C   0  0  0  0  0  0
  -22.7428  -29.4693   22.4932 C   0  0  0  0  0  0
  -18.0299  -28.1381   22.8530 C   0  0  0  0  0  0
  -24.1481  -36.7218   23.2621 C   0  0  0  0  0  0
  -25.9275  -30.8490   21.3436 C   0  0  0  0  0  0
  -26.0007  -29.4805   20.6979 C   0  0  0  0  0  0
  -27.1930  -28.7233   20.6879 C   0  0  0  0  0  0
  -26.0384  -26.9486   19.4770 C   0  0  0  0  0  0
  -24.8502  -27.7043   19.4846 C   0  0  0  0  0  0
  -23.5998  -29.8371   20.1551 C   0  0  0  0  0  0
  -25.4111  -36.3107   24.0351 C   0  0  1  0  0  0
  -20.5922  -28.3631   23.1320 C   0  0  2  0  0  0
  -20.6797  -26.9347   22.5414 C   0  0  0  0  0  0
  -19.5737  -26.6362   21.5246 C   0  0  0  0  0  0
  -18.1917  -26.7944   22.1649 C   0  0  0  0  0  0
  -19.1563  -28.8815   23.2941 C   0  0  0  0  0  0
  -18.9512  -30.1470   23.8882 C   0  0  0  0  0  0
  -17.6507  -30.6591   24.0577 C   0  0  0  0  0  0
  -25.9053  -34.9482   23.5148 C   0  0  0  0  0  0
  -16.5392  -29.9095   23.6357 C   0  0  0  0  0  0
  -16.7296  -28.6529   23.0350 C   0  0  0  0  0  0
  -26.4523  -31.6552   25.0727 C   0  0  0  0  0  0
  -25.3908  -31.3640   26.1531 C   0  0  0  0  0  0
  -27.0286  -30.3044   24.5896 C   0  0  0  0  0  0
  -27.6081  -32.4152   25.7643 C   0  0  0  0  0  0
  -27.5560  -37.1770   24.8515 C   0  0  0  0  0  0
  -21.4150  -29.3059   22.3750 N   0  0  0  0  0  0
  -26.4285  -37.3808   23.9455 N   0  0  0  0  0  0
  -24.6666  -31.0898   22.0910 N   0  0  0  0  0  0
  -23.4233  -28.8233   23.2944 O   0  0  0  0  0  0
  -28.2987  -26.6177   20.1523 O   0  0  0  0  0  0
  -26.5486  -34.8923   22.4628 O   0  0  0  0  0  0
  -23.5384  -32.1294   23.7597 O   0  0  0  0  0  0
  -26.1972  -19.7603   24.3120 C   0  0  0  0  0  0
  -25.9027  -20.8524   23.4714 C   0  0  0  0  0  0
  -27.4168  -19.0702   24.1852 C   0  0  0  0  0  0
  -28.0284  -20.5470   22.3421 C   0  0  0  0  0  0
  -26.8394  -21.3159   22.5110 C   0  0  0  0  0  0
  -28.3212  -19.4271   23.1665 C   0  0  0  0  0  0
  -31.2475  -17.3453   23.9348 C   0  0  0  0  0  0
  -30.3868  -18.3728   23.9697 C   0  0  0  0  0  0
  -27.6454  -23.3859   21.3816 C   0  0  0  0  0  0
  -27.3624  -24.6952   21.5091 C   0  0  0  0  0  0
  -26.0088  -24.7552   22.0142 C   0  0  0  0  0  0
  -30.1519  -16.4357   21.7828 C   0  0  0  0  0  0
  -25.3699  -25.8536   22.4572 C   0  0  0  0  0  0
  -31.2920  -16.3069   22.8213 C   0  0  0  0  0  0
  -25.4376  -23.3539   22.0421 C   0  0  0  0  0  0
  -29.3617  -17.7652   21.7708 C   0  0  0  0  0  0
  -28.3759  -25.8482   21.3673 C   0  0  0  0  0  0
  -29.8190  -15.5523   20.9094 N   0  0  0  0  0  0
  -26.6232  -22.5166   21.7734 N   0  0  0  0  0  0
  -29.4712  -18.6369   22.9610 N   0  0  0  0  0  0
  -31.4748  -12.4104   19.1436 H   0  0  0  0  0  0
  -30.3186  -11.3022   19.8091 H   0  0  0  0  0  0
  -29.7655  -11.8556   17.4034 H   0  0  0  0  0  0
  -29.6687  -13.5455   17.7995 H   0  0  0  0  0  0
  -27.8641  -11.3119   18.7919 H   0  0  0  0  0  0
  -27.3835  -12.6361   17.7710 H   0  0  0  0  0  0
  -27.6996  -14.2486   19.5743 H   0  0  0  0  0  0
  -28.6509  -11.9428   21.3462 H   0  0  0  0  0  0
  -28.4491  -13.5828   21.8766 H   0  0  0  0  0  0
  -25.2938   -9.5579   22.4371 H   0  0  0  0  0  0
  -24.0139   -7.4584   22.7200 H   0  0  0  0  0  0
  -21.0661   -8.8930   19.9187 H   0  0  0  0  0  0
  -22.3529  -10.9743   19.6312 H   0  0  0  0  0  0
  -21.2112   -7.6072   23.9763 H   0  0  0  0  0  0
  -21.1574   -6.0336   25.9132 H   0  0  0  0  0  0
  -22.0387   -2.7512   23.2756 H   0  0  0  0  0  0
  -22.4307  -12.0187   22.5183 H   0  0  0  0  0  0
  -21.1306  -13.1570   22.2948 H   0  0  0  0  0  0
  -24.6554  -15.8262   20.5776 H   0  0  0  0  0  0
  -26.2771  -15.6490   20.1505 H   0  0  0  0  0  0
  -26.7185  -32.5556   23.1275 H   0  0  0  0  0  0
  -25.0722  -33.9941   25.0909 H   0  0  0  0  0  0
  -22.6759  -31.3115   21.4123 H   0  0  0  0  0  0
  -23.3834  -35.9475   23.3339 H   0  0  0  0  0  0
  -24.3546  -36.8723   22.2015 H   0  0  0  0  0  0
  -23.7114  -37.6395   23.6544 H   0  0  0  0  0  0
  -26.0304  -31.6056   20.5602 H   0  0  0  0  0  0
  -26.8244  -30.9160   21.9503 H   0  0  0  0  0  0
  -28.0957  -29.1120   21.1375 H   0  0  0  0  0  0
  -26.0354  -25.9611   19.0347 H   0  0  0  0  0  0
  -23.9559  -27.3027   19.0280 H   0  0  0  0  0  0
  -23.7113  -30.6113   19.3940 H   0  0  0  0  0  0
  -22.7159  -29.2633   19.8652 H   0  0  0  0  0  0
  -25.1299  -36.1949   25.0841 H   0  0  0  0  0  0
  -21.0107  -28.3207   24.1395 H   0  0  0  0  0  0
  -20.5707  -26.2246   23.3628 H   0  0  0  0  0  0
  -21.6657  -26.7375   22.1166 H   0  0  0  0  0  0
  -19.6837  -25.6275   21.1236 H   0  0  0  0  0  0
  -19.6664  -27.3208   20.6812 H   0  0  0  0  0  0
  -17.4179  -26.6793   21.4021 H   0  0  0  0  0  0
  -18.0230  -26.0065   22.9015 H   0  0  0  0  0  0
  -19.7987  -30.7346   24.2150 H   0  0  0  0  0  0
  -17.5047  -31.6254   24.5213 H   0  0  0  0  0  0
  -15.5383  -30.2986   23.7665 H   0  0  0  0  0  0
  -15.8723  -28.0861   22.7005 H   0  0  0  0  0  0
  -24.6191  -30.6803   25.8011 H   0  0  0  0  0  0
  -24.9065  -32.2825   26.4857 H   0  0  0  0  0  0
  -25.8448  -30.9010   27.0312 H   0  0  0  0  0  0
  -26.2724  -29.6948   24.0954 H   0  0  0  0  0  0
  -27.4208  -29.7101   25.4153 H   0  0  0  0  0  0
  -27.8512  -30.4534   23.8918 H   0  0  0  0  0  0
  -27.2655  -33.3451   26.2211 H   0  0  0  0  0  0
  -28.4058  -32.6625   25.0632 H   0  0  0  0  0  0
  -28.0513  -31.8210   26.5653 H   0  0  0  0  0  0
  -28.2635  -38.0025   24.7571 H   0  0  0  0  0  0
  -28.1012  -36.2568   24.6361 H   0  0  0  0  0  0
  -27.2284  -37.1404   25.8925 H   0  0  0  0  0  0
  -20.9205  -29.8789   21.7049 H   0  0  0  0  0  0
  -26.0189  -38.2897   24.1461 H   0  0  0  0  0  0
  -25.4755  -19.4630   25.0581 H   0  0  0  0  0  0
  -24.9471  -21.3276   23.6206 H   0  0  0  0  0  0
  -27.6464  -18.2436   24.8460 H   0  0  0  0  0  0
  -28.7470  -20.8064   21.5814 H   0  0  0  0  0  0
  -31.9560  -17.2363   24.7492 H   0  0  0  0  0  0
  -30.3876  -19.0828   24.7842 H   0  0  0  0  0  0
  -28.5998  -22.9636   21.0962 H   0  0  0  0  0  0
  -25.8373  -26.8333   22.4673 H   0  0  0  0  0  0
  -24.3610  -25.7934   22.8407 H   0  0  0  0  0  0
  -31.2293  -15.3298   23.3065 H   0  0  0  0  0  0
  -32.2581  -16.3725   22.3189 H   0  0  0  0  0  0
  -24.6972  -23.2301   21.2474 H   0  0  0  0  0  0
  -24.9226  -23.2106   22.9939 H   0  0  0  0  0  0
  -28.3067  -17.5288   21.5839 H   0  0  0  0  0  0
  -29.6900  -18.3222   20.8908 H   0  0  0  0  0  0
  -29.3806  -25.4258   21.4167 H   0  0  0  0  0  0
  -28.3029  -26.5019   22.2377 H   0  0  0  0  0  0
  1 25  1  0  0  0
  1 30  2  0  0  0
  1 88  1  0  0  0
  2  3  1  0  0  0
  2 25  1  0  0  0
  2 91  1  0  0  0
  2 92  1  0  0  0
  3  4  1  0  0  0
  3 93  1  0  0  0
  3 94  1  0  0  0
  4  5  1  0  0  0
  4 95  1  0  0  0
  4 96  1  0  0  0
  5  6  1  0  0  0
  5 26  1  0  0  0
  5 97  1  0  0  0
  6 25  1  0  0  0
  6 98  1  0  0  0
  6 99  1  0  0  0
  7  8  2  0  0  0
  7 26  1  0  0  0
  7 29  1  0  0  0
  8  9  1  0  0  0
  8 22  1  0  0  0
  9 10  1  0  0  0
  9 27  2  0  0  0
 10 11  2  0  0  0
 10 15  1  0  0  0
 11 12  1  0  0  0
 11100  1  0  0  0
 12 13  2  0  0  0
 12101  1  0  0  0
 13 14  1  0  0  0
 13 31  1  0  0  0
 14 15  2  0  0  0
 14102  1  0  0  0
 15103  1  0  0  0
 16 17  2  0  0  0
 16 21  1  0  0  0
 16 31  1  0  0  0
 17 18  1  0  0  0
 17104  1  0  0  0
 18 19  2  0  0  0
 18105  1  0  0  0
 19 20  1  0  0  0
 19 24  1  0  0  0
 20 21  2  0  0  0
 20106  1  0  0  0
 21 23  1  0  0  0
 22 28  1  0  0  0
 22 32  2  0  0  0
 26 27  1  0  0  0
 28107  1  0  0  0
 28108  1  0  0  0
 29109  1  0  0  0
 29110  1  0  0  0
 33 34  1  0  0  0
 33 66  1  0  0  0
 33 70  2  0  0  0
 34 36  1  0  0  0
 34 59  1  0  0  0
 34111  1  0  0  0
 35 44  2  0  0  0
 35 45  1  0  0  0
 35 68  1  0  0  0
 36 56  1  0  0  0
 36112  1  0  0  0
 37 39  1  0  0  0
 37 47  1  0  0  0
 37 66  1  0  0  0
 37113  1  0  0  0
 38 43  2  0  0  0
 38 46  1  0  0  0
 38 47  1  0  0  0
 39 64  1  0  0  0
 39 67  2  0  0  0
 40 52  1  0  0  0
 40 53  2  0  0  0
 40 58  1  0  0  0
 41114  1  0  0  0
 41115  1  0  0  0
 41116  1  0  0  0
 41 48  1  0  0  0
 42 43  1  0  0  0
 42 66  1  0  0  0
 42117  1  0  0  0
 42118  1  0  0  0
 43 44  1  0  0  0
 44119  1  0  0  0
 45 46  2  0  0  0
 45120  1  0  0  0
 46121  1  0  0  0
 47122  1  0  0  0
 47123  1  0  0  0
 48 56  1  0  0  0
 48 65  1  0  0  0
 48124  1  0  0  0
 49 50  1  0  0  0
 49 53  1  0  0  0
 49 64  1  0  0  0
 49125  1  0  0  0
 50 51  1  0  0  0
 50126  1  0  0  0
 50127  1  0  0  0
 51 52  1  0  0  0
 51128  1  0  0  0
 51129  1  0  0  0
 52130  1  0  0  0
 52131  1  0  0  0
 53 54  1  0  0  0
 54 55  2  0  0  0
 54132  1  0  0  0
 55 57  1  0  0  0
 55133  1  0  0  0
 56 69  2  0  0  0
 57 58  2  0  0  0
 57134  1  0  0  0
 58135  1  0  0  0
 59 60  1  0  0  0
 59 61  1  0  0  0
 59 62  1  0  0  0
 60136  1  0  0  0
 60137  1  0  0  0
 60138  1  0  0  0
 61139  1  0  0  0
 61140  1  0  0  0
 61141  1  0  0  0
 62142  1  0  0  0
 62143  1  0  0  0
 62144  1  0  0  0
 63 65  1  0  0  0
 63145  1  0  0  0
 63146  1  0  0  0
 63147  1  0  0  0
 64148  1  0  0  0
 65149  1  0  0  0
 68 87  1  0  0  0
 71 72  2  0  0  0
 71 73  1  0  0  0
 71150  1  0  0  0
 72 75  1  0  0  0
 72151  1  0  0  0
 73 76  2  0  0  0
 73152  1  0  0  0
 74 75  2  0  0  0
 74 76  1  0  0  0
 74153  1  0  0  0
 75 89  1  0  0  0
 76 90  1  0  0  0
 77 78  2  0  0  0
 77 84  1  0  0  0
 77154  1  0  0  0
 78 90  1  0  0  0
 78155  1  0  0  0
 79 80  2  0  0  0
 79 89  1  0  0  0
 79156  1  0  0  0
 80 81  1  0  0  0
 80 87  1  0  0  0
 81 83  2  0  0  0
 81 85  1  0  0  0
 82 84  1  0  0  0
 82 86  1  0  0  0
 82 88  2  0  0  0
 83157  1  0  0  0
 83158  1  0  0  0
 84159  1  0  0  0
 84160  1  0  0  0
 85 89  1  0  0  0
 85161  1  0  0  0
 85162  1  0  0  0
 86 90  1  0  0  0
 86163  1  0  0  0
 86164  1  0  0  0
 87165  1  0  0  0
 87166  1  0  0  0
M  ISO  4   1 100  68 101  87 101  88 100
M  END
> <chiral flag>
0

> <version>
0

> <s_m_source_file>
/data/baiqing/PycharmProjects/Reinvent-master-3.2/result/LINK_invent/BTK/process_docking_weight1_custom_product_contain_oxygen_bond_distance_aromatic_linkinvent_7_9_3/rearranged_h_0076.sdf

> <i_m_source_file_index>
79

> <r_mmod_Potential_Energy-OPLS-2005>
163.043518066406

> <r_mmod_Stretch_Energy-OPLS-2005>
49.6302528381348

> <r_mmod_Bend_Energy-OPLS-2005>
203.588150024414

> <r_mmod_Torsional_Energy-OPLS-2005>
237.386840820312

> <r_mmod_Improper_Torsional_Energy-OPLS-2005>
9.35445594787598

> <r_mmod_Van_der_Waal_Energy-OPLS-2005>
156.116775512695

> <r_mmod_Electrostatic_Energy-OPLS-2005>
-329.974731445312

> <r_mmod_Solvation_Energy-OPLS-2005>
-183.004959106445

> <b_mmod_Minimization_Converged-OPLS-2005>
0

> <r_mmod_RMS_Derivative-OPLS-2005>
8.73036766052246

$$$$
79
                    3D
 Structure written by MMmdl.
158167  0  0  1  0            999 V2000
  -30.6085  -14.7784   20.4878 C   0  0  0  0  0  0
  -30.4211  -12.4854   19.4883 C   0  0  0  0  0  0
  -29.5046  -12.5202   18.2450 C   0  0  0  0  0  0
  -28.0341  -12.3296   18.6572 C   0  0  0  0  0  0
  -27.6339  -13.2360   19.8527 C   0  0  2  0  0  0
  -28.6724  -13.1882   20.9946 C   0  0  0  0  0  0
  -25.2474  -13.8207   20.5689 C   0  0  0  0  0  0
  -24.1763  -13.0446   20.9196 C   0  0  0  0  0  0
  -24.6362  -11.6926   20.8750 C   0  0  0  0  0  0
  -23.9050  -10.4297   21.0396 C   0  0  0  0  0  0
  -24.3604   -9.4217   21.9182 C   0  0  0  0  0  0
  -23.6292   -8.2256   22.0751 C   0  0  0  0  0  0
  -22.4285   -8.0283   21.3534 C   0  0  0  0  0  0
  -21.9921   -9.0237   20.4623 C   0  0  0  0  0  0
  -22.7235  -10.2121   20.3034 C   0  0  0  0  0  0
  -21.6854   -6.0739   22.5280 C   0  0  0  0  0  0
  -21.4006   -6.5635   23.8203 C   0  0  0  0  0  0
  -21.3660   -5.6790   24.9169 C   0  0  0  0  0  0
  -21.6044   -4.3056   24.7226 C   0  0  0  0  0  0
  -21.8817   -3.8143   23.4343 C   0  0  0  0  0  0
  -21.9187   -4.6970   22.3399 C   0  0  0  0  0  0
  -22.7792  -13.5236   21.1867 C   0  0  0  0  0  0
  -22.1663   -4.2163   21.0975 F   0  0  0  0  0  0
  -21.5630   -3.4556   25.7740 F   0  0  0  0  0  0
  -29.9691  -13.5543   20.4177 N   0  0  0  0  0  0
  -26.2877  -12.9404   20.3292 N   0  0  0  0  0  0
  -25.9286  -11.6538   20.5755 N   0  0  0  0  0  0
  -22.0416  -12.8194   22.0392 N   0  0  0  0  0  0
  -25.4232  -15.1919   20.4103 N   0  0  0  0  0  0
  -31.7875  -14.8247   20.1300 O   0  0  0  0  0  0
  -21.6640   -6.8884   21.4236 O   0  0  0  0  0  0
  -22.3492  -14.5571   20.6761 O   0  0  0  0  0  0
  -24.6360  -31.8530   23.1956 C   0  0  0  0  0  0
  -25.9175  -32.4736   23.8310 C   0  0  1  0  0  0
  -27.2066  -27.2278   20.1515 C   0  0  0  0  0  0
  -25.5962  -33.8533   24.2236 N   0  0  0  0  0  0
  -23.4332  -30.4715   21.5419 C   0  0  2  0  0  0
  -24.8812  -28.9168   20.1118 C   0  0  0  0  0  0
  -22.7513  -29.4590   22.4948 C   0  0  0  0  0  0
  -18.0291  -28.1388   22.8474 C   0  0  0  0  0  0
  -24.1486  -36.7242   23.2634 C   0  0  0  0  0  0
  -25.9813  -30.7537   21.3823 C   0  0  0  0  0  0
  -26.0528  -29.3719   20.7318 C   0  0  0  0  0  0
  -27.2220  -28.5393   20.7450 C   0  0  0  0  0  0
  -26.0312  -26.8717   19.4653 C   0  0  0  0  0  0
  -24.8765  -27.6746   19.4638 C   0  0  0  0  0  0
  -23.6489  -29.7990   20.1608 C   0  0  0  0  0  0
  -25.4116  -36.3051   24.0334 C   0  0  1  0  0  0
  -20.5893  -28.3704   23.1272 C   0  0  2  0  0  0
  -20.6788  -26.9422   22.5385 C   0  0  0  0  0  0
  -19.5755  -26.6364   21.5196 C   0  0  0  0  0  0
  -18.1921  -26.7943   22.1583 C   0  0  0  0  0  0
  -19.1549  -28.8865   23.2855 C   0  0  0  0  0  0
  -18.9481  -30.1475   23.8868 C   0  0  0  0  0  0
  -17.6486  -30.6589   24.0562 C   0  0  0  0  0  0
  -25.9069  -34.9439   23.5089 C   0  0  0  0  0  0
  -16.5365  -29.9076   23.6363 C   0  0  0  0  0  0
  -16.7292  -28.6499   23.0365 C   0  0  0  0  0  0
  -26.4518  -31.6568   25.0712 C   0  0  0  0  0  0
  -25.3712  -31.3696   26.1401 C   0  0  0  0  0  0
  -27.0398  -30.3005   24.6189 C   0  0  0  0  0  0
  -27.6049  -32.4329   25.7500 C   0  0  0  0  0  0
  -27.5587  -37.1765   24.8460 C   0  0  0  0  0  0
  -21.4217  -29.3062   22.3689 N   0  0  0  0  0  0
  -26.4275  -37.3764   23.9447 N   0  0  0  0  0  0
  -24.7023  -31.0441   22.0961 N   0  0  0  0  0  0
  -23.4184  -28.8130   23.3073 O   0  0  0  0  0  0
  -28.2429  -26.2637   20.1925 O   0  0  0  0  0  0
  -26.5613  -34.8938   22.4638 O   0  0  0  0  0  0
  -23.5501  -32.1388   23.7199 O   0  0  0  0  0  0
  -32.1202  -19.0390   20.6355 C   0  0  0  0  0  0
  -31.6520  -17.7211   20.7472 C   0  0  0  0  0  0
  -29.3912  -18.5774   20.6559 C   0  0  0  0  0  0
  -31.2576  -20.1455   20.5138 C   0  0  0  0  0  0
  -29.8457  -19.9802   20.5873 C   0  0  0  0  0  0
  -30.2775  -17.4032   20.7112 C   0  0  0  0  0  0
  -29.1407  -22.5411   20.9455 C   0  0  0  0  0  0
  -28.2540  -23.4764   20.4559 C   0  0  0  0  0  0
  -27.3794  -22.6355   19.6461 C   0  0  0  0  0  0
  -26.2101  -23.0152   19.1109 C   0  0  0  0  0  0
  -27.8954  -21.1936   19.5646 C   0  0  0  0  0  0
  -31.9320  -21.4834   20.2444 C   0  0  0  0  0  0
  -27.9709  -24.9872   20.9667 C   0  0  0  0  0  0
  -28.9849  -21.1677   20.5307 N   0  0  0  0  0  0
  -29.8772  -15.9469   20.7643 N   0  0  0  0  0  0
  -31.4607  -12.6072   19.1816 H   0  0  0  0  0  0
  -30.3711  -11.5145   19.9811 H   0  0  0  0  0  0
  -29.7961  -11.7433   17.5372 H   0  0  0  0  0  0
  -29.6152  -13.4727   17.7226 H   0  0  0  0  0  0
  -27.9040  -11.2817   18.9297 H   0  0  0  0  0  0
  -27.3724  -12.5076   17.8082 H   0  0  0  0  0  0
  -27.6244  -14.2549   19.4645 H   0  0  0  0  0  0
  -28.7147  -12.1907   21.4348 H   0  0  0  0  0  0
  -28.3958  -13.8673   21.8026 H   0  0  0  0  0  0
  -25.2726   -9.5709   22.4787 H   0  0  0  0  0  0
  -23.9997   -7.4656   22.7487 H   0  0  0  0  0  0
  -21.0858   -8.8743   19.8911 H   0  0  0  0  0  0
  -22.3691  -10.9664   19.6154 H   0  0  0  0  0  0
  -21.1990   -7.6142   23.9714 H   0  0  0  0  0  0
  -21.1486   -6.0517   25.9067 H   0  0  0  0  0  0
  -22.0596   -2.7612   23.2838 H   0  0  0  0  0  0
  -22.4025  -11.9809   22.4698 H   0  0  0  0  0  0
  -21.1016  -13.1172   22.2589 H   0  0  0  0  0  0
  -24.6607  -15.8526   20.5072 H   0  0  0  0  0  0
  -26.2722  -15.6179   20.0615 H   0  0  0  0  0  0
  -26.7247  -32.5373   23.1053 H   0  0  0  0  0  0
  -25.0236  -33.9676   25.0473 H   0  0  0  0  0  0
  -22.7309  -31.2937   21.3890 H   0  0  0  0  0  0
  -23.3802  -35.9499   23.3207 H   0  0  0  0  0  0
  -24.3606  -36.8956   22.2063 H   0  0  0  0  0  0
  -23.7171  -37.6386   23.6720 H   0  0  0  0  0  0
  -26.1190  -31.5048   20.6033 H   0  0  0  0  0  0
  -26.8619  -30.8049   22.0110 H   0  0  0  0  0  0
  -28.1175  -28.8771   21.2474 H   0  0  0  0  0  0
  -26.0039  -25.9482   18.9178 H   0  0  0  0  0  0
  -23.9907  -27.3250   18.9531 H   0  0  0  0  0  0
  -23.7588  -30.5663   19.3944 H   0  0  0  0  0  0
  -22.7722  -29.2166   19.8708 H   0  0  0  0  0  0
  -25.1282  -36.1883   25.0821 H   0  0  0  0  0  0
  -20.9961  -28.3268   24.1406 H   0  0  0  0  0  0
  -20.5682  -26.2312   23.3578 H   0  0  0  0  0  0
  -21.6662  -26.7422   22.1180 H   0  0  0  0  0  0
  -19.6921  -25.6269   21.1228 H   0  0  0  0  0  0
  -19.6714  -27.3181   20.6733 H   0  0  0  0  0  0
  -17.4202  -26.6752   21.3956 H   0  0  0  0  0  0
  -18.0271  -26.0042   22.8931 H   0  0  0  0  0  0
  -19.7961  -30.7289   24.2193 H   0  0  0  0  0  0
  -17.5038  -31.6278   24.5146 H   0  0  0  0  0  0
  -15.5375  -30.2951   23.7721 H   0  0  0  0  0  0
  -15.8685  -28.0808   22.7117 H   0  0  0  0  0  0
  -24.5996  -30.6926   25.7743 H   0  0  0  0  0  0
  -24.8783  -32.2829   26.4733 H   0  0  0  0  0  0
  -25.7999  -30.8966   27.0242 H   0  0  0  0  0  0
  -26.3016  -29.6719   24.1193 H   0  0  0  0  0  0
  -27.4147  -29.7290   25.4695 H   0  0  0  0  0  0
  -27.8833  -30.4360   23.9418 H   0  0  0  0  0  0
  -27.2708  -33.3740   26.1892 H   0  0  0  0  0  0
  -28.3942  -32.6691   25.0348 H   0  0  0  0  0  0
  -28.0585  -31.8557   26.5567 H   0  0  0  0  0  0
  -28.2497  -38.0160   24.7623 H   0  0  0  0  0  0
  -28.1189  -36.2706   24.6103 H   0  0  0  0  0  0
  -27.2326  -37.1200   25.8861 H   0  0  0  0  0  0
  -20.9448  -29.8783   21.6865 H   0  0  0  0  0  0
  -26.0138  -38.2810   24.1506 H   0  0  0  0  0  0
  -33.1888  -19.1958   20.6207 H   0  0  0  0  0  0
  -32.4053  -16.9582   20.8490 H   0  0  0  0  0  0
  -28.3262  -18.4011   20.6749 H   0  0  0  0  0  0
  -29.8730  -22.7370   21.7182 H   0  0  0  0  0  0
  -25.8053  -23.9988   19.2498 H   0  0  0  0  0  0
  -25.6075  -22.3137   18.5532 H   0  0  0  0  0  0
  -28.2758  -20.9807   18.5636 H   0  0  0  0  0  0
  -27.1220  -20.4652   19.8093 H   0  0  0  0  0  0
  -32.8422  -21.3365   19.6619 H   0  0  0  0  0  0
  -32.2051  -21.9667   21.1817 H   0  0  0  0  0  0
  -31.3154  -22.1545   19.6487 H   0  0  0  0  0  0
  -28.5389  -25.0988   21.8913 H   0  0  0  0  0  0
  -26.9306  -24.9994   21.3003 H   0  0  0  0  0  0
  -28.9135  -15.7692   21.0066 H   0  0  0  0  0  0
  1 25  1  0  0  0
  1 30  2  0  0  0
  1 85  1  0  0  0
  2  3  1  0  0  0
  2 25  1  0  0  0
  2 86  1  0  0  0
  2 87  1  0  0  0
  3  4  1  0  0  0
  3 88  1  0  0  0
  3 89  1  0  0  0
  4  5  1  0  0  0
  4 90  1  0  0  0
  4 91  1  0  0  0
  5  6  1  0  0  0
  5 26  1  0  0  0
  5 92  1  0  0  0
  6 25  1  0  0  0
  6 93  1  0  0  0
  6 94  1  0  0  0
  7  8  2  0  0  0
  7 26  1  0  0  0
  7 29  1  0  0  0
  8  9  1  0  0  0
  8 22  1  0  0  0
  9 10  1  0  0  0
  9 27  2  0  0  0
 10 11  2  0  0  0
 10 15  1  0  0  0
 11 12  1  0  0  0
 11 95  1  0  0  0
 12 13  2  0  0  0
 12 96  1  0  0  0
 13 14  1  0  0  0
 13 31  1  0  0  0
 14 15  2  0  0  0
 14 97  1  0  0  0
 15 98  1  0  0  0
 16 17  2  0  0  0
 16 21  1  0  0  0
 16 31  1  0  0  0
 17 18  1  0  0  0
 17 99  1  0  0  0
 18 19  2  0  0  0
 18100  1  0  0  0
 19 20  1  0  0  0
 19 24  1  0  0  0
 20 21  2  0  0  0
 20101  1  0  0  0
 21 23  1  0  0  0
 22 28  1  0  0  0
 22 32  2  0  0  0
 26 27  1  0  0  0
 28102  1  0  0  0
 28103  1  0  0  0
 29104  1  0  0  0
 29105  1  0  0  0
 33 34  1  0  0  0
 33 66  1  0  0  0
 33 70  2  0  0  0
 34 36  1  0  0  0
 34 59  1  0  0  0
 34106  1  0  0  0
 35 44  2  0  0  0
 35 45  1  0  0  0
 35 68  1  0  0  0
 36 56  1  0  0  0
 36107  1  0  0  0
 37 39  1  0  0  0
 37 47  1  0  0  0
 37 66  1  0  0  0
 37108  1  0  0  0
 38 43  2  0  0  0
 38 46  1  0  0  0
 38 47  1  0  0  0
 39 64  1  0  0  0
 39 67  2  0  0  0
 40 52  1  0  0  0
 40 53  2  0  0  0
 40 58  1  0  0  0
 41109  1  0  0  0
 41110  1  0  0  0
 41111  1  0  0  0
 41 48  1  0  0  0
 42 43  1  0  0  0
 42 66  1  0  0  0
 42112  1  0  0  0
 42113  1  0  0  0
 43 44  1  0  0  0
 44114  1  0  0  0
 45 46  2  0  0  0
 45115  1  0  0  0
 46116  1  0  0  0
 47117  1  0  0  0
 47118  1  0  0  0
 48 56  1  0  0  0
 48 65  1  0  0  0
 48119  1  0  0  0
 49 50  1  0  0  0
 49 53  1  0  0  0
 49 64  1  0  0  0
 49120  1  0  0  0
 50 51  1  0  0  0
 50121  1  0  0  0
 50122  1  0  0  0
 51 52  1  0  0  0
 51123  1  0  0  0
 51124  1  0  0  0
 52125  1  0  0  0
 52126  1  0  0  0
 53 54  1  0  0  0
 54 55  2  0  0  0
 54127  1  0  0  0
 55 57  1  0  0  0
 55128  1  0  0  0
 56 69  2  0  0  0
 57 58  2  0  0  0
 57129  1  0  0  0
 58130  1  0  0  0
 59 60  1  0  0  0
 59 61  1  0  0  0
 59 62  1  0  0  0
 60131  1  0  0  0
 60132  1  0  0  0
 60133  1  0  0  0
 61134  1  0  0  0
 61135  1  0  0  0
 61136  1  0  0  0
 62137  1  0  0  0
 62138  1  0  0  0
 62139  1  0  0  0
 63 65  1  0  0  0
 63140  1  0  0  0
 63141  1  0  0  0
 63142  1  0  0  0
 64143  1  0  0  0
 65144  1  0  0  0
 68 83  1  0  0  0
 71 72  2  0  0  0
 71 74  1  0  0  0
 71145  1  0  0  0
 72 76  1  0  0  0
 72146  1  0  0  0
 73 75  1  0  0  0
 73 76  2  0  0  0
 73147  1  0  0  0
 74 75  2  0  0  0
 74 82  1  0  0  0
 75 84  1  0  0  0
 76 85  1  0  0  0
 77 78  2  0  0  0
 77 84  1  0  0  0
 77148  1  0  0  0
 78 79  1  0  0  0
 78 83  1  0  0  0
 79 80  2  0  0  0
 79 81  1  0  0  0
 80149  1  0  0  0
 80150  1  0  0  0
 81 84  1  0  0  0
 81151  1  0  0  0
 81152  1  0  0  0
 82153  1  0  0  0
 82154  1  0  0  0
 82155  1  0  0  0
 83156  1  0  0  0
 83157  1  0  0  0
 85158  1  0  0  0
M  ISO  4   1 100  68 101  83 101  85 100
M  END
> <chiral flag>
0

> <version>
0

> <s_m_source_file>
/data/baiqing/PycharmProjects/Reinvent-master-3.2/result/LINK_invent/BTK/process_docking_weight1_custom_product_contain_oxygen_bond_distance_aromatic_linkinvent_7_9_3/rearranged_h_0076.sdf

> <i_m_source_file_index>
80

> <r_mmod_Potential_Energy-OPLS-2005>
371.545806884766

> <r_mmod_Stretch_Energy-OPLS-2005>
150.784133911133

> <r_mmod_Bend_Energy-OPLS-2005>
272.432434082031

> <r_mmod_Torsional_Energy-OPLS-2005>
249.064544677734

> <r_mmod_Improper_Torsional_Energy-OPLS-2005>
6.61265182495117

> <r_mmod_Van_der_Waal_Energy-OPLS-2005>
146.848510742188

> <r_mmod_Electrostatic_Energy-OPLS-2005>
-353.684539794922

> <r_mmod_Solvation_Energy-OPLS-2005>
-207.627227783203

> <b_mmod_Minimization_Converged-OPLS-2005>
0

> <r_mmod_RMS_Derivative-OPLS-2005>
3.6216127872467

$$$$
80
                    3D
 Structure written by MMmdl.
169179  0  0  1  0            999 V2000
  -30.6106  -14.7637   20.4613 C   0  0  0  0  0  0
  -30.4277  -12.4698   19.4758 C   0  0  0  0  0  0
  -29.5104  -12.5264   18.2358 C   0  0  0  0  0  0
  -28.0329  -12.3568   18.6411 C   0  0  0  0  0  0
  -27.6396  -13.2415   19.8536 C   0  0  2  0  0  0
  -28.6825  -13.1794   20.9878 C   0  0  0  0  0  0
  -25.2502  -13.8213   20.5702 C   0  0  0  0  0  0
  -24.1802  -13.0443   20.9220 C   0  0  0  0  0  0
  -24.6408  -11.6917   20.8736 C   0  0  0  0  0  0
  -23.9075  -10.4286   21.0396 C   0  0  0  0  0  0
  -24.3621   -9.4204   21.9191 C   0  0  0  0  0  0
  -23.6297   -8.2238   22.0746 C   0  0  0  0  0  0
  -22.4270   -8.0288   21.3550 C   0  0  0  0  0  0
  -21.9915   -9.0258   20.4643 C   0  0  0  0  0  0
  -22.7244  -10.2133   20.3049 C   0  0  0  0  0  0
  -21.6848   -6.0743   22.5292 C   0  0  0  0  0  0
  -21.4010   -6.5645   23.8225 C   0  0  0  0  0  0
  -21.3662   -5.6792   24.9191 C   0  0  0  0  0  0
  -21.6058   -4.3056   24.7235 C   0  0  0  0  0  0
  -21.8825   -3.8148   23.4355 C   0  0  0  0  0  0
  -21.9192   -4.6967   22.3415 C   0  0  0  0  0  0
  -22.7829  -13.5223   21.1898 C   0  0  0  0  0  0
  -22.1662   -4.2153   21.0989 F   0  0  0  0  0  0
  -21.5625   -3.4548   25.7753 F   0  0  0  0  0  0
  -29.9801  -13.5367   20.4048 N   0  0  0  0  0  0
  -26.2928  -12.9440   20.3278 N   0  0  0  0  0  0
  -25.9341  -11.6568   20.5752 N   0  0  0  0  0  0
  -22.0467  -12.8177   22.0428 N   0  0  0  0  0  0
  -25.4195  -15.1942   20.4135 N   0  0  0  0  0  0
  -31.8183  -14.8069   20.2175 O   0  0  0  0  0  0
  -21.6634   -6.8888   21.4254 O   0  0  0  0  0  0
  -22.3511  -14.5563   20.6797 O   0  0  0  0  0  0
  -24.6331  -31.8552   23.2025 C   0  0  0  0  0  0
  -25.9162  -32.4744   23.8359 C   0  0  1  0  0  0
  -27.2007  -27.2333   20.1406 C   0  0  0  0  0  0
  -25.5956  -33.8544   24.2273 N   0  0  0  0  0  0
  -23.4307  -30.4822   21.5436 C   0  0  2  0  0  0
  -24.8794  -28.9414   20.1023 C   0  0  0  0  0  0
  -22.7526  -29.4590   22.4882 C   0  0  0  0  0  0
  -18.0297  -28.1400   22.8476 C   0  0  0  0  0  0
  -24.1487  -36.7270   23.2639 C   0  0  0  0  0  0
  -25.9819  -30.7589   21.3937 C   0  0  0  0  0  0
  -26.0493  -29.3823   20.7337 C   0  0  0  0  0  0
  -27.2107  -28.5382   20.7517 C   0  0  0  0  0  0
  -26.0194  -26.9009   19.4329 C   0  0  0  0  0  0
  -24.8732  -27.7114   19.4367 C   0  0  0  0  0  0
  -23.6522  -29.8301   20.1550 C   0  0  0  0  0  0
  -25.4108  -36.3045   24.0317 C   0  0  1  0  0  0
  -20.5906  -28.3695   23.1265 C   0  0  2  0  0  0
  -20.6783  -26.9411   22.5405 C   0  0  0  0  0  0
  -19.5755  -26.6388   21.5209 C   0  0  0  0  0  0
  -18.1935  -26.7937   22.1625 C   0  0  0  0  0  0
  -19.1553  -28.8869   23.2864 C   0  0  0  0  0  0
  -18.9463  -30.1469   23.8879 C   0  0  0  0  0  0
  -17.6463  -30.6593   24.0561 C   0  0  0  0  0  0
  -25.9053  -34.9425   23.5090 C   0  0  0  0  0  0
  -16.5352  -29.9082   23.6344 C   0  0  0  0  0  0
  -16.7284  -28.6511   23.0344 C   0  0  0  0  0  0
  -26.4525  -31.6569   25.0762 C   0  0  0  0  0  0
  -25.3741  -31.3727   26.1481 C   0  0  0  0  0  0
  -27.0371  -30.2966   24.6305 C   0  0  0  0  0  0
  -27.6086  -32.4298   25.7537 C   0  0  0  0  0  0
  -27.5574  -37.1787   24.8464 C   0  0  0  0  0  0
  -21.4236  -29.3033   22.3649 N   0  0  0  0  0  0
  -26.4276  -37.3748   23.9416 N   0  0  0  0  0  0
  -24.7003  -31.0503   22.1016 N   0  0  0  0  0  0
  -23.4211  -28.8119   23.2980 O   0  0  0  0  0  0
  -28.2420  -26.2669   20.2567 O   0  0  0  0  0  0
  -26.5624  -34.8895   22.4655 O   0  0  0  0  0  0
  -23.5473  -32.1386   23.7300 O   0  0  0  0  0  0
  -30.5849  -20.0685   19.3385 C   0  0  0  0  0  0
  -29.3748  -18.5248   20.7715 C   0  0  0  0  0  0
  -29.5821  -19.8991   20.3044 C   0  0  0  0  0  0
  -31.3066  -18.9809   18.8205 C   0  0  0  0  0  0
  -30.0876  -17.3539   20.2417 C   0  0  0  0  0  0
  -31.0213  -17.6505   19.2095 C   0  0  0  0  0  0
  -28.5272  -22.2496   19.9479 C   0  0  0  0  0  0
  -28.5737  -23.5025   20.5056 C   0  0  0  0  0  0
  -29.1315  -23.2411   21.8122 C   0  0  0  0  0  0
  -33.3810  -18.8138   15.8694 C   0  0  0  0  0  0
  -33.6690  -19.3270   18.1629 C   0  0  0  0  0  0
  -29.3867  -24.1740   22.7418 C   0  0  0  0  0  0
  -33.6105  -18.3412   14.6364 C   0  0  0  0  0  0
  -34.2332  -19.4411   19.3775 C   0  0  0  0  0  0
  -29.3836  -21.7344   21.9919 C   0  0  0  0  0  0
  -34.4425  -19.2109   16.8697 C   0  0  0  0  0  0
  -32.0225  -18.9375   16.5065 C   0  0  0  0  0  0
  -27.9037  -24.8306   19.9081 C   0  0  0  0  0  0
  -28.9208  -21.1215   20.7378 N   0  0  0  0  0  0
  -32.3142  -19.2554   17.8909 N   0  0  0  0  0  0
  -29.8483  -15.9221   20.6515 N   0  0  0  0  0  0
  -31.6413  -16.6645   18.5203 F   0  0  0  0  0  0
  -31.4683  -12.5955   19.1698 H   0  0  0  0  0  0
  -30.3694  -11.4903   19.9540 H   0  0  0  0  0  0
  -29.7913  -11.7605   17.5112 H   0  0  0  0  0  0
  -29.6425  -13.4821   17.7275 H   0  0  0  0  0  0
  -27.8677  -11.3046   18.8769 H   0  0  0  0  0  0
  -27.3855  -12.5845   17.7939 H   0  0  0  0  0  0
  -27.6341  -14.2655   19.4802 H   0  0  0  0  0  0
  -28.7194  -12.1819   21.4270 H   0  0  0  0  0  0
  -28.4169  -13.8624   21.7959 H   0  0  0  0  0  0
  -25.2753   -9.5700   22.4783 H   0  0  0  0  0  0
  -24.0035   -7.4626   22.7444 H   0  0  0  0  0  0
  -21.0863   -8.8784   19.8936 H   0  0  0  0  0  0
  -22.3710  -10.9694   19.6171 H   0  0  0  0  0  0
  -21.2000   -7.6144   23.9721 H   0  0  0  0  0  0
  -21.1475   -6.0523   25.9100 H   0  0  0  0  0  0
  -22.0599   -2.7612   23.2838 H   0  0  0  0  0  0
  -22.4073  -11.9808   22.4767 H   0  0  0  0  0  0
  -21.1110  -13.1226   22.2686 H   0  0  0  0  0  0
  -24.6554  -15.8499   20.5356 H   0  0  0  0  0  0
  -26.2619  -15.6353   20.0680 H   0  0  0  0  0  0
  -26.7237  -32.5396   23.1097 H   0  0  0  0  0  0
  -25.0113  -33.9674   25.0427 H   0  0  0  0  0  0
  -22.7251  -31.3041   21.4031 H   0  0  0  0  0  0
  -23.3737  -35.9615   23.3288 H   0  0  0  0  0  0
  -24.3582  -36.8907   22.2060 H   0  0  0  0  0  0
  -23.7256  -37.6467   23.6676 H   0  0  0  0  0  0
  -26.1318  -31.5202   20.6258 H   0  0  0  0  0  0
  -26.8541  -30.8003   22.0339 H   0  0  0  0  0  0
  -28.0915  -28.8598   21.2889 H   0  0  0  0  0  0
  -25.9318  -25.9819   18.8740 H   0  0  0  0  0  0
  -23.9887  -27.3798   18.9097 H   0  0  0  0  0  0
  -23.7795  -30.6139   19.4073 H   0  0  0  0  0  0
  -22.7718  -29.2657   19.8438 H   0  0  0  0  0  0
  -25.1289  -36.1878   25.0806 H   0  0  0  0  0  0
  -20.9986  -28.3268   24.1388 H   0  0  0  0  0  0
  -20.5677  -26.2302   23.3600 H   0  0  0  0  0  0
  -21.6648  -26.7436   22.1198 H   0  0  0  0  0  0
  -19.6907  -25.6287   21.1255 H   0  0  0  0  0  0
  -19.6700  -27.3190   20.6722 H   0  0  0  0  0  0
  -17.4202  -26.6672   21.4033 H   0  0  0  0  0  0
  -18.0343  -26.0099   22.9048 H   0  0  0  0  0  0
  -19.7937  -30.7305   24.2229 H   0  0  0  0  0  0
  -17.5006  -31.6272   24.5162 H   0  0  0  0  0  0
  -15.5340  -30.2965   23.7684 H   0  0  0  0  0  0
  -15.8685  -28.0824   22.7037 H   0  0  0  0  0  0
  -24.5917  -30.7074   25.7819 H   0  0  0  0  0  0
  -24.8936  -32.2898   26.4902 H   0  0  0  0  0  0
  -25.8056  -30.8915   27.0270 H   0  0  0  0  0  0
  -26.2980  -29.6704   24.1304 H   0  0  0  0  0  0
  -27.3979  -29.7248   25.4870 H   0  0  0  0  0  0
  -27.8896  -30.4197   23.9615 H   0  0  0  0  0  0
  -27.2711  -33.3611   26.2091 H   0  0  0  0  0  0
  -28.3916  -32.6823   25.0374 H   0  0  0  0  0  0
  -28.0737  -31.8439   26.5474 H   0  0  0  0  0  0
  -28.2564  -38.0114   24.7511 H   0  0  0  0  0  0
  -28.1089  -36.2630   24.6259 H   0  0  0  0  0  0
  -27.2302  -37.1412   25.8873 H   0  0  0  0  0  0
  -20.9411  -29.8753   21.6858 H   0  0  0  0  0  0
  -26.0140  -38.2815   24.1410 H   0  0  0  0  0  0
  -30.8231  -21.0624   18.9911 H   0  0  0  0  0  0
  -28.6264  -18.3648   21.5346 H   0  0  0  0  0  0
  -28.0792  -22.0242   18.9881 H   0  0  0  0  0  0
  -29.1848  -25.2199   22.5634 H   0  0  0  0  0  0
  -29.8088  -23.9026   23.6988 H   0  0  0  0  0  0
  -34.6136  -18.2368   14.2497 H   0  0  0  0  0  0
  -32.7936  -18.0402   13.9976 H   0  0  0  0  0  0
  -35.3081  -19.4756   19.4846 H   0  0  0  0  0  0
  -33.6430  -19.5035   20.2816 H   0  0  0  0  0  0
  -28.8184  -21.3525   22.8423 H   0  0  0  0  0  0
  -30.4446  -21.5459   22.1634 H   0  0  0  0  0  0
  -34.8903  -20.1710   16.6102 H   0  0  0  0  0  0
  -35.2227  -18.4526   16.9380 H   0  0  0  0  0  0
  -31.4656  -18.0048   16.4036 H   0  0  0  0  0  0
  -31.4491  -19.7406   16.0421 H   0  0  0  0  0  0
  -26.8734  -24.6522   20.2099 H   0  0  0  0  0  0
  -27.9280  -24.7451   18.8197 H   0  0  0  0  0  0
  -28.9294  -15.7416   21.0257 H   0  0  0  0  0  0
  1 25  1  0  0  0
  1 30  2  0  0  0
  1 91  1  0  0  0
  2  3  1  0  0  0
  2 25  1  0  0  0
  2 93  1  0  0  0
  2 94  1  0  0  0
  3  4  1  0  0  0
  3 95  1  0  0  0
  3 96  1  0  0  0
  4  5  1  0  0  0
  4 97  1  0  0  0
  4 98  1  0  0  0
  5  6  1  0  0  0
  5 26  1  0  0  0
  5 99  1  0  0  0
  6 25  1  0  0  0
  6100  1  0  0  0
  6101  1  0  0  0
  7  8  2  0  0  0
  7 26  1  0  0  0
  7 29  1  0  0  0
  8  9  1  0  0  0
  8 22  1  0  0  0
  9 10  1  0  0  0
  9 27  2  0  0  0
 10 11  2  0  0  0
 10 15  1  0  0  0
 11 12  1  0  0  0
 11102  1  0  0  0
 12 13  2  0  0  0
 12103  1  0  0  0
 13 14  1  0  0  0
 13 31  1  0  0  0
 14 15  2  0  0  0
 14104  1  0  0  0
 15105  1  0  0  0
 16 17  2  0  0  0
 16 21  1  0  0  0
 16 31  1  0  0  0
 17 18  1  0  0  0
 17106  1  0  0  0
 18 19  2  0  0  0
 18107  1  0  0  0
 19 20  1  0  0  0
 19 24  1  0  0  0
 20 21  2  0  0  0
 20108  1  0  0  0
 21 23  1  0  0  0
 22 28  1  0  0  0
 22 32  2  0  0  0
 26 27  1  0  0  0
 28109  1  0  0  0
 28110  1  0  0  0
 29111  1  0  0  0
 29112  1  0  0  0
 33 34  1  0  0  0
 33 66  1  0  0  0
 33 70  2  0  0  0
 34 36  1  0  0  0
 34 59  1  0  0  0
 34113  1  0  0  0
 35 44  2  0  0  0
 35 45  1  0  0  0
 35 68  1  0  0  0
 36 56  1  0  0  0
 36114  1  0  0  0
 37 39  1  0  0  0
 37 47  1  0  0  0
 37 66  1  0  0  0
 37115  1  0  0  0
 38 43  2  0  0  0
 38 46  1  0  0  0
 38 47  1  0  0  0
 39 64  1  0  0  0
 39 67  2  0  0  0
 40 52  1  0  0  0
 40 53  2  0  0  0
 40 58  1  0  0  0
 41116  1  0  0  0
 41117  1  0  0  0
 41118  1  0  0  0
 41 48  1  0  0  0
 42 43  1  0  0  0
 42 66  1  0  0  0
 42119  1  0  0  0
 42120  1  0  0  0
 43 44  1  0  0  0
 44121  1  0  0  0
 45 46  2  0  0  0
 45122  1  0  0  0
 46123  1  0  0  0
 47124  1  0  0  0
 47125  1  0  0  0
 48 56  1  0  0  0
 48 65  1  0  0  0
 48126  1  0  0  0
 49 50  1  0  0  0
 49 53  1  0  0  0
 49 64  1  0  0  0
 49127  1  0  0  0
 50 51  1  0  0  0
 50128  1  0  0  0
 50129  1  0  0  0
 51 52  1  0  0  0
 51130  1  0  0  0
 51131  1  0  0  0
 52132  1  0  0  0
 52133  1  0  0  0
 53 54  1  0  0  0
 54 55  2  0  0  0
 54134  1  0  0  0
 55 57  1  0  0  0
 55135  1  0  0  0
 56 69  2  0  0  0
 57 58  2  0  0  0
 57136  1  0  0  0
 58137  1  0  0  0
 59 60  1  0  0  0
 59 61  1  0  0  0
 59 62  1  0  0  0
 60138  1  0  0  0
 60139  1  0  0  0
 60140  1  0  0  0
 61141  1  0  0  0
 61142  1  0  0  0
 61143  1  0  0  0
 62144  1  0  0  0
 62145  1  0  0  0
 62146  1  0  0  0
 63 65  1  0  0  0
 63147  1  0  0  0
 63148  1  0  0  0
 63149  1  0  0  0
 64150  1  0  0  0
 65151  1  0  0  0
 68 88  1  0  0  0
 71 73  2  0  0  0
 71 74  1  0  0  0
 71152  1  0  0  0
 72 73  1  0  0  0
 72 75  2  0  0  0
 72153  1  0  0  0
 73 89  1  0  0  0
 74 76  2  0  0  0
 74 90  1  0  0  0
 75 76  1  0  0  0
 75 91  1  0  0  0
 76 92  1  0  0  0
 77 78  2  0  0  0
 77 89  1  0  0  0
 77154  1  0  0  0
 78 79  1  0  0  0
 78 88  1  0  0  0
 79 82  2  0  0  0
 79 85  1  0  0  0
 80 83  2  0  0  0
 80 86  1  0  0  0
 80 87  1  0  0  0
 81 84  2  0  0  0
 81 86  1  0  0  0
 81 90  1  0  0  0
 82155  1  0  0  0
 82156  1  0  0  0
 83157  1  0  0  0
 83158  1  0  0  0
 84159  1  0  0  0
 84160  1  0  0  0
 85 89  1  0  0  0
 85161  1  0  0  0
 85162  1  0  0  0
 86163  1  0  0  0
 86164  1  0  0  0
 87 90  1  0  0  0
 87165  1  0  0  0
 87166  1  0  0  0
 88167  1  0  0  0
 88168  1  0  0  0
 91169  1  0  0  0
M  ISO  4   1 100  68 101  88 101  91 100
M  END
> <chiral flag>
0

> <version>
0

> <s_m_source_file>
/data/baiqing/PycharmProjects/Reinvent-master-3.2/result/LINK_invent/BTK/process_docking_weight1_custom_product_contain_oxygen_bond_distance_aromatic_linkinvent_7_9_3/rearranged_h_0076.sdf

> <i_m_source_file_index>
81

> <r_mmod_Potential_Energy-OPLS-2005>
411.083374023438

> <r_mmod_Stretch_Energy-OPLS-2005>
135.842086791992

> <r_mmod_Bend_Energy-OPLS-2005>
292.441345214844

> <r_mmod_Torsional_Energy-OPLS-2005>
284.317687988281

> <r_mmod_Improper_Torsional_Energy-OPLS-2005>
8.81902980804443

> <r_mmod_Van_der_Waal_Energy-OPLS-2005>
143.809677124023

> <r_mmod_Electrostatic_Energy-OPLS-2005>
-339.257263183594

> <r_mmod_Solvation_Energy-OPLS-2005>
-222.557281494141

> <b_mmod_Minimization_Converged-OPLS-2005>
0

> <r_mmod_RMS_Derivative-OPLS-2005>
3.01834440231323

$$$$
81
                    3D
 Structure written by MMmdl.
162171  0  0  1  0            999 V2000
  -30.6858  -14.6571   20.5965 C   0  0  0  0  0  0
  -30.4290  -12.4218   19.4918 C   0  0  0  0  0  0
  -29.5197  -12.5141   18.2491 C   0  0  0  0  0  0
  -28.0416  -12.3569   18.6487 C   0  0  0  0  0  0
  -27.6539  -13.2340   19.8690 C   0  0  2  0  0  0
  -28.6891  -13.1223   21.0098 C   0  0  0  0  0  0
  -25.2540  -13.8218   20.5715 C   0  0  0  0  0  0
  -24.1822  -13.0463   20.9194 C   0  0  0  0  0  0
  -24.6415  -11.6937   20.8728 C   0  0  0  0  0  0
  -23.9091  -10.4323   21.0399 C   0  0  0  0  0  0
  -24.3639   -9.4228   21.9158 C   0  0  0  0  0  0
  -23.6298   -8.2275   22.0750 C   0  0  0  0  0  0
  -22.4272   -8.0301   21.3559 C   0  0  0  0  0  0
  -21.9922   -9.0280   20.4660 C   0  0  0  0  0  0
  -22.7269  -10.2144   20.3049 C   0  0  0  0  0  0
  -21.6861   -6.0729   22.5274 C   0  0  0  0  0  0
  -21.4033   -6.5633   23.8213 C   0  0  0  0  0  0
  -21.3671   -5.6778   24.9161 C   0  0  0  0  0  0
  -21.6045   -4.3046   24.7220 C   0  0  0  0  0  0
  -21.8818   -3.8136   23.4345 C   0  0  0  0  0  0
  -21.9205   -4.6952   22.3397 C   0  0  0  0  0  0
  -22.7844  -13.5227   21.1860 C   0  0  0  0  0  0
  -22.1656   -4.2135   21.0966 F   0  0  0  0  0  0
  -21.5646   -3.4529   25.7734 F   0  0  0  0  0  0
  -30.0111  -13.4617   20.4610 N   0  0  0  0  0  0
  -26.2992  -12.9433   20.3337 N   0  0  0  0  0  0
  -25.9339  -11.6572   20.5733 N   0  0  0  0  0  0
  -22.0484  -12.8210   22.0417 N   0  0  0  0  0  0
  -25.4267  -15.1937   20.4217 N   0  0  0  0  0  0
  -31.7754  -14.8127   20.0336 O   0  0  0  0  0  0
  -21.6660   -6.8874   21.4234 O   0  0  0  0  0  0
  -22.3509  -14.5518   20.6681 O   0  0  0  0  0  0
  -24.6289  -31.8582   23.1983 C   0  0  0  0  0  0
  -25.9118  -32.4763   23.8338 C   0  0  1  0  0  0
  -27.2285  -27.2948   20.1600 C   0  0  0  0  0  0
  -25.5934  -33.8559   24.2278 N   0  0  0  0  0  0
  -23.4249  -30.4774   21.5390 C   0  0  2  0  0  0
  -24.8767  -28.9258   20.1112 C   0  0  0  0  0  0
  -22.7480  -29.4613   22.4914 C   0  0  0  0  0  0
  -18.0281  -28.1384   22.8476 C   0  0  0  0  0  0
  -24.1489  -36.7300   23.2637 C   0  0  0  0  0  0
  -25.9632  -30.7896   21.3660 C   0  0  0  0  0  0
  -26.0418  -29.4088   20.7207 C   0  0  0  0  0  0
  -27.2225  -28.6069   20.7304 C   0  0  0  0  0  0
  -26.0482  -26.8681   19.5174 C   0  0  0  0  0  0
  -24.8852  -27.6635   19.4934 C   0  0  0  0  0  0
  -23.6427  -29.8074   20.1564 C   0  0  0  0  0  0
  -25.4118  -36.3084   24.0330 C   0  0  1  0  0  0
  -20.5884  -28.3688   23.1286 C   0  0  2  0  0  0
  -20.6772  -26.9407   22.5418 C   0  0  0  0  0  0
  -19.5755  -26.6387   21.5213 C   0  0  0  0  0  0
  -18.1936  -26.7923   22.1621 C   0  0  0  0  0  0
  -19.1535  -28.8853   23.2871 C   0  0  0  0  0  0
  -18.9457  -30.1454   23.8880 C   0  0  0  0  0  0
  -17.6459  -30.6578   24.0562 C   0  0  0  0  0  0
  -25.9058  -34.9436   23.5106 C   0  0  0  0  0  0
  -16.5349  -29.9086   23.6310 C   0  0  0  0  0  0
  -16.7270  -28.6504   23.0335 C   0  0  0  0  0  0
  -26.4499  -31.6560   25.0697 C   0  0  0  0  0  0
  -25.3726  -31.3699   26.1427 C   0  0  0  0  0  0
  -27.0322  -30.2976   24.6127 C   0  0  0  0  0  0
  -27.6067  -32.4282   25.7475 C   0  0  0  0  0  0
  -27.5580  -37.1817   24.8465 C   0  0  0  0  0  0
  -21.4185  -29.3049   22.3672 N   0  0  0  0  0  0
  -26.4288  -37.3791   23.9411 N   0  0  0  0  0  0
  -24.6912  -31.0601   22.0925 N   0  0  0  0  0  0
  -23.4186  -28.8140   23.3001 O   0  0  0  0  0  0
  -28.3340  -26.4287   20.2015 O   0  0  0  0  0  0
  -26.5616  -34.8911   22.4668 O   0  0  0  0  0  0
  -23.5445  -32.1376   23.7314 O   0  0  0  0  0  0
  -30.4791  -19.2357   19.9735 C   0  0  0  0  0  0
  -30.6476  -17.8253   20.1521 C   0  0  0  0  0  0
  -28.7207  -19.2541   21.5815 C   0  0  0  0  0  0
  -28.8757  -17.8356   21.7667 C   0  0  0  0  0  0
  -29.5350  -20.0274   20.7032 C   0  0  0  0  0  0
  -29.8814  -17.0706   21.0804 C   0  0  0  0  0  0
  -28.3295  -22.3221   20.6657 C   0  0  0  0  0  0
  -30.4560  -22.3186   20.1622 C   0  0  0  0  0  0
  -28.5915  -23.7417   20.0404 C   0  0  2  0  0  0
  -27.9186  -17.1633   22.7394 C   0  0  0  0  0  0
  -27.9370  -23.7700   18.6489 C   0  0  0  0  0  0
  -30.5049  -15.4157   22.8389 C   0  0  0  0  0  0
  -28.1640  -25.0821   20.8301 C   0  0  0  0  0  0
  -30.0268  -23.5702   19.9207 N   0  0  0  0  0  0
  -29.4306  -21.5151   20.5458 N   0  0  0  0  0  0
  -30.1709  -15.6477   21.4197 N   0  0  0  0  0  0
  -27.2503  -22.0088   21.1804 O   0  0  0  0  0  0
  -31.6429  -21.9971   20.0804 O   0  0  0  0  0  0
  -31.4787  -12.5215   19.2092 H   0  0  0  0  0  0
  -30.3384  -11.4340   19.9519 H   0  0  0  0  0  0
  -29.7918  -11.7435   17.5251 H   0  0  0  0  0  0
  -29.6694  -13.4739   17.7488 H   0  0  0  0  0  0
  -27.8730  -11.3060   18.8875 H   0  0  0  0  0  0
  -27.3970  -12.5807   17.7991 H   0  0  0  0  0  0
  -27.6670  -14.2681   19.5227 H   0  0  0  0  0  0
  -28.7021  -12.1136   21.4223 H   0  0  0  0  0  0
  -28.4070  -13.7796   21.8305 H   0  0  0  0  0  0
  -25.2774   -9.5700   22.4736 H   0  0  0  0  0  0
  -24.0015   -7.4666   22.7455 H   0  0  0  0  0  0
  -21.0868   -8.8820   19.8961 H   0  0  0  0  0  0
  -22.3735  -10.9689   19.6182 H   0  0  0  0  0  0
  -21.2022   -7.6134   23.9709 H   0  0  0  0  0  0
  -21.1494   -6.0501   25.9067 H   0  0  0  0  0  0
  -22.0585   -2.7597   23.2844 H   0  0  0  0  0  0
  -22.4101  -11.9886   22.4839 H   0  0  0  0  0  0
  -21.1110  -13.1260   22.2633 H   0  0  0  0  0  0
  -24.6672  -15.8511   20.5603 H   0  0  0  0  0  0
  -26.2857  -15.6360   20.1227 H   0  0  0  0  0  0
  -26.7187  -32.5451   23.1098 H   0  0  0  0  0  0
  -25.0082  -33.9702   25.0427 H   0  0  0  0  0  0
  -22.7195  -31.2976   21.3911 H   0  0  0  0  0  0
  -23.3738  -35.9647   23.3303 H   0  0  0  0  0  0
  -24.3578  -36.8911   22.2047 H   0  0  0  0  0  0
  -23.7250  -37.6507   23.6652 H   0  0  0  0  0  0
  -26.0871  -31.5474   20.5904 H   0  0  0  0  0  0
  -26.8466  -30.8515   21.9907 H   0  0  0  0  0  0
  -28.1139  -28.9747   21.2172 H   0  0  0  0  0  0
  -26.0165  -25.9017   19.0384 H   0  0  0  0  0  0
  -23.9997  -27.2926   18.9986 H   0  0  0  0  0  0
  -23.7606  -30.5806   19.3967 H   0  0  0  0  0  0
  -22.7653  -29.2344   19.8515 H   0  0  0  0  0  0
  -25.1304  -36.1934   25.0822 H   0  0  0  0  0  0
  -20.9982  -28.3260   24.1410 H   0  0  0  0  0  0
  -20.5673  -26.2293   23.3615 H   0  0  0  0  0  0
  -21.6640  -26.7437   22.1213 H   0  0  0  0  0  0
  -19.6923  -25.6305   21.1238 H   0  0  0  0  0  0
  -19.6697  -27.3189   20.6733 H   0  0  0  0  0  0
  -17.4209  -26.6650   21.4024 H   0  0  0  0  0  0
  -18.0328  -26.0076   22.9020 H   0  0  0  0  0  0
  -19.7938  -30.7275   24.2242 H   0  0  0  0  0  0
  -17.5016  -31.6255   24.5185 H   0  0  0  0  0  0
  -15.5352  -30.2996   23.7657 H   0  0  0  0  0  0
  -15.8658  -28.0838   22.7058 H   0  0  0  0  0  0
  -24.5925  -30.7018   25.7762 H   0  0  0  0  0  0
  -24.8891  -32.2848   26.4841 H   0  0  0  0  0  0
  -25.8063  -30.8895   27.0200 H   0  0  0  0  0  0
  -26.2867  -29.6749   24.1160 H   0  0  0  0  0  0
  -27.4021  -29.7228   25.4627 H   0  0  0  0  0  0
  -27.8743  -30.4271   23.9328 H   0  0  0  0  0  0
  -27.2686  -33.3596   26.2038 H   0  0  0  0  0  0
  -28.3882  -32.6809   25.0291 H   0  0  0  0  0  0
  -28.0707  -31.8387   26.5398 H   0  0  0  0  0  0
  -28.2614  -38.0100   24.7491 H   0  0  0  0  0  0
  -28.1055  -36.2625   24.6313 H   0  0  0  0  0  0
  -27.2283  -37.1475   25.8865 H   0  0  0  0  0  0
  -20.9361  -29.8773   21.6880 H   0  0  0  0  0  0
  -26.0162  -38.2871   24.1390 H   0  0  0  0  0  0
  -31.1316  -19.7124   19.2567 H   0  0  0  0  0  0
  -31.4320  -17.3395   19.5888 H   0  0  0  0  0  0
  -27.9595  -19.7551   22.1641 H   0  0  0  0  0  0
  -27.7841  -16.1034   22.5189 H   0  0  0  0  0  0
  -26.9347  -17.6323   22.6870 H   0  0  0  0  0  0
  -28.2822  -17.2557   23.7617 H   0  0  0  0  0  0
  -26.8548  -23.8383   18.7435 H   0  0  0  0  0  0
  -28.1527  -22.8738   18.0637 H   0  0  0  0  0  0
  -28.2740  -24.6341   18.0768 H   0  0  0  0  0  0
  -29.7533  -14.8020   23.3332 H   0  0  0  0  0  0
  -30.5865  -16.3506   23.3977 H   0  0  0  0  0  0
  -31.4697  -14.9146   22.9565 H   0  0  0  0  0  0
  -28.7221  -25.1133   21.7669 H   0  0  0  0  0  0
  -27.1269  -24.9675   21.1488 H   0  0  0  0  0  0
  -30.6411  -24.3275   19.6608 H   0  0  0  0  0  0
  1 25  1  0  0  0
  1 30  2  0  0  0
  1 86  1  0  0  0
  2  3  1  0  0  0
  2 25  1  0  0  0
  2 89  1  0  0  0
  2 90  1  0  0  0
  3  4  1  0  0  0
  3 91  1  0  0  0
  3 92  1  0  0  0
  4  5  1  0  0  0
  4 93  1  0  0  0
  4 94  1  0  0  0
  5  6  1  0  0  0
  5 26  1  0  0  0
  5 95  1  0  0  0
  6 25  1  0  0  0
  6 96  1  0  0  0
  6 97  1  0  0  0
  7  8  2  0  0  0
  7 26  1  0  0  0
  7 29  1  0  0  0
  8  9  1  0  0  0
  8 22  1  0  0  0
  9 10  1  0  0  0
  9 27  2  0  0  0
 10 11  2  0  0  0
 10 15  1  0  0  0
 11 12  1  0  0  0
 11 98  1  0  0  0
 12 13  2  0  0  0
 12 99  1  0  0  0
 13 14  1  0  0  0
 13 31  1  0  0  0
 14 15  2  0  0  0
 14100  1  0  0  0
 15101  1  0  0  0
 16 17  2  0  0  0
 16 21  1  0  0  0
 16 31  1  0  0  0
 17 18  1  0  0  0
 17102  1  0  0  0
 18 19  2  0  0  0
 18103  1  0  0  0
 19 20  1  0  0  0
 19 24  1  0  0  0
 20 21  2  0  0  0
 20104  1  0  0  0
 21 23  1  0  0  0
 22 28  1  0  0  0
 22 32  2  0  0  0
 26 27  1  0  0  0
 28105  1  0  0  0
 28106  1  0  0  0
 29107  1  0  0  0
 29108  1  0  0  0
 33 34  1  0  0  0
 33 66  1  0  0  0
 33 70  2  0  0  0
 34 36  1  0  0  0
 34 59  1  0  0  0
 34109  1  0  0  0
 35 44  2  0  0  0
 35 45  1  0  0  0
 35 68  1  0  0  0
 36 56  1  0  0  0
 36110  1  0  0  0
 37 39  1  0  0  0
 37 47  1  0  0  0
 37 66  1  0  0  0
 37111  1  0  0  0
 38 43  2  0  0  0
 38 46  1  0  0  0
 38 47  1  0  0  0
 39 64  1  0  0  0
 39 67  2  0  0  0
 40 52  1  0  0  0
 40 53  2  0  0  0
 40 58  1  0  0  0
 41112  1  0  0  0
 41113  1  0  0  0
 41114  1  0  0  0
 41 48  1  0  0  0
 42 43  1  0  0  0
 42 66  1  0  0  0
 42115  1  0  0  0
 42116  1  0  0  0
 43 44  1  0  0  0
 44117  1  0  0  0
 45 46  2  0  0  0
 45118  1  0  0  0
 46119  1  0  0  0
 47120  1  0  0  0
 47121  1  0  0  0
 48 56  1  0  0  0
 48 65  1  0  0  0
 48122  1  0  0  0
 49 50  1  0  0  0
 49 53  1  0  0  0
 49 64  1  0  0  0
 49123  1  0  0  0
 50 51  1  0  0  0
 50124  1  0  0  0
 50125  1  0  0  0
 51 52  1  0  0  0
 51126  1  0  0  0
 51127  1  0  0  0
 52128  1  0  0  0
 52129  1  0  0  0
 53 54  1  0  0  0
 54 55  2  0  0  0
 54130  1  0  0  0
 55 57  1  0  0  0
 55131  1  0  0  0
 56 69  2  0  0  0
 57 58  2  0  0  0
 57132  1  0  0  0
 58133  1  0  0  0
 59 60  1  0  0  0
 59 61  1  0  0  0
 59 62  1  0  0  0
 60134  1  0  0  0
 60135  1  0  0  0
 60136  1  0  0  0
 61137  1  0  0  0
 61138  1  0  0  0
 61139  1  0  0  0
 62140  1  0  0  0
 62141  1  0  0  0
 62142  1  0  0  0
 63 65  1  0  0  0
 63143  1  0  0  0
 63144  1  0  0  0
 63145  1  0  0  0
 64146  1  0  0  0
 65147  1  0  0  0
 68 83  1  0  0  0
 71 72  2  0  0  0
 71 75  1  0  0  0
 71148  1  0  0  0
 72 76  1  0  0  0
 72149  1  0  0  0
 73 74  1  0  0  0
 73 75  2  0  0  0
 73150  1  0  0  0
 74 76  2  0  0  0
 74 80  1  0  0  0
 75 85  1  0  0  0
 76 86  1  0  0  0
 77 79  1  0  0  0
 77 85  1  0  0  0
 77 87  2  0  0  0
 78 84  1  0  0  0
 78 85  1  0  0  0
 78 88  2  0  0  0
 79 81  1  0  0  0
 79 83  1  0  0  0
 79 84  1  0  0  0
 80151  1  0  0  0
 80152  1  0  0  0
 80153  1  0  0  0
 81154  1  0  0  0
 81155  1  0  0  0
 81156  1  0  0  0
 82 86  1  0  0  0
 82157  1  0  0  0
 82158  1  0  0  0
 82159  1  0  0  0
 83160  1  0  0  0
 83161  1  0  0  0
 84162  1  0  0  0
M  ISO  4   1 100  68 101  83 101  86 100
M  END
> <chiral flag>
0

> <version>
0

> <s_m_source_file>
/data/baiqing/PycharmProjects/Reinvent-master-3.2/result/LINK_invent/BTK/process_docking_weight1_custom_product_contain_oxygen_bond_distance_aromatic_linkinvent_7_9_3/rearranged_h_0076.sdf

> <i_m_source_file_index>
82

> <r_mmod_Potential_Energy-OPLS-2005>
307.650512695312

> <r_mmod_Stretch_Energy-OPLS-2005>
109.321357727051

> <r_mmod_Bend_Energy-OPLS-2005>
203.773010253906

> <r_mmod_Torsional_Energy-OPLS-2005>
385.530883789062

> <r_mmod_Improper_Torsional_Energy-OPLS-2005>
4.29386186599731

> <r_mmod_Van_der_Waal_Energy-OPLS-2005>
140.898971557617

> <r_mmod_Electrostatic_Energy-OPLS-2005>
-383.464385986328

> <r_mmod_Solvation_Energy-OPLS-2005>
-210.125122070312

> <b_mmod_Minimization_Converged-OPLS-2005>
0

> <r_mmod_RMS_Derivative-OPLS-2005>
3.71333503723145

$$$$
82
                    3D
 Structure written by MMmdl.
160169  0  0  1  0            999 V2000
  -30.7307  -14.5142   20.5668 C   0  0  0  0  0  0
  -30.4099  -12.3355   19.4359 C   0  0  0  0  0  0
  -29.4929  -12.4987   18.2092 C   0  0  0  0  0  0
  -28.0152  -12.3563   18.6229 C   0  0  0  0  0  0
  -27.6496  -13.2213   19.8605 C   0  0  2  0  0  0
  -28.6947  -13.0672   20.9882 C   0  0  0  0  0  0
  -25.2527  -13.8176   20.5696 C   0  0  0  0  0  0
  -24.1803  -13.0424   20.9194 C   0  0  0  0  0  0
  -24.6388  -11.6900   20.8729 C   0  0  0  0  0  0
  -23.9061  -10.4285   21.0394 C   0  0  0  0  0  0
  -24.3621   -9.4200   21.9178 C   0  0  0  0  0  0
  -23.6292   -8.2237   22.0750 C   0  0  0  0  0  0
  -22.4283   -8.0277   21.3541 C   0  0  0  0  0  0
  -21.9905   -9.0247   20.4645 C   0  0  0  0  0  0
  -22.7232  -10.2123   20.3050 C   0  0  0  0  0  0
  -21.6852   -6.0735   22.5287 C   0  0  0  0  0  0
  -21.4015   -6.5642   23.8219 C   0  0  0  0  0  0
  -21.3660   -5.6791   24.9172 C   0  0  0  0  0  0
  -21.6043   -4.3055   24.7226 C   0  0  0  0  0  0
  -21.8823   -3.8149   23.4344 C   0  0  0  0  0  0
  -21.9187   -4.6962   22.3398 C   0  0  0  0  0  0
  -22.7826  -13.5216   21.1855 C   0  0  0  0  0  0
  -22.1664   -4.2146   21.0977 F   0  0  0  0  0  0
  -21.5622   -3.4546   25.7738 F   0  0  0  0  0  0
  -30.0135  -13.3645   20.4149 N   0  0  0  0  0  0
  -26.2968  -12.9385   20.3319 N   0  0  0  0  0  0
  -25.9326  -11.6524   20.5739 N   0  0  0  0  0  0
  -22.0470  -12.8212   22.0406 N   0  0  0  0  0  0
  -25.4221  -15.1904   20.4155 N   0  0  0  0  0  0
  -31.8897  -14.5885   20.1508 O   0  0  0  0  0  0
  -21.6645   -6.8879   21.4246 O   0  0  0  0  0  0
  -22.3517  -14.5511   20.6678 O   0  0  0  0  0  0
  -24.6154  -31.8678   23.2093 C   0  0  0  0  0  0
  -25.9048  -32.4816   23.8396 C   0  0  1  0  0  0
  -27.2278  -27.4101   20.1074 C   0  0  0  0  0  0
  -25.5906  -33.8611   24.2331 N   0  0  0  0  0  0
  -23.4066  -30.4898   21.5492 C   0  0  2  0  0  0
  -24.8566  -28.9539   20.1106 C   0  0  0  0  0  0
  -22.7440  -29.4637   22.4977 C   0  0  0  0  0  0
  -18.0285  -28.1370   22.8493 C   0  0  0  0  0  0
  -24.1489  -36.7302   23.2626 C   0  0  0  0  0  0
  -25.9381  -30.8246   21.3674 C   0  0  0  0  0  0
  -26.0176  -29.4585   20.7134 C   0  0  0  0  0  0
  -27.2109  -28.6929   20.7084 C   0  0  0  0  0  0
  -26.0560  -26.9293   19.4947 C   0  0  0  0  0  0
  -24.8730  -27.6911   19.4935 C   0  0  0  0  0  0
  -23.6171  -29.8216   20.1633 C   0  0  0  0  0  0
  -25.4102  -36.3104   24.0338 C   0  0  1  0  0  0
  -20.5877  -28.3658   23.1303 C   0  0  2  0  0  0
  -20.6760  -26.9375   22.5409 C   0  0  0  0  0  0
  -19.5733  -26.6365   21.5197 C   0  0  0  0  0  0
  -18.1921  -26.7908   22.1633 C   0  0  0  0  0  0
  -19.1539  -28.8831   23.2898 C   0  0  0  0  0  0
  -18.9455  -30.1441   23.8898 C   0  0  0  0  0  0
  -17.6455  -30.6568   24.0547 C   0  0  0  0  0  0
  -25.9041  -34.9473   23.5145 C   0  0  0  0  0  0
  -16.5350  -29.9058   23.6318 C   0  0  0  0  0  0
  -16.7271  -28.6476   23.0339 C   0  0  0  0  0  0
  -26.4458  -31.6587   25.0725 C   0  0  0  0  0  0
  -25.3718  -31.3747   26.1489 C   0  0  0  0  0  0
  -27.0247  -30.3001   24.6121 C   0  0  0  0  0  0
  -27.6063  -32.4274   25.7472 C   0  0  0  0  0  0
  -27.5597  -37.1792   24.8455 C   0  0  0  0  0  0
  -21.4159  -29.3028   22.3722 N   0  0  0  0  0  0
  -26.4287  -37.3799   23.9436 N   0  0  0  0  0  0
  -24.6704  -31.0750   22.1004 N   0  0  0  0  0  0
  -23.4203  -28.8168   23.3005 O   0  0  0  0  0  0
  -28.3369  -26.5901   20.1192 O   0  0  0  0  0  0
  -26.5591  -34.8934   22.4697 O   0  0  0  0  0  0
  -23.5348  -32.1446   23.7470 O   0  0  0  0  0  0
  -29.2425  -20.0825   19.8978 C   0  0  0  0  0  0
  -29.3514  -20.2906   22.2706 C   0  0  0  0  0  0
  -29.9140  -18.1193   21.2362 C   0  0  0  0  0  0
  -29.1266  -20.9371   21.0285 C   0  0  0  0  0  0
  -29.6141  -18.7056   19.9676 C   0  0  0  0  0  0
  -29.7467  -18.9377   22.3812 C   0  0  0  0  0  0
  -28.5979  -24.3341   21.0731 C   0  0  0  0  0  0
  -28.8542  -23.3969   20.0000 C   0  0  0  0  0  0
  -28.3746  -25.6737   21.1534 C   0  0  0  0  0  0
  -30.6415  -16.7861   21.3858 C   0  0  0  0  0  0
  -28.6875  -23.2181   22.1033 C   0  0  0  0  0  0
  -31.9009  -19.1975   17.5932 C   0  0  0  0  0  0
  -28.7997  -22.3434   20.9277 N   0  0  0  0  0  0
  -29.7057  -17.9593   18.7762 N   0  0  0  0  0  0
  -30.0586  -15.6248   20.9789 N   0  0  0  0  0  0
  -29.0986  -23.5491   18.8210 O   0  0  0  0  0  0
  -31.7807  -16.8252   21.8678 O   0  0  0  0  0  0
  -30.5157  -17.1613   16.5058 O   0  0  0  0  0  0
  -29.3548  -19.4276   16.7042 O   0  0  0  0  0  0
  -29.9980  -18.4418   23.6192 F   0  0  0  0  0  0
  -30.2962  -18.4241   17.2256 S   0  0  0  0  0  0
  -31.4563  -12.4080   19.1365 H   0  0  0  0  0  0
  -30.2984  -11.3397   19.8700 H   0  0  0  0  0  0
  -29.7421  -11.7551   17.4494 H   0  0  0  0  0  0
  -29.6593  -13.4753   17.7506 H   0  0  0  0  0  0
  -27.8349  -11.3024   18.8414 H   0  0  0  0  0  0
  -27.3650  -12.6041   17.7837 H   0  0  0  0  0  0
  -27.6719  -14.2588   19.5276 H   0  0  0  0  0  0
  -28.6823  -12.0517   21.3859 H   0  0  0  0  0  0
  -28.4589  -13.7203   21.8298 H   0  0  0  0  0  0
  -25.2766   -9.5671   22.4748 H   0  0  0  0  0  0
  -24.0003   -7.4624   22.7473 H   0  0  0  0  0  0
  -21.0839   -8.8761   19.8954 H   0  0  0  0  0  0
  -22.3700  -10.9656   19.6159 H   0  0  0  0  0  0
  -21.2024   -7.6159   23.9716 H   0  0  0  0  0  0
  -21.1479   -6.0529   25.9074 H   0  0  0  0  0  0
  -22.0601   -2.7610   23.2850 H   0  0  0  0  0  0
  -22.4098  -11.9890   22.4809 H   0  0  0  0  0  0
  -21.1085  -13.1229   22.2597 H   0  0  0  0  0  0
  -24.6498  -15.8376   20.5336 H   0  0  0  0  0  0
  -26.2607  -15.6370   20.0667 H   0  0  0  0  0  0
  -26.7116  -32.5525   23.1154 H   0  0  0  0  0  0
  -25.0083  -33.9769   25.0498 H   0  0  0  0  0  0
  -22.6915  -31.3038   21.4073 H   0  0  0  0  0  0
  -23.3760  -35.9628   23.3273 H   0  0  0  0  0  0
  -24.3587  -36.8937   22.2042 H   0  0  0  0  0  0
  -23.7226  -37.6497   23.6644 H   0  0  0  0  0  0
  -26.0576  -31.5892   20.5982 H   0  0  0  0  0  0
  -26.8214  -30.8729   21.9940 H   0  0  0  0  0  0
  -28.1088  -29.0673   21.1795 H   0  0  0  0  0  0
  -26.0592  -25.9509   19.0341 H   0  0  0  0  0  0
  -23.9810  -27.2947   19.0270 H   0  0  0  0  0  0
  -23.7258  -30.5957   19.4042 H   0  0  0  0  0  0
  -22.7388  -29.2431   19.8678 H   0  0  0  0  0  0
  -25.1264  -36.1965   25.0825 H   0  0  0  0  0  0
  -20.9981  -28.3221   24.1417 H   0  0  0  0  0  0
  -20.5619  -26.2258   23.3609 H   0  0  0  0  0  0
  -21.6637  -26.7384   22.1210 H   0  0  0  0  0  0
  -19.6891  -25.6272   21.1211 H   0  0  0  0  0  0
  -19.6663  -27.3189   20.6725 H   0  0  0  0  0  0
  -17.4178  -26.6660   21.4043 H   0  0  0  0  0  0
  -18.0330  -26.0033   22.9012 H   0  0  0  0  0  0
  -19.7931  -30.7260   24.2259 H   0  0  0  0  0  0
  -17.4997  -31.6238   24.5153 H   0  0  0  0  0  0
  -15.5346  -30.2950   23.7621 H   0  0  0  0  0  0
  -15.8680  -28.0782   22.7049 H   0  0  0  0  0  0
  -24.5873  -30.7090   25.7866 H   0  0  0  0  0  0
  -24.8912  -32.2917   26.4917 H   0  0  0  0  0  0
  -25.8053  -30.8948   27.0273 H   0  0  0  0  0  0
  -26.2792  -29.6806   24.1114 H   0  0  0  0  0  0
  -27.3914  -29.7208   25.4608 H   0  0  0  0  0  0
  -27.8686  -30.4278   23.9335 H   0  0  0  0  0  0
  -27.2728  -33.3601   26.2045 H   0  0  0  0  0  0
  -28.3874  -32.6783   25.0273 H   0  0  0  0  0  0
  -28.0707  -31.8370   26.5391 H   0  0  0  0  0  0
  -28.2582  -38.0127   24.7561 H   0  0  0  0  0  0
  -28.1133  -36.2662   24.6185 H   0  0  0  0  0  0
  -27.2333  -37.1324   25.8863 H   0  0  0  0  0  0
  -20.9321  -29.8769   21.6958 H   0  0  0  0  0  0
  -26.0178  -38.2881   24.1468 H   0  0  0  0  0  0
  -29.0427  -20.5191   18.9297 H   0  0  0  0  0  0
  -29.2648  -20.8521   23.1899 H   0  0  0  0  0  0
  -28.2006  -26.1495   22.1090 H   0  0  0  0  0  0
  -27.8016  -22.9977   22.7006 H   0  0  0  0  0  0
  -29.5850  -23.2045   22.7234 H   0  0  0  0  0  0
  -32.5347  -18.4930   18.1285 H   0  0  0  0  0  0
  -31.7536  -20.0898   18.1953 H   0  0  0  0  0  0
  -32.3834  -19.4732   16.6570 H   0  0  0  0  0  0
  -29.6613  -16.9544   18.8666 H   0  0  0  0  0  0
  -29.0537  -15.5953   20.9564 H   0  0  0  0  0  0
  1 25  1  0  0  0
  1 30  2  0  0  0
  1 85  1  0  0  0
  2  3  1  0  0  0
  2 25  1  0  0  0
  2 92  1  0  0  0
  2 93  1  0  0  0
  3  4  1  0  0  0
  3 94  1  0  0  0
  3 95  1  0  0  0
  4  5  1  0  0  0
  4 96  1  0  0  0
  4 97  1  0  0  0
  5  6  1  0  0  0
  5 26  1  0  0  0
  5 98  1  0  0  0
  6 25  1  0  0  0
  6 99  1  0  0  0
  6100  1  0  0  0
  7  8  2  0  0  0
  7 26  1  0  0  0
  7 29  1  0  0  0
  8  9  1  0  0  0
  8 22  1  0  0  0
  9 10  1  0  0  0
  9 27  2  0  0  0
 10 11  2  0  0  0
 10 15  1  0  0  0
 11 12  1  0  0  0
 11101  1  0  0  0
 12 13  2  0  0  0
 12102  1  0  0  0
 13 14  1  0  0  0
 13 31  1  0  0  0
 14 15  2  0  0  0
 14103  1  0  0  0
 15104  1  0  0  0
 16 17  2  0  0  0
 16 21  1  0  0  0
 16 31  1  0  0  0
 17 18  1  0  0  0
 17105  1  0  0  0
 18 19  2  0  0  0
 18106  1  0  0  0
 19 20  1  0  0  0
 19 24  1  0  0  0
 20 21  2  0  0  0
 20107  1  0  0  0
 21 23  1  0  0  0
 22 28  1  0  0  0
 22 32  2  0  0  0
 26 27  1  0  0  0
 28108  1  0  0  0
 28109  1  0  0  0
 29110  1  0  0  0
 29111  1  0  0  0
 33 34  1  0  0  0
 33 66  1  0  0  0
 33 70  2  0  0  0
 34 36  1  0  0  0
 34 59  1  0  0  0
 34112  1  0  0  0
 35 44  2  0  0  0
 35 45  1  0  0  0
 35 68  1  0  0  0
 36 56  1  0  0  0
 36113  1  0  0  0
 37 39  1  0  0  0
 37 47  1  0  0  0
 37 66  1  0  0  0
 37114  1  0  0  0
 38 43  2  0  0  0
 38 46  1  0  0  0
 38 47  1  0  0  0
 39 64  1  0  0  0
 39 67  2  0  0  0
 40 52  1  0  0  0
 40 53  2  0  0  0
 40 58  1  0  0  0
 41115  1  0  0  0
 41116  1  0  0  0
 41117  1  0  0  0
 41 48  1  0  0  0
 42 43  1  0  0  0
 42 66  1  0  0  0
 42118  1  0  0  0
 42119  1  0  0  0
 43 44  1  0  0  0
 44120  1  0  0  0
 45 46  2  0  0  0
 45121  1  0  0  0
 46122  1  0  0  0
 47123  1  0  0  0
 47124  1  0  0  0
 48 56  1  0  0  0
 48 65  1  0  0  0
 48125  1  0  0  0
 49 50  1  0  0  0
 49 53  1  0  0  0
 49 64  1  0  0  0
 49126  1  0  0  0
 50 51  1  0  0  0
 50127  1  0  0  0
 50128  1  0  0  0
 51 52  1  0  0  0
 51129  1  0  0  0
 51130  1  0  0  0
 52131  1  0  0  0
 52132  1  0  0  0
 53 54  1  0  0  0
 54 55  2  0  0  0
 54133  1  0  0  0
 55 57  1  0  0  0
 55134  1  0  0  0
 56 69  2  0  0  0
 57 58  2  0  0  0
 57135  1  0  0  0
 58136  1  0  0  0
 59 60  1  0  0  0
 59 61  1  0  0  0
 59 62  1  0  0  0
 60137  1  0  0  0
 60138  1  0  0  0
 60139  1  0  0  0
 61140  1  0  0  0
 61141  1  0  0  0
 61142  1  0  0  0
 62143  1  0  0  0
 62144  1  0  0  0
 62145  1  0  0  0
 63 65  1  0  0  0
 63146  1  0  0  0
 63147  1  0  0  0
 63148  1  0  0  0
 64149  1  0  0  0
 65150  1  0  0  0
 68 79  1  0  0  0
 71 74  2  0  0  0
 71 75  1  0  0  0
 71151  1  0  0  0
 72 74  1  0  0  0
 72 76  2  0  0  0
 72152  1  0  0  0
 73 75  2  0  0  0
 73 76  1  0  0  0
 73 80  1  0  0  0
 74 83  1  0  0  0
 75 84  1  0  0  0
 76 90  1  0  0  0
 77 78  1  0  0  0
 77 79  2  0  0  0
 77 81  1  0  0  0
 78 83  1  0  0  0
 78 86  2  0  0  0
 79153  1  0  0  0
 80 85  1  0  0  0
 80 87  2  0  0  0
 81 83  1  0  0  0
 81154  1  0  0  0
 81155  1  0  0  0
 82156  1  0  0  0
 82157  1  0  0  0
 82158  1  0  0  0
 82 91  1  0  0  0
 84 91  1  0  0  0
 84159  1  0  0  0
 85160  1  0  0  0
 88 91  2  0  0  0
 89 91  2  0  0  0
M  ISO  4   1 100  68 101  79 101  85 100
M  END
> <chiral flag>
0

> <version>
0

> <s_m_source_file>
/data/baiqing/PycharmProjects/Reinvent-master-3.2/result/LINK_invent/BTK/process_docking_weight1_custom_product_contain_oxygen_bond_distance_aromatic_linkinvent_7_9_3/rearranged_h_0076.sdf

> <i_m_source_file_index>
83

> <r_mmod_Potential_Energy-OPLS-2005>
-104.330749511719

> <r_mmod_Stretch_Energy-OPLS-2005>
48.4579887390137

> <r_mmod_Bend_Energy-OPLS-2005>
189.986373901367

> <r_mmod_Torsional_Energy-OPLS-2005>
279.389404296875

> <r_mmod_Improper_Torsional_Energy-OPLS-2005>
8.57961559295654

> <r_mmod_Van_der_Waal_Energy-OPLS-2005>
135.320709228516

> <r_mmod_Electrostatic_Energy-OPLS-2005>
-508.283996582031

> <r_mmod_Solvation_Energy-OPLS-2005>
-281.279052734375

> <b_mmod_Minimization_Converged-OPLS-2005>
0

> <r_mmod_RMS_Derivative-OPLS-2005>
3.026775598526

$$$$
83
                    3D
 Structure written by MMmdl.
154162  0  0  1  0            999 V2000
  -30.6074  -14.7774   20.4561 C   0  0  0  0  0  0
  -30.4350  -12.4807   19.4674 C   0  0  0  0  0  0
  -29.5097  -12.5098   18.2320 C   0  0  0  0  0  0
  -28.0385  -12.3254   18.6500 C   0  0  0  0  0  0
  -27.6384  -13.2340   19.8428 C   0  0  2  0  0  0
  -28.6853  -13.1903   20.9763 C   0  0  0  0  0  0
  -25.2501  -13.8201   20.5688 C   0  0  0  0  0  0
  -24.1804  -13.0438   20.9216 C   0  0  0  0  0  0
  -24.6403  -11.6918   20.8753 C   0  0  0  0  0  0
  -23.9085  -10.4288   21.0412 C   0  0  0  0  0  0
  -24.3632   -9.4200   21.9186 C   0  0  0  0  0  0
  -23.6298   -8.2242   22.0757 C   0  0  0  0  0  0
  -22.4281   -8.0283   21.3543 C   0  0  0  0  0  0
  -21.9924   -9.0263   20.4646 C   0  0  0  0  0  0
  -22.7265  -10.2136   20.3054 C   0  0  0  0  0  0
  -21.6853   -6.0741   22.5277 C   0  0  0  0  0  0
  -21.4017   -6.5645   23.8213 C   0  0  0  0  0  0
  -21.3656   -5.6795   24.9176 C   0  0  0  0  0  0
  -21.6044   -4.3058   24.7226 C   0  0  0  0  0  0
  -21.8818   -3.8151   23.4348 C   0  0  0  0  0  0
  -21.9196   -4.6968   22.3404 C   0  0  0  0  0  0
  -22.7821  -13.5212   21.1868 C   0  0  0  0  0  0
  -22.1661   -4.2151   21.0979 F   0  0  0  0  0  0
  -21.5627   -3.4539   25.7739 F   0  0  0  0  0  0
  -29.9790  -13.5513   20.3850 N   0  0  0  0  0  0
  -26.2927  -12.9412   20.3252 N   0  0  0  0  0  0
  -25.9329  -11.6552   20.5743 N   0  0  0  0  0  0
  -22.0470  -12.8194   22.0416 N   0  0  0  0  0  0
  -25.4163  -15.1929   20.4092 N   0  0  0  0  0  0
  -31.8069  -14.8485   20.1750 O   0  0  0  0  0  0
  -21.6641   -6.8886   21.4240 O   0  0  0  0  0  0
  -22.3500  -14.5517   20.6721 O   0  0  0  0  0  0
  -24.6323  -31.8543   23.1948 C   0  0  0  0  0  0
  -25.9142  -32.4751   23.8295 C   0  0  1  0  0  0
  -27.2203  -27.2524   20.1386 C   0  0  0  0  0  0
  -25.5933  -33.8545   24.2229 N   0  0  0  0  0  0
  -23.4305  -30.4753   21.5377 C   0  0  2  0  0  0
  -24.8783  -28.9125   20.1161 C   0  0  0  0  0  0
  -22.7509  -29.4609   22.4891 C   0  0  0  0  0  0
  -18.0293  -28.1408   22.8492 C   0  0  0  0  0  0
  -24.1485  -36.7289   23.2636 C   0  0  0  0  0  0
  -25.9751  -30.7660   21.3714 C   0  0  0  0  0  0
  -26.0508  -29.3817   20.7253 C   0  0  0  0  0  0
  -27.2288  -28.5637   20.7267 C   0  0  0  0  0  0
  -26.0264  -26.8464   19.5111 C   0  0  0  0  0  0
  -24.8703  -27.6511   19.4987 C   0  0  0  0  0  0
  -23.6513  -29.8029   20.1565 C   0  0  0  0  0  0
  -25.4109  -36.3060   24.0317 C   0  0  1  0  0  0
  -20.5900  -28.3714   23.1267 C   0  0  2  0  0  0
  -20.6788  -26.9429   22.5404 C   0  0  0  0  0  0
  -19.5752  -26.6404   21.5220 C   0  0  0  0  0  0
  -18.1932  -26.7955   22.1628 C   0  0  0  0  0  0
  -19.1549  -28.8880   23.2881 C   0  0  0  0  0  0
  -18.9467  -30.1484   23.8897 C   0  0  0  0  0  0
  -17.6466  -30.6608   24.0571 C   0  0  0  0  0  0
  -25.9054  -34.9437   23.5077 C   0  0  0  0  0  0
  -16.5359  -29.9103   23.6337 C   0  0  0  0  0  0
  -16.7283  -28.6525   23.0356 C   0  0  0  0  0  0
  -26.4505  -31.6578   25.0687 C   0  0  0  0  0  0
  -25.3732  -31.3735   26.1409 C   0  0  0  0  0  0
  -27.0338  -30.2989   24.6162 C   0  0  0  0  0  0
  -27.6043  -32.4318   25.7484 C   0  0  0  0  0  0
  -27.5571  -37.1804   24.8459 C   0  0  0  0  0  0
  -21.4213  -29.3065   22.3653 N   0  0  0  0  0  0
  -26.4285  -37.3761   23.9402 N   0  0  0  0  0  0
  -24.6988  -31.0506   22.0917 N   0  0  0  0  0  0
  -23.4197  -28.8154   23.3008 O   0  0  0  0  0  0
  -28.2942  -26.3358   20.1066 O   0  0  0  0  0  0
  -26.5626  -34.8921   22.4647 O   0  0  0  0  0  0
  -23.5479  -32.1359   23.7261 O   0  0  0  0  0  0
  -31.8602  -19.0586   21.4110 C   0  0  0  0  0  0
  -31.4669  -17.7158   21.2343 C   0  0  0  0  0  0
  -31.0106  -20.1324   21.0794 C   0  0  0  0  0  0
  -30.1986  -17.3763   20.7103 C   0  0  0  0  0  0
  -29.7179  -19.9186   20.5577 C   0  0  0  0  0  0
  -29.3309  -18.5121   20.3828 C   0  0  0  0  0  0
  -28.5756  -23.8144   20.5881 C   0  0  0  0  0  0
  -28.2339  -25.1507   20.8942 C   0  0  0  0  0  0
  -27.4513  -21.8219   21.9561 C   0  0  0  0  0  0
  -28.6780  -22.2679   21.1183 C   0  0  1  0  0  0
  -27.5350  -21.9261   23.2742 N   0  0  0  0  0  0
  -29.8282  -15.9291   20.5857 N   0  0  0  0  0  0
  -28.9390  -21.0962   20.1830 N   0  0  0  0  0  0
  -26.4411  -21.3887   21.4048 O   0  0  0  0  0  0
  -28.0994  -18.2466   19.8810 F   0  0  0  0  0  0
  -31.4722  -12.6164   19.1572 H   0  0  0  0  0  0
  -30.3962  -11.5091   19.9619 H   0  0  0  0  0  0
  -29.7985  -11.7324   17.5236 H   0  0  0  0  0  0
  -29.6262  -13.4598   17.7090 H   0  0  0  0  0  0
  -27.9065  -11.2786   18.9247 H   0  0  0  0  0  0
  -27.3782  -12.5024   17.8006 H   0  0  0  0  0  0
  -27.6235  -14.2500   19.4489 H   0  0  0  0  0  0
  -28.7319  -12.2001   21.4302 H   0  0  0  0  0  0
  -28.4179  -13.8837   21.7750 H   0  0  0  0  0  0
  -25.2780   -9.5676   22.4757 H   0  0  0  0  0  0
  -24.0009   -7.4636   22.7474 H   0  0  0  0  0  0
  -21.0857   -8.8786   19.8948 H   0  0  0  0  0  0
  -22.3728  -10.9675   19.6155 H   0  0  0  0  0  0
  -21.2006   -7.6151   23.9717 H   0  0  0  0  0  0
  -21.1475   -6.0524   25.9077 H   0  0  0  0  0  0
  -22.0600   -2.7613   23.2847 H   0  0  0  0  0  0
  -22.4095  -11.9852   22.4794 H   0  0  0  0  0  0
  -21.1080  -13.1201   22.2614 H   0  0  0  0  0  0
  -24.6446  -15.8411   20.5232 H   0  0  0  0  0  0
  -26.2540  -15.6391   20.0593 H   0  0  0  0  0  0
  -26.7209  -32.5399   23.1040 H   0  0  0  0  0  0
  -25.0089  -33.9664   25.0384 H   0  0  0  0  0  0
  -22.7286  -31.2990   21.3884 H   0  0  0  0  0  0
  -23.3744  -35.9626   23.3290 H   0  0  0  0  0  0
  -24.3586  -36.8912   22.2051 H   0  0  0  0  0  0
  -23.7239  -37.6487   23.6675 H   0  0  0  0  0  0
  -26.1074  -31.5189   20.5924 H   0  0  0  0  0  0
  -26.8557  -30.8257   21.9991 H   0  0  0  0  0  0
  -28.1300  -28.9192   21.2062 H   0  0  0  0  0  0
  -25.9860  -25.8733   19.0401 H   0  0  0  0  0  0
  -23.9719  -27.2840   19.0213 H   0  0  0  0  0  0
  -23.7808  -30.5749   19.3971 H   0  0  0  0  0  0
  -22.7694  -29.2369   19.8509 H   0  0  0  0  0  0
  -25.1305  -36.1900   25.0812 H   0  0  0  0  0  0
  -21.0000  -28.3286   24.1387 H   0  0  0  0  0  0
  -20.5702  -26.2318   23.3606 H   0  0  0  0  0  0
  -21.6653  -26.7471   22.1187 H   0  0  0  0  0  0
  -19.6892  -25.6313   21.1244 H   0  0  0  0  0  0
  -19.6685  -27.3225   20.6755 H   0  0  0  0  0  0
  -17.4208  -26.6725   21.4017 H   0  0  0  0  0  0
  -18.0317  -26.0104   22.9033 H   0  0  0  0  0  0
  -19.7942  -30.7314   24.2252 H   0  0  0  0  0  0
  -17.5019  -31.6276   24.5190 H   0  0  0  0  0  0
  -15.5356  -30.3007   23.7666 H   0  0  0  0  0  0
  -15.8687  -28.0851   22.7053 H   0  0  0  0  0  0
  -24.5935  -30.7042   25.7758 H   0  0  0  0  0  0
  -24.8907  -32.2910   26.4783 H   0  0  0  0  0  0
  -25.8068  -30.8971   27.0210 H   0  0  0  0  0  0
  -26.2904  -29.6735   24.1197 H   0  0  0  0  0  0
  -27.4028  -29.7245   25.4669 H   0  0  0  0  0  0
  -27.8780  -30.4254   23.9376 H   0  0  0  0  0  0
  -27.2641  -33.3638   26.2013 H   0  0  0  0  0  0
  -28.3896  -32.6838   25.0346 H   0  0  0  0  0  0
  -28.0662  -31.8467   26.5447 H   0  0  0  0  0  0
  -28.2590  -38.0105   24.7522 H   0  0  0  0  0  0
  -28.1071  -36.2635   24.6282 H   0  0  0  0  0  0
  -27.2302  -37.1442   25.8868 H   0  0  0  0  0  0
  -20.9403  -29.8795   21.6864 H   0  0  0  0  0  0
  -26.0149  -38.2828   24.1428 H   0  0  0  0  0  0
  -32.8438  -19.2728   21.8046 H   0  0  0  0  0  0
  -32.1679  -16.9468   21.5239 H   0  0  0  0  0  0
  -31.3858  -21.1374   21.2075 H   0  0  0  0  0  0
  -28.4587  -23.8396   21.6528 H   0  0  0  0  0  0
  -27.8812  -25.4879   21.8741 H   0  0  0  0  0  0
  -29.5357  -22.2547   21.7984 H   0  0  0  0  0  0
  -28.3810  -22.2682   23.7081 H   0  0  0  0  0  0
  -26.7635  -21.6427   23.8610 H   0  0  0  0  0  0
  -28.8354  -15.7548   20.5801 H   0  0  0  0  0  0
  -28.0532  -20.8044   19.7743 H   0  0  0  0  0  0
  1 25  1  0  0  0
  1 30  2  0  0  0
  1 82  1  0  0  0
  2  3  1  0  0  0
  2 25  1  0  0  0
  2 86  1  0  0  0
  2 87  1  0  0  0
  3  4  1  0  0  0
  3 88  1  0  0  0
  3 89  1  0  0  0
  4  5  1  0  0  0
  4 90  1  0  0  0
  4 91  1  0  0  0
  5  6  1  0  0  0
  5 26  1  0  0  0
  5 92  1  0  0  0
  6 25  1  0  0  0
  6 93  1  0  0  0
  6 94  1  0  0  0
  7  8  2  0  0  0
  7 26  1  0  0  0
  7 29  1  0  0  0
  8  9  1  0  0  0
  8 22  1  0  0  0
  9 10  1  0  0  0
  9 27  2  0  0  0
 10 11  2  0  0  0
 10 15  1  0  0  0
 11 12  1  0  0  0
 11 95  1  0  0  0
 12 13  2  0  0  0
 12 96  1  0  0  0
 13 14  1  0  0  0
 13 31  1  0  0  0
 14 15  2  0  0  0
 14 97  1  0  0  0
 15 98  1  0  0  0
 16 17  2  0  0  0
 16 21  1  0  0  0
 16 31  1  0  0  0
 17 18  1  0  0  0
 17 99  1  0  0  0
 18 19  2  0  0  0
 18100  1  0  0  0
 19 20  1  0  0  0
 19 24  1  0  0  0
 20 21  2  0  0  0
 20101  1  0  0  0
 21 23  1  0  0  0
 22 28  1  0  0  0
 22 32  2  0  0  0
 26 27  1  0  0  0
 28102  1  0  0  0
 28103  1  0  0  0
 29104  1  0  0  0
 29105  1  0  0  0
 33 34  1  0  0  0
 33 66  1  0  0  0
 33 70  2  0  0  0
 34 36  1  0  0  0
 34 59  1  0  0  0
 34106  1  0  0  0
 35 44  2  0  0  0
 35 45  1  0  0  0
 35 68  1  0  0  0
 36 56  1  0  0  0
 36107  1  0  0  0
 37 39  1  0  0  0
 37 47  1  0  0  0
 37 66  1  0  0  0
 37108  1  0  0  0
 38 43  2  0  0  0
 38 46  1  0  0  0
 38 47  1  0  0  0
 39 64  1  0  0  0
 39 67  2  0  0  0
 40 52  1  0  0  0
 40 53  2  0  0  0
 40 58  1  0  0  0
 41109  1  0  0  0
 41110  1  0  0  0
 41111  1  0  0  0
 41 48  1  0  0  0
 42 43  1  0  0  0
 42 66  1  0  0  0
 42112  1  0  0  0
 42113  1  0  0  0
 43 44  1  0  0  0
 44114  1  0  0  0
 45 46  2  0  0  0
 45115  1  0  0  0
 46116  1  0  0  0
 47117  1  0  0  0
 47118  1  0  0  0
 48 56  1  0  0  0
 48 65  1  0  0  0
 48119  1  0  0  0
 49 50  1  0  0  0
 49 53  1  0  0  0
 49 64  1  0  0  0
 49120  1  0  0  0
 50 51  1  0  0  0
 50121  1  0  0  0
 50122  1  0  0  0
 51 52  1  0  0  0
 51123  1  0  0  0
 51124  1  0  0  0
 52125  1  0  0  0
 52126  1  0  0  0
 53 54  1  0  0  0
 54 55  2  0  0  0
 54127  1  0  0  0
 55 57  1  0  0  0
 55128  1  0  0  0
 56 69  2  0  0  0
 57 58  2  0  0  0
 57129  1  0  0  0
 58130  1  0  0  0
 59 60  1  0  0  0
 59 61  1  0  0  0
 59 62  1  0  0  0
 60131  1  0  0  0
 60132  1  0  0  0
 60133  1  0  0  0
 61134  1  0  0  0
 61135  1  0  0  0
 61136  1  0  0  0
 62137  1  0  0  0
 62138  1  0  0  0
 62139  1  0  0  0
 63 65  1  0  0  0
 63140  1  0  0  0
 63141  1  0  0  0
 63142  1  0  0  0
 64143  1  0  0  0
 65144  1  0  0  0
 68 78  1  0  0  0
 71 72  2  0  0  0
 71 73  1  0  0  0
 71145  1  0  0  0
 72 74  1  0  0  0
 72146  1  0  0  0
 73 75  2  0  0  0
 73147  1  0  0  0
 74 76  2  0  0  0
 74 82  1  0  0  0
 75 76  1  0  0  0
 75 83  1  0  0  0
 76 85  1  0  0  0
 77 78  2  0  0  0
 77 80  1  0  0  0
 77148  1  0  0  0
 78149  1  0  0  0
 79 80  1  0  0  0
 79 81  1  0  0  0
 79 84  2  0  0  0
 80 83  1  0  0  0
 80150  1  0  0  0
 81151  1  0  0  0
 81152  1  0  0  0
 82153  1  0  0  0
 83154  1  0  0  0
M  ISO  4   1 100  68 101  78 101  82 100
M  END
> <chiral flag>
0

> <version>
0

> <s_m_source_file>
/data/baiqing/PycharmProjects/Reinvent-master-3.2/result/LINK_invent/BTK/process_docking_weight1_custom_product_contain_oxygen_bond_distance_aromatic_linkinvent_7_9_3/rearranged_h_0076.sdf

> <i_m_source_file_index>
84

> <r_mmod_Potential_Energy-OPLS-2005>
272.661193847656

> <r_mmod_Stretch_Energy-OPLS-2005>
144.805618286133

> <r_mmod_Bend_Energy-OPLS-2005>
394.847106933594

> <r_mmod_Torsional_Energy-OPLS-2005>
231.95149230957

> <r_mmod_Improper_Torsional_Energy-OPLS-2005>
13.0445976257324

> <r_mmod_Van_der_Waal_Energy-OPLS-2005>
159.149261474609

> <r_mmod_Electrostatic_Energy-OPLS-2005>
-523.786865234375

> <r_mmod_Solvation_Energy-OPLS-2005>
-243.808837890625

> <b_mmod_Minimization_Converged-OPLS-2005>
0

> <r_mmod_RMS_Derivative-OPLS-2005>
1.67087137699127

$$$$
84
                    3D
 Structure written by MMmdl.
154162  0  0  1  0            999 V2000
  -30.6134  -14.6513   20.4881 C   0  0  0  0  0  0
  -30.4380  -12.3970   19.4546 C   0  0  0  0  0  0
  -29.5067  -12.5025   18.2255 C   0  0  0  0  0  0
  -28.0300  -12.3403   18.6382 C   0  0  0  0  0  0
  -27.6521  -13.2147   19.8627 C   0  0  2  0  0  0
  -28.6974  -13.0757   20.9930 C   0  0  0  0  0  0
  -25.2565  -13.8166   20.5689 C   0  0  0  0  0  0
  -24.1831  -13.0437   20.9200 C   0  0  0  0  0  0
  -24.6393  -11.6905   20.8750 C   0  0  0  0  0  0
  -23.9061  -10.4290   21.0411 C   0  0  0  0  0  0
  -24.3613   -9.4207   21.9188 C   0  0  0  0  0  0
  -23.6290   -8.2244   22.0757 C   0  0  0  0  0  0
  -22.4275   -8.0279   21.3543 C   0  0  0  0  0  0
  -21.9908   -9.0254   20.4648 C   0  0  0  0  0  0
  -22.7235  -10.2137   20.3060 C   0  0  0  0  0  0
  -21.6852   -6.0736   22.5276 C   0  0  0  0  0  0
  -21.4013   -6.5643   23.8211 C   0  0  0  0  0  0
  -21.3660   -5.6795   24.9173 C   0  0  0  0  0  0
  -21.6045   -4.3056   24.7223 C   0  0  0  0  0  0
  -21.8819   -3.8149   23.4345 C   0  0  0  0  0  0
  -21.9194   -4.6965   22.3400 C   0  0  0  0  0  0
  -22.7855  -13.5235   21.1860 C   0  0  0  0  0  0
  -22.1663   -4.2152   21.0976 F   0  0  0  0  0  0
  -21.5631   -3.4539   25.7738 F   0  0  0  0  0  0
  -30.0104  -13.4214   20.4279 N   0  0  0  0  0  0
  -26.2984  -12.9339   20.3316 N   0  0  0  0  0  0
  -25.9317  -11.6499   20.5765 N   0  0  0  0  0  0
  -22.0494  -12.8226   22.0412 N   0  0  0  0  0  0
  -25.4282  -15.1886   20.4081 N   0  0  0  0  0  0
  -31.7803  -14.8040   20.1148 O   0  0  0  0  0  0
  -21.6640   -6.8878   21.4239 O   0  0  0  0  0  0
  -22.3544  -14.5544   20.6709 O   0  0  0  0  0  0
  -24.6263  -31.8592   23.2030 C   0  0  0  0  0  0
  -25.9117  -32.4774   23.8349 C   0  0  1  0  0  0
  -27.2242  -27.3169   20.1153 C   0  0  0  0  0  0
  -25.5937  -33.8574   24.2279 N   0  0  0  0  0  0
  -23.4199  -30.4825   21.5454 C   0  0  2  0  0  0
  -24.8663  -28.9372   20.1108 C   0  0  0  0  0  0
  -22.7479  -29.4615   22.4944 C   0  0  0  0  0  0
  -18.0289  -28.1369   22.8481 C   0  0  0  0  0  0
  -24.1492  -36.7289   23.2640 C   0  0  0  0  0  0
  -25.9612  -30.7887   21.3750 C   0  0  0  0  0  0
  -26.0352  -29.4162   20.7159 C   0  0  0  0  0  0
  -27.2170  -28.6173   20.7087 C   0  0  0  0  0  0
  -26.0325  -26.8918   19.4837 C   0  0  0  0  0  0
  -24.8669  -27.6808   19.4866 C   0  0  0  0  0  0
  -23.6347  -29.8177   20.1600 C   0  0  0  0  0  0
  -25.4113  -36.3078   24.0327 C   0  0  1  0  0  0
  -20.5887  -28.3675   23.1284 C   0  0  2  0  0  0
  -20.6779  -26.9396   22.5409 C   0  0  0  0  0  0
  -19.5755  -26.6373   21.5208 C   0  0  0  0  0  0
  -18.1935  -26.7913   22.1618 C   0  0  0  0  0  0
  -19.1539  -28.8843   23.2877 C   0  0  0  0  0  0
  -18.9464  -30.1448   23.8884 C   0  0  0  0  0  0
  -17.6465  -30.6578   24.0556 C   0  0  0  0  0  0
  -25.9051  -34.9449   23.5100 C   0  0  0  0  0  0
  -16.5357  -29.9069   23.6331 C   0  0  0  0  0  0
  -16.7277  -28.6489   23.0345 C   0  0  0  0  0  0
  -26.4501  -31.6587   25.0721 C   0  0  0  0  0  0
  -25.3729  -31.3728   26.1450 C   0  0  0  0  0  0
  -27.0353  -30.3012   24.6177 C   0  0  0  0  0  0
  -27.6056  -32.4327   25.7492 C   0  0  0  0  0  0
  -27.5577  -37.1802   24.8466 C   0  0  0  0  0  0
  -21.4192  -29.3033   22.3687 N   0  0  0  0  0  0
  -26.4293  -37.3771   23.9405 N   0  0  0  0  0  0
  -24.6875  -31.0603   22.0981 N   0  0  0  0  0  0
  -23.4204  -28.8156   23.3021 O   0  0  0  0  0  0
  -28.3442  -26.4719   20.1686 O   0  0  0  0  0  0
  -26.5618  -34.8918   22.4666 O   0  0  0  0  0  0
  -23.5428  -32.1395   23.7364 O   0  0  0  0  0  0
  -31.0469  -19.2597   19.9841 C   0  0  0  0  0  0
  -31.0188  -17.8391   20.1037 C   0  0  0  0  0  0
  -28.8127  -18.0025   21.0343 C   0  0  0  0  0  0
  -29.9736  -20.1079   20.3913 C   0  0  0  0  0  0
  -29.8992  -17.1608   20.6490 C   0  0  0  0  0  0
  -28.8402  -19.4305   20.9168 C   0  0  0  0  0  0
  -30.1571  -21.6471   20.3537 C   0  0  0  0  0  0
  -29.5554  -24.3602   22.0525 C   0  0  0  0  0  0
  -28.1436  -25.0072   20.0326 C   0  0  0  0  0  0
  -29.2993  -24.0541   20.5670 C   0  0  2  0  0  0
  -29.7946  -15.7037   20.8201 N   0  0  0  0  0  0
  -29.1283  -22.5535   20.4030 N   0  0  0  0  0  0
  -31.3140  -22.0685   20.2644 O   0  0  0  0  0  0
  -27.7636  -20.1413   21.3333 F   0  0  0  0  0  0
  -31.4784  -12.5244   19.1515 H   0  0  0  0  0  0
  -30.3769  -11.4033   19.9012 H   0  0  0  0  0  0
  -29.7717  -11.7452   17.4864 H   0  0  0  0  0  0
  -29.6470  -13.4682   17.7369 H   0  0  0  0  0  0
  -27.8696  -11.2879   18.8754 H   0  0  0  0  0  0
  -27.3738  -12.5652   17.7962 H   0  0  0  0  0  0
  -27.6682  -14.2481   19.5161 H   0  0  0  0  0  0
  -28.7126  -12.0556   21.3797 H   0  0  0  0  0  0
  -28.4420  -13.7110   21.8421 H   0  0  0  0  0  0
  -25.2758   -9.5690   22.4762 H   0  0  0  0  0  0
  -24.0004   -7.4637   22.7476 H   0  0  0  0  0  0
  -21.0841   -8.8772   19.8951 H   0  0  0  0  0  0
  -22.3690  -10.9678   19.6173 H   0  0  0  0  0  0
  -21.2002   -7.6151   23.9715 H   0  0  0  0  0  0
  -21.1482   -6.0525   25.9077 H   0  0  0  0  0  0
  -22.0598   -2.7611   23.2842 H   0  0  0  0  0  0
  -22.4109  -11.9881   22.4790 H   0  0  0  0  0  0
  -21.1116  -13.1259   22.2623 H   0  0  0  0  0  0
  -24.6556  -15.8385   20.5042 H   0  0  0  0  0  0
  -26.2636  -15.6213   20.0361 H   0  0  0  0  0  0
  -26.7181  -32.5445   23.1091 H   0  0  0  0  0  0
  -25.0092  -33.9714   25.0430 H   0  0  0  0  0  0
  -22.7128  -31.3023   21.4022 H   0  0  0  0  0  0
  -23.3755  -35.9626   23.3310 H   0  0  0  0  0  0
  -24.3586  -36.8904   22.2057 H   0  0  0  0  0  0
  -23.7252  -37.6493   23.6658 H   0  0  0  0  0  0
  -26.0938  -31.5541   20.6093 H   0  0  0  0  0  0
  -26.8409  -30.8354   22.0052 H   0  0  0  0  0  0
  -28.1133  -28.9786   21.1937 H   0  0  0  0  0  0
  -25.9762  -25.9338   18.9882 H   0  0  0  0  0  0
  -23.9711  -27.3100   19.0076 H   0  0  0  0  0  0
  -23.7555  -30.5950   19.4041 H   0  0  0  0  0  0
  -22.7548  -29.2470   19.8580 H   0  0  0  0  0  0
  -25.1296  -36.1925   25.0819 H   0  0  0  0  0  0
  -20.9973  -28.3252   24.1404 H   0  0  0  0  0  0
  -20.5693  -26.2274   23.3605 H   0  0  0  0  0  0
  -21.6646  -26.7435   22.1192 H   0  0  0  0  0  0
  -19.6923  -25.6285   21.1232 H   0  0  0  0  0  0
  -19.6699  -27.3192   20.6744 H   0  0  0  0  0  0
  -17.4205  -26.6663   21.4021 H   0  0  0  0  0  0
  -18.0337  -26.0051   22.9009 H   0  0  0  0  0  0
  -19.7947  -30.7261   24.2245 H   0  0  0  0  0  0
  -17.5024  -31.6260   24.5158 H   0  0  0  0  0  0
  -15.5357  -30.2964   23.7667 H   0  0  0  0  0  0
  -15.8675  -28.0815   22.7045 H   0  0  0  0  0  0
  -24.5897  -30.7082   25.7781 H   0  0  0  0  0  0
  -24.8929  -32.2902   26.4867 H   0  0  0  0  0  0
  -25.8054  -30.8909   27.0225 H   0  0  0  0  0  0
  -26.2932  -29.6757   24.1202 H   0  0  0  0  0  0
  -27.4061  -29.7271   25.4677 H   0  0  0  0  0  0
  -27.8792  -30.4308   23.9396 H   0  0  0  0  0  0
  -27.2658  -33.3624   26.2063 H   0  0  0  0  0  0
  -28.3868  -32.6894   25.0324 H   0  0  0  0  0  0
  -28.0718  -31.8456   26.5413 H   0  0  0  0  0  0
  -28.2593  -38.0099   24.7502 H   0  0  0  0  0  0
  -28.1075  -36.2628   24.6303 H   0  0  0  0  0  0
  -27.2296  -37.1459   25.8871 H   0  0  0  0  0  0
  -20.9371  -29.8748   21.6892 H   0  0  0  0  0  0
  -26.0175  -38.2844   24.1406 H   0  0  0  0  0  0
  -31.9454  -19.7094   19.5849 H   0  0  0  0  0  0
  -31.8867  -17.2850   19.7758 H   0  0  0  0  0  0
  -27.9222  -17.5539   21.4495 H   0  0  0  0  0  0
  -29.7543  -25.4214   22.2047 H   0  0  0  0  0  0
  -30.4184  -23.8132   22.4328 H   0  0  0  0  0  0
  -28.6934  -24.0954   22.6655 H   0  0  0  0  0  0
  -27.2264  -24.7252   20.5530 H   0  0  0  0  0  0
  -27.9808  -24.7885   18.9764 H   0  0  0  0  0  0
  -30.1958  -24.3410   20.0152 H   0  0  0  0  0  0
  -28.8969  -15.3894   21.1553 H   0  0  0  0  0  0
  -28.1910  -22.1757   20.4567 H   0  0  0  0  0  0
  1 25  1  0  0  0
  1 30  2  0  0  0
  1 81  1  0  0  0
  2  3  1  0  0  0
  2 25  1  0  0  0
  2 85  1  0  0  0
  2 86  1  0  0  0
  3  4  1  0  0  0
  3 87  1  0  0  0
  3 88  1  0  0  0
  4  5  1  0  0  0
  4 89  1  0  0  0
  4 90  1  0  0  0
  5  6  1  0  0  0
  5 26  1  0  0  0
  5 91  1  0  0  0
  6 25  1  0  0  0
  6 92  1  0  0  0
  6 93  1  0  0  0
  7  8  2  0  0  0
  7 26  1  0  0  0
  7 29  1  0  0  0
  8  9  1  0  0  0
  8 22  1  0  0  0
  9 10  1  0  0  0
  9 27  2  0  0  0
 10 11  2  0  0  0
 10 15  1  0  0  0
 11 12  1  0  0  0
 11 94  1  0  0  0
 12 13  2  0  0  0
 12 95  1  0  0  0
 13 14  1  0  0  0
 13 31  1  0  0  0
 14 15  2  0  0  0
 14 96  1  0  0  0
 15 97  1  0  0  0
 16 17  2  0  0  0
 16 21  1  0  0  0
 16 31  1  0  0  0
 17 18  1  0  0  0
 17 98  1  0  0  0
 18 19  2  0  0  0
 18 99  1  0  0  0
 19 20  1  0  0  0
 19 24  1  0  0  0
 20 21  2  0  0  0
 20100  1  0  0  0
 21 23  1  0  0  0
 22 28  1  0  0  0
 22 32  2  0  0  0
 26 27  1  0  0  0
 28101  1  0  0  0
 28102  1  0  0  0
 29103  1  0  0  0
 29104  1  0  0  0
 33 34  1  0  0  0
 33 66  1  0  0  0
 33 70  2  0  0  0
 34 36  1  0  0  0
 34 59  1  0  0  0
 34105  1  0  0  0
 35 44  2  0  0  0
 35 45  1  0  0  0
 35 68  1  0  0  0
 36 56  1  0  0  0
 36106  1  0  0  0
 37 39  1  0  0  0
 37 47  1  0  0  0
 37 66  1  0  0  0
 37107  1  0  0  0
 38 43  2  0  0  0
 38 46  1  0  0  0
 38 47  1  0  0  0
 39 64  1  0  0  0
 39 67  2  0  0  0
 40 52  1  0  0  0
 40 53  2  0  0  0
 40 58  1  0  0  0
 41108  1  0  0  0
 41109  1  0  0  0
 41110  1  0  0  0
 41 48  1  0  0  0
 42 43  1  0  0  0
 42 66  1  0  0  0
 42111  1  0  0  0
 42112  1  0  0  0
 43 44  1  0  0  0
 44113  1  0  0  0
 45 46  2  0  0  0
 45114  1  0  0  0
 46115  1  0  0  0
 47116  1  0  0  0
 47117  1  0  0  0
 48 56  1  0  0  0
 48 65  1  0  0  0
 48118  1  0  0  0
 49 50  1  0  0  0
 49 53  1  0  0  0
 49 64  1  0  0  0
 49119  1  0  0  0
 50 51  1  0  0  0
 50120  1  0  0  0
 50121  1  0  0  0
 51 52  1  0  0  0
 51122  1  0  0  0
 51123  1  0  0  0
 52124  1  0  0  0
 52125  1  0  0  0
 53 54  1  0  0  0
 54 55  2  0  0  0
 54126  1  0  0  0
 55 57  1  0  0  0
 55127  1  0  0  0
 56 69  2  0  0  0
 57 58  2  0  0  0
 57128  1  0  0  0
 58129  1  0  0  0
 59 60  1  0  0  0
 59 61  1  0  0  0
 59 62  1  0  0  0
 60130  1  0  0  0
 60131  1  0  0  0
 60132  1  0  0  0
 61133  1  0  0  0
 61134  1  0  0  0
 61135  1  0  0  0
 62136  1  0  0  0
 62137  1  0  0  0
 62138  1  0  0  0
 63 65  1  0  0  0
 63139  1  0  0  0
 63140  1  0  0  0
 63141  1  0  0  0
 64142  1  0  0  0
 65143  1  0  0  0
 68 79  1  0  0  0
 71 72  2  0  0  0
 71 74  1  0  0  0
 71144  1  0  0  0
 72 75  1  0  0  0
 72145  1  0  0  0
 73 75  2  0  0  0
 73 76  1  0  0  0
 73146  1  0  0  0
 74 76  2  0  0  0
 74 77  1  0  0  0
 75 81  1  0  0  0
 76 84  1  0  0  0
 77 82  1  0  0  0
 77 83  2  0  0  0
 78147  1  0  0  0
 78148  1  0  0  0
 78149  1  0  0  0
 78 80  1  0  0  0
 79 80  1  0  0  0
 79150  1  0  0  0
 79151  1  0  0  0
 80 82  1  0  0  0
 80152  1  0  0  0
 81153  1  0  0  0
 82154  1  0  0  0
M  ISO  4   1 100  68 101  79 101  81 100
M  END
> <chiral flag>
0

> <version>
0

> <s_m_source_file>
/data/baiqing/PycharmProjects/Reinvent-master-3.2/result/LINK_invent/BTK/process_docking_weight1_custom_product_contain_oxygen_bond_distance_aromatic_linkinvent_7_9_3/rearranged_h_0076.sdf

> <i_m_source_file_index>
85

> <r_mmod_Potential_Energy-OPLS-2005>
33.3698387145996

> <r_mmod_Stretch_Energy-OPLS-2005>
82.9409027099609

> <r_mmod_Bend_Energy-OPLS-2005>
141.578002929688

> <r_mmod_Torsional_Energy-OPLS-2005>
217.661529541016

> <r_mmod_Improper_Torsional_Energy-OPLS-2005>
4.67412614822388

> <r_mmod_Van_der_Waal_Energy-OPLS-2005>
149.074493408203

> <r_mmod_Electrostatic_Energy-OPLS-2005>
-393.501586914062

> <r_mmod_Solvation_Energy-OPLS-2005>
-220.019912719727

> <b_mmod_Minimization_Converged-OPLS-2005>
0

> <r_mmod_RMS_Derivative-OPLS-2005>
0.854442298412323

$$$$
85
                    3D
 Structure written by MMmdl.
164172  0  0  1  0            999 V2000
  -30.6866  -14.4777   20.5699 C   0  0  0  0  0  0
  -30.4264  -12.3105   19.4188 C   0  0  0  0  0  0
  -29.4950  -12.5081   18.2039 C   0  0  0  0  0  0
  -28.0152  -12.3683   18.6165 C   0  0  0  0  0  0
  -27.6613  -13.2046   19.8756 C   0  0  2  0  0  0
  -28.7032  -12.9766   20.9942 C   0  0  0  0  0  0
  -25.2584  -13.8149   20.5678 C   0  0  0  0  0  0
  -24.1826  -13.0425   20.9151 C   0  0  0  0  0  0
  -24.6382  -11.6897   20.8719 C   0  0  0  0  0  0
  -23.9052  -10.4286   21.0397 C   0  0  0  0  0  0
  -24.3611   -9.4206   21.9177 C   0  0  0  0  0  0
  -23.6289   -8.2240   22.0749 C   0  0  0  0  0  0
  -22.4270   -8.0279   21.3545 C   0  0  0  0  0  0
  -21.9903   -9.0247   20.4647 C   0  0  0  0  0  0
  -22.7227  -10.2127   20.3050 C   0  0  0  0  0  0
  -21.6852   -6.0737   22.5280 C   0  0  0  0  0  0
  -21.4011   -6.5638   23.8216 C   0  0  0  0  0  0
  -21.3659   -5.6791   24.9176 C   0  0  0  0  0  0
  -21.6043   -4.3054   24.7226 C   0  0  0  0  0  0
  -21.8818   -3.8147   23.4345 C   0  0  0  0  0  0
  -21.9191   -4.6963   22.3403 C   0  0  0  0  0  0
  -22.7859  -13.5235   21.1830 C   0  0  0  0  0  0
  -22.1661   -4.2150   21.0981 F   0  0  0  0  0  0
  -21.5634   -3.4536   25.7739 F   0  0  0  0  0  0
  -30.0346  -13.2895   20.4443 N   0  0  0  0  0  0
  -26.3025  -12.9317   20.3377 N   0  0  0  0  0  0
  -25.9314  -11.6478   20.5765 N   0  0  0  0  0  0
  -22.0504  -12.8230   22.0397 N   0  0  0  0  0  0
  -25.4291  -15.1869   20.4142 N   0  0  0  0  0  0
  -31.8146  -14.6679   20.1060 O   0  0  0  0  0  0
  -21.6639   -6.8875   21.4241 O   0  0  0  0  0  0
  -22.3536  -14.5543   20.6689 O   0  0  0  0  0  0
  -24.6133  -31.8681   23.2105 C   0  0  0  0  0  0
  -25.9025  -32.4826   23.8405 C   0  0  1  0  0  0
  -27.2349  -27.4398   20.1011 C   0  0  0  0  0  0
  -25.5886  -33.8628   24.2336 N   0  0  0  0  0  0
  -23.4027  -30.4900   21.5505 C   0  0  2  0  0  0
  -24.8502  -28.9527   20.1200 C   0  0  0  0  0  0
  -22.7410  -29.4656   22.5001 C   0  0  0  0  0  0
  -18.0266  -28.1381   22.8499 C   0  0  0  0  0  0
  -24.1485  -36.7323   23.2639 C   0  0  0  0  0  0
  -25.9301  -30.8360   21.3627 C   0  0  0  0  0  0
  -26.0095  -29.4680   20.7147 C   0  0  0  0  0  0
  -27.2076  -28.7184   20.7024 C   0  0  0  0  0  0
  -26.0630  -26.9335   19.5051 C   0  0  0  0  0  0
  -24.8707  -27.6835   19.5142 C   0  0  0  0  0  0
  -23.6119  -29.8188   20.1665 C   0  0  0  0  0  0
  -25.4104  -36.3120   24.0343 C   0  0  1  0  0  0
  -20.5859  -28.3666   23.1328 C   0  0  2  0  0  0
  -20.6758  -26.9404   22.5426 C   0  0  0  0  0  0
  -19.5737  -26.6392   21.5223 C   0  0  0  0  0  0
  -18.1915  -26.7931   22.1628 C   0  0  0  0  0  0
  -19.1516  -28.8840   23.2911 C   0  0  0  0  0  0
  -18.9443  -30.1446   23.8925 C   0  0  0  0  0  0
  -17.6445  -30.6590   24.0570 C   0  0  0  0  0  0
  -25.9034  -34.9484   23.5143 C   0  0  0  0  0  0
  -16.5338  -29.9095   23.6324 C   0  0  0  0  0  0
  -16.7255  -28.6507   23.0352 C   0  0  0  0  0  0
  -26.4462  -31.6603   25.0727 C   0  0  0  0  0  0
  -25.3737  -31.3695   26.1478 C   0  0  0  0  0  0
  -27.0284  -30.3049   24.6089 C   0  0  0  0  0  0
  -27.6053  -32.4312   25.7476 C   0  0  0  0  0  0
  -27.5588  -37.1801   24.8455 C   0  0  0  0  0  0
  -21.4137  -29.3033   22.3738 N   0  0  0  0  0  0
  -26.4289  -37.3807   23.9420 N   0  0  0  0  0  0
  -24.6669  -31.0789   22.1001 N   0  0  0  0  0  0
  -23.4185  -28.8205   23.3047 O   0  0  0  0  0  0
  -28.3924  -26.6999   20.0568 O   0  0  0  0  0  0
  -26.5603  -34.8931   22.4710 O   0  0  0  0  0  0
  -23.5326  -32.1426   23.7501 O   0  0  0  0  0  0
  -31.4688  -18.9312   20.9362 C   0  0  0  0  0  0
  -31.3862  -17.5211   20.9631 C   0  0  0  0  0  0
  -29.0469  -19.0940   21.0749 C   0  0  0  0  0  0
  -30.3040  -19.7342   21.0011 C   0  0  0  0  0  0
  -30.1279  -16.8791   21.0454 C   0  0  0  0  0  0
  -28.9660  -17.6825   21.1014 C   0  0  0  0  0  0
  -30.4338  -21.2043   21.0296 C   0  0  0  0  0  0
  -28.4308  -24.2455   20.3892 C   0  0  0  0  0  0
  -29.5897  -23.2899   17.5860 C   0  0  0  0  0  0
  -31.8622  -23.4190   18.6852 C   0  0  0  0  0  0
  -28.4734  -25.6488   21.0319 C   0  0  0  0  0  0
  -29.7781  -23.5139   20.1700 C   0  0  2  0  0  0
  -30.3895  -23.8530   18.7802 C   0  0  0  0  0  0
  -29.9506  -15.4625   21.1184 N   0  0  0  0  0  0
  -29.6440  -22.0337   20.3161 N   0  0  0  0  0  0
  -31.4031  -21.7380   21.7745 N   0  3  0  0  0  0
  -27.3503  -23.7281   20.0893 O   0  0  0  0  0  0
  -27.7536  -17.0824   21.1829 F   0  0  0  0  0  0
  -31.4704  -12.4160   19.1175 H   0  0  0  0  0  0
  -30.3330  -11.2979   19.8133 H   0  0  0  0  0  0
  -29.7365  -11.7836   17.4251 H   0  0  0  0  0  0
  -29.6612  -13.4939   17.7662 H   0  0  0  0  0  0
  -27.8250  -11.3117   18.8098 H   0  0  0  0  0  0
  -27.3643  -12.6455   17.7861 H   0  0  0  0  0  0
  -27.7054  -14.2536   19.5817 H   0  0  0  0  0  0
  -28.6815  -11.9369   21.3245 H   0  0  0  0  0  0
  -28.4618  -13.5639   21.8815 H   0  0  0  0  0  0
  -25.2756   -9.5685   22.4750 H   0  0  0  0  0  0
  -24.0003   -7.4630   22.7462 H   0  0  0  0  0  0
  -21.0837   -8.8754   19.8955 H   0  0  0  0  0  0
  -22.3677  -10.9661   19.6156 H   0  0  0  0  0  0
  -21.1998   -7.6144   23.9718 H   0  0  0  0  0  0
  -21.1488   -6.0522   25.9080 H   0  0  0  0  0  0
  -22.0599   -2.7610   23.2844 H   0  0  0  0  0  0
  -22.4115  -11.9884   22.4780 H   0  0  0  0  0  0
  -21.1125  -13.1260   22.2614 H   0  0  0  0  0  0
  -24.6681  -15.8415   20.5560 H   0  0  0  0  0  0
  -26.3077  -15.6481   20.2095 H   0  0  0  0  0  0
  -26.7104  -32.5548   23.1181 H   0  0  0  0  0  0
  -25.0014  -33.9803   25.0464 H   0  0  0  0  0  0
  -22.6904  -31.3056   21.4093 H   0  0  0  0  0  0
  -23.3757  -35.9645   23.3287 H   0  0  0  0  0  0
  -24.3587  -36.8950   22.2058 H   0  0  0  0  0  0
  -23.7219  -37.6519   23.6655 H   0  0  0  0  0  0
  -26.0384  -31.6004   20.5917 H   0  0  0  0  0  0
  -26.8201  -30.8935   21.9777 H   0  0  0  0  0  0
  -28.1058  -29.1170   21.1531 H   0  0  0  0  0  0
  -26.0740  -25.9622   19.0300 H   0  0  0  0  0  0
  -23.9794  -27.2814   19.0533 H   0  0  0  0  0  0
  -23.7208  -30.5910   19.4041 H   0  0  0  0  0  0
  -22.7368  -29.2359   19.8715 H   0  0  0  0  0  0
  -25.1278  -36.1992   25.0836 H   0  0  0  0  0  0
  -20.9947  -28.3228   24.1450 H   0  0  0  0  0  0
  -20.5672  -26.2275   23.3613 H   0  0  0  0  0  0
  -21.6626  -26.7458   22.1209 H   0  0  0  0  0  0
  -19.6898  -25.6308   21.1237 H   0  0  0  0  0  0
  -19.6678  -27.3215   20.6768 H   0  0  0  0  0  0
  -17.4191  -26.6688   21.4020 H   0  0  0  0  0  0
  -18.0311  -26.0070   22.9023 H   0  0  0  0  0  0
  -19.7920  -30.7249   24.2313 H   0  0  0  0  0  0
  -17.5003  -31.6274   24.5162 H   0  0  0  0  0  0
  -15.5337  -30.3007   23.7631 H   0  0  0  0  0  0
  -15.8655  -28.0828   22.7066 H   0  0  0  0  0  0
  -24.5901  -30.7056   25.7807 H   0  0  0  0  0  0
  -24.8939  -32.2839   26.4971 H   0  0  0  0  0  0
  -25.8099  -30.8824   27.0207 H   0  0  0  0  0  0
  -26.2818  -29.6814   24.1154 H   0  0  0  0  0  0
  -27.4066  -29.7281   25.4539 H   0  0  0  0  0  0
  -27.8650  -30.4378   23.9227 H   0  0  0  0  0  0
  -27.2691  -33.3599   26.2099 H   0  0  0  0  0  0
  -28.3830  -32.6891   25.0274 H   0  0  0  0  0  0
  -28.0756  -31.8404   26.5342 H   0  0  0  0  0  0
  -28.2581  -38.0125   24.7554 H   0  0  0  0  0  0
  -28.1107  -36.2660   24.6213 H   0  0  0  0  0  0
  -27.2311  -37.1374   25.8856 H   0  0  0  0  0  0
  -20.9305  -29.8757   21.6955 H   0  0  0  0  0  0
  -26.0181  -38.2881   24.1455 H   0  0  0  0  0  0
  -32.4451  -19.3929   20.8738 H   0  0  0  0  0  0
  -32.3018  -16.9496   20.9368 H   0  0  0  0  0  0
  -28.1373  -19.6736   21.1377 H   0  0  0  0  0  0
  -30.0418  -23.5858   16.6384 H   0  0  0  0  0  0
  -28.5640  -23.6594   17.5726 H   0  0  0  0  0  0
  -29.5511  -22.2002   17.5953 H   0  0  0  0  0  0
  -32.3107  -23.7554   17.7496 H   0  0  0  0  0  0
  -31.9712  -22.3351   18.7252 H   0  0  0  0  0  0
  -32.4530  -23.8449   19.4971 H   0  0  0  0  0  0
  -27.6666  -25.7273   21.7626 H   0  0  0  0  0  0
  -29.4062  -25.7581   21.5850 H   0  0  0  0  0  0
  -30.4585  -23.8876   20.9349 H   0  0  0  0  0  0
  -30.3848  -24.9406   18.6798 H   0  0  0  0  0  0
  -29.0294  -15.1772   21.4127 H   0  0  0  0  0  0
  -28.8727  -21.6143   19.8134 H   0  0  0  0  0  0
  -31.9623  -21.1391   22.3613 H   0  0  0  0  0  0
  -31.5668  -22.7287   21.7951 H   0  0  0  0  0  0
  1 25  1  0  0  0
  1 30  2  0  0  0
  1 84  1  0  0  0
  2  3  1  0  0  0
  2 25  1  0  0  0
  2 89  1  0  0  0
  2 90  1  0  0  0
  3  4  1  0  0  0
  3 91  1  0  0  0
  3 92  1  0  0  0
  4  5  1  0  0  0
  4 93  1  0  0  0
  4 94  1  0  0  0
  5  6  1  0  0  0
  5 26  1  0  0  0
  5 95  1  0  0  0
  6 25  1  0  0  0
  6 96  1  0  0  0
  6 97  1  0  0  0
  7  8  2  0  0  0
  7 26  1  0  0  0
  7 29  1  0  0  0
  8  9  1  0  0  0
  8 22  1  0  0  0
  9 10  1  0  0  0
  9 27  2  0  0  0
 10 11  2  0  0  0
 10 15  1  0  0  0
 11 12  1  0  0  0
 11 98  1  0  0  0
 12 13  2  0  0  0
 12 99  1  0  0  0
 13 14  1  0  0  0
 13 31  1  0  0  0
 14 15  2  0  0  0
 14100  1  0  0  0
 15101  1  0  0  0
 16 17  2  0  0  0
 16 21  1  0  0  0
 16 31  1  0  0  0
 17 18  1  0  0  0
 17102  1  0  0  0
 18 19  2  0  0  0
 18103  1  0  0  0
 19 20  1  0  0  0
 19 24  1  0  0  0
 20 21  2  0  0  0
 20104  1  0  0  0
 21 23  1  0  0  0
 22 28  1  0  0  0
 22 32  2  0  0  0
 26 27  1  0  0  0
 28105  1  0  0  0
 28106  1  0  0  0
 29107  1  0  0  0
 29108  1  0  0  0
 33 34  1  0  0  0
 33 66  1  0  0  0
 33 70  2  0  0  0
 34 36  1  0  0  0
 34 59  1  0  0  0
 34109  1  0  0  0
 35 44  2  0  0  0
 35 45  1  0  0  0
 35 68  1  0  0  0
 36 56  1  0  0  0
 36110  1  0  0  0
 37 39  1  0  0  0
 37 47  1  0  0  0
 37 66  1  0  0  0
 37111  1  0  0  0
 38 43  2  0  0  0
 38 46  1  0  0  0
 38 47  1  0  0  0
 39 64  1  0  0  0
 39 67  2  0  0  0
 40 52  1  0  0  0
 40 53  2  0  0  0
 40 58  1  0  0  0
 41112  1  0  0  0
 41113  1  0  0  0
 41114  1  0  0  0
 41 48  1  0  0  0
 42 43  1  0  0  0
 42 66  1  0  0  0
 42115  1  0  0  0
 42116  1  0  0  0
 43 44  1  0  0  0
 44117  1  0  0  0
 45 46  2  0  0  0
 45118  1  0  0  0
 46119  1  0  0  0
 47120  1  0  0  0
 47121  1  0  0  0
 48 56  1  0  0  0
 48 65  1  0  0  0
 48122  1  0  0  0
 49 50  1  0  0  0
 49 53  1  0  0  0
 49 64  1  0  0  0
 49123  1  0  0  0
 50 51  1  0  0  0
 50124  1  0  0  0
 50125  1  0  0  0
 51 52  1  0  0  0
 51126  1  0  0  0
 51127  1  0  0  0
 52128  1  0  0  0
 52129  1  0  0  0
 53 54  1  0  0  0
 54 55  2  0  0  0
 54130  1  0  0  0
 55 57  1  0  0  0
 55131  1  0  0  0
 56 69  2  0  0  0
 57 58  2  0  0  0
 57132  1  0  0  0
 58133  1  0  0  0
 59 60  1  0  0  0
 59 61  1  0  0  0
 59 62  1  0  0  0
 60134  1  0  0  0
 60135  1  0  0  0
 60136  1  0  0  0
 61137  1  0  0  0
 61138  1  0  0  0
 61139  1  0  0  0
 62140  1  0  0  0
 62141  1  0  0  0
 62142  1  0  0  0
 63 65  1  0  0  0
 63143  1  0  0  0
 63144  1  0  0  0
 63145  1  0  0  0
 64146  1  0  0  0
 65147  1  0  0  0
 68 81  1  0  0  0
 71 72  2  0  0  0
 71 74  1  0  0  0
 71148  1  0  0  0
 72 75  1  0  0  0
 72149  1  0  0  0
 73 74  2  0  0  0
 73 76  1  0  0  0
 73150  1  0  0  0
 74 77  1  0  0  0
 75 76  2  0  0  0
 75 84  1  0  0  0
 76 88  1  0  0  0
 77 85  1  0  0  0
 77 86  2  0  0  0
 78 81  1  0  0  0
 78 82  1  0  0  0
 78 87  2  0  0  0
 79151  1  0  0  0
 79152  1  0  0  0
 79153  1  0  0  0
 79 83  1  0  0  0
 80 83  1  0  0  0
 80154  1  0  0  0
 80155  1  0  0  0
 80156  1  0  0  0
 81157  1  0  0  0
 81158  1  0  0  0
 82 83  1  0  0  0
 82 85  1  0  0  0
 82159  1  0  0  0
 83160  1  0  0  0
 84161  1  0  0  0
 85162  1  0  0  0
 86163  1  0  0  0
 86164  1  0  0  0
M  CHG  1  86   1
M  ISO  4   1 100  68 101  81 101  84 100
M  END
> <chiral flag>
0

> <version>
0

> <s_m_source_file>
/data/baiqing/PycharmProjects/Reinvent-master-3.2/result/LINK_invent/BTK/process_docking_weight1_custom_product_contain_oxygen_bond_distance_aromatic_linkinvent_7_9_3/rearranged_h_0076.sdf

> <i_m_source_file_index>
86

> <r_mmod_Potential_Energy-OPLS-2005>
-345.933227539062

> <r_mmod_Stretch_Energy-OPLS-2005>
38.8463287353516

> <r_mmod_Bend_Energy-OPLS-2005>
98.8458938598633

> <r_mmod_Torsional_Energy-OPLS-2005>
259.906494140625

> <r_mmod_Improper_Torsional_Energy-OPLS-2005>
3.97734665870667

> <r_mmod_Van_der_Waal_Energy-OPLS-2005>
149.543899536133

> <r_mmod_Electrostatic_Energy-OPLS-2005>
-478.33203125

> <r_mmod_Solvation_Energy-OPLS-2005>
-430.363189697266

> <b_mmod_Minimization_Converged-OPLS-2005>
0

> <r_mmod_RMS_Derivative-OPLS-2005>
1.01761651039124

$$$$
86
                    3D
 Structure written by MMmdl.
157166  0  0  1  0            999 V2000
  -30.6067  -14.7758   20.4282 C   0  0  0  0  0  0
  -30.4300  -12.4660   19.4969 C   0  0  0  0  0  0
  -29.5152  -12.5002   18.2527 C   0  0  0  0  0  0
  -28.0440  -12.3140   18.6661 C   0  0  0  0  0  0
  -27.6389  -13.2333   19.8488 C   0  0  2  0  0  0
  -28.6752  -13.2037   20.9912 C   0  0  0  0  0  0
  -25.2494  -13.8191   20.5660 C   0  0  0  0  0  0
  -24.1787  -13.0445   20.9166 C   0  0  0  0  0  0
  -24.6393  -11.6906   20.8733 C   0  0  0  0  0  0
  -23.9072  -10.4287   21.0399 C   0  0  0  0  0  0
  -24.3618   -9.4194   21.9186 C   0  0  0  0  0  0
  -23.6279   -8.2242   22.0771 C   0  0  0  0  0  0
  -22.4266   -8.0290   21.3545 C   0  0  0  0  0  0
  -21.9904   -9.0258   20.4646 C   0  0  0  0  0  0
  -22.7238  -10.2127   20.3049 C   0  0  0  0  0  0
  -21.6865   -6.0723   22.5260 C   0  0  0  0  0  0
  -21.4020   -6.5630   23.8194 C   0  0  0  0  0  0
  -21.3648   -5.6783   24.9158 C   0  0  0  0  0  0
  -21.6049   -4.3048   24.7213 C   0  0  0  0  0  0
  -21.8819   -3.8136   23.4330 C   0  0  0  0  0  0
  -21.9187   -4.6954   22.3392 C   0  0  0  0  0  0
  -22.7806  -13.5212   21.1822 C   0  0  0  0  0  0
  -22.1659   -4.2138   21.0963 F   0  0  0  0  0  0
  -21.5619   -3.4537   25.7723 F   0  0  0  0  0  0
  -29.9792  -13.5471   20.4112 N   0  0  0  0  0  0
  -26.2917  -12.9404   20.3255 N   0  0  0  0  0  0
  -25.9320  -11.6541   20.5744 N   0  0  0  0  0  0
  -22.0465  -12.8225   22.0389 N   0  0  0  0  0  0
  -25.4177  -15.1928   20.4048 N   0  0  0  0  0  0
  -31.8096  -14.8268   20.1499 O   0  0  0  0  0  0
  -21.6638   -6.8879   21.4231 O   0  0  0  0  0  0
  -22.3472  -14.5515   20.6650 O   0  0  0  0  0  0
  -24.6375  -31.8455   23.1962 C   0  0  0  0  0  0
  -25.9189  -32.4691   23.8321 C   0  0  1  0  0  0
  -27.2130  -27.2192   20.1009 C   0  0  0  0  0  0
  -25.5967  -33.8505   24.2212 N   0  0  0  0  0  0
  -23.4370  -30.4676   21.5404 C   0  0  2  0  0  0
  -24.8769  -28.9078   20.1112 C   0  0  0  0  0  0
  -22.7567  -29.4515   22.4894 C   0  0  0  0  0  0
  -18.0319  -28.1383   22.8461 C   0  0  0  0  0  0
  -24.1499  -36.7251   23.2646 C   0  0  0  0  0  0
  -25.9915  -30.7341   21.3920 C   0  0  0  0  0  0
  -26.0545  -29.3629   20.7149 C   0  0  0  0  0  0
  -27.2233  -28.5309   20.6982 C   0  0  0  0  0  0
  -26.0010  -26.8297   19.4916 C   0  0  0  0  0  0
  -24.8546  -27.6488   19.4929 C   0  0  0  0  0  0
  -23.6551  -29.8055   20.1562 C   0  0  0  0  0  0
  -25.4130  -36.3042   24.0332 C   0  0  1  0  0  0
  -20.5927  -28.3680   23.1266 C   0  0  2  0  0  0
  -20.6798  -26.9399   22.5405 C   0  0  0  0  0  0
  -19.5764  -26.6376   21.5223 C   0  0  0  0  0  0
  -18.1945  -26.7927   22.1618 C   0  0  0  0  0  0
  -19.1572  -28.8858   23.2847 C   0  0  0  0  0  0
  -18.9490  -30.1464   23.8855 C   0  0  0  0  0  0
  -17.6487  -30.6569   24.0552 C   0  0  0  0  0  0
  -25.9086  -34.9401   23.5083 C   0  0  0  0  0  0
  -16.5372  -29.9059   23.6345 C   0  0  0  0  0  0
  -16.7306  -28.6489   23.0342 C   0  0  0  0  0  0
  -26.4531  -31.6589   25.0783 C   0  0  0  0  0  0
  -25.3706  -31.3796   26.1476 C   0  0  0  0  0  0
  -27.0410  -30.2974   24.6414 C   0  0  0  0  0  0
  -27.6069  -32.4389   25.7539 C   0  0  0  0  0  0
  -27.5576  -37.1787   24.8473 C   0  0  0  0  0  0
  -21.4275  -29.2994   22.3646 N   0  0  0  0  0  0
  -26.4290  -37.3750   23.9409 N   0  0  0  0  0  0
  -24.7072  -31.0367   22.0958 N   0  0  0  0  0  0
  -23.4246  -28.8060   23.3011 O   0  0  0  0  0  0
  -28.2860  -26.2878   20.1942 O   0  0  0  0  0  0
  -26.5661  -34.8880   22.4655 O   0  0  0  0  0  0
  -23.5513  -32.1340   23.7204 O   0  0  0  0  0  0
  -30.8280  -17.3228   18.7547 C   0  0  0  0  0  0
  -31.0745  -18.5140   18.0647 C   0  0  0  0  0  0
  -29.4618  -18.5917   20.3173 C   0  0  0  0  0  0
  -29.6834  -19.8737   19.6134 C   0  0  0  0  0  0
  -30.0506  -17.2961   19.9282 C   0  0  0  0  0  0
  -30.5529  -19.7534   18.4842 C   0  0  0  0  0  0
  -28.4990  -23.2202   21.2466 C   0  0  0  0  0  0
  -28.5356  -23.7455   19.8821 C   0  0  0  0  0  0
  -28.8873  -21.6858   21.2479 C   0  0  0  0  0  0
  -28.3886  -25.0711   19.4364 C   0  0  0  0  0  0
  -28.8301  -22.4386   19.0710 C   0  0  0  0  0  0
  -28.5256  -25.3867   17.9540 C   0  0  0  0  0  0
  -29.1200  -21.2448   19.9853 N   0  0  0  0  0  0
  -30.9951  -20.8437   17.7443 N   0  0  0  0  0  0
  -29.8546  -15.9506   20.5704 N   0  0  0  0  0  0
  -28.1859  -23.8528   22.2634 O   0  0  0  0  0  0
  -28.9682  -21.0086   22.2828 O   0  0  0  0  0  0
  -31.4718  -12.5854   19.1924 H   0  0  0  0  0  0
  -30.3765  -11.4939   19.9918 H   0  0  0  0  0  0
  -29.8055  -11.7193   17.5482 H   0  0  0  0  0  0
  -29.6381  -13.4486   17.7276 H   0  0  0  0  0  0
  -27.9157  -11.2693   18.9520 H   0  0  0  0  0  0
  -27.3840  -12.4732   17.8128 H   0  0  0  0  0  0
  -27.6273  -14.2473   19.4498 H   0  0  0  0  0  0
  -28.7059  -12.2195   21.4606 H   0  0  0  0  0  0
  -28.3997  -13.9098   21.7763 H   0  0  0  0  0  0
  -25.2766   -9.5668   22.4762 H   0  0  0  0  0  0
  -23.9969   -7.4641   22.7518 H   0  0  0  0  0  0
  -21.0827   -8.8767   19.8969 H   0  0  0  0  0  0
  -22.3692  -10.9660   19.6159 H   0  0  0  0  0  0
  -21.2034   -7.6141   23.9692 H   0  0  0  0  0  0
  -21.1470   -6.0519   25.9056 H   0  0  0  0  0  0
  -22.0615   -2.7604   23.2828 H   0  0  0  0  0  0
  -22.4075  -11.9879   22.4769 H   0  0  0  0  0  0
  -21.1096  -13.1261   22.2631 H   0  0  0  0  0  0
  -24.6468  -15.8445   20.5050 H   0  0  0  0  0  0
  -26.2609  -15.6299   20.0540 H   0  0  0  0  0  0
  -26.7237  -32.5218   23.1022 H   0  0  0  0  0  0
  -25.0156  -33.9653   25.0384 H   0  0  0  0  0  0
  -22.7343  -31.2894   21.3936 H   0  0  0  0  0  0
  -23.3788  -35.9562   23.3335 H   0  0  0  0  0  0
  -24.3581  -36.8848   22.2057 H   0  0  0  0  0  0
  -23.7239  -37.6455   23.6645 H   0  0  0  0  0  0
  -26.1822  -31.5046   20.6450 H   0  0  0  0  0  0
  -26.8475  -30.7382   22.0541 H   0  0  0  0  0  0
  -28.1250  -28.8681   21.1887 H   0  0  0  0  0  0
  -25.9098  -25.8540   19.0365 H   0  0  0  0  0  0
  -23.9462  -27.2870   19.0301 H   0  0  0  0  0  0
  -23.7967  -30.5837   19.4064 H   0  0  0  0  0  0
  -22.7691  -29.2531   19.8395 H   0  0  0  0  0  0
  -25.1317  -36.1899   25.0829 H   0  0  0  0  0  0
  -20.9998  -28.3248   24.1399 H   0  0  0  0  0  0
  -20.5759  -26.2288   23.3605 H   0  0  0  0  0  0
  -21.6644  -26.7425   22.1146 H   0  0  0  0  0  0
  -19.6934  -25.6310   21.1225 H   0  0  0  0  0  0
  -19.6696  -27.3187   20.6764 H   0  0  0  0  0  0
  -17.4226  -26.6720   21.4010 H   0  0  0  0  0  0
  -18.0292  -26.0081   22.9020 H   0  0  0  0  0  0
  -19.7967  -30.7309   24.2181 H   0  0  0  0  0  0
  -17.5025  -31.6241   24.5164 H   0  0  0  0  0  0
  -15.5364  -30.2916   23.7706 H   0  0  0  0  0  0
  -15.8729  -28.0792   22.7048 H   0  0  0  0  0  0
  -24.5879  -30.7167   25.7776 H   0  0  0  0  0  0
  -24.8912  -32.2985   26.4852 H   0  0  0  0  0  0
  -25.7953  -30.8987   27.0294 H   0  0  0  0  0  0
  -26.3038  -29.6705   24.1386 H   0  0  0  0  0  0
  -27.3974  -29.7293   25.5019 H   0  0  0  0  0  0
  -27.8967  -30.4245   23.9782 H   0  0  0  0  0  0
  -27.2670  -33.3706   26.2073 H   0  0  0  0  0  0
  -28.3859  -32.6943   25.0345 H   0  0  0  0  0  0
  -28.0772  -31.8584   26.5490 H   0  0  0  0  0  0
  -28.2609  -38.0073   24.7500 H   0  0  0  0  0  0
  -28.1062  -36.2608   24.6317 H   0  0  0  0  0  0
  -27.2289  -37.1436   25.8875 H   0  0  0  0  0  0
  -20.9508  -29.8724   21.6820 H   0  0  0  0  0  0
  -26.0196  -38.2838   24.1377 H   0  0  0  0  0  0
  -31.2567  -16.4198   18.3467 H   0  0  0  0  0  0
  -31.7093  -18.4593   17.1910 H   0  0  0  0  0  0
  -28.8143  -18.6037   21.1805 H   0  0  0  0  0  0
  -29.6477  -22.7047   18.4125 H   0  0  0  0  0  0
  -27.9709  -22.2041   18.4400 H   0  0  0  0  0  0
  -29.5797  -25.4407   17.6804 H   0  0  0  0  0  0
  -28.0756  -26.3450   17.6918 H   0  0  0  0  0  0
  -28.0502  -24.6147   17.3473 H   0  0  0  0  0  0
  -31.8027  -20.7100   17.1440 H   0  0  0  0  0  0
  -31.0245  -21.7377   18.2204 H   0  0  0  0  0  0
  -28.9676  -15.8250   21.0327 H   0  0  0  0  0  0
  1 25  1  0  0  0
  1 30  2  0  0  0
  1 85  1  0  0  0
  2  3  1  0  0  0
  2 25  1  0  0  0
  2 88  1  0  0  0
  2 89  1  0  0  0
  3  4  1  0  0  0
  3 90  1  0  0  0
  3 91  1  0  0  0
  4  5  1  0  0  0
  4 92  1  0  0  0
  4 93  1  0  0  0
  5  6  1  0  0  0
  5 26  1  0  0  0
  5 94  1  0  0  0
  6 25  1  0  0  0
  6 95  1  0  0  0
  6 96  1  0  0  0
  7  8  2  0  0  0
  7 26  1  0  0  0
  7 29  1  0  0  0
  8  9  1  0  0  0
  8 22  1  0  0  0
  9 10  1  0  0  0
  9 27  2  0  0  0
 10 11  2  0  0  0
 10 15  1  0  0  0
 11 12  1  0  0  0
 11 97  1  0  0  0
 12 13  2  0  0  0
 12 98  1  0  0  0
 13 14  1  0  0  0
 13 31  1  0  0  0
 14 15  2  0  0  0
 14 99  1  0  0  0
 15100  1  0  0  0
 16 17  2  0  0  0
 16 21  1  0  0  0
 16 31  1  0  0  0
 17 18  1  0  0  0
 17101  1  0  0  0
 18 19  2  0  0  0
 18102  1  0  0  0
 19 20  1  0  0  0
 19 24  1  0  0  0
 20 21  2  0  0  0
 20103  1  0  0  0
 21 23  1  0  0  0
 22 28  1  0  0  0
 22 32  2  0  0  0
 26 27  1  0  0  0
 28104  1  0  0  0
 28105  1  0  0  0
 29106  1  0  0  0
 29107  1  0  0  0
 33 34  1  0  0  0
 33 66  1  0  0  0
 33 70  2  0  0  0
 34 36  1  0  0  0
 34 59  1  0  0  0
 34108  1  0  0  0
 35 44  2  0  0  0
 35 45  1  0  0  0
 35 68  1  0  0  0
 36 56  1  0  0  0
 36109  1  0  0  0
 37 39  1  0  0  0
 37 47  1  0  0  0
 37 66  1  0  0  0
 37110  1  0  0  0
 38 43  2  0  0  0
 38 46  1  0  0  0
 38 47  1  0  0  0
 39 64  1  0  0  0
 39 67  2  0  0  0
 40 52  1  0  0  0
 40 53  2  0  0  0
 40 58  1  0  0  0
 41111  1  0  0  0
 41112  1  0  0  0
 41113  1  0  0  0
 41 48  1  0  0  0
 42 43  1  0  0  0
 42 66  1  0  0  0
 42114  1  0  0  0
 42115  1  0  0  0
 43 44  1  0  0  0
 44116  1  0  0  0
 45 46  2  0  0  0
 45117  1  0  0  0
 46118  1  0  0  0
 47119  1  0  0  0
 47120  1  0  0  0
 48 56  1  0  0  0
 48 65  1  0  0  0
 48121  1  0  0  0
 49 50  1  0  0  0
 49 53  1  0  0  0
 49 64  1  0  0  0
 49122  1  0  0  0
 50 51  1  0  0  0
 50123  1  0  0  0
 50124  1  0  0  0
 51 52  1  0  0  0
 51125  1  0  0  0
 51126  1  0  0  0
 52127  1  0  0  0
 52128  1  0  0  0
 53 54  1  0  0  0
 54 55  2  0  0  0
 54129  1  0  0  0
 55 57  1  0  0  0
 55130  1  0  0  0
 56 69  2  0  0  0
 57 58  2  0  0  0
 57131  1  0  0  0
 58132  1  0  0  0
 59 60  1  0  0  0
 59 61  1  0  0  0
 59 62  1  0  0  0
 60133  1  0  0  0
 60134  1  0  0  0
 60135  1  0  0  0
 61136  1  0  0  0
 61137  1  0  0  0
 61138  1  0  0  0
 62139  1  0  0  0
 62140  1  0  0  0
 62141  1  0  0  0
 63 65  1  0  0  0
 63142  1  0  0  0
 63143  1  0  0  0
 63144  1  0  0  0
 64145  1  0  0  0
 65146  1  0  0  0
 68 80  1  0  0  0
 71 72  2  0  0  0
 71 75  1  0  0  0
 71147  1  0  0  0
 72 76  1  0  0  0
 72148  1  0  0  0
 73 74  1  0  0  0
 73 75  2  0  0  0
 73149  1  0  0  0
 74 76  2  0  0  0
 74 83  1  0  0  0
 75 85  1  0  0  0
 76 84  1  0  0  0
 77 78  1  0  0  0
 77 79  1  0  0  0
 77 86  2  0  0  0
 78 80  2  0  0  0
 78 81  1  0  0  0
 79 83  1  0  0  0
 79 87  2  0  0  0
 80 82  1  0  0  0
 81 83  1  0  0  0
 81150  1  0  0  0
 81151  1  0  0  0
 82152  1  0  0  0
 82153  1  0  0  0
 82154  1  0  0  0
 84155  1  0  0  0
 84156  1  0  0  0
 85157  1  0  0  0
M  ISO  4   1 100  68 101  80 101  85 100
M  END
> <chiral flag>
0

> <version>
0

> <s_m_source_file>
/data/baiqing/PycharmProjects/Reinvent-master-3.2/result/LINK_invent/BTK/process_docking_weight1_custom_product_contain_oxygen_bond_distance_aromatic_linkinvent_7_9_3/rearranged_h_0076.sdf

> <i_m_source_file_index>
87

> <r_mmod_Potential_Energy-OPLS-2005>
339.602630615234

> <r_mmod_Stretch_Energy-OPLS-2005>
160.805648803711

> <r_mmod_Bend_Energy-OPLS-2005>
217.242156982422

> <r_mmod_Torsional_Energy-OPLS-2005>
281.114562988281

> <r_mmod_Improper_Torsional_Energy-OPLS-2005>
9.24353408813477

> <r_mmod_Van_der_Waal_Energy-OPLS-2005>
146.337387084961

> <r_mmod_Electrostatic_Energy-OPLS-2005>
-335.754791259766

> <r_mmod_Solvation_Energy-OPLS-2005>
-250.27995300293

> <b_mmod_Minimization_Converged-OPLS-2005>
0

> <r_mmod_RMS_Derivative-OPLS-2005>
3.6614556312561

$$$$
87
                    3D
 Structure written by MMmdl.
155163  0  0  1  0            999 V2000
  -30.5875  -14.7131   20.4760 C   0  0  0  0  0  0
  -30.4329  -12.4323   19.4854 C   0  0  0  0  0  0
  -29.5184  -12.5233   18.2425 C   0  0  0  0  0  0
  -28.0402  -12.3510   18.6441 C   0  0  0  0  0  0
  -27.6479  -13.2286   19.8628 C   0  0  2  0  0  0
  -28.6849  -13.1171   21.0024 C   0  0  0  0  0  0
  -25.2521  -13.8192   20.5686 C   0  0  0  0  0  0
  -24.1799  -13.0445   20.9197 C   0  0  0  0  0  0
  -24.6380  -11.6915   20.8729 C   0  0  0  0  0  0
  -23.9051  -10.4291   21.0388 C   0  0  0  0  0  0
  -24.3608   -9.4215   21.9171 C   0  0  0  0  0  0
  -23.6299   -8.2249   22.0742 C   0  0  0  0  0  0
  -22.4281   -8.0277   21.3529 C   0  0  0  0  0  0
  -21.9900   -9.0247   20.4639 C   0  0  0  0  0  0
  -22.7218  -10.2131   20.3047 C   0  0  0  0  0  0
  -21.6854   -6.0740   22.5274 C   0  0  0  0  0  0
  -21.4024   -6.5642   23.8212 C   0  0  0  0  0  0
  -21.3658   -5.6788   24.9177 C   0  0  0  0  0  0
  -21.6048   -4.3052   24.7223 C   0  0  0  0  0  0
  -21.8813   -3.8149   23.4335 C   0  0  0  0  0  0
  -21.9188   -4.6965   22.3396 C   0  0  0  0  0  0
  -22.7820  -13.5238   21.1850 C   0  0  0  0  0  0
  -22.1651   -4.2150   21.0973 F   0  0  0  0  0  0
  -21.5628   -3.4540   25.7736 F   0  0  0  0  0  0
  -29.9962  -13.4721   20.4449 N   0  0  0  0  0  0
  -26.2953  -12.9391   20.3298 N   0  0  0  0  0  0
  -25.9320  -11.6532   20.5729 N   0  0  0  0  0  0
  -22.0441  -12.8248   22.0406 N   0  0  0  0  0  0
  -25.4245  -15.1913   20.4118 N   0  0  0  0  0  0
  -31.7449  -14.8567   20.0676 O   0  0  0  0  0  0
  -21.6640   -6.8880   21.4236 O   0  0  0  0  0  0
  -22.3503  -14.5527   20.6665 O   0  0  0  0  0  0
  -24.6315  -31.8562   23.1992 C   0  0  0  0  0  0
  -25.9135  -32.4760   23.8345 C   0  0  1  0  0  0
  -27.2080  -27.2569   20.1245 C   0  0  0  0  0  0
  -25.5929  -33.8567   24.2264 N   0  0  0  0  0  0
  -23.4281  -30.4810   21.5440 C   0  0  2  0  0  0
  -24.8726  -28.9309   20.1105 C   0  0  0  0  0  0
  -22.7502  -29.4615   22.4918 C   0  0  0  0  0  0
  -18.0295  -28.1385   22.8466 C   0  0  0  0  0  0
  -24.1492  -36.7287   23.2638 C   0  0  0  0  0  0
  -25.9768  -30.7647   21.3838 C   0  0  0  0  0  0
  -26.0461  -29.3896   20.7218 C   0  0  0  0  0  0
  -27.2173  -28.5640   20.7206 C   0  0  0  0  0  0
  -26.0123  -26.8773   19.4716 C   0  0  0  0  0  0
  -24.8605  -27.6827   19.4752 C   0  0  0  0  0  0
  -23.6445  -29.8166   20.1599 C   0  0  0  0  0  0
  -25.4117  -36.3079   24.0323 C   0  0  1  0  0  0
  -20.5895  -28.3697   23.1254 C   0  0  2  0  0  0
  -20.6784  -26.9414   22.5394 C   0  0  0  0  0  0
  -19.5769  -26.6377   21.5192 C   0  0  0  0  0  0
  -18.1948  -26.7922   22.1604 C   0  0  0  0  0  0
  -19.1546  -28.8857   23.2849 C   0  0  0  0  0  0
  -18.9466  -30.1458   23.8866 C   0  0  0  0  0  0
  -17.6468  -30.6584   24.0558 C   0  0  0  0  0  0
  -25.9053  -34.9445   23.5095 C   0  0  0  0  0  0
  -16.5357  -29.9080   23.6335 C   0  0  0  0  0  0
  -16.7281  -28.6499   23.0351 C   0  0  0  0  0  0
  -26.4489  -31.6601   25.0749 C   0  0  0  0  0  0
  -25.3696  -31.3762   26.1459 C   0  0  0  0  0  0
  -27.0348  -30.3015   24.6262 C   0  0  0  0  0  0
  -27.6042  -32.4346   25.7520 C   0  0  0  0  0  0
  -27.5588  -37.1790   24.8456 C   0  0  0  0  0  0
  -21.4218  -29.3042   22.3640 N   0  0  0  0  0  0
  -26.4291  -37.3779   23.9410 N   0  0  0  0  0  0
  -24.6978  -31.0521   22.0977 N   0  0  0  0  0  0
  -23.4197  -28.8146   23.3012 O   0  0  0  0  0  0
  -28.2836  -26.3384   20.2004 O   0  0  0  0  0  0
  -26.5634  -34.8915   22.4668 O   0  0  0  0  0  0
  -23.5459  -32.1404   23.7272 O   0  0  0  0  0  0
  -28.7710  -18.1074   18.0807 C   0  0  0  0  0  0
  -29.1766  -16.9705   18.8046 C   0  0  0  0  0  0
  -28.7616  -19.3905   18.6646 C   0  0  0  0  0  0
  -29.5503  -18.4027   20.7388 C   0  0  0  0  0  0
  -29.5736  -17.0690   20.1540 C   0  0  0  0  0  0
  -29.1608  -19.6096   20.0068 C   0  0  0  0  0  0
  -31.3967  -21.6465   21.4324 C   0  0  0  0  0  0
  -30.1430  -21.1837   21.5833 C   0  0  0  0  0  0
  -28.5477  -22.1510   20.0767 C   0  0  0  0  0  0
  -28.9558  -23.6622   20.4501 C   0  0  0  0  0  0
  -27.9904  -24.8746   19.9854 C   0  0  0  0  0  0
  -29.8267  -15.7997   20.8721 N   0  0  0  0  0  0
  -29.2454  -21.0160   20.5278 N   0  0  0  0  0  0
  -27.5367  -22.0317   19.3746 O   0  0  0  0  0  0
  -31.4782  -12.5499   19.1991 H   0  0  0  0  0  0
  -30.3628  -11.4446   19.9430 H   0  0  0  0  0  0
  -29.8008  -11.7676   17.5087 H   0  0  0  0  0  0
  -29.6567  -13.4888   17.7519 H   0  0  0  0  0  0
  -27.8835  -11.2988   18.8828 H   0  0  0  0  0  0
  -27.3888  -12.5680   17.7969 H   0  0  0  0  0  0
  -27.6571  -14.2604   19.5104 H   0  0  0  0  0  0
  -28.7055  -12.1041   21.4091 H   0  0  0  0  0  0
  -28.4183  -13.7698   21.8338 H   0  0  0  0  0  0
  -25.2756   -9.5718   22.4742 H   0  0  0  0  0  0
  -24.0017   -7.4645   22.7466 H   0  0  0  0  0  0
  -21.0829   -8.8764   19.8952 H   0  0  0  0  0  0
  -22.3665  -10.9667   19.6162 H   0  0  0  0  0  0
  -21.2023   -7.6153   23.9729 H   0  0  0  0  0  0
  -21.1487   -6.0510   25.9072 H   0  0  0  0  0  0
  -22.0590   -2.7611   23.2834 H   0  0  0  0  0  0
  -22.4064  -11.9954   22.4867 H   0  0  0  0  0  0
  -21.1046  -13.1277   22.2567 H   0  0  0  0  0  0
  -24.6615  -15.8495   20.5298 H   0  0  0  0  0  0
  -26.2826  -15.6281   20.1003 H   0  0  0  0  0  0
  -26.7196  -32.5396   23.1082 H   0  0  0  0  0  0
  -25.0078  -33.9705   25.0408 H   0  0  0  0  0  0
  -22.7244  -31.3030   21.3983 H   0  0  0  0  0  0
  -23.3769  -35.9604   23.3280 H   0  0  0  0  0  0
  -24.3588  -36.8934   22.2058 H   0  0  0  0  0  0
  -23.7218  -37.6466   23.6680 H   0  0  0  0  0  0
  -26.1213  -31.5254   20.6158 H   0  0  0  0  0  0
  -26.8519  -30.8093   22.0207 H   0  0  0  0  0  0
  -28.1120  -28.9045   21.2228 H   0  0  0  0  0  0
  -25.9248  -25.9277   18.9662 H   0  0  0  0  0  0
  -23.9637  -27.3252   18.9898 H   0  0  0  0  0  0
  -23.7666  -30.5922   19.4035 H   0  0  0  0  0  0
  -22.7636  -29.2483   19.8566 H   0  0  0  0  0  0
  -25.1293  -36.1940   25.0813 H   0  0  0  0  0  0
  -20.9981  -28.3277   24.1378 H   0  0  0  0  0  0
  -20.5685  -26.2301   23.3598 H   0  0  0  0  0  0
  -21.6652  -26.7447   22.1188 H   0  0  0  0  0  0
  -19.6933  -25.6284   21.1238 H   0  0  0  0  0  0
  -19.6716  -27.3169   20.6712 H   0  0  0  0  0  0
  -17.4214  -26.6659   21.4013 H   0  0  0  0  0  0
  -18.0364  -26.0072   22.9014 H   0  0  0  0  0  0
  -19.7949  -30.7281   24.2214 H   0  0  0  0  0  0
  -17.5031  -31.6263   24.5174 H   0  0  0  0  0  0
  -15.5358  -30.2976   23.7685 H   0  0  0  0  0  0
  -15.8684  -28.0823   22.7073 H   0  0  0  0  0  0
  -24.5845  -30.7149   25.7775 H   0  0  0  0  0  0
  -24.8914  -32.2942   26.4892 H   0  0  0  0  0  0
  -25.7984  -30.8918   27.0241 H   0  0  0  0  0  0
  -26.2953  -29.6752   24.1260 H   0  0  0  0  0  0
  -27.3990  -29.7290   25.4804 H   0  0  0  0  0  0
  -27.8849  -30.4289   23.9555 H   0  0  0  0  0  0
  -27.2647  -33.3642   26.2106 H   0  0  0  0  0  0
  -28.3848  -32.6916   25.0345 H   0  0  0  0  0  0
  -28.0728  -31.8474   26.5430 H   0  0  0  0  0  0
  -28.2579  -38.0116   24.7538 H   0  0  0  0  0  0
  -28.1107  -36.2640   24.6239 H   0  0  0  0  0  0
  -27.2302  -37.1388   25.8857 H   0  0  0  0  0  0
  -20.9404  -29.8762   21.6845 H   0  0  0  0  0  0
  -26.0177  -38.2850   24.1429 H   0  0  0  0  0  0
  -28.4574  -17.9905   17.0523 H   0  0  0  0  0  0
  -29.1434  -16.0081   18.3121 H   0  0  0  0  0  0
  -28.4601  -20.2132   18.0318 H   0  0  0  0  0  0
  -29.8465  -18.5011   21.7733 H   0  0  0  0  0  0
  -32.0613  -21.7503   22.2774 H   0  0  0  0  0  0
  -31.7828  -21.9281   20.4619 H   0  0  0  0  0  0
  -29.7330  -20.8886   22.5399 H   0  0  0  0  0  0
  -29.9424  -23.8297   20.0193 H   0  0  0  0  0  0
  -29.0810  -23.7186   21.5309 H   0  0  0  0  0  0
  -27.0329  -24.6606   20.4618 H   0  0  0  0  0  0
  -27.8239  -24.7509   18.9150 H   0  0  0  0  0  0
  -29.0556  -15.5265   21.4629 H   0  0  0  0  0  0
  1 25  1  0  0  0
  1 30  2  0  0  0
  1 82  1  0  0  0
  2  3  1  0  0  0
  2 25  1  0  0  0
  2 85  1  0  0  0
  2 86  1  0  0  0
  3  4  1  0  0  0
  3 87  1  0  0  0
  3 88  1  0  0  0
  4  5  1  0  0  0
  4 89  1  0  0  0
  4 90  1  0  0  0
  5  6  1  0  0  0
  5 26  1  0  0  0
  5 91  1  0  0  0
  6 25  1  0  0  0
  6 92  1  0  0  0
  6 93  1  0  0  0
  7  8  2  0  0  0
  7 26  1  0  0  0
  7 29  1  0  0  0
  8  9  1  0  0  0
  8 22  1  0  0  0
  9 10  1  0  0  0
  9 27  2  0  0  0
 10 11  2  0  0  0
 10 15  1  0  0  0
 11 12  1  0  0  0
 11 94  1  0  0  0
 12 13  2  0  0  0
 12 95  1  0  0  0
 13 14  1  0  0  0
 13 31  1  0  0  0
 14 15  2  0  0  0
 14 96  1  0  0  0
 15 97  1  0  0  0
 16 17  2  0  0  0
 16 21  1  0  0  0
 16 31  1  0  0  0
 17 18  1  0  0  0
 17 98  1  0  0  0
 18 19  2  0  0  0
 18 99  1  0  0  0
 19 20  1  0  0  0
 19 24  1  0  0  0
 20 21  2  0  0  0
 20100  1  0  0  0
 21 23  1  0  0  0
 22 28  1  0  0  0
 22 32  2  0  0  0
 26 27  1  0  0  0
 28101  1  0  0  0
 28102  1  0  0  0
 29103  1  0  0  0
 29104  1  0  0  0
 33 34  1  0  0  0
 33 66  1  0  0  0
 33 70  2  0  0  0
 34 36  1  0  0  0
 34 59  1  0  0  0
 34105  1  0  0  0
 35 44  2  0  0  0
 35 45  1  0  0  0
 35 68  1  0  0  0
 36 56  1  0  0  0
 36106  1  0  0  0
 37 39  1  0  0  0
 37 47  1  0  0  0
 37 66  1  0  0  0
 37107  1  0  0  0
 38 43  2  0  0  0
 38 46  1  0  0  0
 38 47  1  0  0  0
 39 64  1  0  0  0
 39 67  2  0  0  0
 40 52  1  0  0  0
 40 53  2  0  0  0
 40 58  1  0  0  0
 41108  1  0  0  0
 41109  1  0  0  0
 41110  1  0  0  0
 41 48  1  0  0  0
 42 43  1  0  0  0
 42 66  1  0  0  0
 42111  1  0  0  0
 42112  1  0  0  0
 43 44  1  0  0  0
 44113  1  0  0  0
 45 46  2  0  0  0
 45114  1  0  0  0
 46115  1  0  0  0
 47116  1  0  0  0
 47117  1  0  0  0
 48 56  1  0  0  0
 48 65  1  0  0  0
 48118  1  0  0  0
 49 50  1  0  0  0
 49 53  1  0  0  0
 49 64  1  0  0  0
 49119  1  0  0  0
 50 51  1  0  0  0
 50120  1  0  0  0
 50121  1  0  0  0
 51 52  1  0  0  0
 51122  1  0  0  0
 51123  1  0  0  0
 52124  1  0  0  0
 52125  1  0  0  0
 53 54  1  0  0  0
 54 55  2  0  0  0
 54126  1  0  0  0
 55 57  1  0  0  0
 55127  1  0  0  0
 56 69  2  0  0  0
 57 58  2  0  0  0
 57128  1  0  0  0
 58129  1  0  0  0
 59 60  1  0  0  0
 59 61  1  0  0  0
 59 62  1  0  0  0
 60130  1  0  0  0
 60131  1  0  0  0
 60132  1  0  0  0
 61133  1  0  0  0
 61134  1  0  0  0
 61135  1  0  0  0
 62136  1  0  0  0
 62137  1  0  0  0
 62138  1  0  0  0
 63 65  1  0  0  0
 63139  1  0  0  0
 63140  1  0  0  0
 63141  1  0  0  0
 64142  1  0  0  0
 65143  1  0  0  0
 68 81  1  0  0  0
 71 72  2  0  0  0
 71 73  1  0  0  0
 71144  1  0  0  0
 72 75  1  0  0  0
 72145  1  0  0  0
 73 76  2  0  0  0
 73146  1  0  0  0
 74 75  2  0  0  0
 74 76  1  0  0  0
 74147  1  0  0  0
 75 82  1  0  0  0
 76 83  1  0  0  0
 77 78  2  0  0  0
 77148  1  0  0  0
 77149  1  0  0  0
 78 83  1  0  0  0
 78150  1  0  0  0
 79 80  1  0  0  0
 79 83  1  0  0  0
 79 84  2  0  0  0
 80 81  1  0  0  0
 80151  1  0  0  0
 80152  1  0  0  0
 81153  1  0  0  0
 81154  1  0  0  0
 82155  1  0  0  0
M  ISO  4   1 100  68 101  81 101  82 100
M  END
> <chiral flag>
0

> <version>
0

> <s_m_source_file>
/data/baiqing/PycharmProjects/Reinvent-master-3.2/result/LINK_invent/BTK/process_docking_weight1_custom_product_contain_oxygen_bond_distance_aromatic_linkinvent_7_9_3/rearranged_h_0076.sdf

> <i_m_source_file_index>
88

> <r_mmod_Potential_Energy-OPLS-2005>
313.438201904297

> <r_mmod_Stretch_Energy-OPLS-2005>
129.291534423828

> <r_mmod_Bend_Energy-OPLS-2005>
156.110061645508

> <r_mmod_Torsional_Energy-OPLS-2005>
323.523468017578

> <r_mmod_Improper_Torsional_Energy-OPLS-2005>
5.84355306625366

> <r_mmod_Van_der_Waal_Energy-OPLS-2005>
149.735458374023

> <r_mmod_Electrostatic_Energy-OPLS-2005>
-312.620910644531

> <r_mmod_Solvation_Energy-OPLS-2005>
-220.109527587891

> <b_mmod_Minimization_Converged-OPLS-2005>
0

> <r_mmod_RMS_Derivative-OPLS-2005>
2.40089654922485

$$$$
88
                    3D
 Structure written by MMmdl.
165174  0  0  1  0            999 V2000
  -30.7124  -14.5893   20.4168 C   0  0  0  0  0  0
  -30.4083  -12.3405   19.4429 C   0  0  0  0  0  0
  -29.4793  -12.4175   18.2150 C   0  0  0  0  0  0
  -28.0005  -12.3229   18.6433 C   0  0  0  0  0  0
  -27.6336  -13.2159   19.8650 C   0  0  2  0  0  0
  -28.7028  -13.1362   20.9772 C   0  0  0  0  0  0
  -25.2374  -13.8010   20.5778 C   0  0  0  0  0  0
  -24.1678  -13.0264   20.9186 C   0  0  0  0  0  0
  -24.6348  -11.6790   20.8761 C   0  0  0  0  0  0
  -23.9064  -10.4193   21.0386 C   0  0  0  0  0  0
  -24.3619   -9.4119   21.9170 C   0  0  0  0  0  0
  -23.6294   -8.2172   22.0723 C   0  0  0  0  0  0
  -22.4274   -8.0220   21.3508 C   0  0  0  0  0  0
  -21.9907   -9.0194   20.4610 C   0  0  0  0  0  0
  -22.7240  -10.2064   20.3024 C   0  0  0  0  0  0
  -21.6826   -6.0713   22.5278 C   0  0  0  0  0  0
  -21.3988   -6.5639   23.8204 C   0  0  0  0  0  0
  -21.3648   -5.6805   24.9175 C   0  0  0  0  0  0
  -21.6044   -4.3065   24.7239 C   0  0  0  0  0  0
  -21.8811   -3.8138   23.4370 C   0  0  0  0  0  0
  -21.9191   -4.6940   22.3408 C   0  0  0  0  0  0
  -22.7694  -13.5043   21.1870 C   0  0  0  0  0  0
  -22.1655   -4.2120   21.0989 F   0  0  0  0  0  0
  -21.5639   -3.4573   25.7774 F   0  0  0  0  0  0
  -30.0077  -13.4172   20.3649 N   0  0  0  0  0  0
  -26.2905  -12.9280   20.3523 N   0  0  0  0  0  0
  -25.9307  -11.6425   20.5942 N   0  0  0  0  0  0
  -22.0399  -12.8001   22.0450 N   0  0  0  0  0  0
  -25.3899  -15.1700   20.4312 N   0  0  0  0  0  0
  -31.9328  -14.5984   20.2582 O   0  0  0  0  0  0
  -21.6607   -6.8848   21.4235 O   0  0  0  0  0  0
  -22.3388  -14.5403   20.6809 O   0  0  0  0  0  0
  -24.6142  -31.8666   23.2022 C   0  0  0  0  0  0
  -25.9023  -32.4821   23.8362 C   0  0  1  0  0  0
  -27.2632  -27.4178   20.1213 C   0  0  0  0  0  0
  -25.5869  -33.8617   24.2295 N   0  0  0  0  0  0
  -23.4048  -30.4822   21.5423 C   0  0  2  0  0  0
  -24.8589  -28.9348   20.1190 C   0  0  0  0  0  0
  -22.7412  -29.4655   22.4974 C   0  0  0  0  0  0
  -18.0273  -28.1379   22.8484 C   0  0  0  0  0  0
  -24.1480  -36.7318   23.2640 C   0  0  0  0  0  0
  -25.9309  -30.8276   21.3549 C   0  0  0  0  0  0
  -26.0135  -29.4568   20.7117 C   0  0  0  0  0  0
  -27.2122  -28.7073   20.7040 C   0  0  0  0  0  0
  -26.0861  -26.9050   19.5285 C   0  0  0  0  0  0
  -24.8908  -27.6595   19.5222 C   0  0  0  0  0  0
  -23.6165  -29.7994   20.1620 C   0  0  0  0  0  0
  -25.4111  -36.3120   24.0329 C   0  0  1  0  0  0
  -20.5859  -28.3682   23.1288 C   0  0  2  0  0  0
  -20.6759  -26.9412   22.5416 C   0  0  0  0  0  0
  -19.5743  -26.6381   21.5201 C   0  0  0  0  0  0
  -18.1915  -26.7923   22.1607 C   0  0  0  0  0  0
  -19.1523  -28.8843   23.2889 C   0  0  0  0  0  0
  -18.9459  -30.1444   23.8901 C   0  0  0  0  0  0
  -17.6465  -30.6587   24.0557 C   0  0  0  0  0  0
  -25.9041  -34.9478   23.5128 C   0  0  0  0  0  0
  -16.5357  -29.9096   23.6321 C   0  0  0  0  0  0
  -16.7263  -28.6517   23.0339 C   0  0  0  0  0  0
  -26.4430  -31.6608   25.0705 C   0  0  0  0  0  0
  -25.3664  -31.3705   26.1419 C   0  0  0  0  0  0
  -27.0276  -30.3058   24.6092 C   0  0  0  0  0  0
  -27.6009  -32.4311   25.7483 C   0  0  0  0  0  0
  -27.5588  -37.1817   24.8464 C   0  0  0  0  0  0
  -21.4139  -29.3042   22.3689 N   0  0  0  0  0  0
  -26.4304  -37.3808   23.9403 N   0  0  0  0  0  0
  -24.6678  -31.0749   22.0926 N   0  0  0  0  0  0
  -23.4169  -28.8214   23.3041 O   0  0  0  0  0  0
  -28.4704  -26.7353   20.1527 O   0  0  0  0  0  0
  -26.5632  -34.8940   22.4708 O   0  0  0  0  0  0
  -23.5329  -32.1420   23.7410 O   0  0  0  0  0  0
  -31.7266  -19.0450   20.5641 C   0  0  0  0  0  0
  -31.5402  -17.6490   20.4584 C   0  0  0  0  0  0
  -29.4039  -19.3242   21.1304 C   0  0  0  0  0  0
  -29.1927  -17.9233   20.9973 C   0  0  0  0  0  0
  -30.6454  -19.9306   20.8261 C   0  0  0  0  0  0
  -30.2652  -17.0541   20.6223 C   0  0  0  0  0  0
  -30.5678  -23.6455   20.3913 C   0  0  0  0  0  0
  -31.9810  -23.3775   20.4434 C   0  0  0  0  0  0
  -29.8859  -22.3657   20.6145 C   0  0  0  0  0  0
  -32.9792  -24.2693   20.3060 C   0  0  0  0  0  0
  -30.0047  -24.8563   20.1047 C   0  0  0  0  0  0
  -27.8227  -17.4147   21.2519 C   0  0  0  0  0  0
  -32.1993  -21.9136   20.6410 C   0  0  0  0  0  0
  -26.6482  -18.2702   20.7757 C   0  0  0  0  0  0
  -29.7633  -15.8488   18.6215 C   0  0  0  0  0  0
  -28.5476  -25.3116   19.9418 C   0  0  0  0  0  0
  -30.8371  -21.3744   20.7477 N   0  0  0  0  0  0
  -30.0229  -15.7289   20.0716 N   0  0  0  0  0  0
  -28.6629  -22.2075   20.6633 O   0  0  0  0  0  0
  -27.5963  -16.3356   21.7997 O   0  0  0  0  0  0
  -31.4513  -12.4162   19.1291 H   0  0  0  0  0  0
  -30.3083  -11.3705   19.9336 H   0  0  0  0  0  0
  -29.7110  -11.6045   17.5254 H   0  0  0  0  0  0
  -29.6500  -13.3290   17.6486 H   0  0  0  0  0  0
  -27.8203  -11.2778   18.8970 H   0  0  0  0  0  0
  -27.3434  -12.5494   17.8028 H   0  0  0  0  0  0
  -27.5973  -14.2415   19.5166 H   0  0  0  0  0  0
  -28.7166  -12.1450   21.4342 H   0  0  0  0  0  0
  -28.4859  -13.8476   21.7752 H   0  0  0  0  0  0
  -25.2735   -9.5616   22.4782 H   0  0  0  0  0  0
  -23.9954   -7.4578   22.7465 H   0  0  0  0  0  0
  -21.0816   -8.8751   19.8960 H   0  0  0  0  0  0
  -22.3666  -10.9631   19.6172 H   0  0  0  0  0  0
  -21.1944   -7.6147   23.9716 H   0  0  0  0  0  0
  -21.1471   -6.0523   25.9092 H   0  0  0  0  0  0
  -22.0595   -2.7604   23.2878 H   0  0  0  0  0  0
  -22.4085  -11.9654   22.4771 H   0  0  0  0  0  0
  -21.1033  -13.0981   22.2800 H   0  0  0  0  0  0
  -24.6162  -15.7293   20.7701 H   0  0  0  0  0  0
  -26.2799  -15.5285   20.7701 H   0  0  0  0  0  0
  -26.7110  -32.5541   23.1149 H   0  0  0  0  0  0
  -24.9973  -33.9779   25.0403 H   0  0  0  0  0  0
  -22.6942  -31.2970   21.3924 H   0  0  0  0  0  0
  -23.3755  -35.9642   23.3305 H   0  0  0  0  0  0
  -24.3569  -36.8947   22.2060 H   0  0  0  0  0  0
  -23.7217  -37.6511   23.6663 H   0  0  0  0  0  0
  -26.0344  -31.5847   20.5763 H   0  0  0  0  0  0
  -26.8212  -30.8945   21.9693 H   0  0  0  0  0  0
  -28.1037  -29.1130   21.1607 H   0  0  0  0  0  0
  -26.0828  -25.9269   19.0698 H   0  0  0  0  0  0
  -24.0010  -27.2479   19.0649 H   0  0  0  0  0  0
  -23.7182  -30.5643   19.3908 H   0  0  0  0  0  0
  -22.7449  -29.2082   19.8769 H   0  0  0  0  0  0
  -25.1292  -36.1994   25.0824 H   0  0  0  0  0  0
  -20.9953  -28.3269   24.1409 H   0  0  0  0  0  0
  -20.5632  -26.2312   23.3624 H   0  0  0  0  0  0
  -21.6631  -26.7425   22.1230 H   0  0  0  0  0  0
  -19.6904  -25.6288   21.1246 H   0  0  0  0  0  0
  -19.6681  -27.3181   20.6726 H   0  0  0  0  0  0
  -17.4192  -26.6671   21.4005 H   0  0  0  0  0  0
  -18.0313  -26.0062   22.9001 H   0  0  0  0  0  0
  -19.7940  -30.7242   24.2287 H   0  0  0  0  0  0
  -17.5031  -31.6265   24.5163 H   0  0  0  0  0  0
  -15.5365  -30.3009   23.7626 H   0  0  0  0  0  0
  -15.8661  -28.0835   22.7045 H   0  0  0  0  0  0
  -24.5856  -30.7049   25.7711 H   0  0  0  0  0  0
  -24.8815  -32.2859   26.4833 H   0  0  0  0  0  0
  -25.7974  -30.8878   27.0202 H   0  0  0  0  0  0
  -26.2850  -29.6835   24.1080 H   0  0  0  0  0  0
  -27.3986  -29.7272   25.4569 H   0  0  0  0  0  0
  -27.8698  -30.4393   23.9288 H   0  0  0  0  0  0
  -27.2644  -33.3612   26.2076 H   0  0  0  0  0  0
  -28.3816  -32.6870   25.0304 H   0  0  0  0  0  0
  -28.0672  -31.8409   26.5387 H   0  0  0  0  0  0
  -28.2606  -38.0117   24.7541 H   0  0  0  0  0  0
  -28.1089  -36.2655   24.6266 H   0  0  0  0  0  0
  -27.2307  -37.1442   25.8867 H   0  0  0  0  0  0
  -20.9309  -29.8782   21.6918 H   0  0  0  0  0  0
  -26.0196  -38.2891   24.1401 H   0  0  0  0  0  0
  -32.7227  -19.4111   20.3671 H   0  0  0  0  0  0
  -32.3848  -17.0559   20.1345 H   0  0  0  0  0  0
  -28.5707  -19.9404   21.4347 H   0  0  0  0  0  0
  -32.8014  -25.3218   20.1476 H   0  0  0  0  0  0
  -34.0122  -23.9515   20.3465 H   0  0  0  0  0  0
  -30.6883  -25.6672   19.9079 H   0  0  0  0  0  0
  -32.7779  -21.7084   21.5428 H   0  0  0  0  0  0
  -32.7261  -21.5203   19.7697 H   0  0  0  0  0  0
  -26.9662  -19.1807   20.2681 H   0  0  0  0  0  0
  -26.0190  -18.5431   21.6207 H   0  0  0  0  0  0
  -26.0411  -17.7081   20.0691 H   0  0  0  0  0  0
  -29.6639  -16.8861   18.2967 H   0  0  0  0  0  0
  -28.8412  -15.3705   18.3141 H   0  0  0  0  0  0
  -30.5776  -15.4271   18.0251 H   0  0  0  0  0  0
  -27.8886  -24.7813   20.6285 H   0  0  0  0  0  0
  -28.2413  -25.0858   18.9199 H   0  0  0  0  0  0
  1 25  1  0  0  0
  1 30  2  0  0  0
  1 88  1  0  0  0
  2  3  1  0  0  0
  2 25  1  0  0  0
  2 91  1  0  0  0
  2 92  1  0  0  0
  3  4  1  0  0  0
  3 93  1  0  0  0
  3 94  1  0  0  0
  4  5  1  0  0  0
  4 95  1  0  0  0
  4 96  1  0  0  0
  5  6  1  0  0  0
  5 26  1  0  0  0
  5 97  1  0  0  0
  6 25  1  0  0  0
  6 98  1  0  0  0
  6 99  1  0  0  0
  7  8  2  0  0  0
  7 26  1  0  0  0
  7 29  1  0  0  0
  8  9  1  0  0  0
  8 22  1  0  0  0
  9 10  1  0  0  0
  9 27  2  0  0  0
 10 11  2  0  0  0
 10 15  1  0  0  0
 11 12  1  0  0  0
 11100  1  0  0  0
 12 13  2  0  0  0
 12101  1  0  0  0
 13 14  1  0  0  0
 13 31  1  0  0  0
 14 15  2  0  0  0
 14102  1  0  0  0
 15103  1  0  0  0
 16 17  2  0  0  0
 16 21  1  0  0  0
 16 31  1  0  0  0
 17 18  1  0  0  0
 17104  1  0  0  0
 18 19  2  0  0  0
 18105  1  0  0  0
 19 20  1  0  0  0
 19 24  1  0  0  0
 20 21  2  0  0  0
 20106  1  0  0  0
 21 23  1  0  0  0
 22 28  1  0  0  0
 22 32  2  0  0  0
 26 27  1  0  0  0
 28107  1  0  0  0
 28108  1  0  0  0
 29109  1  0  0  0
 29110  1  0  0  0
 33 34  1  0  0  0
 33 66  1  0  0  0
 33 70  2  0  0  0
 34 36  1  0  0  0
 34 59  1  0  0  0
 34111  1  0  0  0
 35 44  2  0  0  0
 35 45  1  0  0  0
 35 68  1  0  0  0
 36 56  1  0  0  0
 36112  1  0  0  0
 37 39  1  0  0  0
 37 47  1  0  0  0
 37 66  1  0  0  0
 37113  1  0  0  0
 38 43  2  0  0  0
 38 46  1  0  0  0
 38 47  1  0  0  0
 39 64  1  0  0  0
 39 67  2  0  0  0
 40 52  1  0  0  0
 40 53  2  0  0  0
 40 58  1  0  0  0
 41114  1  0  0  0
 41115  1  0  0  0
 41116  1  0  0  0
 41 48  1  0  0  0
 42 43  1  0  0  0
 42 66  1  0  0  0
 42117  1  0  0  0
 42118  1  0  0  0
 43 44  1  0  0  0
 44119  1  0  0  0
 45 46  2  0  0  0
 45120  1  0  0  0
 46121  1  0  0  0
 47122  1  0  0  0
 47123  1  0  0  0
 48 56  1  0  0  0
 48 65  1  0  0  0
 48124  1  0  0  0
 49 50  1  0  0  0
 49 53  1  0  0  0
 49 64  1  0  0  0
 49125  1  0  0  0
 50 51  1  0  0  0
 50126  1  0  0  0
 50127  1  0  0  0
 51 52  1  0  0  0
 51128  1  0  0  0
 51129  1  0  0  0
 52130  1  0  0  0
 52131  1  0  0  0
 53 54  1  0  0  0
 54 55  2  0  0  0
 54132  1  0  0  0
 55 57  1  0  0  0
 55133  1  0  0  0
 56 69  2  0  0  0
 57 58  2  0  0  0
 57134  1  0  0  0
 58135  1  0  0  0
 59 60  1  0  0  0
 59 61  1  0  0  0
 59 62  1  0  0  0
 60136  1  0  0  0
 60137  1  0  0  0
 60138  1  0  0  0
 61139  1  0  0  0
 61140  1  0  0  0
 61141  1  0  0  0
 62142  1  0  0  0
 62143  1  0  0  0
 62144  1  0  0  0
 63 65  1  0  0  0
 63145  1  0  0  0
 63146  1  0  0  0
 63147  1  0  0  0
 64148  1  0  0  0
 65149  1  0  0  0
 68 86  1  0  0  0
 71 72  2  0  0  0
 71 75  1  0  0  0
 71150  1  0  0  0
 72 76  1  0  0  0
 72151  1  0  0  0
 73 74  1  0  0  0
 73 75  2  0  0  0
 73152  1  0  0  0
 74 76  2  0  0  0
 74 82  1  0  0  0
 75 87  1  0  0  0
 76 88  1  0  0  0
 77 78  1  0  0  0
 77 79  1  0  0  0
 77 81  2  0  0  0
 78 80  2  0  0  0
 78 83  1  0  0  0
 79 87  1  0  0  0
 79 89  2  0  0  0
 80153  1  0  0  0
 80154  1  0  0  0
 81 86  1  0  0  0
 81155  1  0  0  0
 82 84  1  0  0  0
 82 90  2  0  0  0
 83 87  1  0  0  0
 83156  1  0  0  0
 83157  1  0  0  0
 84158  1  0  0  0
 84159  1  0  0  0
 84160  1  0  0  0
 85 88  1  0  0  0
 85161  1  0  0  0
 85162  1  0  0  0
 85163  1  0  0  0
 86164  1  0  0  0
 86165  1  0  0  0
M  ISO  4   1 100  68 101  86 101  88 100
M  END
> <chiral flag>
0

> <version>
0

> <s_m_source_file>
/data/baiqing/PycharmProjects/Reinvent-master-3.2/result/LINK_invent/BTK/process_docking_weight1_custom_product_contain_oxygen_bond_distance_aromatic_linkinvent_7_9_3/rearranged_h_0076.sdf

> <i_m_source_file_index>
89

> <r_mmod_Potential_Energy-OPLS-2005>
409.00732421875

> <r_mmod_Stretch_Energy-OPLS-2005>
60.3066253662109

> <r_mmod_Bend_Energy-OPLS-2005>
188.042846679688

> <r_mmod_Torsional_Energy-OPLS-2005>
415.063110351562

> <r_mmod_Improper_Torsional_Energy-OPLS-2005>
30.7247581481934

> <r_mmod_Van_der_Waal_Energy-OPLS-2005>
163.906448364258

> <r_mmod_Electrostatic_Energy-OPLS-2005>
-298.625946044922

> <r_mmod_Solvation_Energy-OPLS-2005>
-192.054885864258

> <b_mmod_Minimization_Converged-OPLS-2005>
0

> <r_mmod_RMS_Derivative-OPLS-2005>
3.41837549209595

$$$$
89
                    3D
 Structure written by MMmdl.
158167  0  0  1  0            999 V2000
  -30.6048  -14.8405   20.4219 C   0  0  0  0  0  0
  -30.4275  -12.5118   19.4901 C   0  0  0  0  0  0
  -29.5135  -12.5189   18.2455 C   0  0  0  0  0  0
  -28.0412  -12.3324   18.6580 C   0  0  0  0  0  0
  -27.6340  -13.2479   19.8440 C   0  0  2  0  0  0
  -28.6791  -13.2387   20.9801 C   0  0  0  0  0  0
  -25.2470  -13.8219   20.5709 C   0  0  0  0  0  0
  -24.1783  -13.0444   20.9224 C   0  0  0  0  0  0
  -24.6398  -11.6927   20.8753 C   0  0  0  0  0  0
  -23.9084  -10.4293   21.0403 C   0  0  0  0  0  0
  -24.3630   -9.4209   21.9181 C   0  0  0  0  0  0
  -23.6298   -8.2246   22.0751 C   0  0  0  0  0  0
  -22.4284   -8.0286   21.3542 C   0  0  0  0  0  0
  -21.9924   -9.0260   20.4646 C   0  0  0  0  0  0
  -22.7254  -10.2136   20.3050 C   0  0  0  0  0  0
  -21.6857   -6.0739   22.5278 C   0  0  0  0  0  0
  -21.4020   -6.5643   23.8215 C   0  0  0  0  0  0
  -21.3661   -5.6797   24.9177 C   0  0  0  0  0  0
  -21.6042   -4.3057   24.7231 C   0  0  0  0  0  0
  -21.8815   -3.8147   23.4349 C   0  0  0  0  0  0
  -21.9194   -4.6962   22.3403 C   0  0  0  0  0  0
  -22.7799  -13.5205   21.1883 C   0  0  0  0  0  0
  -22.1662   -4.2147   21.0975 F   0  0  0  0  0  0
  -21.5629   -3.4538   25.7744 F   0  0  0  0  0  0
  -29.9700  -13.6082   20.3862 N   0  0  0  0  0  0
  -26.2910  -12.9456   20.3275 N   0  0  0  0  0  0
  -25.9333  -11.6589   20.5751 N   0  0  0  0  0  0
  -22.0452  -12.8186   22.0439 N   0  0  0  0  0  0
  -25.4119  -15.1946   20.4114 N   0  0  0  0  0  0
  -31.8093  -14.8584   20.1497 O   0  0  0  0  0  0
  -21.6645   -6.8880   21.4243 O   0  0  0  0  0  0
  -22.3483  -14.5510   20.6726 O   0  0  0  0  0  0
  -24.6394  -31.8506   23.1932 C   0  0  0  0  0  0
  -25.9175  -32.4744   23.8313 C   0  0  1  0  0  0
  -27.2152  -27.2000   20.1363 C   0  0  0  0  0  0
  -25.5941  -33.8554   24.2238 N   0  0  0  0  0  0
  -23.4413  -30.4715   21.5372 C   0  0  2  0  0  0
  -24.8918  -28.9161   20.0993 C   0  0  0  0  0  0
  -22.7558  -29.4575   22.4868 C   0  0  0  0  0  0
  -18.0313  -28.1397   22.8499 C   0  0  0  0  0  0
  -24.1477  -36.7258   23.2639 C   0  0  0  0  0  0
  -25.9922  -30.7428   21.3870 C   0  0  0  0  0  0
  -26.0666  -29.3621   20.7224 C   0  0  0  0  0  0
  -27.2339  -28.5162   20.7321 C   0  0  0  0  0  0
  -26.0278  -26.8505   19.4603 C   0  0  0  0  0  0
  -24.8830  -27.6714   19.4525 C   0  0  0  0  0  0
  -23.6634  -29.8088   20.1522 C   0  0  0  0  0  0
  -25.4116  -36.3072   24.0320 C   0  0  1  0  0  0
  -20.5922  -28.3732   23.1247 C   0  0  2  0  0  0
  -20.6796  -26.9449   22.5409 C   0  0  0  0  0  0
  -19.5757  -26.6403   21.5215 C   0  0  0  0  0  0
  -18.1944  -26.7946   22.1635 C   0  0  0  0  0  0
  -19.1566  -28.8879   23.2869 C   0  0  0  0  0  0
  -18.9482  -30.1474   23.8900 C   0  0  0  0  0  0
  -17.6482  -30.6598   24.0575 C   0  0  0  0  0  0
  -25.9068  -34.9447   23.5094 C   0  0  0  0  0  0
  -16.5374  -29.9101   23.6330 C   0  0  0  0  0  0
  -16.7300  -28.6506   23.0373 C   0  0  0  0  0  0
  -26.4507  -31.6576   25.0723 C   0  0  0  0  0  0
  -25.3695  -31.3747   26.1417 C   0  0  0  0  0  0
  -27.0343  -30.2976   24.6247 C   0  0  0  0  0  0
  -27.6062  -32.4309   25.7497 C   0  0  0  0  0  0
  -27.5576  -37.1796   24.8475 C   0  0  0  0  0  0
  -21.4254  -29.3050   22.3604 N   0  0  0  0  0  0
  -26.4289  -37.3775   23.9411 N   0  0  0  0  0  0
  -24.7097  -31.0415   22.0942 N   0  0  0  0  0  0
  -23.4199  -28.8142   23.3029 O   0  0  0  0  0  0
  -28.1881  -26.1547   20.2750 O   0  0  0  0  0  0
  -26.5651  -34.8942   22.4674 O   0  0  0  0  0  0
  -23.5520  -32.1389   23.7157 O   0  0  0  0  0  0
  -29.3164  -18.6726   20.5268 C   0  0  0  0  0  0
  -31.4394  -17.8698   19.7658 C   0  0  0  0  0  0
  -30.1848  -17.5016   20.3051 C   0  0  0  0  0  0
  -29.6907  -20.0698   20.2054 C   0  0  0  0  0  0
  -31.7461  -19.2101   19.4771 C   0  0  0  0  0  0
  -27.9783  -23.5501   20.8402 C   0  0  0  0  0  0
  -27.1880  -22.5389   21.5435 C   0  0  0  0  0  0
  -28.9396  -22.6564   20.0790 C   0  0  0  0  0  0
  -25.8938  -22.6493   21.9048 C   0  0  0  0  0  0
  -27.7649  -24.9568   20.9812 C   0  0  0  0  0  0
  -27.8397  -21.1858   21.5335 C   0  0  0  0  0  0
  -26.9945  -25.4355   22.2234 C   0  0  0  0  0  0
  -30.9192  -20.2486   19.6693 N   0  0  0  0  0  0
  -28.8606  -21.3004   20.5068 N   0  0  0  0  0  0
  -32.9816  -19.5486   18.9487 N   0  0  0  0  0  0
  -29.8617  -16.0348   20.5693 N   0  0  0  0  0  0
  -29.7040  -23.0590   19.1961 O   0  0  0  0  0  0
  -31.4691  -12.6247   19.1856 H   0  0  0  0  0  0
  -30.3750  -11.5499   20.0023 H   0  0  0  0  0  0
  -29.8091  -11.7330   17.5494 H   0  0  0  0  0  0
  -29.6296  -13.4625   17.7101 H   0  0  0  0  0  0
  -27.9068  -11.2857   18.9359 H   0  0  0  0  0  0
  -27.3844  -12.5065   17.8047 H   0  0  0  0  0  0
  -27.6095  -14.2596   19.4381 H   0  0  0  0  0  0
  -28.7362  -12.2567   21.4530 H   0  0  0  0  0  0
  -28.4023  -13.9436   21.7654 H   0  0  0  0  0  0
  -25.2768   -9.5691   22.4765 H   0  0  0  0  0  0
  -24.0013   -7.4638   22.7466 H   0  0  0  0  0  0
  -21.0857   -8.8770   19.8948 H   0  0  0  0  0  0
  -22.3702  -10.9673   19.6165 H   0  0  0  0  0  0
  -21.2014   -7.6151   23.9718 H   0  0  0  0  0  0
  -21.1489   -6.0525   25.9081 H   0  0  0  0  0  0
  -22.0591   -2.7605   23.2848 H   0  0  0  0  0  0
  -22.4081  -11.9858   22.4827 H   0  0  0  0  0  0
  -21.1065  -13.1189   22.2633 H   0  0  0  0  0  0
  -24.6358  -15.8406   20.5089 H   0  0  0  0  0  0
  -26.2475  -15.6355   20.0491 H   0  0  0  0  0  0
  -26.7253  -32.5372   23.1065 H   0  0  0  0  0  0
  -25.0027  -33.9667   25.0344 H   0  0  0  0  0  0
  -22.7389  -31.2946   21.3895 H   0  0  0  0  0  0
  -23.3748  -35.9575   23.3322 H   0  0  0  0  0  0
  -24.3550  -36.8864   22.2045 H   0  0  0  0  0  0
  -23.7222  -37.6462   23.6660 H   0  0  0  0  0  0
  -26.1384  -31.5018   20.6174 H   0  0  0  0  0  0
  -26.8643  -30.7918   22.0280 H   0  0  0  0  0  0
  -28.1193  -28.8346   21.2624 H   0  0  0  0  0  0
  -25.9629  -25.8806   18.9905 H   0  0  0  0  0  0
  -23.9883  -27.3213   18.9558 H   0  0  0  0  0  0
  -23.7939  -30.5891   19.4015 H   0  0  0  0  0  0
  -22.7780  -29.2480   19.8444 H   0  0  0  0  0  0
  -25.1307  -36.1922   25.0807 H   0  0  0  0  0  0
  -21.0030  -28.3344   24.1366 H   0  0  0  0  0  0
  -20.5674  -26.2371   23.3634 H   0  0  0  0  0  0
  -21.6659  -26.7456   22.1206 H   0  0  0  0  0  0
  -19.6923  -25.6306   21.1254 H   0  0  0  0  0  0
  -19.6670  -27.3196   20.6730 H   0  0  0  0  0  0
  -17.4215  -26.6699   21.4049 H   0  0  0  0  0  0
  -18.0342  -26.0072   22.9013 H   0  0  0  0  0  0
  -19.7955  -30.7289   24.2265 H   0  0  0  0  0  0
  -17.5036  -31.6272   24.5176 H   0  0  0  0  0  0
  -15.5369  -30.3010   23.7636 H   0  0  0  0  0  0
  -15.8701  -28.0821   22.7107 H   0  0  0  0  0  0
  -24.5891  -30.7067   25.7757 H   0  0  0  0  0  0
  -24.8830  -32.2904   26.4789 H   0  0  0  0  0  0
  -25.7976  -30.8976   27.0242 H   0  0  0  0  0  0
  -26.2940  -29.6717   24.1236 H   0  0  0  0  0  0
  -27.3963  -29.7264   25.4807 H   0  0  0  0  0  0
  -27.8862  -30.4211   23.9551 H   0  0  0  0  0  0
  -27.2683  -33.3632   26.2041 H   0  0  0  0  0  0
  -28.3894  -32.6811   25.0331 H   0  0  0  0  0  0
  -28.0696  -31.8428   26.5438 H   0  0  0  0  0  0
  -28.2627  -38.0064   24.7506 H   0  0  0  0  0  0
  -28.1044  -36.2598   24.6330 H   0  0  0  0  0  0
  -27.2285  -37.1492   25.8878 H   0  0  0  0  0  0
  -20.9467  -29.8758   21.6781 H   0  0  0  0  0  0
  -26.0172  -38.2855   24.1397 H   0  0  0  0  0  0
  -28.3417  -18.4939   20.9548 H   0  0  0  0  0  0
  -32.1880  -17.1243   19.5511 H   0  0  0  0  0  0
  -25.3192  -23.5527   21.7774 H   0  0  0  0  0  0
  -25.3609  -21.8010   22.3105 H   0  0  0  0  0  0
  -27.1206  -20.4061   21.2802 H   0  0  0  0  0  0
  -28.2847  -20.9592   22.5031 H   0  0  0  0  0  0
  -27.0465  -24.7218   23.0447 H   0  0  0  0  0  0
  -25.9480  -25.6464   22.0013 H   0  0  0  0  0  0
  -27.4432  -26.3425   22.6274 H   0  0  0  0  0  0
  -33.7499  -18.8954   19.0435 H   0  0  0  0  0  0
  -33.2665  -20.5210   18.9702 H   0  0  0  0  0  0
  -28.9032  -15.8626   20.8267 H   0  0  0  0  0  0
  1 25  1  0  0  0
  1 30  2  0  0  0
  1 86  1  0  0  0
  2  3  1  0  0  0
  2 25  1  0  0  0
  2 88  1  0  0  0
  2 89  1  0  0  0
  3  4  1  0  0  0
  3 90  1  0  0  0
  3 91  1  0  0  0
  4  5  1  0  0  0
  4 92  1  0  0  0
  4 93  1  0  0  0
  5  6  1  0  0  0
  5 26  1  0  0  0
  5 94  1  0  0  0
  6 25  1  0  0  0
  6 95  1  0  0  0
  6 96  1  0  0  0
  7  8  2  0  0  0
  7 26  1  0  0  0
  7 29  1  0  0  0
  8  9  1  0  0  0
  8 22  1  0  0  0
  9 10  1  0  0  0
  9 27  2  0  0  0
 10 11  2  0  0  0
 10 15  1  0  0  0
 11 12  1  0  0  0
 11 97  1  0  0  0
 12 13  2  0  0  0
 12 98  1  0  0  0
 13 14  1  0  0  0
 13 31  1  0  0  0
 14 15  2  0  0  0
 14 99  1  0  0  0
 15100  1  0  0  0
 16 17  2  0  0  0
 16 21  1  0  0  0
 16 31  1  0  0  0
 17 18  1  0  0  0
 17101  1  0  0  0
 18 19  2  0  0  0
 18102  1  0  0  0
 19 20  1  0  0  0
 19 24  1  0  0  0
 20 21  2  0  0  0
 20103  1  0  0  0
 21 23  1  0  0  0
 22 28  1  0  0  0
 22 32  2  0  0  0
 26 27  1  0  0  0
 28104  1  0  0  0
 28105  1  0  0  0
 29106  1  0  0  0
 29107  1  0  0  0
 33 34  1  0  0  0
 33 66  1  0  0  0
 33 70  2  0  0  0
 34 36  1  0  0  0
 34 59  1  0  0  0
 34108  1  0  0  0
 35 44  2  0  0  0
 35 45  1  0  0  0
 35 68  1  0  0  0
 36 56  1  0  0  0
 36109  1  0  0  0
 37 39  1  0  0  0
 37 47  1  0  0  0
 37 66  1  0  0  0
 37110  1  0  0  0
 38 43  2  0  0  0
 38 46  1  0  0  0
 38 47  1  0  0  0
 39 64  1  0  0  0
 39 67  2  0  0  0
 40 52  1  0  0  0
 40 53  2  0  0  0
 40 58  1  0  0  0
 41111  1  0  0  0
 41112  1  0  0  0
 41113  1  0  0  0
 41 48  1  0  0  0
 42 43  1  0  0  0
 42 66  1  0  0  0
 42114  1  0  0  0
 42115  1  0  0  0
 43 44  1  0  0  0
 44116  1  0  0  0
 45 46  2  0  0  0
 45117  1  0  0  0
 46118  1  0  0  0
 47119  1  0  0  0
 47120  1  0  0  0
 48 56  1  0  0  0
 48 65  1  0  0  0
 48121  1  0  0  0
 49 50  1  0  0  0
 49 53  1  0  0  0
 49 64  1  0  0  0
 49122  1  0  0  0
 50 51  1  0  0  0
 50123  1  0  0  0
 50124  1  0  0  0
 51 52  1  0  0  0
 51125  1  0  0  0
 51126  1  0  0  0
 52127  1  0  0  0
 52128  1  0  0  0
 53 54  1  0  0  0
 54 55  2  0  0  0
 54129  1  0  0  0
 55 57  1  0  0  0
 55130  1  0  0  0
 56 69  2  0  0  0
 57 58  2  0  0  0
 57131  1  0  0  0
 58132  1  0  0  0
 59 60  1  0  0  0
 59 61  1  0  0  0
 59 62  1  0  0  0
 60133  1  0  0  0
 60134  1  0  0  0
 60135  1  0  0  0
 61136  1  0  0  0
 61137  1  0  0  0
 61138  1  0  0  0
 62139  1  0  0  0
 62140  1  0  0  0
 62141  1  0  0  0
 63 65  1  0  0  0
 63142  1  0  0  0
 63143  1  0  0  0
 63144  1  0  0  0
 64145  1  0  0  0
 65146  1  0  0  0
 68 80  1  0  0  0
 71 73  2  0  0  0
 71 74  1  0  0  0
 71147  1  0  0  0
 72 73  1  0  0  0
 72 75  2  0  0  0
 72148  1  0  0  0
 73 86  1  0  0  0
 74 83  2  0  0  0
 74 84  1  0  0  0
 75 83  1  0  0  0
 75 85  1  0  0  0
 76 77  1  0  0  0
 76 78  1  0  0  0
 76 80  2  0  0  0
 77 79  2  0  0  0
 77 81  1  0  0  0
 78 84  1  0  0  0
 78 87  2  0  0  0
 79149  1  0  0  0
 79150  1  0  0  0
 80 82  1  0  0  0
 81 84  1  0  0  0
 81151  1  0  0  0
 81152  1  0  0  0
 82153  1  0  0  0
 82154  1  0  0  0
 82155  1  0  0  0
 85156  1  0  0  0
 85157  1  0  0  0
 86158  1  0  0  0
M  ISO  4   1 100  68 101  80 101  86 100
M  END
> <chiral flag>
0

> <version>
0

> <s_m_source_file>
/data/baiqing/PycharmProjects/Reinvent-master-3.2/result/LINK_invent/BTK/process_docking_weight1_custom_product_contain_oxygen_bond_distance_aromatic_linkinvent_7_9_3/rearranged_h_0076.sdf

> <i_m_source_file_index>
90

> <r_mmod_Potential_Energy-OPLS-2005>
368.637603759766

> <r_mmod_Stretch_Energy-OPLS-2005>
193.760620117188

> <r_mmod_Bend_Energy-OPLS-2005>
285.261291503906

> <r_mmod_Torsional_Energy-OPLS-2005>
293.867431640625

> <r_mmod_Improper_Torsional_Energy-OPLS-2005>
8.52250003814697

> <r_mmod_Van_der_Waal_Energy-OPLS-2005>
158.112228393555

> <r_mmod_Electrostatic_Energy-OPLS-2005>
-469.994537353516

> <r_mmod_Solvation_Energy-OPLS-2005>
-248.957626342773

> <b_mmod_Minimization_Converged-OPLS-2005>
0

> <r_mmod_RMS_Derivative-OPLS-2005>
2.54004859924316

$$$$
90
                    3D
 Structure written by MMmdl.
162171  0  0  1  0            999 V2000
  -30.6861  -14.4833   20.5114 C   0  0  0  0  0  0
  -30.4196  -12.2935   19.4384 C   0  0  0  0  0  0
  -29.4993  -12.4922   18.2142 C   0  0  0  0  0  0
  -28.0190  -12.3564   18.6214 C   0  0  0  0  0  0
  -27.6588  -13.2059   19.8698 C   0  0  2  0  0  0
  -28.7006  -13.0087   20.9990 C   0  0  0  0  0  0
  -25.2572  -13.8157   20.5659 C   0  0  0  0  0  0
  -24.1825  -13.0437   20.9173 C   0  0  0  0  0  0
  -24.6375  -11.6903   20.8738 C   0  0  0  0  0  0
  -23.9054  -10.4292   21.0404 C   0  0  0  0  0  0
  -24.3605   -9.4211   21.9179 C   0  0  0  0  0  0
  -23.6279   -8.2251   22.0757 C   0  0  0  0  0  0
  -22.4261   -8.0283   21.3552 C   0  0  0  0  0  0
  -21.9894   -9.0259   20.4656 C   0  0  0  0  0  0
  -22.7230  -10.2133   20.3057 C   0  0  0  0  0  0
  -21.6859   -6.0726   22.5280 C   0  0  0  0  0  0
  -21.4015   -6.5631   23.8209 C   0  0  0  0  0  0
  -21.3658   -5.6788   24.9170 C   0  0  0  0  0  0
  -21.6046   -4.3053   24.7231 C   0  0  0  0  0  0
  -21.8821   -3.8142   23.4354 C   0  0  0  0  0  0
  -21.9187   -4.6952   22.3404 C   0  0  0  0  0  0
  -22.7853  -13.5251   21.1835 C   0  0  0  0  0  0
  -22.1660   -4.2138   21.0983 F   0  0  0  0  0  0
  -21.5626   -3.4535   25.7746 F   0  0  0  0  0  0
  -30.0340  -13.2922   20.4470 N   0  0  0  0  0  0
  -26.3005  -12.9329   20.3330 N   0  0  0  0  0  0
  -25.9302  -11.6498   20.5757 N   0  0  0  0  0  0
  -22.0480  -12.8257   22.0395 N   0  0  0  0  0  0
  -25.4302  -15.1874   20.4055 N   0  0  0  0  0  0
  -31.8346  -14.6337   20.0939 O   0  0  0  0  0  0
  -21.6636   -6.8871   21.4246 O   0  0  0  0  0  0
  -22.3547  -14.5559   20.6672 O   0  0  0  0  0  0
  -24.6135  -31.8689   23.2123 C   0  0  0  0  0  0
  -25.9044  -32.4821   23.8402 C   0  0  1  0  0  0
  -27.2346  -27.4424   20.0993 C   0  0  0  0  0  0
  -25.5903  -33.8626   24.2332 N   0  0  0  0  0  0
  -23.4035  -30.4914   21.5497 C   0  0  2  0  0  0
  -24.8540  -28.9619   20.1102 C   0  0  0  0  0  0
  -22.7403  -29.4672   22.4983 C   0  0  0  0  0  0
  -18.0284  -28.1383   22.8509 C   0  0  0  0  0  0
  -24.1490  -36.7318   23.2639 C   0  0  0  0  0  0
  -25.9296  -30.8355   21.3674 C   0  0  0  0  0  0
  -26.0109  -29.4699   20.7168 C   0  0  0  0  0  0
  -27.2062  -28.7135   20.7186 C   0  0  0  0  0  0
  -26.0723  -26.9575   19.4688 C   0  0  0  0  0  0
  -24.8785  -27.7034   19.4826 C   0  0  0  0  0  0
  -23.6129  -29.8242   20.1630 C   0  0  0  0  0  0
  -25.4110  -36.3108   24.0339 C   0  0  1  0  0  0
  -20.5864  -28.3685   23.1311 C   0  0  2  0  0  0
  -20.6768  -26.9422   22.5412 C   0  0  0  0  0  0
  -19.5750  -26.6402   21.5204 C   0  0  0  0  0  0
  -18.1933  -26.7937   22.1624 C   0  0  0  0  0  0
  -19.1529  -28.8851   23.2909 C   0  0  0  0  0  0
  -18.9451  -30.1449   23.8919 C   0  0  0  0  0  0
  -17.6453  -30.6591   24.0577 C   0  0  0  0  0  0
  -25.9032  -34.9481   23.5131 C   0  0  0  0  0  0
  -16.5356  -29.9092   23.6329 C   0  0  0  0  0  0
  -16.7268  -28.6511   23.0361 C   0  0  0  0  0  0
  -26.4476  -31.6594   25.0734 C   0  0  0  0  0  0
  -25.3742  -31.3701   26.1487 C   0  0  0  0  0  0
  -27.0299  -30.3043   24.6104 C   0  0  0  0  0  0
  -27.6054  -32.4308   25.7485 C   0  0  0  0  0  0
  -27.5574  -37.1826   24.8483 C   0  0  0  0  0  0
  -21.4139  -29.3057   22.3719 N   0  0  0  0  0  0
  -26.4301  -37.3787   23.9402 N   0  0  0  0  0  0
  -24.6658  -31.0790   22.1018 N   0  0  0  0  0  0
  -23.4177  -28.8213   23.3025 O   0  0  0  0  0  0
  -28.3418  -26.6239   20.1324 O   0  0  0  0  0  0
  -26.5577  -34.8926   22.4680 O   0  0  0  0  0  0
  -23.5335  -32.1466   23.7514 O   0  0  0  0  0  0
  -32.0416  -21.5020   22.9060 C   0  0  0  0  0  0
  -31.7946  -20.2550   22.3065 C   0  0  0  0  0  0
  -31.2607  -22.6167   22.5643 C   0  0  0  0  0  0
  -30.7506  -20.0597   21.3696 C   0  0  0  0  0  0
  -30.2095  -22.4796   21.6316 C   0  0  0  0  0  0
  -29.9475  -21.2005   21.0725 C   0  0  0  0  0  0
  -31.3525  -17.6638   20.5889 C   0  0  0  0  0  0
  -29.6831  -24.8979   21.2828 C   0  0  0  0  0  0
  -29.3695  -18.0197   21.0071 C   0  0  0  0  0  0
  -30.0582  -16.8951   20.1822 C   0  0  1  0  0  0
  -29.8256  -16.8621   18.6602 C   0  0  0  0  0  0
  -27.2503  -25.3162   21.9850 C   0  0  0  0  0  0
  -28.5395  -25.9405   21.3904 C   0  0  2  0  0  0
  -30.5708  -18.7982   20.7230 N   0  0  0  0  0  0
  -29.3626  -23.5848   21.3073 N   0  0  0  0  0  0
  -29.8935  -15.5429   20.7704 N   0  0  0  0  0  0
  -32.5165  -17.4366   20.8485 O   0  0  0  0  0  0
  -30.8469  -25.2930   21.1604 O   0  0  0  0  0  0
  -28.9174  -21.0754   20.1989 F   0  0  0  0  0  0
  -31.4673  -12.3740   19.1436 H   0  0  0  0  0  0
  -30.3033  -11.2893   19.8492 H   0  0  0  0  0  0
  -29.7383  -11.7649   17.4371 H   0  0  0  0  0  0
  -29.6740  -13.4759   17.7753 H   0  0  0  0  0  0
  -27.8293  -11.3012   18.8254 H   0  0  0  0  0  0
  -27.3738  -12.6235   17.7835 H   0  0  0  0  0  0
  -27.6949  -14.2487   19.5549 H   0  0  0  0  0  0
  -28.6705  -11.9829   21.3711 H   0  0  0  0  0  0
  -28.4708  -13.6421   21.8579 H   0  0  0  0  0  0
  -25.2745   -9.5680   22.4749 H   0  0  0  0  0  0
  -23.9985   -7.4642   22.7471 H   0  0  0  0  0  0
  -21.0825   -8.8785   19.8965 H   0  0  0  0  0  0
  -22.3692  -10.9667   19.6165 H   0  0  0  0  0  0
  -21.2011   -7.6136   23.9710 H   0  0  0  0  0  0
  -21.1480   -6.0515   25.9067 H   0  0  0  0  0  0
  -22.0595   -2.7604   23.2863 H   0  0  0  0  0  0
  -22.4086  -11.9928   22.4809 H   0  0  0  0  0  0
  -21.1097  -13.1309   22.2583 H   0  0  0  0  0  0
  -24.6622  -15.8413   20.5074 H   0  0  0  0  0  0
  -26.2731  -15.6240   20.0560 H   0  0  0  0  0  0
  -26.7119  -32.5555   23.1158 H   0  0  0  0  0  0
  -25.0071  -33.9795   25.0489 H   0  0  0  0  0  0
  -22.6915  -31.3078   21.4095 H   0  0  0  0  0  0
  -23.3713  -35.9692   23.3373 H   0  0  0  0  0  0
  -24.3562  -36.8871   22.2036 H   0  0  0  0  0  0
  -23.7294  -37.6572   23.6602 H   0  0  0  0  0  0
  -26.0379  -31.6009   20.5961 H   0  0  0  0  0  0
  -26.8157  -30.8916   21.9858 H   0  0  0  0  0  0
  -28.0952  -29.0916   21.2034 H   0  0  0  0  0  0
  -26.0841  -25.9829   19.0023 H   0  0  0  0  0  0
  -23.9908  -27.3075   19.0096 H   0  0  0  0  0  0
  -23.7155  -30.5993   19.4034 H   0  0  0  0  0  0
  -22.7388  -29.2412   19.8706 H   0  0  0  0  0  0
  -25.1279  -36.1986   25.0833 H   0  0  0  0  0  0
  -20.9974  -28.3274   24.1424 H   0  0  0  0  0  0
  -20.5667  -26.2296   23.3606 H   0  0  0  0  0  0
  -21.6631  -26.7472   22.1192 H   0  0  0  0  0  0
  -19.6919  -25.6311   21.1238 H   0  0  0  0  0  0
  -19.6679  -27.3197   20.6723 H   0  0  0  0  0  0
  -17.4194  -26.6705   21.4044 H   0  0  0  0  0  0
  -18.0350  -26.0042   22.8986 H   0  0  0  0  0  0
  -19.7928  -30.7271   24.2296 H   0  0  0  0  0  0
  -17.5011  -31.6266   24.5164 H   0  0  0  0  0  0
  -15.5353  -30.3001   23.7627 H   0  0  0  0  0  0
  -15.8681  -28.0827   22.7066 H   0  0  0  0  0  0
  -24.5897  -30.7065   25.7830 H   0  0  0  0  0  0
  -24.8932  -32.2856   26.4963 H   0  0  0  0  0  0
  -25.8103  -30.8854   27.0234 H   0  0  0  0  0  0
  -26.2851  -29.6808   24.1148 H   0  0  0  0  0  0
  -27.4065  -29.7288   25.4564 H   0  0  0  0  0  0
  -27.8689  -30.4348   23.9258 H   0  0  0  0  0  0
  -27.2672  -33.3604   26.2079 H   0  0  0  0  0  0
  -28.3849  -32.6892   25.0297 H   0  0  0  0  0  0
  -28.0729  -31.8422   26.5388 H   0  0  0  0  0  0
  -28.2639  -38.0070   24.7427 H   0  0  0  0  0  0
  -28.1012  -36.2597   24.6415 H   0  0  0  0  0  0
  -27.2279  -37.1623   25.8887 H   0  0  0  0  0  0
  -20.9314  -29.8769   21.6921 H   0  0  0  0  0  0
  -26.0206  -38.2896   24.1323 H   0  0  0  0  0  0
  -32.8412  -21.6038   23.6271 H   0  0  0  0  0  0
  -32.4379  -19.4305   22.5804 H   0  0  0  0  0  0
  -31.4664  -23.5662   23.0379 H   0  0  0  0  0  0
  -29.2362  -17.7968   22.0696 H   0  0  0  0  0  0
  -28.4617  -18.4292   20.5597 H   0  0  0  0  0  0
  -29.9930  -17.8384   18.2028 H   0  0  0  0  0  0
  -28.8013  -16.5724   18.4219 H   0  0  0  0  0  0
  -30.4931  -16.1617   18.1572 H   0  0  0  0  0  0
  -27.4692  -24.7056   22.8626 H   0  0  0  0  0  0
  -26.7314  -24.6914   21.2582 H   0  0  0  0  0  0
  -26.5554  -26.0864   22.3180 H   0  0  0  0  0  0
  -28.8937  -26.6875   22.1026 H   0  0  0  0  0  0
  -28.3879  -23.3624   21.1602 H   0  0  0  0  0  0
  -28.9821  -15.3236   21.1404 H   0  0  0  0  0  0
  1 25  1  0  0  0
  1 30  2  0  0  0
  1 86  1  0  0  0
  2  3  1  0  0  0
  2 25  1  0  0  0
  2 90  1  0  0  0
  2 91  1  0  0  0
  3  4  1  0  0  0
  3 92  1  0  0  0
  3 93  1  0  0  0
  4  5  1  0  0  0
  4 94  1  0  0  0
  4 95  1  0  0  0
  5  6  1  0  0  0
  5 26  1  0  0  0
  5 96  1  0  0  0
  6 25  1  0  0  0
  6 97  1  0  0  0
  6 98  1  0  0  0
  7  8  2  0  0  0
  7 26  1  0  0  0
  7 29  1  0  0  0
  8  9  1  0  0  0
  8 22  1  0  0  0
  9 10  1  0  0  0
  9 27  2  0  0  0
 10 11  2  0  0  0
 10 15  1  0  0  0
 11 12  1  0  0  0
 11 99  1  0  0  0
 12 13  2  0  0  0
 12100  1  0  0  0
 13 14  1  0  0  0
 13 31  1  0  0  0
 14 15  2  0  0  0
 14101  1  0  0  0
 15102  1  0  0  0
 16 17  2  0  0  0
 16 21  1  0  0  0
 16 31  1  0  0  0
 17 18  1  0  0  0
 17103  1  0  0  0
 18 19  2  0  0  0
 18104  1  0  0  0
 19 20  1  0  0  0
 19 24  1  0  0  0
 20 21  2  0  0  0
 20105  1  0  0  0
 21 23  1  0  0  0
 22 28  1  0  0  0
 22 32  2  0  0  0
 26 27  1  0  0  0
 28106  1  0  0  0
 28107  1  0  0  0
 29108  1  0  0  0
 29109  1  0  0  0
 33 34  1  0  0  0
 33 66  1  0  0  0
 33 70  2  0  0  0
 34 36  1  0  0  0
 34 59  1  0  0  0
 34110  1  0  0  0
 35 44  2  0  0  0
 35 45  1  0  0  0
 35 68  1  0  0  0
 36 56  1  0  0  0
 36111  1  0  0  0
 37 39  1  0  0  0
 37 47  1  0  0  0
 37 66  1  0  0  0
 37112  1  0  0  0
 38 43  2  0  0  0
 38 46  1  0  0  0
 38 47  1  0  0  0
 39 64  1  0  0  0
 39 67  2  0  0  0
 40 52  1  0  0  0
 40 53  2  0  0  0
 40 58  1  0  0  0
 41113  1  0  0  0
 41114  1  0  0  0
 41115  1  0  0  0
 41 48  1  0  0  0
 42 43  1  0  0  0
 42 66  1  0  0  0
 42116  1  0  0  0
 42117  1  0  0  0
 43 44  1  0  0  0
 44118  1  0  0  0
 45 46  2  0  0  0
 45119  1  0  0  0
 46120  1  0  0  0
 47121  1  0  0  0
 47122  1  0  0  0
 48 56  1  0  0  0
 48 65  1  0  0  0
 48123  1  0  0  0
 49 50  1  0  0  0
 49 53  1  0  0  0
 49 64  1  0  0  0
 49124  1  0  0  0
 50 51  1  0  0  0
 50125  1  0  0  0
 50126  1  0  0  0
 51 52  1  0  0  0
 51127  1  0  0  0
 51128  1  0  0  0
 52129  1  0  0  0
 52130  1  0  0  0
 53 54  1  0  0  0
 54 55  2  0  0  0
 54131  1  0  0  0
 55 57  1  0  0  0
 55132  1  0  0  0
 56 69  2  0  0  0
 57 58  2  0  0  0
 57133  1  0  0  0
 58134  1  0  0  0
 59 60  1  0  0  0
 59 61  1  0  0  0
 59 62  1  0  0  0
 60135  1  0  0  0
 60136  1  0  0  0
 60137  1  0  0  0
 61138  1  0  0  0
 61139  1  0  0  0
 61140  1  0  0  0
 62141  1  0  0  0
 62142  1  0  0  0
 62143  1  0  0  0
 63 65  1  0  0  0
 63144  1  0  0  0
 63145  1  0  0  0
 63146  1  0  0  0
 64147  1  0  0  0
 65148  1  0  0  0
 68 83  1  0  0  0
 71 72  2  0  0  0
 71 73  1  0  0  0
 71149  1  0  0  0
 72 74  1  0  0  0
 72150  1  0  0  0
 73 75  2  0  0  0
 73151  1  0  0  0
 74 76  2  0  0  0
 74 84  1  0  0  0
 75 76  1  0  0  0
 75 85  1  0  0  0
 76 89  1  0  0  0
 77 80  1  0  0  0
 77 84  1  0  0  0
 77 87  2  0  0  0
 78 83  1  0  0  0
 78 85  1  0  0  0
 78 88  2  0  0  0
 79 80  1  0  0  0
 79 84  1  0  0  0
 79152  1  0  0  0
 79153  1  0  0  0
 80 81  1  0  0  0
 80 86  1  0  0  0
 81154  1  0  0  0
 81155  1  0  0  0
 81156  1  0  0  0
 82157  1  0  0  0
 82158  1  0  0  0
 82159  1  0  0  0
 82 83  1  0  0  0
 83160  1  0  0  0
 85161  1  0  0  0
 86162  1  0  0  0
M  ISO  4   1 100  68 101  83 101  86 100
M  END
> <chiral flag>
0

> <version>
0

> <s_m_source_file>
/data/baiqing/PycharmProjects/Reinvent-master-3.2/result/LINK_invent/BTK/process_docking_weight1_custom_product_contain_oxygen_bond_distance_aromatic_linkinvent_7_9_3/rearranged_h_0076.sdf

> <i_m_source_file_index>
91

> <r_mmod_Potential_Energy-OPLS-2005>
-74.8021697998047

> <r_mmod_Stretch_Energy-OPLS-2005>
41.6910591125488

> <r_mmod_Bend_Energy-OPLS-2005>
124.168174743652

> <r_mmod_Torsional_Energy-OPLS-2005>
293.898834228516

> <r_mmod_Improper_Torsional_Energy-OPLS-2005>
14.5542869567871

> <r_mmod_Van_der_Waal_Energy-OPLS-2005>
157.828353881836

> <r_mmod_Electrostatic_Energy-OPLS-2005>
-468.220642089844

> <r_mmod_Solvation_Energy-OPLS-2005>
-255.490921020508

> <b_mmod_Minimization_Converged-OPLS-2005>
0

> <r_mmod_RMS_Derivative-OPLS-2005>
2.8952054977417

$$$$
91
                    3D
 Structure written by MMmdl.
156165  0  0  1  0            999 V2000
  -30.6249  -14.9128   20.4353 C   0  0  0  0  0  0
  -30.4187  -12.5834   19.4746 C   0  0  0  0  0  0
  -29.5013  -12.5487   18.2339 C   0  0  0  0  0  0
  -28.0303  -12.3619   18.6476 C   0  0  0  0  0  0
  -27.6238  -13.2655   19.8444 C   0  0  2  0  0  0
  -28.6764  -13.3082   20.9730 C   0  0  0  0  0  0
  -25.2470  -13.8233   20.5951 C   0  0  0  0  0  0
  -24.1769  -13.0405   20.9208 C   0  0  0  0  0  0
  -24.6395  -11.6894   20.8726 C   0  0  0  0  0  0
  -23.9108  -10.4262   21.0388 C   0  0  0  0  0  0
  -24.3635   -9.4161   21.9161 C   0  0  0  0  0  0
  -23.6295   -8.2208   22.0741 C   0  0  0  0  0  0
  -22.4255   -8.0260   21.3544 C   0  0  0  0  0  0
  -21.9912   -9.0254   20.4655 C   0  0  0  0  0  0
  -22.7269  -10.2117   20.3035 C   0  0  0  0  0  0
  -21.6855   -6.0719   22.5256 C   0  0  0  0  0  0
  -21.4048   -6.5642   23.8192 C   0  0  0  0  0  0
  -21.3670   -5.6798   24.9157 C   0  0  0  0  0  0
  -21.6041   -4.3054   24.7202 C   0  0  0  0  0  0
  -21.8836   -3.8136   23.4329 C   0  0  0  0  0  0
  -21.9196   -4.6948   22.3385 C   0  0  0  0  0  0
  -22.7794  -13.5171   21.1860 C   0  0  0  0  0  0
  -22.1663   -4.2144   21.0965 F   0  0  0  0  0  0
  -21.5580   -3.4546   25.7718 F   0  0  0  0  0  0
  -29.9523  -13.6945   20.3582 N   0  0  0  0  0  0
  -26.2895  -12.9497   20.3389 N   0  0  0  0  0  0
  -25.9335  -11.6589   20.5732 N   0  0  0  0  0  0
  -22.0494  -12.8165   22.0440 N   0  0  0  0  0  0
  -25.4200  -15.1999   20.4839 N   0  0  0  0  0  0
  -31.8051  -14.9130   20.0740 O   0  0  0  0  0  0
  -21.6638   -6.8857   21.4217 O   0  0  0  0  0  0
  -22.3458  -14.5458   20.6702 O   0  0  0  0  0  0
  -24.6433  -31.8459   23.1870 C   0  0  0  0  0  0
  -25.9200  -32.4698   23.8304 C   0  0  1  0  0  0
  -27.2170  -27.1497   20.1429 C   0  0  0  0  0  0
  -25.5957  -33.8504   24.2218 N   0  0  0  0  0  0
  -23.4480  -30.4606   21.5316 C   0  0  2  0  0  0
  -24.8945  -28.8908   20.1044 C   0  0  0  0  0  0
  -22.7611  -29.4529   22.4869 C   0  0  0  0  0  0
  -18.0327  -28.1383   22.8471 C   0  0  0  0  0  0
  -24.1477  -36.7264   23.2642 C   0  0  0  0  0  0
  -26.0011  -30.7197   21.3869 C   0  0  0  0  0  0
  -26.0679  -29.3325   20.7258 C   0  0  0  0  0  0
  -27.2265  -28.4739   20.7357 C   0  0  0  0  0  0
  -26.0109  -26.7946   19.4997 C   0  0  0  0  0  0
  -24.8755  -27.6341   19.4774 C   0  0  0  0  0  0
  -23.6717  -29.7922   20.1492 C   0  0  0  0  0  0
  -25.4102  -36.3039   24.0333 C   0  0  1  0  0  0
  -20.5937  -28.3713   23.1239 C   0  0  2  0  0  0
  -20.6793  -26.9418   22.5424 C   0  0  0  0  0  0
  -19.5758  -26.6358   21.5230 C   0  0  0  0  0  0
  -18.1947  -26.7915   22.1631 C   0  0  0  0  0  0
  -19.1579  -28.8881   23.2833 C   0  0  0  0  0  0
  -18.9485  -30.1465   23.8867 C   0  0  0  0  0  0
  -17.6482  -30.6573   24.0547 C   0  0  0  0  0  0
  -25.9051  -34.9417   23.5084 C   0  0  0  0  0  0
  -16.5385  -29.9055   23.6316 C   0  0  0  0  0  0
  -16.7320  -28.6480   23.0349 C   0  0  0  0  0  0
  -26.4485  -31.6570   25.0762 C   0  0  0  0  0  0
  -25.3673  -31.3844   26.1506 C   0  0  0  0  0  0
  -27.0318  -30.2945   24.6372 C   0  0  0  0  0  0
  -27.6033  -32.4341   25.7532 C   0  0  0  0  0  0
  -27.5580  -37.1774   24.8452 C   0  0  0  0  0  0
  -21.4307  -29.3041   22.3634 N   0  0  0  0  0  0
  -26.4254  -37.3763   23.9448 N   0  0  0  0  0  0
  -24.7175  -31.0328   22.0894 N   0  0  0  0  0  0
  -23.4272  -28.8096   23.3017 O   0  0  0  0  0  0
  -28.2512  -26.1604   20.2971 O   0  0  0  0  0  0
  -26.5651  -34.8911   22.4658 O   0  0  0  0  0  0
  -23.5552  -32.1346   23.7084 O   0  0  0  0  0  0
  -28.3177  -18.1145   18.1402 C   0  0  0  0  0  0
  -28.3808  -19.4681   18.5305 C   0  0  0  0  0  0
  -28.8759  -17.0737   18.9008 C   0  0  0  0  0  0
  -29.5214  -18.7885   20.5034 C   0  0  0  0  0  0
  -28.9742  -19.9435   19.7325 C   0  0  0  0  0  0
  -29.5136  -17.3382   20.1244 C   0  0  0  0  0  0
  -28.6451  -23.5888   19.7321 C   0  0  0  0  0  0
  -28.6745  -22.5764   20.8269 C   0  0  0  0  0  0
  -28.4377  -24.9753   19.4741 C   0  0  0  0  0  0
  -28.9590  -22.4169   18.7580 C   0  0  0  0  0  0
  -28.5894  -25.4180   18.0261 C   0  0  0  0  0  0
  -30.6431  -16.5414   22.1941 C   0  0  0  0  0  0
  -28.9303  -21.4775   19.9138 N   0  0  0  0  0  0
  -30.0558  -16.1383   20.9054 N   0  0  0  0  0  0
  -28.4727  -22.6898   22.0195 O   0  0  0  0  0  0
  -31.4562  -12.6907   19.1486 H   0  0  0  0  0  0
  -30.3892  -11.6383   20.0205 H   0  0  0  0  0  0
  -29.8078  -11.7450   17.5642 H   0  0  0  0  0  0
  -29.6070  -13.4755   17.6631 H   0  0  0  0  0  0
  -27.8741  -11.3107   18.8897 H   0  0  0  0  0  0
  -27.3784  -12.5742   17.7986 H   0  0  0  0  0  0
  -27.5674  -14.2740   19.4349 H   0  0  0  0  0  0
  -28.7569  -12.3454   21.4776 H   0  0  0  0  0  0
  -28.3858  -14.0352   21.7334 H   0  0  0  0  0  0
  -25.2792   -9.5593   22.4739 H   0  0  0  0  0  0
  -24.0024   -7.4588   22.7441 H   0  0  0  0  0  0
  -21.0830   -8.8799   19.8946 H   0  0  0  0  0  0
  -22.3766  -10.9662   19.6133 H   0  0  0  0  0  0
  -21.2097   -7.6163   23.9696 H   0  0  0  0  0  0
  -21.1472   -6.0529   25.9060 H   0  0  0  0  0  0
  -22.0611   -2.7599   23.2843 H   0  0  0  0  0  0
  -22.4220  -11.9930   22.4965 H   0  0  0  0  0  0
  -21.1074  -13.1121   22.2603 H   0  0  0  0  0  0
  -24.6670  -15.8390   20.7063 H   0  0  0  0  0  0
  -26.3255  -15.6490   20.4691 H   0  0  0  0  0  0
  -26.7288  -32.5283   23.1058 H   0  0  0  0  0  0
  -25.0066  -33.9615   25.0350 H   0  0  0  0  0  0
  -22.7450  -31.2815   21.3786 H   0  0  0  0  0  0
  -23.3762  -35.9554   23.3204 H   0  0  0  0  0  0
  -24.3604  -36.8990   22.2074 H   0  0  0  0  0  0
  -23.7168  -37.6407   23.6739 H   0  0  0  0  0  0
  -26.1596  -31.4701   20.6119 H   0  0  0  0  0  0
  -26.8710  -30.7698   22.0306 H   0  0  0  0  0  0
  -28.1130  -28.7889   21.2672 H   0  0  0  0  0  0
  -25.9090  -25.8111   19.0592 H   0  0  0  0  0  0
  -23.9707  -27.2828   18.9980 H   0  0  0  0  0  0
  -23.8164  -30.5614   19.3898 H   0  0  0  0  0  0
  -22.7857  -29.2357   19.8403 H   0  0  0  0  0  0
  -25.1251  -36.1861   25.0810 H   0  0  0  0  0  0
  -21.0004  -28.3295   24.1377 H   0  0  0  0  0  0
  -20.5689  -26.2339   23.3651 H   0  0  0  0  0  0
  -21.6658  -26.7445   22.1229 H   0  0  0  0  0  0
  -19.6920  -25.6264   21.1276 H   0  0  0  0  0  0
  -19.6630  -27.3134   20.6722 H   0  0  0  0  0  0
  -17.4211  -26.6699   21.4028 H   0  0  0  0  0  0
  -18.0312  -26.0084   22.9033 H   0  0  0  0  0  0
  -19.7961  -30.7303   24.2228 H   0  0  0  0  0  0
  -17.5030  -31.6244   24.5165 H   0  0  0  0  0  0
  -15.5376  -30.2937   23.7648 H   0  0  0  0  0  0
  -15.8717  -28.0772   22.7106 H   0  0  0  0  0  0
  -24.5652  -30.7432   25.7843 H   0  0  0  0  0  0
  -24.9114  -32.3092   26.5060 H   0  0  0  0  0  0
  -25.7915  -30.8852   27.0234 H   0  0  0  0  0  0
  -26.2938  -29.6704   24.1339 H   0  0  0  0  0  0
  -27.3850  -29.7220   25.4963 H   0  0  0  0  0  0
  -27.8868  -30.4148   23.9720 H   0  0  0  0  0  0
  -27.2640  -33.3649   26.2114 H   0  0  0  0  0  0
  -28.3823  -32.6944   25.0338 H   0  0  0  0  0  0
  -28.0748  -31.8509   26.5469 H   0  0  0  0  0  0
  -28.2536  -38.0135   24.7599 H   0  0  0  0  0  0
  -28.1135  -36.2690   24.6096 H   0  0  0  0  0  0
  -27.2377  -37.1206   25.8870 H   0  0  0  0  0  0
  -20.9561  -29.8733   21.6767 H   0  0  0  0  0  0
  -26.0117  -38.2812   24.1495 H   0  0  0  0  0  0
  -27.8115  -17.8762   17.2174 H   0  0  0  0  0  0
  -27.9216  -20.1536   17.8342 H   0  0  0  0  0  0
  -28.7854  -16.0617   18.5290 H   0  0  0  0  0  0
  -30.0106  -19.0400   21.4329 H   0  0  0  0  0  0
  -29.9466  -22.4153   18.2920 H   0  0  0  0  0  0
  -28.1921  -22.2484   18.0034 H   0  0  0  0  0  0
  -27.8952  -24.8765   17.3821 H   0  0  0  0  0  0
  -29.6038  -25.2083   17.6821 H   0  0  0  0  0  0
  -28.4162  -26.4848   17.8919 H   0  0  0  0  0  0
  -29.8864  -16.9518   22.8651 H   0  0  0  0  0  0
  -31.4065  -17.3048   22.0374 H   0  0  0  0  0  0
  -31.1475  -15.7309   22.7238 H   0  0  0  0  0  0
  1 25  1  0  0  0
  1 30  2  0  0  0
  1 84  1  0  0  0
  2  3  1  0  0  0
  2 25  1  0  0  0
  2 86  1  0  0  0
  2 87  1  0  0  0
  3  4  1  0  0  0
  3 88  1  0  0  0
  3 89  1  0  0  0
  4  5  1  0  0  0
  4 90  1  0  0  0
  4 91  1  0  0  0
  5  6  1  0  0  0
  5 26  1  0  0  0
  5 92  1  0  0  0
  6 25  1  0  0  0
  6 93  1  0  0  0
  6 94  1  0  0  0
  7  8  2  0  0  0
  7 26  1  0  0  0
  7 29  1  0  0  0
  8  9  1  0  0  0
  8 22  1  0  0  0
  9 10  1  0  0  0
  9 27  2  0  0  0
 10 11  2  0  0  0
 10 15  1  0  0  0
 11 12  1  0  0  0
 11 95  1  0  0  0
 12 13  2  0  0  0
 12 96  1  0  0  0
 13 14  1  0  0  0
 13 31  1  0  0  0
 14 15  2  0  0  0
 14 97  1  0  0  0
 15 98  1  0  0  0
 16 17  2  0  0  0
 16 21  1  0  0  0
 16 31  1  0  0  0
 17 18  1  0  0  0
 17 99  1  0  0  0
 18 19  2  0  0  0
 18100  1  0  0  0
 19 20  1  0  0  0
 19 24  1  0  0  0
 20 21  2  0  0  0
 20101  1  0  0  0
 21 23  1  0  0  0
 22 28  1  0  0  0
 22 32  2  0  0  0
 26 27  1  0  0  0
 28102  1  0  0  0
 28103  1  0  0  0
 29104  1  0  0  0
 29105  1  0  0  0
 33 34  1  0  0  0
 33 66  1  0  0  0
 33 70  2  0  0  0
 34 36  1  0  0  0
 34 59  1  0  0  0
 34106  1  0  0  0
 35 44  2  0  0  0
 35 45  1  0  0  0
 35 68  1  0  0  0
 36 56  1  0  0  0
 36107  1  0  0  0
 37 39  1  0  0  0
 37 47  1  0  0  0
 37 66  1  0  0  0
 37108  1  0  0  0
 38 43  2  0  0  0
 38 46  1  0  0  0
 38 47  1  0  0  0
 39 64  1  0  0  0
 39 67  2  0  0  0
 40 52  1  0  0  0
 40 53  2  0  0  0
 40 58  1  0  0  0
 41109  1  0  0  0
 41110  1  0  0  0
 41111  1  0  0  0
 41 48  1  0  0  0
 42 43  1  0  0  0
 42 66  1  0  0  0
 42112  1  0  0  0
 42113  1  0  0  0
 43 44  1  0  0  0
 44114  1  0  0  0
 45 46  2  0  0  0
 45115  1  0  0  0
 46116  1  0  0  0
 47117  1  0  0  0
 47118  1  0  0  0
 48 56  1  0  0  0
 48 65  1  0  0  0
 48119  1  0  0  0
 49 50  1  0  0  0
 49 53  1  0  0  0
 49 64  1  0  0  0
 49120  1  0  0  0
 50 51  1  0  0  0
 50121  1  0  0  0
 50122  1  0  0  0
 51 52  1  0  0  0
 51123  1  0  0  0
 51124  1  0  0  0
 52125  1  0  0  0
 52126  1  0  0  0
 53 54  1  0  0  0
 54 55  2  0  0  0
 54127  1  0  0  0
 55 57  1  0  0  0
 55128  1  0  0  0
 56 69  2  0  0  0
 57 58  2  0  0  0
 57129  1  0  0  0
 58130  1  0  0  0
 59 60  1  0  0  0
 59 61  1  0  0  0
 59 62  1  0  0  0
 60131  1  0  0  0
 60132  1  0  0  0
 60133  1  0  0  0
 61134  1  0  0  0
 61135  1  0  0  0
 61136  1  0  0  0
 62137  1  0  0  0
 62138  1  0  0  0
 62139  1  0  0  0
 63 65  1  0  0  0
 63140  1  0  0  0
 63141  1  0  0  0
 63142  1  0  0  0
 64143  1  0  0  0
 65144  1  0  0  0
 68 79  1  0  0  0
 71 72  2  0  0  0
 71 73  1  0  0  0
 71145  1  0  0  0
 72 75  1  0  0  0
 72146  1  0  0  0
 73 76  2  0  0  0
 73147  1  0  0  0
 74 75  2  0  0  0
 74 76  1  0  0  0
 74148  1  0  0  0
 75 83  1  0  0  0
 76 84  1  0  0  0
 77 78  1  0  0  0
 77 79  2  0  0  0
 77 80  1  0  0  0
 78 83  1  0  0  0
 78 85  2  0  0  0
 79 81  1  0  0  0
 80 83  1  0  0  0
 80149  1  0  0  0
 80150  1  0  0  0
 81151  1  0  0  0
 81152  1  0  0  0
 81153  1  0  0  0
 82 84  1  0  0  0
 82154  1  0  0  0
 82155  1  0  0  0
 82156  1  0  0  0
M  ISO  4   1 100  68 101  79 101  84 100
M  END
> <chiral flag>
0

> <version>
0

> <s_m_source_file>
/data/baiqing/PycharmProjects/Reinvent-master-3.2/result/LINK_invent/BTK/process_docking_weight1_custom_product_contain_oxygen_bond_distance_aromatic_linkinvent_7_9_3/rearranged_h_0076.sdf

> <i_m_source_file_index>
92

> <r_mmod_Potential_Energy-OPLS-2005>
718.958740234375

> <r_mmod_Stretch_Energy-OPLS-2005>
218.813888549805

> <r_mmod_Bend_Energy-OPLS-2005>
346.076690673828

> <r_mmod_Torsional_Energy-OPLS-2005>
300.323669433594

> <r_mmod_Improper_Torsional_Energy-OPLS-2005>
5.98956155776978

> <r_mmod_Van_der_Waal_Energy-OPLS-2005>
133.635818481445

> <r_mmod_Electrostatic_Energy-OPLS-2005>
-258.711059570312

> <r_mmod_Solvation_Energy-OPLS-2005>
-208.988052368164

> <b_mmod_Minimization_Converged-OPLS-2005>
0

> <r_mmod_RMS_Derivative-OPLS-2005>
5.87138414382935

$$$$
92
                    3D
 Structure written by MMmdl.
162171  0  0  1  0            999 V2000
  -30.6316  -14.6555   20.5030 C   0  0  0  0  0  0
  -30.4395  -12.4034   19.4570 C   0  0  0  0  0  0
  -29.5096  -12.5113   18.2279 C   0  0  0  0  0  0
  -28.0318  -12.3533   18.6392 C   0  0  0  0  0  0
  -27.6549  -13.2234   19.8684 C   0  0  2  0  0  0
  -28.7014  -13.0818   20.9967 C   0  0  0  0  0  0
  -25.2528  -13.8175   20.5682 C   0  0  0  0  0  0
  -24.1810  -13.0424   20.9173 C   0  0  0  0  0  0
  -24.6403  -11.6909   20.8738 C   0  0  0  0  0  0
  -23.9075  -10.4286   21.0395 C   0  0  0  0  0  0
  -24.3624   -9.4203   21.9180 C   0  0  0  0  0  0
  -23.6297   -8.2242   22.0748 C   0  0  0  0  0  0
  -22.4278   -8.0278   21.3539 C   0  0  0  0  0  0
  -21.9912   -9.0249   20.4642 C   0  0  0  0  0  0
  -22.7241  -10.2127   20.3045 C   0  0  0  0  0  0
  -21.6855   -6.0739   22.5286 C   0  0  0  0  0  0
  -21.4013   -6.5642   23.8221 C   0  0  0  0  0  0
  -21.3658   -5.6791   24.9179 C   0  0  0  0  0  0
  -21.6043   -4.3051   24.7230 C   0  0  0  0  0  0
  -21.8818   -3.8148   23.4345 C   0  0  0  0  0  0
  -21.9195   -4.6967   22.3400 C   0  0  0  0  0  0
  -22.7836  -13.5207   21.1838 C   0  0  0  0  0  0
  -22.1667   -4.2160   21.0976 F   0  0  0  0  0  0
  -21.5621   -3.4527   25.7736 F   0  0  0  0  0  0
  -30.0165  -13.4291   20.4341 N   0  0  0  0  0  0
  -26.3001  -12.9389   20.3369 N   0  0  0  0  0  0
  -25.9346  -11.6531   20.5791 N   0  0  0  0  0  0
  -22.0488  -12.8207   22.0412 N   0  0  0  0  0  0
  -25.4166  -15.1890   20.4070 N   0  0  0  0  0  0
  -31.7861  -14.8067   20.0952 O   0  0  0  0  0  0
  -21.6631   -6.8880   21.4246 O   0  0  0  0  0  0
  -22.3513  -14.5519   20.6699 O   0  0  0  0  0  0
  -24.6265  -31.8593   23.2016 C   0  0  0  0  0  0
  -25.9102  -32.4773   23.8357 C   0  0  1  0  0  0
  -27.2162  -27.3029   20.1186 C   0  0  0  0  0  0
  -25.5916  -33.8575   24.2278 N   0  0  0  0  0  0
  -23.4209  -30.4859   21.5442 C   0  0  2  0  0  0
  -24.8674  -28.9446   20.1076 C   0  0  0  0  0  0
  -22.7486  -29.4629   22.4919 C   0  0  0  0  0  0
  -18.0304  -28.1386   22.8499 C   0  0  0  0  0  0
  -24.1480  -36.7288   23.2642 C   0  0  0  0  0  0
  -25.9652  -30.7844   21.3771 C   0  0  0  0  0  0
  -26.0378  -29.4118   20.7187 C   0  0  0  0  0  0
  -27.2162  -28.6027   20.7164 C   0  0  0  0  0  0
  -26.0261  -26.9060   19.4640 C   0  0  0  0  0  0
  -24.8645  -27.6972   19.4697 C   0  0  0  0  0  0
  -23.6360  -29.8257   20.1588 C   0  0  0  0  0  0
  -25.4106  -36.3077   24.0334 C   0  0  1  0  0  0
  -20.5900  -28.3682   23.1287 C   0  0  2  0  0  0
  -20.6788  -26.9405   22.5410 C   0  0  0  0  0  0
  -19.5765  -26.6386   21.5209 C   0  0  0  0  0  0
  -18.1947  -26.7943   22.1624 C   0  0  0  0  0  0
  -19.1555  -28.8855   23.2890 C   0  0  0  0  0  0
  -18.9475  -30.1466   23.8895 C   0  0  0  0  0  0
  -17.6473  -30.6596   24.0570 C   0  0  0  0  0  0
  -25.9049  -34.9449   23.5112 C   0  0  0  0  0  0
  -16.5366  -29.9092   23.6339 C   0  0  0  0  0  0
  -16.7287  -28.6510   23.0354 C   0  0  0  0  0  0
  -26.4488  -31.6579   25.0725 C   0  0  0  0  0  0
  -25.3721  -31.3727   26.1451 C   0  0  0  0  0  0
  -27.0338  -30.3009   24.6169 C   0  0  0  0  0  0
  -27.6049  -32.4312   25.7501 C   0  0  0  0  0  0
  -27.5576  -37.1801   24.8469 C   0  0  0  0  0  0
  -21.4196  -29.3041   22.3673 N   0  0  0  0  0  0
  -26.4282  -37.3774   23.9420 N   0  0  0  0  0  0
  -24.6899  -31.0602   22.0981 N   0  0  0  0  0  0
  -23.4212  -28.8171   23.2985 O   0  0  0  0  0  0
  -28.3073  -26.4122   20.1886 O   0  0  0  0  0  0
  -26.5623  -34.8923   22.4679 O   0  0  0  0  0  0
  -23.5424  -32.1399   23.7340 O   0  0  0  0  0  0
  -30.9510  -19.2480   19.8391 C   0  0  0  0  0  0
  -30.9248  -17.8339   20.0162 C   0  0  0  0  0  0
  -28.9660  -19.4699   21.1433 C   0  0  0  0  0  0
  -28.9255  -18.0459   21.3598 C   0  0  0  0  0  0
  -29.9677  -20.1263   20.3847 C   0  0  0  0  0  0
  -29.9173  -17.1769   20.7710 C   0  0  0  0  0  0
  -28.9784  -22.5401   20.3710 C   0  0  0  0  0  0
  -31.4480  -23.6292   19.9098 C   0  0  0  0  0  0
  -29.1636  -23.9120   20.3051 C   0  0  0  0  0  0
  -27.8185  -17.5021   22.2242 C   0  0  0  0  0  0
  -31.3319  -22.1007   19.8321 C   0  0  0  0  0  0
  -26.8823  -18.4854   22.9218 C   0  0  0  0  0  0
  -27.3399  -24.8331   21.8173 C   0  0  0  0  0  0
  -28.0012  -24.9666   20.4310 C   0  0  1  0  0  0
  -30.4583  -24.4185   20.1081 N   0  0  0  0  0  0
  -30.0098  -21.5673   20.2116 N   0  0  0  0  0  0
  -29.8522  -15.7068   20.9200 N   0  0  0  0  0  0
  -27.6308  -16.2980   22.4217 O   0  0  0  0  0  0
  -31.4804  -12.5277   19.1522 H   0  0  0  0  0  0
  -30.3763  -11.4087   19.9013 H   0  0  0  0  0  0
  -29.7737  -11.7526   17.4893 H   0  0  0  0  0  0
  -29.6547  -13.4767   17.7392 H   0  0  0  0  0  0
  -27.8645  -11.3002   18.8682 H   0  0  0  0  0  0
  -27.3795  -12.5858   17.7967 H   0  0  0  0  0  0
  -27.6711  -14.2595   19.5297 H   0  0  0  0  0  0
  -28.7163  -12.0601   21.3797 H   0  0  0  0  0  0
  -28.4454  -13.7111   21.8491 H   0  0  0  0  0  0
  -25.2769   -9.5684   22.4750 H   0  0  0  0  0  0
  -24.0009   -7.4629   22.7466 H   0  0  0  0  0  0
  -21.0846   -8.8770   19.8946 H   0  0  0  0  0  0
  -22.3706  -10.9666   19.6151 H   0  0  0  0  0  0
  -21.2005   -7.6154   23.9735 H   0  0  0  0  0  0
  -21.1479   -6.0512   25.9087 H   0  0  0  0  0  0
  -22.0596   -2.7613   23.2839 H   0  0  0  0  0  0
  -22.4099  -11.9861   22.4793 H   0  0  0  0  0  0
  -21.1111  -13.1242   22.2635 H   0  0  0  0  0  0
  -24.6634  -15.8458   20.5754 H   0  0  0  0  0  0
  -26.3001  -15.6374   20.2051 H   0  0  0  0  0  0
  -26.7168  -32.5441   23.1107 H   0  0  0  0  0  0
  -25.0067  -33.9726   25.0425 H   0  0  0  0  0  0
  -22.7155  -31.3073   21.4027 H   0  0  0  0  0  0
  -23.3750  -35.9611   23.3305 H   0  0  0  0  0  0
  -24.3586  -36.8901   22.2054 H   0  0  0  0  0  0
  -23.7221  -37.6491   23.6660 H   0  0  0  0  0  0
  -26.1003  -31.5466   20.6086 H   0  0  0  0  0  0
  -26.8456  -30.8327   22.0050 H   0  0  0  0  0  0
  -28.1093  -28.9501   21.2175 H   0  0  0  0  0  0
  -25.9561  -25.9667   18.9404 H   0  0  0  0  0  0
  -23.9690  -27.3402   18.9790 H   0  0  0  0  0  0
  -23.7589  -30.6035   19.4052 H   0  0  0  0  0  0
  -22.7542  -29.2589   19.8522 H   0  0  0  0  0  0
  -25.1283  -36.1930   25.0828 H   0  0  0  0  0  0
  -21.0002  -28.3238   24.1400 H   0  0  0  0  0  0
  -20.5690  -26.2280   23.3603 H   0  0  0  0  0  0
  -21.6662  -26.7447   22.1193 H   0  0  0  0  0  0
  -19.6923  -25.6292   21.1239 H   0  0  0  0  0  0
  -19.6699  -27.3212   20.6750 H   0  0  0  0  0  0
  -17.4212  -26.6695   21.4024 H   0  0  0  0  0  0
  -18.0349  -26.0084   22.9017 H   0  0  0  0  0  0
  -19.7945  -30.7296   24.2239 H   0  0  0  0  0  0
  -17.5030  -31.6273   24.5180 H   0  0  0  0  0  0
  -15.5375  -30.2994   23.7665 H   0  0  0  0  0  0
  -15.8687  -28.0837   22.7052 H   0  0  0  0  0  0
  -24.5905  -30.7062   25.7793 H   0  0  0  0  0  0
  -24.8912  -32.2901   26.4858 H   0  0  0  0  0  0
  -25.8052  -30.8930   27.0235 H   0  0  0  0  0  0
  -26.2923  -29.6759   24.1186 H   0  0  0  0  0  0
  -27.4057  -29.7256   25.4655 H   0  0  0  0  0  0
  -27.8769  -30.4328   23.9388 H   0  0  0  0  0  0
  -27.2669  -33.3619   26.2078 H   0  0  0  0  0  0
  -28.3869  -32.6856   25.0329 H   0  0  0  0  0  0
  -28.0702  -31.8429   26.5420 H   0  0  0  0  0  0
  -28.2590  -38.0101   24.7541 H   0  0  0  0  0  0
  -28.1078  -36.2646   24.6266 H   0  0  0  0  0  0
  -27.2318  -37.1412   25.8877 H   0  0  0  0  0  0
  -20.9357  -29.8756   21.6885 H   0  0  0  0  0  0
  -26.0159  -38.2840   24.1446 H   0  0  0  0  0  0
  -31.7618  -19.6373   19.2422 H   0  0  0  0  0  0
  -31.7068  -17.2593   19.5426 H   0  0  0  0  0  0
  -28.2194  -20.1075   21.5893 H   0  0  0  0  0  0
  -27.9906  -22.1185   20.5019 H   0  0  0  0  0  0
  -32.4636  -24.0116   19.7751 H   0  0  0  0  0  0
  -32.1066  -21.6727   20.4702 H   0  0  0  0  0  0
  -31.5603  -21.8078   18.8070 H   0  0  0  0  0  0
  -27.4439  -19.1190   23.6075 H   0  0  0  0  0  0
  -26.1292  -17.9470   23.4967 H   0  0  0  0  0  0
  -26.3668  -19.1130   22.1952 H   0  0  0  0  0  0
  -27.0613  -23.8009   22.0312 H   0  0  0  0  0  0
  -26.4268  -25.4235   21.8972 H   0  0  0  0  0  0
  -28.0181  -25.1615   22.6042 H   0  0  0  0  0  0
  -27.2952  -24.6131   19.6825 H   0  0  0  0  0  0
  -28.9880  -15.3929   21.3453 H   0  0  0  0  0  0
  1 25  1  0  0  0
  1 30  2  0  0  0
  1 87  1  0  0  0
  2  3  1  0  0  0
  2 25  1  0  0  0
  2 89  1  0  0  0
  2 90  1  0  0  0
  3  4  1  0  0  0
  3 91  1  0  0  0
  3 92  1  0  0  0
  4  5  1  0  0  0
  4 93  1  0  0  0
  4 94  1  0  0  0
  5  6  1  0  0  0
  5 26  1  0  0  0
  5 95  1  0  0  0
  6 25  1  0  0  0
  6 96  1  0  0  0
  6 97  1  0  0  0
  7  8  2  0  0  0
  7 26  1  0  0  0
  7 29  1  0  0  0
  8  9  1  0  0  0
  8 22  1  0  0  0
  9 10  1  0  0  0
  9 27  2  0  0  0
 10 11  2  0  0  0
 10 15  1  0  0  0
 11 12  1  0  0  0
 11 98  1  0  0  0
 12 13  2  0  0  0
 12 99  1  0  0  0
 13 14  1  0  0  0
 13 31  1  0  0  0
 14 15  2  0  0  0
 14100  1  0  0  0
 15101  1  0  0  0
 16 17  2  0  0  0
 16 21  1  0  0  0
 16 31  1  0  0  0
 17 18  1  0  0  0
 17102  1  0  0  0
 18 19  2  0  0  0
 18103  1  0  0  0
 19 20  1  0  0  0
 19 24  1  0  0  0
 20 21  2  0  0  0
 20104  1  0  0  0
 21 23  1  0  0  0
 22 28  1  0  0  0
 22 32  2  0  0  0
 26 27  1  0  0  0
 28105  1  0  0  0
 28106  1  0  0  0
 29107  1  0  0  0
 29108  1  0  0  0
 33 34  1  0  0  0
 33 66  1  0  0  0
 33 70  2  0  0  0
 34 36  1  0  0  0
 34 59  1  0  0  0
 34109  1  0  0  0
 35 44  2  0  0  0
 35 45  1  0  0  0
 35 68  1  0  0  0
 36 56  1  0  0  0
 36110  1  0  0  0
 37 39  1  0  0  0
 37 47  1  0  0  0
 37 66  1  0  0  0
 37111  1  0  0  0
 38 43  2  0  0  0
 38 46  1  0  0  0
 38 47  1  0  0  0
 39 64  1  0  0  0
 39 67  2  0  0  0
 40 52  1  0  0  0
 40 53  2  0  0  0
 40 58  1  0  0  0
 41112  1  0  0  0
 41113  1  0  0  0
 41114  1  0  0  0
 41 48  1  0  0  0
 42 43  1  0  0  0
 42 66  1  0  0  0
 42115  1  0  0  0
 42116  1  0  0  0
 43 44  1  0  0  0
 44117  1  0  0  0
 45 46  2  0  0  0
 45118  1  0  0  0
 46119  1  0  0  0
 47120  1  0  0  0
 47121  1  0  0  0
 48 56  1  0  0  0
 48 65  1  0  0  0
 48122  1  0  0  0
 49 50  1  0  0  0
 49 53  1  0  0  0
 49 64  1  0  0  0
 49123  1  0  0  0
 50 51  1  0  0  0
 50124  1  0  0  0
 50125  1  0  0  0
 51 52  1  0  0  0
 51126  1  0  0  0
 51127  1  0  0  0
 52128  1  0  0  0
 52129  1  0  0  0
 53 54  1  0  0  0
 54 55  2  0  0  0
 54130  1  0  0  0
 55 57  1  0  0  0
 55131  1  0  0  0
 56 69  2  0  0  0
 57 58  2  0  0  0
 57132  1  0  0  0
 58133  1  0  0  0
 59 60  1  0  0  0
 59 61  1  0  0  0
 59 62  1  0  0  0
 60134  1  0  0  0
 60135  1  0  0  0
 60136  1  0  0  0
 61137  1  0  0  0
 61138  1  0  0  0
 61139  1  0  0  0
 62140  1  0  0  0
 62141  1  0  0  0
 62142  1  0  0  0
 63 65  1  0  0  0
 63143  1  0  0  0
 63144  1  0  0  0
 63145  1  0  0  0
 64146  1  0  0  0
 65147  1  0  0  0
 68 84  1  0  0  0
 71 72  2  0  0  0
 71 75  1  0  0  0
 71148  1  0  0  0
 72 76  1  0  0  0
 72149  1  0  0  0
 73 74  1  0  0  0
 73 75  2  0  0  0
 73150  1  0  0  0
 74 76  2  0  0  0
 74 80  1  0  0  0
 75 86  1  0  0  0
 76 87  1  0  0  0
 77 79  2  0  0  0
 77 86  1  0  0  0
 77151  1  0  0  0
 78 81  1  0  0  0
 78 85  2  0  0  0
 78152  1  0  0  0
 79 84  1  0  0  0
 79 85  1  0  0  0
 80 82  1  0  0  0
 80 88  2  0  0  0
 81 86  1  0  0  0
 81153  1  0  0  0
 81154  1  0  0  0
 82155  1  0  0  0
 82156  1  0  0  0
 82157  1  0  0  0
 83158  1  0  0  0
 83159  1  0  0  0
 83160  1  0  0  0
 83 84  1  0  0  0
 84161  1  0  0  0
 87162  1  0  0  0
M  ISO  4   1 100  68 101  84 101  87 100
M  END
> <chiral flag>
0

> <version>
0

> <s_m_source_file>
/data/baiqing/PycharmProjects/Reinvent-master-3.2/result/LINK_invent/BTK/process_docking_weight1_custom_product_contain_oxygen_bond_distance_aromatic_linkinvent_7_9_3/rearranged_h_0076.sdf

> <i_m_source_file_index>
93

> <r_mmod_Potential_Energy-OPLS-2005>
129.239761352539

> <r_mmod_Stretch_Energy-OPLS-2005>
100.111274719238

> <r_mmod_Bend_Energy-OPLS-2005>
144.307418823242

> <r_mmod_Torsional_Energy-OPLS-2005>
227.571578979492

> <r_mmod_Improper_Torsional_Energy-OPLS-2005>
3.34200215339661

> <r_mmod_Van_der_Waal_Energy-OPLS-2005>
182.963729858398

> <r_mmod_Electrostatic_Energy-OPLS-2005>
-354.460266113281

> <r_mmod_Solvation_Energy-OPLS-2005>
-231.423645019531

> <b_mmod_Minimization_Converged-OPLS-2005>
0

> <r_mmod_RMS_Derivative-OPLS-2005>
1.86064696311951

$$$$
93
                    3D
 Structure written by MMmdl.
161170  0  0  1  0            999 V2000
  -30.7482  -14.4470   20.6603 C   0  0  0  0  0  0
  -30.4128  -12.3209   19.4277 C   0  0  0  0  0  0
  -29.4911  -12.5093   18.2080 C   0  0  0  0  0  0
  -28.0144  -12.3675   18.6163 C   0  0  0  0  0  0
  -27.6575  -13.2104   19.8684 C   0  0  2  0  0  0
  -28.6889  -12.9971   20.9944 C   0  0  0  0  0  0
  -25.2565  -13.8174   20.5614 C   0  0  0  0  0  0
  -24.1849  -13.0425   20.9139 C   0  0  0  0  0  0
  -24.6406  -11.6896   20.8677 C   0  0  0  0  0  0
  -23.9074  -10.4292   21.0359 C   0  0  0  0  0  0
  -24.3625   -9.4209   21.9143 C   0  0  0  0  0  0
  -23.6307   -8.2232   22.0725 C   0  0  0  0  0  0
  -22.4287   -8.0269   21.3510 C   0  0  0  0  0  0
  -21.9906   -9.0248   20.4611 C   0  0  0  0  0  0
  -22.7232  -10.2132   20.3017 C   0  0  0  0  0  0
  -21.6873   -6.0719   22.5264 C   0  0  0  0  0  0
  -21.4016   -6.5617   23.8192 C   0  0  0  0  0  0
  -21.3647   -5.6762   24.9153 C   0  0  0  0  0  0
  -21.6059   -4.3031   24.7216 C   0  0  0  0  0  0
  -21.8834   -3.8119   23.4340 C   0  0  0  0  0  0
  -21.9210   -4.6940   22.3396 C   0  0  0  0  0  0
  -22.7873  -13.5199   21.1890 C   0  0  0  0  0  0
  -22.1666   -4.2101   21.0980 F   0  0  0  0  0  0
  -21.5637   -3.4536   25.7745 F   0  0  0  0  0  0
  -30.0276  -13.3043   20.4579 N   0  0  0  0  0  0
  -26.3004  -12.9346   20.3288 N   0  0  0  0  0  0
  -25.9334  -11.6493   20.5715 N   0  0  0  0  0  0
  -22.0542  -12.8124   22.0419 N   0  0  0  0  0  0
  -25.4229  -15.1923   20.4043 N   0  0  0  0  0  0
  -31.8187  -14.6443   20.0764 O   0  0  0  0  0  0
  -21.6665   -6.8861   21.4214 O   0  0  0  0  0  0
  -22.3521  -14.5520   20.6810 O   0  0  0  0  0  0
  -24.6099  -31.8660   23.2129 C   0  0  0  0  0  0
  -25.8979  -32.4817   23.8420 C   0  0  1  0  0  0
  -27.2480  -27.4379   20.0975 C   0  0  0  0  0  0
  -25.5851  -33.8617   24.2346 N   0  0  0  0  0  0
  -23.3993  -30.4852   21.5533 C   0  0  2  0  0  0
  -24.8480  -28.9503   20.1133 C   0  0  0  0  0  0
  -22.7417  -29.4572   22.5016 C   0  0  0  0  0  0
  -18.0260  -28.1390   22.8462 C   0  0  0  0  0  0
  -24.1482  -36.7313   23.2657 C   0  0  0  0  0  0
  -25.9314  -30.8240   21.3764 C   0  0  0  0  0  0
  -26.0030  -29.4645   20.7142 C   0  0  0  0  0  0
  -27.1978  -28.7146   20.7039 C   0  0  0  0  0  0
  -26.0726  -26.9279   19.4969 C   0  0  0  0  0  0
  -24.8767  -27.6795   19.5048 C   0  0  0  0  0  0
  -23.6102  -29.8207   20.1654 C   0  0  0  0  0  0
  -25.4112  -36.3133   24.0346 C   0  0  1  0  0  0
  -20.5858  -28.3539   23.1304 C   0  0  2  0  0  0
  -20.6681  -26.9328   22.5253 C   0  0  0  0  0  0
  -19.5635  -26.6453   21.5019 C   0  0  0  0  0  0
  -18.1833  -26.7989   22.1483 C   0  0  0  0  0  0
  -19.1544  -28.8753   23.2916 C   0  0  0  0  0  0
  -18.9524  -30.1332   23.8982 C   0  0  0  0  0  0
  -17.6556  -30.6535   24.0663 C   0  0  0  0  0  0
  -25.9027  -34.9480   23.5171 C   0  0  0  0  0  0
  -16.5409  -29.9136   23.6385 C   0  0  0  0  0  0
  -16.7262  -28.6575   23.0329 C   0  0  0  0  0  0
  -26.4435  -31.6614   25.0763 C   0  0  0  0  0  0
  -25.3751  -31.3660   26.1549 C   0  0  0  0  0  0
  -27.0312  -30.3064   24.6177 C   0  0  0  0  0  0
  -27.6002  -32.4376   25.7484 C   0  0  0  0  0  0
  -27.5582  -37.1816   24.8472 C   0  0  0  0  0  0
  -21.4157  -29.2927   22.3761 N   0  0  0  0  0  0
  -26.4307  -37.3807   23.9407 N   0  0  0  0  0  0
  -24.6627  -31.0761   22.1031 N   0  0  0  0  0  0
  -23.4203  -28.8115   23.3053 O   0  0  0  0  0  0
  -28.4431  -26.7453   20.1669 O   0  0  0  0  0  0
  -26.5643  -34.8905   22.4766 O   0  0  0  0  0  0
  -23.5300  -32.1380   23.7554 O   0  0  0  0  0  0
  -28.4627  -18.7313   21.2913 C   0  0  0  0  0  0
  -30.3003  -18.7397   19.7212 C   0  0  0  0  0  0
  -28.8495  -17.4413   21.7310 C   0  0  0  0  0  0
  -30.6657  -17.4413   20.1339 C   0  0  0  0  0  0
  -29.1528  -19.3741   20.2380 C   0  0  0  0  0  0
  -29.9222  -16.7418   21.1207 C   0  0  0  0  0  0
  -27.8308  -23.8210   21.0340 C   0  0  0  0  0  0
  -28.5269  -24.2216   19.9609 C   0  0  0  0  0  0
  -27.8513  -22.3730   21.0757 C   0  0  0  0  0  0
  -29.0687  -23.0234   19.3409 C   0  0  0  0  0  0
  -27.0004  -24.6323   22.0140 C   0  0  0  0  0  0
  -30.2032  -15.0605   22.9483 C   0  0  0  0  0  0
  -28.5638  -20.5820   19.4850 C   0  0  0  0  0  0
  -28.7048  -25.6159   19.3249 C   0  0  0  0  0  0
  -28.5957  -21.9618   20.0320 N   0  0  0  0  0  0
  -30.2308  -15.3800   21.5112 N   0  0  0  0  0  0
  -27.2341  -21.6447   21.8560 O   0  0  0  0  0  0
  -29.7808  -22.9677   18.3303 O   0  0  0  0  0  0
  -31.4578  -12.4074   19.1257 H   0  0  0  0  0  0
  -30.3061  -11.3112   19.8266 H   0  0  0  0  0  0
  -29.7338  -11.7804   17.4336 H   0  0  0  0  0  0
  -29.6564  -13.4928   17.7640 H   0  0  0  0  0  0
  -27.8210  -11.3131   18.8185 H   0  0  0  0  0  0
  -27.3641  -12.6341   17.7827 H   0  0  0  0  0  0
  -27.7021  -14.2610   19.5735 H   0  0  0  0  0  0
  -28.6699  -11.9662   21.3495 H   0  0  0  0  0  0
  -28.4044  -13.6008   21.8535 H   0  0  0  0  0  0
  -25.2795   -9.5714   22.4682 H   0  0  0  0  0  0
  -24.0031   -7.4632   22.7447 H   0  0  0  0  0  0
  -21.0815   -8.8783   19.8928 H   0  0  0  0  0  0
  -22.3688  -10.9662   19.6107 H   0  0  0  0  0  0
  -21.1980   -7.6123   23.9685 H   0  0  0  0  0  0
  -21.1455   -6.0489   25.9056 H   0  0  0  0  0  0
  -22.0630   -2.7588   23.2864 H   0  0  0  0  0  0
  -22.4214  -11.9808   22.4795 H   0  0  0  0  0  0
  -21.1134  -13.1035   22.2646 H   0  0  0  0  0  0
  -24.6585  -15.8440   20.5414 H   0  0  0  0  0  0
  -26.2874  -15.6475   20.1373 H   0  0  0  0  0  0
  -26.7043  -32.5511   23.1170 H   0  0  0  0  0  0
  -24.9986  -33.9773   25.0475 H   0  0  0  0  0  0
  -22.6844  -31.3017   21.4246 H   0  0  0  0  0  0
  -23.3752  -35.9643   23.3356 H   0  0  0  0  0  0
  -24.3553  -36.8895   22.2064 H   0  0  0  0  0  0
  -23.7189  -37.6507   23.6651 H   0  0  0  0  0  0
  -26.0743  -31.5965   20.6210 H   0  0  0  0  0  0
  -26.8038  -30.8494   22.0183 H   0  0  0  0  0  0
  -28.0927  -29.1156   21.1587 H   0  0  0  0  0  0
  -26.0507  -25.9465   19.0435 H   0  0  0  0  0  0
  -23.9836  -27.2735   19.0501 H   0  0  0  0  0  0
  -23.7210  -30.6061   19.4164 H   0  0  0  0  0  0
  -22.7334  -29.2475   19.8623 H   0  0  0  0  0  0
  -25.1285  -36.2067   25.0837 H   0  0  0  0  0  0
  -20.9967  -28.2999   24.1421 H   0  0  0  0  0  0
  -21.6519  -26.7341   22.0996 H   0  0  0  0  0  0
  -20.5497  -26.2092   23.3318 H   0  0  0  0  0  0
  -19.6530  -27.3364   20.6651 H   0  0  0  0  0  0
  -19.6764  -25.6439   21.0834 H   0  0  0  0  0  0
  -17.4045  -26.6784   21.3920 H   0  0  0  0  0  0
  -18.0244  -26.0051   22.8774 H   0  0  0  0  0  0
  -19.8015  -30.7070   24.2439 H   0  0  0  0  0  0
  -17.5189  -31.6172   24.5386 H   0  0  0  0  0  0
  -15.5439  -30.3043   23.7780 H   0  0  0  0  0  0
  -15.8650  -28.0921   22.7082 H   0  0  0  0  0  0
  -24.5884  -30.7057   25.7874 H   0  0  0  0  0  0
  -24.8989  -32.2798   26.5126 H   0  0  0  0  0  0
  -25.8143  -30.8728   27.0237 H   0  0  0  0  0  0
  -26.2873  -29.6768   24.1294 H   0  0  0  0  0  0
  -27.4144  -29.7332   25.4622 H   0  0  0  0  0  0
  -27.8674  -30.4346   23.9302 H   0  0  0  0  0  0
  -27.2589  -33.3645   26.2086 H   0  0  0  0  0  0
  -28.3754  -32.6992   25.0281 H   0  0  0  0  0  0
  -28.0759  -31.8540   26.5371 H   0  0  0  0  0  0
  -28.2657  -38.0065   24.7532 H   0  0  0  0  0  0
  -28.1030  -36.2608   24.6333 H   0  0  0  0  0  0
  -27.2310  -37.1521   25.8878 H   0  0  0  0  0  0
  -20.9323  -29.8604   21.6953 H   0  0  0  0  0  0
  -26.0239  -38.2912   24.1387 H   0  0  0  0  0  0
  -27.5794  -19.1844   21.7182 H   0  0  0  0  0  0
  -30.8726  -19.2103   18.9368 H   0  0  0  0  0  0
  -28.2642  -16.9751   22.5106 H   0  0  0  0  0  0
  -31.5283  -17.0022   19.6557 H   0  0  0  0  0  0
  -25.9711  -24.7026   21.6624 H   0  0  0  0  0  0
  -27.3998  -25.6336   22.1600 H   0  0  0  0  0  0
  -26.9792  -24.1431   22.9890 H   0  0  0  0  0  0
  -30.8938  -15.7075   23.4865 H   0  0  0  0  0  0
  -30.4982  -14.0322   23.1656 H   0  0  0  0  0  0
  -29.2078  -15.1934   23.3712 H   0  0  0  0  0  0
  -27.5180  -20.3408   19.2900 H   0  0  0  0  0  0
  -29.0130  -20.5774   18.4900 H   0  0  0  0  0  0
  -28.1738  -25.6776   18.3730 H   0  0  0  0  0  0
  -29.7597  -25.7098   19.0643 H   0  0  0  0  0  0
  1 25  1  0  0  0
  1 30  2  0  0  0
  1 86  1  0  0  0
  2  3  1  0  0  0
  2 25  1  0  0  0
  2 89  1  0  0  0
  2 90  1  0  0  0
  3  4  1  0  0  0
  3 91  1  0  0  0
  3 92  1  0  0  0
  4  5  1  0  0  0
  4 93  1  0  0  0
  4 94  1  0  0  0
  5  6  1  0  0  0
  5 26  1  0  0  0
  5 95  1  0  0  0
  6 25  1  0  0  0
  6 96  1  0  0  0
  6 97  1  0  0  0
  7  8  2  0  0  0
  7 26  1  0  0  0
  7 29  1  0  0  0
  8  9  1  0  0  0
  8 22  1  0  0  0
  9 10  1  0  0  0
  9 27  2  0  0  0
 10 11  2  0  0  0
 10 15  1  0  0  0
 11 12  1  0  0  0
 11 98  1  0  0  0
 12 13  2  0  0  0
 12 99  1  0  0  0
 13 14  1  0  0  0
 13 31  1  0  0  0
 14 15  2  0  0  0
 14100  1  0  0  0
 15101  1  0  0  0
 16 17  2  0  0  0
 16 21  1  0  0  0
 16 31  1  0  0  0
 17 18  1  0  0  0
 17102  1  0  0  0
 18 19  2  0  0  0
 18103  1  0  0  0
 19 20  1  0  0  0
 19 24  1  0  0  0
 20 21  2  0  0  0
 20104  1  0  0  0
 21 23  1  0  0  0
 22 28  1  0  0  0
 22 32  2  0  0  0
 26 27  1  0  0  0
 28105  1  0  0  0
 28106  1  0  0  0
 29107  1  0  0  0
 29108  1  0  0  0
 33 34  1  0  0  0
 33 66  1  0  0  0
 33 70  2  0  0  0
 34 36  1  0  0  0
 34 59  1  0  0  0
 34109  1  0  0  0
 35 44  2  0  0  0
 35 45  1  0  0  0
 35 68  1  0  0  0
 36 56  1  0  0  0
 36110  1  0  0  0
 37 39  1  0  0  0
 37 47  1  0  0  0
 37 66  1  0  0  0
 37111  1  0  0  0
 38 43  2  0  0  0
 38 46  1  0  0  0
 38 47  1  0  0  0
 39 64  1  0  0  0
 39 67  2  0  0  0
 40 52  1  0  0  0
 40 53  2  0  0  0
 40 58  1  0  0  0
 41112  1  0  0  0
 41113  1  0  0  0
 41114  1  0  0  0
 41 48  1  0  0  0
 42 43  1  0  0  0
 42 66  1  0  0  0
 42115  1  0  0  0
 42116  1  0  0  0
 43 44  1  0  0  0
 44117  1  0  0  0
 45 46  2  0  0  0
 45118  1  0  0  0
 46119  1  0  0  0
 47120  1  0  0  0
 47121  1  0  0  0
 48 56  1  0  0  0
 48 65  1  0  0  0
 48122  1  0  0  0
 49 50  1  0  0  0
 49 53  1  0  0  0
 49 64  1  0  0  0
 49123  1  0  0  0
 50 51  1  0  0  0
 50124  1  0  0  0
 50125  1  0  0  0
 51 52  1  0  0  0
 51126  1  0  0  0
 51127  1  0  0  0
 52128  1  0  0  0
 52129  1  0  0  0
 53 54  1  0  0  0
 54 55  2  0  0  0
 54130  1  0  0  0
 55 57  1  0  0  0
 55131  1  0  0  0
 56 69  2  0  0  0
 57 58  2  0  0  0
 57132  1  0  0  0
 58133  1  0  0  0
 59 60  1  0  0  0
 59 61  1  0  0  0
 59 62  1  0  0  0
 60134  1  0  0  0
 60135  1  0  0  0
 60136  1  0  0  0
 61137  1  0  0  0
 61138  1  0  0  0
 61139  1  0  0  0
 62140  1  0  0  0
 62141  1  0  0  0
 62142  1  0  0  0
 63 65  1  0  0  0
 63143  1  0  0  0
 63144  1  0  0  0
 63145  1  0  0  0
 64146  1  0  0  0
 65147  1  0  0  0
 68 84  1  0  0  0
 71 73  2  0  0  0
 71 75  1  0  0  0
 71148  1  0  0  0
 72 74  1  0  0  0
 72 75  2  0  0  0
 72149  1  0  0  0
 73 76  1  0  0  0
 73150  1  0  0  0
 74 76  2  0  0  0
 74151  1  0  0  0
 75 83  1  0  0  0
 76 86  1  0  0  0
 77 78  2  0  0  0
 77 79  1  0  0  0
 77 81  1  0  0  0
 78 80  1  0  0  0
 78 84  1  0  0  0
 79 85  1  0  0  0
 79 87  2  0  0  0
 80 85  1  0  0  0
 80 88  2  0  0  0
 81152  1  0  0  0
 81153  1  0  0  0
 81154  1  0  0  0
 82 86  1  0  0  0
 82155  1  0  0  0
 82156  1  0  0  0
 82157  1  0  0  0
 83 85  1  0  0  0
 83158  1  0  0  0
 83159  1  0  0  0
 84160  1  0  0  0
 84161  1  0  0  0
M  ISO  4   1 100  68 101  84 101  86 100
M  END
> <chiral flag>
0

> <version>
0

> <s_m_source_file>
/data/baiqing/PycharmProjects/Reinvent-master-3.2/result/LINK_invent/BTK/process_docking_weight1_custom_product_contain_oxygen_bond_distance_aromatic_linkinvent_7_9_3/rearranged_h_0076.sdf

> <i_m_source_file_index>
94

> <r_mmod_Potential_Energy-OPLS-2005>
107.232772827148

> <r_mmod_Stretch_Energy-OPLS-2005>
46.0982475280762

> <r_mmod_Bend_Energy-OPLS-2005>
168.844009399414

> <r_mmod_Torsional_Energy-OPLS-2005>
292.301605224609

> <r_mmod_Improper_Torsional_Energy-OPLS-2005>
4.99063634872437

> <r_mmod_Van_der_Waal_Energy-OPLS-2005>
151.926406860352

> <r_mmod_Electrostatic_Energy-OPLS-2005>
-367.510772705078

> <r_mmod_Solvation_Energy-OPLS-2005>
-202.474227905273

> <b_mmod_Minimization_Converged-OPLS-2005>
0

> <r_mmod_RMS_Derivative-OPLS-2005>
5.6912989616394

$$$$
94
                    3D
 Structure written by MMmdl.
157166  0  0  1  0            999 V2000
  -30.4728  -15.1178   20.3691 C   0  0  0  0  0  0
  -30.4387  -12.6961   19.5233 C   0  0  0  0  0  0
  -29.5314  -12.5599   18.2767 C   0  0  0  0  0  0
  -28.0712  -12.3130   18.6954 C   0  0  0  0  0  0
  -27.6217  -13.2626   19.8359 C   0  0  2  0  0  0
  -28.6577  -13.3635   20.9762 C   0  0  0  0  0  0
  -25.2439  -13.8234   20.5723 C   0  0  0  0  0  0
  -24.1762  -13.0446   20.9232 C   0  0  0  0  0  0
  -24.6388  -11.6935   20.8738 C   0  0  0  0  0  0
  -23.9074  -10.4300   21.0395 C   0  0  0  0  0  0
  -24.3626   -9.4217   21.9177 C   0  0  0  0  0  0
  -23.6308   -8.2250   22.0755 C   0  0  0  0  0  0
  -22.4287   -8.0277   21.3552 C   0  0  0  0  0  0
  -21.9919   -9.0247   20.4649 C   0  0  0  0  0  0
  -22.7243  -10.2131   20.3055 C   0  0  0  0  0  0
  -21.6870   -6.0730   22.5278 C   0  0  0  0  0  0
  -21.4020   -6.5638   23.8204 C   0  0  0  0  0  0
  -21.3666   -5.6794   24.9168 C   0  0  0  0  0  0
  -21.6052   -4.3050   24.7224 C   0  0  0  0  0  0
  -21.8826   -3.8143   23.4345 C   0  0  0  0  0  0
  -21.9202   -4.6959   22.3400 C   0  0  0  0  0  0
  -22.7782  -13.5202   21.1887 C   0  0  0  0  0  0
  -22.1672   -4.2140   21.0979 F   0  0  0  0  0  0
  -21.5628   -3.4540   25.7744 F   0  0  0  0  0  0
  -29.9168  -13.8214   20.3705 N   0  0  0  0  0  0
  -26.2854  -12.9477   20.3243 N   0  0  0  0  0  0
  -25.9322  -11.6593   20.5714 N   0  0  0  0  0  0
  -22.0451  -12.8177   22.0441 N   0  0  0  0  0  0
  -25.4116  -15.1964   20.4136 N   0  0  0  0  0  0
  -31.6757  -15.1597   20.0782 O   0  0  0  0  0  0
  -21.6662   -6.8872   21.4242 O   0  0  0  0  0  0
  -22.3457  -14.5504   20.6741 O   0  0  0  0  0  0
  -24.6554  -31.8314   23.1769 C   0  0  0  0  0  0
  -25.9282  -32.4625   23.8195 C   0  0  1  0  0  0
  -27.2167  -27.0100   20.1564 C   0  0  0  0  0  0
  -25.5984  -33.8432   24.2117 N   0  0  0  0  0  0
  -23.4640  -30.4463   21.5261 C   0  0  2  0  0  0
  -24.9139  -28.8489   20.1113 C   0  0  0  0  0  0
  -22.7626  -29.4479   22.4827 C   0  0  0  0  0  0
  -18.0321  -28.1405   22.8471 C   0  0  0  0  0  0
  -24.1502  -36.7215   23.2642 C   0  0  0  0  0  0
  -26.0288  -30.6635   21.3945 C   0  0  0  0  0  0
  -26.0961  -29.2627   20.7359 C   0  0  0  0  0  0
  -27.2415  -28.3601   20.7386 C   0  0  0  0  0  0
  -25.9995  -26.7251   19.4997 C   0  0  0  0  0  0
  -24.8849  -27.5979   19.4772 C   0  0  0  0  0  0
  -23.6962  -29.7659   20.1501 C   0  0  0  0  0  0
  -25.4138  -36.2983   24.0302 C   0  0  1  0  0  0
  -20.5934  -28.3739   23.1215 C   0  0  2  0  0  0
  -20.6797  -26.9431   22.5406 C   0  0  0  0  0  0
  -19.5770  -26.6374   21.5217 C   0  0  0  0  0  0
  -18.1952  -26.7940   22.1624 C   0  0  0  0  0  0
  -19.1574  -28.8894   23.2828 C   0  0  0  0  0  0
  -18.9486  -30.1489   23.8853 C   0  0  0  0  0  0
  -17.6478  -30.6593   24.0556 C   0  0  0  0  0  0
  -25.9095  -34.9370   23.5026 C   0  0  0  0  0  0
  -16.5369  -29.9077   23.6348 C   0  0  0  0  0  0
  -16.7300  -28.6498   23.0362 C   0  0  0  0  0  0
  -26.4558  -31.6535   25.0689 C   0  0  0  0  0  0
  -25.3701  -31.3768   26.1359 C   0  0  0  0  0  0
  -27.0439  -30.2911   24.6361 C   0  0  0  0  0  0
  -27.6059  -32.4329   25.7487 C   0  0  0  0  0  0
  -27.5582  -37.1762   24.8467 C   0  0  0  0  0  0
  -21.4307  -29.3033   22.3572 N   0  0  0  0  0  0
  -26.4291  -37.3712   23.9404 N   0  0  0  0  0  0
  -24.7370  -31.0047   22.0868 N   0  0  0  0  0  0
  -23.4217  -28.8035   23.3023 O   0  0  0  0  0  0
  -28.2617  -25.9746   20.2450 O   0  0  0  0  0  0
  -26.5683  -34.8889   22.4608 O   0  0  0  0  0  0
  -23.5646  -32.1248   23.6922 O   0  0  0  0  0  0
  -30.0554  -20.6944   19.2186 C   0  0  0  0  0  0
  -29.0557  -19.0720   20.7123 C   0  0  0  0  0  0
  -30.6642  -18.2533   19.1270 C   0  0  0  0  0  0
  -29.1476  -20.5376   20.2874 C   0  0  0  0  0  0
  -30.7755  -19.5985   18.6605 C   0  0  0  0  0  0
  -29.8007  -17.8676   20.1813 C   0  0  0  0  0  0
  -28.5551  -23.3792   20.8388 C   0  0  0  0  0  0
  -28.7572  -23.7698   22.2298 C   0  0  0  0  0  0
  -27.9126  -21.6023   22.1206 C   0  0  0  0  0  0
  -28.2085  -24.4839   19.9721 C   0  0  0  0  0  0
  -28.2262  -22.6925   23.1376 C   0  0  0  0  0  0
  -27.8202  -24.1902   18.5355 C   0  0  0  0  0  0
  -28.4447  -21.8296   20.8951 N   0  0  0  0  0  0
  -31.6433  -19.8623   17.6000 N   0  0  0  0  0  0
  -29.6868  -16.3317   20.5584 N   0  0  0  0  0  0
  -29.2563  -24.8148   22.6621 O   0  0  0  0  0  0
  -27.1911  -20.6498   22.4412 O   0  0  0  0  0  0
  -31.4683  -12.8701   19.2094 H   0  0  0  0  0  0
  -30.4618  -11.7633   20.0884 H   0  0  0  0  0  0
  -29.8808  -11.7493   17.6353 H   0  0  0  0  0  0
  -29.5930  -13.4709   17.6788 H   0  0  0  0  0  0
  -27.9955  -11.2775   19.0304 H   0  0  0  0  0  0
  -27.4079  -12.4065   17.8343 H   0  0  0  0  0  0
  -27.5612  -14.2489   19.3744 H   0  0  0  0  0  0
  -28.7826  -12.4092   21.4905 H   0  0  0  0  0  0
  -28.3230  -14.0771   21.7307 H   0  0  0  0  0  0
  -25.2770   -9.5707   22.4745 H   0  0  0  0  0  0
  -24.0035   -7.4644   22.7466 H   0  0  0  0  0  0
  -21.0858   -8.8750   19.8940 H   0  0  0  0  0  0
  -22.3689  -10.9667   19.6157 H   0  0  0  0  0  0
  -21.2009   -7.6144   23.9706 H   0  0  0  0  0  0
  -21.1484   -6.0522   25.9075 H   0  0  0  0  0  0
  -22.0599   -2.7606   23.2854 H   0  0  0  0  0  0
  -22.4105  -11.9854   22.4831 H   0  0  0  0  0  0
  -21.1056  -13.1168   22.2651 H   0  0  0  0  0  0
  -24.6403  -15.8481   20.5095 H   0  0  0  0  0  0
  -26.2544  -15.6332   20.0640 H   0  0  0  0  0  0
  -26.7340  -32.5190   23.0901 H   0  0  0  0  0  0
  -25.0124  -33.9524   25.0264 H   0  0  0  0  0  0
  -22.7726  -31.2758   21.3611 H   0  0  0  0  0  0
  -23.3777  -35.9536   23.3278 H   0  0  0  0  0  0
  -24.3580  -36.8884   22.2063 H   0  0  0  0  0  0
  -23.7256  -37.6394   23.6706 H   0  0  0  0  0  0
  -26.2012  -31.4113   20.6196 H   0  0  0  0  0  0
  -26.8940  -30.7141   22.0441 H   0  0  0  0  0  0
  -28.1409  -28.6716   21.2499 H   0  0  0  0  0  0
  -25.8591  -25.7667   19.0281 H   0  0  0  0  0  0
  -23.9808  -27.2701   18.9830 H   0  0  0  0  0  0
  -23.8411  -30.5344   19.3907 H   0  0  0  0  0  0
  -22.8078  -29.2144   19.8368 H   0  0  0  0  0  0
  -25.1340  -36.1783   25.0794 H   0  0  0  0  0  0
  -21.0028  -28.3341   24.1334 H   0  0  0  0  0  0
  -20.5701  -26.2353   23.3635 H   0  0  0  0  0  0
  -21.6659  -26.7427   22.1194 H   0  0  0  0  0  0
  -19.6929  -25.6273   21.1273 H   0  0  0  0  0  0
  -19.6707  -27.3167   20.6728 H   0  0  0  0  0  0
  -17.4222  -26.6696   21.4024 H   0  0  0  0  0  0
  -18.0341  -26.0093   22.9029 H   0  0  0  0  0  0
  -19.7958  -30.7330   24.2195 H   0  0  0  0  0  0
  -17.5021  -31.6270   24.5164 H   0  0  0  0  0  0
  -15.5369  -30.2959   23.7694 H   0  0  0  0  0  0
  -15.8703  -28.0802   22.7097 H   0  0  0  0  0  0
  -24.5878  -30.7130   25.7656 H   0  0  0  0  0  0
  -24.8898  -32.2969   26.4693 H   0  0  0  0  0  0
  -25.7946  -30.8976   27.0193 H   0  0  0  0  0  0
  -26.3084  -29.6604   24.1355 H   0  0  0  0  0  0
  -27.3992  -29.7249   25.4982 H   0  0  0  0  0  0
  -27.9019  -30.4109   23.9745 H   0  0  0  0  0  0
  -27.2632  -33.3662   26.1969 H   0  0  0  0  0  0
  -28.3922  -32.6847   25.0356 H   0  0  0  0  0  0
  -28.0671  -31.8519   26.5485 H   0  0  0  0  0  0
  -28.2573  -38.0080   24.7516 H   0  0  0  0  0  0
  -28.1103  -36.2605   24.6295 H   0  0  0  0  0  0
  -27.2290  -37.1411   25.8866 H   0  0  0  0  0  0
  -20.9557  -29.8728   21.6711 H   0  0  0  0  0  0
  -26.0145  -38.2774   24.1404 H   0  0  0  0  0  0
  -30.2091  -21.6874   18.8208 H   0  0  0  0  0  0
  -28.3795  -18.8288   21.5155 H   0  0  0  0  0  0
  -31.2465  -17.4869   18.6346 H   0  0  0  0  0  0
  -27.3337  -23.0161   23.6709 H   0  0  0  0  0  0
  -28.9891  -22.3595   23.8400 H   0  0  0  0  0  0
  -28.5093  -23.4666   18.0985 H   0  0  0  0  0  0
  -27.8501  -25.0904   17.9207 H   0  0  0  0  0  0
  -26.8191  -23.7605   18.4883 H   0  0  0  0  0  0
  -31.5890  -20.7507   17.1108 H   0  0  0  0  0  0
  -31.9895  -19.1030   17.0211 H   0  0  0  0  0  0
  -28.7909  -16.1054   20.9648 H   0  0  0  0  0  0
  1 25  1  0  0  0
  1 30  2  0  0  0
  1 85  1  0  0  0
  2  3  1  0  0  0
  2 25  1  0  0  0
  2 88  1  0  0  0
  2 89  1  0  0  0
  3  4  1  0  0  0
  3 90  1  0  0  0
  3 91  1  0  0  0
  4  5  1  0  0  0
  4 92  1  0  0  0
  4 93  1  0  0  0
  5  6  1  0  0  0
  5 26  1  0  0  0
  5 94  1  0  0  0
  6 25  1  0  0  0
  6 95  1  0  0  0
  6 96  1  0  0  0
  7  8  2  0  0  0
  7 26  1  0  0  0
  7 29  1  0  0  0
  8  9  1  0  0  0
  8 22  1  0  0  0
  9 10  1  0  0  0
  9 27  2  0  0  0
 10 11  2  0  0  0
 10 15  1  0  0  0
 11 12  1  0  0  0
 11 97  1  0  0  0
 12 13  2  0  0  0
 12 98  1  0  0  0
 13 14  1  0  0  0
 13 31  1  0  0  0
 14 15  2  0  0  0
 14 99  1  0  0  0
 15100  1  0  0  0
 16 17  2  0  0  0
 16 21  1  0  0  0
 16 31  1  0  0  0
 17 18  1  0  0  0
 17101  1  0  0  0
 18 19  2  0  0  0
 18102  1  0  0  0
 19 20  1  0  0  0
 19 24  1  0  0  0
 20 21  2  0  0  0
 20103  1  0  0  0
 21 23  1  0  0  0
 22 28  1  0  0  0
 22 32  2  0  0  0
 26 27  1  0  0  0
 28104  1  0  0  0
 28105  1  0  0  0
 29106  1  0  0  0
 29107  1  0  0  0
 33 34  1  0  0  0
 33 66  1  0  0  0
 33 70  2  0  0  0
 34 36  1  0  0  0
 34 59  1  0  0  0
 34108  1  0  0  0
 35 44  2  0  0  0
 35 45  1  0  0  0
 35 68  1  0  0  0
 36 56  1  0  0  0
 36109  1  0  0  0
 37 39  1  0  0  0
 37 47  1  0  0  0
 37 66  1  0  0  0
 37110  1  0  0  0
 38 43  2  0  0  0
 38 46  1  0  0  0
 38 47  1  0  0  0
 39 64  1  0  0  0
 39 67  2  0  0  0
 40 52  1  0  0  0
 40 53  2  0  0  0
 40 58  1  0  0  0
 41111  1  0  0  0
 41112  1  0  0  0
 41113  1  0  0  0
 41 48  1  0  0  0
 42 43  1  0  0  0
 42 66  1  0  0  0
 42114  1  0  0  0
 42115  1  0  0  0
 43 44  1  0  0  0
 44116  1  0  0  0
 45 46  2  0  0  0
 45117  1  0  0  0
 46118  1  0  0  0
 47119  1  0  0  0
 47120  1  0  0  0
 48 56  1  0  0  0
 48 65  1  0  0  0
 48121  1  0  0  0
 49 50  1  0  0  0
 49 53  1  0  0  0
 49 64  1  0  0  0
 49122  1  0  0  0
 50 51  1  0  0  0
 50123  1  0  0  0
 50124  1  0  0  0
 51 52  1  0  0  0
 51125  1  0  0  0
 51126  1  0  0  0
 52127  1  0  0  0
 52128  1  0  0  0
 53 54  1  0  0  0
 54 55  2  0  0  0
 54129  1  0  0  0
 55 57  1  0  0  0
 55130  1  0  0  0
 56 69  2  0  0  0
 57 58  2  0  0  0
 57131  1  0  0  0
 58132  1  0  0  0
 59 60  1  0  0  0
 59 61  1  0  0  0
 59 62  1  0  0  0
 60133  1  0  0  0
 60134  1  0  0  0
 60135  1  0  0  0
 61136  1  0  0  0
 61137  1  0  0  0
 61138  1  0  0  0
 62139  1  0  0  0
 62140  1  0  0  0
 62141  1  0  0  0
 63 65  1  0  0  0
 63142  1  0  0  0
 63143  1  0  0  0
 63144  1  0  0  0
 64145  1  0  0  0
 65146  1  0  0  0
 68 80  1  0  0  0
 71 74  2  0  0  0
 71 75  1  0  0  0
 71147  1  0  0  0
 72 74  1  0  0  0
 72 76  2  0  0  0
 72148  1  0  0  0
 73 75  2  0  0  0
 73 76  1  0  0  0
 73149  1  0  0  0
 74 83  1  0  0  0
 75 84  1  0  0  0
 76 85  1  0  0  0
 77 78  1  0  0  0
 77 80  2  0  0  0
 77 83  1  0  0  0
 78 81  1  0  0  0
 78 86  2  0  0  0
 79 81  1  0  0  0
 79 83  1  0  0  0
 79 87  2  0  0  0
 80 82  1  0  0  0
 81150  1  0  0  0
 81151  1  0  0  0
 82152  1  0  0  0
 82153  1  0  0  0
 82154  1  0  0  0
 84155  1  0  0  0
 84156  1  0  0  0
 85157  1  0  0  0
M  ISO  4   1 100  68 101  80 101  85 100
M  END
> <chiral flag>
0

> <version>
0

> <s_m_source_file>
/data/baiqing/PycharmProjects/Reinvent-master-3.2/result/LINK_invent/BTK/process_docking_weight1_custom_product_contain_oxygen_bond_distance_aromatic_linkinvent_7_9_3/rearranged_h_0076.sdf

> <i_m_source_file_index>
95

> <r_mmod_Potential_Energy-OPLS-2005>
982.975646972656

> <r_mmod_Stretch_Energy-OPLS-2005>
404.4599609375

> <r_mmod_Bend_Energy-OPLS-2005>
391.181793212891

> <r_mmod_Torsional_Energy-OPLS-2005>
330.409301757812

> <r_mmod_Improper_Torsional_Energy-OPLS-2005>
7.62102079391479

> <r_mmod_Van_der_Waal_Energy-OPLS-2005>
125.700248718262

> <r_mmod_Electrostatic_Energy-OPLS-2005>
-352.431365966797

> <r_mmod_Solvation_Energy-OPLS-2005>
-247.497711181641

> <b_mmod_Minimization_Converged-OPLS-2005>
0

> <r_mmod_RMS_Derivative-OPLS-2005>
1.77512550354004

$$$$
95
                    3D
 Structure written by MMmdl.
165174  0  0  1  0            999 V2000
  -30.6503  -14.6527   20.5847 C   0  0  0  0  0  0
  -30.4370  -12.4258   19.4613 C   0  0  0  0  0  0
  -29.5100  -12.5359   18.2293 C   0  0  0  0  0  0
  -28.0329  -12.3565   18.6314 C   0  0  0  0  0  0
  -27.6536  -13.2155   19.8645 C   0  0  2  0  0  0
  -28.6885  -13.0458   20.9946 C   0  0  0  0  0  0
  -25.2558  -13.8154   20.5669 C   0  0  0  0  0  0
  -24.1823  -13.0425   20.9176 C   0  0  0  0  0  0
  -24.6390  -11.6896   20.8718 C   0  0  0  0  0  0
  -23.9057  -10.4284   21.0392 C   0  0  0  0  0  0
  -24.3614   -9.4205   21.9175 C   0  0  0  0  0  0
  -23.6290   -8.2241   22.0748 C   0  0  0  0  0  0
  -22.4274   -8.0278   21.3542 C   0  0  0  0  0  0
  -21.9905   -9.0246   20.4642 C   0  0  0  0  0  0
  -22.7227  -10.2126   20.3047 C   0  0  0  0  0  0
  -21.6853   -6.0735   22.5280 C   0  0  0  0  0  0
  -21.4012   -6.5636   23.8213 C   0  0  0  0  0  0
  -21.3657   -5.6789   24.9175 C   0  0  0  0  0  0
  -21.6042   -4.3052   24.7224 C   0  0  0  0  0  0
  -21.8821   -3.8147   23.4347 C   0  0  0  0  0  0
  -21.9194   -4.6962   22.3403 C   0  0  0  0  0  0
  -22.7851  -13.5223   21.1847 C   0  0  0  0  0  0
  -22.1664   -4.2149   21.0981 F   0  0  0  0  0  0
  -21.5624   -3.4536   25.7736 F   0  0  0  0  0  0
  -30.0110  -13.4319   20.4645 N   0  0  0  0  0  0
  -26.2978  -12.9335   20.3283 N   0  0  0  0  0  0
  -25.9312  -11.6489   20.5709 N   0  0  0  0  0  0
  -22.0500  -12.8217   22.0409 N   0  0  0  0  0  0
  -25.4274  -15.1874   20.4105 N   0  0  0  0  0  0
  -31.7222  -14.8581   20.0027 O   0  0  0  0  0  0
  -21.6636   -6.8877   21.4243 O   0  0  0  0  0  0
  -22.3537  -14.5532   20.6699 O   0  0  0  0  0  0
  -24.6273  -31.8583   23.2010 C   0  0  0  0  0  0
  -25.9119  -32.4764   23.8336 C   0  0  1  0  0  0
  -27.2258  -27.3145   20.1232 C   0  0  0  0  0  0
  -25.5942  -33.8564   24.2271 N   0  0  0  0  0  0
  -23.4217  -30.4804   21.5424 C   0  0  2  0  0  0
  -24.8697  -28.9285   20.1135 C   0  0  0  0  0  0
  -22.7477  -29.4621   22.4920 C   0  0  0  0  0  0
  -18.0294  -28.1403   22.8478 C   0  0  0  0  0  0
  -24.1488  -36.7269   23.2637 C   0  0  0  0  0  0
  -25.9617  -30.7882   21.3714 C   0  0  0  0  0  0
  -26.0388  -29.4131   20.7171 C   0  0  0  0  0  0
  -27.2235  -28.6172   20.7107 C   0  0  0  0  0  0
  -26.0380  -26.8775   19.5030 C   0  0  0  0  0  0
  -24.8707  -27.6656   19.4981 C   0  0  0  0  0  0
  -23.6386  -29.8115   20.1588 C   0  0  0  0  0  0
  -25.4109  -36.3058   24.0334 C   0  0  1  0  0  0
  -20.5891  -28.3703   23.1278 C   0  0  2  0  0  0
  -20.6780  -26.9424   22.5409 C   0  0  0  0  0  0
  -19.5761  -26.6403   21.5209 C   0  0  0  0  0  0
  -18.1940  -26.7948   22.1622 C   0  0  0  0  0  0
  -19.1543  -28.8869   23.2873 C   0  0  0  0  0  0
  -18.9463  -30.1471   23.8886 C   0  0  0  0  0  0
  -17.6466  -30.6598   24.0570 C   0  0  0  0  0  0
  -25.9047  -34.9438   23.5095 C   0  0  0  0  0  0
  -16.5357  -29.9096   23.6347 C   0  0  0  0  0  0
  -16.7284  -28.6524   23.0346 C   0  0  0  0  0  0
  -26.4497  -31.6572   25.0706 C   0  0  0  0  0  0
  -25.3745  -31.3737   26.1447 C   0  0  0  0  0  0
  -27.0319  -30.2989   24.6155 C   0  0  0  0  0  0
  -27.6061  -32.4303   25.7472 C   0  0  0  0  0  0
  -27.5575  -37.1780   24.8462 C   0  0  0  0  0  0
  -21.4189  -29.3045   22.3657 N   0  0  0  0  0  0
  -26.4277  -37.3764   23.9421 N   0  0  0  0  0  0
  -24.6888  -31.0597   22.0955 N   0  0  0  0  0  0
  -23.4195  -28.8187   23.3019 O   0  0  0  0  0  0
  -28.3280  -26.4451   20.1239 O   0  0  0  0  0  0
  -26.5601  -34.8919   22.4652 O   0  0  0  0  0  0
  -23.5437  -32.1377   23.7347 O   0  0  0  0  0  0
  -30.1632  -17.8146   19.8761 C   0  0  0  0  0  0
  -29.9660  -19.1971   19.5398 C   0  0  0  0  0  0
  -29.1097  -19.6154   21.7175 C   0  0  0  0  0  0
  -29.8419  -17.2596   21.1522 C   0  0  0  0  0  0
  -29.4330  -20.1535   20.4526 C   0  0  0  0  0  0
  -29.2803  -18.2341   22.0623 C   0  0  0  0  0  0
  -29.3013  -23.6660   18.9930 C   0  0  0  0  0  0
  -28.6888  -23.9628   20.2726 C   0  0  0  0  0  0
  -29.5142  -24.5440   17.9978 C   0  0  0  0  0  0
  -30.0684  -15.7550   21.5586 C   0  0  0  0  0  0
  -28.2291  -25.1800   20.7552 C   0  0  0  0  0  0
  -27.6481  -17.9617   23.7733 C   0  0  0  0  0  0
  -29.6579  -22.1810   18.8852 C   0  0  0  0  0  0
  -28.6411  -22.6025   21.0233 C   0  0  0  0  0  0
  -27.6054  -25.2910   22.1409 C   0  0  0  0  0  0
  -27.5085  -17.6745   25.2598 C   0  0  0  0  0  0
  -29.8501  -15.3844   22.7530 N   0  0  0  0  0  0
  -29.2325  -21.5539   20.1420 N   0  0  0  0  0  0
  -26.6670  -18.2363   23.0786 O   0  0  0  0  0  0
  -28.9356  -17.8913   23.3535 O   0  0  0  0  0  0
  -31.4778  -12.5544   19.1598 H   0  0  0  0  0  0
  -30.3831  -11.4237   19.8896 H   0  0  0  0  0  0
  -29.7866  -11.7919   17.4814 H   0  0  0  0  0  0
  -29.6453  -13.5097   17.7566 H   0  0  0  0  0  0
  -27.8757  -11.3008   18.8557 H   0  0  0  0  0  0
  -27.3788  -12.5897   17.7900 H   0  0  0  0  0  0
  -27.6819  -14.2567   19.5435 H   0  0  0  0  0  0
  -28.7131  -12.0087   21.3326 H   0  0  0  0  0  0
  -28.3718  -13.6144   21.8647 H   0  0  0  0  0  0
  -25.2764   -9.5686   22.4740 H   0  0  0  0  0  0
  -24.0004   -7.4638   22.7471 H   0  0  0  0  0  0
  -21.0834   -8.8759   19.8956 H   0  0  0  0  0  0
  -22.3679  -10.9659   19.6151 H   0  0  0  0  0  0
  -21.2005   -7.6144   23.9717 H   0  0  0  0  0  0
  -21.1471   -6.0516   25.9077 H   0  0  0  0  0  0
  -22.0600   -2.7610   23.2843 H   0  0  0  0  0  0
  -22.4123  -11.9876   22.4789 H   0  0  0  0  0  0
  -21.1122  -13.1249   22.2618 H   0  0  0  0  0  0
  -24.6660  -15.8452   20.5367 H   0  0  0  0  0  0
  -26.2848  -15.6301   20.1061 H   0  0  0  0  0  0
  -26.7179  -32.5434   23.1072 H   0  0  0  0  0  0
  -25.0137  -33.9703   25.0453 H   0  0  0  0  0  0
  -22.7154  -31.3011   21.3973 H   0  0  0  0  0  0
  -23.3760  -35.9591   23.3283 H   0  0  0  0  0  0
  -24.3582  -36.8892   22.2050 H   0  0  0  0  0  0
  -23.7241  -37.6470   23.6663 H   0  0  0  0  0  0
  -26.0911  -31.5512   20.6025 H   0  0  0  0  0  0
  -26.8428  -30.8392   21.9993 H   0  0  0  0  0  0
  -28.1233  -28.9822   21.1850 H   0  0  0  0  0  0
  -26.0103  -25.9031   19.0360 H   0  0  0  0  0  0
  -23.9744  -27.2880   19.0255 H   0  0  0  0  0  0
  -23.7602  -30.5860   19.4008 H   0  0  0  0  0  0
  -22.7583  -29.2404   19.8569 H   0  0  0  0  0  0
  -25.1294  -36.1882   25.0828 H   0  0  0  0  0  0
  -20.9976  -28.3277   24.1402 H   0  0  0  0  0  0
  -20.5680  -26.2314   23.3608 H   0  0  0  0  0  0
  -21.6654  -26.7460   22.1208 H   0  0  0  0  0  0
  -19.6915  -25.6312   21.1247 H   0  0  0  0  0  0
  -19.6710  -27.3205   20.6730 H   0  0  0  0  0  0
  -17.4215  -26.6706   21.4015 H   0  0  0  0  0  0
  -18.0332  -26.0095   22.9021 H   0  0  0  0  0  0
  -19.7934  -30.7297   24.2245 H   0  0  0  0  0  0
  -17.5026  -31.6277   24.5176 H   0  0  0  0  0  0
  -15.5357  -30.2994   23.7692 H   0  0  0  0  0  0
  -15.8683  -28.0858   22.7043 H   0  0  0  0  0  0
  -24.5972  -30.6990   25.7837 H   0  0  0  0  0  0
  -24.8873  -32.2905   26.4771 H   0  0  0  0  0  0
  -25.8108  -30.9049   27.0276 H   0  0  0  0  0  0
  -26.2872  -29.6753   24.1191 H   0  0  0  0  0  0
  -27.4012  -29.7228   25.4648 H   0  0  0  0  0  0
  -27.8750  -30.4253   23.9362 H   0  0  0  0  0  0
  -27.2677  -33.3623   26.2010 H   0  0  0  0  0  0
  -28.3891  -32.6819   25.0308 H   0  0  0  0  0  0
  -28.0700  -31.8449   26.5418 H   0  0  0  0  0  0
  -28.2575  -38.0090   24.7515 H   0  0  0  0  0  0
  -28.1081  -36.2619   24.6264 H   0  0  0  0  0  0
  -27.2305  -37.1400   25.8868 H   0  0  0  0  0  0
  -20.9372  -29.8739   21.6839 H   0  0  0  0  0  0
  -26.0143  -38.2828   24.1455 H   0  0  0  0  0  0
  -30.5857  -17.1709   19.1182 H   0  0  0  0  0  0
  -30.2416  -19.5151   18.5442 H   0  0  0  0  0  0
  -28.7087  -20.2802   22.4681 H   0  0  0  0  0  0
  -29.2465  -25.5863   18.0742 H   0  0  0  0  0  0
  -29.9640  -24.2218   17.0697 H   0  0  0  0  0  0
  -30.7322  -22.0595   18.7391 H   0  0  0  0  0  0
  -29.1421  -21.7317   18.0347 H   0  0  0  0  0  0
  -27.6097  -22.3537   21.2786 H   0  0  0  0  0  0
  -29.2126  -22.6750   21.9501 H   0  0  0  0  0  0
  -26.5274  -25.1402   22.0843 H   0  0  0  0  0  0
  -27.7933  -26.2715   22.5786 H   0  0  0  0  0  0
  -28.0154  -24.5506   22.8267 H   0  0  0  0  0  0
  -26.5103  -17.2977   25.4823 H   0  0  0  0  0  0
  -27.6712  -18.5877   25.8323 H   0  0  0  0  0  0
  -28.2384  -16.9306   25.5782 H   0  0  0  0  0  0
  -29.5257  -16.1614   23.3160 H   0  0  0  0  0  0
  1 25  1  0  0  0
  1 30  2  0  0  0
  1 80  1  0  0  0
  2  3  1  0  0  0
  2 25  1  0  0  0
  2 91  1  0  0  0
  2 92  1  0  0  0
  3  4  1  0  0  0
  3 93  1  0  0  0
  3 94  1  0  0  0
  4  5  1  0  0  0
  4 95  1  0  0  0
  4 96  1  0  0  0
  5  6  1  0  0  0
  5 26  1  0  0  0
  5 97  1  0  0  0
  6 25  1  0  0  0
  6 98  1  0  0  0
  6 99  1  0  0  0
  7  8  2  0  0  0
  7 26  1  0  0  0
  7 29  1  0  0  0
  8  9  1  0  0  0
  8 22  1  0  0  0
  9 10  1  0  0  0
  9 27  2  0  0  0
 10 11  2  0  0  0
 10 15  1  0  0  0
 11 12  1  0  0  0
 11100  1  0  0  0
 12 13  2  0  0  0
 12101  1  0  0  0
 13 14  1  0  0  0
 13 31  1  0  0  0
 14 15  2  0  0  0
 14102  1  0  0  0
 15103  1  0  0  0
 16 17  2  0  0  0
 16 21  1  0  0  0
 16 31  1  0  0  0
 17 18  1  0  0  0
 17104  1  0  0  0
 18 19  2  0  0  0
 18105  1  0  0  0
 19 20  1  0  0  0
 19 24  1  0  0  0
 20 21  2  0  0  0
 20106  1  0  0  0
 21 23  1  0  0  0
 22 28  1  0  0  0
 22 32  2  0  0  0
 26 27  1  0  0  0
 28107  1  0  0  0
 28108  1  0  0  0
 29109  1  0  0  0
 29110  1  0  0  0
 33 34  1  0  0  0
 33 66  1  0  0  0
 33 70  2  0  0  0
 34 36  1  0  0  0
 34 59  1  0  0  0
 34111  1  0  0  0
 35 44  2  0  0  0
 35 45  1  0  0  0
 35 68  1  0  0  0
 36 56  1  0  0  0
 36112  1  0  0  0
 37 39  1  0  0  0
 37 47  1  0  0  0
 37 66  1  0  0  0
 37113  1  0  0  0
 38 43  2  0  0  0
 38 46  1  0  0  0
 38 47  1  0  0  0
 39 64  1  0  0  0
 39 67  2  0  0  0
 40 52  1  0  0  0
 40 53  2  0  0  0
 40 58  1  0  0  0
 41114  1  0  0  0
 41115  1  0  0  0
 41116  1  0  0  0
 41 48  1  0  0  0
 42 43  1  0  0  0
 42 66  1  0  0  0
 42117  1  0  0  0
 42118  1  0  0  0
 43 44  1  0  0  0
 44119  1  0  0  0
 45 46  2  0  0  0
 45120  1  0  0  0
 46121  1  0  0  0
 47122  1  0  0  0
 47123  1  0  0  0
 48 56  1  0  0  0
 48 65  1  0  0  0
 48124  1  0  0  0
 49 50  1  0  0  0
 49 53  1  0  0  0
 49 64  1  0  0  0
 49125  1  0  0  0
 50 51  1  0  0  0
 50126  1  0  0  0
 50127  1  0  0  0
 51 52  1  0  0  0
 51128  1  0  0  0
 51129  1  0  0  0
 52130  1  0  0  0
 52131  1  0  0  0
 53 54  1  0  0  0
 54 55  2  0  0  0
 54132  1  0  0  0
 55 57  1  0  0  0
 55133  1  0  0  0
 56 69  2  0  0  0
 57 58  2  0  0  0
 57134  1  0  0  0
 58135  1  0  0  0
 59 60  1  0  0  0
 59 61  1  0  0  0
 59 62  1  0  0  0
 60136  1  0  0  0
 60137  1  0  0  0
 60138  1  0  0  0
 61139  1  0  0  0
 61140  1  0  0  0
 61141  1  0  0  0
 62142  1  0  0  0
 62143  1  0  0  0
 62144  1  0  0  0
 63 65  1  0  0  0
 63145  1  0  0  0
 63146  1  0  0  0
 63147  1  0  0  0
 64148  1  0  0  0
 65149  1  0  0  0
 68 81  1  0  0  0
 71 72  2  0  0  0
 71 74  1  0  0  0
 71150  1  0  0  0
 72 75  1  0  0  0
 72151  1  0  0  0
 73 75  2  0  0  0
 73 76  1  0  0  0
 73152  1  0  0  0
 74 76  2  0  0  0
 74 80  1  0  0  0
 75 88  1  0  0  0
 76 90  1  0  0  0
 77 78  1  0  0  0
 77 79  2  0  0  0
 77 83  1  0  0  0
 78 81  2  0  0  0
 78 84  1  0  0  0
 79153  1  0  0  0
 79154  1  0  0  0
 80 87  2  0  0  0
 81 85  1  0  0  0
 82 86  1  0  0  0
 82 89  2  0  0  0
 82 90  1  0  0  0
 83 88  1  0  0  0
 83155  1  0  0  0
 83156  1  0  0  0
 84 88  1  0  0  0
 84157  1  0  0  0
 84158  1  0  0  0
 85159  1  0  0  0
 85160  1  0  0  0
 85161  1  0  0  0
 86162  1  0  0  0
 86163  1  0  0  0
 86164  1  0  0  0
 87165  1  0  0  0
M  ISO  4   1 100  68 101  80 100  81 101
M  END
> <chiral flag>
0

> <version>
0

> <s_m_source_file>
/data/baiqing/PycharmProjects/Reinvent-master-3.2/result/LINK_invent/BTK/process_docking_weight1_custom_product_contain_oxygen_bond_distance_aromatic_linkinvent_7_9_3/rearranged_h_0076.sdf

> <i_m_source_file_index>
96

> <r_mmod_Potential_Energy-OPLS-2005>
296.358154296875

> <r_mmod_Stretch_Energy-OPLS-2005>
104.008338928223

> <r_mmod_Bend_Energy-OPLS-2005>
229.204345703125

> <r_mmod_Torsional_Energy-OPLS-2005>
204.853881835938

> <r_mmod_Improper_Torsional_Energy-OPLS-2005>
2.97918558120728

> <r_mmod_Van_der_Waal_Energy-OPLS-2005>
152.879592895508

> <r_mmod_Electrostatic_Energy-OPLS-2005>
-233.757949829102

> <r_mmod_Solvation_Energy-OPLS-2005>
-215.005416870117

> <b_mmod_Minimization_Converged-OPLS-2005>
0

> <r_mmod_RMS_Derivative-OPLS-2005>
1.27241969108582

$$$$
