0
                    3D
 Structure written by MMmdl.
162171  0  0  1  0            999 V2000
  -30.6635  -14.6399   20.4577 C   0  0  0  0  0  0
  -30.4185  -12.3858   19.4636 C   0  0  0  0  0  0
  -29.5038  -12.4953   18.2265 C   0  0  0  0  0  0
  -28.0285  -12.3417   18.6382 C   0  0  0  0  0  0
  -27.6463  -13.2294   19.8555 C   0  0  2  0  0  0
  -28.6893  -13.1347   20.9903 C   0  0  0  0  0  0
  -25.2530  -13.8196   20.5696 C   0  0  0  0  0  0
  -24.1815  -13.0449   20.9200 C   0  0  0  0  0  0
  -24.6398  -11.6932   20.8753 C   0  0  0  0  0  0
  -23.9083  -10.4305   21.0411 C   0  0  0  0  0  0
  -24.3640   -9.4213   21.9177 C   0  0  0  0  0  0
  -23.6312   -8.2251   22.0735 C   0  0  0  0  0  0
  -22.4298   -8.0284   21.3528 C   0  0  0  0  0  0
  -21.9935   -9.0260   20.4638 C   0  0  0  0  0  0
  -22.7263  -10.2137   20.3055 C   0  0  0  0  0  0
  -21.6856   -6.0750   22.5277 C   0  0  0  0  0  0
  -21.4023   -6.5642   23.8215 C   0  0  0  0  0  0
  -21.3667   -5.6780   24.9170 C   0  0  0  0  0  0
  -21.6036   -4.3047   24.7208 C   0  0  0  0  0  0
  -21.8829   -3.8152   23.4334 C   0  0  0  0  0  0
  -21.9201   -4.6978   22.3392 C   0  0  0  0  0  0
  -22.7837  -13.5233   21.1842 C   0  0  0  0  0  0
  -22.1662   -4.2158   21.0972 F   0  0  0  0  0  0
  -21.5628   -3.4533   25.7720 F   0  0  0  0  0  0
  -30.0011  -13.4423   20.4101 N   0  0  0  0  0  0
  -26.2964  -12.9408   20.3310 N   0  0  0  0  0  0
  -25.9323  -11.6555   20.5755 N   0  0  0  0  0  0
  -22.0485  -12.8247   22.0418 N   0  0  0  0  0  0
  -25.4233  -15.1918   20.4109 N   0  0  0  0  0  0
  -31.8486  -14.7081   20.1284 O   0  0  0  0  0  0
  -21.6649   -6.8895   21.4236 O   0  0  0  0  0  0
  -22.3529  -14.5527   20.6658 O   0  0  0  0  0  0
  -24.6232  -31.8611   23.2025 C   0  0  0  0  0  0
  -25.9092  -32.4786   23.8364 C   0  0  1  0  0  0
  -27.2217  -27.3376   20.1339 C   0  0  0  0  0  0
  -25.5910  -33.8588   24.2288 N   0  0  0  0  0  0
  -23.4171  -30.4819   21.5451 C   0  0  2  0  0  0
  -24.8647  -28.9330   20.1159 C   0  0  0  0  0  0
  -22.7450  -29.4634   22.4963 C   0  0  0  0  0  0
  -18.0274  -28.1390   22.8496 C   0  0  0  0  0  0
  -24.1486  -36.7298   23.2641 C   0  0  0  0  0  0
  -25.9541  -30.8010   21.3677 C   0  0  0  0  0  0
  -26.0311  -29.4270   20.7157 C   0  0  0  0  0  0
  -27.2173  -28.6414   20.7081 C   0  0  0  0  0  0
  -26.0370  -26.8784   19.5244 C   0  0  0  0  0  0
  -24.8679  -27.6649   19.5095 C   0  0  0  0  0  0
  -23.6310  -29.8110   20.1618 C   0  0  0  0  0  0
  -25.4113  -36.3092   24.0329 C   0  0  1  0  0  0
  -20.5870  -28.3696   23.1293 C   0  0  2  0  0  0
  -20.6773  -26.9427   22.5419 C   0  0  0  0  0  0
  -19.5749  -26.6390   21.5223 C   0  0  0  0  0  0
  -18.1925  -26.7946   22.1624 C   0  0  0  0  0  0
  -19.1525  -28.8861   23.2890 C   0  0  0  0  0  0
  -18.9451  -30.1460   23.8910 C   0  0  0  0  0  0
  -17.6453  -30.6600   24.0569 C   0  0  0  0  0  0
  -25.9045  -34.9460   23.5114 C   0  0  0  0  0  0
  -16.5342  -29.9101   23.6332 C   0  0  0  0  0  0
  -16.7264  -28.6512   23.0367 C   0  0  0  0  0  0
  -26.4494  -31.6594   25.0729 C   0  0  0  0  0  0
  -25.3747  -31.3716   26.1465 C   0  0  0  0  0  0
  -27.0336  -30.3021   24.6168 C   0  0  0  0  0  0
  -27.6047  -32.4339   25.7500 C   0  0  0  0  0  0
  -27.5580  -37.1801   24.8457 C   0  0  0  0  0  0
  -21.4166  -29.3041   22.3687 N   0  0  0  0  0  0
  -26.4290  -37.3785   23.9409 N   0  0  0  0  0  0
  -24.6836  -31.0644   22.0958 N   0  0  0  0  0  0
  -23.4183  -28.8191   23.3040 O   0  0  0  0  0  0
  -28.3434  -26.5124   20.1333 O   0  0  0  0  0  0
  -26.5609  -34.8920   22.4678 O   0  0  0  0  0  0
  -23.5396  -32.1377   23.7373 O   0  0  0  0  0  0
  -28.9965  -19.2405   19.4896 C   0  0  0  0  0  0
  -28.7678  -20.6483   19.6107 C   0  0  0  0  0  0
  -30.3311  -19.2741   21.4854 C   0  0  0  0  0  0
  -29.8284  -18.5250   20.3963 C   0  0  0  0  0  0
  -30.1089  -20.6785   21.6131 C   0  0  0  0  0  0
  -29.3684  -21.4233   20.6407 C   0  0  0  0  0  0
  -30.5070  -23.8891   18.8227 C   0  0  0  0  0  0
  -28.9944  -24.0345   18.6368 C   0  0  0  0  0  0
  -30.6828  -23.3741   20.2576 C   0  0  0  0  0  0
  -28.4154  -23.8191   20.0370 C   0  0  2  0  0  0
  -30.7398  -21.3861   22.8051 C   0  0  0  0  0  0
  -30.4276  -17.1134   20.0520 C   0  0  0  0  0  0
  -28.2435  -25.2107   20.8206 C   0  0  0  0  0  0
  -29.3759  -22.8673   20.6807 N   0  0  0  0  0  0
  -29.9355  -15.7973   20.5950 N   0  0  0  0  0  0
  -31.4653  -12.4745   19.1658 H   0  0  0  0  0  0
  -30.3231  -11.4018   19.9243 H   0  0  0  0  0  0
  -29.7713  -11.7361   17.4905 H   0  0  0  0  0  0
  -29.6519  -13.4614   17.7415 H   0  0  0  0  0  0
  -27.8707  -11.2898   18.8817 H   0  0  0  0  0  0
  -27.3760  -12.5617   17.7926 H   0  0  0  0  0  0
  -27.6512  -14.2581   19.4940 H   0  0  0  0  0  0
  -28.6929  -12.1370   21.4296 H   0  0  0  0  0  0
  -28.4438  -13.8241   21.7998 H   0  0  0  0  0  0
  -25.2786   -9.5692   22.4748 H   0  0  0  0  0  0
  -24.0023   -7.4656   22.7455 H   0  0  0  0  0  0
  -21.0854   -8.8782   19.8963 H   0  0  0  0  0  0
  -22.3708  -10.9673   19.6168 H   0  0  0  0  0  0
  -21.2012   -7.6147   23.9724 H   0  0  0  0  0  0
  -21.1477   -6.0505   25.9069 H   0  0  0  0  0  0
  -22.0605   -2.7614   23.2818 H   0  0  0  0  0  0
  -22.4099  -11.9920   22.4821 H   0  0  0  0  0  0
  -21.1090  -13.1242   22.2592 H   0  0  0  0  0  0
  -24.6573  -15.8469   20.5241 H   0  0  0  0  0  0
  -26.2710  -15.6334   20.0789 H   0  0  0  0  0  0
  -26.7172  -32.5472   23.1122 H   0  0  0  0  0  0
  -25.0064  -33.9735   25.0439 H   0  0  0  0  0  0
  -22.7114  -31.3023   21.4014 H   0  0  0  0  0  0
  -23.3753  -35.9625   23.3296 H   0  0  0  0  0  0
  -24.3579  -36.8934   22.2058 H   0  0  0  0  0  0
  -23.7228  -37.6496   23.6663 H   0  0  0  0  0  0
  -26.0759  -31.5657   20.5992 H   0  0  0  0  0  0
  -26.8362  -30.8554   21.9928 H   0  0  0  0  0  0
  -28.1194  -29.0187   21.1709 H   0  0  0  0  0  0
  -26.0192  -25.8998   19.0669 H   0  0  0  0  0  0
  -23.9719  -27.2817   19.0391 H   0  0  0  0  0  0
  -23.7466  -30.5848   19.4027 H   0  0  0  0  0  0
  -22.7529  -29.2359   19.8631 H   0  0  0  0  0  0
  -25.1298  -36.1955   25.0823 H   0  0  0  0  0  0
  -20.9948  -28.3277   24.1416 H   0  0  0  0  0  0
  -20.5696  -26.2306   23.3615 H   0  0  0  0  0  0
  -21.6646  -26.7487   22.1194 H   0  0  0  0  0  0
  -19.6914  -25.6298   21.1262 H   0  0  0  0  0  0
  -19.6689  -27.3194   20.6752 H   0  0  0  0  0  0
  -17.4199  -26.6690   21.4022 H   0  0  0  0  0  0
  -18.0314  -26.0087   22.9012 H   0  0  0  0  0  0
  -19.7928  -30.7268   24.2285 H   0  0  0  0  0  0
  -17.5014  -31.6286   24.5167 H   0  0  0  0  0  0
  -15.5348  -30.3014   23.7649 H   0  0  0  0  0  0
  -15.8655  -28.0830   22.7097 H   0  0  0  0  0  0
  -24.5896  -30.7097   25.7788 H   0  0  0  0  0  0
  -24.8964  -32.2887   26.4931 H   0  0  0  0  0  0
  -25.8083  -30.8856   27.0221 H   0  0  0  0  0  0
  -26.2901  -29.6772   24.1202 H   0  0  0  0  0  0
  -27.4054  -29.7274   25.4668 H   0  0  0  0  0  0
  -27.8767  -30.4316   23.9371 H   0  0  0  0  0  0
  -27.2635  -33.3625   26.2098 H   0  0  0  0  0  0
  -28.3841  -32.6943   25.0324 H   0  0  0  0  0  0
  -28.0742  -31.8471   26.5408 H   0  0  0  0  0  0
  -28.2591  -38.0104   24.7527 H   0  0  0  0  0  0
  -28.1078  -36.2639   24.6261 H   0  0  0  0  0  0
  -27.2296  -37.1434   25.8857 H   0  0  0  0  0  0
  -20.9333  -29.8752   21.6894 H   0  0  0  0  0  0
  -26.0175  -38.2859   24.1426 H   0  0  0  0  0  0
  -28.5951  -18.7274   18.6268 H   0  0  0  0  0  0
  -28.1831  -21.1375   18.8462 H   0  0  0  0  0  0
  -30.9797  -18.7749   22.1928 H   0  0  0  0  0  0
  -31.0299  -24.8358   18.6826 H   0  0  0  0  0  0
  -30.9082  -23.1828   18.0951 H   0  0  0  0  0  0
  -28.6279  -23.2556   17.9675 H   0  0  0  0  0  0
  -28.7076  -24.9866   18.1910 H   0  0  0  0  0  0
  -30.9770  -24.1889   20.9214 H   0  0  0  0  0  0
  -31.4836  -22.6322   20.2946 H   0  0  0  0  0  0
  -27.4315  -23.3556   19.9440 H   0  0  0  0  0  0
  -31.0753  -20.6746   23.5591 H   0  0  0  0  0  0
  -30.0240  -22.0564   23.2813 H   0  0  0  0  0  0
  -31.6066  -21.9703   22.4992 H   0  0  0  0  0  0
  -31.4869  -17.1936   20.3050 H   0  0  0  0  0  0
  -30.4225  -17.0272   18.9637 H   0  0  0  0  0  0
  -29.0101  -25.2629   21.5944 H   0  0  0  0  0  0
  -27.3122  -25.1633   21.3866 H   0  0  0  0  0  0
  -28.9587  -15.7195   20.8304 H   0  0  0  0  0  0
  1 25  1  0  0  0
  1 30  2  0  0  0
  1 85  1  0  0  0
  2  3  1  0  0  0
  2 25  1  0  0  0
  2 86  1  0  0  0
  2 87  1  0  0  0
  3  4  1  0  0  0
  3 88  1  0  0  0
  3 89  1  0  0  0
  4  5  1  0  0  0
  4 90  1  0  0  0
  4 91  1  0  0  0
  5  6  1  0  0  0
  5 26  1  0  0  0
  5 92  1  0  0  0
  6 25  1  0  0  0
  6 93  1  0  0  0
  6 94  1  0  0  0
  7  8  2  0  0  0
  7 26  1  0  0  0
  7 29  1  0  0  0
  8  9  1  0  0  0
  8 22  1  0  0  0
  9 10  1  0  0  0
  9 27  2  0  0  0
 10 11  2  0  0  0
 10 15  1  0  0  0
 11 12  1  0  0  0
 11 95  1  0  0  0
 12 13  2  0  0  0
 12 96  1  0  0  0
 13 14  1  0  0  0
 13 31  1  0  0  0
 14 15  2  0  0  0
 14 97  1  0  0  0
 15 98  1  0  0  0
 16 17  2  0  0  0
 16 21  1  0  0  0
 16 31  1  0  0  0
 17 18  1  0  0  0
 17 99  1  0  0  0
 18 19  2  0  0  0
 18100  1  0  0  0
 19 20  1  0  0  0
 19 24  1  0  0  0
 20 21  2  0  0  0
 20101  1  0  0  0
 21 23  1  0  0  0
 22 28  1  0  0  0
 22 32  2  0  0  0
 26 27  1  0  0  0
 28102  1  0  0  0
 28103  1  0  0  0
 29104  1  0  0  0
 29105  1  0  0  0
 33 34  1  0  0  0
 33 66  1  0  0  0
 33 70  2  0  0  0
 34 36  1  0  0  0
 34 59  1  0  0  0
 34106  1  0  0  0
 35 44  2  0  0  0
 35 45  1  0  0  0
 35 68  1  0  0  0
 36 56  1  0  0  0
 36107  1  0  0  0
 37 39  1  0  0  0
 37 47  1  0  0  0
 37 66  1  0  0  0
 37108  1  0  0  0
 38 43  2  0  0  0
 38 46  1  0  0  0
 38 47  1  0  0  0
 39 64  1  0  0  0
 39 67  2  0  0  0
 40 52  1  0  0  0
 40 53  2  0  0  0
 40 58  1  0  0  0
 41109  1  0  0  0
 41110  1  0  0  0
 41111  1  0  0  0
 41 48  1  0  0  0
 42 43  1  0  0  0
 42 66  1  0  0  0
 42112  1  0  0  0
 42113  1  0  0  0
 43 44  1  0  0  0
 44114  1  0  0  0
 45 46  2  0  0  0
 45115  1  0  0  0
 46116  1  0  0  0
 47117  1  0  0  0
 47118  1  0  0  0
 48 56  1  0  0  0
 48 65  1  0  0  0
 48119  1  0  0  0
 49 50  1  0  0  0
 49 53  1  0  0  0
 49 64  1  0  0  0
 49120  1  0  0  0
 50 51  1  0  0  0
 50121  1  0  0  0
 50122  1  0  0  0
 51 52  1  0  0  0
 51123  1  0  0  0
 51124  1  0  0  0
 52125  1  0  0  0
 52126  1  0  0  0
 53 54  1  0  0  0
 54 55  2  0  0  0
 54127  1  0  0  0
 55 57  1  0  0  0
 55128  1  0  0  0
 56 69  2  0  0  0
 57 58  2  0  0  0
 57129  1  0  0  0
 58130  1  0  0  0
 59 60  1  0  0  0
 59 61  1  0  0  0
 59 62  1  0  0  0
 60131  1  0  0  0
 60132  1  0  0  0
 60133  1  0  0  0
 61134  1  0  0  0
 61135  1  0  0  0
 61136  1  0  0  0
 62137  1  0  0  0
 62138  1  0  0  0
 62139  1  0  0  0
 63 65  1  0  0  0
 63140  1  0  0  0
 63141  1  0  0  0
 63142  1  0  0  0
 64143  1  0  0  0
 65144  1  0  0  0
 68 83  1  0  0  0
 71 72  2  0  0  0
 71 74  1  0  0  0
 71145  1  0  0  0
 72 76  1  0  0  0
 72146  1  0  0  0
 73 74  2  0  0  0
 73 75  1  0  0  0
 73147  1  0  0  0
 74 82  1  0  0  0
 75 76  2  0  0  0
 75 81  1  0  0  0
 76 84  1  0  0  0
 77 78  1  0  0  0
 77 79  1  0  0  0
 77148  1  0  0  0
 77149  1  0  0  0
 78 80  1  0  0  0
 78150  1  0  0  0
 78151  1  0  0  0
 79 84  1  0  0  0
 79152  1  0  0  0
 79153  1  0  0  0
 80 83  1  0  0  0
 80 84  1  0  0  0
 80154  1  0  0  0
 81155  1  0  0  0
 81156  1  0  0  0
 81157  1  0  0  0
 82 85  1  0  0  0
 82158  1  0  0  0
 82159  1  0  0  0
 83160  1  0  0  0
 83161  1  0  0  0
 85162  1  0  0  0
M  ISO  4   1 100  68 101  83 101  85 100
M  END
> <chiral flag>
0

> <version>
0

> <s_m_source_file>
/data/baiqing/PycharmProjects/Reinvent-master-3.2/result/LINK_invent/BTK/process_docking_weight1_custom_product_contain_oxygen_bond_distance_aromatic_linkinvent_7_9_3/rearranged_h_0024.sdf

> <i_m_source_file_index>
1

> <r_mmod_Potential_Energy-OPLS-2005>
159.192443847656

> <r_mmod_Stretch_Energy-OPLS-2005>
77.2739181518555

> <r_mmod_Bend_Energy-OPLS-2005>
182.957366943359

> <r_mmod_Torsional_Energy-OPLS-2005>
339.343933105469

> <r_mmod_Improper_Torsional_Energy-OPLS-2005>
15.5919151306152

> <r_mmod_Van_der_Waal_Energy-OPLS-2005>
143.272048950195

> <r_mmod_Electrostatic_Energy-OPLS-2005>
-432.191223144531

> <r_mmod_Solvation_Energy-OPLS-2005>
-214.048873901367

> <b_mmod_Minimization_Converged-OPLS-2005>
0

> <r_mmod_RMS_Derivative-OPLS-2005>
2.45341229438782

$$$$
1
                    3D
 Structure written by MMmdl.
157166  0  0  1  0            999 V2000
  -30.6759  -14.4962   20.5736 C   0  0  0  0  0  0
  -30.4317  -12.3199   19.4316 C   0  0  0  0  0  0
  -29.5012  -12.5115   18.2149 C   0  0  0  0  0  0
  -28.0218  -12.3660   18.6256 C   0  0  0  0  0  0
  -27.6632  -13.2066   19.8806 C   0  0  2  0  0  0
  -28.7027  -12.9823   21.0028 C   0  0  0  0  0  0
  -25.2556  -13.8127   20.5645 C   0  0  0  0  0  0
  -24.1798  -13.0410   20.9099 C   0  0  0  0  0  0
  -24.6377  -11.6888   20.8688 C   0  0  0  0  0  0
  -23.9051  -10.4284   21.0383 C   0  0  0  0  0  0
  -24.3596   -9.4207   21.9171 C   0  0  0  0  0  0
  -23.6271   -8.2246   22.0755 C   0  0  0  0  0  0
  -22.4252   -8.0278   21.3558 C   0  0  0  0  0  0
  -21.9883   -9.0249   20.4657 C   0  0  0  0  0  0
  -22.7211  -10.2121   20.3046 C   0  0  0  0  0  0
  -21.6853   -6.0718   22.5276 C   0  0  0  0  0  0
  -21.4020   -6.5628   23.8205 C   0  0  0  0  0  0
  -21.3657   -5.6784   24.9172 C   0  0  0  0  0  0
  -21.6041   -4.3043   24.7226 C   0  0  0  0  0  0
  -21.8822   -3.8134   23.4352 C   0  0  0  0  0  0
  -21.9196   -4.6946   22.3405 C   0  0  0  0  0  0
  -22.7837  -13.5232   21.1800 C   0  0  0  0  0  0
  -22.1664   -4.2136   21.0980 F   0  0  0  0  0  0
  -21.5626   -3.4530   25.7741 F   0  0  0  0  0  0
  -30.0365  -13.2978   20.4597 N   0  0  0  0  0  0
  -26.3021  -12.9317   20.3384 N   0  0  0  0  0  0
  -25.9307  -11.6475   20.5744 N   0  0  0  0  0  0
  -22.0492  -12.8247   22.0379 N   0  0  0  0  0  0
  -25.4230  -15.1833   20.4127 N   0  0  0  0  0  0
  -31.7918  -14.7014   20.0885 O   0  0  0  0  0  0
  -21.6638   -6.8862   21.4237 O   0  0  0  0  0  0
  -22.3525  -14.5550   20.6665 O   0  0  0  0  0  0
  -24.6165  -31.8650   23.2071 C   0  0  0  0  0  0
  -25.9050  -32.4812   23.8375 C   0  0  1  0  0  0
  -27.2427  -27.4127   20.0888 C   0  0  0  0  0  0
  -25.5889  -33.8613   24.2306 N   0  0  0  0  0  0
  -23.4053  -30.4872   21.5478 C   0  0  2  0  0  0
  -24.8517  -28.9486   20.1144 C   0  0  0  0  0  0
  -22.7407  -29.4651   22.4973 C   0  0  0  0  0  0
  -18.0270  -28.1372   22.8488 C   0  0  0  0  0  0
  -24.1485  -36.7315   23.2630 C   0  0  0  0  0  0
  -25.9362  -30.8238   21.3623 C   0  0  0  0  0  0
  -26.0124  -29.4564   20.7084 C   0  0  0  0  0  0
  -27.2048  -28.6937   20.6943 C   0  0  0  0  0  0
  -26.0508  -26.9141   19.5113 C   0  0  0  0  0  0
  -24.8664  -27.6757   19.5188 C   0  0  0  0  0  0
  -23.6138  -29.8161   20.1641 C   0  0  0  0  0  0
  -25.4100  -36.3106   24.0331 C   0  0  1  0  0  0
  -20.5860  -28.3657   23.1309 C   0  0  2  0  0  0
  -20.6763  -26.9392   22.5407 C   0  0  0  0  0  0
  -19.5742  -26.6381   21.5203 C   0  0  0  0  0  0
  -18.1922  -26.7921   22.1621 C   0  0  0  0  0  0
  -19.1521  -28.8831   23.2901 C   0  0  0  0  0  0
  -18.9452  -30.1437   23.8909 C   0  0  0  0  0  0
  -17.6459  -30.6578   24.0565 C   0  0  0  0  0  0
  -25.9022  -34.9472   23.5121 C   0  0  0  0  0  0
  -16.5345  -29.9080   23.6329 C   0  0  0  0  0  0
  -16.7264  -28.6496   23.0349 C   0  0  0  0  0  0
  -26.4465  -31.6609   25.0722 C   0  0  0  0  0  0
  -25.3732  -31.3745   26.1477 C   0  0  0  0  0  0
  -27.0288  -30.3040   24.6127 C   0  0  0  0  0  0
  -27.6038  -32.4336   25.7488 C   0  0  0  0  0  0
  -27.5587  -37.1794   24.8450 C   0  0  0  0  0  0
  -21.4131  -29.3031   22.3720 N   0  0  0  0  0  0
  -26.4284  -37.3794   23.9419 N   0  0  0  0  0  0
  -24.6712  -31.0739   22.0970 N   0  0  0  0  0  0
  -23.4168  -28.8192   23.3024 O   0  0  0  0  0  0
  -28.4322  -26.7009   20.1293 O   0  0  0  0  0  0
  -26.5595  -34.8929   22.4683 O   0  0  0  0  0  0
  -23.5358  -32.1419   23.7449 O   0  0  0  0  0  0
  -28.3600  -18.7847   20.5323 C   0  0  0  0  0  0
  -30.9193  -17.6437   20.3031 C   0  0  0  0  0  0
  -29.3966  -19.5534   19.9543 C   0  0  0  0  0  0
  -29.8578  -16.8523   20.8067 C   0  0  0  0  0  0
  -28.5914  -17.4565   20.9554 C   0  0  0  0  0  0
  -30.6883  -18.9773   19.8780 C   0  0  0  0  0  0
  -28.0876  -23.0567   20.1454 C   0  0  0  0  0  0
  -29.9772  -23.2420   19.3922 C   0  0  0  0  0  0
  -29.0404  -24.2627   20.0560 C   0  0  1  0  0  0
  -29.0845  -20.8963   19.2626 C   0  0  0  0  0  0
  -28.6762  -25.5581   19.2845 C   0  0  0  0  0  0
  -29.9594  -15.4686   21.1762 N   0  0  0  0  0  0
  -29.2509  -22.1520   20.0615 N   0  3  2  0  0  0
  -27.5716  -16.7293   21.4671 F   0  0  0  0  0  0
  -31.7093  -19.6924   19.3496 F   0  0  0  0  0  0
  -31.4756  -12.4288   19.1314 H   0  0  0  0  0  0
  -30.3379  -11.3073   19.8270 H   0  0  0  0  0  0
  -29.7440  -11.7863   17.4367 H   0  0  0  0  0  0
  -29.6674  -13.4961   17.7755 H   0  0  0  0  0  0
  -27.8385  -11.3096   18.8246 H   0  0  0  0  0  0
  -27.3726  -12.6359   17.7921 H   0  0  0  0  0  0
  -27.7072  -14.2551   19.5837 H   0  0  0  0  0  0
  -28.6811  -11.9430   21.3362 H   0  0  0  0  0  0
  -28.4530  -13.5719   21.8861 H   0  0  0  0  0  0
  -25.2740   -9.5676   22.4744 H   0  0  0  0  0  0
  -23.9983   -7.4637   22.7472 H   0  0  0  0  0  0
  -21.0813   -8.8751   19.8974 H   0  0  0  0  0  0
  -22.3661  -10.9646   19.6151 H   0  0  0  0  0  0
  -21.2010   -7.6136   23.9699 H   0  0  0  0  0  0
  -21.1478   -6.0519   25.9070 H   0  0  0  0  0  0
  -22.0602   -2.7594   23.2858 H   0  0  0  0  0  0
  -22.4109  -11.9919   22.4790 H   0  0  0  0  0  0
  -21.1125  -13.1298   22.2614 H   0  0  0  0  0  0
  -24.6699  -15.8347   20.5988 H   0  0  0  0  0  0
  -26.3250  -15.6401   20.3439 H   0  0  0  0  0  0
  -26.7121  -32.5509   23.1138 H   0  0  0  0  0  0
  -25.0056  -33.9774   25.0469 H   0  0  0  0  0  0
  -22.6963  -31.3048   21.4057 H   0  0  0  0  0  0
  -23.3741  -35.9652   23.3296 H   0  0  0  0  0  0
  -24.3594  -36.8924   22.2045 H   0  0  0  0  0  0
  -23.7247  -37.6523   23.6645 H   0  0  0  0  0  0
  -26.0522  -31.5900   20.5943 H   0  0  0  0  0  0
  -26.8228  -30.8771   21.9830 H   0  0  0  0  0  0
  -28.1020  -29.0858   21.1531 H   0  0  0  0  0  0
  -25.9978  -25.9281   19.0768 H   0  0  0  0  0  0
  -23.9676  -27.2682   19.0770 H   0  0  0  0  0  0
  -23.7217  -30.5887   19.4024 H   0  0  0  0  0  0
  -22.7383  -29.2341   19.8702 H   0  0  0  0  0  0
  -25.1275  -36.1959   25.0822 H   0  0  0  0  0  0
  -20.9960  -28.3226   24.1427 H   0  0  0  0  0  0
  -20.5663  -26.2262   23.3592 H   0  0  0  0  0  0
  -21.6639  -26.7435   22.1207 H   0  0  0  0  0  0
  -19.6905  -25.6295   21.1230 H   0  0  0  0  0  0
  -19.6681  -27.3195   20.6735 H   0  0  0  0  0  0
  -17.4187  -26.6659   21.4030 H   0  0  0  0  0  0
  -18.0330  -26.0059   22.9014 H   0  0  0  0  0  0
  -19.7932  -30.7249   24.2284 H   0  0  0  0  0  0
  -17.5014  -31.6265   24.5153 H   0  0  0  0  0  0
  -15.5350  -30.2981   23.7647 H   0  0  0  0  0  0
  -15.8666  -28.0815   22.7066 H   0  0  0  0  0  0
  -24.5888  -30.7101   25.7840 H   0  0  0  0  0  0
  -24.8943  -32.2912   26.4924 H   0  0  0  0  0  0
  -25.8082  -30.8926   27.0241 H   0  0  0  0  0  0
  -26.2838  -29.6816   24.1152 H   0  0  0  0  0  0
  -27.4005  -29.7270   25.4606 H   0  0  0  0  0  0
  -27.8700  -30.4343   23.9315 H   0  0  0  0  0  0
  -27.2641  -33.3609   26.2118 H   0  0  0  0  0  0
  -28.3818  -32.6945   25.0302 H   0  0  0  0  0  0
  -28.0742  -31.8437   26.5366 H   0  0  0  0  0  0
  -28.2566  -38.0127   24.7560 H   0  0  0  0  0  0
  -28.1120  -36.2668   24.6186 H   0  0  0  0  0  0
  -27.2325  -37.1338   25.8854 H   0  0  0  0  0  0
  -20.9283  -29.8746   21.6943 H   0  0  0  0  0  0
  -26.0169  -38.2861   24.1459 H   0  0  0  0  0  0
  -27.3581  -19.1827   20.6030 H   0  0  0  0  0  0
  -31.9139  -17.2349   20.2075 H   0  0  0  0  0  0
  -27.4153  -22.9899   19.2878 H   0  0  0  0  0  0
  -27.5392  -22.9755   21.0844 H   0  0  0  0  0  0
  -31.0244  -23.3219   19.6860 H   0  0  0  0  0  0
  -29.8722  -23.2306   18.3046 H   0  0  0  0  0  0
  -29.4379  -24.4989   21.0455 H   0  0  0  0  0  0
  -28.0688  -20.8409   18.8705 H   0  0  0  0  0  0
  -29.7190  -20.9495   18.3775 H   0  0  0  0  0  0
  -27.9087  -25.3669   18.5393 H   0  0  0  0  0  0
  -29.5401  -25.8481   18.6859 H   0  0  0  0  0  0
  -29.1243  -15.1206   21.6248 H   0  0  0  0  0  0
  -29.6419  -21.9740   20.9737 H   0  0  0  0  0  0
  1 25  1  0  0  0
  1 30  2  0  0  0
  1 82  1  0  0  0
  2  3  1  0  0  0
  2 25  1  0  0  0
  2 86  1  0  0  0
  2 87  1  0  0  0
  3  4  1  0  0  0
  3 88  1  0  0  0
  3 89  1  0  0  0
  4  5  1  0  0  0
  4 90  1  0  0  0
  4 91  1  0  0  0
  5  6  1  0  0  0
  5 26  1  0  0  0
  5 92  1  0  0  0
  6 25  1  0  0  0
  6 93  1  0  0  0
  6 94  1  0  0  0
  7  8  2  0  0  0
  7 26  1  0  0  0
  7 29  1  0  0  0
  8  9  1  0  0  0
  8 22  1  0  0  0
  9 10  1  0  0  0
  9 27  2  0  0  0
 10 11  2  0  0  0
 10 15  1  0  0  0
 11 12  1  0  0  0
 11 95  1  0  0  0
 12 13  2  0  0  0
 12 96  1  0  0  0
 13 14  1  0  0  0
 13 31  1  0  0  0
 14 15  2  0  0  0
 14 97  1  0  0  0
 15 98  1  0  0  0
 16 17  2  0  0  0
 16 21  1  0  0  0
 16 31  1  0  0  0
 17 18  1  0  0  0
 17 99  1  0  0  0
 18 19  2  0  0  0
 18100  1  0  0  0
 19 20  1  0  0  0
 19 24  1  0  0  0
 20 21  2  0  0  0
 20101  1  0  0  0
 21 23  1  0  0  0
 22 28  1  0  0  0
 22 32  2  0  0  0
 26 27  1  0  0  0
 28102  1  0  0  0
 28103  1  0  0  0
 29104  1  0  0  0
 29105  1  0  0  0
 33 34  1  0  0  0
 33 66  1  0  0  0
 33 70  2  0  0  0
 34 36  1  0  0  0
 34 59  1  0  0  0
 34106  1  0  0  0
 35 44  2  0  0  0
 35 45  1  0  0  0
 35 68  1  0  0  0
 36 56  1  0  0  0
 36107  1  0  0  0
 37 39  1  0  0  0
 37 47  1  0  0  0
 37 66  1  0  0  0
 37108  1  0  0  0
 38 43  2  0  0  0
 38 46  1  0  0  0
 38 47  1  0  0  0
 39 64  1  0  0  0
 39 67  2  0  0  0
 40 52  1  0  0  0
 40 53  2  0  0  0
 40 58  1  0  0  0
 41109  1  0  0  0
 41110  1  0  0  0
 41111  1  0  0  0
 41 48  1  0  0  0
 42 43  1  0  0  0
 42 66  1  0  0  0
 42112  1  0  0  0
 42113  1  0  0  0
 43 44  1  0  0  0
 44114  1  0  0  0
 45 46  2  0  0  0
 45115  1  0  0  0
 46116  1  0  0  0
 47117  1  0  0  0
 47118  1  0  0  0
 48 56  1  0  0  0
 48 65  1  0  0  0
 48119  1  0  0  0
 49 50  1  0  0  0
 49 53  1  0  0  0
 49 64  1  0  0  0
 49120  1  0  0  0
 50 51  1  0  0  0
 50121  1  0  0  0
 50122  1  0  0  0
 51 52  1  0  0  0
 51123  1  0  0  0
 51124  1  0  0  0
 52125  1  0  0  0
 52126  1  0  0  0
 53 54  1  0  0  0
 54 55  2  0  0  0
 54127  1  0  0  0
 55 57  1  0  0  0
 55128  1  0  0  0
 56 69  2  0  0  0
 57 58  2  0  0  0
 57129  1  0  0  0
 58130  1  0  0  0
 59 60  1  0  0  0
 59 61  1  0  0  0
 59 62  1  0  0  0
 60131  1  0  0  0
 60132  1  0  0  0
 60133  1  0  0  0
 61134  1  0  0  0
 61135  1  0  0  0
 61136  1  0  0  0
 62137  1  0  0  0
 62138  1  0  0  0
 62139  1  0  0  0
 63 65  1  0  0  0
 63140  1  0  0  0
 63141  1  0  0  0
 63142  1  0  0  0
 64143  1  0  0  0
 65144  1  0  0  0
 68 81  1  0  0  0
 71 73  2  0  0  0
 71 75  1  0  0  0
 71145  1  0  0  0
 72 74  1  0  0  0
 72 76  2  0  0  0
 72146  1  0  0  0
 73 76  1  0  0  0
 73 80  1  0  0  0
 74 75  2  0  0  0
 74 82  1  0  0  0
 75 84  1  0  0  0
 76 85  1  0  0  0
 77 79  1  0  0  0
 77 83  1  0  0  0
 77147  1  0  0  0
 77148  1  0  0  0
 78 79  1  0  0  0
 78 83  1  0  0  0
 78149  1  0  0  0
 78150  1  0  0  0
 79 81  1  0  0  0
 79151  1  0  0  0
 80152  1  0  0  0
 80153  1  0  0  0
 80 83  1  0  0  0
 81154  1  0  0  0
 81155  1  0  0  0
 82156  1  0  0  0
 83157  1  0  0  0
M  CHG  1  83   1
M  ISO  4   1 100  68 101  81 101  82 100
M  END
> <chiral flag>
0

> <version>
0

> <s_m_source_file>
/data/baiqing/PycharmProjects/Reinvent-master-3.2/result/LINK_invent/BTK/process_docking_weight1_custom_product_contain_oxygen_bond_distance_aromatic_linkinvent_7_9_3/rearranged_h_0024.sdf

> <i_m_source_file_index>
2

> <r_mmod_Potential_Energy-OPLS-2005>
-238.599594116211

> <r_mmod_Stretch_Energy-OPLS-2005>
42.9412040710449

> <r_mmod_Bend_Energy-OPLS-2005>
129.300109863281

> <r_mmod_Torsional_Energy-OPLS-2005>
247.411285400391

> <r_mmod_Improper_Torsional_Energy-OPLS-2005>
6.05305433273315

> <r_mmod_Van_der_Waal_Energy-OPLS-2005>
151.600936889648

> <r_mmod_Electrostatic_Energy-OPLS-2005>
-363.639556884766

> <r_mmod_Solvation_Energy-OPLS-2005>
-467.804992675781

> <b_mmod_Minimization_Converged-OPLS-2005>
0

> <r_mmod_RMS_Derivative-OPLS-2005>
1.81431269645691

$$$$
2
                    3D
 Structure written by MMmdl.
158167  0  0  1  0            999 V2000
  -30.6383  -14.6267   20.4946 C   0  0  0  0  0  0
  -30.4388  -12.3874   19.4460 C   0  0  0  0  0  0
  -29.5023  -12.5127   18.2227 C   0  0  0  0  0  0
  -28.0288  -12.3503   18.6384 C   0  0  0  0  0  0
  -27.6567  -13.2191   19.8647 C   0  0  2  0  0  0
  -28.7031  -13.0676   20.9919 C   0  0  0  0  0  0
  -25.2566  -13.8161   20.5708 C   0  0  0  0  0  0
  -24.1823  -13.0442   20.9205 C   0  0  0  0  0  0
  -24.6390  -11.6929   20.8719 C   0  0  0  0  0  0
  -23.9083  -10.4290   21.0385 C   0  0  0  0  0  0
  -24.3620   -9.4216   21.9190 C   0  0  0  0  0  0
  -23.6281   -8.2252   22.0741 C   0  0  0  0  0  0
  -22.4248   -8.0283   21.3553 C   0  0  0  0  0  0
  -21.9897   -9.0260   20.4660 C   0  0  0  0  0  0
  -22.7236  -10.2132   20.3075 C   0  0  0  0  0  0
  -21.6867   -6.0710   22.5278 C   0  0  0  0  0  0
  -21.3999   -6.5605   23.8207 C   0  0  0  0  0  0
  -21.3671   -5.6769   24.9193 C   0  0  0  0  0  0
  -21.6052   -4.3032   24.7233 C   0  0  0  0  0  0
  -21.8817   -3.8128   23.4360 C   0  0  0  0  0  0
  -21.9192   -4.6946   22.3411 C   0  0  0  0  0  0
  -22.7835  -13.5265   21.1844 C   0  0  0  0  0  0
  -22.1682   -4.2135   21.0992 F   0  0  0  0  0  0
  -21.5660   -3.4516   25.7752 F   0  0  0  0  0  0
  -30.0276  -13.4018   20.4385 N   0  0  0  0  0  0
  -26.3007  -12.9365   20.3332 N   0  0  0  0  0  0
  -25.9318  -11.6536   20.5727 N   0  0  0  0  0  0
  -22.0444  -12.8298   22.0400 N   0  0  0  0  0  0
  -25.4290  -15.1857   20.4157 N   0  0  0  0  0  0
  -31.7786  -14.8009   20.0531 O   0  0  0  0  0  0
  -21.6657   -6.8851   21.4230 O   0  0  0  0  0  0
  -22.3539  -14.5571   20.6702 O   0  0  0  0  0  0
  -24.6274  -31.8597   23.2032 C   0  0  0  0  0  0
  -25.9145  -32.4769   23.8340 C   0  0  1  0  0  0
  -27.2053  -27.2947   20.1083 C   0  0  0  0  0  0
  -25.5952  -33.8571   24.2271 N   0  0  0  0  0  0
  -23.4200  -30.4851   21.5449 C   0  0  2  0  0  0
  -24.8666  -28.9376   20.1164 C   0  0  0  0  0  0
  -22.7470  -29.4620   22.4903 C   0  0  0  0  0  0
  -18.0304  -28.1361   22.8479 C   0  0  0  0  0  0
  -24.1504  -36.7279   23.2617 C   0  0  0  0  0  0
  -25.9670  -30.7746   21.3874 C   0  0  0  0  0  0
  -26.0369  -29.3994   20.7327 C   0  0  0  0  0  0
  -27.2135  -28.5851   20.7289 C   0  0  0  0  0  0
  -26.0256  -26.9112   19.4469 C   0  0  0  0  0  0
  -24.8632  -27.6963   19.4639 C   0  0  0  0  0  0
  -23.6380  -29.8227   20.1609 C   0  0  0  0  0  0
  -25.4122  -36.3079   24.0328 C   0  0  1  0  0  0
  -20.5895  -28.3666   23.1274 C   0  0  2  0  0  0
  -20.6796  -26.9371   22.5416 C   0  0  0  0  0  0
  -19.5768  -26.6323   21.5215 C   0  0  0  0  0  0
  -18.1946  -26.7887   22.1614 C   0  0  0  0  0  0
  -19.1554  -28.8828   23.2876 C   0  0  0  0  0  0
  -18.9457  -30.1438   23.8878 C   0  0  0  0  0  0
  -17.6452  -30.6559   24.0571 C   0  0  0  0  0  0
  -25.9062  -34.9453   23.5106 C   0  0  0  0  0  0
  -16.5350  -29.9057   23.6319 C   0  0  0  0  0  0
  -16.7291  -28.6476   23.0337 C   0  0  0  0  0  0
  -26.4511  -31.6567   25.0714 C   0  0  0  0  0  0
  -25.3737  -31.3768   26.1441 C   0  0  0  0  0  0
  -27.0282  -30.2943   24.6211 C   0  0  0  0  0  0
  -27.6082  -32.4253   25.7481 C   0  0  0  0  0  0
  -27.5597  -37.1791   24.8471 C   0  0  0  0  0  0
  -21.4180  -29.3046   22.3677 N   0  0  0  0  0  0
  -26.4301  -37.3772   23.9419 N   0  0  0  0  0  0
  -24.6897  -31.0581   22.0998 N   0  0  0  0  0  0
  -23.4214  -28.8152   23.2958 O   0  0  0  0  0  0
  -28.2939  -26.4092   20.0624 O   0  0  0  0  0  0
  -26.5608  -34.8926   22.4666 O   0  0  0  0  0  0
  -23.5414  -32.1415   23.7326 O   0  0  0  0  0  0
  -29.2571  -19.4017   21.3232 C   0  0  0  0  0  0
  -29.5466  -18.0410   21.6411 C   0  0  0  0  0  0
  -29.5710  -18.8928   18.9947 C   0  0  0  0  0  0
  -29.2220  -19.8729   19.9797 C   0  0  0  0  0  0
  -29.8297  -17.0646   20.6489 C   0  0  0  0  0  0
  -29.8560  -17.5292   19.3066 C   0  0  0  0  0  0
  -28.8580  -22.3913   20.3506 C   0  0  0  0  0  0
  -26.7735  -22.1715   18.3395 C   0  0  0  0  0  0
  -27.0605  -23.5880   18.8411 C   0  0  0  0  0  0
  -28.0462  -21.3267   18.2947 C   0  0  0  0  0  0
  -27.8588  -23.6268   20.1604 C   0  0  2  0  0  0
  -28.2015  -25.0960   20.7725 C   0  0  0  0  0  0
  -28.7225  -21.2232   19.6071 N   0  0  0  0  0  0
  -29.8978  -15.6510   21.0101 N   0  0  0  0  0  0
  -29.7210  -22.4859   21.2281 O   0  0  0  0  0  0
  -30.0808  -16.6564   18.2934 F   0  0  0  0  0  0
  -31.4759  -12.5077   19.1312 H   0  0  0  0  0  0
  -30.3791  -11.3890   19.8833 H   0  0  0  0  0  0
  -29.7564  -11.7714   17.4654 H   0  0  0  0  0  0
  -29.6409  -13.4854   17.7506 H   0  0  0  0  0  0
  -27.8583  -11.2972   18.8687 H   0  0  0  0  0  0
  -27.3765  -12.5915   17.7994 H   0  0  0  0  0  0
  -27.6803  -14.2519   19.5179 H   0  0  0  0  0  0
  -28.7000  -12.0451   21.3711 H   0  0  0  0  0  0
  -28.4358  -13.6994   21.8403 H   0  0  0  0  0  0
  -25.2729   -9.5721   22.4825 H   0  0  0  0  0  0
  -23.9963   -7.4641   22.7457 H   0  0  0  0  0  0
  -21.0821   -8.8814   19.8977 H   0  0  0  0  0  0
  -22.3656  -10.9699   19.6232 H   0  0  0  0  0  0
  -21.1961   -7.6105   23.9702 H   0  0  0  0  0  0
  -21.1511   -6.0508   25.9097 H   0  0  0  0  0  0
  -22.0579   -2.7591   23.2887 H   0  0  0  0  0  0
  -22.4017  -11.9978   22.4868 H   0  0  0  0  0  0
  -21.1102  -13.1445   22.2592 H   0  0  0  0  0  0
  -24.6688  -15.8448   20.5285 H   0  0  0  0  0  0
  -26.2878  -15.6166   20.0968 H   0  0  0  0  0  0
  -26.7201  -32.5449   23.1060 H   0  0  0  0  0  0
  -25.0176  -33.9716   25.0458 H   0  0  0  0  0  0
  -22.7127  -31.3048   21.4012 H   0  0  0  0  0  0
  -23.3759  -35.9619   23.3291 H   0  0  0  0  0  0
  -24.3595  -36.8871   22.2028 H   0  0  0  0  0  0
  -23.7256  -37.6486   23.6619 H   0  0  0  0  0  0
  -26.1142  -31.5344   20.6189 H   0  0  0  0  0  0
  -26.8393  -30.8135   22.0246 H   0  0  0  0  0  0
  -28.1144  -28.9311   21.2152 H   0  0  0  0  0  0
  -26.0016  -26.0081   18.8756 H   0  0  0  0  0  0
  -23.9814  -27.3449   18.9505 H   0  0  0  0  0  0
  -23.7744  -30.6009   19.4094 H   0  0  0  0  0  0
  -22.7544  -29.2619   19.8466 H   0  0  0  0  0  0
  -25.1288  -36.1929   25.0810 H   0  0  0  0  0  0
  -20.9985  -28.3282   24.1399 H   0  0  0  0  0  0
  -20.5653  -26.2267   23.3626 H   0  0  0  0  0  0
  -21.6682  -26.7404   22.1246 H   0  0  0  0  0  0
  -19.6921  -25.6199   21.1310 H   0  0  0  0  0  0
  -19.6719  -27.3075   20.6702 H   0  0  0  0  0  0
  -17.4205  -26.6607   21.4048 H   0  0  0  0  0  0
  -18.0400  -26.0017   22.9005 H   0  0  0  0  0  0
  -19.7953  -30.7277   24.2201 H   0  0  0  0  0  0
  -17.5014  -31.6234   24.5174 H   0  0  0  0  0  0
  -15.5345  -30.2958   23.7597 H   0  0  0  0  0  0
  -15.8705  -28.0794   22.7044 H   0  0  0  0  0  0
  -24.5970  -30.7018   25.7851 H   0  0  0  0  0  0
  -24.8856  -32.2945   26.4744 H   0  0  0  0  0  0
  -25.8065  -30.9102   27.0308 H   0  0  0  0  0  0
  -26.2852  -29.6724   24.1202 H   0  0  0  0  0  0
  -27.3869  -29.7181   25.4760 H   0  0  0  0  0  0
  -27.8812  -30.4126   23.9504 H   0  0  0  0  0  0
  -27.2723  -33.3557   26.2089 H   0  0  0  0  0  0
  -28.3894  -32.6791   25.0294 H   0  0  0  0  0  0
  -28.0764  -31.8355   26.5378 H   0  0  0  0  0  0
  -28.2614  -38.0083   24.7489 H   0  0  0  0  0  0
  -28.1068  -36.2609   24.6296 H   0  0  0  0  0  0
  -27.2329  -37.1479   25.8876 H   0  0  0  0  0  0
  -20.9294  -29.8802   21.6958 H   0  0  0  0  0  0
  -26.0183  -38.2853   24.1382 H   0  0  0  0  0  0
  -28.9968  -20.0680   22.1361 H   0  0  0  0  0  0
  -29.5087  -17.7385   22.6801 H   0  0  0  0  0  0
  -29.5829  -19.1617   17.9479 H   0  0  0  0  0  0
  -26.3112  -22.2121   17.3527 H   0  0  0  0  0  0
  -26.0439  -21.6830   18.9919 H   0  0  0  0  0  0
  -26.0768  -24.0179   19.0132 H   0  0  0  0  0  0
  -27.5522  -24.1831   18.0722 H   0  0  0  0  0  0
  -28.7421  -21.7361   17.5572 H   0  0  0  0  0  0
  -27.7440  -20.3488   17.9182 H   0  0  0  0  0  0
  -27.1121  -23.2829   20.8789 H   0  0  0  0  0  0
  -29.1659  -25.0152   21.2758 H   0  0  0  0  0  0
  -27.5091  -25.2506   21.6025 H   0  0  0  0  0  0
  -29.1219  -15.3359   21.5705 H   0  0  0  0  0  0
  1 25  1  0  0  0
  1 30  2  0  0  0
  1 84  1  0  0  0
  2  3  1  0  0  0
  2 25  1  0  0  0
  2 87  1  0  0  0
  2 88  1  0  0  0
  3  4  1  0  0  0
  3 89  1  0  0  0
  3 90  1  0  0  0
  4  5  1  0  0  0
  4 91  1  0  0  0
  4 92  1  0  0  0
  5  6  1  0  0  0
  5 26  1  0  0  0
  5 93  1  0  0  0
  6 25  1  0  0  0
  6 94  1  0  0  0
  6 95  1  0  0  0
  7  8  2  0  0  0
  7 26  1  0  0  0
  7 29  1  0  0  0
  8  9  1  0  0  0
  8 22  1  0  0  0
  9 10  1  0  0  0
  9 27  2  0  0  0
 10 11  2  0  0  0
 10 15  1  0  0  0
 11 12  1  0  0  0
 11 96  1  0  0  0
 12 13  2  0  0  0
 12 97  1  0  0  0
 13 14  1  0  0  0
 13 31  1  0  0  0
 14 15  2  0  0  0
 14 98  1  0  0  0
 15 99  1  0  0  0
 16 17  2  0  0  0
 16 21  1  0  0  0
 16 31  1  0  0  0
 17 18  1  0  0  0
 17100  1  0  0  0
 18 19  2  0  0  0
 18101  1  0  0  0
 19 20  1  0  0  0
 19 24  1  0  0  0
 20 21  2  0  0  0
 20102  1  0  0  0
 21 23  1  0  0  0
 22 28  1  0  0  0
 22 32  2  0  0  0
 26 27  1  0  0  0
 28103  1  0  0  0
 28104  1  0  0  0
 29105  1  0  0  0
 29106  1  0  0  0
 33 34  1  0  0  0
 33 66  1  0  0  0
 33 70  2  0  0  0
 34 36  1  0  0  0
 34 59  1  0  0  0
 34107  1  0  0  0
 35 44  2  0  0  0
 35 45  1  0  0  0
 35 68  1  0  0  0
 36 56  1  0  0  0
 36108  1  0  0  0
 37 39  1  0  0  0
 37 47  1  0  0  0
 37 66  1  0  0  0
 37109  1  0  0  0
 38 43  2  0  0  0
 38 46  1  0  0  0
 38 47  1  0  0  0
 39 64  1  0  0  0
 39 67  2  0  0  0
 40 52  1  0  0  0
 40 53  2  0  0  0
 40 58  1  0  0  0
 41110  1  0  0  0
 41111  1  0  0  0
 41112  1  0  0  0
 41 48  1  0  0  0
 42 43  1  0  0  0
 42 66  1  0  0  0
 42113  1  0  0  0
 42114  1  0  0  0
 43 44  1  0  0  0
 44115  1  0  0  0
 45 46  2  0  0  0
 45116  1  0  0  0
 46117  1  0  0  0
 47118  1  0  0  0
 47119  1  0  0  0
 48 56  1  0  0  0
 48 65  1  0  0  0
 48120  1  0  0  0
 49 50  1  0  0  0
 49 53  1  0  0  0
 49 64  1  0  0  0
 49121  1  0  0  0
 50 51  1  0  0  0
 50122  1  0  0  0
 50123  1  0  0  0
 51 52  1  0  0  0
 51124  1  0  0  0
 51125  1  0  0  0
 52126  1  0  0  0
 52127  1  0  0  0
 53 54  1  0  0  0
 54 55  2  0  0  0
 54128  1  0  0  0
 55 57  1  0  0  0
 55129  1  0  0  0
 56 69  2  0  0  0
 57 58  2  0  0  0
 57130  1  0  0  0
 58131  1  0  0  0
 59 60  1  0  0  0
 59 61  1  0  0  0
 59 62  1  0  0  0
 60132  1  0  0  0
 60133  1  0  0  0
 60134  1  0  0  0
 61135  1  0  0  0
 61136  1  0  0  0
 61137  1  0  0  0
 62138  1  0  0  0
 62139  1  0  0  0
 62140  1  0  0  0
 63 65  1  0  0  0
 63141  1  0  0  0
 63142  1  0  0  0
 63143  1  0  0  0
 64144  1  0  0  0
 65145  1  0  0  0
 68 82  1  0  0  0
 71 72  2  0  0  0
 71 74  1  0  0  0
 71146  1  0  0  0
 72 75  1  0  0  0
 72147  1  0  0  0
 73 74  2  0  0  0
 73 76  1  0  0  0
 73148  1  0  0  0
 74 83  1  0  0  0
 75 76  2  0  0  0
 75 84  1  0  0  0
 76 86  1  0  0  0
 77 81  1  0  0  0
 77 83  1  0  0  0
 77 85  2  0  0  0
 78 79  1  0  0  0
 78 80  1  0  0  0
 78149  1  0  0  0
 78150  1  0  0  0
 79 81  1  0  0  0
 79151  1  0  0  0
 79152  1  0  0  0
 80 83  1  0  0  0
 80153  1  0  0  0
 80154  1  0  0  0
 81 82  1  0  0  0
 81155  1  0  0  0
 82156  1  0  0  0
 82157  1  0  0  0
 84158  1  0  0  0
M  ISO  4   1 100  68 101  82 101  84 100
M  END
> <chiral flag>
0

> <version>
0

> <s_m_source_file>
/data/baiqing/PycharmProjects/Reinvent-master-3.2/result/LINK_invent/BTK/process_docking_weight1_custom_product_contain_oxygen_bond_distance_aromatic_linkinvent_7_9_3/rearranged_h_0024.sdf

> <i_m_source_file_index>
3

> <r_mmod_Potential_Energy-OPLS-2005>
230.10237121582

> <r_mmod_Stretch_Energy-OPLS-2005>
100.41813659668

> <r_mmod_Bend_Energy-OPLS-2005>
179.377517700195

> <r_mmod_Torsional_Energy-OPLS-2005>
321.13427734375

> <r_mmod_Improper_Torsional_Energy-OPLS-2005>
4.94948530197144

> <r_mmod_Van_der_Waal_Energy-OPLS-2005>
153.889846801758

> <r_mmod_Electrostatic_Energy-OPLS-2005>
-357.914794921875

> <r_mmod_Solvation_Energy-OPLS-2005>
-224.07112121582

> <b_mmod_Minimization_Converged-OPLS-2005>
0

> <r_mmod_RMS_Derivative-OPLS-2005>
5.46569585800171

$$$$
3
                    3D
 Structure written by MMmdl.
155164  0  0  1  0            999 V2000
  -30.5938  -14.8294   20.3266 C   0  0  0  0  0  0
  -30.4124  -12.4846   19.4489 C   0  0  0  0  0  0
  -29.4970  -12.5330   18.2062 C   0  0  0  0  0  0
  -28.0255  -12.3553   18.6291 C   0  0  0  0  0  0
  -27.6367  -13.2528   19.8367 C   0  0  2  0  0  0
  -28.7020  -13.2162   20.9579 C   0  0  0  0  0  0
  -25.2426  -13.8218   20.5632 C   0  0  0  0  0  0
  -24.1787  -13.0412   20.9229 C   0  0  0  0  0  0
  -24.6456  -11.6948   20.8758 C   0  0  0  0  0  0
  -23.9131  -10.4314   21.0383 C   0  0  0  0  0  0
  -24.3660   -9.4215   21.9177 C   0  0  0  0  0  0
  -23.6305   -8.2291   22.0791 C   0  0  0  0  0  0
  -22.4301   -8.0325   21.3555 C   0  0  0  0  0  0
  -21.9938   -9.0302   20.4683 C   0  0  0  0  0  0
  -22.7297  -10.2160   20.3056 C   0  0  0  0  0  0
  -21.6867   -6.0769   22.5303 C   0  0  0  0  0  0
  -21.4035   -6.5656   23.8234 C   0  0  0  0  0  0
  -21.3657   -5.6800   24.9187 C   0  0  0  0  0  0
  -21.6021   -4.3053   24.7214 C   0  0  0  0  0  0
  -21.8826   -3.8168   23.4327 C   0  0  0  0  0  0
  -21.9203   -4.7009   22.3398 C   0  0  0  0  0  0
  -22.7788  -13.5162   21.1816 C   0  0  0  0  0  0
  -22.1674   -4.2182   21.0974 F   0  0  0  0  0  0
  -21.5600   -3.4551   25.7715 F   0  0  0  0  0  0
  -29.9871  -13.5808   20.3563 N   0  0  0  0  0  0
  -26.2946  -12.9550   20.3298 N   0  0  0  0  0  0
  -25.9373  -11.6633   20.5706 N   0  0  0  0  0  0
  -22.0468  -12.8191   22.0442 N   0  0  0  0  0  0
  -25.3821  -15.1976   20.3850 N   0  0  0  0  0  0
  -31.7920  -14.8917   20.0315 O   0  0  0  0  0  0
  -21.6671   -6.8914   21.4267 O   0  0  0  0  0  0
  -22.3460  -14.5445   20.6629 O   0  0  0  0  0  0
  -24.6338  -31.8489   23.1929 C   0  0  0  0  0  0
  -25.9104  -32.4757   23.8317 C   0  0  1  0  0  0
  -27.2154  -27.2410   20.1576 C   0  0  0  0  0  0
  -25.5892  -33.8557   24.2251 N   0  0  0  0  0  0
  -23.4355  -30.4722   21.5324 C   0  0  2  0  0  0
  -24.8866  -28.9069   20.1205 C   0  0  0  0  0  0
  -22.7471  -29.4615   22.4838 C   0  0  0  0  0  0
  -18.0314  -28.1365   22.8394 C   0  0  0  0  0  0
  -24.1512  -36.7264   23.2628 C   0  0  0  0  0  0
  -25.9839  -30.7603   21.3776 C   0  0  0  0  0  0
  -26.0573  -29.3774   20.7305 C   0  0  0  0  0  0
  -27.2338  -28.5567   20.7349 C   0  0  0  0  0  0
  -26.0258  -26.8334   19.5281 C   0  0  0  0  0  0
  -24.8779  -27.6472   19.4993 C   0  0  0  0  0  0
  -23.6612  -29.7973   20.1550 C   0  0  0  0  0  0
  -25.4125  -36.3034   24.0320 C   0  0  1  0  0  0
  -20.5878  -28.3748   23.1196 C   0  0  2  0  0  0
  -20.6776  -26.9474   22.5286 C   0  0  0  0  0  0
  -19.5739  -26.6406   21.5117 C   0  0  0  0  0  0
  -18.1919  -26.7913   22.1573 C   0  0  0  0  0  0
  -19.1523  -28.8901   23.2752 C   0  0  0  0  0  0
  -18.9383  -30.1468   23.8822 C   0  0  0  0  0  0
  -17.6350  -30.6490   24.0483 C   0  0  0  0  0  0
  -25.9050  -34.9412   23.5055 C   0  0  0  0  0  0
  -16.5294  -29.8982   23.6175 C   0  0  0  0  0  0
  -16.7266  -28.6419   23.0200 C   0  0  0  0  0  0
  -26.4498  -31.6585   25.0707 C   0  0  0  0  0  0
  -25.3685  -31.3746   26.1403 C   0  0  0  0  0  0
  -27.0355  -30.3019   24.6137 C   0  0  0  0  0  0
  -27.6064  -32.4306   25.7494 C   0  0  0  0  0  0
  -27.5573  -37.1798   24.8469 C   0  0  0  0  0  0
  -21.4171  -29.3095   22.3546 N   0  0  0  0  0  0
  -26.4291  -37.3736   23.9399 N   0  0  0  0  0  0
  -24.7027  -31.0434   22.0930 N   0  0  0  0  0  0
  -23.4082  -28.8157   23.2991 O   0  0  0  0  0  0
  -28.2945  -26.3309   20.1279 O   0  0  0  0  0  0
  -26.5618  -34.8869   22.4643 O   0  0  0  0  0  0
  -23.5458  -32.1308   23.7171 O   0  0  0  0  0  0
  -30.2458  -20.0024   18.6436 C   0  0  0  0  0  0
  -30.7029  -17.5771   18.6737 C   0  0  0  0  0  0
  -29.4385  -19.9295   19.8028 C   0  0  0  0  0  0
  -29.9648  -17.3803   19.8756 C   0  0  0  0  0  0
  -30.8380  -18.8571   18.0791 C   0  0  0  0  0  0
  -29.2924  -18.5878   20.3862 C   0  0  0  0  0  0
  -29.2863  -22.4805   20.3867 C   0  0  0  0  0  0
  -26.9293  -22.8362   20.4064 C   0  0  0  0  0  0
  -27.3060  -21.3160   20.3806 C   0  0  0  0  0  0
  -28.2059  -23.5376   20.8483 C   0  0  1  0  0  0
  -28.3162  -25.1679   21.0662 C   0  0  0  0  0  0
  -28.7665  -21.2050   20.2357 N   0  0  0  0  0  0
  -29.8244  -15.9912   20.4570 N   0  0  0  0  0  0
  -30.4743  -22.7830   20.2362 O   0  0  0  0  0  0
  -31.5329  -18.9880   16.9274 F   0  0  0  0  0  0
  -28.2637  -18.4015   21.7698 Cl  0  0  0  0  0  0
  -31.4588  -12.5769   19.1482 H   0  0  0  0  0  0
  -30.3169  -11.5108   19.9283 H   0  0  0  0  0  0
  -29.7758  -11.7544   17.4934 H   0  0  0  0  0  0
  -29.6259  -13.4794   17.6725 H   0  0  0  0  0  0
  -27.8812  -11.3052   18.8854 H   0  0  0  0  0  0
  -27.3617  -12.5579   17.7902 H   0  0  0  0  0  0
  -27.6071  -14.2684   19.4407 H   0  0  0  0  0  0
  -28.7642  -12.2219   21.4028 H   0  0  0  0  0  0
  -28.4431  -13.9025   21.7636 H   0  0  0  0  0  0
  -25.2817   -9.5708   22.4707 H   0  0  0  0  0  0
  -24.0024   -7.4698   22.7501 H   0  0  0  0  0  0
  -21.0882   -8.8811   19.8973 H   0  0  0  0  0  0
  -22.3758  -10.9684   19.6144 H   0  0  0  0  0  0
  -21.2071   -7.6176   23.9729 H   0  0  0  0  0  0
  -21.1448   -6.0537   25.9065 H   0  0  0  0  0  0
  -22.0593   -2.7635   23.2819 H   0  0  0  0  0  0
  -22.4131  -11.9911   22.4925 H   0  0  0  0  0  0
  -21.1059  -13.1189   22.2573 H   0  0  0  0  0  0
  -24.5526  -15.7800   20.4154 H   0  0  0  0  0  0
  -26.1702  -15.6614   19.9576 H   0  0  0  0  0  0
  -26.7147  -32.5453   23.1044 H   0  0  0  0  0  0
  -25.0075  -33.9724   25.0406 H   0  0  0  0  0  0
  -22.7366  -31.2984   21.3707 H   0  0  0  0  0  0
  -23.3744  -35.9628   23.3281 H   0  0  0  0  0  0
  -24.3596  -36.8916   22.2045 H   0  0  0  0  0  0
  -23.7309  -37.6459   23.6688 H   0  0  0  0  0  0
  -26.1071  -31.5057   20.5925 H   0  0  0  0  0  0
  -26.8689  -30.8292   22.0010 H   0  0  0  0  0  0
  -28.1346  -28.9106   21.2122 H   0  0  0  0  0  0
  -25.9842  -25.8541   19.0723 H   0  0  0  0  0  0
  -23.9845  -27.2868   19.0092 H   0  0  0  0  0  0
  -23.7940  -30.5616   19.3899 H   0  0  0  0  0  0
  -22.7884  -29.2153   19.8539 H   0  0  0  0  0  0
  -25.1342  -36.1819   25.0821 H   0  0  0  0  0  0
  -20.9852  -28.3488   24.1405 H   0  0  0  0  0  0
  -21.6599  -26.7482   22.1043 H   0  0  0  0  0  0
  -20.5718  -26.2257   23.3381 H   0  0  0  0  0  0
  -19.6928  -25.6353   21.1063 H   0  0  0  0  0  0
  -19.6691  -27.3187   20.6679 H   0  0  0  0  0  0
  -17.4142  -26.6782   21.4010 H   0  0  0  0  0  0
  -18.0258  -25.9998   22.8892 H   0  0  0  0  0  0
  -19.7737  -30.7404   24.2311 H   0  0  0  0  0  0
  -17.4748  -31.6094   24.5179 H   0  0  0  0  0  0
  -15.5247  -30.2768   23.7475 H   0  0  0  0  0  0
  -15.8747  -28.0675   22.6870 H   0  0  0  0  0  0
  -24.5868  -30.7121   25.7694 H   0  0  0  0  0  0
  -24.8866  -32.2934   26.4745 H   0  0  0  0  0  0
  -25.7930  -30.8939   27.0229 H   0  0  0  0  0  0
  -26.2964  -29.6758   24.1148 H   0  0  0  0  0  0
  -27.4089  -29.7264   25.4610 H   0  0  0  0  0  0
  -27.8788  -30.4356   23.9368 H   0  0  0  0  0  0
  -27.2718  -33.3644   26.2025 H   0  0  0  0  0  0
  -28.3905  -32.6814   25.0338 H   0  0  0  0  0  0
  -28.0688  -31.8446   26.5440 H   0  0  0  0  0  0
  -28.2600  -38.0091   24.7480 H   0  0  0  0  0  0
  -28.1072  -36.2601   24.6356 H   0  0  0  0  0  0
  -27.2289  -37.1530   25.8881 H   0  0  0  0  0  0
  -20.9413  -29.8543   21.6467 H   0  0  0  0  0  0
  -26.0119  -38.2797   24.1385 H   0  0  0  0  0  0
  -30.3845  -20.9460   18.1253 H   0  0  0  0  0  0
  -31.1728  -16.7407   18.1657 H   0  0  0  0  0  0
  -26.1192  -23.0268   21.1104 H   0  0  0  0  0  0
  -26.6117  -23.1906   19.4244 H   0  0  0  0  0  0
  -26.7856  -20.7942   19.5731 H   0  0  0  0  0  0
  -27.0120  -20.8391   21.3117 H   0  0  0  0  0  0
  -28.2306  -23.2626   21.9093 H   0  0  0  0  0  0
  -29.2635  -25.3105   21.5876 H   0  0  0  0  0  0
  -27.5862  -25.4089   21.8470 H   0  0  0  0  0  0
  -28.9683  -15.8593   20.9652 H   0  0  0  0  0  0
  1 25  1  0  0  0
  1 30  2  0  0  0
  1 83  1  0  0  0
  2  3  1  0  0  0
  2 25  1  0  0  0
  2 87  1  0  0  0
  2 88  1  0  0  0
  3  4  1  0  0  0
  3 89  1  0  0  0
  3 90  1  0  0  0
  4  5  1  0  0  0
  4 91  1  0  0  0
  4 92  1  0  0  0
  5  6  1  0  0  0
  5 26  1  0  0  0
  5 93  1  0  0  0
  6 25  1  0  0  0
  6 94  1  0  0  0
  6 95  1  0  0  0
  7  8  2  0  0  0
  7 26  1  0  0  0
  7 29  1  0  0  0
  8  9  1  0  0  0
  8 22  1  0  0  0
  9 10  1  0  0  0
  9 27  2  0  0  0
 10 11  2  0  0  0
 10 15  1  0  0  0
 11 12  1  0  0  0
 11 96  1  0  0  0
 12 13  2  0  0  0
 12 97  1  0  0  0
 13 14  1  0  0  0
 13 31  1  0  0  0
 14 15  2  0  0  0
 14 98  1  0  0  0
 15 99  1  0  0  0
 16 17  2  0  0  0
 16 21  1  0  0  0
 16 31  1  0  0  0
 17 18  1  0  0  0
 17100  1  0  0  0
 18 19  2  0  0  0
 18101  1  0  0  0
 19 20  1  0  0  0
 19 24  1  0  0  0
 20 21  2  0  0  0
 20102  1  0  0  0
 21 23  1  0  0  0
 22 28  1  0  0  0
 22 32  2  0  0  0
 26 27  1  0  0  0
 28103  1  0  0  0
 28104  1  0  0  0
 29105  1  0  0  0
 29106  1  0  0  0
 33 34  1  0  0  0
 33 66  1  0  0  0
 33 70  2  0  0  0
 34 36  1  0  0  0
 34 59  1  0  0  0
 34107  1  0  0  0
 35 44  2  0  0  0
 35 45  1  0  0  0
 35 68  1  0  0  0
 36 56  1  0  0  0
 36108  1  0  0  0
 37 39  1  0  0  0
 37 47  1  0  0  0
 37 66  1  0  0  0
 37109  1  0  0  0
 38 43  2  0  0  0
 38 46  1  0  0  0
 38 47  1  0  0  0
 39 64  1  0  0  0
 39 67  2  0  0  0
 40 52  1  0  0  0
 40 53  2  0  0  0
 40 58  1  0  0  0
 41110  1  0  0  0
 41111  1  0  0  0
 41112  1  0  0  0
 41 48  1  0  0  0
 42 43  1  0  0  0
 42 66  1  0  0  0
 42113  1  0  0  0
 42114  1  0  0  0
 43 44  1  0  0  0
 44115  1  0  0  0
 45 46  2  0  0  0
 45116  1  0  0  0
 46117  1  0  0  0
 47118  1  0  0  0
 47119  1  0  0  0
 48 56  1  0  0  0
 48 65  1  0  0  0
 48120  1  0  0  0
 49 50  1  0  0  0
 49 53  1  0  0  0
 49 64  1  0  0  0
 49121  1  0  0  0
 50 51  1  0  0  0
 50122  1  0  0  0
 50123  1  0  0  0
 51 52  1  0  0  0
 51124  1  0  0  0
 51125  1  0  0  0
 52126  1  0  0  0
 52127  1  0  0  0
 53 54  1  0  0  0
 54 55  2  0  0  0
 54128  1  0  0  0
 55 57  1  0  0  0
 55129  1  0  0  0
 56 69  2  0  0  0
 57 58  2  0  0  0
 57130  1  0  0  0
 58131  1  0  0  0
 59 60  1  0  0  0
 59 61  1  0  0  0
 59 62  1  0  0  0
 60132  1  0  0  0
 60133  1  0  0  0
 60134  1  0  0  0
 61135  1  0  0  0
 61136  1  0  0  0
 61137  1  0  0  0
 62138  1  0  0  0
 62139  1  0  0  0
 62140  1  0  0  0
 63 65  1  0  0  0
 63141  1  0  0  0
 63142  1  0  0  0
 63143  1  0  0  0
 64144  1  0  0  0
 65145  1  0  0  0
 68 81  1  0  0  0
 71 73  2  0  0  0
 71 75  1  0  0  0
 71146  1  0  0  0
 72 74  1  0  0  0
 72 75  2  0  0  0
 72147  1  0  0  0
 73 76  1  0  0  0
 73 82  1  0  0  0
 74 76  2  0  0  0
 74 83  1  0  0  0
 75 85  1  0  0  0
 76 86  1  0  0  0
 77 80  1  0  0  0
 77 82  1  0  0  0
 77 84  2  0  0  0
 78 79  1  0  0  0
 78 80  1  0  0  0
 78148  1  0  0  0
 78149  1  0  0  0
 79 82  1  0  0  0
 79150  1  0  0  0
 79151  1  0  0  0
 80 81  1  0  0  0
 80152  1  0  0  0
 81153  1  0  0  0
 81154  1  0  0  0
 83155  1  0  0  0
M  ISO  4   1 100  68 101  81 101  83 100
M  END
> <chiral flag>
0

> <version>
0

> <s_m_source_file>
/data/baiqing/PycharmProjects/Reinvent-master-3.2/result/LINK_invent/BTK/process_docking_weight1_custom_product_contain_oxygen_bond_distance_aromatic_linkinvent_7_9_3/rearranged_h_0024.sdf

> <i_m_source_file_index>
4

> <r_mmod_Potential_Energy-OPLS-2005>
381.010620117188

> <r_mmod_Stretch_Energy-OPLS-2005>
147.720428466797

> <r_mmod_Bend_Energy-OPLS-2005>
276.832397460938

> <r_mmod_Torsional_Energy-OPLS-2005>
310.703552246094

> <r_mmod_Improper_Torsional_Energy-OPLS-2005>
6.00777387619019

> <r_mmod_Van_der_Waal_Energy-OPLS-2005>
122.656173706055

> <r_mmod_Electrostatic_Energy-OPLS-2005>
-377.790618896484

> <r_mmod_Solvation_Energy-OPLS-2005>
-221.075241088867

> <b_mmod_Minimization_Converged-OPLS-2005>
0

> <r_mmod_RMS_Derivative-OPLS-2005>
10.1308679580688

$$$$
4
                    3D
 Structure written by MMmdl.
161170  0  0  1  0            999 V2000
  -30.6952  -14.4576   20.5362 C   0  0  0  0  0  0
  -30.4182  -12.2871   19.4306 C   0  0  0  0  0  0
  -29.4992  -12.5078   18.2110 C   0  0  0  0  0  0
  -28.0169  -12.3788   18.6153 C   0  0  0  0  0  0
  -27.6642  -13.2093   19.8797 C   0  0  2  0  0  0
  -28.7030  -12.9865   21.0035 C   0  0  0  0  0  0
  -25.2592  -13.8165   20.5671 C   0  0  0  0  0  0
  -24.1843  -13.0435   20.9166 C   0  0  0  0  0  0
  -24.6395  -11.6903   20.8724 C   0  0  0  0  0  0
  -23.9063  -10.4295   21.0389 C   0  0  0  0  0  0
  -24.3614   -9.4215   21.9173 C   0  0  0  0  0  0
  -23.6298   -8.2246   22.0749 C   0  0  0  0  0  0
  -22.4279   -8.0281   21.3539 C   0  0  0  0  0  0
  -21.9905   -9.0252   20.4639 C   0  0  0  0  0  0
  -22.7229  -10.2138   20.3046 C   0  0  0  0  0  0
  -21.6855   -6.0734   22.5281 C   0  0  0  0  0  0
  -21.4015   -6.5635   23.8213 C   0  0  0  0  0  0
  -21.3664   -5.6789   24.9171 C   0  0  0  0  0  0
  -21.6044   -4.3051   24.7226 C   0  0  0  0  0  0
  -21.8820   -3.8143   23.4344 C   0  0  0  0  0  0
  -21.9193   -4.6963   22.3402 C   0  0  0  0  0  0
  -22.7867  -13.5233   21.1838 C   0  0  0  0  0  0
  -22.1656   -4.2141   21.0980 F   0  0  0  0  0  0
  -21.5631   -3.4535   25.7742 F   0  0  0  0  0  0
  -30.0388  -13.2709   20.4557 N   0  0  0  0  0  0
  -26.3037  -12.9344   20.3378 N   0  0  0  0  0  0
  -25.9331  -11.6500   20.5776 N   0  0  0  0  0  0
  -22.0499  -12.8242   22.0405 N   0  0  0  0  0  0
  -25.4320  -15.1890   20.4099 N   0  0  0  0  0  0
  -31.8417  -14.6192   20.1097 O   0  0  0  0  0  0
  -21.6640   -6.8878   21.4242 O   0  0  0  0  0  0
  -22.3560  -14.5534   20.6676 O   0  0  0  0  0  0
  -24.6138  -31.8679   23.2108 C   0  0  0  0  0  0
  -25.9031  -32.4820   23.8400 C   0  0  1  0  0  0
  -27.2361  -27.4353   20.1033 C   0  0  0  0  0  0
  -25.5890  -33.8619   24.2336 N   0  0  0  0  0  0
  -23.4025  -30.4924   21.5502 C   0  0  2  0  0  0
  -24.8492  -28.9580   20.1178 C   0  0  0  0  0  0
  -22.7408  -29.4665   22.4986 C   0  0  0  0  0  0
  -18.0272  -28.1390   22.8492 C   0  0  0  0  0  0
  -24.1486  -36.7326   23.2641 C   0  0  0  0  0  0
  -25.9299  -30.8356   21.3625 C   0  0  0  0  0  0
  -26.0082  -29.4684   20.7147 C   0  0  0  0  0  0
  -27.2040  -28.7147   20.7026 C   0  0  0  0  0  0
  -26.0591  -26.9461   19.4883 C   0  0  0  0  0  0
  -24.8685  -27.6956   19.5024 C   0  0  0  0  0  0
  -23.6116  -29.8243   20.1652 C   0  0  0  0  0  0
  -25.4104  -36.3114   24.0340 C   0  0  1  0  0  0
  -20.5863  -28.3678   23.1319 C   0  0  2  0  0  0
  -20.6768  -26.9414   22.5421 C   0  0  0  0  0  0
  -19.5751  -26.6397   21.5215 C   0  0  0  0  0  0
  -18.1926  -26.7938   22.1622 C   0  0  0  0  0  0
  -19.1520  -28.8851   23.2906 C   0  0  0  0  0  0
  -18.9446  -30.1453   23.8920 C   0  0  0  0  0  0
  -17.6447  -30.6593   24.0572 C   0  0  0  0  0  0
  -25.9024  -34.9475   23.5133 C   0  0  0  0  0  0
  -16.5340  -29.9100   23.6323 C   0  0  0  0  0  0
  -16.7259  -28.6522   23.0338 C   0  0  0  0  0  0
  -26.4475  -31.6586   25.0715 C   0  0  0  0  0  0
  -25.3763  -31.3665   26.1478 C   0  0  0  0  0  0
  -27.0293  -30.3031   24.6060 C   0  0  0  0  0  0
  -27.6057  -32.4302   25.7474 C   0  0  0  0  0  0
  -27.5575  -37.1828   24.8469 C   0  0  0  0  0  0
  -21.4137  -29.3038   22.3720 N   0  0  0  0  0  0
  -26.4298  -37.3789   23.9395 N   0  0  0  0  0  0
  -24.6671  -31.0793   22.0999 N   0  0  0  0  0  0
  -23.4179  -28.8199   23.3022 O   0  0  0  0  0  0
  -28.4161  -26.7178   20.0968 O   0  0  0  0  0  0
  -26.5581  -34.8923   22.4692 O   0  0  0  0  0  0
  -23.5336  -32.1425   23.7506 O   0  0  0  0  0  0
  -29.5598  -19.2407   20.6870 C   0  0  0  0  0  0
  -30.4688  -17.0997   19.1206 C   0  0  0  0  0  0
  -30.0532  -19.5009   19.3861 C   0  0  0  0  0  0
  -30.0134  -16.8366   20.4342 C   0  0  0  0  0  0
  -29.5374  -17.9239   21.2073 C   0  0  0  0  0  0
  -30.4863  -18.4057   18.5997 C   0  0  0  0  0  0
  -29.3550  -23.1997   19.3120 C   0  0  0  0  0  0
  -30.9084  -23.1765   21.7329 C   0  0  0  0  0  0
  -30.7146  -24.5557   21.0992 C   0  0  0  0  0  0
  -31.1788  -22.1513   20.6283 C   0  0  0  0  0  0
  -29.6361  -24.5738   19.9865 C   0  0  2  0  0  0
  -30.0754  -20.9077   18.7677 C   0  0  0  0  0  0
  -28.3378  -25.3156   20.4126 C   0  0  0  0  0  0
  -30.0877  -22.1003   19.6436 N   0  0  0  0  0  0
  -29.9553  -15.5017   20.9537 N   0  0  0  0  0  0
  -28.4879  -23.1595   18.4327 O   0  0  0  0  0  0
  -28.9220  -17.6563   22.8001 Cl  0  0  0  0  0  0
  -31.0297  -18.6240   16.9721 Cl  0  0  0  0  0  0
  -31.4653  -12.3738   19.1344 H   0  0  0  0  0  0
  -30.3043  -11.2743   19.8190 H   0  0  0  0  0  0
  -29.7361  -11.7886   17.4259 H   0  0  0  0  0  0
  -29.6804  -13.4959   17.7837 H   0  0  0  0  0  0
  -27.8136  -11.3226   18.7972 H   0  0  0  0  0  0
  -27.3736  -12.6718   17.7849 H   0  0  0  0  0  0
  -27.7082  -14.2592   19.5910 H   0  0  0  0  0  0
  -28.6673  -11.9543   21.3556 H   0  0  0  0  0  0
  -28.4753  -13.6026   21.8751 H   0  0  0  0  0  0
  -25.2753   -9.5695   22.4752 H   0  0  0  0  0  0
  -24.0008   -7.4636   22.7471 H   0  0  0  0  0  0
  -21.0830   -8.8765   19.8958 H   0  0  0  0  0  0
  -22.3671  -10.9674   19.6164 H   0  0  0  0  0  0
  -21.2001   -7.6148   23.9715 H   0  0  0  0  0  0
  -21.1489   -6.0517   25.9078 H   0  0  0  0  0  0
  -22.0598   -2.7611   23.2844 H   0  0  0  0  0  0
  -22.4096  -11.9900   22.4808 H   0  0  0  0  0  0
  -21.1114  -13.1285   22.2589 H   0  0  0  0  0  0
  -24.6664  -15.8454   20.5181 H   0  0  0  0  0  0
  -26.2900  -15.6314   20.1043 H   0  0  0  0  0  0
  -26.7098  -32.5547   23.1167 H   0  0  0  0  0  0
  -25.0035  -33.9779   25.0479 H   0  0  0  0  0  0
  -22.6918  -31.3094   21.4105 H   0  0  0  0  0  0
  -23.3723  -35.9690   23.3354 H   0  0  0  0  0  0
  -24.3573  -36.8889   22.2046 H   0  0  0  0  0  0
  -23.7283  -37.6566   23.6621 H   0  0  0  0  0  0
  -26.0362  -31.5990   20.5901 H   0  0  0  0  0  0
  -26.8206  -30.8943   21.9764 H   0  0  0  0  0  0
  -28.1002  -29.1060   21.1637 H   0  0  0  0  0  0
  -26.0444  -25.9982   18.9725 H   0  0  0  0  0  0
  -23.9803  -27.3026   19.0268 H   0  0  0  0  0  0
  -23.7213  -30.5979   19.4044 H   0  0  0  0  0  0
  -22.7366  -29.2431   19.8685 H   0  0  0  0  0  0
  -25.1290  -36.1987   25.0837 H   0  0  0  0  0  0
  -20.9953  -28.3244   24.1441 H   0  0  0  0  0  0
  -20.5684  -26.2280   23.3605 H   0  0  0  0  0  0
  -21.6637  -26.7472   22.1207 H   0  0  0  0  0  0
  -19.6912  -25.6313   21.1237 H   0  0  0  0  0  0
  -19.6693  -27.3216   20.6755 H   0  0  0  0  0  0
  -17.4199  -26.6689   21.4018 H   0  0  0  0  0  0
  -18.0321  -26.0079   22.9018 H   0  0  0  0  0  0
  -19.7921  -30.7264   24.2303 H   0  0  0  0  0  0
  -17.5003  -31.6270   24.5177 H   0  0  0  0  0  0
  -15.5344  -30.3008   23.7638 H   0  0  0  0  0  0
  -15.8661  -28.0853   22.7028 H   0  0  0  0  0  0
  -24.5940  -30.7002   25.7823 H   0  0  0  0  0  0
  -24.8948  -32.2802   26.4968 H   0  0  0  0  0  0
  -25.8144  -30.8815   27.0210 H   0  0  0  0  0  0
  -26.2808  -29.6792   24.1157 H   0  0  0  0  0  0
  -27.4118  -29.7264   25.4494 H   0  0  0  0  0  0
  -27.8626  -30.4354   23.9155 H   0  0  0  0  0  0
  -27.2675  -33.3587   26.2088 H   0  0  0  0  0  0
  -28.3843  -32.6886   25.0283 H   0  0  0  0  0  0
  -28.0750  -31.8405   26.5359 H   0  0  0  0  0  0
  -28.2630  -38.0087   24.7457 H   0  0  0  0  0  0
  -28.1033  -36.2618   24.6371 H   0  0  0  0  0  0
  -27.2286  -37.1572   25.8872 H   0  0  0  0  0  0
  -20.9300  -29.8752   21.6934 H   0  0  0  0  0  0
  -26.0194  -38.2877   24.1363 H   0  0  0  0  0  0
  -29.1900  -20.0515   21.2977 H   0  0  0  0  0  0
  -30.7977  -16.2971   18.4770 H   0  0  0  0  0  0
  -30.0242  -22.8904   22.3055 H   0  0  0  0  0  0
  -31.7410  -23.1964   22.4379 H   0  0  0  0  0  0
  -31.6656  -24.8755   20.6717 H   0  0  0  0  0  0
  -30.4879  -25.2884   21.8745 H   0  0  0  0  0  0
  -31.3588  -21.1769   21.0789 H   0  0  0  0  0  0
  -32.1006  -22.4095   20.1044 H   0  0  0  0  0  0
  -30.0547  -25.1627   19.1696 H   0  0  0  0  0  0
  -29.2393  -20.9192   18.0676 H   0  0  0  0  0  0
  -30.9676  -21.0060   18.1491 H   0  0  0  0  0  0
  -28.1796  -25.2059   21.4862 H   0  0  0  0  0  0
  -27.4727  -24.8432   19.9556 H   0  0  0  0  0  0
  -29.1459  -15.2844   21.5149 H   0  0  0  0  0  0
  1 25  1  0  0  0
  1 30  2  0  0  0
  1 85  1  0  0  0
  2  3  1  0  0  0
  2 25  1  0  0  0
  2 89  1  0  0  0
  2 90  1  0  0  0
  3  4  1  0  0  0
  3 91  1  0  0  0
  3 92  1  0  0  0
  4  5  1  0  0  0
  4 93  1  0  0  0
  4 94  1  0  0  0
  5  6  1  0  0  0
  5 26  1  0  0  0
  5 95  1  0  0  0
  6 25  1  0  0  0
  6 96  1  0  0  0
  6 97  1  0  0  0
  7  8  2  0  0  0
  7 26  1  0  0  0
  7 29  1  0  0  0
  8  9  1  0  0  0
  8 22  1  0  0  0
  9 10  1  0  0  0
  9 27  2  0  0  0
 10 11  2  0  0  0
 10 15  1  0  0  0
 11 12  1  0  0  0
 11 98  1  0  0  0
 12 13  2  0  0  0
 12 99  1  0  0  0
 13 14  1  0  0  0
 13 31  1  0  0  0
 14 15  2  0  0  0
 14100  1  0  0  0
 15101  1  0  0  0
 16 17  2  0  0  0
 16 21  1  0  0  0
 16 31  1  0  0  0
 17 18  1  0  0  0
 17102  1  0  0  0
 18 19  2  0  0  0
 18103  1  0  0  0
 19 20  1  0  0  0
 19 24  1  0  0  0
 20 21  2  0  0  0
 20104  1  0  0  0
 21 23  1  0  0  0
 22 28  1  0  0  0
 22 32  2  0  0  0
 26 27  1  0  0  0
 28105  1  0  0  0
 28106  1  0  0  0
 29107  1  0  0  0
 29108  1  0  0  0
 33 34  1  0  0  0
 33 66  1  0  0  0
 33 70  2  0  0  0
 34 36  1  0  0  0
 34 59  1  0  0  0
 34109  1  0  0  0
 35 44  2  0  0  0
 35 45  1  0  0  0
 35 68  1  0  0  0
 36 56  1  0  0  0
 36110  1  0  0  0
 37 39  1  0  0  0
 37 47  1  0  0  0
 37 66  1  0  0  0
 37111  1  0  0  0
 38 43  2  0  0  0
 38 46  1  0  0  0
 38 47  1  0  0  0
 39 64  1  0  0  0
 39 67  2  0  0  0
 40 52  1  0  0  0
 40 53  2  0  0  0
 40 58  1  0  0  0
 41112  1  0  0  0
 41113  1  0  0  0
 41114  1  0  0  0
 41 48  1  0  0  0
 42 43  1  0  0  0
 42 66  1  0  0  0
 42115  1  0  0  0
 42116  1  0  0  0
 43 44  1  0  0  0
 44117  1  0  0  0
 45 46  2  0  0  0
 45118  1  0  0  0
 46119  1  0  0  0
 47120  1  0  0  0
 47121  1  0  0  0
 48 56  1  0  0  0
 48 65  1  0  0  0
 48122  1  0  0  0
 49 50  1  0  0  0
 49 53  1  0  0  0
 49 64  1  0  0  0
 49123  1  0  0  0
 50 51  1  0  0  0
 50124  1  0  0  0
 50125  1  0  0  0
 51 52  1  0  0  0
 51126  1  0  0  0
 51127  1  0  0  0
 52128  1  0  0  0
 52129  1  0  0  0
 53 54  1  0  0  0
 54 55  2  0  0  0
 54130  1  0  0  0
 55 57  1  0  0  0
 55131  1  0  0  0
 56 69  2  0  0  0
 57 58  2  0  0  0
 57132  1  0  0  0
 58133  1  0  0  0
 59 60  1  0  0  0
 59 61  1  0  0  0
 59 62  1  0  0  0
 60134  1  0  0  0
 60135  1  0  0  0
 60136  1  0  0  0
 61137  1  0  0  0
 61138  1  0  0  0
 61139  1  0  0  0
 62140  1  0  0  0
 62141  1  0  0  0
 62142  1  0  0  0
 63 65  1  0  0  0
 63143  1  0  0  0
 63144  1  0  0  0
 63145  1  0  0  0
 64146  1  0  0  0
 65147  1  0  0  0
 68 83  1  0  0  0
 71 73  2  0  0  0
 71 75  1  0  0  0
 71148  1  0  0  0
 72 74  1  0  0  0
 72 76  2  0  0  0
 72149  1  0  0  0
 73 76  1  0  0  0
 73 82  1  0  0  0
 74 75  2  0  0  0
 74 85  1  0  0  0
 75 87  1  0  0  0
 76 88  1  0  0  0
 77 81  1  0  0  0
 77 84  1  0  0  0
 77 86  2  0  0  0
 78 79  1  0  0  0
 78 80  1  0  0  0
 78150  1  0  0  0
 78151  1  0  0  0
 79 81  1  0  0  0
 79152  1  0  0  0
 79153  1  0  0  0
 80 84  1  0  0  0
 80154  1  0  0  0
 80155  1  0  0  0
 81 83  1  0  0  0
 81156  1  0  0  0
 82 84  1  0  0  0
 82157  1  0  0  0
 82158  1  0  0  0
 83159  1  0  0  0
 83160  1  0  0  0
 85161  1  0  0  0
M  ISO  4   1 100  68 101  83 101  85 100
M  END
> <chiral flag>
0

> <version>
0

> <s_m_source_file>
/data/baiqing/PycharmProjects/Reinvent-master-3.2/result/LINK_invent/BTK/process_docking_weight1_custom_product_contain_oxygen_bond_distance_aromatic_linkinvent_7_9_3/rearranged_h_0024.sdf

> <i_m_source_file_index>
5

> <r_mmod_Potential_Energy-OPLS-2005>
-0.314137905836105

> <r_mmod_Stretch_Energy-OPLS-2005>
42.1084747314453

> <r_mmod_Bend_Energy-OPLS-2005>
106.955535888672

> <r_mmod_Torsional_Energy-OPLS-2005>
269.201965332031

> <r_mmod_Improper_Torsional_Energy-OPLS-2005>
5.83322143554688

> <r_mmod_Van_der_Waal_Energy-OPLS-2005>
176.724151611328

> <r_mmod_Electrostatic_Energy-OPLS-2005>
-391.476989746094

> <r_mmod_Solvation_Energy-OPLS-2005>
-222.135726928711

> <b_mmod_Minimization_Converged-OPLS-2005>
0

> <r_mmod_RMS_Derivative-OPLS-2005>
1.61609899997711

$$$$
5
                    3D
 Structure written by MMmdl.
152161  0  0  1  0            999 V2000
  -30.5300  -15.1138   20.3898 C   0  0  0  0  0  0
  -30.4362  -12.7094   19.4968 C   0  0  0  0  0  0
  -29.5193  -12.5389   18.2633 C   0  0  0  0  0  0
  -28.0661  -12.2796   18.6994 C   0  0  0  0  0  0
  -27.6159  -13.2409   19.8265 C   0  0  2  0  0  0
  -28.6650  -13.3710   20.9535 C   0  0  0  0  0  0
  -25.2410  -13.8155   20.5736 C   0  0  0  0  0  0
  -24.1741  -13.0388   20.9260 C   0  0  0  0  0  0
  -24.6368  -11.6882   20.8791 C   0  0  0  0  0  0
  -23.9060  -10.4265   21.0428 C   0  0  0  0  0  0
  -24.3615   -9.4180   21.9199 C   0  0  0  0  0  0
  -23.6284   -8.2220   22.0759 C   0  0  0  0  0  0
  -22.4267   -8.0269   21.3545 C   0  0  0  0  0  0
  -21.9904   -9.0244   20.4649 C   0  0  0  0  0  0
  -22.7238  -10.2118   20.3065 C   0  0  0  0  0  0
  -21.6846   -6.0730   22.5278 C   0  0  0  0  0  0
  -21.4010   -6.5635   23.8211 C   0  0  0  0  0  0
  -21.3657   -5.6789   24.9173 C   0  0  0  0  0  0
  -21.6042   -4.3052   24.7224 C   0  0  0  0  0  0
  -21.8821   -3.8143   23.4348 C   0  0  0  0  0  0
  -21.9191   -4.6959   22.3403 C   0  0  0  0  0  0
  -22.7767  -13.5177   21.1893 C   0  0  0  0  0  0
  -22.1662   -4.2147   21.0981 F   0  0  0  0  0  0
  -21.5626   -3.4535   25.7737 F   0  0  0  0  0  0
  -29.9054  -13.8479   20.3206 N   0  0  0  0  0  0
  -26.2832  -12.9378   20.3269 N   0  0  0  0  0  0
  -25.9299  -11.6520   20.5786 N   0  0  0  0  0  0
  -22.0412  -12.8180   22.0451 N   0  0  0  0  0  0
  -25.3995  -15.1878   20.4124 N   0  0  0  0  0  0
  -31.7537  -15.0679   20.2053 O   0  0  0  0  0  0
  -21.6629   -6.8869   21.4239 O   0  0  0  0  0  0
  -22.3464  -14.5486   20.6728 O   0  0  0  0  0  0
  -24.6517  -31.8356   23.1804 C   0  0  0  0  0  0
  -25.9250  -32.4651   23.8227 C   0  0  1  0  0  0
  -27.2198  -27.0492   20.1652 C   0  0  0  0  0  0
  -25.5960  -33.8460   24.2139 N   0  0  0  0  0  0
  -23.4603  -30.4517   21.5278 C   0  0  2  0  0  0
  -24.9123  -28.8623   20.1113 C   0  0  0  0  0  0
  -22.7612  -29.4504   22.4825 C   0  0  0  0  0  0
  -18.0313  -28.1401   22.8473 C   0  0  0  0  0  0
  -24.1492  -36.7238   23.2643 C   0  0  0  0  0  0
  -26.0224  -30.6817   21.3924 C   0  0  0  0  0  0
  -26.0932  -29.2841   20.7351 C   0  0  0  0  0  0
  -27.2460  -28.3964   20.7406 C   0  0  0  0  0  0
  -26.0102  -26.7505   19.4993 C   0  0  0  0  0  0
  -24.8891  -27.6121   19.4754 C   0  0  0  0  0  0
  -23.6929  -29.7752   20.1502 C   0  0  0  0  0  0
  -25.4126  -36.3005   24.0308 C   0  0  1  0  0  0
  -20.5931  -28.3737   23.1212 C   0  0  2  0  0  0
  -20.6794  -26.9429   22.5402 C   0  0  0  0  0  0
  -19.5766  -26.6379   21.5212 C   0  0  0  0  0  0
  -18.1949  -26.7935   22.1626 C   0  0  0  0  0  0
  -19.1572  -28.8888   23.2832 C   0  0  0  0  0  0
  -18.9486  -30.1481   23.8863 C   0  0  0  0  0  0
  -17.6481  -30.6594   24.0556 C   0  0  0  0  0  0
  -25.9085  -34.9384   23.5038 C   0  0  0  0  0  0
  -16.5372  -29.9085   23.6337 C   0  0  0  0  0  0
  -16.7296  -28.6504   23.0358 C   0  0  0  0  0  0
  -26.4538  -31.6553   25.0708 C   0  0  0  0  0  0
  -25.3693  -31.3765   26.1381 C   0  0  0  0  0  0
  -27.0424  -30.2937   24.6358 C   0  0  0  0  0  0
  -27.6042  -32.4345   25.7508 C   0  0  0  0  0  0
  -27.5576  -37.1769   24.8460 C   0  0  0  0  0  0
  -21.4294  -29.3047   22.3574 N   0  0  0  0  0  0
  -26.4279  -37.3731   23.9415 N   0  0  0  0  0  0
  -24.7319  -31.0130   22.0880 N   0  0  0  0  0  0
  -23.4214  -28.8060   23.3015 O   0  0  0  0  0  0
  -28.2463  -26.0076   20.2380 O   0  0  0  0  0  0
  -26.5686  -34.8899   22.4628 O   0  0  0  0  0  0
  -23.5616  -32.1271   23.6968 O   0  0  0  0  0  0
  -32.0588  -19.6022   20.4575 C   0  0  0  0  0  0
  -31.7143  -18.2300   20.4719 C   0  0  0  0  0  0
  -31.1040  -20.6530   20.3997 C   0  0  0  0  0  0
  -29.3988  -18.9606   20.3783 C   0  0  0  0  0  0
  -30.3621  -17.8505   20.4291 C   0  0  0  0  0  0
  -29.6976  -20.4524   20.3572 C   0  0  0  0  0  0
  -29.0320  -23.1841   20.3445 C   0  0  0  0  0  0
  -28.0720  -18.2319   20.3642 C   0  0  0  0  0  0
  -28.3875  -16.6651   20.3676 C   0  0  0  0  0  0
  -27.9267  -24.4469   20.0995 C   0  0  0  0  0  0
  -29.8473  -16.4163   20.4316 N   0  0  0  0  0  0
  -28.7968  -21.7452   20.2681 N   0  0  0  0  0  0
  -30.1645  -23.5750   20.6350 O   0  0  0  0  0  0
  -31.4587  -12.8874   19.1602 H   0  0  0  0  0  0
  -30.4787  -11.7891   20.0820 H   0  0  0  0  0  0
  -29.8738  -11.7202   17.6354 H   0  0  0  0  0  0
  -29.5630  -13.4389   17.6479 H   0  0  0  0  0  0
  -28.0067  -11.2494   19.0526 H   0  0  0  0  0  0
  -27.3931  -12.3487   17.8441 H   0  0  0  0  0  0
  -27.5347  -14.2009   19.3284 H   0  0  0  0  0  0
  -28.8153  -12.4180   21.4625 H   0  0  0  0  0  0
  -28.3355  -14.0710   21.7203 H   0  0  0  0  0  0
  -25.2757   -9.5653   22.4778 H   0  0  0  0  0  0
  -23.9988   -7.4606   22.7476 H   0  0  0  0  0  0
  -21.0835   -8.8769   19.8954 H   0  0  0  0  0  0
  -22.3703  -10.9663   19.6179 H   0  0  0  0  0  0
  -21.2006   -7.6143   23.9713 H   0  0  0  0  0  0
  -21.1474   -6.0520   25.9075 H   0  0  0  0  0  0
  -22.0604   -2.7605   23.2849 H   0  0  0  0  0  0
  -22.4026  -11.9851   22.4858 H   0  0  0  0  0  0
  -21.1030  -13.1210   22.2646 H   0  0  0  0  0  0
  -24.6270  -15.8337   20.5336 H   0  0  0  0  0  0
  -26.2425  -15.6348   20.0807 H   0  0  0  0  0  0
  -26.7315  -32.5230   23.0950 H   0  0  0  0  0  0
  -25.0056  -33.9554   25.0251 H   0  0  0  0  0  0
  -22.7675  -31.2802   21.3662 H   0  0  0  0  0  0
  -23.3760  -35.9563   23.3280 H   0  0  0  0  0  0
  -24.3576  -36.8902   22.2063 H   0  0  0  0  0  0
  -23.7242  -37.6422   23.6703 H   0  0  0  0  0  0
  -26.1880  -31.4312   20.6175 H   0  0  0  0  0  0
  -26.8880  -30.7350   22.0408 H   0  0  0  0  0  0
  -28.1427  -28.7153   21.2529 H   0  0  0  0  0  0
  -25.8940  -25.7959   19.0093 H   0  0  0  0  0  0
  -23.9895  -27.2835   18.9733 H   0  0  0  0  0  0
  -23.8381  -30.5470   19.3934 H   0  0  0  0  0  0
  -22.8054  -29.2233   19.8359 H   0  0  0  0  0  0
  -25.1315  -36.1816   25.0798 H   0  0  0  0  0  0
  -21.0021  -28.3336   24.1333 H   0  0  0  0  0  0
  -20.5681  -26.2354   23.3632 H   0  0  0  0  0  0
  -21.6660  -26.7422   22.1205 H   0  0  0  0  0  0
  -19.6926  -25.6281   21.1265 H   0  0  0  0  0  0
  -19.6696  -27.3169   20.6725 H   0  0  0  0  0  0
  -17.4214  -26.6673   21.4034 H   0  0  0  0  0  0
  -18.0351  -26.0088   22.9035 H   0  0  0  0  0  0
  -19.7962  -30.7307   24.2218 H   0  0  0  0  0  0
  -17.5033  -31.6269   24.5167 H   0  0  0  0  0  0
  -15.5371  -30.2975   23.7679 H   0  0  0  0  0  0
  -15.8699  -28.0810   22.7092 H   0  0  0  0  0  0
  -24.5886  -30.7100   25.7695 H   0  0  0  0  0  0
  -24.8865  -32.2953   26.4718 H   0  0  0  0  0  0
  -25.7949  -30.8995   27.0218 H   0  0  0  0  0  0
  -26.3069  -29.6636   24.1344 H   0  0  0  0  0  0
  -27.3982  -29.7267   25.4971 H   0  0  0  0  0  0
  -27.8997  -30.4152   23.9732 H   0  0  0  0  0  0
  -27.2606  -33.3660   26.2018 H   0  0  0  0  0  0
  -28.3888  -32.6888   25.0369 H   0  0  0  0  0  0
  -28.0675  -31.8524   26.5484 H   0  0  0  0  0  0
  -28.2559  -38.0100   24.7542 H   0  0  0  0  0  0
  -28.1108  -36.2630   24.6239 H   0  0  0  0  0  0
  -27.2301  -37.1356   25.8862 H   0  0  0  0  0  0
  -20.9526  -29.8752   21.6732 H   0  0  0  0  0  0
  -26.0136  -38.2790   24.1440 H   0  0  0  0  0  0
  -33.1067  -19.8658   20.4872 H   0  0  0  0  0  0
  -32.4983  -17.4876   20.5138 H   0  0  0  0  0  0
  -31.5111  -21.6507   20.3788 H   0  0  0  0  0  0
  -27.4994  -18.5187   19.4815 H   0  0  0  0  0  0
  -27.4923  -18.5166   21.2427 H   0  0  0  0  0  0
  -28.0112  -16.2480   19.4368 H   0  0  0  0  0  0
  -27.8802  -16.1842   21.2023 H   0  0  0  0  0  0
  -27.0843  -24.2404   20.7602 H   0  0  0  0  0  0
  -27.5498  -24.2937   19.0887 H   0  0  0  0  0  0
  -27.8215  -21.5410   20.0950 H   0  0  0  0  0  0
  1 25  1  0  0  0
  1 30  2  0  0  0
  1 81  1  0  0  0
  2  3  1  0  0  0
  2 25  1  0  0  0
  2 84  1  0  0  0
  2 85  1  0  0  0
  3  4  1  0  0  0
  3 86  1  0  0  0
  3 87  1  0  0  0
  4  5  1  0  0  0
  4 88  1  0  0  0
  4 89  1  0  0  0
  5  6  1  0  0  0
  5 26  1  0  0  0
  5 90  1  0  0  0
  6 25  1  0  0  0
  6 91  1  0  0  0
  6 92  1  0  0  0
  7  8  2  0  0  0
  7 26  1  0  0  0
  7 29  1  0  0  0
  8  9  1  0  0  0
  8 22  1  0  0  0
  9 10  1  0  0  0
  9 27  2  0  0  0
 10 11  2  0  0  0
 10 15  1  0  0  0
 11 12  1  0  0  0
 11 93  1  0  0  0
 12 13  2  0  0  0
 12 94  1  0  0  0
 13 14  1  0  0  0
 13 31  1  0  0  0
 14 15  2  0  0  0
 14 95  1  0  0  0
 15 96  1  0  0  0
 16 17  2  0  0  0
 16 21  1  0  0  0
 16 31  1  0  0  0
 17 18  1  0  0  0
 17 97  1  0  0  0
 18 19  2  0  0  0
 18 98  1  0  0  0
 19 20  1  0  0  0
 19 24  1  0  0  0
 20 21  2  0  0  0
 20 99  1  0  0  0
 21 23  1  0  0  0
 22 28  1  0  0  0
 22 32  2  0  0  0
 26 27  1  0  0  0
 28100  1  0  0  0
 28101  1  0  0  0
 29102  1  0  0  0
 29103  1  0  0  0
 33 34  1  0  0  0
 33 66  1  0  0  0
 33 70  2  0  0  0
 34 36  1  0  0  0
 34 59  1  0  0  0
 34104  1  0  0  0
 35 44  2  0  0  0
 35 45  1  0  0  0
 35 68  1  0  0  0
 36 56  1  0  0  0
 36105  1  0  0  0
 37 39  1  0  0  0
 37 47  1  0  0  0
 37 66  1  0  0  0
 37106  1  0  0  0
 38 43  2  0  0  0
 38 46  1  0  0  0
 38 47  1  0  0  0
 39 64  1  0  0  0
 39 67  2  0  0  0
 40 52  1  0  0  0
 40 53  2  0  0  0
 40 58  1  0  0  0
 41107  1  0  0  0
 41108  1  0  0  0
 41109  1  0  0  0
 41 48  1  0  0  0
 42 43  1  0  0  0
 42 66  1  0  0  0
 42110  1  0  0  0
 42111  1  0  0  0
 43 44  1  0  0  0
 44112  1  0  0  0
 45 46  2  0  0  0
 45113  1  0  0  0
 46114  1  0  0  0
 47115  1  0  0  0
 47116  1  0  0  0
 48 56  1  0  0  0
 48 65  1  0  0  0
 48117  1  0  0  0
 49 50  1  0  0  0
 49 53  1  0  0  0
 49 64  1  0  0  0
 49118  1  0  0  0
 50 51  1  0  0  0
 50119  1  0  0  0
 50120  1  0  0  0
 51 52  1  0  0  0
 51121  1  0  0  0
 51122  1  0  0  0
 52123  1  0  0  0
 52124  1  0  0  0
 53 54  1  0  0  0
 54 55  2  0  0  0
 54125  1  0  0  0
 55 57  1  0  0  0
 55126  1  0  0  0
 56 69  2  0  0  0
 57 58  2  0  0  0
 57127  1  0  0  0
 58128  1  0  0  0
 59 60  1  0  0  0
 59 61  1  0  0  0
 59 62  1  0  0  0
 60129  1  0  0  0
 60130  1  0  0  0
 60131  1  0  0  0
 61132  1  0  0  0
 61133  1  0  0  0
 61134  1  0  0  0
 62135  1  0  0  0
 62136  1  0  0  0
 62137  1  0  0  0
 63 65  1  0  0  0
 63138  1  0  0  0
 63139  1  0  0  0
 63140  1  0  0  0
 64141  1  0  0  0
 65142  1  0  0  0
 68 80  1  0  0  0
 71 72  2  0  0  0
 71 73  1  0  0  0
 71143  1  0  0  0
 72 75  1  0  0  0
 72144  1  0  0  0
 73 76  2  0  0  0
 73145  1  0  0  0
 74 75  2  0  0  0
 74 76  1  0  0  0
 74 78  1  0  0  0
 75 81  1  0  0  0
 76 82  1  0  0  0
 77 80  1  0  0  0
 77 82  1  0  0  0
 77 83  2  0  0  0
 78 79  1  0  0  0
 78146  1  0  0  0
 78147  1  0  0  0
 79 81  1  0  0  0
 79148  1  0  0  0
 79149  1  0  0  0
 80150  1  0  0  0
 80151  1  0  0  0
 82152  1  0  0  0
M  ISO  4   1 100  68 101  80 101  81 100
M  END
> <chiral flag>
0

> <version>
0

> <s_m_source_file>
/data/baiqing/PycharmProjects/Reinvent-master-3.2/result/LINK_invent/BTK/process_docking_weight1_custom_product_contain_oxygen_bond_distance_aromatic_linkinvent_7_9_3/rearranged_h_0024.sdf

> <i_m_source_file_index>
6

> <r_mmod_Potential_Energy-OPLS-2005>
906.309631347656

> <r_mmod_Stretch_Energy-OPLS-2005>
355.54931640625

> <r_mmod_Bend_Energy-OPLS-2005>
358.983551025391

> <r_mmod_Torsional_Energy-OPLS-2005>
280.027435302734

> <r_mmod_Improper_Torsional_Energy-OPLS-2005>
4.84959554672241

> <r_mmod_Van_der_Waal_Energy-OPLS-2005>
129.999237060547

> <r_mmod_Electrostatic_Energy-OPLS-2005>
-292.823120117188

> <r_mmod_Solvation_Energy-OPLS-2005>
-232.487548828125

> <b_mmod_Minimization_Converged-OPLS-2005>
0

> <r_mmod_RMS_Derivative-OPLS-2005>
0.471343755722046

$$$$
6
                    3D
 Structure written by MMmdl.
156165  0  0  1  0            999 V2000
  -30.4659  -15.0444   20.3977 C   0  0  0  0  0  0
  -30.4484  -12.6525   19.4831 C   0  0  0  0  0  0
  -29.5314  -12.5441   18.2442 C   0  0  0  0  0  0
  -28.0619  -12.3240   18.6555 C   0  0  0  0  0  0
  -27.6225  -13.2488   19.8200 C   0  0  2  0  0  0
  -28.6687  -13.2880   20.9476 C   0  0  0  0  0  0
  -25.2459  -13.8214   20.5693 C   0  0  0  0  0  0
  -24.1789  -13.0437   20.9255 C   0  0  0  0  0  0
  -24.6404  -11.6912   20.8733 C   0  0  0  0  0  0
  -23.9069  -10.4287   21.0360 C   0  0  0  0  0  0
  -24.3610   -9.4207   21.9146 C   0  0  0  0  0  0
  -23.6280   -8.2239   22.0716 C   0  0  0  0  0  0
  -22.4275   -8.0265   21.3523 C   0  0  0  0  0  0
  -21.9901   -9.0247   20.4641 C   0  0  0  0  0  0
  -22.7229  -10.2126   20.3038 C   0  0  0  0  0  0
  -21.6870   -6.0742   22.5286 C   0  0  0  0  0  0
  -21.4020   -6.5634   23.8222 C   0  0  0  0  0  0
  -21.3671   -5.6772   24.9180 C   0  0  0  0  0  0
  -21.6040   -4.3030   24.7224 C   0  0  0  0  0  0
  -21.8818   -3.8137   23.4348 C   0  0  0  0  0  0
  -21.9205   -4.6959   22.3399 C   0  0  0  0  0  0
  -22.7816  -13.5239   21.1889 C   0  0  0  0  0  0
  -22.1659   -4.2149   21.0971 F   0  0  0  0  0  0
  -21.5637   -3.4502   25.7732 F   0  0  0  0  0  0
  -29.9169  -13.7563   20.3314 N   0  0  0  0  0  0
  -26.2860  -12.9427   20.3154 N   0  0  0  0  0  0
  -25.9326  -11.6571   20.5665 N   0  0  0  0  0  0
  -22.0432  -12.8275   22.0462 N   0  0  0  0  0  0
  -25.4119  -15.1942   20.4152 N   0  0  0  0  0  0
  -31.6953  -15.1180   20.2705 O   0  0  0  0  0  0
  -21.6644   -6.8855   21.4226 O   0  0  0  0  0  0
  -22.3532  -14.5531   20.6685 O   0  0  0  0  0  0
  -24.6511  -31.8369   23.1785 C   0  0  0  0  0  0
  -25.9250  -32.4660   23.8213 C   0  0  1  0  0  0
  -27.2135  -27.0617   20.1428 C   0  0  0  0  0  0
  -25.5979  -33.8474   24.2138 N   0  0  0  0  0  0
  -23.4556  -30.4539   21.5275 C   0  0  2  0  0  0
  -24.9012  -28.8564   20.1177 C   0  0  0  0  0  0
  -22.7602  -29.4532   22.4825 C   0  0  0  0  0  0
  -18.0320  -28.1392   22.8472 C   0  0  0  0  0  0
  -24.1497  -36.7234   23.2632 C   0  0  0  0  0  0
  -26.0170  -30.6864   21.3844 C   0  0  0  0  0  0
  -26.0851  -29.2861   20.7310 C   0  0  0  0  0  0
  -27.2428  -28.4092   20.7150 C   0  0  0  0  0  0
  -25.9959  -26.7356   19.5123 C   0  0  0  0  0  0
  -24.8712  -27.5962   19.4970 C   0  0  0  0  0  0
  -23.6853  -29.7744   20.1515 C   0  0  0  0  0  0
  -25.4142  -36.3018   24.0298 C   0  0  1  0  0  0
  -20.5935  -28.3740   23.1221 C   0  0  2  0  0  0
  -20.6813  -26.9432   22.5416 C   0  0  0  0  0  0
  -19.5784  -26.6370   21.5224 C   0  0  0  0  0  0
  -18.1958  -26.7934   22.1623 C   0  0  0  0  0  0
  -19.1571  -28.8879   23.2838 C   0  0  0  0  0  0
  -18.9480  -30.1474   23.8869 C   0  0  0  0  0  0
  -17.6473  -30.6584   24.0542 C   0  0  0  0  0  0
  -25.9097  -34.9399   23.5032 C   0  0  0  0  0  0
  -16.5370  -29.9075   23.6315 C   0  0  0  0  0  0
  -16.7302  -28.6490   23.0339 C   0  0  0  0  0  0
  -26.4541  -31.6544   25.0671 C   0  0  0  0  0  0
  -25.3705  -31.3756   26.1337 C   0  0  0  0  0  0
  -27.0397  -30.2936   24.6286 C   0  0  0  0  0  0
  -27.6077  -32.4283   25.7474 C   0  0  0  0  0  0
  -27.5586  -37.1781   24.8458 C   0  0  0  0  0  0
  -21.4284  -29.3053   22.3578 N   0  0  0  0  0  0
  -26.4281  -37.3751   23.9412 N   0  0  0  0  0  0
  -24.7287  -31.0172   22.0855 N   0  0  0  0  0  0
  -23.4238  -28.8094   23.2985 O   0  0  0  0  0  0
  -28.2943  -26.0939   20.0554 O   0  0  0  0  0  0
  -26.5679  -34.8900   22.4610 O   0  0  0  0  0  0
  -23.5623  -32.1297   23.6977 O   0  0  0  0  0  0
  -29.4834  -19.0041   20.0045 C   0  0  0  0  0  0
  -28.3245  -18.9943   22.4838 C   0  0  0  0  0  0
  -28.9834  -20.3446   20.5184 C   0  0  0  0  0  0
  -29.4289  -17.6639   20.7039 C   0  0  0  0  0  0
  -28.3679  -20.2267   21.7918 C   0  0  0  0  0  0
  -28.8380  -17.7723   21.9864 C   0  0  0  0  0  0
  -29.8024  -22.8956   17.9547 C   0  0  0  0  0  0
  -28.3361  -23.2152   18.2537 C   0  0  0  0  0  0
  -30.2546  -21.9155   19.0455 C   0  0  0  0  0  0
  -28.1972  -23.0247   19.7633 C   0  0  2  0  0  0
  -28.3346  -24.5716   20.5267 C   0  0  0  0  0  0
  -29.1302  -21.7449   19.9608 N   0  0  0  0  0  0
  -29.6222  -16.1957   20.1922 N   0  0  0  0  0  0
  -27.7159  -21.6137   22.5997 Cl  0  0  0  0  0  0
  -28.6568  -16.3815   22.9969 Cl  0  0  0  0  0  0
  -31.4768  -12.8459   19.1764 H   0  0  0  0  0  0
  -30.4689  -11.7069   20.0312 H   0  0  0  0  0  0
  -29.8719  -11.7240   17.6120 H   0  0  0  0  0  0
  -29.6126  -13.4524   17.6445 H   0  0  0  0  0  0
  -27.9523  -11.2808   18.9554 H   0  0  0  0  0  0
  -27.4106  -12.4594   17.7919 H   0  0  0  0  0  0
  -27.5738  -14.2502   19.3875 H   0  0  0  0  0  0
  -28.7917  -12.3066   21.4105 H   0  0  0  0  0  0
  -28.3478  -13.9643   21.7396 H   0  0  0  0  0  0
  -25.2729   -9.5723   22.4761 H   0  0  0  0  0  0
  -24.0024   -7.4643   22.7427 H   0  0  0  0  0  0
  -21.0837   -8.8745   19.8972 H   0  0  0  0  0  0
  -22.3622  -10.9666   19.6187 H   0  0  0  0  0  0
  -21.1980   -7.6139   23.9725 H   0  0  0  0  0  0
  -21.1513   -6.0493   25.9084 H   0  0  0  0  0  0
  -22.0591   -2.7591   23.2831 H   0  0  0  0  0  0
  -22.4001  -12.0002   22.5002 H   0  0  0  0  0  0
  -21.1031  -13.1309   22.2540 H   0  0  0  0  0  0
  -24.6334  -15.8321   20.5348 H   0  0  0  0  0  0
  -26.2552  -15.6523   20.0988 H   0  0  0  0  0  0
  -26.7311  -32.5249   23.0931 H   0  0  0  0  0  0
  -25.0131  -33.9597   25.0287 H   0  0  0  0  0  0
  -22.7633  -31.2824   21.3648 H   0  0  0  0  0  0
  -23.3789  -35.9533   23.3267 H   0  0  0  0  0  0
  -24.3561  -36.8903   22.2049 H   0  0  0  0  0  0
  -23.7216  -37.6401   23.6692 H   0  0  0  0  0  0
  -26.1792  -31.4358   20.6084 H   0  0  0  0  0  0
  -26.8857  -30.7438   22.0290 H   0  0  0  0  0  0
  -28.1581  -28.7463   21.1810 H   0  0  0  0  0  0
  -25.9125  -25.7800   19.0135 H   0  0  0  0  0  0
  -23.9633  -27.2655   19.0077 H   0  0  0  0  0  0
  -23.8361  -30.5421   19.3919 H   0  0  0  0  0  0
  -22.7973  -29.2249   19.8346 H   0  0  0  0  0  0
  -25.1347  -36.1820   25.0788 H   0  0  0  0  0  0
  -21.0041  -28.3318   24.1330 H   0  0  0  0  0  0
  -20.5704  -26.2351   23.3641 H   0  0  0  0  0  0
  -21.6673  -26.7425   22.1195 H   0  0  0  0  0  0
  -19.6950  -25.6262   21.1277 H   0  0  0  0  0  0
  -19.6715  -27.3158   20.6731 H   0  0  0  0  0  0
  -17.4240  -26.6657   21.4011 H   0  0  0  0  0  0
  -18.0348  -26.0078   22.9021 H   0  0  0  0  0  0
  -19.7956  -30.7283   24.2239 H   0  0  0  0  0  0
  -17.5027  -31.6266   24.5141 H   0  0  0  0  0  0
  -15.5367  -30.2968   23.7656 H   0  0  0  0  0  0
  -15.8702  -28.0808   22.7074 H   0  0  0  0  0  0
  -24.5897  -30.7094   25.7644 H   0  0  0  0  0  0
  -24.8859  -32.2936   26.4681 H   0  0  0  0  0  0
  -25.7940  -30.8971   27.0175 H   0  0  0  0  0  0
  -26.3011  -29.6650   24.1296 H   0  0  0  0  0  0
  -27.4007  -29.7241   25.4861 H   0  0  0  0  0  0
  -27.8927  -30.4159   23.9606 H   0  0  0  0  0  0
  -27.2711  -33.3623   26.1997 H   0  0  0  0  0  0
  -28.3945  -32.6775   25.0336 H   0  0  0  0  0  0
  -28.0688  -31.8419   26.5441 H   0  0  0  0  0  0
  -28.2584  -38.0105   24.7549 H   0  0  0  0  0  0
  -28.1098  -36.2632   24.6232 H   0  0  0  0  0  0
  -27.2289  -37.1361   25.8853 H   0  0  0  0  0  0
  -20.9513  -29.8748   21.6726 H   0  0  0  0  0  0
  -26.0145  -38.2802   24.1450 H   0  0  0  0  0  0
  -29.9139  -18.9849   19.0168 H   0  0  0  0  0  0
  -27.8585  -18.9850   23.4582 H   0  0  0  0  0  0
  -30.4086  -23.8005   17.9970 H   0  0  0  0  0  0
  -29.9287  -22.4749   16.9580 H   0  0  0  0  0  0
  -27.7087  -22.4910   17.7305 H   0  0  0  0  0  0
  -28.0397  -24.2059   17.9094 H   0  0  0  0  0  0
  -31.1109  -22.3221   19.5887 H   0  0  0  0  0  0
  -30.5778  -20.9833   18.5835 H   0  0  0  0  0  0
  -27.1715  -22.6971   19.9434 H   0  0  0  0  0  0
  -29.3178  -24.5233   20.9901 H   0  0  0  0  0  0
  -27.6484  -24.5328   21.3749 H   0  0  0  0  0  0
  -28.7210  -15.8219   19.9450 H   0  0  0  0  0  0
  1 25  1  0  0  0
  1 30  2  0  0  0
  1 83  1  0  0  0
  2  3  1  0  0  0
  2 25  1  0  0  0
  2 86  1  0  0  0
  2 87  1  0  0  0
  3  4  1  0  0  0
  3 88  1  0  0  0
  3 89  1  0  0  0
  4  5  1  0  0  0
  4 90  1  0  0  0
  4 91  1  0  0  0
  5  6  1  0  0  0
  5 26  1  0  0  0
  5 92  1  0  0  0
  6 25  1  0  0  0
  6 93  1  0  0  0
  6 94  1  0  0  0
  7  8  2  0  0  0
  7 26  1  0  0  0
  7 29  1  0  0  0
  8  9  1  0  0  0
  8 22  1  0  0  0
  9 10  1  0  0  0
  9 27  2  0  0  0
 10 11  2  0  0  0
 10 15  1  0  0  0
 11 12  1  0  0  0
 11 95  1  0  0  0
 12 13  2  0  0  0
 12 96  1  0  0  0
 13 14  1  0  0  0
 13 31  1  0  0  0
 14 15  2  0  0  0
 14 97  1  0  0  0
 15 98  1  0  0  0
 16 17  2  0  0  0
 16 21  1  0  0  0
 16 31  1  0  0  0
 17 18  1  0  0  0
 17 99  1  0  0  0
 18 19  2  0  0  0
 18100  1  0  0  0
 19 20  1  0  0  0
 19 24  1  0  0  0
 20 21  2  0  0  0
 20101  1  0  0  0
 21 23  1  0  0  0
 22 28  1  0  0  0
 22 32  2  0  0  0
 26 27  1  0  0  0
 28102  1  0  0  0
 28103  1  0  0  0
 29104  1  0  0  0
 29105  1  0  0  0
 33 34  1  0  0  0
 33 66  1  0  0  0
 33 70  2  0  0  0
 34 36  1  0  0  0
 34 59  1  0  0  0
 34106  1  0  0  0
 35 44  2  0  0  0
 35 45  1  0  0  0
 35 68  1  0  0  0
 36 56  1  0  0  0
 36107  1  0  0  0
 37 39  1  0  0  0
 37 47  1  0  0  0
 37 66  1  0  0  0
 37108  1  0  0  0
 38 43  2  0  0  0
 38 46  1  0  0  0
 38 47  1  0  0  0
 39 64  1  0  0  0
 39 67  2  0  0  0
 40 52  1  0  0  0
 40 53  2  0  0  0
 40 58  1  0  0  0
 41109  1  0  0  0
 41110  1  0  0  0
 41111  1  0  0  0
 41 48  1  0  0  0
 42 43  1  0  0  0
 42 66  1  0  0  0
 42112  1  0  0  0
 42113  1  0  0  0
 43 44  1  0  0  0
 44114  1  0  0  0
 45 46  2  0  0  0
 45115  1  0  0  0
 46116  1  0  0  0
 47117  1  0  0  0
 47118  1  0  0  0
 48 56  1  0  0  0
 48 65  1  0  0  0
 48119  1  0  0  0
 49 50  1  0  0  0
 49 53  1  0  0  0
 49 64  1  0  0  0
 49120  1  0  0  0
 50 51  1  0  0  0
 50121  1  0  0  0
 50122  1  0  0  0
 51 52  1  0  0  0
 51123  1  0  0  0
 51124  1  0  0  0
 52125  1  0  0  0
 52126  1  0  0  0
 53 54  1  0  0  0
 54 55  2  0  0  0
 54127  1  0  0  0
 55 57  1  0  0  0
 55128  1  0  0  0
 56 69  2  0  0  0
 57 58  2  0  0  0
 57129  1  0  0  0
 58130  1  0  0  0
 59 60  1  0  0  0
 59 61  1  0  0  0
 59 62  1  0  0  0
 60131  1  0  0  0
 60132  1  0  0  0
 60133  1  0  0  0
 61134  1  0  0  0
 61135  1  0  0  0
 61136  1  0  0  0
 62137  1  0  0  0
 62138  1  0  0  0
 62139  1  0  0  0
 63 65  1  0  0  0
 63140  1  0  0  0
 63141  1  0  0  0
 63142  1  0  0  0
 64143  1  0  0  0
 65144  1  0  0  0
 68 81  1  0  0  0
 71 73  2  0  0  0
 71 74  1  0  0  0
 71145  1  0  0  0
 72 75  2  0  0  0
 72 76  1  0  0  0
 72146  1  0  0  0
 73 75  1  0  0  0
 73 82  1  0  0  0
 74 76  2  0  0  0
 74 83  1  0  0  0
 75 84  1  0  0  0
 76 85  1  0  0  0
 77 78  1  0  0  0
 77 79  1  0  0  0
 77147  1  0  0  0
 77148  1  0  0  0
 78 80  1  0  0  0
 78149  1  0  0  0
 78150  1  0  0  0
 79 82  1  0  0  0
 79151  1  0  0  0
 79152  1  0  0  0
 80 81  1  0  0  0
 80 82  1  0  0  0
 80153  1  0  0  0
 81154  1  0  0  0
 81155  1  0  0  0
 83156  1  0  0  0
M  ISO  4   1 100  68 101  81 101  83 100
M  END
> <chiral flag>
0

> <version>
0

> <s_m_source_file>
/data/baiqing/PycharmProjects/Reinvent-master-3.2/result/LINK_invent/BTK/process_docking_weight1_custom_product_contain_oxygen_bond_distance_aromatic_linkinvent_7_9_3/rearranged_h_0024.sdf

> <i_m_source_file_index>
7

> <r_mmod_Potential_Energy-OPLS-2005>
915.682189941406

> <r_mmod_Stretch_Energy-OPLS-2005>
347.036102294922

> <r_mmod_Bend_Energy-OPLS-2005>
403.272613525391

> <r_mmod_Torsional_Energy-OPLS-2005>
363.720825195312

> <r_mmod_Improper_Torsional_Energy-OPLS-2005>
17.9176387786865

> <r_mmod_Van_der_Waal_Energy-OPLS-2005>
118.486755371094

> <r_mmod_Electrostatic_Energy-OPLS-2005>
-370.646728515625

> <r_mmod_Solvation_Energy-OPLS-2005>
-222.128601074219

> <b_mmod_Minimization_Converged-OPLS-2005>
0

> <r_mmod_RMS_Derivative-OPLS-2005>
4.95266389846802

$$$$
7
                    3D
 Structure written by MMmdl.
148156  0  0  1  0            999 V2000
  -30.4754  -15.3619   20.3968 C   0  0  0  0  0  0
  -30.4217  -12.8945   19.5176 C   0  0  0  0  0  0
  -29.5281  -12.5998   18.2880 C   0  0  0  0  0  0
  -28.0845  -12.3069   18.7301 C   0  0  0  0  0  0
  -27.6018  -13.2926   19.8220 C   0  0  2  0  0  0
  -28.6401  -13.5402   20.9401 C   0  0  0  0  0  0
  -25.2340  -13.8310   20.5775 C   0  0  0  0  0  0
  -24.1699  -13.0445   20.9217 C   0  0  0  0  0  0
  -24.6385  -11.6962   20.8781 C   0  0  0  0  0  0
  -23.9097  -10.4306   21.0418 C   0  0  0  0  0  0
  -24.3646   -9.4227   21.9189 C   0  0  0  0  0  0
  -23.6335   -8.2257   22.0733 C   0  0  0  0  0  0
  -22.4312   -8.0281   21.3521 C   0  0  0  0  0  0
  -21.9958   -9.0242   20.4624 C   0  0  0  0  0  0
  -22.7279  -10.2128   20.3053 C   0  0  0  0  0  0
  -21.6858   -6.0751   22.5286 C   0  0  0  0  0  0
  -21.4034   -6.5634   23.8221 C   0  0  0  0  0  0
  -21.3669   -5.6765   24.9166 C   0  0  0  0  0  0
  -21.6047   -4.3036   24.7213 C   0  0  0  0  0  0
  -21.8847   -3.8152   23.4326 C   0  0  0  0  0  0
  -21.9199   -4.6986   22.3392 C   0  0  0  0  0  0
  -22.7702  -13.5180   21.1887 C   0  0  0  0  0  0
  -22.1690   -4.2186   21.0976 F   0  0  0  0  0  0
  -21.5601   -3.4510   25.7714 F   0  0  0  0  0  0
  -29.8437  -14.0772   20.2800 N   0  0  0  0  0  0
  -26.2796  -12.9601   20.3330 N   0  0  0  0  0  0
  -25.9344  -11.6686   20.5797 N   0  0  0  0  0  0
  -22.0393  -12.8149   22.0455 N   0  0  0  0  0  0
  -25.3966  -15.2039   20.4247 N   0  0  0  0  0  0
  -31.6971  -15.2469   20.2127 O   0  0  0  0  0  0
  -21.6646   -6.8898   21.4244 O   0  0  0  0  0  0
  -22.3351  -14.5472   20.6745 O   0  0  0  0  0  0
  -24.6689  -31.8174   23.1644 C   0  0  0  0  0  0
  -25.9360  -32.4546   23.8121 C   0  0  1  0  0  0
  -27.2075  -26.8511   20.1927 C   0  0  0  0  0  0
  -25.6009  -33.8370   24.2010 N   0  0  0  0  0  0
  -23.4854  -30.4284   21.5158 C   0  0  2  0  0  0
  -24.9367  -28.7985   20.1154 C   0  0  0  0  0  0
  -22.7679  -29.4433   22.4752 C   0  0  0  0  0  0
  -18.0332  -28.1423   22.8455 C   0  0  0  0  0  0
  -24.1500  -36.7180   23.2647 C   0  0  0  0  0  0
  -26.0591  -30.5968   21.4085 C   0  0  0  0  0  0
  -26.1246  -29.1798   20.7519 C   0  0  0  0  0  0
  -27.2543  -28.2304   20.7601 C   0  0  0  0  0  0
  -25.9892  -26.6406   19.5083 C   0  0  0  0  0  0
  -24.8983  -27.5507   19.4726 C   0  0  0  0  0  0
  -23.7290  -29.7385   20.1465 C   0  0  0  0  0  0
  -25.4142  -36.2923   24.0275 C   0  0  1  0  0  0
  -20.5954  -28.3780   23.1161 C   0  0  2  0  0  0
  -20.6815  -26.9460   22.5396 C   0  0  0  0  0  0
  -19.5789  -26.6379   21.5218 C   0  0  0  0  0  0
  -18.1965  -26.7954   22.1615 C   0  0  0  0  0  0
  -19.1591  -28.8923   23.2795 C   0  0  0  0  0  0
  -18.9505  -30.1509   23.8839 C   0  0  0  0  0  0
  -17.6499  -30.6612   24.0558 C   0  0  0  0  0  0
  -25.9114  -34.9320   23.4955 C   0  0  0  0  0  0
  -16.5389  -29.9096   23.6356 C   0  0  0  0  0  0
  -16.7314  -28.6517   23.0370 C   0  0  0  0  0  0
  -26.4587  -31.6522   25.0683 C   0  0  0  0  0  0
  -25.3688  -31.3820   26.1314 C   0  0  0  0  0  0
  -27.0512  -30.2870   24.6520 C   0  0  0  0  0  0
  -27.6029  -32.4376   25.7513 C   0  0  0  0  0  0
  -27.5558  -37.1746   24.8456 C   0  0  0  0  0  0
  -21.4347  -29.3059   22.3498 N   0  0  0  0  0  0
  -26.4267  -37.3672   23.9399 N   0  0  0  0  0  0
  -24.7599  -30.9758   22.0827 N   0  0  0  0  0  0
  -23.4178  -28.8025   23.3042 O   0  0  0  0  0  0
  -28.2002  -25.7103   20.2294 O   0  0  0  0  0  0
  -26.5733  -34.8873   22.4556 O   0  0  0  0  0  0
  -23.5741  -32.1198   23.6688 O   0  0  0  0  0  0
  -27.4123  -17.5245   17.9731 C   0  0  0  0  0  0
  -28.4092  -17.1011   18.8409 C   0  0  0  0  0  0
  -26.9039  -18.8026   18.1068 C   0  0  0  0  0  0
  -29.0281  -17.8934   19.8454 C   0  0  0  0  0  0
  -28.6025  -19.4675   19.8478 C   0  0  0  0  0  0
  -27.4461  -19.7128   19.0216 C   0  0  0  0  0  0
  -27.9458  -24.0389   20.3316 C   0  0  0  0  0  0
  -28.8694  -22.4568   20.0288 C   0  0  0  0  0  0
  -29.9269  -16.7640   20.5913 N   0  0  0  0  0  0
  -28.9458  -20.8256   20.5090 O   0  0  0  0  0  0
  -26.4592  -21.1297   19.1549 Cl  0  0  0  0  0  0
  -31.4352  -13.0909   19.1673 H   0  0  0  0  0  0
  -30.5051  -12.0163   20.1629 H   0  0  0  0  0  0
  -29.9266  -11.7613   17.7162 H   0  0  0  0  0  0
  -29.5385  -13.4598   17.6137 H   0  0  0  0  0  0
  -28.0600  -11.2922   19.1268 H   0  0  0  0  0  0
  -27.4095  -12.3210   17.8729 H   0  0  0  0  0  0
  -27.4883  -14.2406   19.2986 H   0  0  0  0  0  0
  -28.8516  -12.6349   21.5133 H   0  0  0  0  0  0
  -28.2673  -14.2773   21.6517 H   0  0  0  0  0  0
  -25.2760   -9.5708   22.4800 H   0  0  0  0  0  0
  -24.0049   -7.4647   22.7458 H   0  0  0  0  0  0
  -21.0890   -8.8740   19.8943 H   0  0  0  0  0  0
  -22.3733  -10.9670   19.6175 H   0  0  0  0  0  0
  -21.2065   -7.6150   23.9757 H   0  0  0  0  0  0
  -21.1440   -6.0477   25.9065 H   0  0  0  0  0  0
  -22.0634   -2.7620   23.2803 H   0  0  0  0  0  0
  -22.4001  -11.9830   22.4888 H   0  0  0  0  0  0
  -21.1025  -13.1206   22.2677 H   0  0  0  0  0  0
  -24.6095  -15.8423   20.4830 H   0  0  0  0  0  0
  -26.2641  -15.6683   20.1833 H   0  0  0  0  0  0
  -26.7428  -32.5045   23.0822 H   0  0  0  0  0  0
  -25.0111  -33.9459   25.0130 H   0  0  0  0  0  0
  -22.8033  -31.2618   21.3401 H   0  0  0  0  0  0
  -23.3771  -35.9501   23.3267 H   0  0  0  0  0  0
  -24.3556  -36.8890   22.2067 H   0  0  0  0  0  0
  -23.7260  -37.6349   23.6755 H   0  0  0  0  0  0
  -26.2554  -31.3377   20.6327 H   0  0  0  0  0  0
  -26.9115  -30.6491   22.0731 H   0  0  0  0  0  0
  -28.1537  -28.5265   21.2818 H   0  0  0  0  0  0
  -25.8479  -25.6953   19.0060 H   0  0  0  0  0  0
  -23.9967  -27.2513   18.9565 H   0  0  0  0  0  0
  -23.8974  -30.5055   19.3904 H   0  0  0  0  0  0
  -22.8352  -29.2044   19.8208 H   0  0  0  0  0  0
  -25.1356  -36.1685   25.0765 H   0  0  0  0  0  0
  -21.0048  -28.3420   24.1283 H   0  0  0  0  0  0
  -20.5720  -26.2416   23.3648 H   0  0  0  0  0  0
  -21.6675  -26.7457   22.1197 H   0  0  0  0  0  0
  -19.6967  -25.6274   21.1298 H   0  0  0  0  0  0
  -19.6734  -27.3143   20.6710 H   0  0  0  0  0  0
  -17.4243  -26.6698   21.4013 H   0  0  0  0  0  0
  -18.0367  -26.0115   22.9028 H   0  0  0  0  0  0
  -19.7987  -30.7340   24.2172 H   0  0  0  0  0  0
  -17.5061  -31.6286   24.5169 H   0  0  0  0  0  0
  -15.5391  -30.2979   23.7724 H   0  0  0  0  0  0
  -15.8712  -28.0816   22.7120 H   0  0  0  0  0  0
  -24.5862  -30.7192   25.7613 H   0  0  0  0  0  0
  -24.8908  -32.3056   26.4582 H   0  0  0  0  0  0
  -25.7888  -30.9067   27.0186 H   0  0  0  0  0  0
  -26.3216  -29.6494   24.1530 H   0  0  0  0  0  0
  -27.3991  -29.7292   25.5225 H   0  0  0  0  0  0
  -27.9169  -30.3994   23.9995 H   0  0  0  0  0  0
  -27.2536  -33.3703   26.1943 H   0  0  0  0  0  0
  -28.3930  -32.6912   25.0439 H   0  0  0  0  0  0
  -28.0610  -31.8632   26.5571 H   0  0  0  0  0  0
  -28.2539  -38.0074   24.7498 H   0  0  0  0  0  0
  -28.1096  -36.2598   24.6295 H   0  0  0  0  0  0
  -27.2273  -37.1380   25.8859 H   0  0  0  0  0  0
  -20.9618  -29.8690   21.6568 H   0  0  0  0  0  0
  -26.0098  -38.2717   24.1433 H   0  0  0  0  0  0
  -26.9886  -16.8376   17.2540 H   0  0  0  0  0  0
  -28.6695  -16.0664   18.6982 H   0  0  0  0  0  0
  -26.0514  -19.0902   17.5082 H   0  0  0  0  0  0
  -27.6392  -23.9379   21.3727 H   0  0  0  0  0  0
  -27.0185  -23.8968   19.7799 H   0  0  0  0  0  0
  -29.8675  -22.7589   20.3433 H   0  0  0  0  0  0
  -28.9653  -22.4049   18.9438 H   0  0  0  0  0  0
  -30.6205  -17.2467   21.1470 H   0  0  0  0  0  0
  1 25  1  0  0  0
  1 30  2  0  0  0
  1 79  1  0  0  0
  2  3  1  0  0  0
  2 25  1  0  0  0
  2 82  1  0  0  0
  2 83  1  0  0  0
  3  4  1  0  0  0
  3 84  1  0  0  0
  3 85  1  0  0  0
  4  5  1  0  0  0
  4 86  1  0  0  0
  4 87  1  0  0  0
  5  6  1  0  0  0
  5 26  1  0  0  0
  5 88  1  0  0  0
  6 25  1  0  0  0
  6 89  1  0  0  0
  6 90  1  0  0  0
  7  8  2  0  0  0
  7 26  1  0  0  0
  7 29  1  0  0  0
  8  9  1  0  0  0
  8 22  1  0  0  0
  9 10  1  0  0  0
  9 27  2  0  0  0
 10 11  2  0  0  0
 10 15  1  0  0  0
 11 12  1  0  0  0
 11 91  1  0  0  0
 12 13  2  0  0  0
 12 92  1  0  0  0
 13 14  1  0  0  0
 13 31  1  0  0  0
 14 15  2  0  0  0
 14 93  1  0  0  0
 15 94  1  0  0  0
 16 17  2  0  0  0
 16 21  1  0  0  0
 16 31  1  0  0  0
 17 18  1  0  0  0
 17 95  1  0  0  0
 18 19  2  0  0  0
 18 96  1  0  0  0
 19 20  1  0  0  0
 19 24  1  0  0  0
 20 21  2  0  0  0
 20 97  1  0  0  0
 21 23  1  0  0  0
 22 28  1  0  0  0
 22 32  2  0  0  0
 26 27  1  0  0  0
 28 98  1  0  0  0
 28 99  1  0  0  0
 29100  1  0  0  0
 29101  1  0  0  0
 33 34  1  0  0  0
 33 66  1  0  0  0
 33 70  2  0  0  0
 34 36  1  0  0  0
 34 59  1  0  0  0
 34102  1  0  0  0
 35 44  2  0  0  0
 35 45  1  0  0  0
 35 68  1  0  0  0
 36 56  1  0  0  0
 36103  1  0  0  0
 37 39  1  0  0  0
 37 47  1  0  0  0
 37 66  1  0  0  0
 37104  1  0  0  0
 38 43  2  0  0  0
 38 46  1  0  0  0
 38 47  1  0  0  0
 39 64  1  0  0  0
 39 67  2  0  0  0
 40 52  1  0  0  0
 40 53  2  0  0  0
 40 58  1  0  0  0
 41105  1  0  0  0
 41106  1  0  0  0
 41107  1  0  0  0
 41 48  1  0  0  0
 42 43  1  0  0  0
 42 66  1  0  0  0
 42108  1  0  0  0
 42109  1  0  0  0
 43 44  1  0  0  0
 44110  1  0  0  0
 45 46  2  0  0  0
 45111  1  0  0  0
 46112  1  0  0  0
 47113  1  0  0  0
 47114  1  0  0  0
 48 56  1  0  0  0
 48 65  1  0  0  0
 48115  1  0  0  0
 49 50  1  0  0  0
 49 53  1  0  0  0
 49 64  1  0  0  0
 49116  1  0  0  0
 50 51  1  0  0  0
 50117  1  0  0  0
 50118  1  0  0  0
 51 52  1  0  0  0
 51119  1  0  0  0
 51120  1  0  0  0
 52121  1  0  0  0
 52122  1  0  0  0
 53 54  1  0  0  0
 54 55  2  0  0  0
 54123  1  0  0  0
 55 57  1  0  0  0
 55124  1  0  0  0
 56 69  2  0  0  0
 57 58  2  0  0  0
 57125  1  0  0  0
 58126  1  0  0  0
 59 60  1  0  0  0
 59 61  1  0  0  0
 59 62  1  0  0  0
 60127  1  0  0  0
 60128  1  0  0  0
 60129  1  0  0  0
 61130  1  0  0  0
 61131  1  0  0  0
 61132  1  0  0  0
 62133  1  0  0  0
 62134  1  0  0  0
 62135  1  0  0  0
 63 65  1  0  0  0
 63136  1  0  0  0
 63137  1  0  0  0
 63138  1  0  0  0
 64139  1  0  0  0
 65140  1  0  0  0
 68 77  1  0  0  0
 71 72  2  0  0  0
 71 73  1  0  0  0
 71141  1  0  0  0
 72 74  1  0  0  0
 72142  1  0  0  0
 73 76  2  0  0  0
 73143  1  0  0  0
 74 75  2  0  0  0
 74 79  1  0  0  0
 75 76  1  0  0  0
 75 80  1  0  0  0
 76 81  1  0  0  0
 77 78  1  0  0  0
 77144  1  0  0  0
 77145  1  0  0  0
 78 80  1  0  0  0
 78146  1  0  0  0
 78147  1  0  0  0
 79148  1  0  0  0
M  ISO  4   1 100  68 101  77 101  79 100
M  END
> <chiral flag>
0

> <version>
0

> <s_m_source_file>
/data/baiqing/PycharmProjects/Reinvent-master-3.2/result/LINK_invent/BTK/process_docking_weight1_custom_product_contain_oxygen_bond_distance_aromatic_linkinvent_7_9_3/rearranged_h_0024.sdf

> <i_m_source_file_index>
8

> <r_mmod_Potential_Energy-OPLS-2005>
1873.57568359375

> <r_mmod_Stretch_Energy-OPLS-2005>
795.097839355469

> <r_mmod_Bend_Energy-OPLS-2005>
662.520385742188

> <r_mmod_Torsional_Energy-OPLS-2005>
274.139129638672

> <r_mmod_Improper_Torsional_Energy-OPLS-2005>
5.21575450897217

> <r_mmod_Van_der_Waal_Energy-OPLS-2005>
142.660507202148

> <r_mmod_Electrostatic_Energy-OPLS-2005>
-364.489807128906

> <r_mmod_Solvation_Energy-OPLS-2005>
-204.706008911133

> <b_mmod_Minimization_Converged-OPLS-2005>
0

> <r_mmod_RMS_Derivative-OPLS-2005>
3.58673691749573

$$$$
8
                    3D
 Structure written by MMmdl.
160169  0  0  1  0            999 V2000
  -30.6001  -14.7110   20.4642 C   0  0  0  0  0  0
  -30.4562  -12.4320   19.4732 C   0  0  0  0  0  0
  -29.5255  -12.5148   18.2407 C   0  0  0  0  0  0
  -28.0504  -12.3384   18.6531 C   0  0  0  0  0  0
  -27.6610  -13.2199   19.8700 C   0  0  2  0  0  0
  -28.7047  -13.1072   21.0022 C   0  0  0  0  0  0
  -25.2608  -13.8192   20.5651 C   0  0  0  0  0  0
  -24.1872  -13.0494   20.9217 C   0  0  0  0  0  0
  -24.6437  -11.6936   20.8788 C   0  0  0  0  0  0
  -23.9080  -10.4329   21.0436 C   0  0  0  0  0  0
  -24.3632   -9.4244   21.9174 C   0  0  0  0  0  0
  -23.6316   -8.2281   22.0736 C   0  0  0  0  0  0
  -22.4273   -8.0322   21.3564 C   0  0  0  0  0  0
  -21.9944   -9.0292   20.4646 C   0  0  0  0  0  0
  -22.7281  -10.2167   20.3061 C   0  0  0  0  0  0
  -21.6874   -6.0755   22.5285 C   0  0  0  0  0  0
  -21.4025   -6.5639   23.8233 C   0  0  0  0  0  0
  -21.3656   -5.6771   24.9175 C   0  0  0  0  0  0
  -21.6044   -4.3044   24.7193 C   0  0  0  0  0  0
  -21.8821   -3.8152   23.4309 C   0  0  0  0  0  0
  -21.9216   -4.6982   22.3383 C   0  0  0  0  0  0
  -22.7886  -13.5301   21.1834 C   0  0  0  0  0  0
  -22.1663   -4.2164   21.0956 F   0  0  0  0  0  0
  -21.5656   -3.4518   25.7708 F   0  0  0  0  0  0
  -30.0148  -13.4640   20.4361 N   0  0  0  0  0  0
  -26.3047  -12.9372   20.3352 N   0  0  0  0  0  0
  -25.9387  -11.6525   20.5864 N   0  0  0  0  0  0
  -22.0464  -12.8324   22.0373 N   0  0  0  0  0  0
  -25.4330  -15.1921   20.3981 N   0  0  0  0  0  0
  -31.7407  -14.8871   20.0304 O   0  0  0  0  0  0
  -21.6665   -6.8901   21.4245 O   0  0  0  0  0  0
  -22.3568  -14.5555   20.6627 O   0  0  0  0  0  0
  -24.6197  -31.8583   23.2016 C   0  0  0  0  0  0
  -25.8991  -32.4804   23.8366 C   0  0  1  0  0  0
  -27.2420  -27.3326   20.1499 C   0  0  0  0  0  0
  -25.5768  -33.8606   24.2240 N   0  0  0  0  0  0
  -23.4166  -30.4753   21.5453 C   0  0  2  0  0  0
  -24.8688  -28.9193   20.1260 C   0  0  0  0  0  0
  -22.7466  -29.4608   22.4986 C   0  0  0  0  0  0
  -18.0278  -28.1404   22.8470 C   0  0  0  0  0  0
  -24.1460  -36.7354   23.2651 C   0  0  0  0  0  0
  -25.9564  -30.8005   21.3697 C   0  0  0  0  0  0
  -26.0349  -29.4253   20.7133 C   0  0  0  0  0  0
  -27.2289  -28.6482   20.7029 C   0  0  0  0  0  0
  -26.0568  -26.8690   19.5405 C   0  0  0  0  0  0
  -24.8795  -27.6433   19.5312 C   0  0  0  0  0  0
  -23.6310  -29.7911   20.1678 C   0  0  0  0  0  0
  -25.4081  -36.3111   24.0332 C   0  0  1  0  0  0
  -20.5872  -28.3672   23.1328 C   0  0  2  0  0  0
  -20.6751  -26.9395   22.5441 C   0  0  0  0  0  0
  -19.5736  -26.6370   21.5231 C   0  0  0  0  0  0
  -18.1911  -26.7953   22.1627 C   0  0  0  0  0  0
  -19.1536  -28.8854   23.2902 C   0  0  0  0  0  0
  -18.9472  -30.1462   23.8914 C   0  0  0  0  0  0
  -17.6460  -30.6596   24.0549 C   0  0  0  0  0  0
  -25.9012  -34.9471   23.5128 C   0  0  0  0  0  0
  -16.5352  -29.9098   23.6306 C   0  0  0  0  0  0
  -16.7250  -28.6520   23.0323 C   0  0  0  0  0  0
  -26.4330  -31.6689   25.0784 C   0  0  0  0  0  0
  -25.3550  -31.3938   26.1532 C   0  0  0  0  0  0
  -27.0129  -30.3092   24.6294 C   0  0  0  0  0  0
  -27.5838  -32.4485   25.7553 C   0  0  0  0  0  0
  -27.5579  -37.1809   24.8422 C   0  0  0  0  0  0
  -21.4177  -29.3037   22.3738 N   0  0  0  0  0  0
  -26.4247  -37.3813   23.9429 N   0  0  0  0  0  0
  -24.6828  -31.0614   22.0948 N   0  0  0  0  0  0
  -23.4205  -28.8181   23.3076 O   0  0  0  0  0  0
  -28.3925  -26.5363   20.1494 O   0  0  0  0  0  0
  -26.5665  -34.8913   22.4738 O   0  0  0  0  0  0
  -23.5346  -32.1338   23.7341 O   0  0  0  0  0  0
  -28.8878  -19.4119   21.4173 C   0  0  0  0  0  0
  -29.1664  -18.0289   21.6319 C   0  0  0  0  0  0
  -30.0394  -17.8415   19.4058 C   0  0  0  0  0  0
  -29.1547  -20.0589   20.1849 C   0  0  0  0  0  0
  -29.7387  -17.1904   20.6386 C   0  0  0  0  0  0
  -29.7479  -19.2334   19.1806 C   0  0  0  0  0  0
  -29.3635  -23.6337   22.4295 C   0  0  0  0  0  0
  -29.0807  -25.0763   21.9638 C   0  0  0  0  0  0
  -30.2157  -22.8606   21.3975 C   0  0  0  0  0  0
  -29.0000  -24.0940   19.5770 C   0  0  0  0  0  0
  -28.3466  -25.1242   20.6021 C   0  0  2  0  0  0
  -28.6255  -21.5309   19.9234 C   0  0  0  0  0  0
  -29.8129  -15.7420   20.9136 N   0  0  0  0  0  0
  -29.5287  -22.7470   20.0861 N   0  3  2  0  0  0
  -30.0027  -19.7673   17.9623 F   0  0  0  0  0  0
  -31.4990  -12.5772   19.1769 H   0  0  0  0  0  0
  -30.4085  -11.4419   19.9342 H   0  0  0  0  0  0
  -29.8102  -11.7628   17.5057 H   0  0  0  0  0  0
  -29.6528  -13.4818   17.7536 H   0  0  0  0  0  0
  -27.8956  -11.2833   18.8926 H   0  0  0  0  0  0
  -27.3950  -12.5594   17.8108 H   0  0  0  0  0  0
  -27.6730  -14.2529   19.5209 H   0  0  0  0  0  0
  -28.7355  -12.0921   21.3978 H   0  0  0  0  0  0
  -28.4408  -13.7480   21.8457 H   0  0  0  0  0  0
  -25.2802   -9.5745   22.4715 H   0  0  0  0  0  0
  -24.0074   -7.4677   22.7434 H   0  0  0  0  0  0
  -21.0881   -8.8834   19.8934 H   0  0  0  0  0  0
  -22.3757  -10.9712   19.6179 H   0  0  0  0  0  0
  -21.1970   -7.6138   23.9744 H   0  0  0  0  0  0
  -21.1495   -6.0476   25.9085 H   0  0  0  0  0  0
  -22.0591   -2.7600   23.2815 H   0  0  0  0  0  0
  -22.4050  -12.0062   22.4925 H   0  0  0  0  0  0
  -21.1040  -13.1383   22.2399 H   0  0  0  0  0  0
  -24.6648  -15.8456   20.5006 H   0  0  0  0  0  0
  -26.2773  -15.6278   20.0466 H   0  0  0  0  0  0
  -26.7073  -32.5467   23.1134 H   0  0  0  0  0  0
  -24.9615  -33.9751   25.0173 H   0  0  0  0  0  0
  -22.7076  -31.2925   21.3932 H   0  0  0  0  0  0
  -23.3691  -35.9723   23.3257 H   0  0  0  0  0  0
  -24.3526  -36.9052   22.2076 H   0  0  0  0  0  0
  -23.7221  -37.6531   23.6726 H   0  0  0  0  0  0
  -26.1022  -31.5726   20.6139 H   0  0  0  0  0  0
  -26.8299  -30.8441   22.0086 H   0  0  0  0  0  0
  -28.1342  -29.0426   21.1481 H   0  0  0  0  0  0
  -26.0436  -25.8987   19.0620 H   0  0  0  0  0  0
  -23.9844  -27.2459   19.0710 H   0  0  0  0  0  0
  -23.7429  -30.5549   19.3989 H   0  0  0  0  0  0
  -22.7536  -29.2095   19.8714 H   0  0  0  0  0  0
  -25.1270  -36.1948   25.0826 H   0  0  0  0  0  0
  -20.9974  -28.3216   24.1451 H   0  0  0  0  0  0
  -20.5650  -26.2276   23.3642 H   0  0  0  0  0  0
  -21.6623  -26.7433   22.1251 H   0  0  0  0  0  0
  -19.6889  -25.6274   21.1290 H   0  0  0  0  0  0
  -19.6695  -27.3158   20.6749 H   0  0  0  0  0  0
  -17.4201  -26.6682   21.4013 H   0  0  0  0  0  0
  -18.0298  -26.0132   22.9057 H   0  0  0  0  0  0
  -19.7948  -30.7265   24.2314 H   0  0  0  0  0  0
  -17.5015  -31.6284   24.5148 H   0  0  0  0  0  0
  -15.5362  -30.3013   23.7612 H   0  0  0  0  0  0
  -15.8650  -28.0836   22.7034 H   0  0  0  0  0  0
  -24.5553  -30.7475   25.7910 H   0  0  0  0  0  0
  -24.8930  -32.3184   26.5012 H   0  0  0  0  0  0
  -25.7805  -30.9016   27.0283 H   0  0  0  0  0  0
  -26.2731  -29.6958   24.1135 H   0  0  0  0  0  0
  -27.3537  -29.7277   25.4860 H   0  0  0  0  0  0
  -27.8741  -30.4325   23.9720 H   0  0  0  0  0  0
  -27.2310  -33.3707   26.2192 H   0  0  0  0  0  0
  -28.3570  -32.7232   25.0379 H   0  0  0  0  0  0
  -28.0582  -31.8632   26.5431 H   0  0  0  0  0  0
  -28.2541  -38.0154   24.7511 H   0  0  0  0  0  0
  -28.1120  -36.2682   24.6164 H   0  0  0  0  0  0
  -27.2322  -37.1392   25.8825 H   0  0  0  0  0  0
  -20.9348  -29.8700   21.6897 H   0  0  0  0  0  0
  -26.0122  -38.2882   24.1458 H   0  0  0  0  0  0
  -28.4054  -19.9644   22.2087 H   0  0  0  0  0  0
  -28.8837  -17.6024   22.5832 H   0  0  0  0  0  0
  -30.4503  -17.2646   18.5895 H   0  0  0  0  0  0
  -28.4240  -23.1079   22.6163 H   0  0  0  0  0  0
  -29.8758  -23.6643   23.3928 H   0  0  0  0  0  0
  -30.0262  -25.6195   21.9080 H   0  0  0  0  0  0
  -28.4952  -25.5881   22.7305 H   0  0  0  0  0  0
  -30.5039  -21.8768   21.7695 H   0  0  0  0  0  0
  -31.1633  -23.3795   21.2451 H   0  0  0  0  0  0
  -29.8674  -24.5953   19.1476 H   0  0  0  0  0  0
  -28.3168  -23.9317   18.7441 H   0  0  0  0  0  0
  -27.3184  -24.8079   20.7896 H   0  0  0  0  0  0
  -27.7613  -21.6856   20.5712 H   0  0  0  0  0  0
  -28.2076  -21.5484   18.9114 H   0  0  0  0  0  0
  -29.0558  -15.4060   21.4850 H   0  0  0  0  0  0
  -30.2877  -22.5437   19.4471 H   0  0  0  0  0  0
  1 25  1  0  0  0
  1 30  2  0  0  0
  1 83  1  0  0  0
  2  3  1  0  0  0
  2 25  1  0  0  0
  2 86  1  0  0  0
  2 87  1  0  0  0
  3  4  1  0  0  0
  3 88  1  0  0  0
  3 89  1  0  0  0
  4  5  1  0  0  0
  4 90  1  0  0  0
  4 91  1  0  0  0
  5  6  1  0  0  0
  5 26  1  0  0  0
  5 92  1  0  0  0
  6 25  1  0  0  0
  6 93  1  0  0  0
  6 94  1  0  0  0
  7  8  2  0  0  0
  7 26  1  0  0  0
  7 29  1  0  0  0
  8  9  1  0  0  0
  8 22  1  0  0  0
  9 10  1  0  0  0
  9 27  2  0  0  0
 10 11  2  0  0  0
 10 15  1  0  0  0
 11 12  1  0  0  0
 11 95  1  0  0  0
 12 13  2  0  0  0
 12 96  1  0  0  0
 13 14  1  0  0  0
 13 31  1  0  0  0
 14 15  2  0  0  0
 14 97  1  0  0  0
 15 98  1  0  0  0
 16 17  2  0  0  0
 16 21  1  0  0  0
 16 31  1  0  0  0
 17 18  1  0  0  0
 17 99  1  0  0  0
 18 19  2  0  0  0
 18100  1  0  0  0
 19 20  1  0  0  0
 19 24  1  0  0  0
 20 21  2  0  0  0
 20101  1  0  0  0
 21 23  1  0  0  0
 22 28  1  0  0  0
 22 32  2  0  0  0
 26 27  1  0  0  0
 28102  1  0  0  0
 28103  1  0  0  0
 29104  1  0  0  0
 29105  1  0  0  0
 33 34  1  0  0  0
 33 66  1  0  0  0
 33 70  2  0  0  0
 34 36  1  0  0  0
 34 59  1  0  0  0
 34106  1  0  0  0
 35 44  2  0  0  0
 35 45  1  0  0  0
 35 68  1  0  0  0
 36 56  1  0  0  0
 36107  1  0  0  0
 37 39  1  0  0  0
 37 47  1  0  0  0
 37 66  1  0  0  0
 37108  1  0  0  0
 38 43  2  0  0  0
 38 46  1  0  0  0
 38 47  1  0  0  0
 39 64  1  0  0  0
 39 67  2  0  0  0
 40 52  1  0  0  0
 40 53  2  0  0  0
 40 58  1  0  0  0
 41109  1  0  0  0
 41110  1  0  0  0
 41111  1  0  0  0
 41 48  1  0  0  0
 42 43  1  0  0  0
 42 66  1  0  0  0
 42112  1  0  0  0
 42113  1  0  0  0
 43 44  1  0  0  0
 44114  1  0  0  0
 45 46  2  0  0  0
 45115  1  0  0  0
 46116  1  0  0  0
 47117  1  0  0  0
 47118  1  0  0  0
 48 56  1  0  0  0
 48 65  1  0  0  0
 48119  1  0  0  0
 49 50  1  0  0  0
 49 53  1  0  0  0
 49 64  1  0  0  0
 49120  1  0  0  0
 50 51  1  0  0  0
 50121  1  0  0  0
 50122  1  0  0  0
 51 52  1  0  0  0
 51123  1  0  0  0
 51124  1  0  0  0
 52125  1  0  0  0
 52126  1  0  0  0
 53 54  1  0  0  0
 54 55  2  0  0  0
 54127  1  0  0  0
 55 57  1  0  0  0
 55128  1  0  0  0
 56 69  2  0  0  0
 57 58  2  0  0  0
 57129  1  0  0  0
 58130  1  0  0  0
 59 60  1  0  0  0
 59 61  1  0  0  0
 59 62  1  0  0  0
 60131  1  0  0  0
 60132  1  0  0  0
 60133  1  0  0  0
 61134  1  0  0  0
 61135  1  0  0  0
 61136  1  0  0  0
 62137  1  0  0  0
 62138  1  0  0  0
 62139  1  0  0  0
 63 65  1  0  0  0
 63140  1  0  0  0
 63141  1  0  0  0
 63142  1  0  0  0
 64143  1  0  0  0
 65144  1  0  0  0
 68 81  1  0  0  0
 71 72  2  0  0  0
 71 74  1  0  0  0
 71145  1  0  0  0
 72 75  1  0  0  0
 72146  1  0  0  0
 73 75  2  0  0  0
 73 76  1  0  0  0
 73147  1  0  0  0
 74 76  2  0  0  0
 74 82  1  0  0  0
 75 83  1  0  0  0
 76 85  1  0  0  0
 77 78  1  0  0  0
 77 79  1  0  0  0
 77148  1  0  0  0
 77149  1  0  0  0
 78 81  1  0  0  0
 78150  1  0  0  0
 78151  1  0  0  0
 79 84  1  0  0  0
 79152  1  0  0  0
 79153  1  0  0  0
 80 81  1  0  0  0
 80 84  1  0  0  0
 80154  1  0  0  0
 80155  1  0  0  0
 81156  1  0  0  0
 82157  1  0  0  0
 82158  1  0  0  0
 82 84  1  0  0  0
 83159  1  0  0  0
 84160  1  0  0  0
M  CHG  1  84   1
M  ISO  4   1 100  68 101  81 101  83 100
M  END
> <chiral flag>
0

> <version>
0

> <s_m_source_file>
/data/baiqing/PycharmProjects/Reinvent-master-3.2/result/LINK_invent/BTK/process_docking_weight1_custom_product_contain_oxygen_bond_distance_aromatic_linkinvent_7_9_3/rearranged_h_0024.sdf

> <i_m_source_file_index>
9

> <r_mmod_Potential_Energy-OPLS-2005>
34.5538482666016

> <r_mmod_Stretch_Energy-OPLS-2005>
88.3059539794922

> <r_mmod_Bend_Energy-OPLS-2005>
156.271377563477

> <r_mmod_Torsional_Energy-OPLS-2005>
275.849822998047

> <r_mmod_Improper_Torsional_Energy-OPLS-2005>
4.5793719291687

> <r_mmod_Van_der_Waal_Energy-OPLS-2005>
132.687927246094

> <r_mmod_Electrostatic_Energy-OPLS-2005>
-254.446640014648

> <r_mmod_Solvation_Energy-OPLS-2005>
-427.877014160156

> <b_mmod_Minimization_Converged-OPLS-2005>
0

> <r_mmod_RMS_Derivative-OPLS-2005>
6.91035079956055

$$$$
9
                    3D
 Structure written by MMmdl.
158167  0  0  1  0            999 V2000
  -30.7317  -14.4367   20.6222 C   0  0  0  0  0  0
  -30.4190  -12.3078   19.4111 C   0  0  0  0  0  0
  -29.4889  -12.5112   18.1992 C   0  0  0  0  0  0
  -28.0126  -12.3666   18.6172 C   0  0  0  0  0  0
  -27.6610  -13.2063   19.8741 C   0  0  2  0  0  0
  -28.7012  -12.9818   20.9928 C   0  0  0  0  0  0
  -25.2592  -13.8167   20.5696 C   0  0  0  0  0  0
  -24.1836  -13.0447   20.9181 C   0  0  0  0  0  0
  -24.6384  -11.6912   20.8728 C   0  0  0  0  0  0
  -23.9055  -10.4293   21.0400 C   0  0  0  0  0  0
  -24.3611   -9.4209   21.9177 C   0  0  0  0  0  0
  -23.6287   -8.2247   22.0756 C   0  0  0  0  0  0
  -22.4267   -8.0282   21.3550 C   0  0  0  0  0  0
  -21.9903   -9.0250   20.4654 C   0  0  0  0  0  0
  -22.7229  -10.2128   20.3055 C   0  0  0  0  0  0
  -21.6853   -6.0729   22.5275 C   0  0  0  0  0  0
  -21.4013   -6.5636   23.8207 C   0  0  0  0  0  0
  -21.3664   -5.6791   24.9176 C   0  0  0  0  0  0
  -21.6049   -4.3050   24.7228 C   0  0  0  0  0  0
  -21.8819   -3.8142   23.4350 C   0  0  0  0  0  0
  -21.9193   -4.6958   22.3405 C   0  0  0  0  0  0
  -22.7860  -13.5244   21.1853 C   0  0  0  0  0  0
  -22.1666   -4.2143   21.0984 F   0  0  0  0  0  0
  -21.5629   -3.4538   25.7744 F   0  0  0  0  0  0
  -30.0336  -13.2838   20.4414 N   0  0  0  0  0  0
  -26.3018  -12.9334   20.3359 N   0  0  0  0  0  0
  -25.9312  -11.6493   20.5757 N   0  0  0  0  0  0
  -22.0494  -12.8230   22.0397 N   0  0  0  0  0  0
  -25.4351  -15.1885   20.4155 N   0  0  0  0  0  0
  -31.8379  -14.6384   20.1115 O   0  0  0  0  0  0
  -21.6640   -6.8871   21.4236 O   0  0  0  0  0  0
  -22.3547  -14.5554   20.6707 O   0  0  0  0  0  0
  -24.6134  -31.8681   23.2094 C   0  0  0  0  0  0
  -25.9027  -32.4826   23.8393 C   0  0  1  0  0  0
  -27.2374  -27.4415   20.1061 C   0  0  0  0  0  0
  -25.5893  -33.8626   24.2329 N   0  0  0  0  0  0
  -23.4013  -30.4898   21.5491 C   0  0  2  0  0  0
  -24.8500  -28.9517   20.1191 C   0  0  0  0  0  0
  -22.7389  -29.4674   22.5002 C   0  0  0  0  0  0
  -18.0278  -28.1374   22.8477 C   0  0  0  0  0  0
  -24.1492  -36.7323   23.2639 C   0  0  0  0  0  0
  -25.9276  -30.8363   21.3608 C   0  0  0  0  0  0
  -26.0073  -29.4682   20.7155 C   0  0  0  0  0  0
  -27.2059  -28.7196   20.7061 C   0  0  0  0  0  0
  -26.0685  -26.9352   19.5037 C   0  0  0  0  0  0
  -24.8749  -27.6835   19.5106 C   0  0  0  0  0  0
  -23.6098  -29.8166   20.1657 C   0  0  0  0  0  0
  -25.4111  -36.3113   24.0336 C   0  0  1  0  0  0
  -20.5858  -28.3674   23.1329 C   0  0  2  0  0  0
  -20.6783  -26.9415   22.5440 C   0  0  0  0  0  0
  -19.5785  -26.6395   21.5214 C   0  0  0  0  0  0
  -18.1946  -26.7926   22.1604 C   0  0  0  0  0  0
  -19.1518  -28.8836   23.2899 C   0  0  0  0  0  0
  -18.9437  -30.1437   23.8910 C   0  0  0  0  0  0
  -17.6442  -30.6579   24.0551 C   0  0  0  0  0  0
  -25.9034  -34.9480   23.5130 C   0  0  0  0  0  0
  -16.5337  -29.9070   23.6320 C   0  0  0  0  0  0
  -16.7266  -28.6491   23.0339 C   0  0  0  0  0  0
  -26.4465  -31.6603   25.0717 C   0  0  0  0  0  0
  -25.3735  -31.3703   26.1467 C   0  0  0  0  0  0
  -27.0293  -30.3048   24.6078 C   0  0  0  0  0  0
  -27.6047  -32.4316   25.7475 C   0  0  0  0  0  0
  -27.5580  -37.1817   24.8463 C   0  0  0  0  0  0
  -21.4117  -29.3046   22.3738 N   0  0  0  0  0  0
  -26.4298  -37.3794   23.9405 N   0  0  0  0  0  0
  -24.6654  -31.0786   22.0988 N   0  0  0  0  0  0
  -23.4155  -28.8220   23.3054 O   0  0  0  0  0  0
  -28.4046  -26.7161   20.0658 O   0  0  0  0  0  0
  -26.5602  -34.8929   22.4694 O   0  0  0  0  0  0
  -23.5328  -32.1424   23.7496 O   0  0  0  0  0  0
  -29.0434  -18.2645   20.6131 C   0  0  0  0  0  0
  -28.5166  -19.5604   20.4204 C   0  0  0  0  0  0
  -30.5335  -19.1405   22.3184 C   0  0  0  0  0  0
  -30.0663  -18.0398   21.5659 C   0  0  0  0  0  0
  -28.9944  -20.6659   21.1673 C   0  0  0  0  0  0
  -30.0041  -20.4371   22.1396 C   0  0  0  0  0  0
  -29.0474  -23.0842   20.5808 C   0  0  0  0  0  0
  -26.7450  -23.6609   20.8734 C   0  0  0  0  0  0
  -26.9614  -22.1422   20.9109 C   0  0  0  0  0  0
  -28.0667  -24.2433   20.3479 C   0  0  1  0  0  0
  -30.6947  -16.6581   21.8113 C   0  0  0  0  0  0
  -28.4813  -25.6076   20.9750 C   0  0  0  0  0  0
  -28.4069  -21.9565   20.9546 N   0  0  0  0  0  0
  -30.1138  -15.3888   21.3447 N   0  0  0  0  0  0
  -30.2635  -23.1986   20.3982 O   0  0  0  0  0  0
  -30.5719  -21.6909   23.1877 Cl  0  0  0  0  0  0
  -31.4625  -12.4059   19.1071 H   0  0  0  0  0  0
  -30.3198  -11.2948   19.8046 H   0  0  0  0  0  0
  -29.7293  -11.7909   17.4159 H   0  0  0  0  0  0
  -29.6542  -13.5000   17.7684 H   0  0  0  0  0  0
  -27.8266  -11.3103   18.8139 H   0  0  0  0  0  0
  -27.3585  -12.6385   17.7879 H   0  0  0  0  0  0
  -27.7083  -14.2554   19.5808 H   0  0  0  0  0  0
  -28.6751  -11.9447   21.3284 H   0  0  0  0  0  0
  -28.4560  -13.5751   21.8742 H   0  0  0  0  0  0
  -25.2759   -9.5686   22.4748 H   0  0  0  0  0  0
  -24.0002   -7.4639   22.7477 H   0  0  0  0  0  0
  -21.0836   -8.8762   19.8962 H   0  0  0  0  0  0
  -22.3686  -10.9661   19.6160 H   0  0  0  0  0  0
  -21.1996   -7.6141   23.9706 H   0  0  0  0  0  0
  -21.1495   -6.0526   25.9076 H   0  0  0  0  0  0
  -22.0593   -2.7605   23.2853 H   0  0  0  0  0  0
  -22.4096  -11.9886   22.4780 H   0  0  0  0  0  0
  -21.1113  -13.1252   22.2604 H   0  0  0  0  0  0
  -24.6759  -15.8504   20.5354 H   0  0  0  0  0  0
  -26.2991  -15.6254   20.1207 H   0  0  0  0  0  0
  -26.7091  -32.5548   23.1160 H   0  0  0  0  0  0
  -25.0029  -33.9787   25.0462 H   0  0  0  0  0  0
  -22.6906  -31.3063   21.4075 H   0  0  0  0  0  0
  -23.3745  -35.9666   23.3315 H   0  0  0  0  0  0
  -24.3579  -36.8918   22.2046 H   0  0  0  0  0  0
  -23.7256  -37.6539   23.6644 H   0  0  0  0  0  0
  -26.0357  -31.5992   20.5891 H   0  0  0  0  0  0
  -26.8171  -30.8958   21.9762 H   0  0  0  0  0  0
  -28.1040  -29.1178   21.1573 H   0  0  0  0  0  0
  -26.0847  -25.9706   19.0184 H   0  0  0  0  0  0
  -23.9855  -27.2814   19.0455 H   0  0  0  0  0  0
  -23.7151  -30.5892   19.4030 H   0  0  0  0  0  0
  -22.7361  -29.2314   19.8734 H   0  0  0  0  0  0
  -25.1290  -36.1981   25.0829 H   0  0  0  0  0  0
  -20.9934  -28.3247   24.1459 H   0  0  0  0  0  0
  -20.5656  -26.2297   23.3631 H   0  0  0  0  0  0
  -21.6682  -26.7453   22.1287 H   0  0  0  0  0  0
  -19.6957  -25.6308   21.1241 H   0  0  0  0  0  0
  -19.6746  -27.3182   20.6730 H   0  0  0  0  0  0
  -17.4215  -26.6666   21.4002 H   0  0  0  0  0  0
  -18.0355  -26.0061   22.8990 H   0  0  0  0  0  0
  -19.7913  -30.7245   24.2284 H   0  0  0  0  0  0
  -17.5001  -31.6271   24.5135 H   0  0  0  0  0  0
  -15.5339  -30.2972   23.7630 H   0  0  0  0  0  0
  -15.8670  -28.0804   22.7056 H   0  0  0  0  0  0
  -24.5901  -30.7063   25.7792 H   0  0  0  0  0  0
  -24.8943  -32.2861   26.4938 H   0  0  0  0  0  0
  -25.8084  -30.8842   27.0208 H   0  0  0  0  0  0
  -26.2821  -29.6817   24.1136 H   0  0  0  0  0  0
  -27.4072  -29.7274   25.4528 H   0  0  0  0  0  0
  -27.8662  -30.4376   23.9216 H   0  0  0  0  0  0
  -27.2665  -33.3594   26.2105 H   0  0  0  0  0  0
  -28.3830  -32.6903   25.0283 H   0  0  0  0  0  0
  -28.0754  -31.8409   26.5345 H   0  0  0  0  0  0
  -28.2616  -38.0098   24.7497 H   0  0  0  0  0  0
  -28.1057  -36.2628   24.6308 H   0  0  0  0  0  0
  -27.2298  -37.1494   25.8867 H   0  0  0  0  0  0
  -20.9257  -29.8729   21.6944 H   0  0  0  0  0  0
  -26.0190  -38.2880   24.1381 H   0  0  0  0  0  0
  -28.6666  -17.4444   20.0172 H   0  0  0  0  0  0
  -27.7433  -19.7002   19.6786 H   0  0  0  0  0  0
  -31.3015  -18.9869   23.0632 H   0  0  0  0  0  0
  -26.5318  -24.0213   21.8812 H   0  0  0  0  0  0
  -25.8939  -23.9279   20.2473 H   0  0  0  0  0  0
  -26.5618  -21.6796   20.0074 H   0  0  0  0  0  0
  -26.4725  -21.6849   21.7723 H   0  0  0  0  0  0
  -28.0065  -24.3507   19.2641 H   0  0  0  0  0  0
  -30.9975  -16.8950   20.7891 H   0  0  0  0  0  0
  -29.7985  -16.6665   22.4347 H   0  0  0  0  0  0
  -27.9079  -25.8185   21.8793 H   0  0  0  0  0  0
  -29.5188  -25.5663   21.3102 H   0  0  0  0  0  0
  -29.1985  -15.1559   21.6984 H   0  0  0  0  0  0
  1 25  1  0  0  0
  1 30  2  0  0  0
  1 84  1  0  0  0
  2  3  1  0  0  0
  2 25  1  0  0  0
  2 87  1  0  0  0
  2 88  1  0  0  0
  3  4  1  0  0  0
  3 89  1  0  0  0
  3 90  1  0  0  0
  4  5  1  0  0  0
  4 91  1  0  0  0
  4 92  1  0  0  0
  5  6  1  0  0  0
  5 26  1  0  0  0
  5 93  1  0  0  0
  6 25  1  0  0  0
  6 94  1  0  0  0
  6 95  1  0  0  0
  7  8  2  0  0  0
  7 26  1  0  0  0
  7 29  1  0  0  0
  8  9  1  0  0  0
  8 22  1  0  0  0
  9 10  1  0  0  0
  9 27  2  0  0  0
 10 11  2  0  0  0
 10 15  1  0  0  0
 11 12  1  0  0  0
 11 96  1  0  0  0
 12 13  2  0  0  0
 12 97  1  0  0  0
 13 14  1  0  0  0
 13 31  1  0  0  0
 14 15  2  0  0  0
 14 98  1  0  0  0
 15 99  1  0  0  0
 16 17  2  0  0  0
 16 21  1  0  0  0
 16 31  1  0  0  0
 17 18  1  0  0  0
 17100  1  0  0  0
 18 19  2  0  0  0
 18101  1  0  0  0
 19 20  1  0  0  0
 19 24  1  0  0  0
 20 21  2  0  0  0
 20102  1  0  0  0
 21 23  1  0  0  0
 22 28  1  0  0  0
 22 32  2  0  0  0
 26 27  1  0  0  0
 28103  1  0  0  0
 28104  1  0  0  0
 29105  1  0  0  0
 29106  1  0  0  0
 33 34  1  0  0  0
 33 66  1  0  0  0
 33 70  2  0  0  0
 34 36  1  0  0  0
 34 59  1  0  0  0
 34107  1  0  0  0
 35 44  2  0  0  0
 35 45  1  0  0  0
 35 68  1  0  0  0
 36 56  1  0  0  0
 36108  1  0  0  0
 37 39  1  0  0  0
 37 47  1  0  0  0
 37 66  1  0  0  0
 37109  1  0  0  0
 38 43  2  0  0  0
 38 46  1  0  0  0
 38 47  1  0  0  0
 39 64  1  0  0  0
 39 67  2  0  0  0
 40 52  1  0  0  0
 40 53  2  0  0  0
 40 58  1  0  0  0
 41110  1  0  0  0
 41111  1  0  0  0
 41112  1  0  0  0
 41 48  1  0  0  0
 42 43  1  0  0  0
 42 66  1  0  0  0
 42113  1  0  0  0
 42114  1  0  0  0
 43 44  1  0  0  0
 44115  1  0  0  0
 45 46  2  0  0  0
 45116  1  0  0  0
 46117  1  0  0  0
 47118  1  0  0  0
 47119  1  0  0  0
 48 56  1  0  0  0
 48 65  1  0  0  0
 48120  1  0  0  0
 49 50  1  0  0  0
 49 53  1  0  0  0
 49 64  1  0  0  0
 49121  1  0  0  0
 50 51  1  0  0  0
 50122  1  0  0  0
 50123  1  0  0  0
 51 52  1  0  0  0
 51124  1  0  0  0
 51125  1  0  0  0
 52126  1  0  0  0
 52127  1  0  0  0
 53 54  1  0  0  0
 54 55  2  0  0  0
 54128  1  0  0  0
 55 57  1  0  0  0
 55129  1  0  0  0
 56 69  2  0  0  0
 57 58  2  0  0  0
 57130  1  0  0  0
 58131  1  0  0  0
 59 60  1  0  0  0
 59 61  1  0  0  0
 59 62  1  0  0  0
 60132  1  0  0  0
 60133  1  0  0  0
 60134  1  0  0  0
 61135  1  0  0  0
 61136  1  0  0  0
 61137  1  0  0  0
 62138  1  0  0  0
 62139  1  0  0  0
 62140  1  0  0  0
 63 65  1  0  0  0
 63141  1  0  0  0
 63142  1  0  0  0
 63143  1  0  0  0
 64144  1  0  0  0
 65145  1  0  0  0
 68 82  1  0  0  0
 71 72  2  0  0  0
 71 74  1  0  0  0
 71146  1  0  0  0
 72 75  1  0  0  0
 72147  1  0  0  0
 73 74  2  0  0  0
 73 76  1  0  0  0
 73148  1  0  0  0
 74 81  1  0  0  0
 75 76  2  0  0  0
 75 83  1  0  0  0
 76 86  1  0  0  0
 77 80  1  0  0  0
 77 83  1  0  0  0
 77 85  2  0  0  0
 78 79  1  0  0  0
 78 80  1  0  0  0
 78149  1  0  0  0
 78150  1  0  0  0
 79 83  1  0  0  0
 79151  1  0  0  0
 79152  1  0  0  0
 80 82  1  0  0  0
 80153  1  0  0  0
 81 84  1  0  0  0
 81154  1  0  0  0
 81155  1  0  0  0
 82156  1  0  0  0
 82157  1  0  0  0
 84158  1  0  0  0
M  ISO  4   1 100  68 101  82 101  84 100
M  END
> <chiral flag>
0

> <version>
0

> <s_m_source_file>
/data/baiqing/PycharmProjects/Reinvent-master-3.2/result/LINK_invent/BTK/process_docking_weight1_custom_product_contain_oxygen_bond_distance_aromatic_linkinvent_7_9_3/rearranged_h_0024.sdf

> <i_m_source_file_index>
10

> <r_mmod_Potential_Energy-OPLS-2005>
192.156890869141

> <r_mmod_Stretch_Energy-OPLS-2005>
37.7019577026367

> <r_mmod_Bend_Energy-OPLS-2005>
323.811340332031

> <r_mmod_Torsional_Energy-OPLS-2005>
285.71826171875

> <r_mmod_Improper_Torsional_Energy-OPLS-2005>
2.60056853294373

> <r_mmod_Van_der_Waal_Energy-OPLS-2005>
152.565322875977

> <r_mmod_Electrostatic_Energy-OPLS-2005>
-391.888824462891

> <r_mmod_Solvation_Energy-OPLS-2005>
-227.978210449219

> <b_mmod_Minimization_Converged-OPLS-2005>
0

> <r_mmod_RMS_Derivative-OPLS-2005>
1.51997661590576

$$$$
10
                    3D
 Structure written by MMmdl.
190200  0  0  1  0            999 V2000
  -30.7043  -14.4128   20.6381 C   0  0  0  0  0  0
  -30.4218  -12.2927   19.4115 C   0  0  0  0  0  0
  -29.4961  -12.5179   18.1990 C   0  0  0  0  0  0
  -28.0137  -12.3795   18.5993 C   0  0  0  0  0  0
  -27.6605  -13.1956   19.8692 C   0  0  2  0  0  0
  -28.6910  -12.9275   20.9835 C   0  0  0  0  0  0
  -25.2577  -13.8135   20.5619 C   0  0  0  0  0  0
  -24.1831  -13.0423   20.9162 C   0  0  0  0  0  0
  -24.6371  -11.6891   20.8730 C   0  0  0  0  0  0
  -23.9036  -10.4285   21.0405 C   0  0  0  0  0  0
  -24.3593   -9.4203   21.9182 C   0  0  0  0  0  0
  -23.6269   -8.2243   22.0750 C   0  0  0  0  0  0
  -22.4262   -8.0271   21.3547 C   0  0  0  0  0  0
  -21.9892   -9.0251   20.4651 C   0  0  0  0  0  0
  -22.7214  -10.2132   20.3052 C   0  0  0  0  0  0
  -21.6862   -6.0711   22.5280 C   0  0  0  0  0  0
  -21.4015   -6.5613   23.8211 C   0  0  0  0  0  0
  -21.3666   -5.6766   24.9174 C   0  0  0  0  0  0
  -21.6065   -4.3034   24.7230 C   0  0  0  0  0  0
  -21.8813   -3.8122   23.4347 C   0  0  0  0  0  0
  -21.9181   -4.6938   22.3404 C   0  0  0  0  0  0
  -22.7847  -13.5251   21.1822 C   0  0  0  0  0  0
  -22.1649   -4.2110   21.0985 F   0  0  0  0  0  0
  -21.5640   -3.4517   25.7749 F   0  0  0  0  0  0
  -30.0290  -13.2452   20.4581 N   0  0  0  0  0  0
  -26.2995  -12.9278   20.3292 N   0  0  0  0  0  0
  -25.9282  -11.6453   20.5727 N   0  0  0  0  0  0
  -22.0449  -12.8299   22.0393 N   0  0  0  0  0  0
  -25.4318  -15.1828   20.3956 N   0  0  0  0  0  0
  -31.8006  -14.6383   20.1071 O   0  0  0  0  0  0
  -21.6644   -6.8852   21.4239 O   0  0  0  0  0  0
  -22.3563  -14.5572   20.6634 O   0  0  0  0  0  0
  -24.6059  -31.8712   23.2096 C   0  0  0  0  0  0
  -25.8958  -32.4810   23.8399 C   0  0  1  0  0  0
  -27.2290  -27.4610   20.1181 C   0  0  0  0  0  0
  -25.5819  -33.8618   24.2289 N   0  0  0  0  0  0
  -23.3961  -30.4928   21.5489 C   0  0  2  0  0  0
  -24.8446  -28.9603   20.1159 C   0  0  0  0  0  0
  -22.7394  -29.4665   22.4997 C   0  0  0  0  0  0
  -18.0267  -28.1397   22.8507 C   0  0  0  0  0  0
  -24.1514  -36.7340   23.2646 C   0  0  0  0  0  0
  -25.9188  -30.8509   21.3532 C   0  0  0  0  0  0
  -25.9989  -29.4830   20.7116 C   0  0  0  0  0  0
  -27.1961  -28.7405   20.7129 C   0  0  0  0  0  0
  -26.0727  -26.9528   19.4977 C   0  0  0  0  0  0
  -24.8737  -27.6943   19.5029 C   0  0  0  0  0  0
  -23.6012  -29.8194   20.1656 C   0  0  0  0  0  0
  -25.4146  -36.3120   24.0325 C   0  0  1  0  0  0
  -20.5856  -28.3669   23.1348 C   0  0  2  0  0  0
  -20.6740  -26.9418   22.5436 C   0  0  0  0  0  0
  -19.5715  -26.6418   21.5234 C   0  0  0  0  0  0
  -18.1902  -26.7946   22.1648 C   0  0  0  0  0  0
  -19.1518  -28.8843   23.2938 C   0  0  0  0  0  0
  -18.9465  -30.1446   23.8959 C   0  0  0  0  0  0
  -17.6463  -30.6599   24.0597 C   0  0  0  0  0  0
  -25.9055  -34.9464   23.5119 C   0  0  0  0  0  0
  -16.5345  -29.9128   23.6331 C   0  0  0  0  0  0
  -16.7258  -28.6543   23.0357 C   0  0  0  0  0  0
  -26.4376  -31.6578   25.0721 C   0  0  0  0  0  0
  -25.3592  -31.3522   26.1392 C   0  0  0  0  0  0
  -27.0335  -30.3077   24.6087 C   0  0  0  0  0  0
  -27.5855  -32.4377   25.7552 C   0  0  0  0  0  0
  -27.5649  -37.1812   24.8446 C   0  0  0  0  0  0
  -21.4128  -29.3037   22.3767 N   0  0  0  0  0  0
  -26.4331  -37.3827   23.9422 N   0  0  0  0  0  0
  -24.6594  -31.0854   22.0967 N   0  0  0  0  0  0
  -23.4197  -28.8209   23.3010 O   0  0  0  0  0  0
  -28.3627  -26.6914   20.1449 O   0  0  0  0  0  0
  -26.5659  -34.8896   22.4719 O   0  0  0  0  0  0
  -23.5252  -32.1417   23.7508 O   0  0  0  0  0  0
  -29.8075  -17.7170   24.0024 C   0  0  0  0  0  0
  -27.8033  -16.8092   22.9651 C   0  0  0  0  0  0
  -29.0651  -18.8198   24.4684 C   0  0  0  0  0  0
  -27.0651  -17.9218   23.4200 C   0  0  0  0  0  0
  -29.1871  -16.7145   23.2282 C   0  0  0  0  0  0
  -27.6925  -18.9471   24.1634 C   0  0  0  0  0  0
  -27.7484  -21.6566   26.3299 C   0  0  0  0  0  0
  -26.9498  -22.9383   26.0421 C   0  0  0  0  0  0
  -25.5108  -22.1025   24.0966 C   0  0  0  0  0  0
  -25.8549  -24.5815   24.4639 C   0  0  0  0  0  0
  -26.9921  -20.3586   26.0308 C   0  0  0  0  0  0
  -26.0140  -20.6942   23.6894 C   0  0  0  0  0  0
  -26.3442  -25.2430   23.1625 C   0  0  0  0  0  0
  -27.7449  -23.3700   23.6252 C   0  0  0  0  0  0
  -26.5313  -23.1897   24.5663 C   0  0  1  0  0  0
  -31.1559  -25.8758   20.5858 C   0  0  0  0  0  0
  -30.7248  -26.2542   23.0657 C   0  0  0  0  0  0
  -29.7889  -16.6379   20.4111 C   0  0  0  0  0  0
  -30.0281  -15.5708   22.6635 C   0  0  0  0  0  0
  -28.3605  -24.7244   21.5813 C   0  0  0  0  0  0
  -30.2429  -26.5445   21.6313 C   0  0  0  0  0  0
  -28.7347  -26.2350   21.4543 C   0  0  1  0  0  0
  -26.9818  -20.0846   24.5985 N   0  0  0  0  0  0
  -29.9861  -15.4099   21.1964 N   0  0  0  0  0  0
  -27.2976  -24.2834   22.5518 N   0  3  2  0  0  0
  -31.4642  -12.4056   19.1095 H   0  0  0  0  0  0
  -30.3338  -11.2717   19.7834 H   0  0  0  0  0  0
  -29.7375  -11.8081   17.4071 H   0  0  0  0  0  0
  -29.6716  -13.5107   17.7811 H   0  0  0  0  0  0
  -27.8098  -11.3223   18.7682 H   0  0  0  0  0  0
  -27.3731  -12.6784   17.7690 H   0  0  0  0  0  0
  -27.7209  -14.2498   19.6025 H   0  0  0  0  0  0
  -28.6620  -11.8798   21.2855 H   0  0  0  0  0  0
  -28.4196  -13.4879   21.8742 H   0  0  0  0  0  0
  -25.2713   -9.5687   22.4760 H   0  0  0  0  0  0
  -23.9957   -7.4641   22.7471 H   0  0  0  0  0  0
  -21.0823   -8.8779   19.8966 H   0  0  0  0  0  0
  -22.3661  -10.9671   19.6166 H   0  0  0  0  0  0
  -21.2017   -7.6117   23.9708 H   0  0  0  0  0  0
  -21.1503   -6.0500   25.9082 H   0  0  0  0  0  0
  -22.0594   -2.7576   23.2872 H   0  0  0  0  0  0
  -22.3993  -11.9972   22.4877 H   0  0  0  0  0  0
  -21.1051  -13.1363   22.2513 H   0  0  0  0  0  0
  -24.6590  -15.8344   20.4705 H   0  0  0  0  0  0
  -26.2834  -15.6152   20.0608 H   0  0  0  0  0  0
  -26.7062  -32.5521   23.1210 H   0  0  0  0  0  0
  -24.9772  -33.9807   25.0273 H   0  0  0  0  0  0
  -22.6826  -31.3091   21.4129 H   0  0  0  0  0  0
  -23.3761  -35.9703   23.3313 H   0  0  0  0  0  0
  -24.3594  -36.8955   22.2059 H   0  0  0  0  0  0
  -23.7281  -37.6554   23.6654 H   0  0  0  0  0  0
  -26.0144  -31.6116   20.5778 H   0  0  0  0  0  0
  -26.8137  -30.9130   21.9594 H   0  0  0  0  0  0
  -28.0838  -29.1456   21.1763 H   0  0  0  0  0  0
  -26.0930  -25.9777   19.0304 H   0  0  0  0  0  0
  -23.9909  -27.2852   19.0309 H   0  0  0  0  0  0
  -23.7042  -30.5910   19.4025 H   0  0  0  0  0  0
  -22.7259  -29.2337   19.8773 H   0  0  0  0  0  0
  -25.1329  -36.1988   25.0817 H   0  0  0  0  0  0
  -20.9977  -28.3243   24.1454 H   0  0  0  0  0  0
  -20.5633  -26.2280   23.3609 H   0  0  0  0  0  0
  -21.6628  -26.7451   22.1275 H   0  0  0  0  0  0
  -19.6892  -25.6352   21.1236 H   0  0  0  0  0  0
  -19.6675  -27.3248   20.6790 H   0  0  0  0  0  0
  -17.4187  -26.6695   21.4046 H   0  0  0  0  0  0
  -18.0340  -26.0085   22.9045 H   0  0  0  0  0  0
  -19.7936  -30.7258   24.2368 H   0  0  0  0  0  0
  -17.5019  -31.6285   24.5192 H   0  0  0  0  0  0
  -15.5345  -30.3055   23.7610 H   0  0  0  0  0  0
  -15.8660  -28.0872   22.7041 H   0  0  0  0  0  0
  -24.8664  -32.2597   26.4915 H   0  0  0  0  0  0
  -25.7879  -30.8584   27.0130 H   0  0  0  0  0  0
  -24.5828  -30.6900   25.7526 H   0  0  0  0  0  0
  -26.2880  -29.6633   24.1405 H   0  0  0  0  0  0
  -27.4477  -29.7531   25.4518 H   0  0  0  0  0  0
  -27.8496  -30.4454   23.8999 H   0  0  0  0  0  0
  -27.2323  -33.3600   26.2161 H   0  0  0  0  0  0
  -28.3593  -32.7083   25.0367 H   0  0  0  0  0  0
  -28.0588  -31.8568   26.5455 H   0  0  0  0  0  0
  -28.2645  -38.0136   24.7515 H   0  0  0  0  0  0
  -28.1170  -36.2653   24.6238 H   0  0  0  0  0  0
  -27.2344  -37.1437   25.8845 H   0  0  0  0  0  0
  -20.9283  -29.8768   21.7005 H   0  0  0  0  0  0
  -26.0226  -38.2915   24.1454 H   0  0  0  0  0  0
  -30.8647  -17.6570   24.2249 H   0  0  0  0  0  0
  -27.3069  -16.0411   22.3882 H   0  0  0  0  0  0
  -29.5698  -19.5868   25.0386 H   0  0  0  0  0  0
  -26.0097  -17.9697   23.1961 H   0  0  0  0  0  0
  -28.0055  -21.6528   27.3897 H   0  0  0  0  0  0
  -28.7010  -21.6696   25.7989 H   0  0  0  0  0  0
  -27.5592  -23.7736   26.3891 H   0  0  0  0  0  0
  -26.0622  -22.9479   26.6773 H   0  0  0  0  0  0
  -24.7577  -21.9806   24.8774 H   0  0  0  0  0  0
  -24.9487  -22.4774   23.2391 H   0  0  0  0  0  0
  -24.7673  -24.5236   24.5014 H   0  0  0  0  0  0
  -26.1401  -25.2188   25.3036 H   0  0  0  0  0  0
  -25.9733  -20.4086   26.4187 H   0  0  0  0  0  0
  -27.4673  -19.5338   26.5678 H   0  0  0  0  0  0
  -26.4668  -20.7456   22.6981 H   0  0  0  0  0  0
  -25.1477  -20.0366   23.5874 H   0  0  0  0  0  0
  -26.7774  -26.2001   23.4448 H   0  0  0  0  0  0
  -25.5190  -25.4400   22.4760 H   0  0  0  0  0  0
  -28.1268  -22.4276   23.2329 H   0  0  0  0  0  0
  -28.5663  -23.8441   24.1653 H   0  0  0  0  0  0
  -32.1754  -26.2564   20.6708 H   0  0  0  0  0  0
  -30.8183  -26.0843   19.5707 H   0  0  0  0  0  0
  -31.2020  -24.7931   20.7030 H   0  0  0  0  0  0
  -31.7677  -26.5445   23.2014 H   0  0  0  0  0  0
  -30.6473  -25.1981   23.3191 H   0  0  0  0  0  0
  -30.1329  -26.8119   23.7947 H   0  0  0  0  0  0
  -30.2335  -16.5912   19.4156 H   0  0  0  0  0  0
  -28.7210  -16.8011   20.2585 H   0  0  0  0  0  0
  -30.2099  -17.5139   20.9054 H   0  0  0  0  0  0
  -29.7206  -14.6511   23.1614 H   0  0  0  0  0  0
  -31.0680  -15.7202   22.9600 H   0  0  0  0  0  0
  -29.2593  -24.1417   21.7764 H   0  0  0  0  0  0
  -28.0337  -24.3753   20.6014 H   0  0  0  0  0  0
  -30.3448  -27.6206   21.4786 H   0  0  0  0  0  0
  -28.2474  -26.8341   22.2167 H   0  0  0  0  0  0
  -26.6992  -23.6914   21.9939 H   0  0  0  0  0  0
  1 25  1  0  0  0
  1 30  2  0  0  0
  1 94  1  0  0  0
  2  3  1  0  0  0
  2 25  1  0  0  0
  2 96  1  0  0  0
  2 97  1  0  0  0
  3  4  1  0  0  0
  3 98  1  0  0  0
  3 99  1  0  0  0
  4  5  1  0  0  0
  4100  1  0  0  0
  4101  1  0  0  0
  5  6  1  0  0  0
  5 26  1  0  0  0
  5102  1  0  0  0
  6 25  1  0  0  0
  6103  1  0  0  0
  6104  1  0  0  0
  7  8  2  0  0  0
  7 26  1  0  0  0
  7 29  1  0  0  0
  8  9  1  0  0  0
  8 22  1  0  0  0
  9 10  1  0  0  0
  9 27  2  0  0  0
 10 11  2  0  0  0
 10 15  1  0  0  0
 11 12  1  0  0  0
 11105  1  0  0  0
 12 13  2  0  0  0
 12106  1  0  0  0
 13 14  1  0  0  0
 13 31  1  0  0  0
 14 15  2  0  0  0
 14107  1  0  0  0
 15108  1  0  0  0
 16 17  2  0  0  0
 16 21  1  0  0  0
 16 31  1  0  0  0
 17 18  1  0  0  0
 17109  1  0  0  0
 18 19  2  0  0  0
 18110  1  0  0  0
 19 20  1  0  0  0
 19 24  1  0  0  0
 20 21  2  0  0  0
 20111  1  0  0  0
 21 23  1  0  0  0
 22 28  1  0  0  0
 22 32  2  0  0  0
 26 27  1  0  0  0
 28112  1  0  0  0
 28113  1  0  0  0
 29114  1  0  0  0
 29115  1  0  0  0
 33 34  1  0  0  0
 33 66  1  0  0  0
 33 70  2  0  0  0
 34 36  1  0  0  0
 34 59  1  0  0  0
 34116  1  0  0  0
 35 44  2  0  0  0
 35 45  1  0  0  0
 35 68  1  0  0  0
 36 56  1  0  0  0
 36117  1  0  0  0
 37 39  1  0  0  0
 37 47  1  0  0  0
 37 66  1  0  0  0
 37118  1  0  0  0
 38 43  2  0  0  0
 38 46  1  0  0  0
 38 47  1  0  0  0
 39 64  1  0  0  0
 39 67  2  0  0  0
 40 52  1  0  0  0
 40 53  2  0  0  0
 40 58  1  0  0  0
 41119  1  0  0  0
 41120  1  0  0  0
 41121  1  0  0  0
 41 48  1  0  0  0
 42 43  1  0  0  0
 42 66  1  0  0  0
 42122  1  0  0  0
 42123  1  0  0  0
 43 44  1  0  0  0
 44124  1  0  0  0
 45 46  2  0  0  0
 45125  1  0  0  0
 46126  1  0  0  0
 47127  1  0  0  0
 47128  1  0  0  0
 48 56  1  0  0  0
 48 65  1  0  0  0
 48129  1  0  0  0
 49 50  1  0  0  0
 49 53  1  0  0  0
 49 64  1  0  0  0
 49130  1  0  0  0
 50 51  1  0  0  0
 50131  1  0  0  0
 50132  1  0  0  0
 51 52  1  0  0  0
 51133  1  0  0  0
 51134  1  0  0  0
 52135  1  0  0  0
 52136  1  0  0  0
 53 54  1  0  0  0
 54 55  2  0  0  0
 54137  1  0  0  0
 55 57  1  0  0  0
 55138  1  0  0  0
 56 69  2  0  0  0
 57 58  2  0  0  0
 57139  1  0  0  0
 58140  1  0  0  0
 59 60  1  0  0  0
 59 61  1  0  0  0
 59 62  1  0  0  0
 60141  1  0  0  0
 60142  1  0  0  0
 60143  1  0  0  0
 61144  1  0  0  0
 61145  1  0  0  0
 61146  1  0  0  0
 62147  1  0  0  0
 62148  1  0  0  0
 62149  1  0  0  0
 63 65  1  0  0  0
 63150  1  0  0  0
 63151  1  0  0  0
 63152  1  0  0  0
 64153  1  0  0  0
 65154  1  0  0  0
 68 92  1  0  0  0
 71 73  2  0  0  0
 71 75  1  0  0  0
 71155  1  0  0  0
 72 74  1  0  0  0
 72 75  2  0  0  0
 72156  1  0  0  0
 73 76  1  0  0  0
 73157  1  0  0  0
 74 76  2  0  0  0
 74158  1  0  0  0
 75 89  1  0  0  0
 76 93  1  0  0  0
 77 78  1  0  0  0
 77 81  1  0  0  0
 77159  1  0  0  0
 77160  1  0  0  0
 78161  1  0  0  0
 78162  1  0  0  0
 78 85  1  0  0  0
 79 82  1  0  0  0
 79 85  1  0  0  0
 79163  1  0  0  0
 79164  1  0  0  0
 80 83  1  0  0  0
 80 85  1  0  0  0
 80165  1  0  0  0
 80166  1  0  0  0
 81 93  1  0  0  0
 81167  1  0  0  0
 81168  1  0  0  0
 82 93  1  0  0  0
 82169  1  0  0  0
 82170  1  0  0  0
 83 95  1  0  0  0
 83171  1  0  0  0
 83172  1  0  0  0
 84 85  1  0  0  0
 84 95  1  0  0  0
 84173  1  0  0  0
 84174  1  0  0  0
 86175  1  0  0  0
 86176  1  0  0  0
 86177  1  0  0  0
 86 91  1  0  0  0
 87 91  1  0  0  0
 87178  1  0  0  0
 87179  1  0  0  0
 87180  1  0  0  0
 88 94  1  0  0  0
 88181  1  0  0  0
 88182  1  0  0  0
 88183  1  0  0  0
 89 94  1  0  0  0
 89184  1  0  0  0
 89185  1  0  0  0
 90186  1  0  0  0
 90187  1  0  0  0
 90 92  1  0  0  0
 90 95  1  0  0  0
 91 92  1  0  0  0
 91188  1  0  0  0
 92189  1  0  0  0
 95190  1  0  0  0
M  CHG  1  95   1
M  ISO  4   1 100  68 101  92 101  94 100
M  END
> <chiral flag>
0

> <version>
0

> <s_m_source_file>
/data/baiqing/PycharmProjects/Reinvent-master-3.2/result/LINK_invent/BTK/process_docking_weight1_custom_product_contain_oxygen_bond_distance_aromatic_linkinvent_7_9_3/rearranged_h_0024.sdf

> <i_m_source_file_index>
11

> <r_mmod_Potential_Energy-OPLS-2005>
212.521759033203

> <r_mmod_Stretch_Energy-OPLS-2005>
42.0990257263184

> <r_mmod_Bend_Energy-OPLS-2005>
165.719772338867

> <r_mmod_Torsional_Energy-OPLS-2005>
455.397613525391

> <r_mmod_Improper_Torsional_Energy-OPLS-2005>
9.47184371948242

> <r_mmod_Van_der_Waal_Energy-OPLS-2005>
147.317230224609

> <r_mmod_Electrostatic_Energy-OPLS-2005>
-244.660751342773

> <r_mmod_Solvation_Energy-OPLS-2005>
-372.333038330078

> <b_mmod_Minimization_Converged-OPLS-2005>
0

> <r_mmod_RMS_Derivative-OPLS-2005>
4.34137678146362

$$$$
11
                    3D
 Structure written by MMmdl.
156165  0  0  1  0            999 V2000
  -30.4837  -14.9995   20.4979 C   0  0  0  0  0  0
  -30.4529  -12.6386   19.5214 C   0  0  0  0  0  0
  -29.5474  -12.5603   18.2704 C   0  0  0  0  0  0
  -28.0780  -12.3241   18.6746 C   0  0  0  0  0  0
  -27.6344  -13.2457   19.8455 C   0  0  2  0  0  0
  -28.6624  -13.2561   20.9934 C   0  0  0  0  0  0
  -25.2506  -13.8191   20.5698 C   0  0  0  0  0  0
  -24.1789  -13.0415   20.9233 C   0  0  0  0  0  0
  -24.6400  -11.6915   20.8690 C   0  0  0  0  0  0
  -23.9100  -10.4256   21.0334 C   0  0  0  0  0  0
  -24.3643   -9.4194   21.9138 C   0  0  0  0  0  0
  -23.6303   -8.2231   22.0761 C   0  0  0  0  0  0
  -22.4295   -8.0230   21.3531 C   0  0  0  0  0  0
  -21.9915   -9.0201   20.4652 C   0  0  0  0  0  0
  -22.7254  -10.2071   20.3025 C   0  0  0  0  0  0
  -21.6843   -6.0709   22.5268 C   0  0  0  0  0  0
  -21.4002   -6.5616   23.8185 C   0  0  0  0  0  0
  -21.3676   -5.6775   24.9146 C   0  0  0  0  0  0
  -21.6094   -4.3038   24.7205 C   0  0  0  0  0  0
  -21.8841   -3.8132   23.4319 C   0  0  0  0  0  0
  -21.9189   -4.6948   22.3374 C   0  0  0  0  0  0
  -22.7806  -13.5184   21.1827 C   0  0  0  0  0  0
  -22.1671   -4.2144   21.0945 F   0  0  0  0  0  0
  -21.5668   -3.4504   25.7707 F   0  0  0  0  0  0
  -29.9212  -13.7197   20.4105 N   0  0  0  0  0  0
  -26.2913  -12.9411   20.3223 N   0  0  0  0  0  0
  -25.9341  -11.6543   20.5709 N   0  0  0  0  0  0
  -22.0481  -12.8163   22.0388 N   0  0  0  0  0  0
  -25.4184  -15.1894   20.4100 N   0  0  0  0  0  0
  -31.6766  -15.0538   20.1824 O   0  0  0  0  0  0
  -21.6671   -6.8828   21.4207 O   0  0  0  0  0  0
  -22.3458  -14.5453   20.6655 O   0  0  0  0  0  0
  -24.6482  -31.8370   23.1813 C   0  0  0  0  0  0
  -25.9227  -32.4612   23.8222 C   0  0  1  0  0  0
  -27.1643  -26.9937   20.2452 C   0  0  0  0  0  0
  -25.5946  -33.8419   24.2117 N   0  0  0  0  0  0
  -23.4560  -30.4552   21.5294 C   0  0  2  0  0  0
  -24.9068  -28.8646   20.1147 C   0  0  0  0  0  0
  -22.7569  -29.4553   22.4845 C   0  0  0  0  0  0
  -18.0333  -28.1327   22.8457 C   0  0  0  0  0  0
  -24.1532  -36.7195   23.2637 C   0  0  0  0  0  0
  -26.0195  -30.6644   21.4139 C   0  0  0  0  0  0
  -26.0823  -29.2668   20.7566 C   0  0  0  0  0  0
  -27.2116  -28.3502   20.8075 C   0  0  0  0  0  0
  -25.9820  -26.7421   19.5156 C   0  0  0  0  0  0
  -24.8814  -27.6203   19.4709 C   0  0  0  0  0  0
  -23.6870  -29.7740   20.1528 C   0  0  0  0  0  0
  -25.4168  -36.2949   24.0280 C   0  0  1  0  0  0
  -20.5950  -28.3725   23.1210 C   0  0  2  0  0  0
  -20.6888  -26.9418   22.5398 C   0  0  0  0  0  0
  -19.5836  -26.6341   21.5236 C   0  0  0  0  0  0
  -18.2022  -26.7882   22.1599 C   0  0  0  0  0  0
  -19.1567  -28.8844   23.2786 C   0  0  0  0  0  0
  -18.9447  -30.1442   23.8781 C   0  0  0  0  0  0
  -17.6460  -30.6545   24.0450 C   0  0  0  0  0  0
  -25.9108  -34.9339   23.5015 C   0  0  0  0  0  0
  -16.5362  -29.9027   23.6258 C   0  0  0  0  0  0
  -16.7313  -28.6401   23.0357 C   0  0  0  0  0  0
  -26.4528  -31.6530   25.0724 C   0  0  0  0  0  0
  -25.3639  -31.3771   26.1374 C   0  0  0  0  0  0
  -27.0471  -30.2884   24.6492 C   0  0  0  0  0  0
  -27.6025  -32.4364   25.7482 C   0  0  0  0  0  0
  -27.5585  -37.1781   24.8459 C   0  0  0  0  0  0
  -21.4263  -29.3057   22.3535 N   0  0  0  0  0  0
  -26.4319  -37.3673   23.9346 N   0  0  0  0  0  0
  -24.7280  -31.0127   22.0880 N   0  0  0  0  0  0
  -23.4157  -28.8134   23.3040 O   0  0  0  0  0  0
  -28.1419  -25.9135   20.4342 O   0  0  0  0  0  0
  -26.5694  -34.8854   22.4614 O   0  0  0  0  0  0
  -23.5583  -32.1352   23.6923 O   0  0  0  0  0  0
  -31.3600  -17.7108   21.5534 C   0  0  0  0  0  0
  -30.4985  -18.6771   23.6034 C   0  0  0  0  0  0
  -29.2007  -18.8524   21.5074 C   0  0  0  0  0  0
  -30.0469  -17.6736   21.0292 C   0  0  0  0  0  0
  -29.3453  -19.1007   22.9067 C   0  0  0  0  0  0
  -31.5679  -18.1388   22.8717 C   0  0  0  0  0  0
  -26.9073  -21.7980   20.3403 C   0  0  0  0  0  0
  -27.1904  -20.2884   20.7387 C   0  0  0  0  0  0
  -29.1532  -21.5288   20.7651 C   0  0  0  0  0  0
  -28.0217  -22.7703   20.8543 C   0  0  1  0  0  0
  -27.9787  -24.3497   20.0758 C   0  0  0  0  0  0
  -28.6420  -20.0537   20.7814 N   0  0  0  0  0  0
  -29.6895  -16.1911   20.7145 N   0  0  0  0  0  0
  -28.4599  -19.8800   23.5846 F   0  0  0  0  0  0
  -33.0977  -17.8690   23.6229 Cl  0  0  0  0  0  0
  -31.4844  -12.8381   19.2201 H   0  0  0  0  0  0
  -30.4875  -11.6824   20.0499 H   0  0  0  0  0  0
  -29.8964  -11.7786   17.5954 H   0  0  0  0  0  0
  -29.6300  -13.4901   17.7085 H   0  0  0  0  0  0
  -27.9836  -11.2798   18.9717 H   0  0  0  0  0  0
  -27.4230  -12.4605   17.8147 H   0  0  0  0  0  0
  -27.6076  -14.2568   19.4285 H   0  0  0  0  0  0
  -28.7770  -12.2646   21.4342 H   0  0  0  0  0  0
  -28.3486  -13.9075   21.8075 H   0  0  0  0  0  0
  -25.2778   -9.5672   22.4720 H   0  0  0  0  0  0
  -24.0016   -7.4630   22.7509 H   0  0  0  0  0  0
  -21.0849   -8.8683   19.8970 H   0  0  0  0  0  0
  -22.3671  -10.9578   19.6129 H   0  0  0  0  0  0
  -21.1993   -7.6116   23.9656 H   0  0  0  0  0  0
  -21.1502   -6.0513   25.9036 H   0  0  0  0  0  0
  -22.0618   -2.7595   23.2811 H   0  0  0  0  0  0
  -22.4132  -11.9828   22.4733 H   0  0  0  0  0  0
  -21.1071  -13.1118   22.2490 H   0  0  0  0  0  0
  -24.6411  -15.8313   20.5265 H   0  0  0  0  0  0
  -26.2356  -15.6240   20.0040 H   0  0  0  0  0  0
  -26.7190  -32.5184   23.0883 H   0  0  0  0  0  0
  -25.0029  -33.9479   25.0211 H   0  0  0  0  0  0
  -22.7597  -31.2778   21.3657 H   0  0  0  0  0  0
  -23.3801  -35.9530   23.3293 H   0  0  0  0  0  0
  -24.3576  -36.8854   22.2054 H   0  0  0  0  0  0
  -23.7356  -37.6395   23.6712 H   0  0  0  0  0  0
  -26.2186  -31.4184   20.6526 H   0  0  0  0  0  0
  -26.8640  -30.6931   22.0877 H   0  0  0  0  0  0
  -28.0887  -28.6382   21.3665 H   0  0  0  0  0  0
  -25.8348  -25.8065   19.0022 H   0  0  0  0  0  0
  -23.9837  -27.3037   18.9576 H   0  0  0  0  0  0
  -23.8198  -30.5388   19.3890 H   0  0  0  0  0  0
  -22.8011  -29.2144   19.8476 H   0  0  0  0  0  0
  -25.1410  -36.1733   25.0770 H   0  0  0  0  0  0
  -21.0051  -28.3390   24.1317 H   0  0  0  0  0  0
  -20.5767  -26.2318   23.3629 H   0  0  0  0  0  0
  -21.6726  -26.7450   22.1110 H   0  0  0  0  0  0
  -19.6938  -25.6265   21.1222 H   0  0  0  0  0  0
  -19.6755  -27.3197   20.6786 H   0  0  0  0  0  0
  -17.4319  -26.6671   21.3957 H   0  0  0  0  0  0
  -18.0423  -25.9989   22.8966 H   0  0  0  0  0  0
  -19.7922  -30.7280   24.2079 H   0  0  0  0  0  0
  -17.5001  -31.6229   24.5041 H   0  0  0  0  0  0
  -15.5371  -30.2932   23.7566 H   0  0  0  0  0  0
  -15.8732  -28.0629   22.7206 H   0  0  0  0  0  0
  -24.5827  -30.7117   25.7650 H   0  0  0  0  0  0
  -24.8850  -32.3003   26.4634 H   0  0  0  0  0  0
  -25.7858  -30.9030   27.0240 H   0  0  0  0  0  0
  -26.3171  -29.6523   24.1474 H   0  0  0  0  0  0
  -27.3950  -29.7252   25.5150 H   0  0  0  0  0  0
  -27.9112  -30.4013   23.9943 H   0  0  0  0  0  0
  -27.2549  -33.3675   26.1934 H   0  0  0  0  0  0
  -28.3874  -32.6903   25.0359 H   0  0  0  0  0  0
  -28.0659  -31.8625   26.5519 H   0  0  0  0  0  0
  -28.2606  -38.0057   24.7457 H   0  0  0  0  0  0
  -28.1079  -36.2602   24.6393 H   0  0  0  0  0  0
  -27.2231  -37.1503   25.8828 H   0  0  0  0  0  0
  -20.9511  -29.8689   21.6636 H   0  0  0  0  0  0
  -26.0173  -38.2716   24.1352 H   0  0  0  0  0  0
  -32.1560  -17.1228   21.1367 H   0  0  0  0  0  0
  -30.6105  -18.8843   24.6586 H   0  0  0  0  0  0
  -25.9016  -22.1252   20.6166 H   0  0  0  0  0  0
  -26.9416  -21.8179   19.2528 H   0  0  0  0  0  0
  -26.7640  -19.6401   19.9733 H   0  0  0  0  0  0
  -26.7003  -20.0017   21.6781 H   0  0  0  0  0  0
  -29.9445  -21.6771   21.5010 H   0  0  0  0  0  0
  -29.6372  -21.6018   19.7922 H   0  0  0  0  0  0
  -27.7840  -22.9369   21.9052 H   0  0  0  0  0  0
  -28.6370  -24.2468   19.2168 H   0  0  0  0  0  0
  -26.9975  -24.2938   19.6267 H   0  0  0  0  0  0
  -28.7020  -15.9932   20.7761 H   0  0  0  0  0  0
  1 25  1  0  0  0
  1 30  2  0  0  0
  1 83  1  0  0  0
  2  3  1  0  0  0
  2 25  1  0  0  0
  2 86  1  0  0  0
  2 87  1  0  0  0
  3  4  1  0  0  0
  3 88  1  0  0  0
  3 89  1  0  0  0
  4  5  1  0  0  0
  4 90  1  0  0  0
  4 91  1  0  0  0
  5  6  1  0  0  0
  5 26  1  0  0  0
  5 92  1  0  0  0
  6 25  1  0  0  0
  6 93  1  0  0  0
  6 94  1  0  0  0
  7  8  2  0  0  0
  7 26  1  0  0  0
  7 29  1  0  0  0
  8  9  1  0  0  0
  8 22  1  0  0  0
  9 10  1  0  0  0
  9 27  2  0  0  0
 10 11  2  0  0  0
 10 15  1  0  0  0
 11 12  1  0  0  0
 11 95  1  0  0  0
 12 13  2  0  0  0
 12 96  1  0  0  0
 13 14  1  0  0  0
 13 31  1  0  0  0
 14 15  2  0  0  0
 14 97  1  0  0  0
 15 98  1  0  0  0
 16 17  2  0  0  0
 16 21  1  0  0  0
 16 31  1  0  0  0
 17 18  1  0  0  0
 17 99  1  0  0  0
 18 19  2  0  0  0
 18100  1  0  0  0
 19 20  1  0  0  0
 19 24  1  0  0  0
 20 21  2  0  0  0
 20101  1  0  0  0
 21 23  1  0  0  0
 22 28  1  0  0  0
 22 32  2  0  0  0
 26 27  1  0  0  0
 28102  1  0  0  0
 28103  1  0  0  0
 29104  1  0  0  0
 29105  1  0  0  0
 33 34  1  0  0  0
 33 66  1  0  0  0
 33 70  2  0  0  0
 34 36  1  0  0  0
 34 59  1  0  0  0
 34106  1  0  0  0
 35 44  2  0  0  0
 35 45  1  0  0  0
 35 68  1  0  0  0
 36 56  1  0  0  0
 36107  1  0  0  0
 37 39  1  0  0  0
 37 47  1  0  0  0
 37 66  1  0  0  0
 37108  1  0  0  0
 38 43  2  0  0  0
 38 46  1  0  0  0
 38 47  1  0  0  0
 39 64  1  0  0  0
 39 67  2  0  0  0
 40 52  1  0  0  0
 40 53  2  0  0  0
 40 58  1  0  0  0
 41109  1  0  0  0
 41110  1  0  0  0
 41111  1  0  0  0
 41 48  1  0  0  0
 42 43  1  0  0  0
 42 66  1  0  0  0
 42112  1  0  0  0
 42113  1  0  0  0
 43 44  1  0  0  0
 44114  1  0  0  0
 45 46  2  0  0  0
 45115  1  0  0  0
 46116  1  0  0  0
 47117  1  0  0  0
 47118  1  0  0  0
 48 56  1  0  0  0
 48 65  1  0  0  0
 48119  1  0  0  0
 49 50  1  0  0  0
 49 53  1  0  0  0
 49 64  1  0  0  0
 49120  1  0  0  0
 50 51  1  0  0  0
 50121  1  0  0  0
 50122  1  0  0  0
 51 52  1  0  0  0
 51123  1  0  0  0
 51124  1  0  0  0
 52125  1  0  0  0
 52126  1  0  0  0
 53 54  1  0  0  0
 54 55  2  0  0  0
 54127  1  0  0  0
 55 57  1  0  0  0
 55128  1  0  0  0
 56 69  2  0  0  0
 57 58  2  0  0  0
 57129  1  0  0  0
 58130  1  0  0  0
 59 60  1  0  0  0
 59 61  1  0  0  0
 59 62  1  0  0  0
 60131  1  0  0  0
 60132  1  0  0  0
 60133  1  0  0  0
 61134  1  0  0  0
 61135  1  0  0  0
 61136  1  0  0  0
 62137  1  0  0  0
 62138  1  0  0  0
 62139  1  0  0  0
 63 65  1  0  0  0
 63140  1  0  0  0
 63141  1  0  0  0
 63142  1  0  0  0
 64143  1  0  0  0
 65144  1  0  0  0
 68 81  1  0  0  0
 71 74  2  0  0  0
 71 76  1  0  0  0
 71145  1  0  0  0
 72 75  1  0  0  0
 72 76  2  0  0  0
 72146  1  0  0  0
 73 74  1  0  0  0
 73 75  2  0  0  0
 73 82  1  0  0  0
 74 83  1  0  0  0
 75 84  1  0  0  0
 76 85  1  0  0  0
 77 78  1  0  0  0
 77 80  1  0  0  0
 77147  1  0  0  0
 77148  1  0  0  0
 78 82  1  0  0  0
 78149  1  0  0  0
 78150  1  0  0  0
 79 80  1  0  0  0
 79 82  1  0  0  0
 79151  1  0  0  0
 79152  1  0  0  0
 80 81  1  0  0  0
 80153  1  0  0  0
 81154  1  0  0  0
 81155  1  0  0  0
 83156  1  0  0  0
M  ISO  4   1 100  68 101  81 101  83 100
M  END
> <chiral flag>
0

> <version>
0

> <s_m_source_file>
/data/baiqing/PycharmProjects/Reinvent-master-3.2/result/LINK_invent/BTK/process_docking_weight1_custom_product_contain_oxygen_bond_distance_aromatic_linkinvent_7_9_3/rearranged_h_0024.sdf

> <i_m_source_file_index>
12

> <r_mmod_Potential_Energy-OPLS-2005>
1166.36376953125

> <r_mmod_Stretch_Energy-OPLS-2005>
371.963409423828

> <r_mmod_Bend_Energy-OPLS-2005>
411.389404296875

> <r_mmod_Torsional_Energy-OPLS-2005>
496.696228027344

> <r_mmod_Improper_Torsional_Energy-OPLS-2005>
27.149845123291

> <r_mmod_Van_der_Waal_Energy-OPLS-2005>
142.25505065918

> <r_mmod_Electrostatic_Energy-OPLS-2005>
-355.138549804688

> <r_mmod_Solvation_Energy-OPLS-2005>
-224.533508300781

> <b_mmod_Minimization_Converged-OPLS-2005>
0

> <r_mmod_RMS_Derivative-OPLS-2005>
10.0218191146851

$$$$
12
                    3D
 Structure written by MMmdl.
163172  0  0  1  0            999 V2000
  -30.5016  -15.0783   20.3466 C   0  0  0  0  0  0
  -30.4467  -12.6665   19.4935 C   0  0  0  0  0  0
  -29.5286  -12.4821   18.2629 C   0  0  0  0  0  0
  -28.0553  -12.2979   18.6806 C   0  0  0  0  0  0
  -27.6169  -13.2514   19.8240 C   0  0  2  0  0  0
  -28.6683  -13.3513   20.9458 C   0  0  0  0  0  0
  -25.2440  -13.8208   20.5765 C   0  0  0  0  0  0
  -24.1763  -13.0434   20.9240 C   0  0  0  0  0  0
  -24.6391  -11.6916   20.8778 C   0  0  0  0  0  0
  -23.9089  -10.4287   21.0414 C   0  0  0  0  0  0
  -24.3626   -9.4187   21.9184 C   0  0  0  0  0  0
  -23.6280   -8.2235   22.0749 C   0  0  0  0  0  0
  -22.4267   -8.0288   21.3533 C   0  0  0  0  0  0
  -21.9919   -9.0275   20.4639 C   0  0  0  0  0  0
  -22.7263  -10.2141   20.3053 C   0  0  0  0  0  0
  -21.6847   -6.0731   22.5269 C   0  0  0  0  0  0
  -21.4011   -6.5632   23.8203 C   0  0  0  0  0  0
  -21.3652   -5.6785   24.9169 C   0  0  0  0  0  0
  -21.6036   -4.3046   24.7213 C   0  0  0  0  0  0
  -21.8821   -3.8144   23.4332 C   0  0  0  0  0  0
  -21.9193   -4.6964   22.3392 C   0  0  0  0  0  0
  -22.7784  -13.5198   21.1880 C   0  0  0  0  0  0
  -22.1660   -4.2151   21.0968 F   0  0  0  0  0  0
  -21.5630   -3.4526   25.7721 F   0  0  0  0  0  0
  -29.9107  -13.8032   20.3035 N   0  0  0  0  0  0
  -26.2854  -12.9437   20.3282 N   0  0  0  0  0  0
  -25.9322  -11.6564   20.5778 N   0  0  0  0  0  0
  -22.0434  -12.8193   22.0428 N   0  0  0  0  0  0
  -25.4152  -15.1941   20.4216 N   0  0  0  0  0  0
  -31.7364  -15.0832   20.2592 O   0  0  0  0  0  0
  -21.6629   -6.8879   21.4230 O   0  0  0  0  0  0
  -22.3481  -14.5511   20.6724 O   0  0  0  0  0  0
  -24.6511  -31.8353   23.1846 C   0  0  0  0  0  0
  -25.9254  -32.4646   23.8254 C   0  0  1  0  0  0
  -27.2209  -27.0643   20.1612 C   0  0  0  0  0  0
  -25.5978  -33.8456   24.2176 N   0  0  0  0  0  0
  -23.4597  -30.4529   21.5309 C   0  0  2  0  0  0
  -24.9128  -28.8679   20.1113 C   0  0  0  0  0  0
  -22.7620  -29.4486   22.4839 C   0  0  0  0  0  0
  -18.0295  -28.1397   22.8465 C   0  0  0  0  0  0
  -24.1476  -36.7228   23.2650 C   0  0  0  0  0  0
  -26.0216  -30.6845   21.3976 C   0  0  0  0  0  0
  -26.0918  -29.2890   20.7391 C   0  0  0  0  0  0
  -27.2422  -28.4030   20.7492 C   0  0  0  0  0  0
  -26.0182  -26.7671   19.4811 C   0  0  0  0  0  0
  -24.8927  -27.6232   19.4652 C   0  0  0  0  0  0
  -23.6924  -29.7786   20.1527 C   0  0  0  0  0  0
  -25.4111  -36.2998   24.0296 C   0  0  1  0  0  0
  -20.5926  -28.3728   23.1211 C   0  0  2  0  0  0
  -20.6792  -26.9423   22.5411 C   0  0  0  0  0  0
  -19.5768  -26.6379   21.5225 C   0  0  0  0  0  0
  -18.1941  -26.7933   22.1624 C   0  0  0  0  0  0
  -19.1560  -28.8882   23.2815 C   0  0  0  0  0  0
  -18.9481  -30.1480   23.8835 C   0  0  0  0  0  0
  -17.6475  -30.6595   24.0554 C   0  0  0  0  0  0
  -25.9071  -34.9372   23.5049 C   0  0  0  0  0  0
  -16.5363  -29.9084   23.6350 C   0  0  0  0  0  0
  -16.7281  -28.6507   23.0358 C   0  0  0  0  0  0
  -26.4556  -31.6529   25.0716 C   0  0  0  0  0  0
  -25.3734  -31.3713   26.1406 C   0  0  0  0  0  0
  -27.0470  -30.2919   24.6367 C   0  0  0  0  0  0
  -27.6061  -32.4335   25.7521 C   0  0  0  0  0  0
  -27.5567  -37.1760   24.8462 C   0  0  0  0  0  0
  -21.4304  -29.3039   22.3590 N   0  0  0  0  0  0
  -26.4275  -37.3724   23.9401 N   0  0  0  0  0  0
  -24.7303  -31.0148   22.0918 N   0  0  0  0  0  0
  -23.4221  -28.8044   23.3024 O   0  0  0  0  0  0
  -28.2445  -26.0264   20.2510 O   0  0  0  0  0  0
  -26.5670  -34.8868   22.4635 O   0  0  0  0  0  0
  -23.5610  -32.1275   23.7005 O   0  0  0  0  0  0
  -29.8018  -19.0526   22.7441 C   0  0  0  0  0  0
  -29.9858  -17.8419   22.0400 C   0  0  0  0  0  0
  -29.3374  -19.0664   20.0547 C   0  0  0  0  0  0
  -29.3790  -20.2809   22.1559 C   0  0  0  0  0  0
  -29.7237  -17.7345   20.6652 C   0  0  0  0  0  0
  -29.1884  -20.4025   20.7433 C   0  0  0  0  0  0
  -28.9150  -23.1887   20.4622 C   0  0  0  0  0  0
  -28.5748  -21.3526   25.3536 C   0  0  0  0  0  0
  -27.3281  -21.8644   24.6407 C   0  0  0  0  0  0
  -29.6620  -21.5429   24.2942 C   0  0  0  0  0  0
  -27.5488  -21.4143   23.1978 C   0  0  0  0  0  0
  -29.2310  -16.3274   18.6753 C   0  0  0  0  0  0
  -27.9702  -24.4909   19.9393 C   0  0  0  0  0  0
  -28.9968  -21.3395   23.0067 N   0  0  0  0  0  0
  -28.7124  -21.7840   20.1542 N   0  0  0  0  0  0
  -29.7574  -16.3001   20.0448 N   0  0  0  0  0  0
  -29.9066  -23.5070   21.1260 O   0  0  0  0  0  0
  -31.4676  -12.8574   19.1578 H   0  0  0  0  0  0
  -30.4967  -11.7523   20.0887 H   0  0  0  0  0  0
  -29.8575  -11.6191   17.6837 H   0  0  0  0  0  0
  -29.6289  -13.3367   17.5962 H   0  0  0  0  0  0
  -27.9405  -11.2635   19.0078 H   0  0  0  0  0  0
  -27.4020  -12.4146   17.8155 H   0  0  0  0  0  0
  -27.5430  -14.2354   19.3665 H   0  0  0  0  0  0
  -28.7993  -12.3923   21.4510 H   0  0  0  0  0  0
  -28.3565  -14.0681   21.7067 H   0  0  0  0  0  0
  -25.2761   -9.5650   22.4773 H   0  0  0  0  0  0
  -23.9968   -7.4615   22.7468 H   0  0  0  0  0  0
  -21.0842   -8.8802   19.8945 H   0  0  0  0  0  0
  -22.3718  -10.9685   19.6171 H   0  0  0  0  0  0
  -21.2005   -7.6135   23.9714 H   0  0  0  0  0  0
  -21.1471   -6.0506   25.9065 H   0  0  0  0  0  0
  -22.0612   -2.7604   23.2835 H   0  0  0  0  0  0
  -22.4029  -11.9817   22.4767 H   0  0  0  0  0  0
  -21.1059  -13.1231   22.2655 H   0  0  0  0  0  0
  -24.6564  -15.8554   20.5421 H   0  0  0  0  0  0
  -26.2841  -15.6320   20.1426 H   0  0  0  0  0  0
  -26.7320  -32.5231   23.0976 H   0  0  0  0  0  0
  -25.0096  -33.9548   25.0309 H   0  0  0  0  0  0
  -22.7643  -31.2785   21.3708 H   0  0  0  0  0  0
  -23.3743  -35.9560   23.3295 H   0  0  0  0  0  0
  -24.3573  -36.8912   22.2078 H   0  0  0  0  0  0
  -23.7232  -37.6408   23.6721 H   0  0  0  0  0  0
  -26.1856  -31.4317   20.6211 H   0  0  0  0  0  0
  -26.8881  -30.7405   22.0436 H   0  0  0  0  0  0
  -28.1305  -28.7165   21.2777 H   0  0  0  0  0  0
  -25.9117  -25.8204   18.9725 H   0  0  0  0  0  0
  -23.9941  -27.2976   18.9590 H   0  0  0  0  0  0
  -23.8319  -30.5520   19.3963 H   0  0  0  0  0  0
  -22.8062  -29.2228   19.8437 H   0  0  0  0  0  0
  -25.1292  -36.1829   25.0791 H   0  0  0  0  0  0
  -20.9970  -28.3335   24.1345 H   0  0  0  0  0  0
  -20.5709  -26.2327   23.3635 H   0  0  0  0  0  0
  -21.6650  -26.7442   22.1192 H   0  0  0  0  0  0
  -19.6932  -25.6284   21.1272 H   0  0  0  0  0  0
  -19.6716  -27.3171   20.6741 H   0  0  0  0  0  0
  -17.4220  -26.6672   21.4017 H   0  0  0  0  0  0
  -18.0311  -26.0079   22.9016 H   0  0  0  0  0  0
  -19.7963  -30.7315   24.2171 H   0  0  0  0  0  0
  -17.5031  -31.6267   24.5187 H   0  0  0  0  0  0
  -15.5358  -30.2960   23.7725 H   0  0  0  0  0  0
  -15.8676  -28.0820   22.7083 H   0  0  0  0  0  0
  -24.5924  -30.7042   25.7746 H   0  0  0  0  0  0
  -24.8884  -32.2875   26.4788 H   0  0  0  0  0  0
  -25.8011  -30.8943   27.0238 H   0  0  0  0  0  0
  -26.3138  -29.6573   24.1374 H   0  0  0  0  0  0
  -27.4077  -29.7272   25.4983 H   0  0  0  0  0  0
  -27.9033  -30.4141   23.9723 H   0  0  0  0  0  0
  -27.2652  -33.3689   26.1972 H   0  0  0  0  0  0
  -28.3949  -32.6823   25.0406 H   0  0  0  0  0  0
  -28.0633  -31.8545   26.5563 H   0  0  0  0  0  0
  -28.2545  -38.0090   24.7537 H   0  0  0  0  0  0
  -28.1102  -36.2619   24.6266 H   0  0  0  0  0  0
  -27.2274  -37.1377   25.8862 H   0  0  0  0  0  0
  -20.9535  -29.8749   21.6756 H   0  0  0  0  0  0
  -26.0123  -38.2783   24.1453 H   0  0  0  0  0  0
  -29.9278  -18.9840   23.8138 H   0  0  0  0  0  0
  -30.2596  -16.9616   22.6029 H   0  0  0  0  0  0
  -29.1206  -19.0634   18.9964 H   0  0  0  0  0  0
  -28.4562  -20.2943   25.5920 H   0  0  0  0  0  0
  -28.7844  -21.8858   26.2811 H   0  0  0  0  0  0
  -27.2946  -22.9547   24.6884 H   0  0  0  0  0  0
  -26.3994  -21.4803   25.0640 H   0  0  0  0  0  0
  -30.5296  -20.9059   24.4669 H   0  0  0  0  0  0
  -30.0282  -22.5701   24.3209 H   0  0  0  0  0  0
  -27.0880  -22.1073   22.4927 H   0  0  0  0  0  0
  -27.0901  -20.4351   23.0417 H   0  0  0  0  0  0
  -28.2566  -16.8186   18.6484 H   0  0  0  0  0  0
  -29.0992  -15.3478   18.2249 H   0  0  0  0  0  0
  -29.9076  -16.8852   18.0259 H   0  0  0  0  0  0
  -26.9656  -24.2636   20.2951 H   0  0  0  0  0  0
  -27.9221  -24.4097   18.8538 H   0  0  0  0  0  0
  -28.0474  -21.6733   19.4027 H   0  0  0  0  0  0
  1 25  1  0  0  0
  1 30  2  0  0  0
  1 86  1  0  0  0
  2  3  1  0  0  0
  2 25  1  0  0  0
  2 88  1  0  0  0
  2 89  1  0  0  0
  3  4  1  0  0  0
  3 90  1  0  0  0
  3 91  1  0  0  0
  4  5  1  0  0  0
  4 92  1  0  0  0
  4 93  1  0  0  0
  5  6  1  0  0  0
  5 26  1  0  0  0
  5 94  1  0  0  0
  6 25  1  0  0  0
  6 95  1  0  0  0
  6 96  1  0  0  0
  7  8  2  0  0  0
  7 26  1  0  0  0
  7 29  1  0  0  0
  8  9  1  0  0  0
  8 22  1  0  0  0
  9 10  1  0  0  0
  9 27  2  0  0  0
 10 11  2  0  0  0
 10 15  1  0  0  0
 11 12  1  0  0  0
 11 97  1  0  0  0
 12 13  2  0  0  0
 12 98  1  0  0  0
 13 14  1  0  0  0
 13 31  1  0  0  0
 14 15  2  0  0  0
 14 99  1  0  0  0
 15100  1  0  0  0
 16 17  2  0  0  0
 16 21  1  0  0  0
 16 31  1  0  0  0
 17 18  1  0  0  0
 17101  1  0  0  0
 18 19  2  0  0  0
 18102  1  0  0  0
 19 20  1  0  0  0
 19 24  1  0  0  0
 20 21  2  0  0  0
 20103  1  0  0  0
 21 23  1  0  0  0
 22 28  1  0  0  0
 22 32  2  0  0  0
 26 27  1  0  0  0
 28104  1  0  0  0
 28105  1  0  0  0
 29106  1  0  0  0
 29107  1  0  0  0
 33 34  1  0  0  0
 33 66  1  0  0  0
 33 70  2  0  0  0
 34 36  1  0  0  0
 34 59  1  0  0  0
 34108  1  0  0  0
 35 44  2  0  0  0
 35 45  1  0  0  0
 35 68  1  0  0  0
 36 56  1  0  0  0
 36109  1  0  0  0
 37 39  1  0  0  0
 37 47  1  0  0  0
 37 66  1  0  0  0
 37110  1  0  0  0
 38 43  2  0  0  0
 38 46  1  0  0  0
 38 47  1  0  0  0
 39 64  1  0  0  0
 39 67  2  0  0  0
 40 52  1  0  0  0
 40 53  2  0  0  0
 40 58  1  0  0  0
 41111  1  0  0  0
 41112  1  0  0  0
 41113  1  0  0  0
 41 48  1  0  0  0
 42 43  1  0  0  0
 42 66  1  0  0  0
 42114  1  0  0  0
 42115  1  0  0  0
 43 44  1  0  0  0
 44116  1  0  0  0
 45 46  2  0  0  0
 45117  1  0  0  0
 46118  1  0  0  0
 47119  1  0  0  0
 47120  1  0  0  0
 48 56  1  0  0  0
 48 65  1  0  0  0
 48121  1  0  0  0
 49 50  1  0  0  0
 49 53  1  0  0  0
 49 64  1  0  0  0
 49122  1  0  0  0
 50 51  1  0  0  0
 50123  1  0  0  0
 50124  1  0  0  0
 51 52  1  0  0  0
 51125  1  0  0  0
 51126  1  0  0  0
 52127  1  0  0  0
 52128  1  0  0  0
 53 54  1  0  0  0
 54 55  2  0  0  0
 54129  1  0  0  0
 55 57  1  0  0  0
 55130  1  0  0  0
 56 69  2  0  0  0
 57 58  2  0  0  0
 57131  1  0  0  0
 58132  1  0  0  0
 59 60  1  0  0  0
 59 61  1  0  0  0
 59 62  1  0  0  0
 60133  1  0  0  0
 60134  1  0  0  0
 60135  1  0  0  0
 61136  1  0  0  0
 61137  1  0  0  0
 61138  1  0  0  0
 62139  1  0  0  0
 62140  1  0  0  0
 62141  1  0  0  0
 63 65  1  0  0  0
 63142  1  0  0  0
 63143  1  0  0  0
 63144  1  0  0  0
 64145  1  0  0  0
 65146  1  0  0  0
 68 83  1  0  0  0
 71 72  2  0  0  0
 71 74  1  0  0  0
 71147  1  0  0  0
 72 75  1  0  0  0
 72148  1  0  0  0
 73 75  2  0  0  0
 73 76  1  0  0  0
 73149  1  0  0  0
 74 76  2  0  0  0
 74 84  1  0  0  0
 75 86  1  0  0  0
 76 85  1  0  0  0
 77 83  1  0  0  0
 77 85  1  0  0  0
 77 87  2  0  0  0
 78 79  1  0  0  0
 78 80  1  0  0  0
 78150  1  0  0  0
 78151  1  0  0  0
 79 81  1  0  0  0
 79152  1  0  0  0
 79153  1  0  0  0
 80 84  1  0  0  0
 80154  1  0  0  0
 80155  1  0  0  0
 81 84  1  0  0  0
 81156  1  0  0  0
 81157  1  0  0  0
 82 86  1  0  0  0
 82158  1  0  0  0
 82159  1  0  0  0
 82160  1  0  0  0
 83161  1  0  0  0
 83162  1  0  0  0
 85163  1  0  0  0
M  ISO  4   1 100  68 101  83 101  86 100
M  END
> <chiral flag>
0

> <version>
0

> <s_m_source_file>
/data/baiqing/PycharmProjects/Reinvent-master-3.2/result/LINK_invent/BTK/process_docking_weight1_custom_product_contain_oxygen_bond_distance_aromatic_linkinvent_7_9_3/rearranged_h_0024.sdf

> <i_m_source_file_index>
13

> <r_mmod_Potential_Energy-OPLS-2005>
928.122680664062

> <r_mmod_Stretch_Energy-OPLS-2005>
357.353515625

> <r_mmod_Bend_Energy-OPLS-2005>
316.384307861328

> <r_mmod_Torsional_Energy-OPLS-2005>
390.205108642578

> <r_mmod_Improper_Torsional_Energy-OPLS-2005>
20.948579788208

> <r_mmod_Van_der_Waal_Energy-OPLS-2005>
136.182968139648

> <r_mmod_Electrostatic_Energy-OPLS-2005>
-323.739196777344

> <r_mmod_Solvation_Energy-OPLS-2005>
-256.921142578125

> <b_mmod_Minimization_Converged-OPLS-2005>
0

> <r_mmod_RMS_Derivative-OPLS-2005>
2.59581542015076

$$$$
13
                    3D
 Structure written by MMmdl.
165174  0  0  1  0            999 V2000
  -30.6474  -14.7087   20.5378 C   0  0  0  0  0  0
  -30.4343  -12.4479   19.4782 C   0  0  0  0  0  0
  -29.5128  -12.5231   18.2402 C   0  0  0  0  0  0
  -28.0392  -12.3444   18.6497 C   0  0  0  0  0  0
  -27.6497  -13.2271   19.8641 C   0  0  2  0  0  0
  -28.6896  -13.1175   20.9992 C   0  0  0  0  0  0
  -25.2550  -13.8194   20.5717 C   0  0  0  0  0  0
  -24.1812  -13.0454   20.9182 C   0  0  0  0  0  0
  -24.6384  -11.6924   20.8719 C   0  0  0  0  0  0
  -23.9053  -10.4301   21.0397 C   0  0  0  0  0  0
  -24.3602   -9.4218   21.9186 C   0  0  0  0  0  0
  -23.6278   -8.2256   22.0756 C   0  0  0  0  0  0
  -22.4269   -8.0284   21.3542 C   0  0  0  0  0  0
  -21.9890   -9.0261   20.4652 C   0  0  0  0  0  0
  -22.7214  -10.2145   20.3060 C   0  0  0  0  0  0
  -21.6860   -6.0729   22.5271 C   0  0  0  0  0  0
  -21.4022   -6.5636   23.8204 C   0  0  0  0  0  0
  -21.3662   -5.6791   24.9169 C   0  0  0  0  0  0
  -21.6041   -4.3051   24.7216 C   0  0  0  0  0  0
  -21.8819   -3.8140   23.4337 C   0  0  0  0  0  0
  -21.9198   -4.6959   22.3396 C   0  0  0  0  0  0
  -22.7839  -13.5261   21.1836 C   0  0  0  0  0  0
  -22.1665   -4.2146   21.0970 F   0  0  0  0  0  0
  -21.5628   -3.4528   25.7726 F   0  0  0  0  0  0
  -29.9976  -13.4919   20.4397 N   0  0  0  0  0  0
  -26.2972  -12.9387   20.3326 N   0  0  0  0  0  0
  -25.9316  -11.6529   20.5732 N   0  0  0  0  0  0
  -22.0464  -12.8271   22.0389 N   0  0  0  0  0  0
  -25.4302  -15.1911   20.4193 N   0  0  0  0  0  0
  -31.7768  -14.8241   20.0486 O   0  0  0  0  0  0
  -21.6647   -6.8869   21.4233 O   0  0  0  0  0  0
  -22.3535  -14.5574   20.6688 O   0  0  0  0  0  0
  -24.6293  -31.8570   23.2011 C   0  0  0  0  0  0
  -25.9126  -32.4767   23.8350 C   0  0  1  0  0  0
  -27.2173  -27.2757   20.1221 C   0  0  0  0  0  0
  -25.5927  -33.8572   24.2269 N   0  0  0  0  0  0
  -23.4261  -30.4796   21.5448 C   0  0  2  0  0  0
  -24.8727  -28.9335   20.1087 C   0  0  0  0  0  0
  -22.7506  -29.4596   22.4930 C   0  0  0  0  0  0
  -18.0287  -28.1393   22.8481 C   0  0  0  0  0  0
  -24.1484  -36.7285   23.2638 C   0  0  0  0  0  0
  -25.9713  -30.7738   21.3806 C   0  0  0  0  0  0
  -26.0434  -29.3981   20.7210 C   0  0  0  0  0  0
  -27.2174  -28.5800   20.7198 C   0  0  0  0  0  0
  -26.0264  -26.8854   19.4665 C   0  0  0  0  0  0
  -24.8687  -27.6849   19.4715 C   0  0  0  0  0  0
  -23.6437  -29.8187   20.1588 C   0  0  0  0  0  0
  -25.4114  -36.3080   24.0325 C   0  0  1  0  0  0
  -20.5889  -28.3696   23.1276 C   0  0  2  0  0  0
  -20.6777  -26.9417   22.5412 C   0  0  0  0  0  0
  -19.5749  -26.6387   21.5217 C   0  0  0  0  0  0
  -18.1929  -26.7936   22.1626 C   0  0  0  0  0  0
  -19.1539  -28.8864   23.2871 C   0  0  0  0  0  0
  -18.9463  -30.1463   23.8890 C   0  0  0  0  0  0
  -17.6461  -30.6591   24.0566 C   0  0  0  0  0  0
  -25.9052  -34.9448   23.5100 C   0  0  0  0  0  0
  -16.5353  -29.9089   23.6333 C   0  0  0  0  0  0
  -16.7273  -28.6511   23.0348 C   0  0  0  0  0  0
  -26.4501  -31.6592   25.0734 C   0  0  0  0  0  0
  -25.3721  -31.3754   26.1451 C   0  0  0  0  0  0
  -27.0357  -30.3011   24.6225 C   0  0  0  0  0  0
  -27.6067  -32.4334   25.7496 C   0  0  0  0  0  0
  -27.5579  -37.1795   24.8468 C   0  0  0  0  0  0
  -21.4212  -29.3039   22.3673 N   0  0  0  0  0  0
  -26.4294  -37.3777   23.9406 N   0  0  0  0  0  0
  -24.6946  -31.0542   22.0984 N   0  0  0  0  0  0
  -23.4213  -28.8130   23.3019 O   0  0  0  0  0  0
  -28.3131  -26.3861   20.1998 O   0  0  0  0  0  0
  -26.5629  -34.8920   22.4671 O   0  0  0  0  0  0
  -23.5443  -32.1388   23.7302 O   0  0  0  0  0  0
  -27.3516  -19.5848   21.7318 C   0  0  0  0  0  0
  -28.1269  -18.4449   21.4401 C   0  0  0  0  0  0
  -27.7020  -20.8631   21.2515 C   0  0  0  0  0  0
  -29.3218  -18.5426   20.6950 C   0  0  0  0  0  0
  -28.8512  -21.0726   20.4591 C   0  0  0  0  0  0
  -29.6651  -19.8763   20.2173 C   0  0  0  0  0  0
  -30.9732  -23.3562   18.9715 C   0  0  0  0  0  0
  -30.5533  -24.1871   20.1964 C   0  0  0  0  0  0
  -29.7456  -22.5180   18.6220 C   0  0  0  0  0  0
  -29.0965  -23.7859   20.5163 C   0  0  1  0  0  0
  -28.8673  -23.7550   22.0386 C   0  0  0  0  0  0
  -29.7714  -15.9036   22.4466 C   0  0  0  0  0  0
  -30.1942  -17.2374   20.3728 C   0  0  0  0  0  0
  -28.1186  -24.9269   19.8981 C   0  0  0  0  0  0
  -29.0212  -22.4046   19.8780 N   0  0  0  0  0  0
  -29.9702  -15.8433   20.9903 N   0  0  0  0  0  0
  -30.8129  -19.9867   19.5040 F   0  0  0  0  0  0
  -31.4770  -12.5626   19.1767 H   0  0  0  0  0  0
  -30.3740  -11.4605   19.9394 H   0  0  0  0  0  0
  -29.7932  -11.7611   17.5123 H   0  0  0  0  0  0
  -29.6430  -13.4860   17.7436 H   0  0  0  0  0  0
  -27.8930  -11.2918   18.8979 H   0  0  0  0  0  0
  -27.3825  -12.5509   17.8038 H   0  0  0  0  0  0
  -27.6615  -14.2588   19.5126 H   0  0  0  0  0  0
  -28.7220  -12.1004   21.3913 H   0  0  0  0  0  0
  -28.3995  -13.7430   21.8399 H   0  0  0  0  0  0
  -25.2742   -9.5709   22.4761 H   0  0  0  0  0  0
  -23.9988   -7.4654   22.7483 H   0  0  0  0  0  0
  -21.0817   -8.8780   19.8960 H   0  0  0  0  0  0
  -22.3661  -10.9686   19.6174 H   0  0  0  0  0  0
  -21.2017   -7.6146   23.9699 H   0  0  0  0  0  0
  -21.1485   -6.0523   25.9070 H   0  0  0  0  0  0
  -22.0592   -2.7600   23.2837 H   0  0  0  0  0  0
  -22.4071  -11.9958   22.4825 H   0  0  0  0  0  0
  -21.1082  -13.1326   22.2568 H   0  0  0  0  0  0
  -24.6712  -15.8518   20.5430 H   0  0  0  0  0  0
  -26.2927  -15.6262   20.1182 H   0  0  0  0  0  0
  -26.7196  -32.5424   23.1098 H   0  0  0  0  0  0
  -25.0073  -33.9724   25.0412 H   0  0  0  0  0  0
  -22.7209  -31.3011   21.4019 H   0  0  0  0  0  0
  -23.3750  -35.9613   23.3305 H   0  0  0  0  0  0
  -24.3574  -36.8903   22.2053 H   0  0  0  0  0  0
  -23.7233  -37.6483   23.6663 H   0  0  0  0  0  0
  -26.1105  -31.5359   20.6122 H   0  0  0  0  0  0
  -26.8485  -30.8216   22.0145 H   0  0  0  0  0  0
  -28.1121  -28.9286   21.2166 H   0  0  0  0  0  0
  -25.9544  -25.9404   18.9498 H   0  0  0  0  0  0
  -23.9742  -27.3287   18.9790 H   0  0  0  0  0  0
  -23.7716  -30.5979   19.4065 H   0  0  0  0  0  0
  -22.7613  -29.2546   19.8503 H   0  0  0  0  0  0
  -25.1293  -36.1938   25.0818 H   0  0  0  0  0  0
  -20.9973  -28.3272   24.1400 H   0  0  0  0  0  0
  -20.5682  -26.2309   23.3614 H   0  0  0  0  0  0
  -21.6645  -26.7447   22.1203 H   0  0  0  0  0  0
  -19.6910  -25.6298   21.1247 H   0  0  0  0  0  0
  -19.6679  -27.3198   20.6745 H   0  0  0  0  0  0
  -17.4198  -26.6676   21.4029 H   0  0  0  0  0  0
  -18.0323  -26.0085   22.9028 H   0  0  0  0  0  0
  -19.7936  -30.7282   24.2260 H   0  0  0  0  0  0
  -17.5013  -31.6268   24.5170 H   0  0  0  0  0  0
  -15.5352  -30.2989   23.7661 H   0  0  0  0  0  0
  -15.8675  -28.0832   22.7060 H   0  0  0  0  0  0
  -24.5886  -30.7118   25.7770 H   0  0  0  0  0  0
  -24.8917  -32.2927   26.4863 H   0  0  0  0  0  0
  -25.8012  -30.8929   27.0239 H   0  0  0  0  0  0
  -26.2947  -29.6748   24.1240 H   0  0  0  0  0  0
  -27.4031  -29.7289   25.4754 H   0  0  0  0  0  0
  -27.8827  -30.4288   23.9482 H   0  0  0  0  0  0
  -27.2690  -33.3641   26.2066 H   0  0  0  0  0  0
  -28.3869  -32.6880   25.0310 H   0  0  0  0  0  0
  -28.0748  -31.8466   26.5409 H   0  0  0  0  0  0
  -28.2608  -38.0083   24.7512 H   0  0  0  0  0  0
  -28.1065  -36.2615   24.6297 H   0  0  0  0  0  0
  -27.2299  -37.1451   25.8873 H   0  0  0  0  0  0
  -20.9406  -29.8774   21.6884 H   0  0  0  0  0  0
  -26.0173  -38.2851   24.1411 H   0  0  0  0  0  0
  -26.4462  -19.4718   22.3129 H   0  0  0  0  0  0
  -27.7767  -17.4900   21.7975 H   0  0  0  0  0  0
  -27.0310  -21.6831   21.4565 H   0  0  0  0  0  0
  -31.8053  -22.7033   19.2399 H   0  0  0  0  0  0
  -31.2959  -23.9726   18.1317 H   0  0  0  0  0  0
  -30.6553  -25.2570   20.0094 H   0  0  0  0  0  0
  -31.2168  -23.9527   21.0293 H   0  0  0  0  0  0
  -30.0052  -21.5748   18.1450 H   0  0  0  0  0  0
  -29.1195  -23.0500   17.9044 H   0  0  0  0  0  0
  -29.1222  -24.7176   22.4843 H   0  0  0  0  0  0
  -29.4764  -22.9973   22.5314 H   0  0  0  0  0  0
  -27.8246  -23.5678   22.2890 H   0  0  0  0  0  0
  -30.0951  -16.8618   22.8563 H   0  0  0  0  0  0
  -30.3396  -15.1396   22.9821 H   0  0  0  0  0  0
  -28.7239  -15.7641   22.7097 H   0  0  0  0  0  0
  -31.2319  -17.5055   20.5809 H   0  0  0  0  0  0
  -30.1510  -17.1122   19.2902 H   0  0  0  0  0  0
  -27.1154  -24.6344   20.2097 H   0  0  0  0  0  0
  -28.1234  -24.8482   18.8108 H   0  0  0  0  0  0
  1 25  1  0  0  0
  1 30  2  0  0  0
  1 86  1  0  0  0
  2  3  1  0  0  0
  2 25  1  0  0  0
  2 88  1  0  0  0
  2 89  1  0  0  0
  3  4  1  0  0  0
  3 90  1  0  0  0
  3 91  1  0  0  0
  4  5  1  0  0  0
  4 92  1  0  0  0
  4 93  1  0  0  0
  5  6  1  0  0  0
  5 26  1  0  0  0
  5 94  1  0  0  0
  6 25  1  0  0  0
  6 95  1  0  0  0
  6 96  1  0  0  0
  7  8  2  0  0  0
  7 26  1  0  0  0
  7 29  1  0  0  0
  8  9  1  0  0  0
  8 22  1  0  0  0
  9 10  1  0  0  0
  9 27  2  0  0  0
 10 11  2  0  0  0
 10 15  1  0  0  0
 11 12  1  0  0  0
 11 97  1  0  0  0
 12 13  2  0  0  0
 12 98  1  0  0  0
 13 14  1  0  0  0
 13 31  1  0  0  0
 14 15  2  0  0  0
 14 99  1  0  0  0
 15100  1  0  0  0
 16 17  2  0  0  0
 16 21  1  0  0  0
 16 31  1  0  0  0
 17 18  1  0  0  0
 17101  1  0  0  0
 18 19  2  0  0  0
 18102  1  0  0  0
 19 20  1  0  0  0
 19 24  1  0  0  0
 20 21  2  0  0  0
 20103  1  0  0  0
 21 23  1  0  0  0
 22 28  1  0  0  0
 22 32  2  0  0  0
 26 27  1  0  0  0
 28104  1  0  0  0
 28105  1  0  0  0
 29106  1  0  0  0
 29107  1  0  0  0
 33 34  1  0  0  0
 33 66  1  0  0  0
 33 70  2  0  0  0
 34 36  1  0  0  0
 34 59  1  0  0  0
 34108  1  0  0  0
 35 44  2  0  0  0
 35 45  1  0  0  0
 35 68  1  0  0  0
 36 56  1  0  0  0
 36109  1  0  0  0
 37 39  1  0  0  0
 37 47  1  0  0  0
 37 66  1  0  0  0
 37110  1  0  0  0
 38 43  2  0  0  0
 38 46  1  0  0  0
 38 47  1  0  0  0
 39 64  1  0  0  0
 39 67  2  0  0  0
 40 52  1  0  0  0
 40 53  2  0  0  0
 40 58  1  0  0  0
 41111  1  0  0  0
 41112  1  0  0  0
 41113  1  0  0  0
 41 48  1  0  0  0
 42 43  1  0  0  0
 42 66  1  0  0  0
 42114  1  0  0  0
 42115  1  0  0  0
 43 44  1  0  0  0
 44116  1  0  0  0
 45 46  2  0  0  0
 45117  1  0  0  0
 46118  1  0  0  0
 47119  1  0  0  0
 47120  1  0  0  0
 48 56  1  0  0  0
 48 65  1  0  0  0
 48121  1  0  0  0
 49 50  1  0  0  0
 49 53  1  0  0  0
 49 64  1  0  0  0
 49122  1  0  0  0
 50 51  1  0  0  0
 50123  1  0  0  0
 50124  1  0  0  0
 51 52  1  0  0  0
 51125  1  0  0  0
 51126  1  0  0  0
 52127  1  0  0  0
 52128  1  0  0  0
 53 54  1  0  0  0
 54 55  2  0  0  0
 54129  1  0  0  0
 55 57  1  0  0  0
 55130  1  0  0  0
 56 69  2  0  0  0
 57 58  2  0  0  0
 57131  1  0  0  0
 58132  1  0  0  0
 59 60  1  0  0  0
 59 61  1  0  0  0
 59 62  1  0  0  0
 60133  1  0  0  0
 60134  1  0  0  0
 60135  1  0  0  0
 61136  1  0  0  0
 61137  1  0  0  0
 61138  1  0  0  0
 62139  1  0  0  0
 62140  1  0  0  0
 62141  1  0  0  0
 63 65  1  0  0  0
 63142  1  0  0  0
 63143  1  0  0  0
 63144  1  0  0  0
 64145  1  0  0  0
 65146  1  0  0  0
 68 84  1  0  0  0
 71 72  2  0  0  0
 71 73  1  0  0  0
 71147  1  0  0  0
 72 74  1  0  0  0
 72148  1  0  0  0
 73 75  2  0  0  0
 73149  1  0  0  0
 74 76  2  0  0  0
 74 83  1  0  0  0
 75 76  1  0  0  0
 75 85  1  0  0  0
 76 87  1  0  0  0
 77 78  1  0  0  0
 77 79  1  0  0  0
 77150  1  0  0  0
 77151  1  0  0  0
 78 80  1  0  0  0
 78152  1  0  0  0
 78153  1  0  0  0
 79 85  1  0  0  0
 79154  1  0  0  0
 79155  1  0  0  0
 80 81  1  0  0  0
 80 84  1  0  0  0
 80 85  1  0  0  0
 81156  1  0  0  0
 81157  1  0  0  0
 81158  1  0  0  0
 82 86  1  0  0  0
 82159  1  0  0  0
 82160  1  0  0  0
 82161  1  0  0  0
 83 86  1  0  0  0
 83162  1  0  0  0
 83163  1  0  0  0
 84164  1  0  0  0
 84165  1  0  0  0
M  ISO  4   1 100  68 101  84 101  86 100
M  END
> <chiral flag>
0

> <version>
0

> <s_m_source_file>
/data/baiqing/PycharmProjects/Reinvent-master-3.2/result/LINK_invent/BTK/process_docking_weight1_custom_product_contain_oxygen_bond_distance_aromatic_linkinvent_7_9_3/rearranged_h_0024.sdf

> <i_m_source_file_index>
14

> <r_mmod_Potential_Energy-OPLS-2005>
435.291564941406

> <r_mmod_Stretch_Energy-OPLS-2005>
132.863693237305

> <r_mmod_Bend_Energy-OPLS-2005>
226.294769287109

> <r_mmod_Torsional_Energy-OPLS-2005>
334.567749023438

> <r_mmod_Improper_Torsional_Energy-OPLS-2005>
9.82055187225342

> <r_mmod_Van_der_Waal_Energy-OPLS-2005>
150.25505065918

> <r_mmod_Electrostatic_Energy-OPLS-2005>
-294.045684814453

> <r_mmod_Solvation_Energy-OPLS-2005>
-195.634857177734

> <b_mmod_Minimization_Converged-OPLS-2005>
0

> <r_mmod_RMS_Derivative-OPLS-2005>
1.7126544713974

$$$$
14
                    3D
 Structure written by MMmdl.
158167  0  0  1  0            999 V2000
  -30.6243  -14.6131   20.5409 C   0  0  0  0  0  0
  -30.4484  -12.3962   19.4368 C   0  0  0  0  0  0
  -29.5016  -12.5194   18.2225 C   0  0  0  0  0  0
  -28.0289  -12.3483   18.6379 C   0  0  0  0  0  0
  -27.6552  -13.2123   19.8649 C   0  0  2  0  0  0
  -28.6987  -13.0328   20.9894 C   0  0  0  0  0  0
  -25.2530  -13.8172   20.5648 C   0  0  0  0  0  0
  -24.1787  -13.0463   20.9203 C   0  0  0  0  0  0
  -24.6366  -11.6957   20.8744 C   0  0  0  0  0  0
  -23.9046  -10.4304   21.0411 C   0  0  0  0  0  0
  -24.3584   -9.4225   21.9207 C   0  0  0  0  0  0
  -23.6250   -8.2253   22.0728 C   0  0  0  0  0  0
  -22.4231   -8.0270   21.3548 C   0  0  0  0  0  0
  -21.9863   -9.0246   20.4671 C   0  0  0  0  0  0
  -22.7204  -10.2125   20.3105 C   0  0  0  0  0  0
  -21.6864   -6.0691   22.5256 C   0  0  0  0  0  0
  -21.3995   -6.5573   23.8187 C   0  0  0  0  0  0
  -21.3673   -5.6740   24.9176 C   0  0  0  0  0  0
  -21.6059   -4.3005   24.7233 C   0  0  0  0  0  0
  -21.8804   -3.8103   23.4351 C   0  0  0  0  0  0
  -21.9189   -4.6922   22.3408 C   0  0  0  0  0  0
  -22.7800  -13.5294   21.1823 C   0  0  0  0  0  0
  -22.1685   -4.2098   21.1003 F   0  0  0  0  0  0
  -21.5675   -3.4526   25.7764 F   0  0  0  0  0  0
  -30.0249  -13.3856   20.4468 N   0  0  0  0  0  0
  -26.2958  -12.9353   20.3278 N   0  0  0  0  0  0
  -25.9283  -11.6527   20.5715 N   0  0  0  0  0  0
  -22.0406  -12.8334   22.0364 N   0  0  0  0  0  0
  -25.4266  -15.1869   20.4070 N   0  0  0  0  0  0
  -31.7744  -14.8082   20.1284 O   0  0  0  0  0  0
  -21.6665   -6.8844   21.4209 O   0  0  0  0  0  0
  -22.3498  -14.5626   20.6700 O   0  0  0  0  0  0
  -24.6281  -31.8579   23.1980 C   0  0  0  0  0  0
  -25.9149  -32.4749   23.8292 C   0  0  1  0  0  0
  -27.2104  -27.2847   20.1219 C   0  0  0  0  0  0
  -25.5949  -33.8551   24.2243 N   0  0  0  0  0  0
  -23.4201  -30.4792   21.5386 C   0  0  2  0  0  0
  -24.8715  -28.9240   20.1121 C   0  0  0  0  0  0
  -22.7471  -29.4603   22.4863 C   0  0  0  0  0  0
  -18.0310  -28.1347   22.8480 C   0  0  0  0  0  0
  -24.1514  -36.7287   23.2598 C   0  0  0  0  0  0
  -25.9680  -30.7754   21.3764 C   0  0  0  0  0  0
  -26.0408  -29.3984   20.7217 C   0  0  0  0  0  0
  -27.2202  -28.5891   20.7147 C   0  0  0  0  0  0
  -26.0238  -26.8663   19.4943 C   0  0  0  0  0  0
  -24.8671  -27.6659   19.4860 C   0  0  0  0  0  0
  -23.6426  -29.8093   20.1562 C   0  0  0  0  0  0
  -25.4123  -36.3080   24.0325 C   0  0  1  0  0  0
  -20.5910  -28.3673   23.1273 C   0  0  2  0  0  0
  -20.6808  -26.9351   22.5467 C   0  0  0  0  0  0
  -19.5780  -26.6268   21.5253 C   0  0  0  0  0  0
  -18.1951  -26.7856   22.1631 C   0  0  0  0  0  0
  -19.1557  -28.8821   23.2867 C   0  0  0  0  0  0
  -18.9459  -30.1445   23.8851 C   0  0  0  0  0  0
  -17.6451  -30.6548   24.0560 C   0  0  0  0  0  0
  -25.9069  -34.9441   23.5090 C   0  0  0  0  0  0
  -16.5361  -29.9047   23.6307 C   0  0  0  0  0  0
  -16.7299  -28.6469   23.0332 C   0  0  0  0  0  0
  -26.4491  -31.6560   25.0683 C   0  0  0  0  0  0
  -25.3717  -31.3845   26.1429 C   0  0  0  0  0  0
  -27.0200  -30.2891   24.6231 C   0  0  0  0  0  0
  -27.6082  -32.4220   25.7449 C   0  0  0  0  0  0
  -27.5615  -37.1777   24.8461 C   0  0  0  0  0  0
  -21.4170  -29.3053   22.3666 N   0  0  0  0  0  0
  -26.4299  -37.3776   23.9435 N   0  0  0  0  0  0
  -24.6901  -31.0569   22.0927 N   0  0  0  0  0  0
  -23.4235  -28.8154   23.2911 O   0  0  0  0  0  0
  -28.3040  -26.4049   20.0896 O   0  0  0  0  0  0
  -26.5617  -34.8933   22.4659 O   0  0  0  0  0  0
  -23.5415  -32.1375   23.7302 O   0  0  0  0  0  0
  -28.4396  -19.1554   21.0097 C   0  0  0  0  0  0
  -28.6169  -17.7597   21.2274 C   0  0  0  0  0  0
  -30.8341  -17.8640   20.2691 C   0  0  0  0  0  0
  -29.4436  -19.9372   20.3724 C   0  0  0  0  0  0
  -29.7923  -17.0667   20.8305 C   0  0  0  0  0  0
  -30.6589  -19.2638   20.0375 C   0  0  0  0  0  0
  -28.9115  -22.4042   20.6743 C   0  0  0  0  0  0
  -27.6915  -22.1046   18.0450 C   0  0  0  0  0  0
  -27.6482  -23.5329   18.6320 C   0  0  0  0  0  0
  -29.0068  -21.4154   18.4266 C   0  0  0  0  0  0
  -28.0047  -23.6123   20.1487 C   0  0  2  0  0  0
  -28.2033  -25.0910   20.7982 C   0  0  0  0  0  0
  -29.1345  -21.2884   19.8887 N   0  0  0  0  0  0
  -29.8132  -15.6155   20.9972 N   0  0  0  0  0  0
  -29.3608  -22.4706   21.8253 O   0  0  0  0  0  0
  -31.6697  -19.9511   19.4466 F   0  0  0  0  0  0
  -31.4831  -12.5318   19.1192 H   0  0  0  0  0  0
  -30.4118  -11.3920   19.8543 H   0  0  0  0  0  0
  -29.7596  -11.7929   17.4531 H   0  0  0  0  0  0
  -29.6255  -13.4966   17.7563 H   0  0  0  0  0  0
  -27.8567  -11.2955   18.8644 H   0  0  0  0  0  0
  -27.3803  -12.5982   17.7996 H   0  0  0  0  0  0
  -27.6866  -14.2480   19.5234 H   0  0  0  0  0  0
  -28.7009  -11.9989   21.3355 H   0  0  0  0  0  0
  -28.4269  -13.6357   21.8563 H   0  0  0  0  0  0
  -25.2716   -9.5710   22.4827 H   0  0  0  0  0  0
  -23.9937   -7.4643   22.7433 H   0  0  0  0  0  0
  -21.0770   -8.8805   19.8999 H   0  0  0  0  0  0
  -22.3640  -10.9672   19.6255 H   0  0  0  0  0  0
  -21.1944   -7.6074   23.9685 H   0  0  0  0  0  0
  -21.1548   -6.0482   25.9088 H   0  0  0  0  0  0
  -22.0581   -2.7558   23.2893 H   0  0  0  0  0  0
  -22.4007  -12.0083   22.4916 H   0  0  0  0  0  0
  -21.1085  -13.1530   22.2649 H   0  0  0  0  0  0
  -24.6511  -15.8346   20.4794 H   0  0  0  0  0  0
  -26.2729  -15.6180   20.0570 H   0  0  0  0  0  0
  -26.7211  -32.5453   23.1012 H   0  0  0  0  0  0
  -25.0183  -33.9682   25.0436 H   0  0  0  0  0  0
  -22.7107  -31.2961   21.3884 H   0  0  0  0  0  0
  -23.3768  -35.9627   23.3253 H   0  0  0  0  0  0
  -24.3613  -36.8887   22.2012 H   0  0  0  0  0  0
  -23.7254  -37.6481   23.6611 H   0  0  0  0  0  0
  -26.1194  -31.5382   20.6132 H   0  0  0  0  0  0
  -26.8366  -30.8136   22.0192 H   0  0  0  0  0  0
  -28.1275  -28.9483   21.1795 H   0  0  0  0  0  0
  -25.9947  -25.9058   19.0116 H   0  0  0  0  0  0
  -23.9778  -27.2925   19.0021 H   0  0  0  0  0  0
  -23.7808  -30.5839   19.4010 H   0  0  0  0  0  0
  -22.7586  -29.2481   19.8434 H   0  0  0  0  0  0
  -25.1275  -36.1909   25.0798 H   0  0  0  0  0  0
  -20.9992  -28.3330   24.1402 H   0  0  0  0  0  0
  -20.5607  -26.2280   23.3704 H   0  0  0  0  0  0
  -21.6706  -26.7338   22.1354 H   0  0  0  0  0  0
  -19.6912  -25.6112   21.1429 H   0  0  0  0  0  0
  -19.6742  -27.2938   20.6678 H   0  0  0  0  0  0
  -17.4196  -26.6545   21.4086 H   0  0  0  0  0  0
  -18.0422  -25.9992   22.9031 H   0  0  0  0  0  0
  -19.7955  -30.7305   24.2131 H   0  0  0  0  0  0
  -17.5010  -31.6218   24.5161 H   0  0  0  0  0  0
  -15.5355  -30.2953   23.7554 H   0  0  0  0  0  0
  -15.8720  -28.0786   22.7045 H   0  0  0  0  0  0
  -24.6018  -30.6963   25.7944 H   0  0  0  0  0  0
  -24.8733  -32.3032   26.4548 H   0  0  0  0  0  0
  -25.8051  -30.9392   27.0401 H   0  0  0  0  0  0
  -26.2757  -29.6706   24.1197 H   0  0  0  0  0  0
  -27.3674  -29.7111   25.4812 H   0  0  0  0  0  0
  -27.8777  -30.3978   23.9571 H   0  0  0  0  0  0
  -27.2738  -33.3526   26.2069 H   0  0  0  0  0  0
  -28.3892  -32.6739   25.0257 H   0  0  0  0  0  0
  -28.0764  -31.8301   26.5332 H   0  0  0  0  0  0
  -28.2619  -38.0081   24.7476 H   0  0  0  0  0  0
  -28.1083  -36.2598   24.6256 H   0  0  0  0  0  0
  -27.2363  -37.1451   25.8868 H   0  0  0  0  0  0
  -20.9267  -29.8800   21.6954 H   0  0  0  0  0  0
  -26.0184  -38.2859   24.1386 H   0  0  0  0  0  0
  -27.4839  -19.6034   21.2653 H   0  0  0  0  0  0
  -27.7945  -17.2146   21.6753 H   0  0  0  0  0  0
  -31.7750  -17.4173   19.9766 H   0  0  0  0  0  0
  -27.5854  -22.1315   16.9562 H   0  0  0  0  0  0
  -26.8482  -21.5074   18.4102 H   0  0  0  0  0  0
  -26.6303  -23.8981   18.4690 H   0  0  0  0  0  0
  -28.3011  -24.1843   18.0490 H   0  0  0  0  0  0
  -29.8586  -21.9734   18.0264 H   0  0  0  0  0  0
  -29.0547  -20.4340   17.9494 H   0  0  0  0  0  0
  -27.0714  -23.2881   20.6166 H   0  0  0  0  0  0
  -29.1175  -25.0609   21.3929 H   0  0  0  0  0  0
  -27.4312  -25.1947   21.5639 H   0  0  0  0  0  0
  -28.9411  -15.2413   21.3389 H   0  0  0  0  0  0
  1 25  1  0  0  0
  1 30  2  0  0  0
  1 84  1  0  0  0
  2  3  1  0  0  0
  2 25  1  0  0  0
  2 87  1  0  0  0
  2 88  1  0  0  0
  3  4  1  0  0  0
  3 89  1  0  0  0
  3 90  1  0  0  0
  4  5  1  0  0  0
  4 91  1  0  0  0
  4 92  1  0  0  0
  5  6  1  0  0  0
  5 26  1  0  0  0
  5 93  1  0  0  0
  6 25  1  0  0  0
  6 94  1  0  0  0
  6 95  1  0  0  0
  7  8  2  0  0  0
  7 26  1  0  0  0
  7 29  1  0  0  0
  8  9  1  0  0  0
  8 22  1  0  0  0
  9 10  1  0  0  0
  9 27  2  0  0  0
 10 11  2  0  0  0
 10 15  1  0  0  0
 11 12  1  0  0  0
 11 96  1  0  0  0
 12 13  2  0  0  0
 12 97  1  0  0  0
 13 14  1  0  0  0
 13 31  1  0  0  0
 14 15  2  0  0  0
 14 98  1  0  0  0
 15 99  1  0  0  0
 16 17  2  0  0  0
 16 21  1  0  0  0
 16 31  1  0  0  0
 17 18  1  0  0  0
 17100  1  0  0  0
 18 19  2  0  0  0
 18101  1  0  0  0
 19 20  1  0  0  0
 19 24  1  0  0  0
 20 21  2  0  0  0
 20102  1  0  0  0
 21 23  1  0  0  0
 22 28  1  0  0  0
 22 32  2  0  0  0
 26 27  1  0  0  0
 28103  1  0  0  0
 28104  1  0  0  0
 29105  1  0  0  0
 29106  1  0  0  0
 33 34  1  0  0  0
 33 66  1  0  0  0
 33 70  2  0  0  0
 34 36  1  0  0  0
 34 59  1  0  0  0
 34107  1  0  0  0
 35 44  2  0  0  0
 35 45  1  0  0  0
 35 68  1  0  0  0
 36 56  1  0  0  0
 36108  1  0  0  0
 37 39  1  0  0  0
 37 47  1  0  0  0
 37 66  1  0  0  0
 37109  1  0  0  0
 38 43  2  0  0  0
 38 46  1  0  0  0
 38 47  1  0  0  0
 39 64  1  0  0  0
 39 67  2  0  0  0
 40 52  1  0  0  0
 40 53  2  0  0  0
 40 58  1  0  0  0
 41110  1  0  0  0
 41111  1  0  0  0
 41112  1  0  0  0
 41 48  1  0  0  0
 42 43  1  0  0  0
 42 66  1  0  0  0
 42113  1  0  0  0
 42114  1  0  0  0
 43 44  1  0  0  0
 44115  1  0  0  0
 45 46  2  0  0  0
 45116  1  0  0  0
 46117  1  0  0  0
 47118  1  0  0  0
 47119  1  0  0  0
 48 56  1  0  0  0
 48 65  1  0  0  0
 48120  1  0  0  0
 49 50  1  0  0  0
 49 53  1  0  0  0
 49 64  1  0  0  0
 49121  1  0  0  0
 50 51  1  0  0  0
 50122  1  0  0  0
 50123  1  0  0  0
 51 52  1  0  0  0
 51124  1  0  0  0
 51125  1  0  0  0
 52126  1  0  0  0
 52127  1  0  0  0
 53 54  1  0  0  0
 54 55  2  0  0  0
 54128  1  0  0  0
 55 57  1  0  0  0
 55129  1  0  0  0
 56 69  2  0  0  0
 57 58  2  0  0  0
 57130  1  0  0  0
 58131  1  0  0  0
 59 60  1  0  0  0
 59 61  1  0  0  0
 59 62  1  0  0  0
 60132  1  0  0  0
 60133  1  0  0  0
 60134  1  0  0  0
 61135  1  0  0  0
 61136  1  0  0  0
 61137  1  0  0  0
 62138  1  0  0  0
 62139  1  0  0  0
 62140  1  0  0  0
 63 65  1  0  0  0
 63141  1  0  0  0
 63142  1  0  0  0
 63143  1  0  0  0
 64144  1  0  0  0
 65145  1  0  0  0
 68 82  1  0  0  0
 71 72  2  0  0  0
 71 74  1  0  0  0
 71146  1  0  0  0
 72 75  1  0  0  0
 72147  1  0  0  0
 73 75  2  0  0  0
 73 76  1  0  0  0
 73148  1  0  0  0
 74 76  2  0  0  0
 74 83  1  0  0  0
 75 84  1  0  0  0
 76 86  1  0  0  0
 77 81  1  0  0  0
 77 83  1  0  0  0
 77 85  2  0  0  0
 78 79  1  0  0  0
 78 80  1  0  0  0
 78149  1  0  0  0
 78150  1  0  0  0
 79 81  1  0  0  0
 79151  1  0  0  0
 79152  1  0  0  0
 80 83  1  0  0  0
 80153  1  0  0  0
 80154  1  0  0  0
 81 82  1  0  0  0
 81155  1  0  0  0
 82156  1  0  0  0
 82157  1  0  0  0
 84158  1  0  0  0
M  ISO  4   1 100  68 101  82 101  84 100
M  END
> <chiral flag>
0

> <version>
0

> <s_m_source_file>
/data/baiqing/PycharmProjects/Reinvent-master-3.2/result/LINK_invent/BTK/process_docking_weight1_custom_product_contain_oxygen_bond_distance_aromatic_linkinvent_7_9_3/rearranged_h_0024.sdf

> <i_m_source_file_index>
15

> <r_mmod_Potential_Energy-OPLS-2005>
240.714477539062

> <r_mmod_Stretch_Energy-OPLS-2005>
96.2031555175781

> <r_mmod_Bend_Energy-OPLS-2005>
173.957412719727

> <r_mmod_Torsional_Energy-OPLS-2005>
331.731506347656

> <r_mmod_Improper_Torsional_Energy-OPLS-2005>
5.76158475875854

> <r_mmod_Van_der_Waal_Energy-OPLS-2005>
139.327911376953

> <r_mmod_Electrostatic_Energy-OPLS-2005>
-338.388824462891

> <r_mmod_Solvation_Energy-OPLS-2005>
-219.654388427734

> <b_mmod_Minimization_Converged-OPLS-2005>
0

> <r_mmod_RMS_Derivative-OPLS-2005>
9.48785305023193

$$$$
15
                    3D
 Structure written by MMmdl.
156165  0  0  1  0            999 V2000
  -30.5217  -14.9217   20.4425 C   0  0  0  0  0  0
  -30.4492  -12.5670   19.5055 C   0  0  0  0  0  0
  -29.5327  -12.5604   18.2603 C   0  0  0  0  0  0
  -28.0634  -12.3402   18.6692 C   0  0  0  0  0  0
  -27.6404  -13.2459   19.8536 C   0  0  2  0  0  0
  -28.6781  -13.2325   20.9972 C   0  0  0  0  0  0
  -25.2495  -13.8203   20.5683 C   0  0  0  0  0  0
  -24.1819  -13.0439   20.9201 C   0  0  0  0  0  0
  -24.6430  -11.6920   20.8752 C   0  0  0  0  0  0
  -23.9103  -10.4299   21.0408 C   0  0  0  0  0  0
  -24.3637   -9.4207   21.9187 C   0  0  0  0  0  0
  -23.6306   -8.2246   22.0745 C   0  0  0  0  0  0
  -22.4289   -8.0297   21.3536 C   0  0  0  0  0  0
  -21.9940   -9.0277   20.4635 C   0  0  0  0  0  0
  -22.7274  -10.2149   20.3045 C   0  0  0  0  0  0
  -21.6855   -6.0755   22.5284 C   0  0  0  0  0  0
  -21.4013   -6.5644   23.8219 C   0  0  0  0  0  0
  -21.3653   -5.6783   24.9179 C   0  0  0  0  0  0
  -21.6032   -4.3049   24.7217 C   0  0  0  0  0  0
  -21.8819   -3.8154   23.4338 C   0  0  0  0  0  0
  -21.9188   -4.6981   22.3400 C   0  0  0  0  0  0
  -22.7825  -13.5201   21.1873 C   0  0  0  0  0  0
  -22.1661   -4.2164   21.0983 F   0  0  0  0  0  0
  -21.5625   -3.4534   25.7730 F   0  0  0  0  0  0
  -29.9678  -13.6430   20.4224 N   0  0  0  0  0  0
  -26.2936  -12.9433   20.3272 N   0  0  0  0  0  0
  -25.9363  -11.6569   20.5740 N   0  0  0  0  0  0
  -22.0462  -12.8206   22.0427 N   0  0  0  0  0  0
  -25.4219  -15.1939   20.4069 N   0  0  0  0  0  0
  -31.6987  -15.0410   20.0800 O   0  0  0  0  0  0
  -21.6626   -6.8916   21.4254 O   0  0  0  0  0  0
  -22.3517  -14.5517   20.6733 O   0  0  0  0  0  0
  -24.6378  -31.8397   23.1858 C   0  0  0  0  0  0
  -25.9146  -32.4687   23.8216 C   0  0  1  0  0  0
  -27.2212  -27.1439   20.1684 C   0  0  0  0  0  0
  -25.5888  -33.8474   24.2137 N   0  0  0  0  0  0
  -23.4435  -30.4526   21.5328 C   0  0  2  0  0  0
  -24.8960  -28.8785   20.1134 C   0  0  0  0  0  0
  -22.7544  -29.4480   22.4910 C   0  0  0  0  0  0
  -18.0262  -28.1408   22.8486 C   0  0  0  0  0  0
  -24.1454  -36.7223   23.2639 C   0  0  0  0  0  0
  -25.9935  -30.7232   21.3771 C   0  0  0  0  0  0
  -26.0711  -29.3318   20.7282 C   0  0  0  0  0  0
  -27.2361  -28.4795   20.7381 C   0  0  0  0  0  0
  -26.0187  -26.7834   19.5234 C   0  0  0  0  0  0
  -24.8819  -27.6183   19.4950 C   0  0  0  0  0  0
  -23.6652  -29.7693   20.1561 C   0  0  0  0  0  0
  -25.4102  -36.3029   24.0314 C   0  0  1  0  0  0
  -20.5873  -28.3678   23.1286 C   0  0  2  0  0  0
  -20.6758  -26.9387   22.5427 C   0  0  0  0  0  0
  -19.5748  -26.6404   21.5214 C   0  0  0  0  0  0
  -18.1923  -26.7949   22.1616 C   0  0  0  0  0  0
  -19.1525  -28.8866   23.2876 C   0  0  0  0  0  0
  -18.9455  -30.1470   23.8893 C   0  0  0  0  0  0
  -17.6462  -30.6627   24.0552 C   0  0  0  0  0  0
  -25.9053  -34.9400   23.5050 C   0  0  0  0  0  0
  -16.5344  -29.9121   23.6358 C   0  0  0  0  0  0
  -16.7247  -28.6525   23.0395 C   0  0  0  0  0  0
  -26.4468  -31.6573   25.0655 C   0  0  0  0  0  0
  -25.3652  -31.3785   26.1356 C   0  0  0  0  0  0
  -27.0308  -30.2981   24.6204 C   0  0  0  0  0  0
  -27.6004  -32.4307   25.7460 C   0  0  0  0  0  0
  -27.5556  -37.1758   24.8460 C   0  0  0  0  0  0
  -21.4225  -29.3009   22.3685 N   0  0  0  0  0  0
  -26.4258  -37.3759   23.9420 N   0  0  0  0  0  0
  -24.7118  -31.0260   22.0881 N   0  0  0  0  0  0
  -23.4204  -28.8025   23.3051 O   0  0  0  0  0  0
  -28.2884  -26.1825   20.2400 O   0  0  0  0  0  0
  -26.5667  -34.8919   22.4646 O   0  0  0  0  0  0
  -23.5500  -32.1191   23.7123 O   0  0  0  0  0  0
  -29.4211  -19.9531   21.4495 C   0  0  0  0  0  0
  -29.7007  -18.2354   19.2857 C   0  0  0  0  0  0
  -29.4242  -20.6363   20.1811 C   0  0  0  0  0  0
  -29.7326  -17.5602   20.5495 C   0  0  0  0  0  0
  -29.5538  -18.5087   21.6225 C   0  0  0  0  0  0
  -29.5580  -19.6722   19.1129 C   0  0  0  0  0  0
  -31.2435  -22.8230   21.5439 C   0  0  0  0  0  0
  -29.9533  -23.6098   21.8075 C   0  0  0  0  0  0
  -31.0570  -22.1739   20.1522 C   0  0  0  0  0  0
  -29.3001  -23.5476   20.4395 C   0  0  2  0  0  0
  -28.0735  -24.6435   20.1262 C   0  0  0  0  0  0
  -29.6047  -22.0983   19.8963 N   0  0  0  0  0  0
  -29.7070  -16.0373   20.7522 N   0  0  0  0  0  0
  -29.5119  -18.0218   22.8879 F   0  0  0  0  0  0
  -29.5992  -20.1430   17.8399 F   0  0  0  0  0  0
  -31.4849  -12.7232   19.1988 H   0  0  0  0  0  0
  -30.4301  -11.5943   20.0018 H   0  0  0  0  0  0
  -29.8515  -11.7941   17.5536 H   0  0  0  0  0  0
  -29.6273  -13.5136   17.7369 H   0  0  0  0  0  0
  -27.9547  -11.2934   18.9529 H   0  0  0  0  0  0
  -27.4021  -12.4931   17.8156 H   0  0  0  0  0  0
  -27.6202  -14.2612   19.4553 H   0  0  0  0  0  0
  -28.7477  -12.2426   21.4489 H   0  0  0  0  0  0
  -28.3750  -13.9096   21.7973 H   0  0  0  0  0  0
  -25.2782   -9.5662   22.4766 H   0  0  0  0  0  0
  -24.0002   -7.4622   22.7456 H   0  0  0  0  0  0
  -21.0863   -8.8797   19.8943 H   0  0  0  0  0  0
  -22.3744  -10.9688   19.6142 H   0  0  0  0  0  0
  -21.2015   -7.6154   23.9741 H   0  0  0  0  0  0
  -21.1468   -6.0509   25.9086 H   0  0  0  0  0  0
  -22.0609   -2.7621   23.2819 H   0  0  0  0  0  0
  -22.4045  -11.9850   22.4819 H   0  0  0  0  0  0
  -21.1074  -13.1249   22.2612 H   0  0  0  0  0  0
  -24.6514  -15.8472   20.4951 H   0  0  0  0  0  0
  -26.2632  -15.6233   20.0465 H   0  0  0  0  0  0
  -26.7173  -32.5296   23.0916 H   0  0  0  0  0  0
  -24.9961  -33.9545   25.0230 H   0  0  0  0  0  0
  -22.7439  -31.2750   21.3702 H   0  0  0  0  0  0
  -23.3752  -35.9514   23.3307 H   0  0  0  0  0  0
  -24.3532  -36.8842   22.2047 H   0  0  0  0  0  0
  -23.7167  -37.6397   23.6680 H   0  0  0  0  0  0
  -26.1344  -31.4759   20.5994 H   0  0  0  0  0  0
  -26.8692  -30.7893   22.0100 H   0  0  0  0  0  0
  -28.1337  -28.8183   21.2403 H   0  0  0  0  0  0
  -25.9299  -25.8141   19.0556 H   0  0  0  0  0  0
  -23.9853  -27.2609   19.0075 H   0  0  0  0  0  0
  -23.7710  -30.5261   19.3777 H   0  0  0  0  0  0
  -22.7840  -29.1910   19.8730 H   0  0  0  0  0  0
  -25.1314  -36.1845   25.0815 H   0  0  0  0  0  0
  -20.9924  -28.3240   24.1419 H   0  0  0  0  0  0
  -20.5648  -26.2253   23.3608 H   0  0  0  0  0  0
  -21.6637  -26.7420   22.1229 H   0  0  0  0  0  0
  -19.6915  -25.6322   21.1246 H   0  0  0  0  0  0
  -19.6743  -27.3209   20.6744 H   0  0  0  0  0  0
  -17.4189  -26.6641   21.4034 H   0  0  0  0  0  0
  -18.0333  -26.0132   22.9047 H   0  0  0  0  0  0
  -19.7949  -30.7271   24.2275 H   0  0  0  0  0  0
  -17.5037  -31.6317   24.5147 H   0  0  0  0  0  0
  -15.5352  -30.3029   23.7753 H   0  0  0  0  0  0
  -15.8616  -28.0854   22.7159 H   0  0  0  0  0  0
  -24.5854  -30.7091   25.7718 H   0  0  0  0  0  0
  -24.8780  -32.2953   26.4674 H   0  0  0  0  0  0
  -25.7932  -30.9057   27.0199 H   0  0  0  0  0  0
  -26.2882  -29.6739   24.1226 H   0  0  0  0  0  0
  -27.3933  -29.7274   25.4757 H   0  0  0  0  0  0
  -27.8798  -30.4223   23.9484 H   0  0  0  0  0  0
  -27.2627  -33.3646   26.1962 H   0  0  0  0  0  0
  -28.3908  -32.6788   25.0369 H   0  0  0  0  0  0
  -28.0563  -31.8446   26.5438 H   0  0  0  0  0  0
  -28.2606  -38.0035   24.7581 H   0  0  0  0  0  0
  -28.1049  -36.2593   24.6268 H   0  0  0  0  0  0
  -27.2267  -37.1361   25.8855 H   0  0  0  0  0  0
  -20.9407  -29.8675   21.6831 H   0  0  0  0  0  0
  -26.0137  -38.2806   24.1539 H   0  0  0  0  0  0
  -29.3592  -20.5522   22.3443 H   0  0  0  0  0  0
  -29.7714  -17.6390   18.3897 H   0  0  0  0  0  0
  -31.3942  -22.0713   22.3188 H   0  0  0  0  0  0
  -32.1212  -23.4727   21.5414 H   0  0  0  0  0  0
  -30.1450  -24.6353   22.1347 H   0  0  0  0  0  0
  -29.3321  -23.1193   22.5584 H   0  0  0  0  0  0
  -31.6208  -21.2372   20.0891 H   0  0  0  0  0  0
  -31.5029  -22.8025   19.3788 H   0  0  0  0  0  0
  -30.0004  -24.1298   19.8335 H   0  0  0  0  0  0
  -27.7522  -24.4611   19.0989 H   0  0  0  0  0  0
  -27.2173  -24.3836   20.7509 H   0  0  0  0  0  0
  -28.8582  -15.7338   21.2052 H   0  0  0  0  0  0
  1 25  1  0  0  0
  1 30  2  0  0  0
  1 83  1  0  0  0
  2  3  1  0  0  0
  2 25  1  0  0  0
  2 86  1  0  0  0
  2 87  1  0  0  0
  3  4  1  0  0  0
  3 88  1  0  0  0
  3 89  1  0  0  0
  4  5  1  0  0  0
  4 90  1  0  0  0
  4 91  1  0  0  0
  5  6  1  0  0  0
  5 26  1  0  0  0
  5 92  1  0  0  0
  6 25  1  0  0  0
  6 93  1  0  0  0
  6 94  1  0  0  0
  7  8  2  0  0  0
  7 26  1  0  0  0
  7 29  1  0  0  0
  8  9  1  0  0  0
  8 22  1  0  0  0
  9 10  1  0  0  0
  9 27  2  0  0  0
 10 11  2  0  0  0
 10 15  1  0  0  0
 11 12  1  0  0  0
 11 95  1  0  0  0
 12 13  2  0  0  0
 12 96  1  0  0  0
 13 14  1  0  0  0
 13 31  1  0  0  0
 14 15  2  0  0  0
 14 97  1  0  0  0
 15 98  1  0  0  0
 16 17  2  0  0  0
 16 21  1  0  0  0
 16 31  1  0  0  0
 17 18  1  0  0  0
 17 99  1  0  0  0
 18 19  2  0  0  0
 18100  1  0  0  0
 19 20  1  0  0  0
 19 24  1  0  0  0
 20 21  2  0  0  0
 20101  1  0  0  0
 21 23  1  0  0  0
 22 28  1  0  0  0
 22 32  2  0  0  0
 26 27  1  0  0  0
 28102  1  0  0  0
 28103  1  0  0  0
 29104  1  0  0  0
 29105  1  0  0  0
 33 34  1  0  0  0
 33 66  1  0  0  0
 33 70  2  0  0  0
 34 36  1  0  0  0
 34 59  1  0  0  0
 34106  1  0  0  0
 35 44  2  0  0  0
 35 45  1  0  0  0
 35 68  1  0  0  0
 36 56  1  0  0  0
 36107  1  0  0  0
 37 39  1  0  0  0
 37 47  1  0  0  0
 37 66  1  0  0  0
 37108  1  0  0  0
 38 43  2  0  0  0
 38 46  1  0  0  0
 38 47  1  0  0  0
 39 64  1  0  0  0
 39 67  2  0  0  0
 40 52  1  0  0  0
 40 53  2  0  0  0
 40 58  1  0  0  0
 41109  1  0  0  0
 41110  1  0  0  0
 41111  1  0  0  0
 41 48  1  0  0  0
 42 43  1  0  0  0
 42 66  1  0  0  0
 42112  1  0  0  0
 42113  1  0  0  0
 43 44  1  0  0  0
 44114  1  0  0  0
 45 46  2  0  0  0
 45115  1  0  0  0
 46116  1  0  0  0
 47117  1  0  0  0
 47118  1  0  0  0
 48 56  1  0  0  0
 48 65  1  0  0  0
 48119  1  0  0  0
 49 50  1  0  0  0
 49 53  1  0  0  0
 49 64  1  0  0  0
 49120  1  0  0  0
 50 51  1  0  0  0
 50121  1  0  0  0
 50122  1  0  0  0
 51 52  1  0  0  0
 51123  1  0  0  0
 51124  1  0  0  0
 52125  1  0  0  0
 52126  1  0  0  0
 53 54  1  0  0  0
 54 55  2  0  0  0
 54127  1  0  0  0
 55 57  1  0  0  0
 55128  1  0  0  0
 56 69  2  0  0  0
 57 58  2  0  0  0
 57129  1  0  0  0
 58130  1  0  0  0
 59 60  1  0  0  0
 59 61  1  0  0  0
 59 62  1  0  0  0
 60131  1  0  0  0
 60132  1  0  0  0
 60133  1  0  0  0
 61134  1  0  0  0
 61135  1  0  0  0
 61136  1  0  0  0
 62137  1  0  0  0
 62138  1  0  0  0
 62139  1  0  0  0
 63 65  1  0  0  0
 63140  1  0  0  0
 63141  1  0  0  0
 63142  1  0  0  0
 64143  1  0  0  0
 65144  1  0  0  0
 68 81  1  0  0  0
 71 73  2  0  0  0
 71 75  1  0  0  0
 71145  1  0  0  0
 72 74  1  0  0  0
 72 76  2  0  0  0
 72146  1  0  0  0
 73 76  1  0  0  0
 73 82  1  0  0  0
 74 75  2  0  0  0
 74 83  1  0  0  0
 75 84  1  0  0  0
 76 85  1  0  0  0
 77 78  1  0  0  0
 77 79  1  0  0  0
 77147  1  0  0  0
 77148  1  0  0  0
 78 80  1  0  0  0
 78149  1  0  0  0
 78150  1  0  0  0
 79 82  1  0  0  0
 79151  1  0  0  0
 79152  1  0  0  0
 80 81  1  0  0  0
 80 82  1  0  0  0
 80153  1  0  0  0
 81154  1  0  0  0
 81155  1  0  0  0
 83156  1  0  0  0
M  ISO  4   1 100  68 101  81 101  83 100
M  END
> <chiral flag>
0

> <version>
0

> <s_m_source_file>
/data/baiqing/PycharmProjects/Reinvent-master-3.2/result/LINK_invent/BTK/process_docking_weight1_custom_product_contain_oxygen_bond_distance_aromatic_linkinvent_7_9_3/rearranged_h_0024.sdf

> <i_m_source_file_index>
16

> <r_mmod_Potential_Energy-OPLS-2005>
688.581665039062

> <r_mmod_Stretch_Energy-OPLS-2005>
230.535690307617

> <r_mmod_Bend_Energy-OPLS-2005>
399.356506347656

> <r_mmod_Torsional_Energy-OPLS-2005>
309.806854248047

> <r_mmod_Improper_Torsional_Energy-OPLS-2005>
14.3776206970215

> <r_mmod_Van_der_Waal_Energy-OPLS-2005>
141.478607177734

> <r_mmod_Electrostatic_Energy-OPLS-2005>
-360.910217285156

> <r_mmod_Solvation_Energy-OPLS-2005>
-223.867889404297

> <b_mmod_Minimization_Converged-OPLS-2005>
0

> <r_mmod_RMS_Derivative-OPLS-2005>
3.73912048339844

$$$$
16
                    3D
 Structure written by MMmdl.
155163  0  0  1  0            999 V2000
  -30.6347  -14.7466   20.5061 C   0  0  0  0  0  0
  -30.4357  -12.4719   19.4637 C   0  0  0  0  0  0
  -29.5093  -12.5075   18.2281 C   0  0  0  0  0  0
  -28.0361  -12.3265   18.6410 C   0  0  0  0  0  0
  -27.6411  -13.2271   19.8399 C   0  0  2  0  0  0
  -28.6824  -13.1373   20.9697 C   0  0  0  0  0  0
  -25.2525  -13.8190   20.5670 C   0  0  0  0  0  0
  -24.1808  -13.0445   20.9194 C   0  0  0  0  0  0
  -24.6388  -11.6918   20.8731 C   0  0  0  0  0  0
  -23.9060  -10.4297   21.0393 C   0  0  0  0  0  0
  -24.3614   -9.4208   21.9170 C   0  0  0  0  0  0
  -23.6292   -8.2242   22.0742 C   0  0  0  0  0  0
  -22.4268   -8.0276   21.3541 C   0  0  0  0  0  0
  -21.9904   -9.0248   20.4643 C   0  0  0  0  0  0
  -22.7231  -10.2131   20.3046 C   0  0  0  0  0  0
  -21.6855   -6.0736   22.5278 C   0  0  0  0  0  0
  -21.4012   -6.5637   23.8214 C   0  0  0  0  0  0
  -21.3663   -5.6785   24.9171 C   0  0  0  0  0  0
  -21.6048   -4.3049   24.7223 C   0  0  0  0  0  0
  -21.8822   -3.8144   23.4346 C   0  0  0  0  0  0
  -21.9186   -4.6961   22.3399 C   0  0  0  0  0  0
  -22.7835  -13.5233   21.1856 C   0  0  0  0  0  0
  -22.1658   -4.2151   21.0981 F   0  0  0  0  0  0
  -21.5628   -3.4531   25.7735 F   0  0  0  0  0  0
  -29.9816  -13.5299   20.3998 N   0  0  0  0  0  0
  -26.2932  -12.9390   20.3214 N   0  0  0  0  0  0
  -25.9313  -11.6542   20.5708 N   0  0  0  0  0  0
  -22.0472  -12.8223   22.0415 N   0  0  0  0  0  0
  -25.4248  -15.1914   20.4163 N   0  0  0  0  0  0
  -31.8211  -14.8146   20.1692 O   0  0  0  0  0  0
  -21.6637   -6.8872   21.4240 O   0  0  0  0  0  0
  -22.3520  -14.5532   20.6680 O   0  0  0  0  0  0
  -24.6311  -31.8540   23.1956 C   0  0  0  0  0  0
  -25.9128  -32.4750   23.8318 C   0  0  1  0  0  0
  -27.2340  -27.2665   20.1500 C   0  0  0  0  0  0
  -25.5918  -33.8550   24.2244 N   0  0  0  0  0  0
  -23.4301  -30.4721   21.5378 C   0  0  2  0  0  0
  -24.8802  -28.9055   20.1229 C   0  0  0  0  0  0
  -22.7504  -29.4595   22.4910 C   0  0  0  0  0  0
  -18.0290  -28.1388   22.8479 C   0  0  0  0  0  0
  -24.1489  -36.7286   23.2644 C   0  0  0  0  0  0
  -25.9728  -30.7695   21.3736 C   0  0  0  0  0  0
  -26.0490  -29.3873   20.7262 C   0  0  0  0  0  0
  -27.2320  -28.5824   20.7201 C   0  0  0  0  0  0
  -26.0421  -26.8348   19.5354 C   0  0  0  0  0  0
  -24.8799  -27.6358   19.5175 C   0  0  0  0  0  0
  -23.6516  -29.7949   20.1586 C   0  0  0  0  0  0
  -25.4115  -36.3070   24.0329 C   0  0  1  0  0  0
  -20.5897  -28.3700   23.1265 C   0  0  2  0  0  0
  -20.6776  -26.9416   22.5409 C   0  0  0  0  0  0
  -19.5753  -26.6381   21.5211 C   0  0  0  0  0  0
  -18.1934  -26.7926   22.1623 C   0  0  0  0  0  0
  -19.1544  -28.8860   23.2865 C   0  0  0  0  0  0
  -18.9466  -30.1458   23.8887 C   0  0  0  0  0  0
  -17.6467  -30.6590   24.0560 C   0  0  0  0  0  0
  -25.9050  -34.9438   23.5095 C   0  0  0  0  0  0
  -16.5357  -29.9088   23.6328 C   0  0  0  0  0  0
  -16.7277  -28.6505   23.0348 C   0  0  0  0  0  0
  -26.4496  -31.6582   25.0714 C   0  0  0  0  0  0
  -25.3714  -31.3740   26.1434 C   0  0  0  0  0  0
  -27.0356  -30.3001   24.6208 C   0  0  0  0  0  0
  -27.6049  -32.4328   25.7489 C   0  0  0  0  0  0
  -27.5576  -37.1802   24.8468 C   0  0  0  0  0  0
  -21.4212  -29.3044   22.3652 N   0  0  0  0  0  0
  -26.4293  -37.3768   23.9405 N   0  0  0  0  0  0
  -24.6967  -31.0510   22.0926 N   0  0  0  0  0  0
  -23.4195  -28.8146   23.3026 O   0  0  0  0  0  0
  -28.3621  -26.4260   20.0894 O   0  0  0  0  0  0
  -26.5631  -34.8919   22.4670 O   0  0  0  0  0  0
  -23.5460  -32.1355   23.7246 O   0  0  0  0  0  0
  -29.9542  -19.8813   18.8676 C   0  0  0  0  0  0
  -30.3919  -18.7172   18.2066 C   0  0  0  0  0  0
  -29.4046  -18.4812   20.7690 C   0  0  0  0  0  0
  -29.3949  -19.8032   20.1525 C   0  0  0  0  0  0
  -29.9089  -17.2501   20.1473 C   0  0  0  0  0  0
  -30.3384  -17.4306   18.7917 C   0  0  0  0  0  0
  -29.5621  -15.9635   22.2796 C   0  0  0  0  0  0
  -28.2864  -23.6361   20.1667 C   0  0  0  0  0  0
  -29.2831  -22.4290   20.6138 C   0  0  0  0  0  0
  -28.4263  -25.1196   20.8217 C   0  0  0  0  0  0
  -28.7911  -20.9925   20.7233 N   0  0  0  0  0  0
  -29.9322  -15.9108   20.8568 N   0  0  0  0  0  0
  -30.7465  -16.1378   17.7165 Cl  0  0  0  0  0  0
  -31.4726  -12.6074   19.1519 H   0  0  0  0  0  0
  -30.4012  -11.4946   19.9475 H   0  0  0  0  0  0
  -29.7983  -11.7301   17.5199 H   0  0  0  0  0  0
  -29.6276  -13.4552   17.7019 H   0  0  0  0  0  0
  -27.8975  -11.2792   18.9094 H   0  0  0  0  0  0
  -27.3773  -12.5119   17.7919 H   0  0  0  0  0  0
  -27.6421  -14.2528   19.4691 H   0  0  0  0  0  0
  -28.7325  -12.1228   21.3690 H   0  0  0  0  0  0
  -28.3712  -13.7627   21.8012 H   0  0  0  0  0  0
  -25.2765   -9.5688   22.4733 H   0  0  0  0  0  0
  -24.0002   -7.4640   22.7467 H   0  0  0  0  0  0
  -21.0832   -8.8771   19.8959 H   0  0  0  0  0  0
  -22.3685  -10.9663   19.6151 H   0  0  0  0  0  0
  -21.2006   -7.6144   23.9719 H   0  0  0  0  0  0
  -21.1483   -6.0511   25.9076 H   0  0  0  0  0  0
  -22.0594   -2.7605   23.2840 H   0  0  0  0  0  0
  -22.4094  -11.9909   22.4845 H   0  0  0  0  0  0
  -21.1083  -13.1247   22.2599 H   0  0  0  0  0  0
  -24.6642  -15.8491   20.5424 H   0  0  0  0  0  0
  -26.2880  -15.6333   20.1253 H   0  0  0  0  0  0
  -26.7198  -32.5411   23.1066 H   0  0  0  0  0  0
  -25.0051  -33.9681   25.0381 H   0  0  0  0  0  0
  -22.7270  -31.2937   21.3844 H   0  0  0  0  0  0
  -23.3746  -35.9626   23.3315 H   0  0  0  0  0  0
  -24.3574  -36.8898   22.2056 H   0  0  0  0  0  0
  -23.7251  -37.6494   23.6659 H   0  0  0  0  0  0
  -26.1080  -31.5245   20.5980 H   0  0  0  0  0  0
  -26.8517  -30.8250   22.0048 H   0  0  0  0  0  0
  -28.1385  -28.9559   21.1750 H   0  0  0  0  0  0
  -26.0129  -25.8621   19.0648 H   0  0  0  0  0  0
  -23.9837  -27.2609   19.0422 H   0  0  0  0  0  0
  -23.7829  -30.5648   19.3975 H   0  0  0  0  0  0
  -22.7709  -29.2278   19.8528 H   0  0  0  0  0  0
  -25.1299  -36.1920   25.0822 H   0  0  0  0  0  0
  -20.9984  -28.3279   24.1388 H   0  0  0  0  0  0
  -20.5672  -26.2312   23.3615 H   0  0  0  0  0  0
  -21.6644  -26.7436   22.1208 H   0  0  0  0  0  0
  -19.6914  -25.6289   21.1246 H   0  0  0  0  0  0
  -19.6688  -27.3185   20.6735 H   0  0  0  0  0  0
  -17.4202  -26.6667   21.4026 H   0  0  0  0  0  0
  -18.0337  -26.0074   22.9025 H   0  0  0  0  0  0
  -19.7943  -30.7272   24.2256 H   0  0  0  0  0  0
  -17.5023  -31.6268   24.5163 H   0  0  0  0  0  0
  -15.5356  -30.2987   23.7658 H   0  0  0  0  0  0
  -15.8676  -28.0823   22.7065 H   0  0  0  0  0  0
  -24.5881  -30.7102   25.7759 H   0  0  0  0  0  0
  -24.8916  -32.2913   26.4853 H   0  0  0  0  0  0
  -25.8021  -30.8915   27.0215 H   0  0  0  0  0  0
  -26.2950  -29.6736   24.1223 H   0  0  0  0  0  0
  -27.4027  -29.7280   25.4738 H   0  0  0  0  0  0
  -27.8825  -30.4281   23.9465 H   0  0  0  0  0  0
  -27.2652  -33.3628   26.2062 H   0  0  0  0  0  0
  -28.3859  -32.6889   25.0318 H   0  0  0  0  0  0
  -28.0717  -31.8458   26.5407 H   0  0  0  0  0  0
  -28.2607  -38.0086   24.7494 H   0  0  0  0  0  0
  -28.1057  -36.2615   24.6318 H   0  0  0  0  0  0
  -27.2291  -37.1484   25.8872 H   0  0  0  0  0  0
  -20.9405  -29.8754   21.6842 H   0  0  0  0  0  0
  -26.0171  -38.2847   24.1386 H   0  0  0  0  0  0
  -29.9878  -20.8219   18.3365 H   0  0  0  0  0  0
  -30.7495  -18.8130   17.1916 H   0  0  0  0  0  0
  -28.9895  -18.4212   21.7615 H   0  0  0  0  0  0
  -30.0940  -16.7680   22.7878 H   0  0  0  0  0  0
  -29.8163  -15.0596   22.8399 H   0  0  0  0  0  0
  -28.4899  -16.1326   22.3877 H   0  0  0  0  0  0
  -27.2628  -23.3130   20.3562 H   0  0  0  0  0  0
  -28.3517  -23.7314   19.0829 H   0  0  0  0  0  0
  -29.6481  -22.6748   21.6127 H   0  0  0  0  0  0
  -30.1762  -22.4609   19.9872 H   0  0  0  0  0  0
  -29.4098  -25.1418   21.2918 H   0  0  0  0  0  0
  -27.7373  -25.1778   21.6641 H   0  0  0  0  0  0
  -28.2523  -20.8179   21.5702 H   0  0  0  0  0  0
  1 25  1  0  0  0
  1 30  2  0  0  0
  1 82  1  0  0  0
  2  3  1  0  0  0
  2 25  1  0  0  0
  2 84  1  0  0  0
  2 85  1  0  0  0
  3  4  1  0  0  0
  3 86  1  0  0  0
  3 87  1  0  0  0
  4  5  1  0  0  0
  4 88  1  0  0  0
  4 89  1  0  0  0
  5  6  1  0  0  0
  5 26  1  0  0  0
  5 90  1  0  0  0
  6 25  1  0  0  0
  6 91  1  0  0  0
  6 92  1  0  0  0
  7  8  2  0  0  0
  7 26  1  0  0  0
  7 29  1  0  0  0
  8  9  1  0  0  0
  8 22  1  0  0  0
  9 10  1  0  0  0
  9 27  2  0  0  0
 10 11  2  0  0  0
 10 15  1  0  0  0
 11 12  1  0  0  0
 11 93  1  0  0  0
 12 13  2  0  0  0
 12 94  1  0  0  0
 13 14  1  0  0  0
 13 31  1  0  0  0
 14 15  2  0  0  0
 14 95  1  0  0  0
 15 96  1  0  0  0
 16 17  2  0  0  0
 16 21  1  0  0  0
 16 31  1  0  0  0
 17 18  1  0  0  0
 17 97  1  0  0  0
 18 19  2  0  0  0
 18 98  1  0  0  0
 19 20  1  0  0  0
 19 24  1  0  0  0
 20 21  2  0  0  0
 20 99  1  0  0  0
 21 23  1  0  0  0
 22 28  1  0  0  0
 22 32  2  0  0  0
 26 27  1  0  0  0
 28100  1  0  0  0
 28101  1  0  0  0
 29102  1  0  0  0
 29103  1  0  0  0
 33 34  1  0  0  0
 33 66  1  0  0  0
 33 70  2  0  0  0
 34 36  1  0  0  0
 34 59  1  0  0  0
 34104  1  0  0  0
 35 44  2  0  0  0
 35 45  1  0  0  0
 35 68  1  0  0  0
 36 56  1  0  0  0
 36105  1  0  0  0
 37 39  1  0  0  0
 37 47  1  0  0  0
 37 66  1  0  0  0
 37106  1  0  0  0
 38 43  2  0  0  0
 38 46  1  0  0  0
 38 47  1  0  0  0
 39 64  1  0  0  0
 39 67  2  0  0  0
 40 52  1  0  0  0
 40 53  2  0  0  0
 40 58  1  0  0  0
 41107  1  0  0  0
 41108  1  0  0  0
 41109  1  0  0  0
 41 48  1  0  0  0
 42 43  1  0  0  0
 42 66  1  0  0  0
 42110  1  0  0  0
 42111  1  0  0  0
 43 44  1  0  0  0
 44112  1  0  0  0
 45 46  2  0  0  0
 45113  1  0  0  0
 46114  1  0  0  0
 47115  1  0  0  0
 47116  1  0  0  0
 48 56  1  0  0  0
 48 65  1  0  0  0
 48117  1  0  0  0
 49 50  1  0  0  0
 49 53  1  0  0  0
 49 64  1  0  0  0
 49118  1  0  0  0
 50 51  1  0  0  0
 50119  1  0  0  0
 50120  1  0  0  0
 51 52  1  0  0  0
 51121  1  0  0  0
 51122  1  0  0  0
 52123  1  0  0  0
 52124  1  0  0  0
 53 54  1  0  0  0
 54 55  2  0  0  0
 54125  1  0  0  0
 55 57  1  0  0  0
 55126  1  0  0  0
 56 69  2  0  0  0
 57 58  2  0  0  0
 57127  1  0  0  0
 58128  1  0  0  0
 59 60  1  0  0  0
 59 61  1  0  0  0
 59 62  1  0  0  0
 60129  1  0  0  0
 60130  1  0  0  0
 60131  1  0  0  0
 61132  1  0  0  0
 61133  1  0  0  0
 61134  1  0  0  0
 62135  1  0  0  0
 62136  1  0  0  0
 62137  1  0  0  0
 63 65  1  0  0  0
 63138  1  0  0  0
 63139  1  0  0  0
 63140  1  0  0  0
 64141  1  0  0  0
 65142  1  0  0  0
 68 80  1  0  0  0
 71 72  2  0  0  0
 71 74  1  0  0  0
 71143  1  0  0  0
 72 76  1  0  0  0
 72144  1  0  0  0
 73 74  2  0  0  0
 73 75  1  0  0  0
 73145  1  0  0  0
 74 81  1  0  0  0
 75 76  2  0  0  0
 75 82  1  0  0  0
 76 83  1  0  0  0
 77 82  1  0  0  0
 77146  1  0  0  0
 77147  1  0  0  0
 77148  1  0  0  0
 78 79  1  0  0  0
 78 80  1  0  0  0
 78149  1  0  0  0
 78150  1  0  0  0
 79 81  1  0  0  0
 79151  1  0  0  0
 79152  1  0  0  0
 80153  1  0  0  0
 80154  1  0  0  0
 81155  1  0  0  0
M  ISO  4   1 100  68 101  80 101  82 100
M  END
> <chiral flag>
0

> <version>
0

> <s_m_source_file>
/data/baiqing/PycharmProjects/Reinvent-master-3.2/result/LINK_invent/BTK/process_docking_weight1_custom_product_contain_oxygen_bond_distance_aromatic_linkinvent_7_9_3/rearranged_h_0024.sdf

> <i_m_source_file_index>
17

> <r_mmod_Potential_Energy-OPLS-2005>
367.384002685547

> <r_mmod_Stretch_Energy-OPLS-2005>
139.197647094727

> <r_mmod_Bend_Energy-OPLS-2005>
201.841598510742

> <r_mmod_Torsional_Energy-OPLS-2005>
316.201812744141

> <r_mmod_Improper_Torsional_Energy-OPLS-2005>
6.11966228485107

> <r_mmod_Van_der_Waal_Energy-OPLS-2005>
146.502975463867

> <r_mmod_Electrostatic_Energy-OPLS-2005>
-312.758697509766

> <r_mmod_Solvation_Energy-OPLS-2005>
-206.567718505859

> <b_mmod_Minimization_Converged-OPLS-2005>
0

> <r_mmod_RMS_Derivative-OPLS-2005>
1.86879456043243

$$$$
17
                    3D
 Structure written by MMmdl.
155164  0  0  1  0            999 V2000
  -30.6140  -14.6311   20.5068 C   0  0  0  0  0  0
  -30.4400  -12.3888   19.4460 C   0  0  0  0  0  0
  -29.5066  -12.5110   18.2201 C   0  0  0  0  0  0
  -28.0293  -12.3454   18.6313 C   0  0  0  0  0  0
  -27.6536  -13.2110   19.8630 C   0  0  2  0  0  0
  -28.6979  -13.0518   20.9914 C   0  0  0  0  0  0
  -25.2557  -13.8152   20.5654 C   0  0  0  0  0  0
  -24.1824  -13.0431   20.9190 C   0  0  0  0  0  0
  -24.6384  -11.6902   20.8738 C   0  0  0  0  0  0
  -23.9048  -10.4290   21.0407 C   0  0  0  0  0  0
  -24.3609   -9.4204   21.9178 C   0  0  0  0  0  0
  -23.6290   -8.2235   22.0749 C   0  0  0  0  0  0
  -22.4271   -8.0273   21.3542 C   0  0  0  0  0  0
  -21.9899   -9.0244   20.4645 C   0  0  0  0  0  0
  -22.7222  -10.2127   20.3055 C   0  0  0  0  0  0
  -21.6849   -6.0728   22.5277 C   0  0  0  0  0  0
  -21.4011   -6.5635   23.8211 C   0  0  0  0  0  0
  -21.3660   -5.6788   24.9176 C   0  0  0  0  0  0
  -21.6046   -4.3050   24.7225 C   0  0  0  0  0  0
  -21.8818   -3.8141   23.4347 C   0  0  0  0  0  0
  -21.9192   -4.6957   22.3402 C   0  0  0  0  0  0
  -22.7849  -13.5229   21.1860 C   0  0  0  0  0  0
  -22.1661   -4.2142   21.0980 F   0  0  0  0  0  0
  -21.5633   -3.4534   25.7739 F   0  0  0  0  0  0
  -30.0145  -13.4008   20.4331 N   0  0  0  0  0  0
  -26.2982  -12.9321   20.3293 N   0  0  0  0  0  0
  -25.9306  -11.6486   20.5743 N   0  0  0  0  0  0
  -22.0490  -12.8231   22.0421 N   0  0  0  0  0  0
  -25.4264  -15.1868   20.4014 N   0  0  0  0  0  0
  -31.7748  -14.8031   20.1226 O   0  0  0  0  0  0
  -21.6636   -6.8870   21.4240 O   0  0  0  0  0  0
  -22.3537  -14.5535   20.6704 O   0  0  0  0  0  0
  -24.6254  -31.8613   23.2035 C   0  0  0  0  0  0
  -25.9105  -32.4788   23.8357 C   0  0  1  0  0  0
  -27.2218  -27.3284   20.1086 C   0  0  0  0  0  0
  -25.5918  -33.8587   24.2283 N   0  0  0  0  0  0
  -23.4180  -30.4870   21.5475 C   0  0  2  0  0  0
  -24.8622  -28.9477   20.1097 C   0  0  0  0  0  0
  -22.7471  -29.4636   22.4942 C   0  0  0  0  0  0
  -18.0287  -28.1382   22.8492 C   0  0  0  0  0  0
  -24.1483  -36.7303   23.2637 C   0  0  0  0  0  0
  -25.9595  -30.7956   21.3719 C   0  0  0  0  0  0
  -26.0329  -29.4247   20.7129 C   0  0  0  0  0  0
  -27.2159  -28.6272   20.7033 C   0  0  0  0  0  0
  -26.0255  -26.9086   19.4773 C   0  0  0  0  0  0
  -24.8602  -27.6939   19.4835 C   0  0  0  0  0  0
  -23.6291  -29.8249   20.1619 C   0  0  0  0  0  0
  -25.4108  -36.3092   24.0330 C   0  0  1  0  0  0
  -20.5888  -28.3690   23.1286 C   0  0  2  0  0  0
  -20.6777  -26.9412   22.5418 C   0  0  0  0  0  0
  -19.5751  -26.6384   21.5220 C   0  0  0  0  0  0
  -18.1930  -26.7929   22.1629 C   0  0  0  0  0  0
  -19.1539  -28.8851   23.2888 C   0  0  0  0  0  0
  -18.9463  -30.1451   23.8904 C   0  0  0  0  0  0
  -17.6465  -30.6587   24.0565 C   0  0  0  0  0  0
  -25.9049  -34.9461   23.5110 C   0  0  0  0  0  0
  -16.5355  -29.9089   23.6327 C   0  0  0  0  0  0
  -16.7275  -28.6505   23.0351 C   0  0  0  0  0  0
  -26.4478  -31.6589   25.0723 C   0  0  0  0  0  0
  -25.3705  -31.3750   26.1450 C   0  0  0  0  0  0
  -27.0303  -30.3007   24.6164 C   0  0  0  0  0  0
  -27.6044  -32.4313   25.7494 C   0  0  0  0  0  0
  -27.5582  -37.1804   24.8460 C   0  0  0  0  0  0
  -21.4187  -29.3042   22.3682 N   0  0  0  0  0  0
  -26.4289  -37.3786   23.9411 N   0  0  0  0  0  0
  -24.6869  -31.0638   22.0980 N   0  0  0  0  0  0
  -23.4202  -28.8171   23.3013 O   0  0  0  0  0  0
  -28.3355  -26.4725   20.1620 O   0  0  0  0  0  0
  -26.5630  -34.8930   22.4684 O   0  0  0  0  0  0
  -23.5421  -32.1408   23.7372 O   0  0  0  0  0  0
  -31.0024  -19.2810   20.2831 C   0  0  0  0  0  0
  -31.0310  -17.8607   20.4234 C   0  0  0  0  0  0
  -28.6725  -17.8895   20.8543 C   0  0  0  0  0  0
  -29.8081  -20.0611   20.3957 C   0  0  0  0  0  0
  -29.8572  -17.1178   20.7041 C   0  0  0  0  0  0
  -28.6399  -19.3085   20.7039 C   0  0  0  0  0  0
  -30.6911  -22.2834   19.5457 C   0  0  0  0  0  0
  -30.3341  -23.7743   19.4948 C   0  0  0  0  0  0
  -28.6620  -22.4453   20.5774 C   0  0  0  0  0  0
  -29.1537  -23.9390   20.4527 C   0  0  2  0  0  0
  -28.0724  -25.0224   20.0326 C   0  0  0  0  0  0
  -29.7799  -21.5328   20.2096 N   0  0  0  0  0  0
  -29.7870  -15.6631   20.8679 N   0  0  0  0  0  0
  -31.7171  -21.8766   18.9936 O   0  0  0  0  0  0
  -27.4473  -19.9343   20.8498 F   0  0  0  0  0  0
  -31.4799  -12.5212   19.1430 H   0  0  0  0  0  0
  -30.3794  -11.3885   19.8775 H   0  0  0  0  0  0
  -29.7717  -11.7679   17.4668 H   0  0  0  0  0  0
  -29.6455  -13.4853   17.7492 H   0  0  0  0  0  0
  -27.8651  -11.2911   18.8569 H   0  0  0  0  0  0
  -27.3744  -12.5793   17.7911 H   0  0  0  0  0  0
  -27.6754  -14.2482   19.5279 H   0  0  0  0  0  0
  -28.7082  -12.0238   21.3569 H   0  0  0  0  0  0
  -28.4423  -13.6682   21.8549 H   0  0  0  0  0  0
  -25.2757   -9.5678   22.4747 H   0  0  0  0  0  0
  -24.0003   -7.4620   22.7460 H   0  0  0  0  0  0
  -21.0827   -8.8752   19.8953 H   0  0  0  0  0  0
  -22.3670  -10.9662   19.6163 H   0  0  0  0  0  0
  -21.2000   -7.6143   23.9713 H   0  0  0  0  0  0
  -21.1487   -6.0520   25.9079 H   0  0  0  0  0  0
  -22.0600   -2.7603   23.2846 H   0  0  0  0  0  0
  -22.4108  -11.9900   22.4825 H   0  0  0  0  0  0
  -21.1104  -13.1254   22.2621 H   0  0  0  0  0  0
  -24.6482  -15.8323   20.4845 H   0  0  0  0  0  0
  -26.2522  -15.6135   20.0022 H   0  0  0  0  0  0
  -26.7180  -32.5452   23.1118 H   0  0  0  0  0  0
  -25.0026  -33.9727   25.0399 H   0  0  0  0  0  0
  -22.7116  -31.3083   21.4084 H   0  0  0  0  0  0
  -23.3743  -35.9635   23.3289 H   0  0  0  0  0  0
  -24.3585  -36.8933   22.2057 H   0  0  0  0  0  0
  -23.7236  -37.6503   23.6661 H   0  0  0  0  0  0
  -26.0892  -31.5584   20.6028 H   0  0  0  0  0  0
  -26.8420  -30.8444   21.9987 H   0  0  0  0  0  0
  -28.1126  -28.9892   21.1863 H   0  0  0  0  0  0
  -25.9524  -25.9552   18.9770 H   0  0  0  0  0  0
  -23.9642  -27.3238   19.0043 H   0  0  0  0  0  0
  -23.7425  -30.6021   19.4055 H   0  0  0  0  0  0
  -22.7489  -29.2527   19.8627 H   0  0  0  0  0  0
  -25.1284  -36.1947   25.0821 H   0  0  0  0  0  0
  -20.9991  -28.3268   24.1403 H   0  0  0  0  0  0
  -20.5682  -26.2299   23.3620 H   0  0  0  0  0  0
  -21.6645  -26.7442   22.1209 H   0  0  0  0  0  0
  -19.6915  -25.6297   21.1242 H   0  0  0  0  0  0
  -19.6687  -27.3201   20.6756 H   0  0  0  0  0  0
  -17.4205  -26.6679   21.4024 H   0  0  0  0  0  0
  -18.0325  -26.0070   22.9022 H   0  0  0  0  0  0
  -19.7939  -30.7264   24.2276 H   0  0  0  0  0  0
  -17.5020  -31.6268   24.5168 H   0  0  0  0  0  0
  -15.5357  -30.2997   23.7643 H   0  0  0  0  0  0
  -15.8674  -28.0830   22.7058 H   0  0  0  0  0  0
  -24.5882  -30.7089   25.7793 H   0  0  0  0  0  0
  -24.8885  -32.2924   26.4838 H   0  0  0  0  0  0
  -25.8018  -30.8963   27.0250 H   0  0  0  0  0  0
  -26.2872  -29.6787   24.1160 H   0  0  0  0  0  0
  -27.3970  -29.7232   25.4661 H   0  0  0  0  0  0
  -27.8753  -30.4288   23.9397 H   0  0  0  0  0  0
  -27.2657  -33.3609   26.2081 H   0  0  0  0  0  0
  -28.3848  -32.6882   25.0318 H   0  0  0  0  0  0
  -28.0715  -31.8429   26.5405 H   0  0  0  0  0  0
  -28.2592  -38.0108   24.7518 H   0  0  0  0  0  0
  -28.1081  -36.2644   24.6254 H   0  0  0  0  0  0
  -27.2311  -37.1417   25.8865 H   0  0  0  0  0  0
  -20.9362  -29.8762   21.6892 H   0  0  0  0  0  0
  -26.0168  -38.2857   24.1419 H   0  0  0  0  0  0
  -31.9492  -19.7601   20.0877 H   0  0  0  0  0  0
  -31.9797  -17.3538   20.3186 H   0  0  0  0  0  0
  -27.7418  -17.3923   21.0848 H   0  0  0  0  0  0
  -30.0583  -24.0283   18.4713 H   0  0  0  0  0  0
  -31.1823  -24.3952   19.7847 H   0  0  0  0  0  0
  -27.8328  -22.2662   19.8904 H   0  0  0  0  0  0
  -28.3027  -22.2372   21.5861 H   0  0  0  0  0  0
  -29.5497  -24.2291   21.4270 H   0  0  0  0  0  0
  -27.1906  -24.8015   20.6368 H   0  0  0  0  0  0
  -27.7948  -24.8146   18.9986 H   0  0  0  0  0  0
  -28.8860  -15.3249   21.1693 H   0  0  0  0  0  0
  1 25  1  0  0  0
  1 30  2  0  0  0
  1 83  1  0  0  0
  2  3  1  0  0  0
  2 25  1  0  0  0
  2 86  1  0  0  0
  2 87  1  0  0  0
  3  4  1  0  0  0
  3 88  1  0  0  0
  3 89  1  0  0  0
  4  5  1  0  0  0
  4 90  1  0  0  0
  4 91  1  0  0  0
  5  6  1  0  0  0
  5 26  1  0  0  0
  5 92  1  0  0  0
  6 25  1  0  0  0
  6 93  1  0  0  0
  6 94  1  0  0  0
  7  8  2  0  0  0
  7 26  1  0  0  0
  7 29  1  0  0  0
  8  9  1  0  0  0
  8 22  1  0  0  0
  9 10  1  0  0  0
  9 27  2  0  0  0
 10 11  2  0  0  0
 10 15  1  0  0  0
 11 12  1  0  0  0
 11 95  1  0  0  0
 12 13  2  0  0  0
 12 96  1  0  0  0
 13 14  1  0  0  0
 13 31  1  0  0  0
 14 15  2  0  0  0
 14 97  1  0  0  0
 15 98  1  0  0  0
 16 17  2  0  0  0
 16 21  1  0  0  0
 16 31  1  0  0  0
 17 18  1  0  0  0
 17 99  1  0  0  0
 18 19  2  0  0  0
 18100  1  0  0  0
 19 20  1  0  0  0
 19 24  1  0  0  0
 20 21  2  0  0  0
 20101  1  0  0  0
 21 23  1  0  0  0
 22 28  1  0  0  0
 22 32  2  0  0  0
 26 27  1  0  0  0
 28102  1  0  0  0
 28103  1  0  0  0
 29104  1  0  0  0
 29105  1  0  0  0
 33 34  1  0  0  0
 33 66  1  0  0  0
 33 70  2  0  0  0
 34 36  1  0  0  0
 34 59  1  0  0  0
 34106  1  0  0  0
 35 44  2  0  0  0
 35 45  1  0  0  0
 35 68  1  0  0  0
 36 56  1  0  0  0
 36107  1  0  0  0
 37 39  1  0  0  0
 37 47  1  0  0  0
 37 66  1  0  0  0
 37108  1  0  0  0
 38 43  2  0  0  0
 38 46  1  0  0  0
 38 47  1  0  0  0
 39 64  1  0  0  0
 39 67  2  0  0  0
 40 52  1  0  0  0
 40 53  2  0  0  0
 40 58  1  0  0  0
 41109  1  0  0  0
 41110  1  0  0  0
 41111  1  0  0  0
 41 48  1  0  0  0
 42 43  1  0  0  0
 42 66  1  0  0  0
 42112  1  0  0  0
 42113  1  0  0  0
 43 44  1  0  0  0
 44114  1  0  0  0
 45 46  2  0  0  0
 45115  1  0  0  0
 46116  1  0  0  0
 47117  1  0  0  0
 47118  1  0  0  0
 48 56  1  0  0  0
 48 65  1  0  0  0
 48119  1  0  0  0
 49 50  1  0  0  0
 49 53  1  0  0  0
 49 64  1  0  0  0
 49120  1  0  0  0
 50 51  1  0  0  0
 50121  1  0  0  0
 50122  1  0  0  0
 51 52  1  0  0  0
 51123  1  0  0  0
 51124  1  0  0  0
 52125  1  0  0  0
 52126  1  0  0  0
 53 54  1  0  0  0
 54 55  2  0  0  0
 54127  1  0  0  0
 55 57  1  0  0  0
 55128  1  0  0  0
 56 69  2  0  0  0
 57 58  2  0  0  0
 57129  1  0  0  0
 58130  1  0  0  0
 59 60  1  0  0  0
 59 61  1  0  0  0
 59 62  1  0  0  0
 60131  1  0  0  0
 60132  1  0  0  0
 60133  1  0  0  0
 61134  1  0  0  0
 61135  1  0  0  0
 61136  1  0  0  0
 62137  1  0  0  0
 62138  1  0  0  0
 62139  1  0  0  0
 63 65  1  0  0  0
 63140  1  0  0  0
 63141  1  0  0  0
 63142  1  0  0  0
 64143  1  0  0  0
 65144  1  0  0  0
 68 81  1  0  0  0
 71 72  2  0  0  0
 71 74  1  0  0  0
 71145  1  0  0  0
 72 75  1  0  0  0
 72146  1  0  0  0
 73 75  2  0  0  0
 73 76  1  0  0  0
 73147  1  0  0  0
 74 76  2  0  0  0
 74 82  1  0  0  0
 75 83  1  0  0  0
 76 85  1  0  0  0
 77 78  1  0  0  0
 77 82  1  0  0  0
 77 84  2  0  0  0
 78 80  1  0  0  0
 78148  1  0  0  0
 78149  1  0  0  0
 79 80  1  0  0  0
 79 82  1  0  0  0
 79150  1  0  0  0
 79151  1  0  0  0
 80 81  1  0  0  0
 80152  1  0  0  0
 81153  1  0  0  0
 81154  1  0  0  0
 83155  1  0  0  0
M  ISO  4   1 100  68 101  81 101  83 100
M  END
> <chiral flag>
0

> <version>
0

> <s_m_source_file>
/data/baiqing/PycharmProjects/Reinvent-master-3.2/result/LINK_invent/BTK/process_docking_weight1_custom_product_contain_oxygen_bond_distance_aromatic_linkinvent_7_9_3/rearranged_h_0024.sdf

> <i_m_source_file_index>
18

> <r_mmod_Potential_Energy-OPLS-2005>
105.39094543457

> <r_mmod_Stretch_Energy-OPLS-2005>
78.9217987060547

> <r_mmod_Bend_Energy-OPLS-2005>
162.170928955078

> <r_mmod_Torsional_Energy-OPLS-2005>
260.158233642578

> <r_mmod_Improper_Torsional_Energy-OPLS-2005>
4.72309446334839

> <r_mmod_Van_der_Waal_Energy-OPLS-2005>
152.288299560547

> <r_mmod_Electrostatic_Energy-OPLS-2005>
-380.979858398438

> <r_mmod_Solvation_Energy-OPLS-2005>
-217.99153137207

> <b_mmod_Minimization_Converged-OPLS-2005>
0

> <r_mmod_RMS_Derivative-OPLS-2005>
0.966116070747375

$$$$
18
                    3D
 Structure written by MMmdl.
159168  0  0  1  0            999 V2000
  -30.7121  -14.4125   20.6817 C   0  0  0  0  0  0
  -30.4260  -12.3021   19.4190 C   0  0  0  0  0  0
  -29.4977  -12.5066   18.2066 C   0  0  0  0  0  0
  -28.0224  -12.3428   18.6204 C   0  0  0  0  0  0
  -27.6627  -13.1871   19.8707 C   0  0  2  0  0  0
  -28.6895  -12.9423   20.9942 C   0  0  0  0  0  0
  -25.2615  -13.8112   20.5652 C   0  0  0  0  0  0
  -24.1844  -13.0436   20.9144 C   0  0  0  0  0  0
  -24.6377  -11.6882   20.8725 C   0  0  0  0  0  0
  -23.9047  -10.4299   21.0405 C   0  0  0  0  0  0
  -24.3583   -9.4236   21.9212 C   0  0  0  0  0  0
  -23.6275   -8.2262   22.0789 C   0  0  0  0  0  0
  -22.4268   -8.0282   21.3552 C   0  0  0  0  0  0
  -21.9927   -9.0226   20.4621 C   0  0  0  0  0  0
  -22.7243  -10.2116   20.3021 C   0  0  0  0  0  0
  -21.6846   -6.0737   22.5292 C   0  0  0  0  0  0
  -21.4002   -6.5649   23.8211 C   0  0  0  0  0  0
  -21.3652   -5.6795   24.9187 C   0  0  0  0  0  0
  -21.6045   -4.3065   24.7248 C   0  0  0  0  0  0
  -21.8824   -3.8155   23.4361 C   0  0  0  0  0  0
  -21.9187   -4.6964   22.3404 C   0  0  0  0  0  0
  -22.7870  -13.5244   21.1813 C   0  0  0  0  0  0
  -22.1670   -4.2152   21.0983 F   0  0  0  0  0  0
  -21.5636   -3.4545   25.7767 F   0  0  0  0  0  0
  -30.0285  -13.2587   20.4608 N   0  0  0  0  0  0
  -26.3015  -12.9246   20.3297 N   0  0  0  0  0  0
  -25.9287  -11.6429   20.5704 N   0  0  0  0  0  0
  -22.0442  -12.8182   22.0258 N   0  0  0  0  0  0
  -25.4420  -15.1821   20.4070 N   0  0  0  0  0  0
  -31.7785  -14.6852   20.1166 O   0  0  0  0  0  0
  -21.6637   -6.8873   21.4239 O   0  0  0  0  0  0
  -22.3620  -14.5625   20.6747 O   0  0  0  0  0  0
  -24.6147  -31.8664   23.1996 C   0  0  0  0  0  0
  -25.8990  -32.4807   23.8335 C   0  0  1  0  0  0
  -27.2248  -27.3921   20.1212 C   0  0  0  0  0  0
  -25.5806  -33.8602   24.2284 N   0  0  0  0  0  0
  -23.4056  -30.4845   21.5443 C   0  0  2  0  0  0
  -24.8568  -28.9612   20.1000 C   0  0  0  0  0  0
  -22.7401  -29.4649   22.4975 C   0  0  0  0  0  0
  -18.0252  -28.1376   22.8541 C   0  0  0  0  0  0
  -24.1472  -36.7300   23.2651 C   0  0  0  0  0  0
  -25.9357  -30.8202   21.3583 C   0  0  0  0  0  0
  -26.0145  -29.4481   20.7213 C   0  0  0  0  0  0
  -27.2010  -28.6679   20.7384 C   0  0  0  0  0  0
  -26.0667  -26.9636   19.4323 C   0  0  0  0  0  0
  -24.8869  -27.7273   19.4367 C   0  0  0  0  0  0
  -23.6115  -29.8171   20.1578 C   0  0  0  0  0  0
  -25.4089  -36.3094   24.0350 C   0  0  1  0  0  0
  -20.5847  -28.3668   23.1330 C   0  0  2  0  0  0
  -20.6760  -26.9410   22.5383 C   0  0  0  0  0  0
  -19.5700  -26.6430   21.5198 C   0  0  0  0  0  0
  -18.1890  -26.7929   22.1658 C   0  0  0  0  0  0
  -19.1503  -28.8848   23.2951 C   0  0  0  0  0  0
  -18.9434  -30.1443   23.8969 C   0  0  0  0  0  0
  -17.6445  -30.6597   24.0585 C   0  0  0  0  0  0
  -25.9024  -34.9463   23.5136 C   0  0  0  0  0  0
  -16.5339  -29.9095   23.6336 C   0  0  0  0  0  0
  -16.7247  -28.6501   23.0400 C   0  0  0  0  0  0
  -26.4435  -31.6557   25.0653 C   0  0  0  0  0  0
  -25.3648  -31.3397   26.1291 C   0  0  0  0  0  0
  -27.0444  -30.3113   24.5903 C   0  0  0  0  0  0
  -27.5915  -32.4350   25.7524 C   0  0  0  0  0  0
  -27.5539  -37.1844   24.8468 C   0  0  0  0  0  0
  -21.4124  -29.3036   22.3726 N   0  0  0  0  0  0
  -26.4261  -37.3786   23.9397 N   0  0  0  0  0  0
  -24.6719  -31.0695   22.0949 N   0  0  0  0  0  0
  -23.4153  -28.8183   23.3024 O   0  0  0  0  0  0
  -28.3370  -26.5671   20.2099 O   0  0  0  0  0  0
  -26.5639  -34.8908   22.4731 O   0  0  0  0  0  0
  -23.5324  -32.1468   23.7318 O   0  0  0  0  0  0
  -31.5451  -18.6916   21.9644 C   0  0  0  0  0  0
  -31.3114  -20.0553   21.7198 C   0  0  0  0  0  0
  -29.2153  -18.2085   21.5051 C   0  0  0  0  0  0
  -30.5033  -17.7517   21.8852 C   0  0  0  0  0  0
  -30.0275  -20.5472   21.3900 C   0  0  0  0  0  0
  -28.9784  -19.5888   21.2471 C   0  0  0  0  0  0
  -30.0409  -24.2442   21.9615 C   0  0  0  0  0  0
  -30.7225  -22.8668   22.0235 C   0  0  0  0  0  0
  -28.7552  -22.6927   20.6735 C   0  0  0  0  0  0
  -29.1924  -24.1852   20.6868 C   0  0  1  0  0  0
  -30.8167  -16.3114   22.3106 C   0  0  0  0  0  0
  -28.0193  -25.2074   20.6239 C   0  0  0  0  0  0
  -29.8826  -21.9585   21.2496 N   0  0  0  0  0  0
  -30.1536  -15.2261   21.5910 N   0  0  0  0  0  0
  -27.7260  -19.9762   20.8971 F   0  0  0  0  0  0
  -31.4710  -12.4138   19.1266 H   0  0  0  0  0  0
  -30.3349  -11.2845   19.8030 H   0  0  0  0  0  0
  -29.7465  -11.7922   17.4205 H   0  0  0  0  0  0
  -29.6561  -13.5007   17.7842 H   0  0  0  0  0  0
  -27.8581  -11.2861   18.8342 H   0  0  0  0  0  0
  -27.3631  -12.5928   17.7881 H   0  0  0  0  0  0
  -27.7222  -14.2353   19.5804 H   0  0  0  0  0  0
  -28.6666  -11.8985   21.3108 H   0  0  0  0  0  0
  -28.4166  -13.5083   21.8851 H   0  0  0  0  0  0
  -25.2699   -9.5735   22.4831 H   0  0  0  0  0  0
  -23.9970   -7.4675   22.7546 H   0  0  0  0  0  0
  -21.0886   -8.8719   19.8893 H   0  0  0  0  0  0
  -22.3722  -10.9634   19.6104 H   0  0  0  0  0  0
  -21.1972   -7.6152   23.9721 H   0  0  0  0  0  0
  -21.1477   -6.0535   25.9082 H   0  0  0  0  0  0
  -22.0599   -2.7619   23.2877 H   0  0  0  0  0  0
  -22.3971  -11.9703   22.4456 H   0  0  0  0  0  0
  -21.1017  -13.1172   22.2393 H   0  0  0  0  0  0
  -24.6843  -15.8447   20.5255 H   0  0  0  0  0  0
  -26.2996  -15.6133   20.0842 H   0  0  0  0  0  0
  -26.7054  -32.5528   23.1100 H   0  0  0  0  0  0
  -24.9809  -33.9754   25.0323 H   0  0  0  0  0  0
  -22.6979  -31.3030   21.3992 H   0  0  0  0  0  0
  -23.3735  -35.9630   23.3316 H   0  0  0  0  0  0
  -24.3583  -36.8960   22.2072 H   0  0  0  0  0  0
  -23.7217  -37.6489   23.6706 H   0  0  0  0  0  0
  -26.0147  -31.5602   20.5603 H   0  0  0  0  0  0
  -26.8393  -30.9108   21.9477 H   0  0  0  0  0  0
  -28.0843  -29.0207   21.2540 H   0  0  0  0  0  0
  -26.0516  -26.0400   18.8732 H   0  0  0  0  0  0
  -24.0159  -27.3744   18.9012 H   0  0  0  0  0  0
  -23.6926  -30.5856   19.3884 H   0  0  0  0  0  0
  -22.7391  -29.2203   19.8798 H   0  0  0  0  0  0
  -25.1257  -36.1971   25.0844 H   0  0  0  0  0  0
  -20.9972  -28.3204   24.1433 H   0  0  0  0  0  0
  -20.5735  -26.2219   23.3524 H   0  0  0  0  0  0
  -21.6604  -26.7485   22.1105 H   0  0  0  0  0  0
  -19.6845  -25.6367   21.1156 H   0  0  0  0  0  0
  -19.6586  -27.3304   20.6771 H   0  0  0  0  0  0
  -17.4130  -26.6702   21.4083 H   0  0  0  0  0  0
  -18.0317  -26.0054   22.9039 H   0  0  0  0  0  0
  -19.7920  -30.7239   24.2376 H   0  0  0  0  0  0
  -17.4997  -31.6284   24.5145 H   0  0  0  0  0  0
  -15.5348  -30.3015   23.7626 H   0  0  0  0  0  0
  -15.8652  -28.0823   22.7122 H   0  0  0  0  0  0
  -24.5914  -30.6754   25.7408 H   0  0  0  0  0  0
  -24.8702  -32.2428   26.4862 H   0  0  0  0  0  0
  -25.7976  -30.8364   26.9948 H   0  0  0  0  0  0
  -26.3059  -29.6750   24.1013 H   0  0  0  0  0  0
  -27.4512  -29.7382   25.4239 H   0  0  0  0  0  0
  -27.8669  -30.4689   23.8933 H   0  0  0  0  0  0
  -27.2530  -33.3765   26.1857 H   0  0  0  0  0  0
  -28.3870  -32.6730   25.0457 H   0  0  0  0  0  0
  -28.0367  -31.8590   26.5640 H   0  0  0  0  0  0
  -28.2440  -38.0236   24.7619 H   0  0  0  0  0  0
  -28.1197  -36.2773   24.6270 H   0  0  0  0  0  0
  -27.2253  -37.1410   25.8862 H   0  0  0  0  0  0
  -20.9253  -29.8757   21.6975 H   0  0  0  0  0  0
  -26.0146  -38.2889   24.1323 H   0  0  0  0  0  0
  -32.5410  -18.3767   22.2415 H   0  0  0  0  0  0
  -32.1524  -20.7256   21.8004 H   0  0  0  0  0  0
  -28.3930  -17.5079   21.4369 H   0  0  0  0  0  0
  -30.7580  -25.0678   21.9529 H   0  0  0  0  0  0
  -29.4019  -24.3709   22.8378 H   0  0  0  0  0  0
  -30.8429  -22.5205   23.0551 H   0  0  0  0  0  0
  -31.7094  -22.9159   21.5609 H   0  0  0  0  0  0
  -28.5314  -22.3577   19.6583 H   0  0  0  0  0  0
  -27.8710  -22.5356   21.2928 H   0  0  0  0  0  0
  -29.8490  -24.3439   19.8267 H   0  0  0  0  0  0
  -30.5389  -16.2131   23.3625 H   0  0  0  0  0  0
  -31.8969  -16.1501   22.2927 H   0  0  0  0  0  0
  -27.5308  -25.2476   21.6012 H   0  0  0  0  0  0
  -27.2955  -24.7692   19.9426 H   0  0  0  0  0  0
  -29.2909  -14.8890   21.9911 H   0  0  0  0  0  0
  1 25  1  0  0  0
  1 30  2  0  0  0
  1 84  1  0  0  0
  2  3  1  0  0  0
  2 25  1  0  0  0
  2 86  1  0  0  0
  2 87  1  0  0  0
  3  4  1  0  0  0
  3 88  1  0  0  0
  3 89  1  0  0  0
  4  5  1  0  0  0
  4 90  1  0  0  0
  4 91  1  0  0  0
  5  6  1  0  0  0
  5 26  1  0  0  0
  5 92  1  0  0  0
  6 25  1  0  0  0
  6 93  1  0  0  0
  6 94  1  0  0  0
  7  8  2  0  0  0
  7 26  1  0  0  0
  7 29  1  0  0  0
  8  9  1  0  0  0
  8 22  1  0  0  0
  9 10  1  0  0  0
  9 27  2  0  0  0
 10 11  2  0  0  0
 10 15  1  0  0  0
 11 12  1  0  0  0
 11 95  1  0  0  0
 12 13  2  0  0  0
 12 96  1  0  0  0
 13 14  1  0  0  0
 13 31  1  0  0  0
 14 15  2  0  0  0
 14 97  1  0  0  0
 15 98  1  0  0  0
 16 17  2  0  0  0
 16 21  1  0  0  0
 16 31  1  0  0  0
 17 18  1  0  0  0
 17 99  1  0  0  0
 18 19  2  0  0  0
 18100  1  0  0  0
 19 20  1  0  0  0
 19 24  1  0  0  0
 20 21  2  0  0  0
 20101  1  0  0  0
 21 23  1  0  0  0
 22 28  1  0  0  0
 22 32  2  0  0  0
 26 27  1  0  0  0
 28102  1  0  0  0
 28103  1  0  0  0
 29104  1  0  0  0
 29105  1  0  0  0
 33 34  1  0  0  0
 33 66  1  0  0  0
 33 70  2  0  0  0
 34 36  1  0  0  0
 34 59  1  0  0  0
 34106  1  0  0  0
 35 44  2  0  0  0
 35 45  1  0  0  0
 35 68  1  0  0  0
 36 56  1  0  0  0
 36107  1  0  0  0
 37 39  1  0  0  0
 37 47  1  0  0  0
 37 66  1  0  0  0
 37108  1  0  0  0
 38 43  2  0  0  0
 38 46  1  0  0  0
 38 47  1  0  0  0
 39 64  1  0  0  0
 39 67  2  0  0  0
 40 52  1  0  0  0
 40 53  2  0  0  0
 40 58  1  0  0  0
 41109  1  0  0  0
 41110  1  0  0  0
 41111  1  0  0  0
 41 48  1  0  0  0
 42 43  1  0  0  0
 42 66  1  0  0  0
 42112  1  0  0  0
 42113  1  0  0  0
 43 44  1  0  0  0
 44114  1  0  0  0
 45 46  2  0  0  0
 45115  1  0  0  0
 46116  1  0  0  0
 47117  1  0  0  0
 47118  1  0  0  0
 48 56  1  0  0  0
 48 65  1  0  0  0
 48119  1  0  0  0
 49 50  1  0  0  0
 49 53  1  0  0  0
 49 64  1  0  0  0
 49120  1  0  0  0
 50 51  1  0  0  0
 50121  1  0  0  0
 50122  1  0  0  0
 51 52  1  0  0  0
 51123  1  0  0  0
 51124  1  0  0  0
 52125  1  0  0  0
 52126  1  0  0  0
 53 54  1  0  0  0
 54 55  2  0  0  0
 54127  1  0  0  0
 55 57  1  0  0  0
 55128  1  0  0  0
 56 69  2  0  0  0
 57 58  2  0  0  0
 57129  1  0  0  0
 58130  1  0  0  0
 59 60  1  0  0  0
 59 61  1  0  0  0
 59 62  1  0  0  0
 60131  1  0  0  0
 60132  1  0  0  0
 60133  1  0  0  0
 61134  1  0  0  0
 61135  1  0  0  0
 61136  1  0  0  0
 62137  1  0  0  0
 62138  1  0  0  0
 62139  1  0  0  0
 63 65  1  0  0  0
 63140  1  0  0  0
 63141  1  0  0  0
 63142  1  0  0  0
 64143  1  0  0  0
 65144  1  0  0  0
 68 82  1  0  0  0
 71 72  2  0  0  0
 71 74  1  0  0  0
 71145  1  0  0  0
 72 75  1  0  0  0
 72146  1  0  0  0
 73 74  2  0  0  0
 73 76  1  0  0  0
 73147  1  0  0  0
 74 81  1  0  0  0
 75 76  2  0  0  0
 75 83  1  0  0  0
 76 85  1  0  0  0
 77 78  1  0  0  0
 77 80  1  0  0  0
 77148  1  0  0  0
 77149  1  0  0  0
 78 83  1  0  0  0
 78150  1  0  0  0
 78151  1  0  0  0
 79 80  1  0  0  0
 79 83  1  0  0  0
 79152  1  0  0  0
 79153  1  0  0  0
 80 82  1  0  0  0
 80154  1  0  0  0
 81 84  1  0  0  0
 81155  1  0  0  0
 81156  1  0  0  0
 82157  1  0  0  0
 82158  1  0  0  0
 84159  1  0  0  0
M  ISO  4   1 100  68 101  82 101  84 100
M  END
> <chiral flag>
0

> <version>
0

> <s_m_source_file>
/data/baiqing/PycharmProjects/Reinvent-master-3.2/result/LINK_invent/BTK/process_docking_weight1_custom_product_contain_oxygen_bond_distance_aromatic_linkinvent_7_9_3/rearranged_h_0024.sdf

> <i_m_source_file_index>
19

> <r_mmod_Potential_Energy-OPLS-2005>
43.3371849060059

> <r_mmod_Stretch_Energy-OPLS-2005>
43.3807525634766

> <r_mmod_Bend_Energy-OPLS-2005>
150.625823974609

> <r_mmod_Torsional_Energy-OPLS-2005>
262.0576171875

> <r_mmod_Improper_Torsional_Energy-OPLS-2005>
3.61119055747986

> <r_mmod_Van_der_Waal_Energy-OPLS-2005>
157.854431152344

> <r_mmod_Electrostatic_Energy-OPLS-2005>
-367.829132080078

> <r_mmod_Solvation_Energy-OPLS-2005>
-225.303894042969

> <b_mmod_Minimization_Converged-OPLS-2005>
0

> <r_mmod_RMS_Derivative-OPLS-2005>
5.07982540130615

$$$$
19
                    3D
 Structure written by MMmdl.
162171  0  0  1  0            999 V2000
  -30.5597  -14.7928   20.5917 C   0  0  0  0  0  0
  -30.4687  -12.5440   19.4412 C   0  0  0  0  0  0
  -29.5011  -12.5519   18.2298 C   0  0  0  0  0  0
  -28.0331  -12.3442   18.6589 C   0  0  0  0  0  0
  -27.6605  -13.1978   19.9006 C   0  0  2  0  0  0
  -28.7305  -12.9678   20.9916 C   0  0  0  0  0  0
  -25.2599  -13.8075   20.5746 C   0  0  0  0  0  0
  -24.1822  -13.0384   20.9204 C   0  0  0  0  0  0
  -24.6378  -11.6866   20.8786 C   0  0  0  0  0  0
  -23.9021  -10.4282   21.0461 C   0  0  0  0  0  0
  -24.3586   -9.4181   21.9226 C   0  0  0  0  0  0
  -23.6263   -8.2213   22.0775 C   0  0  0  0  0  0
  -22.4260   -8.0251   21.3555 C   0  0  0  0  0  0
  -21.9893   -9.0226   20.4660 C   0  0  0  0  0  0
  -22.7213  -10.2122   20.3080 C   0  0  0  0  0  0
  -21.6841   -6.0722   22.5270 C   0  0  0  0  0  0
  -21.4001   -6.5628   23.8198 C   0  0  0  0  0  0
  -21.3651   -5.6796   24.9170 C   0  0  0  0  0  0
  -21.6057   -4.3054   24.7243 C   0  0  0  0  0  0
  -21.8807   -3.8144   23.4360 C   0  0  0  0  0  0
  -21.9197   -4.6958   22.3422 C   0  0  0  0  0  0
  -22.7868  -13.5237   21.1866 C   0  0  0  0  0  0
  -22.1673   -4.2140   21.0999 F   0  0  0  0  0  0
  -21.5649   -3.4528   25.7759 F   0  0  0  0  0  0
  -29.9762  -13.5320   20.4473 N   0  0  0  0  0  0
  -26.3041  -12.9231   20.3575 N   0  0  0  0  0  0
  -25.9308  -11.6411   20.5892 N   0  0  0  0  0  0
  -22.0494  -12.8212   22.0420 N   0  0  0  0  0  0
  -25.4319  -15.1759   20.4067 N   0  0  0  0  0  0
  -31.7215  -14.8956   20.1766 O   0  0  0  0  0  0
  -21.6618   -6.8855   21.4240 O   0  0  0  0  0  0
  -22.3597  -14.5550   20.6719 O   0  0  0  0  0  0
  -24.6301  -31.8521   23.2035 C   0  0  0  0  0  0
  -25.9120  -32.4749   23.8364 C   0  0  1  0  0  0
  -27.2200  -27.2505   20.1350 C   0  0  0  0  0  0
  -25.5890  -33.8568   24.2235 N   0  0  0  0  0  0
  -23.4323  -30.4778   21.5416 C   0  0  2  0  0  0
  -24.8847  -28.9341   20.1111 C   0  0  0  0  0  0
  -22.7519  -29.4562   22.4868 C   0  0  0  0  0  0
  -18.0280  -28.1414   22.8466 C   0  0  0  0  0  0
  -24.1493  -36.7277   23.2638 C   0  0  0  0  0  0
  -25.9840  -30.7572   21.4051 C   0  0  0  0  0  0
  -26.0538  -29.3867   20.7332 C   0  0  0  0  0  0
  -27.2248  -28.5585   20.7321 C   0  0  0  0  0  0
  -26.0284  -26.8815   19.4661 C   0  0  0  0  0  0
  -24.8780  -27.6906   19.4663 C   0  0  0  0  0  0
  -23.6574  -29.8225   20.1551 C   0  0  0  0  0  0
  -25.4131  -36.3064   24.0293 C   0  0  1  0  0  0
  -20.5886  -28.3716   23.1248 C   0  0  2  0  0  0
  -20.6795  -26.9423   22.5415 C   0  0  0  0  0  0
  -19.5771  -26.6379   21.5223 C   0  0  0  0  0  0
  -18.1933  -26.7944   22.1623 C   0  0  0  0  0  0
  -19.1531  -28.8879   23.2857 C   0  0  0  0  0  0
  -18.9465  -30.1472   23.8885 C   0  0  0  0  0  0
  -17.6473  -30.6615   24.0537 C   0  0  0  0  0  0
  -25.9046  -34.9425   23.5055 C   0  0  0  0  0  0
  -16.5359  -29.9105   23.6349 C   0  0  0  0  0  0
  -16.7264  -28.6526   23.0357 C   0  0  0  0  0  0
  -26.4468  -31.6661   25.0818 C   0  0  0  0  0  0
  -25.3635  -31.3900   26.1500 C   0  0  0  0  0  0
  -27.0354  -30.3032   24.6515 C   0  0  0  0  0  0
  -27.5976  -32.4475   25.7564 C   0  0  0  0  0  0
  -27.5582  -37.1805   24.8442 C   0  0  0  0  0  0
  -21.4211  -29.3028   22.3614 N   0  0  0  0  0  0
  -26.4316  -37.3769   23.9359 N   0  0  0  0  0  0
  -24.6986  -31.0491   22.1035 N   0  0  0  0  0  0
  -23.4174  -28.8086   23.2989 O   0  0  0  0  0  0
  -28.3182  -26.3492   20.1856 O   0  0  0  0  0  0
  -26.5678  -34.8890   22.4661 O   0  0  0  0  0  0
  -23.5429  -32.1370   23.7271 O   0  0  0  0  0  0
  -31.2408  -20.1265   21.0822 C   0  0  0  0  0  0
  -31.6337  -17.6998   21.3111 C   0  0  0  0  0  0
  -29.9425  -19.9214   20.5660 C   0  0  0  0  0  0
  -30.3436  -17.3803   20.8241 C   0  0  0  0  0  0
  -29.5340  -18.5310   20.4128 C   0  0  0  0  0  0
  -32.0774  -19.0364   21.4182 C   0  0  0  0  0  0
  -27.7160  -22.7567   21.4730 C   0  0  0  0  0  0
  -27.6421  -24.3045   21.6073 C   0  0  0  0  0  0
  -29.1804  -23.7478   19.8436 C   0  0  0  0  0  0
  -29.0561  -22.4432   20.7719 C   0  0  2  0  0  0
  -28.0872  -24.8502   20.2391 C   0  0  2  0  0  0
  -28.8534  -16.5322   23.2410 C   0  0  0  0  0  0
  -28.6080  -16.0145   21.8047 C   0  0  0  0  0  0
  -29.1151  -21.0488   20.1620 N   0  0  0  0  0  0
  -29.8385  -15.9716   20.9666 N   0  0  0  0  0  0
  -28.3149  -18.3141   19.8605 F   0  0  0  0  0  0
  -33.6839  -19.3370   21.9836 Cl  0  0  0  0  0  0
  -31.4762  -12.7688   19.0883 H   0  0  0  0  0  0
  -30.5486  -11.5475   19.8765 H   0  0  0  0  0  0
  -29.7957  -11.7826   17.5146 H   0  0  0  0  0  0
  -29.5807  -13.5061   17.7037 H   0  0  0  0  0  0
  -27.9128  -11.2873   18.9012 H   0  0  0  0  0  0
  -27.3563  -12.5418   17.8291 H   0  0  0  0  0  0
  -27.6944  -14.2461   19.5965 H   0  0  0  0  0  0
  -28.8346  -11.8917   21.1353 H   0  0  0  0  0  0
  -28.4974  -13.2675   22.0093 H   0  0  0  0  0  0
  -25.2735   -9.5646   22.4793 H   0  0  0  0  0  0
  -23.9976   -7.4598   22.7467 H   0  0  0  0  0  0
  -21.0835   -8.8728   19.8936 H   0  0  0  0  0  0
  -22.3671  -10.9663   19.6166 H   0  0  0  0  0  0
  -21.1948   -7.6135   23.9696 H   0  0  0  0  0  0
  -21.1505   -6.0537   25.9075 H   0  0  0  0  0  0
  -22.0598   -2.7605   23.2868 H   0  0  0  0  0  0
  -22.4112  -11.9842   22.4749 H   0  0  0  0  0  0
  -21.1126  -13.1229   22.2646 H   0  0  0  0  0  0
  -24.6644  -15.8296   20.5083 H   0  0  0  0  0  0
  -26.2907  -15.6143   20.0984 H   0  0  0  0  0  0
  -26.7171  -32.5370   23.1082 H   0  0  0  0  0  0
  -24.9935  -33.9730   25.0297 H   0  0  0  0  0  0
  -22.7251  -31.2974   21.3952 H   0  0  0  0  0  0
  -23.3763  -35.9611   23.3329 H   0  0  0  0  0  0
  -24.3549  -36.8907   22.2052 H   0  0  0  0  0  0
  -23.7271  -37.6472   23.6684 H   0  0  0  0  0  0
  -26.1639  -31.5347   20.6614 H   0  0  0  0  0  0
  -26.8363  -30.7649   22.0717 H   0  0  0  0  0  0
  -28.1199  -28.9005   21.2315 H   0  0  0  0  0  0
  -25.9459  -25.9613   18.9118 H   0  0  0  0  0  0
  -23.9884  -27.3540   18.9530 H   0  0  0  0  0  0
  -23.7912  -30.6034   19.4052 H   0  0  0  0  0  0
  -22.7774  -29.2565   19.8460 H   0  0  0  0  0  0
  -25.1339  -36.1886   25.0801 H   0  0  0  0  0  0
  -20.9963  -28.3325   24.1371 H   0  0  0  0  0  0
  -20.5721  -26.2316   23.3624 H   0  0  0  0  0  0
  -21.6663  -26.7466   22.1182 H   0  0  0  0  0  0
  -19.6943  -25.6271   21.1284 H   0  0  0  0  0  0
  -19.6744  -27.3169   20.6734 H   0  0  0  0  0  0
  -17.4205  -26.6648   21.4024 H   0  0  0  0  0  0
  -18.0348  -26.0109   22.9050 H   0  0  0  0  0  0
  -19.7936  -30.7270   24.2274 H   0  0  0  0  0  0
  -17.5025  -31.6288   24.5134 H   0  0  0  0  0  0
  -15.5357  -30.3000   23.7694 H   0  0  0  0  0  0
  -15.8656  -28.0829   22.7121 H   0  0  0  0  0  0
  -24.5743  -30.7351   25.7802 H   0  0  0  0  0  0
  -24.8915  -32.3138   26.4870 H   0  0  0  0  0  0
  -25.7844  -30.9059   27.0328 H   0  0  0  0  0  0
  -26.3023  -29.6708   24.1517 H   0  0  0  0  0  0
  -27.3870  -29.7405   25.5177 H   0  0  0  0  0  0
  -27.8963  -30.4204   23.9933 H   0  0  0  0  0  0
  -27.2513  -33.3730   26.2187 H   0  0  0  0  0  0
  -28.3736  -32.7174   25.0385 H   0  0  0  0  0  0
  -28.0756  -31.8659   26.5463 H   0  0  0  0  0  0
  -28.2582  -38.0116   24.7469 H   0  0  0  0  0  0
  -28.1089  -36.2629   24.6289 H   0  0  0  0  0  0
  -27.2272  -37.1481   25.8842 H   0  0  0  0  0  0
  -20.9408  -29.8686   21.6758 H   0  0  0  0  0  0
  -26.0162  -38.2829   24.1386 H   0  0  0  0  0  0
  -31.6294  -21.1264   21.1913 H   0  0  0  0  0  0
  -32.2958  -16.9164   21.6551 H   0  0  0  0  0  0
  -26.8828  -22.4282   20.8494 H   0  0  0  0  0  0
  -27.6158  -22.2526   22.4348 H   0  0  0  0  0  0
  -28.3324  -24.6351   22.3832 H   0  0  0  0  0  0
  -26.6452  -24.6453   21.8934 H   0  0  0  0  0  0
  -29.0498  -23.4796   18.7947 H   0  0  0  0  0  0
  -30.1845  -24.1604   19.9335 H   0  0  0  0  0  0
  -29.8323  -22.5156   21.5376 H   0  0  0  0  0  0
  -27.2807  -24.6065   19.5575 H   0  0  0  0  0  0
  -27.9137  -16.5587   23.7965 H   0  0  0  0  0  0
  -29.5506  -15.9036   23.7982 H   0  0  0  0  0  0
  -29.2492  -17.5500   23.2495 H   0  0  0  0  0  0
  -27.8845  -16.6755   21.3385 H   0  0  0  0  0  0
  -28.0060  -15.1307   21.8678 H   0  0  0  0  0  0
  -28.2626  -20.7471   19.6929 H   0  0  0  0  0  0
  1 25  1  0  0  0
  1 30  2  0  0  0
  1 85  1  0  0  0
  2  3  1  0  0  0
  2 25  1  0  0  0
  2 88  1  0  0  0
  2 89  1  0  0  0
  3  4  1  0  0  0
  3 90  1  0  0  0
  3 91  1  0  0  0
  4  5  1  0  0  0
  4 92  1  0  0  0
  4 93  1  0  0  0
  5  6  1  0  0  0
  5 26  1  0  0  0
  5 94  1  0  0  0
  6 25  1  0  0  0
  6 95  1  0  0  0
  6 96  1  0  0  0
  7  8  2  0  0  0
  7 26  1  0  0  0
  7 29  1  0  0  0
  8  9  1  0  0  0
  8 22  1  0  0  0
  9 10  1  0  0  0
  9 27  2  0  0  0
 10 11  2  0  0  0
 10 15  1  0  0  0
 11 12  1  0  0  0
 11 97  1  0  0  0
 12 13  2  0  0  0
 12 98  1  0  0  0
 13 14  1  0  0  0
 13 31  1  0  0  0
 14 15  2  0  0  0
 14 99  1  0  0  0
 15100  1  0  0  0
 16 17  2  0  0  0
 16 21  1  0  0  0
 16 31  1  0  0  0
 17 18  1  0  0  0
 17101  1  0  0  0
 18 19  2  0  0  0
 18102  1  0  0  0
 19 20  1  0  0  0
 19 24  1  0  0  0
 20 21  2  0  0  0
 20103  1  0  0  0
 21 23  1  0  0  0
 22 28  1  0  0  0
 22 32  2  0  0  0
 26 27  1  0  0  0
 28104  1  0  0  0
 28105  1  0  0  0
 29106  1  0  0  0
 29107  1  0  0  0
 33 34  1  0  0  0
 33 66  1  0  0  0
 33 70  2  0  0  0
 34 36  1  0  0  0
 34 59  1  0  0  0
 34108  1  0  0  0
 35 44  2  0  0  0
 35 45  1  0  0  0
 35 68  1  0  0  0
 36 56  1  0  0  0
 36109  1  0  0  0
 37 39  1  0  0  0
 37 47  1  0  0  0
 37 66  1  0  0  0
 37110  1  0  0  0
 38 43  2  0  0  0
 38 46  1  0  0  0
 38 47  1  0  0  0
 39 64  1  0  0  0
 39 67  2  0  0  0
 40 52  1  0  0  0
 40 53  2  0  0  0
 40 58  1  0  0  0
 41111  1  0  0  0
 41112  1  0  0  0
 41113  1  0  0  0
 41 48  1  0  0  0
 42 43  1  0  0  0
 42 66  1  0  0  0
 42114  1  0  0  0
 42115  1  0  0  0
 43 44  1  0  0  0
 44116  1  0  0  0
 45 46  2  0  0  0
 45117  1  0  0  0
 46118  1  0  0  0
 47119  1  0  0  0
 47120  1  0  0  0
 48 56  1  0  0  0
 48 65  1  0  0  0
 48121  1  0  0  0
 49 50  1  0  0  0
 49 53  1  0  0  0
 49 64  1  0  0  0
 49122  1  0  0  0
 50 51  1  0  0  0
 50123  1  0  0  0
 50124  1  0  0  0
 51 52  1  0  0  0
 51125  1  0  0  0
 51126  1  0  0  0
 52127  1  0  0  0
 52128  1  0  0  0
 53 54  1  0  0  0
 54 55  2  0  0  0
 54129  1  0  0  0
 55 57  1  0  0  0
 55130  1  0  0  0
 56 69  2  0  0  0
 57 58  2  0  0  0
 57131  1  0  0  0
 58132  1  0  0  0
 59 60  1  0  0  0
 59 61  1  0  0  0
 59 62  1  0  0  0
 60133  1  0  0  0
 60134  1  0  0  0
 60135  1  0  0  0
 61136  1  0  0  0
 61137  1  0  0  0
 61138  1  0  0  0
 62139  1  0  0  0
 62140  1  0  0  0
 62141  1  0  0  0
 63 65  1  0  0  0
 63142  1  0  0  0
 63143  1  0  0  0
 63144  1  0  0  0
 64145  1  0  0  0
 65146  1  0  0  0
 68 81  1  0  0  0
 71 73  2  0  0  0
 71 76  1  0  0  0
 71147  1  0  0  0
 72 74  1  0  0  0
 72 76  2  0  0  0
 72148  1  0  0  0
 73 75  1  0  0  0
 73 84  1  0  0  0
 74 75  2  0  0  0
 74 85  1  0  0  0
 75 86  1  0  0  0
 76 87  1  0  0  0
 77 78  1  0  0  0
 77 80  1  0  0  0
 77149  1  0  0  0
 77150  1  0  0  0
 78 81  1  0  0  0
 78151  1  0  0  0
 78152  1  0  0  0
 79 80  1  0  0  0
 79 81  1  0  0  0
 79153  1  0  0  0
 79154  1  0  0  0
 80 84  1  0  0  0
 80155  1  0  0  0
 81156  1  0  0  0
 82 83  1  0  0  0
 82157  1  0  0  0
 82158  1  0  0  0
 82159  1  0  0  0
 83 85  1  0  0  0
 83160  1  0  0  0
 83161  1  0  0  0
 84162  1  0  0  0
M  ISO  4   1 100  68 101  81 101  85 100
M  END
> <chiral flag>
0

> <version>
0

> <s_m_source_file>
/data/baiqing/PycharmProjects/Reinvent-master-3.2/result/LINK_invent/BTK/process_docking_weight1_custom_product_contain_oxygen_bond_distance_aromatic_linkinvent_7_9_3/rearranged_h_0024.sdf

> <i_m_source_file_index>
20

> <r_mmod_Potential_Energy-OPLS-2005>
546.878601074219

> <r_mmod_Stretch_Energy-OPLS-2005>
150.230010986328

> <r_mmod_Bend_Energy-OPLS-2005>
257.666320800781

> <r_mmod_Torsional_Energy-OPLS-2005>
331.584594726562

> <r_mmod_Improper_Torsional_Energy-OPLS-2005>
7.98354005813599

> <r_mmod_Van_der_Waal_Energy-OPLS-2005>
159.383743286133

> <r_mmod_Electrostatic_Energy-OPLS-2005>
-270.122924804688

> <r_mmod_Solvation_Energy-OPLS-2005>
-184.975021362305

> <b_mmod_Minimization_Converged-OPLS-2005>
0

> <r_mmod_RMS_Derivative-OPLS-2005>
4.95124387741089

$$$$
20
                    3D
 Structure written by MMmdl.
156165  0  0  1  0            999 V2000
  -30.5901  -14.7741   20.4425 C   0  0  0  0  0  0
  -30.4365  -12.4755   19.4618 C   0  0  0  0  0  0
  -29.5069  -12.5064   18.2287 C   0  0  0  0  0  0
  -28.0339  -12.3305   18.6485 C   0  0  0  0  0  0
  -27.6385  -13.2341   19.8465 C   0  0  2  0  0  0
  -28.6866  -13.1763   20.9771 C   0  0  0  0  0  0
  -25.2482  -13.8187   20.5676 C   0  0  0  0  0  0
  -24.1783  -13.0425   20.9182 C   0  0  0  0  0  0
  -24.6398  -11.6907   20.8748 C   0  0  0  0  0  0
  -23.9087  -10.4281   21.0415 C   0  0  0  0  0  0
  -24.3633   -9.4201   21.9199 C   0  0  0  0  0  0
  -23.6296   -8.2242   22.0762 C   0  0  0  0  0  0
  -22.4281   -8.0285   21.3546 C   0  0  0  0  0  0
  -21.9927   -9.0266   20.4651 C   0  0  0  0  0  0
  -22.7262  -10.2133   20.3061 C   0  0  0  0  0  0
  -21.6852   -6.0743   22.5281 C   0  0  0  0  0  0
  -21.4016   -6.5642   23.8217 C   0  0  0  0  0  0
  -21.3651   -5.6798   24.9180 C   0  0  0  0  0  0
  -21.6036   -4.3061   24.7230 C   0  0  0  0  0  0
  -21.8818   -3.8150   23.4352 C   0  0  0  0  0  0
  -21.9193   -4.6969   22.3411 C   0  0  0  0  0  0
  -22.7812  -13.5210   21.1865 C   0  0  0  0  0  0
  -22.1660   -4.2158   21.0987 F   0  0  0  0  0  0
  -21.5625   -3.4542   25.7740 F   0  0  0  0  0  0
  -29.9802  -13.5396   20.3851 N   0  0  0  0  0  0
  -26.2928  -12.9406   20.3292 N   0  0  0  0  0  0
  -25.9336  -11.6541   20.5779 N   0  0  0  0  0  0
  -22.0467  -12.8191   22.0418 N   0  0  0  0  0  0
  -25.4119  -15.1909   20.4106 N   0  0  0  0  0  0
  -31.7910  -14.8725   20.1756 O   0  0  0  0  0  0
  -21.6633   -6.8886   21.4244 O   0  0  0  0  0  0
  -22.3482  -14.5509   20.6719 O   0  0  0  0  0  0
  -24.6334  -31.8527   23.1939 C   0  0  0  0  0  0
  -25.9166  -32.4740   23.8301 C   0  0  1  0  0  0
  -27.2225  -27.2450   20.1395 C   0  0  0  0  0  0
  -25.5963  -33.8540   24.2229 N   0  0  0  0  0  0
  -23.4304  -30.4714   21.5392 C   0  0  2  0  0  0
  -24.8760  -28.9053   20.1166 C   0  0  0  0  0  0
  -22.7514  -29.4587   22.4931 C   0  0  0  0  0  0
  -18.0281  -28.1395   22.8459 C   0  0  0  0  0  0
  -24.1492  -36.7264   23.2641 C   0  0  0  0  0  0
  -25.9746  -30.7607   21.3736 C   0  0  0  0  0  0
  -26.0486  -29.3793   20.7196 C   0  0  0  0  0  0
  -27.2273  -28.5651   20.7092 C   0  0  0  0  0  0
  -26.0257  -26.8274   19.5247 C   0  0  0  0  0  0
  -24.8707  -27.6380   19.5081 C   0  0  0  0  0  0
  -23.6492  -29.7978   20.1577 C   0  0  0  0  0  0
  -25.4118  -36.3057   24.0332 C   0  0  1  0  0  0
  -20.5884  -28.3704   23.1273 C   0  0  2  0  0  0
  -20.6780  -26.9428   22.5409 C   0  0  0  0  0  0
  -19.5763  -26.6378   21.5213 C   0  0  0  0  0  0
  -18.1929  -26.7927   22.1610 C   0  0  0  0  0  0
  -19.1537  -28.8863   23.2848 C   0  0  0  0  0  0
  -18.9470  -30.1450   23.8879 C   0  0  0  0  0  0
  -17.6483  -30.6594   24.0552 C   0  0  0  0  0  0
  -25.9072  -34.9438   23.5081 C   0  0  0  0  0  0
  -16.5366  -29.9091   23.6347 C   0  0  0  0  0  0
  -16.7274  -28.6517   23.0351 C   0  0  0  0  0  0
  -26.4524  -31.6571   25.0700 C   0  0  0  0  0  0
  -25.3735  -31.3742   26.1411 C   0  0  0  0  0  0
  -27.0380  -30.2995   24.6179 C   0  0  0  0  0  0
  -27.6062  -32.4332   25.7485 C   0  0  0  0  0  0
  -27.5573  -37.1779   24.8468 C   0  0  0  0  0  0
  -21.4220  -29.3044   22.3669 N   0  0  0  0  0  0
  -26.4284  -37.3769   23.9419 N   0  0  0  0  0  0
  -24.6988  -31.0479   22.0920 N   0  0  0  0  0  0
  -23.4200  -28.8154   23.3058 O   0  0  0  0  0  0
  -28.3418  -26.3843   20.1018 O   0  0  0  0  0  0
  -26.5629  -34.8920   22.4643 O   0  0  0  0  0  0
  -23.5490  -32.1356   23.7231 O   0  0  0  0  0  0
  -27.3650  -20.8353   20.8779 C   0  0  0  0  0  0
  -26.8860  -19.5526   21.2547 C   0  0  0  0  0  0
  -29.4911  -19.8138   20.3547 C   0  0  0  0  0  0
  -29.0374  -18.5280   20.7812 C   0  0  0  0  0  0
  -28.6942  -21.0403   20.4335 C   0  0  0  0  0  0
  -27.7131  -18.4061   21.2323 C   0  0  0  0  0  0
  -30.8912  -19.6177   19.8064 C   0  0  0  0  0  0
  -31.1048  -18.0569   19.7258 C   0  0  0  0  0  0
  -30.1292  -17.3990   20.7395 C   0  0  2  0  0  0
  -28.3464  -23.6211   19.7343 C   0  0  0  0  0  0
  -28.3008  -24.9757   20.6424 C   0  0  0  0  0  0
  -29.1534  -22.3925   20.1668 N   0  0  0  0  0  0
  -29.7912  -15.9042   20.5948 N   0  0  0  0  0  0
  -27.2403  -17.2055   21.6410 F   0  0  0  0  0  0
  -31.4726  -12.6176   19.1499 H   0  0  0  0  0  0
  -30.4007  -11.5016   19.9518 H   0  0  0  0  0  0
  -29.7895  -11.7232   17.5235 H   0  0  0  0  0  0
  -29.6277  -13.4527   17.6995 H   0  0  0  0  0  0
  -27.8942  -11.2831   18.9158 H   0  0  0  0  0  0
  -27.3740  -12.5183   17.8012 H   0  0  0  0  0  0
  -27.6258  -14.2540   19.4624 H   0  0  0  0  0  0
  -28.7323  -12.1797   21.4172 H   0  0  0  0  0  0
  -28.4217  -13.8589   21.7866 H   0  0  0  0  0  0
  -25.2780   -9.5665   22.4782 H   0  0  0  0  0  0
  -24.0001   -7.4625   22.7480 H   0  0  0  0  0  0
  -21.0864   -8.8789   19.8958 H   0  0  0  0  0  0
  -22.3738  -10.9676   19.6166 H   0  0  0  0  0  0
  -21.2006   -7.6153   23.9724 H   0  0  0  0  0  0
  -21.1472   -6.0528   25.9081 H   0  0  0  0  0  0
  -22.0601   -2.7616   23.2852 H   0  0  0  0  0  0
  -22.4087  -11.9845   22.4789 H   0  0  0  0  0  0
  -21.1095  -13.1223   22.2654 H   0  0  0  0  0  0
  -24.6551  -15.8428   20.5798 H   0  0  0  0  0  0
  -26.2894  -15.6565   20.2200 H   0  0  0  0  0  0
  -26.7218  -32.5395   23.1023 H   0  0  0  0  0  0
  -25.0159  -33.9665   25.0413 H   0  0  0  0  0  0
  -22.7277  -31.2943   21.3878 H   0  0  0  0  0  0
  -23.3773  -35.9572   23.3303 H   0  0  0  0  0  0
  -24.3580  -36.8886   22.2057 H   0  0  0  0  0  0
  -23.7228  -37.6450   23.6675 H   0  0  0  0  0  0
  -26.1126  -31.5202   20.6036 H   0  0  0  0  0  0
  -26.8526  -30.8125   22.0042 H   0  0  0  0  0  0
  -28.1341  -28.9318   21.1695 H   0  0  0  0  0  0
  -25.9840  -25.8560   19.0515 H   0  0  0  0  0  0
  -23.9717  -27.2702   19.0324 H   0  0  0  0  0  0
  -23.7763  -30.5712   19.3990 H   0  0  0  0  0  0
  -22.7665  -29.2317   19.8542 H   0  0  0  0  0  0
  -25.1299  -36.1900   25.0822 H   0  0  0  0  0  0
  -20.9930  -28.3278   24.1414 H   0  0  0  0  0  0
  -20.5715  -26.2313   23.3605 H   0  0  0  0  0  0
  -21.6644  -26.7465   22.1190 H   0  0  0  0  0  0
  -19.6949  -25.6289   21.1247 H   0  0  0  0  0  0
  -19.6721  -27.3178   20.6738 H   0  0  0  0  0  0
  -17.4208  -26.6668   21.4001 H   0  0  0  0  0  0
  -18.0313  -26.0069   22.9009 H   0  0  0  0  0  0
  -19.7959  -30.7239   24.2251 H   0  0  0  0  0  0
  -17.5055  -31.6287   24.5140 H   0  0  0  0  0  0
  -15.5372  -30.2999   23.7693 H   0  0  0  0  0  0
  -15.8659  -28.0839   22.7089 H   0  0  0  0  0  0
  -24.5927  -30.7073   25.7738 H   0  0  0  0  0  0
  -24.8909  -32.2920   26.4786 H   0  0  0  0  0  0
  -25.8032  -30.8961   27.0218 H   0  0  0  0  0  0
  -26.2952  -29.6734   24.1214 H   0  0  0  0  0  0
  -27.4096  -29.7276   25.4689 H   0  0  0  0  0  0
  -27.8819  -30.4289   23.9396 H   0  0  0  0  0  0
  -27.2659  -33.3663   26.1982 H   0  0  0  0  0  0
  -28.3908  -32.6832   25.0338 H   0  0  0  0  0  0
  -28.0676  -31.8513   26.5461 H   0  0  0  0  0  0
  -28.2572  -38.0091   24.7523 H   0  0  0  0  0  0
  -28.1084  -36.2623   24.6287 H   0  0  0  0  0  0
  -27.2293  -37.1408   25.8867 H   0  0  0  0  0  0
  -20.9426  -29.8760   21.6854 H   0  0  0  0  0  0
  -26.0172  -38.2835   24.1431 H   0  0  0  0  0  0
  -26.6867  -21.6716   20.9640 H   0  0  0  0  0  0
  -25.8659  -19.4536   21.5953 H   0  0  0  0  0  0
  -31.6067  -20.0739   20.4908 H   0  0  0  0  0  0
  -31.0052  -20.0955   18.8330 H   0  0  0  0  0  0
  -32.1439  -17.7572   19.8610 H   0  0  0  0  0  0
  -30.8164  -17.7337   18.7244 H   0  0  0  0  0  0
  -30.6078  -17.4641   21.7181 H   0  0  0  0  0  0
  -28.7733  -23.9118   18.7738 H   0  0  0  0  0  0
  -27.3264  -23.3234   19.4908 H   0  0  0  0  0  0
  -29.1796  -24.9323   21.2864 H   0  0  0  0  0  0
  -27.4614  -24.8929   21.3354 H   0  0  0  0  0  0
  -30.1400  -22.4618   19.9287 H   0  0  0  0  0  0
  -28.8148  -15.6967   20.7382 H   0  0  0  0  0  0
  1 25  1  0  0  0
  1 30  2  0  0  0
  1 83  1  0  0  0
  2  3  1  0  0  0
  2 25  1  0  0  0
  2 85  1  0  0  0
  2 86  1  0  0  0
  3  4  1  0  0  0
  3 87  1  0  0  0
  3 88  1  0  0  0
  4  5  1  0  0  0
  4 89  1  0  0  0
  4 90  1  0  0  0
  5  6  1  0  0  0
  5 26  1  0  0  0
  5 91  1  0  0  0
  6 25  1  0  0  0
  6 92  1  0  0  0
  6 93  1  0  0  0
  7  8  2  0  0  0
  7 26  1  0  0  0
  7 29  1  0  0  0
  8  9  1  0  0  0
  8 22  1  0  0  0
  9 10  1  0  0  0
  9 27  2  0  0  0
 10 11  2  0  0  0
 10 15  1  0  0  0
 11 12  1  0  0  0
 11 94  1  0  0  0
 12 13  2  0  0  0
 12 95  1  0  0  0
 13 14  1  0  0  0
 13 31  1  0  0  0
 14 15  2  0  0  0
 14 96  1  0  0  0
 15 97  1  0  0  0
 16 17  2  0  0  0
 16 21  1  0  0  0
 16 31  1  0  0  0
 17 18  1  0  0  0
 17 98  1  0  0  0
 18 19  2  0  0  0
 18 99  1  0  0  0
 19 20  1  0  0  0
 19 24  1  0  0  0
 20 21  2  0  0  0
 20100  1  0  0  0
 21 23  1  0  0  0
 22 28  1  0  0  0
 22 32  2  0  0  0
 26 27  1  0  0  0
 28101  1  0  0  0
 28102  1  0  0  0
 29103  1  0  0  0
 29104  1  0  0  0
 33 34  1  0  0  0
 33 66  1  0  0  0
 33 70  2  0  0  0
 34 36  1  0  0  0
 34 59  1  0  0  0
 34105  1  0  0  0
 35 44  2  0  0  0
 35 45  1  0  0  0
 35 68  1  0  0  0
 36 56  1  0  0  0
 36106  1  0  0  0
 37 39  1  0  0  0
 37 47  1  0  0  0
 37 66  1  0  0  0
 37107  1  0  0  0
 38 43  2  0  0  0
 38 46  1  0  0  0
 38 47  1  0  0  0
 39 64  1  0  0  0
 39 67  2  0  0  0
 40 52  1  0  0  0
 40 53  2  0  0  0
 40 58  1  0  0  0
 41108  1  0  0  0
 41109  1  0  0  0
 41110  1  0  0  0
 41 48  1  0  0  0
 42 43  1  0  0  0
 42 66  1  0  0  0
 42111  1  0  0  0
 42112  1  0  0  0
 43 44  1  0  0  0
 44113  1  0  0  0
 45 46  2  0  0  0
 45114  1  0  0  0
 46115  1  0  0  0
 47116  1  0  0  0
 47117  1  0  0  0
 48 56  1  0  0  0
 48 65  1  0  0  0
 48118  1  0  0  0
 49 50  1  0  0  0
 49 53  1  0  0  0
 49 64  1  0  0  0
 49119  1  0  0  0
 50 51  1  0  0  0
 50120  1  0  0  0
 50121  1  0  0  0
 51 52  1  0  0  0
 51122  1  0  0  0
 51123  1  0  0  0
 52124  1  0  0  0
 52125  1  0  0  0
 53 54  1  0  0  0
 54 55  2  0  0  0
 54126  1  0  0  0
 55 57  1  0  0  0
 55127  1  0  0  0
 56 69  2  0  0  0
 57 58  2  0  0  0
 57128  1  0  0  0
 58129  1  0  0  0
 59 60  1  0  0  0
 59 61  1  0  0  0
 59 62  1  0  0  0
 60130  1  0  0  0
 60131  1  0  0  0
 60132  1  0  0  0
 61133  1  0  0  0
 61134  1  0  0  0
 61135  1  0  0  0
 62136  1  0  0  0
 62137  1  0  0  0
 62138  1  0  0  0
 63 65  1  0  0  0
 63139  1  0  0  0
 63140  1  0  0  0
 63141  1  0  0  0
 64142  1  0  0  0
 65143  1  0  0  0
 68 81  1  0  0  0
 71 72  2  0  0  0
 71 75  1  0  0  0
 71144  1  0  0  0
 72 76  1  0  0  0
 72145  1  0  0  0
 73 74  1  0  0  0
 73 75  2  0  0  0
 73 77  1  0  0  0
 74 76  2  0  0  0
 74 79  1  0  0  0
 75 82  1  0  0  0
 76 84  1  0  0  0
 77 78  1  0  0  0
 77146  1  0  0  0
 77147  1  0  0  0
 78 79  1  0  0  0
 78148  1  0  0  0
 78149  1  0  0  0
 79 83  1  0  0  0
 79150  1  0  0  0
 80 81  1  0  0  0
 80 82  1  0  0  0
 80151  1  0  0  0
 80152  1  0  0  0
 81153  1  0  0  0
 81154  1  0  0  0
 82155  1  0  0  0
 83156  1  0  0  0
M  ISO  4   1 100  68 101  81 101  83 100
M  END
> <chiral flag>
0

> <version>
0

> <s_m_source_file>
/data/baiqing/PycharmProjects/Reinvent-master-3.2/result/LINK_invent/BTK/process_docking_weight1_custom_product_contain_oxygen_bond_distance_aromatic_linkinvent_7_9_3/rearranged_h_0024.sdf

> <i_m_source_file_index>
21

> <r_mmod_Potential_Energy-OPLS-2005>
193.358444213867

> <r_mmod_Stretch_Energy-OPLS-2005>
124.530120849609

> <r_mmod_Bend_Energy-OPLS-2005>
250.841934204102

> <r_mmod_Torsional_Energy-OPLS-2005>
229.077392578125

> <r_mmod_Improper_Torsional_Energy-OPLS-2005>
6.00132322311401

> <r_mmod_Van_der_Waal_Energy-OPLS-2005>
121.490180969238

> <r_mmod_Electrostatic_Energy-OPLS-2005>
-423.076812744141

> <r_mmod_Solvation_Energy-OPLS-2005>
-208.638275146484

> <b_mmod_Minimization_Converged-OPLS-2005>
0

> <r_mmod_RMS_Derivative-OPLS-2005>
2.15553879737854

$$$$
21
                    3D
 Structure written by MMmdl.
156165  0  0  1  0            999 V2000
  -30.6185  -14.6484   20.4947 C   0  0  0  0  0  0
  -30.4436  -12.3988   19.4471 C   0  0  0  0  0  0
  -29.5086  -12.5083   18.2218 C   0  0  0  0  0  0
  -28.0322  -12.3416   18.6368 C   0  0  0  0  0  0
  -27.6533  -13.2160   19.8618 C   0  0  2  0  0  0
  -28.7011  -13.0748   20.9898 C   0  0  0  0  0  0
  -25.2558  -13.8164   20.5690 C   0  0  0  0  0  0
  -24.1824  -13.0427   20.9177 C   0  0  0  0  0  0
  -24.6394  -11.6903   20.8727 C   0  0  0  0  0  0
  -23.9064  -10.4288   21.0395 C   0  0  0  0  0  0
  -24.3609   -9.4206   21.9175 C   0  0  0  0  0  0
  -23.6283   -8.2245   22.0752 C   0  0  0  0  0  0
  -22.4266   -8.0276   21.3545 C   0  0  0  0  0  0
  -21.9898   -9.0254   20.4651 C   0  0  0  0  0  0
  -22.7235  -10.2128   20.3052 C   0  0  0  0  0  0
  -21.6853   -6.0726   22.5276 C   0  0  0  0  0  0
  -21.4015   -6.5629   23.8211 C   0  0  0  0  0  0
  -21.3664   -5.6783   24.9172 C   0  0  0  0  0  0
  -21.6046   -4.3046   24.7226 C   0  0  0  0  0  0
  -21.8820   -3.8138   23.4349 C   0  0  0  0  0  0
  -21.9197   -4.6954   22.3403 C   0  0  0  0  0  0
  -22.7849  -13.5229   21.1849 C   0  0  0  0  0  0
  -22.1664   -4.2140   21.0982 F   0  0  0  0  0  0
  -21.5631   -3.4533   25.7742 F   0  0  0  0  0  0
  -30.0155  -13.4188   20.4232 N   0  0  0  0  0  0
  -26.2996  -12.9350   20.3327 N   0  0  0  0  0  0
  -25.9323  -11.6502   20.5747 N   0  0  0  0  0  0
  -22.0486  -12.8235   22.0412 N   0  0  0  0  0  0
  -25.4206  -15.1892   20.4153 N   0  0  0  0  0  0
  -31.7902  -14.8144   20.1451 O   0  0  0  0  0  0
  -21.6634   -6.8869   21.4239 O   0  0  0  0  0  0
  -22.3541  -14.5542   20.6706 O   0  0  0  0  0  0
  -24.6266  -31.8609   23.2033 C   0  0  0  0  0  0
  -25.9112  -32.4784   23.8362 C   0  0  1  0  0  0
  -27.2220  -27.3205   20.1097 C   0  0  0  0  0  0
  -25.5922  -33.8582   24.2287 N   0  0  0  0  0  0
  -23.4196  -30.4875   21.5461 C   0  0  2  0  0  0
  -24.8648  -28.9472   20.1112 C   0  0  0  0  0  0
  -22.7473  -29.4641   22.4926 C   0  0  0  0  0  0
  -18.0290  -28.1390   22.8484 C   0  0  0  0  0  0
  -24.1489  -36.7298   23.2639 C   0  0  0  0  0  0
  -25.9626  -30.7926   21.3748 C   0  0  0  0  0  0
  -26.0358  -29.4213   20.7151 C   0  0  0  0  0  0
  -27.2177  -28.6204   20.7047 C   0  0  0  0  0  0
  -26.0221  -26.9041   19.4825 C   0  0  0  0  0  0
  -24.8602  -27.6937   19.4865 C   0  0  0  0  0  0
  -23.6341  -29.8278   20.1603 C   0  0  0  0  0  0
  -25.4108  -36.3083   24.0331 C   0  0  1  0  0  0
  -20.5891  -28.3696   23.1272 C   0  0  2  0  0  0
  -20.6779  -26.9415   22.5405 C   0  0  0  0  0  0
  -19.5754  -26.6388   21.5206 C   0  0  0  0  0  0
  -18.1935  -26.7934   22.1620 C   0  0  0  0  0  0
  -19.1543  -28.8858   23.2878 C   0  0  0  0  0  0
  -18.9467  -30.1459   23.8897 C   0  0  0  0  0  0
  -17.6468  -30.6589   24.0568 C   0  0  0  0  0  0
  -25.9046  -34.9452   23.5109 C   0  0  0  0  0  0
  -16.5358  -29.9091   23.6331 C   0  0  0  0  0  0
  -16.7276  -28.6510   23.0348 C   0  0  0  0  0  0
  -26.4493  -31.6584   25.0728 C   0  0  0  0  0  0
  -25.3730  -31.3728   26.1459 C   0  0  0  0  0  0
  -27.0332  -30.3006   24.6184 C   0  0  0  0  0  0
  -27.6055  -32.4310   25.7499 C   0  0  0  0  0  0
  -27.5575  -37.1801   24.8462 C   0  0  0  0  0  0
  -21.4187  -29.3052   22.3665 N   0  0  0  0  0  0
  -26.4285  -37.3774   23.9411 N   0  0  0  0  0  0
  -24.6884  -31.0633   22.0979 N   0  0  0  0  0  0
  -23.4195  -28.8179   23.3006 O   0  0  0  0  0  0
  -28.3366  -26.4625   20.1584 O   0  0  0  0  0  0
  -26.5618  -34.8916   22.4678 O   0  0  0  0  0  0
  -23.5428  -32.1405   23.7359 O   0  0  0  0  0  0
  -28.6890  -19.3144   20.3761 C   0  0  0  0  0  0
  -31.0766  -17.9070   20.7854 C   0  0  0  0  0  0
  -29.8637  -20.0943   20.5437 C   0  0  0  0  0  0
  -29.8893  -17.1449   20.6512 C   0  0  0  0  0  0
  -28.7004  -17.8896   20.4425 C   0  0  0  0  0  0
  -31.0681  -19.3364   20.7399 C   0  0  0  0  0  0
  -29.6566  -23.6834   21.6605 C   0  0  0  0  0  0
  -30.3819  -22.3137   21.6473 C   0  0  0  0  0  0
  -28.8648  -22.4199   19.8306 C   0  0  0  0  0  0
  -29.2109  -23.9127   20.2118 C   0  0  1  0  0  0
  -28.0860  -25.0127   19.9714 C   0  0  0  0  0  0
  -29.8340  -21.5423   20.5297 N   0  0  0  0  0  0
  -29.7776  -15.6910   20.7752 N   0  0  0  0  0  0
  -27.5349  -17.2115   20.3057 F   0  0  0  0  0  0
  -32.5993  -20.1260   20.9010 Cl  0  0  0  0  0  0
  -31.4828  -12.5320   19.1420 H   0  0  0  0  0  0
  -30.3866  -11.4034   19.8902 H   0  0  0  0  0  0
  -29.7729  -11.7566   17.4770 H   0  0  0  0  0  0
  -29.6473  -13.4766   17.7387 H   0  0  0  0  0  0
  -27.8747  -11.2889   18.8747 H   0  0  0  0  0  0
  -27.3764  -12.5646   17.7943 H   0  0  0  0  0  0
  -27.6667  -14.2492   19.5146 H   0  0  0  0  0  0
  -28.7151  -12.0543   21.3753 H   0  0  0  0  0  0
  -28.4492  -13.7103   21.8404 H   0  0  0  0  0  0
  -25.2748   -9.5684   22.4752 H   0  0  0  0  0  0
  -23.9996   -7.4636   22.7469 H   0  0  0  0  0  0
  -21.0829   -8.8778   19.8955 H   0  0  0  0  0  0
  -22.3694  -10.9666   19.6163 H   0  0  0  0  0  0
  -21.1997   -7.6133   23.9713 H   0  0  0  0  0  0
  -21.1486   -6.0509   25.9076 H   0  0  0  0  0  0
  -22.0593   -2.7600   23.2853 H   0  0  0  0  0  0
  -22.4089  -11.9902   22.4818 H   0  0  0  0  0  0
  -21.1110  -13.1283   22.2612 H   0  0  0  0  0  0
  -24.6470  -15.8320   20.5388 H   0  0  0  0  0  0
  -26.2776  -15.6646   20.1532 H   0  0  0  0  0  0
  -26.7186  -32.5454   23.1115 H   0  0  0  0  0  0
  -25.0055  -33.9732   25.0422 H   0  0  0  0  0  0
  -22.7133  -31.3082   21.4047 H   0  0  0  0  0  0
  -23.3744  -35.9637   23.3301 H   0  0  0  0  0  0
  -24.3587  -36.8920   22.2054 H   0  0  0  0  0  0
  -23.7253  -37.6503   23.6665 H   0  0  0  0  0  0
  -26.0951  -31.5554   20.6065 H   0  0  0  0  0  0
  -26.8427  -30.8401   22.0041 H   0  0  0  0  0  0
  -28.1154  -28.9808   21.1873 H   0  0  0  0  0  0
  -25.9399  -25.9496   18.9869 H   0  0  0  0  0  0
  -23.9637  -27.3252   19.0069 H   0  0  0  0  0  0
  -23.7550  -30.6065   19.4062 H   0  0  0  0  0  0
  -22.7536  -29.2597   19.8551 H   0  0  0  0  0  0
  -25.1284  -36.1935   25.0823 H   0  0  0  0  0  0
  -20.9987  -28.3278   24.1389 H   0  0  0  0  0  0
  -20.5676  -26.2305   23.3608 H   0  0  0  0  0  0
  -21.6651  -26.7443   22.1202 H   0  0  0  0  0  0
  -19.6918  -25.6298   21.1238 H   0  0  0  0  0  0
  -19.6694  -27.3195   20.6734 H   0  0  0  0  0  0
  -17.4201  -26.6676   21.4028 H   0  0  0  0  0  0
  -18.0339  -26.0077   22.9016 H   0  0  0  0  0  0
  -19.7944  -30.7274   24.2263 H   0  0  0  0  0  0
  -17.5025  -31.6267   24.5173 H   0  0  0  0  0  0
  -15.5360  -30.2994   23.7660 H   0  0  0  0  0  0
  -15.8674  -28.0832   22.7060 H   0  0  0  0  0  0
  -24.5901  -30.7078   25.7794 H   0  0  0  0  0  0
  -24.8928  -32.2898   26.4883 H   0  0  0  0  0  0
  -25.8058  -30.8908   27.0234 H   0  0  0  0  0  0
  -26.2906  -29.6757   24.1209 H   0  0  0  0  0  0
  -27.4027  -29.7264   25.4692 H   0  0  0  0  0  0
  -27.8778  -30.4289   23.9411 H   0  0  0  0  0  0
  -27.2671  -33.3605   26.2087 H   0  0  0  0  0  0
  -28.3862  -32.6872   25.0324 H   0  0  0  0  0  0
  -28.0725  -31.8423   26.5406 H   0  0  0  0  0  0
  -28.2588  -38.0099   24.7501 H   0  0  0  0  0  0
  -28.1073  -36.2630   24.6288 H   0  0  0  0  0  0
  -27.2302  -37.1455   25.8867 H   0  0  0  0  0  0
  -20.9357  -29.8775   21.6881 H   0  0  0  0  0  0
  -26.0164  -38.2849   24.1409 H   0  0  0  0  0  0
  -27.7403  -19.8052   20.2229 H   0  0  0  0  0  0
  -32.0169  -17.4015   20.9455 H   0  0  0  0  0  0
  -30.2892  -24.4873   22.0391 H   0  0  0  0  0  0
  -28.7809  -23.6260   22.3087 H   0  0  0  0  0  0
  -30.2704  -21.7921   22.6002 H   0  0  0  0  0  0
  -31.4473  -22.4785   21.4834 H   0  0  0  0  0  0
  -28.9122  -22.2712   18.7504 H   0  0  0  0  0  0
  -27.8517  -22.1728   20.1525 H   0  0  0  0  0  0
  -30.0879  -24.2060   19.6323 H   0  0  0  0  0  0
  -27.2268  -24.7327   20.5838 H   0  0  0  0  0  0
  -27.7830  -24.8802   18.9325 H   0  0  0  0  0  0
  -28.8329  -15.3836   20.9480 H   0  0  0  0  0  0
  1 25  1  0  0  0
  1 30  2  0  0  0
  1 83  1  0  0  0
  2  3  1  0  0  0
  2 25  1  0  0  0
  2 86  1  0  0  0
  2 87  1  0  0  0
  3  4  1  0  0  0
  3 88  1  0  0  0
  3 89  1  0  0  0
  4  5  1  0  0  0
  4 90  1  0  0  0
  4 91  1  0  0  0
  5  6  1  0  0  0
  5 26  1  0  0  0
  5 92  1  0  0  0
  6 25  1  0  0  0
  6 93  1  0  0  0
  6 94  1  0  0  0
  7  8  2  0  0  0
  7 26  1  0  0  0
  7 29  1  0  0  0
  8  9  1  0  0  0
  8 22  1  0  0  0
  9 10  1  0  0  0
  9 27  2  0  0  0
 10 11  2  0  0  0
 10 15  1  0  0  0
 11 12  1  0  0  0
 11 95  1  0  0  0
 12 13  2  0  0  0
 12 96  1  0  0  0
 13 14  1  0  0  0
 13 31  1  0  0  0
 14 15  2  0  0  0
 14 97  1  0  0  0
 15 98  1  0  0  0
 16 17  2  0  0  0
 16 21  1  0  0  0
 16 31  1  0  0  0
 17 18  1  0  0  0
 17 99  1  0  0  0
 18 19  2  0  0  0
 18100  1  0  0  0
 19 20  1  0  0  0
 19 24  1  0  0  0
 20 21  2  0  0  0
 20101  1  0  0  0
 21 23  1  0  0  0
 22 28  1  0  0  0
 22 32  2  0  0  0
 26 27  1  0  0  0
 28102  1  0  0  0
 28103  1  0  0  0
 29104  1  0  0  0
 29105  1  0  0  0
 33 34  1  0  0  0
 33 66  1  0  0  0
 33 70  2  0  0  0
 34 36  1  0  0  0
 34 59  1  0  0  0
 34106  1  0  0  0
 35 44  2  0  0  0
 35 45  1  0  0  0
 35 68  1  0  0  0
 36 56  1  0  0  0
 36107  1  0  0  0
 37 39  1  0  0  0
 37 47  1  0  0  0
 37 66  1  0  0  0
 37108  1  0  0  0
 38 43  2  0  0  0
 38 46  1  0  0  0
 38 47  1  0  0  0
 39 64  1  0  0  0
 39 67  2  0  0  0
 40 52  1  0  0  0
 40 53  2  0  0  0
 40 58  1  0  0  0
 41109  1  0  0  0
 41110  1  0  0  0
 41111  1  0  0  0
 41 48  1  0  0  0
 42 43  1  0  0  0
 42 66  1  0  0  0
 42112  1  0  0  0
 42113  1  0  0  0
 43 44  1  0  0  0
 44114  1  0  0  0
 45 46  2  0  0  0
 45115  1  0  0  0
 46116  1  0  0  0
 47117  1  0  0  0
 47118  1  0  0  0
 48 56  1  0  0  0
 48 65  1  0  0  0
 48119  1  0  0  0
 49 50  1  0  0  0
 49 53  1  0  0  0
 49 64  1  0  0  0
 49120  1  0  0  0
 50 51  1  0  0  0
 50121  1  0  0  0
 50122  1  0  0  0
 51 52  1  0  0  0
 51123  1  0  0  0
 51124  1  0  0  0
 52125  1  0  0  0
 52126  1  0  0  0
 53 54  1  0  0  0
 54 55  2  0  0  0
 54127  1  0  0  0
 55 57  1  0  0  0
 55128  1  0  0  0
 56 69  2  0  0  0
 57 58  2  0  0  0
 57129  1  0  0  0
 58130  1  0  0  0
 59 60  1  0  0  0
 59 61  1  0  0  0
 59 62  1  0  0  0
 60131  1  0  0  0
 60132  1  0  0  0
 60133  1  0  0  0
 61134  1  0  0  0
 61135  1  0  0  0
 61136  1  0  0  0
 62137  1  0  0  0
 62138  1  0  0  0
 62139  1  0  0  0
 63 65  1  0  0  0
 63140  1  0  0  0
 63141  1  0  0  0
 63142  1  0  0  0
 64143  1  0  0  0
 65144  1  0  0  0
 68 81  1  0  0  0
 71 73  2  0  0  0
 71 75  1  0  0  0
 71145  1  0  0  0
 72 74  1  0  0  0
 72 76  2  0  0  0
 72146  1  0  0  0
 73 76  1  0  0  0
 73 82  1  0  0  0
 74 75  2  0  0  0
 74 83  1  0  0  0
 75 84  1  0  0  0
 76 85  1  0  0  0
 77 78  1  0  0  0
 77 80  1  0  0  0
 77147  1  0  0  0
 77148  1  0  0  0
 78 82  1  0  0  0
 78149  1  0  0  0
 78150  1  0  0  0
 79 80  1  0  0  0
 79 82  1  0  0  0
 79151  1  0  0  0
 79152  1  0  0  0
 80 81  1  0  0  0
 80153  1  0  0  0
 81154  1  0  0  0
 81155  1  0  0  0
 83156  1  0  0  0
M  ISO  4   1 100  68 101  81 101  83 100
M  END
> <chiral flag>
0

> <version>
0

> <s_m_source_file>
/data/baiqing/PycharmProjects/Reinvent-master-3.2/result/LINK_invent/BTK/process_docking_weight1_custom_product_contain_oxygen_bond_distance_aromatic_linkinvent_7_9_3/rearranged_h_0024.sdf

> <i_m_source_file_index>
22

> <r_mmod_Potential_Energy-OPLS-2005>
143.332214355469

> <r_mmod_Stretch_Energy-OPLS-2005>
76.8745803833008

> <r_mmod_Bend_Energy-OPLS-2005>
184.693420410156

> <r_mmod_Torsional_Energy-OPLS-2005>
273.445037841797

> <r_mmod_Improper_Torsional_Energy-OPLS-2005>
6.77730226516724

> <r_mmod_Van_der_Waal_Energy-OPLS-2005>
144.095672607422

> <r_mmod_Electrostatic_Energy-OPLS-2005>
-380.554443359375

> <r_mmod_Solvation_Energy-OPLS-2005>
-212.929412841797

> <b_mmod_Minimization_Converged-OPLS-2005>
0

> <r_mmod_RMS_Derivative-OPLS-2005>
0.987970411777496

$$$$
22
                    3D
 Structure written by MMmdl.
160169  0  0  1  0            999 V2000
  -30.6926  -14.4553   20.4600 C   0  0  0  0  0  0
  -30.4159  -12.2617   19.4422 C   0  0  0  0  0  0
  -29.4970  -12.4660   18.2180 C   0  0  0  0  0  0
  -28.0164  -12.3376   18.6273 C   0  0  0  0  0  0
  -27.6555  -13.1934   19.8710 C   0  0  2  0  0  0
  -28.7014  -13.0162   21.0012 C   0  0  0  0  0  0
  -25.2580  -13.8125   20.5686 C   0  0  0  0  0  0
  -24.1822  -13.0420   20.9192 C   0  0  0  0  0  0
  -24.6357  -11.6884   20.8750 C   0  0  0  0  0  0
  -23.9022  -10.4283   21.0419 C   0  0  0  0  0  0
  -24.3587   -9.4202   21.9193 C   0  0  0  0  0  0
  -23.6279   -8.2231   22.0754 C   0  0  0  0  0  0
  -22.4260   -8.0272   21.3545 C   0  0  0  0  0  0
  -21.9884   -9.0242   20.4651 C   0  0  0  0  0  0
  -22.7197  -10.2128   20.3067 C   0  0  0  0  0  0
  -21.6849   -6.0731   22.5279 C   0  0  0  0  0  0
  -21.4008   -6.5638   23.8214 C   0  0  0  0  0  0
  -21.3656   -5.6791   24.9174 C   0  0  0  0  0  0
  -21.6045   -4.3052   24.7224 C   0  0  0  0  0  0
  -21.8819   -3.8145   23.4346 C   0  0  0  0  0  0
  -21.9190   -4.6964   22.3402 C   0  0  0  0  0  0
  -22.7851  -13.5237   21.1850 C   0  0  0  0  0  0
  -22.1661   -4.2151   21.0980 F   0  0  0  0  0  0
  -21.5629   -3.4535   25.7734 F   0  0  0  0  0  0
  -30.0404  -13.2669   20.4440 N   0  0  0  0  0  0
  -26.2988  -12.9254   20.3357 N   0  0  0  0  0  0
  -25.9278  -11.6434   20.5782 N   0  0  0  0  0  0
  -22.0480  -12.8249   22.0411 N   0  0  0  0  0  0
  -25.4297  -15.1848   20.4091 N   0  0  0  0  0  0
  -31.8797  -14.5939   20.1571 O   0  0  0  0  0  0
  -21.6632   -6.8868   21.4239 O   0  0  0  0  0  0
  -22.3547  -14.5549   20.6695 O   0  0  0  0  0  0
  -24.6101  -31.8711   23.2124 C   0  0  0  0  0  0
  -25.9014  -32.4837   23.8409 C   0  0  1  0  0  0
  -27.2408  -27.4743   20.0811 C   0  0  0  0  0  0
  -25.5890  -33.8636   24.2344 N   0  0  0  0  0  0
  -23.3965  -30.4941   21.5514 C   0  0  2  0  0  0
  -24.8438  -28.9631   20.1140 C   0  0  0  0  0  0
  -22.7384  -29.4674   22.5000 C   0  0  0  0  0  0
  -18.0269  -28.1367   22.8496 C   0  0  0  0  0  0
  -24.1486  -36.7321   23.2638 C   0  0  0  0  0  0
  -25.9211  -30.8449   21.3626 C   0  0  0  0  0  0
  -25.9987  -29.4806   20.7131 C   0  0  0  0  0  0
  -27.1956  -28.7359   20.7077 C   0  0  0  0  0  0
  -26.0655  -26.9521   19.4962 C   0  0  0  0  0  0
  -24.8687  -27.6939   19.5086 C   0  0  0  0  0  0
  -23.6033  -29.8250   20.1654 C   0  0  0  0  0  0
  -25.4105  -36.3120   24.0342 C   0  0  1  0  0  0
  -20.5856  -28.3651   23.1326 C   0  0  2  0  0  0
  -20.6759  -26.9391   22.5417 C   0  0  0  0  0  0
  -19.5741  -26.6381   21.5209 C   0  0  0  0  0  0
  -18.1916  -26.7917   22.1618 C   0  0  0  0  0  0
  -19.1517  -28.8825   23.2909 C   0  0  0  0  0  0
  -18.9447  -30.1432   23.8918 C   0  0  0  0  0  0
  -17.6452  -30.6578   24.0563 C   0  0  0  0  0  0
  -25.9029  -34.9483   23.5137 C   0  0  0  0  0  0
  -16.5343  -29.9081   23.6324 C   0  0  0  0  0  0
  -16.7259  -28.6494   23.0354 C   0  0  0  0  0  0
  -26.4458  -31.6608   25.0724 C   0  0  0  0  0  0
  -25.3742  -31.3733   26.1492 C   0  0  0  0  0  0
  -27.0265  -30.3045   24.6085 C   0  0  0  0  0  0
  -27.6056  -32.4316   25.7463 C   0  0  0  0  0  0
  -27.5583  -37.1810   24.8462 C   0  0  0  0  0  0
  -21.4117  -29.3026   22.3735 N   0  0  0  0  0  0
  -26.4295  -37.3798   23.9408 N   0  0  0  0  0  0
  -24.6603  -31.0843   22.1008 N   0  0  0  0  0  0
  -23.4173  -28.8221   23.3034 O   0  0  0  0  0  0
  -28.4186  -26.7687   20.1041 O   0  0  0  0  0  0
  -26.5583  -34.8928   22.4694 O   0  0  0  0  0  0
  -23.5303  -32.1448   23.7539 O   0  0  0  0  0  0
  -30.9791  -18.4337   18.9375 C   0  0  0  0  0  0
  -28.5107  -19.7643   18.6732 C   0  0  0  0  0  0
  -29.7756  -17.7113   19.0664 C   0  0  0  0  0  0
  -29.7139  -20.4592   18.4181 C   0  0  0  0  0  0
  -28.5405  -18.3907   18.9870 C   0  0  0  0  0  0
  -30.9478  -19.8001   18.6030 C   0  0  0  0  0  0
  -28.9453  -23.6087   19.4277 C   0  0  0  0  0  0
  -30.3596  -24.2104   18.0505 C   0  0  0  0  0  0
  -29.6617  -24.9424   19.1907 C   0  0  1  0  0  0
  -29.8171  -16.1954   19.0592 C   0  0  0  0  0  0
  -29.6884  -21.8485   17.7972 C   0  0  0  0  0  0
  -28.8693  -26.2070   18.8786 C   0  0  0  0  0  0
  -29.8595  -15.4980   20.3492 N   0  0  0  0  0  0
  -30.0456  -22.9485   18.7198 N   0  3  2  0  0  0
  -27.3780  -17.7090   19.1246 F   0  0  0  0  0  0
  -32.1073  -20.4650   18.3886 F   0  0  0  0  0  0
  -31.4647  -12.3336   19.1485 H   0  0  0  0  0  0
  -30.2885  -11.2600   19.8556 H   0  0  0  0  0  0
  -29.7322  -11.7328   17.4455 H   0  0  0  0  0  0
  -29.6763  -13.4447   17.7708 H   0  0  0  0  0  0
  -27.8258  -11.2844   18.8383 H   0  0  0  0  0  0
  -27.3682  -12.5987   17.7902 H   0  0  0  0  0  0
  -27.6727  -14.2288   19.5413 H   0  0  0  0  0  0
  -28.6604  -12.0043   21.4069 H   0  0  0  0  0  0
  -28.4887  -13.6853   21.8364 H   0  0  0  0  0  0
  -25.2736   -9.5688   22.4760 H   0  0  0  0  0  0
  -24.0003   -7.4616   22.7459 H   0  0  0  0  0  0
  -21.0818   -8.8753   19.8954 H   0  0  0  0  0  0
  -22.3654  -10.9669   19.6176 H   0  0  0  0  0  0
  -21.2002   -7.6148   23.9713 H   0  0  0  0  0  0
  -21.1477   -6.0524   25.9077 H   0  0  0  0  0  0
  -22.0604   -2.7611   23.2841 H   0  0  0  0  0  0
  -22.4079  -11.9919   22.4828 H   0  0  0  0  0  0
  -21.1098  -13.1290   22.2599 H   0  0  0  0  0  0
  -24.6587  -15.8331   20.5239 H   0  0  0  0  0  0
  -26.2699  -15.6365   20.0699 H   0  0  0  0  0  0
  -26.7087  -32.5568   23.1183 H   0  0  0  0  0  0
  -25.0060  -33.9807   25.0502 H   0  0  0  0  0  0
  -22.6835  -31.3093   21.4133 H   0  0  0  0  0  0
  -23.3748  -35.9655   23.3304 H   0  0  0  0  0  0
  -24.3583  -36.8928   22.2051 H   0  0  0  0  0  0
  -23.7238  -37.6529   23.6645 H   0  0  0  0  0  0
  -26.0301  -31.6109   20.5936 H   0  0  0  0  0  0
  -26.8107  -30.8995   21.9781 H   0  0  0  0  0  0
  -28.0881  -29.1304   21.1732 H   0  0  0  0  0  0
  -26.0601  -25.9693   19.0473 H   0  0  0  0  0  0
  -23.9766  -27.2828   19.0561 H   0  0  0  0  0  0
  -23.7057  -30.5988   19.4038 H   0  0  0  0  0  0
  -22.7295  -29.2400   19.8732 H   0  0  0  0  0  0
  -25.1278  -36.1991   25.0835 H   0  0  0  0  0  0
  -20.9952  -28.3214   24.1445 H   0  0  0  0  0  0
  -20.5664  -26.2257   23.3598 H   0  0  0  0  0  0
  -21.6633  -26.7441   22.1212 H   0  0  0  0  0  0
  -19.6905  -25.6295   21.1227 H   0  0  0  0  0  0
  -19.6684  -27.3202   20.6746 H   0  0  0  0  0  0
  -17.4192  -26.6679   21.4011 H   0  0  0  0  0  0
  -18.0311  -26.0048   22.9003 H   0  0  0  0  0  0
  -19.7927  -30.7237   24.2303 H   0  0  0  0  0  0
  -17.5011  -31.6265   24.5156 H   0  0  0  0  0  0
  -15.5344  -30.2992   23.7634 H   0  0  0  0  0  0
  -15.8659  -28.0815   22.7066 H   0  0  0  0  0  0
  -24.5875  -30.7122   25.7843 H   0  0  0  0  0  0
  -24.8985  -32.2904   26.4975 H   0  0  0  0  0  0
  -25.8101  -30.8870   27.0227 H   0  0  0  0  0  0
  -26.2785  -29.6820   24.1160 H   0  0  0  0  0  0
  -27.4051  -29.7275   25.4533 H   0  0  0  0  0  0
  -27.8622  -30.4357   23.9207 H   0  0  0  0  0  0
  -27.2695  -33.3608   26.2076 H   0  0  0  0  0  0
  -28.3834  -32.6886   25.0260 H   0  0  0  0  0  0
  -28.0757  -31.8417   26.5342 H   0  0  0  0  0  0
  -28.2617  -38.0092   24.7493 H   0  0  0  0  0  0
  -28.1058  -36.2624   24.6297 H   0  0  0  0  0  0
  -27.2305  -37.1482   25.8867 H   0  0  0  0  0  0
  -20.9265  -29.8737   21.6956 H   0  0  0  0  0  0
  -26.0190  -38.2882   24.1396 H   0  0  0  0  0  0
  -31.9293  -17.9225   18.9956 H   0  0  0  0  0  0
  -27.5557  -20.2522   18.5407 H   0  0  0  0  0  0
  -27.9856  -23.5427   18.9113 H   0  0  0  0  0  0
  -28.8567  -23.3193   20.4752 H   0  0  0  0  0  0
  -31.4276  -24.4124   17.9622 H   0  0  0  0  0  0
  -29.8477  -24.3305   17.0932 H   0  0  0  0  0  0
  -30.3864  -25.1212   19.9889 H   0  0  0  0  0  0
  -30.6438  -15.9015   18.4074 H   0  0  0  0  0  0
  -28.9340  -15.8431   18.5251 H   0  0  0  0  0  0
  -28.7209  -22.0354   17.3300 H   0  0  0  0  0  0
  -30.4101  -21.8428   16.9791 H   0  0  0  0  0  0
  -28.0722  -25.9903   18.1682 H   0  0  0  0  0  0
  -29.5114  -26.9431   18.3932 H   0  0  0  0  0  0
  -28.9516  -15.3420   20.7586 H   0  0  0  0  0  0
  -30.7946  -22.6951   19.3459 H   0  0  0  0  0  0
  1 25  1  0  0  0
  1 30  2  0  0  0
  1 83  1  0  0  0
  2  3  1  0  0  0
  2 25  1  0  0  0
  2 87  1  0  0  0
  2 88  1  0  0  0
  3  4  1  0  0  0
  3 89  1  0  0  0
  3 90  1  0  0  0
  4  5  1  0  0  0
  4 91  1  0  0  0
  4 92  1  0  0  0
  5  6  1  0  0  0
  5 26  1  0  0  0
  5 93  1  0  0  0
  6 25  1  0  0  0
  6 94  1  0  0  0
  6 95  1  0  0  0
  7  8  2  0  0  0
  7 26  1  0  0  0
  7 29  1  0  0  0
  8  9  1  0  0  0
  8 22  1  0  0  0
  9 10  1  0  0  0
  9 27  2  0  0  0
 10 11  2  0  0  0
 10 15  1  0  0  0
 11 12  1  0  0  0
 11 96  1  0  0  0
 12 13  2  0  0  0
 12 97  1  0  0  0
 13 14  1  0  0  0
 13 31  1  0  0  0
 14 15  2  0  0  0
 14 98  1  0  0  0
 15 99  1  0  0  0
 16 17  2  0  0  0
 16 21  1  0  0  0
 16 31  1  0  0  0
 17 18  1  0  0  0
 17100  1  0  0  0
 18 19  2  0  0  0
 18101  1  0  0  0
 19 20  1  0  0  0
 19 24  1  0  0  0
 20 21  2  0  0  0
 20102  1  0  0  0
 21 23  1  0  0  0
 22 28  1  0  0  0
 22 32  2  0  0  0
 26 27  1  0  0  0
 28103  1  0  0  0
 28104  1  0  0  0
 29105  1  0  0  0
 29106  1  0  0  0
 33 34  1  0  0  0
 33 66  1  0  0  0
 33 70  2  0  0  0
 34 36  1  0  0  0
 34 59  1  0  0  0
 34107  1  0  0  0
 35 44  2  0  0  0
 35 45  1  0  0  0
 35 68  1  0  0  0
 36 56  1  0  0  0
 36108  1  0  0  0
 37 39  1  0  0  0
 37 47  1  0  0  0
 37 66  1  0  0  0
 37109  1  0  0  0
 38 43  2  0  0  0
 38 46  1  0  0  0
 38 47  1  0  0  0
 39 64  1  0  0  0
 39 67  2  0  0  0
 40 52  1  0  0  0
 40 53  2  0  0  0
 40 58  1  0  0  0
 41110  1  0  0  0
 41111  1  0  0  0
 41112  1  0  0  0
 41 48  1  0  0  0
 42 43  1  0  0  0
 42 66  1  0  0  0
 42113  1  0  0  0
 42114  1  0  0  0
 43 44  1  0  0  0
 44115  1  0  0  0
 45 46  2  0  0  0
 45116  1  0  0  0
 46117  1  0  0  0
 47118  1  0  0  0
 47119  1  0  0  0
 48 56  1  0  0  0
 48 65  1  0  0  0
 48120  1  0  0  0
 49 50  1  0  0  0
 49 53  1  0  0  0
 49 64  1  0  0  0
 49121  1  0  0  0
 50 51  1  0  0  0
 50122  1  0  0  0
 50123  1  0  0  0
 51 52  1  0  0  0
 51124  1  0  0  0
 51125  1  0  0  0
 52126  1  0  0  0
 52127  1  0  0  0
 53 54  1  0  0  0
 54 55  2  0  0  0
 54128  1  0  0  0
 55 57  1  0  0  0
 55129  1  0  0  0
 56 69  2  0  0  0
 57 58  2  0  0  0
 57130  1  0  0  0
 58131  1  0  0  0
 59 60  1  0  0  0
 59 61  1  0  0  0
 59 62  1  0  0  0
 60132  1  0  0  0
 60133  1  0  0  0
 60134  1  0  0  0
 61135  1  0  0  0
 61136  1  0  0  0
 61137  1  0  0  0
 62138  1  0  0  0
 62139  1  0  0  0
 62140  1  0  0  0
 63 65  1  0  0  0
 63141  1  0  0  0
 63142  1  0  0  0
 63143  1  0  0  0
 64144  1  0  0  0
 65145  1  0  0  0
 68 82  1  0  0  0
 71 73  2  0  0  0
 71 76  1  0  0  0
 71146  1  0  0  0
 72 74  1  0  0  0
 72 75  2  0  0  0
 72147  1  0  0  0
 73 75  1  0  0  0
 73 80  1  0  0  0
 74 76  2  0  0  0
 74 81  1  0  0  0
 75 85  1  0  0  0
 76 86  1  0  0  0
 77 79  1  0  0  0
 77 84  1  0  0  0
 77148  1  0  0  0
 77149  1  0  0  0
 78 79  1  0  0  0
 78 84  1  0  0  0
 78150  1  0  0  0
 78151  1  0  0  0
 79 82  1  0  0  0
 79152  1  0  0  0
 80 83  1  0  0  0
 80153  1  0  0  0
 80154  1  0  0  0
 81155  1  0  0  0
 81156  1  0  0  0
 81 84  1  0  0  0
 82157  1  0  0  0
 82158  1  0  0  0
 83159  1  0  0  0
 84160  1  0  0  0
M  CHG  1  84   1
M  ISO  4   1 100  68 101  82 101  83 100
M  END
> <chiral flag>
0

> <version>
0

> <s_m_source_file>
/data/baiqing/PycharmProjects/Reinvent-master-3.2/result/LINK_invent/BTK/process_docking_weight1_custom_product_contain_oxygen_bond_distance_aromatic_linkinvent_7_9_3/rearranged_h_0024.sdf

> <i_m_source_file_index>
23

> <r_mmod_Potential_Energy-OPLS-2005>
-218.571411132812

> <r_mmod_Stretch_Energy-OPLS-2005>
30.9408721923828

> <r_mmod_Bend_Energy-OPLS-2005>
106.613914489746

> <r_mmod_Torsional_Energy-OPLS-2005>
296.379333496094

> <r_mmod_Improper_Torsional_Energy-OPLS-2005>
20.7660980224609

> <r_mmod_Van_der_Waal_Energy-OPLS-2005>
150.767654418945

> <r_mmod_Electrostatic_Energy-OPLS-2005>
-384.484985351562

> <r_mmod_Solvation_Energy-OPLS-2005>
-456.742980957031

> <b_mmod_Minimization_Converged-OPLS-2005>
0

> <r_mmod_RMS_Derivative-OPLS-2005>
0.797525644302368

$$$$
23
                    3D
 Structure written by MMmdl.
153162  0  0  1  0            999 V2000
  -30.5345  -15.0868   20.3868 C   0  0  0  0  0  0
  -30.4354  -12.6890   19.4931 C   0  0  0  0  0  0
  -29.5188  -12.5364   18.2578 C   0  0  0  0  0  0
  -28.0631  -12.2812   18.6909 C   0  0  0  0  0  0
  -27.6150  -13.2366   19.8241 C   0  0  2  0  0  0
  -28.6650  -13.3535   20.9525 C   0  0  0  0  0  0
  -25.2383  -13.8141   20.5704 C   0  0  0  0  0  0
  -24.1721  -13.0377   20.9262 C   0  0  0  0  0  0
  -24.6356  -11.6875   20.8800 C   0  0  0  0  0  0
  -23.9053  -10.4261   21.0440 C   0  0  0  0  0  0
  -24.3611   -9.4171   21.9207 C   0  0  0  0  0  0
  -23.6290   -8.2208   22.0758 C   0  0  0  0  0  0
  -22.4272   -8.0266   21.3546 C   0  0  0  0  0  0
  -21.9908   -9.0240   20.4648 C   0  0  0  0  0  0
  -22.7239  -10.2114   20.3069 C   0  0  0  0  0  0
  -21.6842   -6.0733   22.5282 C   0  0  0  0  0  0
  -21.4009   -6.5634   23.8217 C   0  0  0  0  0  0
  -21.3656   -5.6783   24.9177 C   0  0  0  0  0  0
  -21.6040   -4.3048   24.7226 C   0  0  0  0  0  0
  -21.8817   -3.8142   23.4343 C   0  0  0  0  0  0
  -21.9183   -4.6960   22.3402 C   0  0  0  0  0  0
  -22.7740  -13.5168   21.1895 C   0  0  0  0  0  0
  -22.1655   -4.2151   21.0978 F   0  0  0  0  0  0
  -21.5631   -3.4531   25.7736 F   0  0  0  0  0  0
  -29.9097  -13.8238   20.3214 N   0  0  0  0  0  0
  -26.2810  -12.9362   20.3241 N   0  0  0  0  0  0
  -25.9284  -11.6509   20.5779 N   0  0  0  0  0  0
  -22.0377  -12.8186   22.0458 N   0  0  0  0  0  0
  -25.3931  -15.1865   20.4051 N   0  0  0  0  0  0
  -31.7591  -15.0480   20.2079 O   0  0  0  0  0  0
  -21.6624   -6.8873   21.4244 O   0  0  0  0  0  0
  -22.3437  -14.5470   20.6723 O   0  0  0  0  0  0
  -24.6494  -31.8375   23.1815 C   0  0  0  0  0  0
  -25.9237  -32.4660   23.8236 C   0  0  1  0  0  0
  -27.2249  -27.0709   20.1603 C   0  0  0  0  0  0
  -25.5960  -33.8467   24.2156 N   0  0  0  0  0  0
  -23.4573  -30.4532   21.5282 C   0  0  2  0  0  0
  -24.9098  -28.8654   20.1120 C   0  0  0  0  0  0
  -22.7603  -29.4509   22.4828 C   0  0  0  0  0  0
  -18.0312  -28.1395   22.8477 C   0  0  0  0  0  0
  -24.1493  -36.7239   23.2644 C   0  0  0  0  0  0
  -26.0177  -30.6898   21.3905 C   0  0  0  0  0  0
  -26.0892  -29.2935   20.7339 C   0  0  0  0  0  0
  -27.2451  -28.4142   20.7376 C   0  0  0  0  0  0
  -26.0159  -26.7582   19.5002 C   0  0  0  0  0  0
  -24.8897  -27.6134   19.4783 C   0  0  0  0  0  0
  -23.6896  -29.7763   20.1506 C   0  0  0  0  0  0
  -25.4127  -36.3009   24.0311 C   0  0  1  0  0  0
  -20.5931  -28.3734   23.1217 C   0  0  2  0  0  0
  -20.6795  -26.9429   22.5404 C   0  0  0  0  0  0
  -19.5769  -26.6377   21.5215 C   0  0  0  0  0  0
  -18.1952  -26.7932   22.1625 C   0  0  0  0  0  0
  -19.1571  -28.8882   23.2836 C   0  0  0  0  0  0
  -18.9486  -30.1477   23.8863 C   0  0  0  0  0  0
  -17.6479  -30.6591   24.0559 C   0  0  0  0  0  0
  -25.9081  -34.9388   23.5049 C   0  0  0  0  0  0
  -16.5370  -29.9085   23.6335 C   0  0  0  0  0  0
  -16.7295  -28.6500   23.0360 C   0  0  0  0  0  0
  -26.4543  -31.6546   25.0700 C   0  0  0  0  0  0
  -25.3711  -31.3760   26.1385 C   0  0  0  0  0  0
  -27.0427  -30.2932   24.6330 C   0  0  0  0  0  0
  -27.6057  -32.4329   25.7496 C   0  0  0  0  0  0
  -27.5571  -37.1774   24.8466 C   0  0  0  0  0  0
  -21.4287  -29.3045   22.3581 N   0  0  0  0  0  0
  -26.4283  -37.3726   23.9403 N   0  0  0  0  0  0
  -24.7284  -31.0171   22.0880 N   0  0  0  0  0  0
  -23.4212  -28.8063   23.3012 O   0  0  0  0  0  0
  -28.2708  -26.0547   20.2265 O   0  0  0  0  0  0
  -26.5678  -34.8893   22.4634 O   0  0  0  0  0  0
  -23.5598  -32.1278   23.6995 O   0  0  0  0  0  0
  -32.0115  -19.6007   20.5213 C   0  0  0  0  0  0
  -31.6916  -18.2194   20.5172 C   0  0  0  0  0  0
  -31.0378  -20.6356   20.4382 C   0  0  0  0  0  0
  -29.3705  -18.9033   20.3559 C   0  0  0  0  0  0
  -30.3479  -17.8142   20.4325 C   0  0  0  0  0  0
  -29.6451  -20.3907   20.3446 C   0  0  0  0  0  0
  -28.0515  -18.1682   20.3099 C   0  0  0  0  0  0
  -28.3869  -16.6109   20.2955 C   0  0  0  0  0  0
  -29.0922  -23.1583   20.3321 C   0  0  0  0  0  0
  -28.0185  -24.4912   20.0868 C   0  0  0  0  0  0
  -29.8449  -16.3798   20.4187 N   0  0  0  0  0  0
  -28.7501  -21.6014   20.2503 N   0  0  0  0  0  0
  -31.4608  -12.8602   19.1624 H   0  0  0  0  0  0
  -30.4672  -11.7649   20.0721 H   0  0  0  0  0  0
  -29.8717  -11.7233   17.6214 H   0  0  0  0  0  0
  -29.5695  -13.4434   17.6536 H   0  0  0  0  0  0
  -27.9965  -11.2486   19.0357 H   0  0  0  0  0  0
  -27.3918  -12.3598   17.8344 H   0  0  0  0  0  0
  -27.5348  -14.1986   19.3314 H   0  0  0  0  0  0
  -28.8048  -12.3949   21.4548 H   0  0  0  0  0  0
  -28.3422  -14.0503   21.7251 H   0  0  0  0  0  0
  -25.2753   -9.5643   22.4783 H   0  0  0  0  0  0
  -23.9989   -7.4589   22.7473 H   0  0  0  0  0  0
  -21.0838   -8.8775   19.8955 H   0  0  0  0  0  0
  -22.3715  -10.9664   19.6181 H   0  0  0  0  0  0
  -21.2011   -7.6141   23.9726 H   0  0  0  0  0  0
  -21.1482   -6.0510   25.9080 H   0  0  0  0  0  0
  -22.0602   -2.7606   23.2836 H   0  0  0  0  0  0
  -22.3987  -11.9872   22.4898 H   0  0  0  0  0  0
  -21.0994  -13.1238   22.2645 H   0  0  0  0  0  0
  -24.6154  -15.8287   20.5130 H   0  0  0  0  0  0
  -26.2305  -15.6331   20.0592 H   0  0  0  0  0  0
  -26.7303  -32.5250   23.0958 H   0  0  0  0  0  0
  -25.0080  -33.9574   25.0288 H   0  0  0  0  0  0
  -22.7622  -31.2799   21.3666 H   0  0  0  0  0  0
  -23.3756  -35.9568   23.3296 H   0  0  0  0  0  0
  -24.3570  -36.8885   22.2058 H   0  0  0  0  0  0
  -23.7249  -37.6429   23.6697 H   0  0  0  0  0  0
  -26.1817  -31.4381   20.6139 H   0  0  0  0  0  0
  -26.8845  -30.7431   22.0376 H   0  0  0  0  0  0
  -28.1415  -28.7376   21.2479 H   0  0  0  0  0  0
  -25.9087  -25.8008   19.0135 H   0  0  0  0  0  0
  -23.9902  -27.2807   18.9781 H   0  0  0  0  0  0
  -23.8334  -30.5470   19.3925 H   0  0  0  0  0  0
  -22.8028  -29.2221   19.8387 H   0  0  0  0  0  0
  -25.1316  -36.1831   25.0802 H   0  0  0  0  0  0
  -21.0023  -28.3335   24.1338 H   0  0  0  0  0  0
  -20.5694  -26.2348   23.3632 H   0  0  0  0  0  0
  -21.6659  -26.7436   22.1200 H   0  0  0  0  0  0
  -19.6937  -25.6282   21.1263 H   0  0  0  0  0  0
  -19.6701  -27.3169   20.6732 H   0  0  0  0  0  0
  -17.4220  -26.6677   21.4029 H   0  0  0  0  0  0
  -18.0350  -26.0081   22.9029 H   0  0  0  0  0  0
  -19.7960  -30.7308   24.2214 H   0  0  0  0  0  0
  -17.5031  -31.6268   24.5173 H   0  0  0  0  0  0
  -15.5369  -30.2980   23.7673 H   0  0  0  0  0  0
  -15.8693  -28.0809   22.7096 H   0  0  0  0  0  0
  -24.5879  -30.7128   25.7692 H   0  0  0  0  0  0
  -24.8919  -32.2958   26.4749 H   0  0  0  0  0  0
  -25.7968  -30.8956   27.0204 H   0  0  0  0  0  0
  -26.3069  -29.6623   24.1330 H   0  0  0  0  0  0
  -27.4013  -29.7260   25.4930 H   0  0  0  0  0  0
  -27.8984  -30.4145   23.9684 H   0  0  0  0  0  0
  -27.2637  -33.3648   26.2008 H   0  0  0  0  0  0
  -28.3905  -32.6860   25.0355 H   0  0  0  0  0  0
  -28.0693  -31.8504   26.5468 H   0  0  0  0  0  0
  -28.2581  -38.0076   24.7498 H   0  0  0  0  0  0
  -28.1075  -36.2601   24.6315 H   0  0  0  0  0  0
  -27.2286  -37.1446   25.8869 H   0  0  0  0  0  0
  -20.9514  -29.8739   21.6732 H   0  0  0  0  0  0
  -26.0147  -38.2791   24.1401 H   0  0  0  0  0  0
  -33.0531  -19.8806   20.5887 H   0  0  0  0  0  0
  -32.4853  -17.4891   20.5836 H   0  0  0  0  0  0
  -31.3980  -21.6543   20.4464 H   0  0  0  0  0  0
  -27.4852  -18.4660   19.4268 H   0  0  0  0  0  0
  -27.4615  -18.4342   21.1875 H   0  0  0  0  0  0
  -28.0690  -16.2171   19.3331 H   0  0  0  0  0  0
  -27.8446  -16.1042   21.0909 H   0  0  0  0  0  0
  -29.5284  -23.2993   21.3215 H   0  0  0  0  0  0
  -29.9236  -23.3138   19.6434 H   0  0  0  0  0  0
  -27.1536  -24.2945   20.7209 H   0  0  0  0  0  0
  -27.6498  -24.3646   19.0691 H   0  0  0  0  0  0
  -27.7566  -21.4000   20.1579 H   0  0  0  0  0  0
  1 25  1  0  0  0
  1 30  2  0  0  0
  1 81  1  0  0  0
  2  3  1  0  0  0
  2 25  1  0  0  0
  2 83  1  0  0  0
  2 84  1  0  0  0
  3  4  1  0  0  0
  3 85  1  0  0  0
  3 86  1  0  0  0
  4  5  1  0  0  0
  4 87  1  0  0  0
  4 88  1  0  0  0
  5  6  1  0  0  0
  5 26  1  0  0  0
  5 89  1  0  0  0
  6 25  1  0  0  0
  6 90  1  0  0  0
  6 91  1  0  0  0
  7  8  2  0  0  0
  7 26  1  0  0  0
  7 29  1  0  0  0
  8  9  1  0  0  0
  8 22  1  0  0  0
  9 10  1  0  0  0
  9 27  2  0  0  0
 10 11  2  0  0  0
 10 15  1  0  0  0
 11 12  1  0  0  0
 11 92  1  0  0  0
 12 13  2  0  0  0
 12 93  1  0  0  0
 13 14  1  0  0  0
 13 31  1  0  0  0
 14 15  2  0  0  0
 14 94  1  0  0  0
 15 95  1  0  0  0
 16 17  2  0  0  0
 16 21  1  0  0  0
 16 31  1  0  0  0
 17 18  1  0  0  0
 17 96  1  0  0  0
 18 19  2  0  0  0
 18 97  1  0  0  0
 19 20  1  0  0  0
 19 24  1  0  0  0
 20 21  2  0  0  0
 20 98  1  0  0  0
 21 23  1  0  0  0
 22 28  1  0  0  0
 22 32  2  0  0  0
 26 27  1  0  0  0
 28 99  1  0  0  0
 28100  1  0  0  0
 29101  1  0  0  0
 29102  1  0  0  0
 33 34  1  0  0  0
 33 66  1  0  0  0
 33 70  2  0  0  0
 34 36  1  0  0  0
 34 59  1  0  0  0
 34103  1  0  0  0
 35 44  2  0  0  0
 35 45  1  0  0  0
 35 68  1  0  0  0
 36 56  1  0  0  0
 36104  1  0  0  0
 37 39  1  0  0  0
 37 47  1  0  0  0
 37 66  1  0  0  0
 37105  1  0  0  0
 38 43  2  0  0  0
 38 46  1  0  0  0
 38 47  1  0  0  0
 39 64  1  0  0  0
 39 67  2  0  0  0
 40 52  1  0  0  0
 40 53  2  0  0  0
 40 58  1  0  0  0
 41106  1  0  0  0
 41107  1  0  0  0
 41108  1  0  0  0
 41 48  1  0  0  0
 42 43  1  0  0  0
 42 66  1  0  0  0
 42109  1  0  0  0
 42110  1  0  0  0
 43 44  1  0  0  0
 44111  1  0  0  0
 45 46  2  0  0  0
 45112  1  0  0  0
 46113  1  0  0  0
 47114  1  0  0  0
 47115  1  0  0  0
 48 56  1  0  0  0
 48 65  1  0  0  0
 48116  1  0  0  0
 49 50  1  0  0  0
 49 53  1  0  0  0
 49 64  1  0  0  0
 49117  1  0  0  0
 50 51  1  0  0  0
 50118  1  0  0  0
 50119  1  0  0  0
 51 52  1  0  0  0
 51120  1  0  0  0
 51121  1  0  0  0
 52122  1  0  0  0
 52123  1  0  0  0
 53 54  1  0  0  0
 54 55  2  0  0  0
 54124  1  0  0  0
 55 57  1  0  0  0
 55125  1  0  0  0
 56 69  2  0  0  0
 57 58  2  0  0  0
 57126  1  0  0  0
 58127  1  0  0  0
 59 60  1  0  0  0
 59 61  1  0  0  0
 59 62  1  0  0  0
 60128  1  0  0  0
 60129  1  0  0  0
 60130  1  0  0  0
 61131  1  0  0  0
 61132  1  0  0  0
 61133  1  0  0  0
 62134  1  0  0  0
 62135  1  0  0  0
 62136  1  0  0  0
 63 65  1  0  0  0
 63137  1  0  0  0
 63138  1  0  0  0
 63139  1  0  0  0
 64140  1  0  0  0
 65141  1  0  0  0
 68 80  1  0  0  0
 71 72  2  0  0  0
 71 73  1  0  0  0
 71142  1  0  0  0
 72 75  1  0  0  0
 72143  1  0  0  0
 73 76  2  0  0  0
 73144  1  0  0  0
 74 75  2  0  0  0
 74 76  1  0  0  0
 74 77  1  0  0  0
 75 81  1  0  0  0
 76 82  1  0  0  0
 77 78  1  0  0  0
 77145  1  0  0  0
 77146  1  0  0  0
 78 81  1  0  0  0
 78147  1  0  0  0
 78148  1  0  0  0
 79 80  1  0  0  0
 79 82  1  0  0  0
 79149  1  0  0  0
 79150  1  0  0  0
 80151  1  0  0  0
 80152  1  0  0  0
 82153  1  0  0  0
M  ISO  4   1 100  68 101  80 101  81 100
M  END
> <chiral flag>
0

> <version>
0

> <s_m_source_file>
/data/baiqing/PycharmProjects/Reinvent-master-3.2/result/LINK_invent/BTK/process_docking_weight1_custom_product_contain_oxygen_bond_distance_aromatic_linkinvent_7_9_3/rearranged_h_0024.sdf

> <i_m_source_file_index>
24

> <r_mmod_Potential_Energy-OPLS-2005>
867.214050292969

> <r_mmod_Stretch_Energy-OPLS-2005>
325.043243408203

> <r_mmod_Bend_Energy-OPLS-2005>
363.287048339844

> <r_mmod_Torsional_Energy-OPLS-2005>
262.888671875

> <r_mmod_Improper_Torsional_Energy-OPLS-2005>
4.93514537811279

> <r_mmod_Van_der_Waal_Energy-OPLS-2005>
128.081802368164

> <r_mmod_Electrostatic_Energy-OPLS-2005>
-284.107147216797

> <r_mmod_Solvation_Energy-OPLS-2005>
-209.8720703125

> <b_mmod_Minimization_Converged-OPLS-2005>
0

> <r_mmod_RMS_Derivative-OPLS-2005>
1.23597192764282

$$$$
24
                    3D
 Structure written by MMmdl.
169178  0  0  1  0            999 V2000
  -30.7397  -14.5691   20.5722 C   0  0  0  0  0  0
  -30.4022  -12.3700   19.4525 C   0  0  0  0  0  0
  -29.4957  -12.5195   18.2148 C   0  0  0  0  0  0
  -28.0135  -12.3839   18.6152 C   0  0  0  0  0  0
  -27.6436  -13.2442   19.8535 C   0  0  2  0  0  0
  -28.6862  -13.1280   20.9859 C   0  0  0  0  0  0
  -25.2509  -13.8242   20.5729 C   0  0  0  0  0  0
  -24.1808  -13.0429   20.9234 C   0  0  0  0  0  0
  -24.6406  -11.6933   20.8715 C   0  0  0  0  0  0
  -23.9100  -10.4274   21.0386 C   0  0  0  0  0  0
  -24.3674   -9.4190   21.9169 C   0  0  0  0  0  0
  -23.6328   -8.2232   22.0752 C   0  0  0  0  0  0
  -22.4302   -8.0269   21.3556 C   0  0  0  0  0  0
  -21.9952   -9.0228   20.4654 C   0  0  0  0  0  0
  -22.7268  -10.2106   20.3022 C   0  0  0  0  0  0
  -21.6860   -6.0747   22.5298 C   0  0  0  0  0  0
  -21.4005   -6.5666   23.8229 C   0  0  0  0  0  0
  -21.3649   -5.6811   24.9186 C   0  0  0  0  0  0
  -21.6041   -4.3066   24.7250 C   0  0  0  0  0  0
  -21.8811   -3.8177   23.4366 C   0  0  0  0  0  0
  -21.9187   -4.6979   22.3418 C   0  0  0  0  0  0
  -22.7815  -13.5196   21.1884 C   0  0  0  0  0  0
  -22.1652   -4.2165   21.0990 F   0  0  0  0  0  0
  -21.5630   -3.4542   25.7769 F   0  0  0  0  0  0
  -30.0108  -13.4176   20.4259 N   0  0  0  0  0  0
  -26.2947  -12.9479   20.3292 N   0  0  0  0  0  0
  -25.9344  -11.6601   20.5748 N   0  0  0  0  0  0
  -22.0457  -12.8155   22.0434 N   0  0  0  0  0  0
  -25.4140  -15.1984   20.4218 N   0  0  0  0  0  0
  -31.8536  -14.6630   20.0510 O   0  0  0  0  0  0
  -21.6632   -6.8897   21.4259 O   0  0  0  0  0  0
  -22.3454  -14.5469   20.6717 O   0  0  0  0  0  0
  -24.6310  -31.8543   23.1983 C   0  0  0  0  0  0
  -25.9139  -32.4757   23.8320 C   0  0  1  0  0  0
  -27.2380  -27.3247   20.0949 C   0  0  0  0  0  0
  -25.5935  -33.8558   24.2254 N   0  0  0  0  0  0
  -23.4253  -30.4735   21.5434 C   0  0  2  0  0  0
  -24.8650  -28.9174   20.1140 C   0  0  0  0  0  0
  -22.7513  -29.4584   22.4978 C   0  0  0  0  0  0
  -18.0289  -28.1395   22.8462 C   0  0  0  0  0  0
  -24.1484  -36.7301   23.2637 C   0  0  0  0  0  0
  -25.9630  -30.7815   21.3631 C   0  0  0  0  0  0
  -26.0325  -29.4094   20.7078 C   0  0  0  0  0  0
  -27.2165  -28.6223   20.6857 C   0  0  0  0  0  0
  -26.0413  -26.8705   19.4901 C   0  0  0  0  0  0
  -24.8697  -27.6554   19.4956 C   0  0  0  0  0  0
  -23.6362  -29.7989   20.1617 C   0  0  0  0  0  0
  -25.4112  -36.3086   24.0321 C   0  0  1  0  0  0
  -20.5880  -28.3687   23.1293 C   0  0  2  0  0  0
  -20.6777  -26.9411   22.5412 C   0  0  0  0  0  0
  -19.5768  -26.6384   21.5202 C   0  0  0  0  0  0
  -18.1947  -26.7942   22.1596 C   0  0  0  0  0  0
  -19.1533  -28.8866   23.2867 C   0  0  0  0  0  0
  -18.9464  -30.1471   23.8888 C   0  0  0  0  0  0
  -17.6467  -30.6597   24.0567 C   0  0  0  0  0  0
  -25.9054  -34.9452   23.5095 C   0  0  0  0  0  0
  -16.5362  -29.9098   23.6331 C   0  0  0  0  0  0
  -16.7280  -28.6514   23.0352 C   0  0  0  0  0  0
  -26.4515  -31.6575   25.0702 C   0  0  0  0  0  0
  -25.3751  -31.3685   26.1424 C   0  0  0  0  0  0
  -27.0368  -30.3026   24.6124 C   0  0  0  0  0  0
  -27.6094  -32.4301   25.7486 C   0  0  0  0  0  0
  -27.5583  -37.1808   24.8468 C   0  0  0  0  0  0
  -21.4225  -29.3043   22.3704 N   0  0  0  0  0  0
  -26.4294  -37.3784   23.9416 N   0  0  0  0  0  0
  -24.6936  -31.0547   22.0931 N   0  0  0  0  0  0
  -23.4213  -28.8129   23.3076 O   0  0  0  0  0  0
  -28.4009  -26.5451   20.1582 O   0  0  0  0  0  0
  -26.5642  -34.8922   22.4670 O   0  0  0  0  0  0
  -23.5466  -32.1355   23.7301 O   0  0  0  0  0  0
  -32.8425  -18.5585   22.9709 C   0  0  0  0  0  0
  -33.0684  -17.1830   23.0383 C   0  0  0  0  0  0
  -31.6819  -19.0450   22.3504 C   0  0  0  0  0  0
  -32.1337  -16.3096   22.4745 C   0  0  0  0  0  0
  -30.7246  -18.2032   21.7222 C   0  0  0  0  0  0
  -30.9802  -16.7560   21.7708 C   0  0  0  0  0  0
  -28.4295  -23.9417   20.3856 C   0  0  0  0  0  0
  -29.4115  -18.6469   18.4415 C   0  0  0  0  0  0
  -28.5231  -17.7214   19.3070 C   0  0  0  0  0  0
  -29.4001  -20.1069   18.9447 C   0  0  0  0  0  0
  -28.4263  -18.1943   20.7706 C   0  0  0  0  0  0
  -29.8453  -20.2479   20.4175 C   0  0  1  0  0  0
  -30.7113  -23.2164   19.8356 C   0  0  0  0  0  0
  -28.5488  -25.2428   19.4790 C   0  0  0  0  0  0
  -29.2106  -21.5757   21.0650 C   0  0  0  0  0  0
  -29.6277  -18.9312   21.1424 N   0  0  0  0  0  0
  -30.1966  -15.6574   21.2061 N   0  0  0  0  0  0
  -29.3695  -22.9214   20.3611 N   0  0  0  0  0  0
  -27.4074  -23.8297   21.0685 O   0  0  0  0  0  0
  -31.4477  -12.4396   19.1501 H   0  0  0  0  0  0
  -30.2919  -11.3747   19.8850 H   0  0  0  0  0  0
  -29.7534  -11.7670   17.4637 H   0  0  0  0  0  0
  -29.6745  -13.4892   17.7477 H   0  0  0  0  0  0
  -27.8194  -11.3332   18.8207 H   0  0  0  0  0  0
  -27.3759  -12.6444   17.7697 H   0  0  0  0  0  0
  -27.6503  -14.2789   19.5098 H   0  0  0  0  0  0
  -28.6727  -12.1259   21.4148 H   0  0  0  0  0  0
  -28.4377  -13.8115   21.7997 H   0  0  0  0  0  0
  -25.2818   -9.5667   22.4745 H   0  0  0  0  0  0
  -24.0041   -7.4630   22.7466 H   0  0  0  0  0  0
  -21.0882   -8.8715   19.8976 H   0  0  0  0  0  0
  -22.3711  -10.9630   19.6119 H   0  0  0  0  0  0
  -21.1968   -7.6169   23.9748 H   0  0  0  0  0  0
  -21.1501   -6.0540   25.9102 H   0  0  0  0  0  0
  -22.0611   -2.7639   23.2858 H   0  0  0  0  0  0
  -22.4071  -11.9855   22.4891 H   0  0  0  0  0  0
  -21.1033  -13.1136   22.2569 H   0  0  0  0  0  0
  -24.6440  -15.8477   20.5386 H   0  0  0  0  0  0
  -26.2671  -15.6493   20.1231 H   0  0  0  0  0  0
  -26.7222  -32.5411   23.1063 H   0  0  0  0  0  0
  -25.0081  -33.9682   25.0401 H   0  0  0  0  0  0
  -22.7206  -31.2943   21.3962 H   0  0  0  0  0  0
  -23.3748  -35.9636   23.3304 H   0  0  0  0  0  0
  -24.3570  -36.8928   22.2057 H   0  0  0  0  0  0
  -23.7236  -37.6494   23.6670 H   0  0  0  0  0  0
  -26.0865  -31.5346   20.5853 H   0  0  0  0  0  0
  -26.8494  -30.8370   21.9828 H   0  0  0  0  0  0
  -28.1231  -28.9980   21.1391 H   0  0  0  0  0  0
  -25.9667  -25.8975   19.0294 H   0  0  0  0  0  0
  -23.9707  -27.2719   19.0322 H   0  0  0  0  0  0
  -23.7679  -30.5718   19.4051 H   0  0  0  0  0  0
  -22.7567  -29.2306   19.8556 H   0  0  0  0  0  0
  -25.1297  -36.1928   25.0817 H   0  0  0  0  0  0
  -20.9944  -28.3259   24.1425 H   0  0  0  0  0  0
  -20.5671  -26.2315   23.3615 H   0  0  0  0  0  0
  -21.6658  -26.7452   22.1223 H   0  0  0  0  0  0
  -19.6943  -25.6286   21.1270 H   0  0  0  0  0  0
  -19.6731  -27.3166   20.6719 H   0  0  0  0  0  0
  -17.4225  -26.6685   21.4001 H   0  0  0  0  0  0
  -18.0347  -26.0086   22.8992 H   0  0  0  0  0  0
  -19.7944  -30.7281   24.2270 H   0  0  0  0  0  0
  -17.5027  -31.6275   24.5170 H   0  0  0  0  0  0
  -15.5364  -30.3004   23.7672 H   0  0  0  0  0  0
  -15.8675  -28.0842   22.7080 H   0  0  0  0  0  0
  -24.5936  -30.7030   25.7735 H   0  0  0  0  0  0
  -24.8911  -32.2824   26.4894 H   0  0  0  0  0  0
  -25.8058  -30.8830   27.0188 H   0  0  0  0  0  0
  -26.2915  -29.6768   24.1200 H   0  0  0  0  0  0
  -27.4170  -29.7292   25.4589 H   0  0  0  0  0  0
  -27.8740  -30.4377   23.9267 H   0  0  0  0  0  0
  -27.2739  -33.3607   26.2093 H   0  0  0  0  0  0
  -28.3902  -32.6855   25.0302 H   0  0  0  0  0  0
  -28.0778  -31.8397   26.5376 H   0  0  0  0  0  0
  -28.2604  -38.0108   24.7532 H   0  0  0  0  0  0
  -28.1079  -36.2641   24.6276 H   0  0  0  0  0  0
  -27.2308  -37.1441   25.8873 H   0  0  0  0  0  0
  -20.9444  -29.8763   21.6875 H   0  0  0  0  0  0
  -26.0170  -38.2857   24.1421 H   0  0  0  0  0  0
  -33.5521  -19.2453   23.4083 H   0  0  0  0  0  0
  -33.9539  -16.7917   23.5260 H   0  0  0  0  0  0
  -31.5456  -20.1156   22.3776 H   0  0  0  0  0  0
  -32.3475  -15.2560   22.5779 H   0  0  0  0  0  0
  -29.1046  -18.5945   17.3979 H   0  0  0  0  0  0
  -30.4379  -18.2764   18.4755 H   0  0  0  0  0  0
  -28.9257  -16.7102   19.2503 H   0  0  0  0  0  0
  -27.5147  -17.6427   18.8985 H   0  0  0  0  0  0
  -28.3998  -20.5235   18.8241 H   0  0  0  0  0  0
  -30.0540  -20.7153   18.3152 H   0  0  0  0  0  0
  -28.2220  -17.3758   21.4582 H   0  0  0  0  0  0
  -27.5748  -18.8704   20.8645 H   0  0  0  0  0  0
  -30.9250  -20.3942   20.3644 H   0  0  0  0  0  0
  -31.0807  -24.1656   20.2343 H   0  0  0  0  0  0
  -30.6968  -23.2860   18.7455 H   0  0  0  0  0  0
  -31.4532  -22.4709   20.1114 H   0  0  0  0  0  0
  -27.8572  -25.1379   18.6473 H   0  0  0  0  0  0
  -29.5094  -25.2770   18.9704 H   0  0  0  0  0  0
  -29.6054  -21.6959   22.0729 H   0  0  0  0  0  0
  -28.1474  -21.3853   21.2067 H   0  0  0  0  0  0
  -29.2166  -15.6283   21.4316 H   0  0  0  0  0  0
  1 25  1  0  0  0
  1 30  2  0  0  0
  1 87  1  0  0  0
  2  3  1  0  0  0
  2 25  1  0  0  0
  2 90  1  0  0  0
  2 91  1  0  0  0
  3  4  1  0  0  0
  3 92  1  0  0  0
  3 93  1  0  0  0
  4  5  1  0  0  0
  4 94  1  0  0  0
  4 95  1  0  0  0
  5  6  1  0  0  0
  5 26  1  0  0  0
  5 96  1  0  0  0
  6 25  1  0  0  0
  6 97  1  0  0  0
  6 98  1  0  0  0
  7  8  2  0  0  0
  7 26  1  0  0  0
  7 29  1  0  0  0
  8  9  1  0  0  0
  8 22  1  0  0  0
  9 10  1  0  0  0
  9 27  2  0  0  0
 10 11  2  0  0  0
 10 15  1  0  0  0
 11 12  1  0  0  0
 11 99  1  0  0  0
 12 13  2  0  0  0
 12100  1  0  0  0
 13 14  1  0  0  0
 13 31  1  0  0  0
 14 15  2  0  0  0
 14101  1  0  0  0
 15102  1  0  0  0
 16 17  2  0  0  0
 16 21  1  0  0  0
 16 31  1  0  0  0
 17 18  1  0  0  0
 17103  1  0  0  0
 18 19  2  0  0  0
 18104  1  0  0  0
 19 20  1  0  0  0
 19 24  1  0  0  0
 20 21  2  0  0  0
 20105  1  0  0  0
 21 23  1  0  0  0
 22 28  1  0  0  0
 22 32  2  0  0  0
 26 27  1  0  0  0
 28106  1  0  0  0
 28107  1  0  0  0
 29108  1  0  0  0
 29109  1  0  0  0
 33 34  1  0  0  0
 33 66  1  0  0  0
 33 70  2  0  0  0
 34 36  1  0  0  0
 34 59  1  0  0  0
 34110  1  0  0  0
 35 44  2  0  0  0
 35 45  1  0  0  0
 35 68  1  0  0  0
 36 56  1  0  0  0
 36111  1  0  0  0
 37 39  1  0  0  0
 37 47  1  0  0  0
 37 66  1  0  0  0
 37112  1  0  0  0
 38 43  2  0  0  0
 38 46  1  0  0  0
 38 47  1  0  0  0
 39 64  1  0  0  0
 39 67  2  0  0  0
 40 52  1  0  0  0
 40 53  2  0  0  0
 40 58  1  0  0  0
 41113  1  0  0  0
 41114  1  0  0  0
 41115  1  0  0  0
 41 48  1  0  0  0
 42 43  1  0  0  0
 42 66  1  0  0  0
 42116  1  0  0  0
 42117  1  0  0  0
 43 44  1  0  0  0
 44118  1  0  0  0
 45 46  2  0  0  0
 45119  1  0  0  0
 46120  1  0  0  0
 47121  1  0  0  0
 47122  1  0  0  0
 48 56  1  0  0  0
 48 65  1  0  0  0
 48123  1  0  0  0
 49 50  1  0  0  0
 49 53  1  0  0  0
 49 64  1  0  0  0
 49124  1  0  0  0
 50 51  1  0  0  0
 50125  1  0  0  0
 50126  1  0  0  0
 51 52  1  0  0  0
 51127  1  0  0  0
 51128  1  0  0  0
 52129  1  0  0  0
 52130  1  0  0  0
 53 54  1  0  0  0
 54 55  2  0  0  0
 54131  1  0  0  0
 55 57  1  0  0  0
 55132  1  0  0  0
 56 69  2  0  0  0
 57 58  2  0  0  0
 57133  1  0  0  0
 58134  1  0  0  0
 59 60  1  0  0  0
 59 61  1  0  0  0
 59 62  1  0  0  0
 60135  1  0  0  0
 60136  1  0  0  0
 60137  1  0  0  0
 61138  1  0  0  0
 61139  1  0  0  0
 61140  1  0  0  0
 62141  1  0  0  0
 62142  1  0  0  0
 62143  1  0  0  0
 63 65  1  0  0  0
 63144  1  0  0  0
 63145  1  0  0  0
 63146  1  0  0  0
 64147  1  0  0  0
 65148  1  0  0  0
 68 84  1  0  0  0
 71 72  2  0  0  0
 71 73  1  0  0  0
 71149  1  0  0  0
 72 74  1  0  0  0
 72150  1  0  0  0
 73 75  2  0  0  0
 73151  1  0  0  0
 74 76  2  0  0  0
 74152  1  0  0  0
 75 76  1  0  0  0
 75 86  1  0  0  0
 76 87  1  0  0  0
 77 84  1  0  0  0
 77 88  1  0  0  0
 77 89  2  0  0  0
 78 79  1  0  0  0
 78 80  1  0  0  0
 78153  1  0  0  0
 78154  1  0  0  0
 79 81  1  0  0  0
 79155  1  0  0  0
 79156  1  0  0  0
 80 82  1  0  0  0
 80157  1  0  0  0
 80158  1  0  0  0
 81 86  1  0  0  0
 81159  1  0  0  0
 81160  1  0  0  0
 82 85  1  0  0  0
 82 86  1  0  0  0
 82161  1  0  0  0
 83 88  1  0  0  0
 83162  1  0  0  0
 83163  1  0  0  0
 83164  1  0  0  0
 84165  1  0  0  0
 84166  1  0  0  0
 85 88  1  0  0  0
 85167  1  0  0  0
 85168  1  0  0  0
 87169  1  0  0  0
M  ISO  4   1 100  68 101  84 101  87 100
M  END
> <chiral flag>
0

> <version>
0

> <s_m_source_file>
/data/baiqing/PycharmProjects/Reinvent-master-3.2/result/LINK_invent/BTK/process_docking_weight1_custom_product_contain_oxygen_bond_distance_aromatic_linkinvent_7_9_3/rearranged_h_0024.sdf

> <i_m_source_file_index>
25

> <r_mmod_Potential_Energy-OPLS-2005>
163.825271606445

> <r_mmod_Stretch_Energy-OPLS-2005>
104.387344360352

> <r_mmod_Bend_Energy-OPLS-2005>
186.510696411133

> <r_mmod_Torsional_Energy-OPLS-2005>
312.672302246094

> <r_mmod_Improper_Torsional_Energy-OPLS-2005>
4.79825639724731

> <r_mmod_Van_der_Waal_Energy-OPLS-2005>
170.529373168945

> <r_mmod_Electrostatic_Energy-OPLS-2005>
-408.225189208984

> <r_mmod_Solvation_Energy-OPLS-2005>
-244.536239624023

> <b_mmod_Minimization_Converged-OPLS-2005>
0

> <r_mmod_RMS_Derivative-OPLS-2005>
5.49659442901611

$$$$
25
                    3D
 Structure written by MMmdl.
172182  0  0  1  0            999 V2000
  -30.6013  -14.7479   20.4649 C   0  0  0  0  0  0
  -30.4344  -12.4579   19.4650 C   0  0  0  0  0  0
  -29.5108  -12.5137   18.2286 C   0  0  0  0  0  0
  -28.0333  -12.3453   18.6379 C   0  0  0  0  0  0
  -27.6413  -13.2338   19.8496 C   0  0  2  0  0  0
  -28.6882  -13.1585   20.9816 C   0  0  0  0  0  0
  -25.2503  -13.8200   20.5685 C   0  0  0  0  0  0
  -24.1800  -13.0443   20.9208 C   0  0  0  0  0  0
  -24.6393  -11.6922   20.8742 C   0  0  0  0  0  0
  -23.9074  -10.4297   21.0404 C   0  0  0  0  0  0
  -24.3625   -9.4212   21.9179 C   0  0  0  0  0  0
  -23.6298   -8.2247   22.0745 C   0  0  0  0  0  0
  -22.4282   -8.0279   21.3536 C   0  0  0  0  0  0
  -21.9916   -9.0256   20.4642 C   0  0  0  0  0  0
  -22.7247  -10.2134   20.3049 C   0  0  0  0  0  0
  -21.6858   -6.0735   22.5279 C   0  0  0  0  0  0
  -21.4023   -6.5634   23.8216 C   0  0  0  0  0  0
  -21.3660   -5.6781   24.9172 C   0  0  0  0  0  0
  -21.6046   -4.3047   24.7219 C   0  0  0  0  0  0
  -21.8824   -3.8142   23.4341 C   0  0  0  0  0  0
  -21.9195   -4.6962   22.3400 C   0  0  0  0  0  0
  -22.7821  -13.5224   21.1866 C   0  0  0  0  0  0
  -22.1658   -4.2148   21.0976 F   0  0  0  0  0  0
  -21.5626   -3.4528   25.7728 F   0  0  0  0  0  0
  -29.9858  -13.5175   20.3968 N   0  0  0  0  0  0
  -26.2935  -12.9412   20.3271 N   0  0  0  0  0  0
  -25.9328  -11.6554   20.5750 N   0  0  0  0  0  0
  -22.0463  -12.8218   22.0426 N   0  0  0  0  0  0
  -25.4166  -15.1925   20.4082 N   0  0  0  0  0  0
  -31.7885  -14.8524   20.1408 O   0  0  0  0  0  0
  -21.6640   -6.8879   21.4239 O   0  0  0  0  0  0
  -22.3506  -14.5526   20.6703 O   0  0  0  0  0  0
  -24.6315  -31.8539   23.1969 C   0  0  0  0  0  0
  -25.9132  -32.4751   23.8328 C   0  0  1  0  0  0
  -27.2274  -27.2611   20.1404 C   0  0  0  0  0  0
  -25.5929  -33.8555   24.2252 N   0  0  0  0  0  0
  -23.4295  -30.4736   21.5394 C   0  0  2  0  0  0
  -24.8785  -28.9105   20.1185 C   0  0  0  0  0  0
  -22.7504  -29.4589   22.4906 C   0  0  0  0  0  0
  -18.0288  -28.1384   22.8467 C   0  0  0  0  0  0
  -24.1488  -36.7282   23.2642 C   0  0  0  0  0  0
  -25.9741  -30.7676   21.3747 C   0  0  0  0  0  0
  -26.0493  -29.3867   20.7222 C   0  0  0  0  0  0
  -27.2300  -28.5769   20.7150 C   0  0  0  0  0  0
  -26.0356  -26.8423   19.5174 C   0  0  0  0  0  0
  -24.8747  -27.6444   19.5070 C   0  0  0  0  0  0
  -23.6504  -29.8008   20.1581 C   0  0  0  0  0  0
  -25.4118  -36.3075   24.0329 C   0  0  1  0  0  0
  -20.5888  -28.3698   23.1256 C   0  0  2  0  0  0
  -20.6775  -26.9412   22.5405 C   0  0  0  0  0  0
  -19.5757  -26.6374   21.5201 C   0  0  0  0  0  0
  -18.1933  -26.7923   22.1607 C   0  0  0  0  0  0
  -19.1541  -28.8856   23.2854 C   0  0  0  0  0  0
  -18.9467  -30.1452   23.8881 C   0  0  0  0  0  0
  -17.6468  -30.6585   24.0553 C   0  0  0  0  0  0
  -25.9060  -34.9444   23.5095 C   0  0  0  0  0  0
  -16.5356  -29.9084   23.6324 C   0  0  0  0  0  0
  -16.7274  -28.6498   23.0347 C   0  0  0  0  0  0
  -26.4497  -31.6584   25.0727 C   0  0  0  0  0  0
  -25.3717  -31.3725   26.1446 C   0  0  0  0  0  0
  -27.0347  -30.3001   24.6210 C   0  0  0  0  0  0
  -27.6045  -32.4333   25.7503 C   0  0  0  0  0  0
  -27.5582  -37.1804   24.8465 C   0  0  0  0  0  0
  -21.4210  -29.3045   22.3650 N   0  0  0  0  0  0
  -26.4292  -37.3777   23.9409 N   0  0  0  0  0  0
  -24.6973  -31.0506   22.0936 N   0  0  0  0  0  0
  -23.4199  -28.8128   23.3008 O   0  0  0  0  0  0
  -28.3442  -26.3982   20.1071 O   0  0  0  0  0  0
  -26.5634  -34.8919   22.4670 O   0  0  0  0  0  0
  -23.5460  -32.1350   23.7269 O   0  0  0  0  0  0
  -31.4357  -19.0248   22.0349 C   0  0  0  0  0  0
  -29.6834  -19.8509   20.5157 C   0  0  0  0  0  0
  -29.3856  -18.4338   20.2538 C   0  0  0  0  0  0
  -30.7798  -20.0934   21.3868 C   0  0  0  0  0  0
  -30.1170  -17.3142   20.8608 C   0  0  0  0  0  0
  -31.1148  -17.6746   21.8052 C   0  0  0  0  0  0
  -31.9762  -22.1397   20.7568 C   0  0  0  0  0  0
  -28.7394  -23.7261   19.9487 C   0  0  0  0  0  0
  -32.4517  -23.4389   21.3830 C   0  0  0  0  0  0
  -31.8236  -23.4118   22.7791 C   0  0  0  0  0  0
  -27.5650  -23.4999   22.5884 C   0  0  0  0  0  0
  -27.2120  -24.7463   21.7606 C   0  0  0  0  0  0
  -31.3350  -21.9709   22.9761 C   0  0  0  0  0  0
  -27.7933  -22.2453   21.7139 C   0  0  0  0  0  0
  -28.3588  -25.0483   20.7866 C   0  0  1  0  0  0
  -28.2545  -18.1106   19.2878 C   0  0  0  0  0  0
  -28.9395  -21.1014   19.8138 C   0  0  0  0  0  0
  -31.2754  -21.4030   21.6358 N   0  0  0  0  0  0
  -28.6174  -22.4436   20.5063 N   0  0  0  0  0  0
  -29.7980  -15.8693   20.6496 N   0  0  0  0  0  0
  -32.2100  -21.8502   19.5802 O   0  0  0  0  0  0
  -29.1932  -23.8796   18.8109 O   0  0  0  0  0  0
  -31.9449  -16.5117   22.7834 Cl  0  0  0  0  0  0
  -31.4748  -12.5871   19.1622 H   0  0  0  0  0  0
  -30.3800  -11.4787   19.9433 H   0  0  0  0  0  0
  -29.7905  -11.7419   17.5103 H   0  0  0  0  0  0
  -29.6421  -13.4687   17.7166 H   0  0  0  0  0  0
  -27.8777  -11.2946   18.8836 H   0  0  0  0  0  0
  -27.3803  -12.5568   17.7901 H   0  0  0  0  0  0
  -27.6341  -14.2577   19.4766 H   0  0  0  0  0  0
  -28.7261  -12.1573   21.4129 H   0  0  0  0  0  0
  -28.4275  -13.8343   21.7976 H   0  0  0  0  0  0
  -25.2771   -9.5683   22.4751 H   0  0  0  0  0  0
  -24.0005   -7.4643   22.7469 H   0  0  0  0  0  0
  -21.0840   -8.8780   19.8960 H   0  0  0  0  0  0
  -22.3702  -10.9672   19.6156 H   0  0  0  0  0  0
  -21.2021   -7.6143   23.9720 H   0  0  0  0  0  0
  -21.1477   -6.0507   25.9074 H   0  0  0  0  0  0
  -22.0604   -2.7605   23.2836 H   0  0  0  0  0  0
  -22.4047  -11.9872   22.4828 H   0  0  0  0  0  0
  -21.1086  -13.1259   22.2632 H   0  0  0  0  0  0
  -24.6451  -15.8418   20.5156 H   0  0  0  0  0  0
  -26.2527  -15.6335   20.0515 H   0  0  0  0  0  0
  -26.7201  -32.5405   23.1074 H   0  0  0  0  0  0
  -25.0075  -33.9687   25.0397 H   0  0  0  0  0  0
  -22.7265  -31.2961   21.3896 H   0  0  0  0  0  0
  -23.3760  -35.9603   23.3299 H   0  0  0  0  0  0
  -24.3570  -36.8913   22.2056 H   0  0  0  0  0  0
  -23.7224  -37.6476   23.6669 H   0  0  0  0  0  0
  -26.1128  -31.5264   20.6035 H   0  0  0  0  0  0
  -26.8511  -30.8192   22.0078 H   0  0  0  0  0  0
  -28.1345  -28.9454   21.1772 H   0  0  0  0  0  0
  -26.0008  -25.8717   19.0425 H   0  0  0  0  0  0
  -23.9779  -27.2725   19.0308 H   0  0  0  0  0  0
  -23.7819  -30.5750   19.4012 H   0  0  0  0  0  0
  -22.7683  -29.2377   19.8494 H   0  0  0  0  0  0
  -25.1300  -36.1924   25.0821 H   0  0  0  0  0  0
  -20.9975  -28.3277   24.1377 H   0  0  0  0  0  0
  -20.5652  -26.2312   23.3613 H   0  0  0  0  0  0
  -21.6648  -26.7422   22.1216 H   0  0  0  0  0  0
  -19.6923  -25.6281   21.1241 H   0  0  0  0  0  0
  -19.6703  -27.3171   20.6720 H   0  0  0  0  0  0
  -17.4206  -26.6655   21.4009 H   0  0  0  0  0  0
  -18.0343  -26.0067   22.9007 H   0  0  0  0  0  0
  -19.7948  -30.7259   24.2254 H   0  0  0  0  0  0
  -17.5029  -31.6265   24.5160 H   0  0  0  0  0  0
  -15.5358  -30.2990   23.7659 H   0  0  0  0  0  0
  -15.8665  -28.0817   22.7080 H   0  0  0  0  0  0
  -24.5892  -30.7076   25.7769 H   0  0  0  0  0  0
  -24.8915  -32.2893   26.4878 H   0  0  0  0  0  0
  -25.8039  -30.8897   27.0219 H   0  0  0  0  0  0
  -26.2933  -29.6746   24.1220 H   0  0  0  0  0  0
  -27.4012  -29.7263   25.4734 H   0  0  0  0  0  0
  -27.8820  -30.4280   23.9464 H   0  0  0  0  0  0
  -27.2641  -33.3627   26.2072 H   0  0  0  0  0  0
  -28.3859  -32.6898   25.0341 H   0  0  0  0  0  0
  -28.0704  -31.8468   26.5427 H   0  0  0  0  0  0
  -28.2601  -38.0101   24.7521 H   0  0  0  0  0  0
  -28.1077  -36.2637   24.6284 H   0  0  0  0  0  0
  -27.2301  -37.1443   25.8868 H   0  0  0  0  0  0
  -20.9397  -29.8786   21.6866 H   0  0  0  0  0  0
  -26.0170  -38.2849   24.1420 H   0  0  0  0  0  0
  -32.2362  -19.2361   22.7288 H   0  0  0  0  0  0
  -32.1249  -24.3023   20.8028 H   0  0  0  0  0  0
  -33.5411  -23.4396   21.4312 H   0  0  0  0  0  0
  -30.9795  -24.1011   22.8203 H   0  0  0  0  0  0
  -32.5302  -23.7114   23.5541 H   0  0  0  0  0  0
  -26.7736  -23.3024   23.3121 H   0  0  0  0  0  0
  -28.4621  -23.6985   23.1766 H   0  0  0  0  0  0
  -27.0536  -25.5926   22.4297 H   0  0  0  0  0  0
  -26.2787  -24.5886   21.2198 H   0  0  0  0  0  0
  -30.3643  -21.9352   23.4711 H   0  0  0  0  0  0
  -32.0444  -21.4075   23.5834 H   0  0  0  0  0  0
  -26.8233  -21.8719   21.3829 H   0  0  0  0  0  0
  -28.2220  -21.4535   22.3296 H   0  0  0  0  0  0
  -29.2345  -25.1647   21.4255 H   0  0  0  0  0  0
  -28.3772  -18.6595   18.3544 H   0  0  0  0  0  0
  -27.2942  -18.3858   19.7249 H   0  0  0  0  0  0
  -28.2077  -17.0549   19.0255 H   0  0  0  0  0  0
  -27.9853  -20.7516   19.4226 H   0  0  0  0  0  0
  -29.5289  -21.3190   18.9222 H   0  0  0  0  0  0
  -28.8152  -15.6528   20.6673 H   0  0  0  0  0  0
  1 25  1  0  0  0
  1 30  2  0  0  0
  1 90  1  0  0  0
  2  3  1  0  0  0
  2 25  1  0  0  0
  2 94  1  0  0  0
  2 95  1  0  0  0
  3  4  1  0  0  0
  3 96  1  0  0  0
  3 97  1  0  0  0
  4  5  1  0  0  0
  4 98  1  0  0  0
  4 99  1  0  0  0
  5  6  1  0  0  0
  5 26  1  0  0  0
  5100  1  0  0  0
  6 25  1  0  0  0
  6101  1  0  0  0
  6102  1  0  0  0
  7  8  2  0  0  0
  7 26  1  0  0  0
  7 29  1  0  0  0
  8  9  1  0  0  0
  8 22  1  0  0  0
  9 10  1  0  0  0
  9 27  2  0  0  0
 10 11  2  0  0  0
 10 15  1  0  0  0
 11 12  1  0  0  0
 11103  1  0  0  0
 12 13  2  0  0  0
 12104  1  0  0  0
 13 14  1  0  0  0
 13 31  1  0  0  0
 14 15  2  0  0  0
 14105  1  0  0  0
 15106  1  0  0  0
 16 17  2  0  0  0
 16 21  1  0  0  0
 16 31  1  0  0  0
 17 18  1  0  0  0
 17107  1  0  0  0
 18 19  2  0  0  0
 18108  1  0  0  0
 19 20  1  0  0  0
 19 24  1  0  0  0
 20 21  2  0  0  0
 20109  1  0  0  0
 21 23  1  0  0  0
 22 28  1  0  0  0
 22 32  2  0  0  0
 26 27  1  0  0  0
 28110  1  0  0  0
 28111  1  0  0  0
 29112  1  0  0  0
 29113  1  0  0  0
 33 34  1  0  0  0
 33 66  1  0  0  0
 33 70  2  0  0  0
 34 36  1  0  0  0
 34 59  1  0  0  0
 34114  1  0  0  0
 35 44  2  0  0  0
 35 45  1  0  0  0
 35 68  1  0  0  0
 36 56  1  0  0  0
 36115  1  0  0  0
 37 39  1  0  0  0
 37 47  1  0  0  0
 37 66  1  0  0  0
 37116  1  0  0  0
 38 43  2  0  0  0
 38 46  1  0  0  0
 38 47  1  0  0  0
 39 64  1  0  0  0
 39 67  2  0  0  0
 40 52  1  0  0  0
 40 53  2  0  0  0
 40 58  1  0  0  0
 41117  1  0  0  0
 41118  1  0  0  0
 41119  1  0  0  0
 41 48  1  0  0  0
 42 43  1  0  0  0
 42 66  1  0  0  0
 42120  1  0  0  0
 42121  1  0  0  0
 43 44  1  0  0  0
 44122  1  0  0  0
 45 46  2  0  0  0
 45123  1  0  0  0
 46124  1  0  0  0
 47125  1  0  0  0
 47126  1  0  0  0
 48 56  1  0  0  0
 48 65  1  0  0  0
 48127  1  0  0  0
 49 50  1  0  0  0
 49 53  1  0  0  0
 49 64  1  0  0  0
 49128  1  0  0  0
 50 51  1  0  0  0
 50129  1  0  0  0
 50130  1  0  0  0
 51 52  1  0  0  0
 51131  1  0  0  0
 51132  1  0  0  0
 52133  1  0  0  0
 52134  1  0  0  0
 53 54  1  0  0  0
 54 55  2  0  0  0
 54135  1  0  0  0
 55 57  1  0  0  0
 55136  1  0  0  0
 56 69  2  0  0  0
 57 58  2  0  0  0
 57137  1  0  0  0
 58138  1  0  0  0
 59 60  1  0  0  0
 59 61  1  0  0  0
 59 62  1  0  0  0
 60139  1  0  0  0
 60140  1  0  0  0
 60141  1  0  0  0
 61142  1  0  0  0
 61143  1  0  0  0
 61144  1  0  0  0
 62145  1  0  0  0
 62146  1  0  0  0
 62147  1  0  0  0
 63 65  1  0  0  0
 63148  1  0  0  0
 63149  1  0  0  0
 63150  1  0  0  0
 64151  1  0  0  0
 65152  1  0  0  0
 68 85  1  0  0  0
 71 74  2  0  0  0
 71 76  1  0  0  0
 71153  1  0  0  0
 72 73  2  0  0  0
 72 74  1  0  0  0
 72 87  1  0  0  0
 73 75  1  0  0  0
 73 86  1  0  0  0
 74 88  1  0  0  0
 75 76  2  0  0  0
 75 90  1  0  0  0
 76 93  1  0  0  0
 77 79  1  0  0  0
 77 88  1  0  0  0
 77 91  2  0  0  0
 78 85  1  0  0  0
 78 89  1  0  0  0
 78 92  2  0  0  0
 79 80  1  0  0  0
 79154  1  0  0  0
 79155  1  0  0  0
 80 83  1  0  0  0
 80156  1  0  0  0
 80157  1  0  0  0
 81 82  1  0  0  0
 81 84  1  0  0  0
 81158  1  0  0  0
 81159  1  0  0  0
 82 85  1  0  0  0
 82160  1  0  0  0
 82161  1  0  0  0
 83 88  1  0  0  0
 83162  1  0  0  0
 83163  1  0  0  0
 84 89  1  0  0  0
 84164  1  0  0  0
 84165  1  0  0  0
 85166  1  0  0  0
 86167  1  0  0  0
 86168  1  0  0  0
 86169  1  0  0  0
 87 89  1  0  0  0
 87170  1  0  0  0
 87171  1  0  0  0
 90172  1  0  0  0
M  ISO  4   1 100  68 101  85 101  90 100
M  END
> <chiral flag>
0

> <version>
0

> <s_m_source_file>
/data/baiqing/PycharmProjects/Reinvent-master-3.2/result/LINK_invent/BTK/process_docking_weight1_custom_product_contain_oxygen_bond_distance_aromatic_linkinvent_7_9_3/rearranged_h_0024.sdf

> <i_m_source_file_index>
26

> <r_mmod_Potential_Energy-OPLS-2005>
322.612487792969

> <r_mmod_Stretch_Energy-OPLS-2005>
146.766525268555

> <r_mmod_Bend_Energy-OPLS-2005>
209.989486694336

> <r_mmod_Torsional_Energy-OPLS-2005>
350.773986816406

> <r_mmod_Improper_Torsional_Energy-OPLS-2005>
8.02842712402344

> <r_mmod_Van_der_Waal_Energy-OPLS-2005>
123.793983459473

> <r_mmod_Electrostatic_Energy-OPLS-2005>
-342.124420166016

> <r_mmod_Solvation_Energy-OPLS-2005>
-255.97053527832

> <b_mmod_Minimization_Converged-OPLS-2005>
0

> <r_mmod_RMS_Derivative-OPLS-2005>
1.37608683109283

$$$$
26
                    3D
 Structure written by MMmdl.
163173  0  0  1  0            999 V2000
  -30.6476  -14.6768   20.5978 C   0  0  0  0  0  0
  -30.4356  -12.4422   19.4763 C   0  0  0  0  0  0
  -29.5115  -12.5150   18.2413 C   0  0  0  0  0  0
  -28.0394  -12.3289   18.6525 C   0  0  0  0  0  0
  -27.6467  -13.2208   19.8566 C   0  0  2  0  0  0
  -28.6765  -13.1025   20.9947 C   0  0  0  0  0  0
  -25.2528  -13.8185   20.5684 C   0  0  0  0  0  0
  -24.1803  -13.0450   20.9186 C   0  0  0  0  0  0
  -24.6374  -11.6915   20.8730 C   0  0  0  0  0  0
  -23.9058  -10.4295   21.0402 C   0  0  0  0  0  0
  -24.3609   -9.4211   21.9184 C   0  0  0  0  0  0
  -23.6280   -8.2248   22.0759 C   0  0  0  0  0  0
  -22.4267   -8.0282   21.3541 C   0  0  0  0  0  0
  -21.9905   -9.0255   20.4647 C   0  0  0  0  0  0
  -22.7231  -10.2131   20.3052 C   0  0  0  0  0  0
  -21.6849   -6.0733   22.5276 C   0  0  0  0  0  0
  -21.4010   -6.5639   23.8212 C   0  0  0  0  0  0
  -21.3660   -5.6791   24.9177 C   0  0  0  0  0  0
  -21.6041   -4.3056   24.7225 C   0  0  0  0  0  0
  -21.8823   -3.8144   23.4352 C   0  0  0  0  0  0
  -21.9189   -4.6959   22.3401 C   0  0  0  0  0  0
  -22.7822  -13.5224   21.1865 C   0  0  0  0  0  0
  -22.1656   -4.2142   21.0979 F   0  0  0  0  0  0
  -21.5633   -3.4539   25.7739 F   0  0  0  0  0  0
  -29.9966  -13.4672   20.4545 N   0  0  0  0  0  0
  -26.2940  -12.9370   20.3249 N   0  0  0  0  0  0
  -25.9297  -11.6524   20.5727 N   0  0  0  0  0  0
  -22.0470  -12.8203   22.0415 N   0  0  0  0  0  0
  -25.4265  -15.1910   20.4137 N   0  0  0  0  0  0
  -31.7468  -14.8485   20.0586 O   0  0  0  0  0  0
  -21.6633   -6.8876   21.4236 O   0  0  0  0  0  0
  -22.3499  -14.5526   20.6708 O   0  0  0  0  0  0
  -24.6267  -31.8595   23.1994 C   0  0  0  0  0  0
  -25.9107  -32.4763   23.8347 C   0  0  1  0  0  0
  -27.2268  -27.3156   20.1318 C   0  0  0  0  0  0
  -25.5894  -33.8557   24.2256 N   0  0  0  0  0  0
  -23.4217  -30.4813   21.5411 C   0  0  2  0  0  0
  -24.8681  -28.9225   20.1189 C   0  0  0  0  0  0
  -22.7469  -29.4655   22.4924 C   0  0  0  0  0  0
  -18.0291  -28.1400   22.8496 C   0  0  0  0  0  0
  -24.1484  -36.7324   23.2638 C   0  0  0  0  0  0
  -25.9602  -30.7909   21.3663 C   0  0  0  0  0  0
  -26.0369  -29.4141   20.7147 C   0  0  0  0  0  0
  -27.2239  -28.6244   20.7056 C   0  0  0  0  0  0
  -26.0380  -26.8645   19.5255 C   0  0  0  0  0  0
  -24.8686  -27.6526   19.5171 C   0  0  0  0  0  0
  -23.6374  -29.8060   20.1610 C   0  0  0  0  0  0
  -25.4103  -36.3081   24.0330 C   0  0  1  0  0  0
  -20.5897  -28.3729   23.1270 C   0  0  2  0  0  0
  -20.6786  -26.9448   22.5404 C   0  0  0  0  0  0
  -19.5743  -26.6417   21.5214 C   0  0  0  0  0  0
  -18.1933  -26.7951   22.1635 C   0  0  0  0  0  0
  -19.1546  -28.8873   23.2889 C   0  0  0  0  0  0
  -18.9467  -30.1472   23.8911 C   0  0  0  0  0  0
  -17.6468  -30.6604   24.0577 C   0  0  0  0  0  0
  -25.9035  -34.9446   23.5104 C   0  0  0  0  0  0
  -16.5360  -29.9110   23.6329 C   0  0  0  0  0  0
  -16.7282  -28.6528   23.0345 C   0  0  0  0  0  0
  -26.4473  -31.6581   25.0727 C   0  0  0  0  0  0
  -25.3711  -31.3700   26.1450 C   0  0  0  0  0  0
  -27.0330  -30.3008   24.6197 C   0  0  0  0  0  0
  -27.6026  -32.4332   25.7503 C   0  0  0  0  0  0
  -27.5584  -37.1783   24.8460 C   0  0  0  0  0  0
  -21.4185  -29.3081   22.3657 N   0  0  0  0  0  0
  -26.4284  -37.3778   23.9430 N   0  0  0  0  0  0
  -24.6892  -31.0600   22.0942 N   0  0  0  0  0  0
  -23.4183  -28.8223   23.3037 O   0  0  0  0  0  0
  -28.3463  -26.4768   20.1210 O   0  0  0  0  0  0
  -26.5632  -34.8927   22.4688 O   0  0  0  0  0  0
  -23.5426  -32.1383   23.7314 O   0  0  0  0  0  0
  -29.8059  -19.0368   19.3672 C   0  0  0  0  0  0
  -30.0274  -17.6522   19.6709 C   0  0  0  0  0  0
  -29.0791  -19.4358   21.6048 C   0  0  0  0  0  0
  -29.3145  -18.0603   21.9261 C   0  0  0  0  0  0
  -29.3249  -19.9828   20.3218 C   0  0  0  0  0  0
  -29.8069  -17.1068   20.9683 C   0  0  0  0  0  0
  -29.0405  -17.6493   23.3641 C   0  0  0  0  0  0
  -28.9810  -16.1351   23.5573 C   0  0  0  0  0  0
  -29.6889  -23.5798   19.1787 C   0  0  0  0  0  0
  -30.1200  -15.4358   22.8068 C   0  0  0  0  0  0
  -29.7746  -22.0562   18.8974 C   0  0  0  0  0  0
  -28.4024  -22.4203   20.8094 C   0  0  0  0  0  0
  -28.3954  -23.7736   19.9800 C   0  0  1  0  0  0
  -28.2427  -25.1529   20.7805 C   0  0  0  0  0  0
  -30.0612  -15.6863   21.3541 N   0  0  0  0  0  0
  -29.1138  -21.3826   20.0142 N   0  0  0  0  0  0
  -31.4752  -12.5765   19.1730 H   0  0  0  0  0  0
  -30.3933  -11.4517   19.9322 H   0  0  0  0  0  0
  -29.7957  -11.7507   17.5169 H   0  0  0  0  0  0
  -29.6371  -13.4766   17.7417 H   0  0  0  0  0  0
  -27.9062  -11.2791   18.9180 H   0  0  0  0  0  0
  -27.3780  -12.5131   17.8054 H   0  0  0  0  0  0
  -27.6625  -14.2512   19.5004 H   0  0  0  0  0  0
  -28.7005  -12.0883   21.3950 H   0  0  0  0  0  0
  -28.3617  -13.7378   21.8188 H   0  0  0  0  0  0
  -25.2753   -9.5687   22.4760 H   0  0  0  0  0  0
  -23.9984   -7.4644   22.7481 H   0  0  0  0  0  0
  -21.0838   -8.8772   19.8949 H   0  0  0  0  0  0
  -22.3689  -10.9669   19.6158 H   0  0  0  0  0  0
  -21.2007   -7.6150   23.9706 H   0  0  0  0  0  0
  -21.1476   -6.0527   25.9072 H   0  0  0  0  0  0
  -22.0604   -2.7608   23.2850 H   0  0  0  0  0  0
  -22.4090  -11.9859   22.4798 H   0  0  0  0  0  0
  -21.1087  -13.1216   22.2625 H   0  0  0  0  0  0
  -24.6717  -15.8547   20.5503 H   0  0  0  0  0  0
  -26.2914  -15.6287   20.1230 H   0  0  0  0  0  0
  -26.7179  -32.5427   23.1101 H   0  0  0  0  0  0
  -24.9920  -33.9677   25.0323 H   0  0  0  0  0  0
  -22.7173  -31.3024   21.3905 H   0  0  0  0  0  0
  -23.3749  -35.9650   23.3257 H   0  0  0  0  0  0
  -24.3575  -36.9015   22.2065 H   0  0  0  0  0  0
  -23.7239  -37.6506   23.6704 H   0  0  0  0  0  0
  -26.0784  -31.5492   20.5907 H   0  0  0  0  0  0
  -26.8445  -30.8488   21.9902 H   0  0  0  0  0  0
  -28.1259  -28.9991   21.1675 H   0  0  0  0  0  0
  -26.0168  -25.8860   19.0665 H   0  0  0  0  0  0
  -23.9699  -27.2656   19.0588 H   0  0  0  0  0  0
  -23.7587  -30.5755   19.3980 H   0  0  0  0  0  0
  -22.7565  -29.2356   19.8635 H   0  0  0  0  0  0
  -25.1274  -36.1914   25.0817 H   0  0  0  0  0  0
  -20.9980  -28.3321   24.1394 H   0  0  0  0  0  0
  -20.5715  -26.2338   23.3610 H   0  0  0  0  0  0
  -21.6650  -26.7494   22.1179 H   0  0  0  0  0  0
  -19.6915  -25.6331   21.1240 H   0  0  0  0  0  0
  -19.6685  -27.3227   20.6739 H   0  0  0  0  0  0
  -17.4211  -26.6708   21.4043 H   0  0  0  0  0  0
  -18.0329  -26.0094   22.9023 H   0  0  0  0  0  0
  -19.7949  -30.7290   24.2286 H   0  0  0  0  0  0
  -17.5029  -31.6268   24.5207 H   0  0  0  0  0  0
  -15.5357  -30.3015   23.7653 H   0  0  0  0  0  0
  -15.8680  -28.0857   22.7032 H   0  0  0  0  0  0
  -24.5886  -30.7049   25.7783 H   0  0  0  0  0  0
  -24.8890  -32.2848   26.4900 H   0  0  0  0  0  0
  -25.8041  -30.8866   27.0219 H   0  0  0  0  0  0
  -26.2904  -29.6716   24.1265 H   0  0  0  0  0  0
  -27.4078  -29.7287   25.4702 H   0  0  0  0  0  0
  -27.8750  -30.4315   23.9391 H   0  0  0  0  0  0
  -27.2644  -33.3668   26.2018 H   0  0  0  0  0  0
  -28.3855  -32.6842   25.0330 H   0  0  0  0  0  0
  -28.0664  -31.8501   26.5461 H   0  0  0  0  0  0
  -28.2544  -38.0126   24.7545 H   0  0  0  0  0  0
  -28.1124  -36.2658   24.6226 H   0  0  0  0  0  0
  -27.2300  -37.1364   25.8852 H   0  0  0  0  0  0
  -20.9358  -29.8786   21.6851 H   0  0  0  0  0  0
  -26.0164  -38.2845   24.1452 H   0  0  0  0  0  0
  -30.0109  -19.3652   18.3584 H   0  0  0  0  0  0
  -30.3934  -17.0124   18.8805 H   0  0  0  0  0  0
  -28.7202  -20.0922   22.3853 H   0  0  0  0  0  0
  -28.1088  -18.1010   23.7106 H   0  0  0  0  0  0
  -29.8330  -18.0676   23.9879 H   0  0  0  0  0  0
  -28.0213  -15.7633   23.1964 H   0  0  0  0  0  0
  -29.0204  -15.8977   24.6217 H   0  0  0  0  0  0
  -29.7054  -24.1691   18.2612 H   0  0  0  0  0  0
  -30.5423  -23.8948   19.7797 H   0  0  0  0  0  0
  -30.1141  -14.3736   23.0585 H   0  0  0  0  0  0
  -31.0767  -15.8129   23.1726 H   0  0  0  0  0  0
  -30.8109  -21.7328   18.7857 H   0  0  0  0  0  0
  -29.2482  -21.8127   17.9721 H   0  0  0  0  0  0
  -27.3839  -22.1015   21.0406 H   0  0  0  0  0  0
  -28.9199  -22.5622   21.7601 H   0  0  0  0  0  0
  -27.5657  -23.7175   19.2736 H   0  0  0  0  0  0
  -29.0112  -25.1562   21.5545 H   0  0  0  0  0  0
  -27.3068  -25.1109   21.3399 H   0  0  0  0  0  0
  1 25  1  0  0  0
  1 30  2  0  0  0
  1 85  1  0  0  0
  2  3  1  0  0  0
  2 25  1  0  0  0
  2 87  1  0  0  0
  2 88  1  0  0  0
  3  4  1  0  0  0
  3 89  1  0  0  0
  3 90  1  0  0  0
  4  5  1  0  0  0
  4 91  1  0  0  0
  4 92  1  0  0  0
  5  6  1  0  0  0
  5 26  1  0  0  0
  5 93  1  0  0  0
  6 25  1  0  0  0
  6 94  1  0  0  0
  6 95  1  0  0  0
  7  8  2  0  0  0
  7 26  1  0  0  0
  7 29  1  0  0  0
  8  9  1  0  0  0
  8 22  1  0  0  0
  9 10  1  0  0  0
  9 27  2  0  0  0
 10 11  2  0  0  0
 10 15  1  0  0  0
 11 12  1  0  0  0
 11 96  1  0  0  0
 12 13  2  0  0  0
 12 97  1  0  0  0
 13 14  1  0  0  0
 13 31  1  0  0  0
 14 15  2  0  0  0
 14 98  1  0  0  0
 15 99  1  0  0  0
 16 17  2  0  0  0
 16 21  1  0  0  0
 16 31  1  0  0  0
 17 18  1  0  0  0
 17100  1  0  0  0
 18 19  2  0  0  0
 18101  1  0  0  0
 19 20  1  0  0  0
 19 24  1  0  0  0
 20 21  2  0  0  0
 20102  1  0  0  0
 21 23  1  0  0  0
 22 28  1  0  0  0
 22 32  2  0  0  0
 26 27  1  0  0  0
 28103  1  0  0  0
 28104  1  0  0  0
 29105  1  0  0  0
 29106  1  0  0  0
 33 34  1  0  0  0
 33 66  1  0  0  0
 33 70  2  0  0  0
 34 36  1  0  0  0
 34 59  1  0  0  0
 34107  1  0  0  0
 35 44  2  0  0  0
 35 45  1  0  0  0
 35 68  1  0  0  0
 36 56  1  0  0  0
 36108  1  0  0  0
 37 39  1  0  0  0
 37 47  1  0  0  0
 37 66  1  0  0  0
 37109  1  0  0  0
 38 43  2  0  0  0
 38 46  1  0  0  0
 38 47  1  0  0  0
 39 64  1  0  0  0
 39 67  2  0  0  0
 40 52  1  0  0  0
 40 53  2  0  0  0
 40 58  1  0  0  0
 41110  1  0  0  0
 41111  1  0  0  0
 41112  1  0  0  0
 41 48  1  0  0  0
 42 43  1  0  0  0
 42 66  1  0  0  0
 42113  1  0  0  0
 42114  1  0  0  0
 43 44  1  0  0  0
 44115  1  0  0  0
 45 46  2  0  0  0
 45116  1  0  0  0
 46117  1  0  0  0
 47118  1  0  0  0
 47119  1  0  0  0
 48 56  1  0  0  0
 48 65  1  0  0  0
 48120  1  0  0  0
 49 50  1  0  0  0
 49 53  1  0  0  0
 49 64  1  0  0  0
 49121  1  0  0  0
 50 51  1  0  0  0
 50122  1  0  0  0
 50123  1  0  0  0
 51 52  1  0  0  0
 51124  1  0  0  0
 51125  1  0  0  0
 52126  1  0  0  0
 52127  1  0  0  0
 53 54  1  0  0  0
 54 55  2  0  0  0
 54128  1  0  0  0
 55 57  1  0  0  0
 55129  1  0  0  0
 56 69  2  0  0  0
 57 58  2  0  0  0
 57130  1  0  0  0
 58131  1  0  0  0
 59 60  1  0  0  0
 59 61  1  0  0  0
 59 62  1  0  0  0
 60132  1  0  0  0
 60133  1  0  0  0
 60134  1  0  0  0
 61135  1  0  0  0
 61136  1  0  0  0
 61137  1  0  0  0
 62138  1  0  0  0
 62139  1  0  0  0
 62140  1  0  0  0
 63 65  1  0  0  0
 63141  1  0  0  0
 63142  1  0  0  0
 63143  1  0  0  0
 64144  1  0  0  0
 65145  1  0  0  0
 68 84  1  0  0  0
 71 72  2  0  0  0
 71 75  1  0  0  0
 71146  1  0  0  0
 72 76  1  0  0  0
 72147  1  0  0  0
 73 74  1  0  0  0
 73 75  2  0  0  0
 73148  1  0  0  0
 74 76  2  0  0  0
 74 77  1  0  0  0
 75 86  1  0  0  0
 76 85  1  0  0  0
 77 78  1  0  0  0
 77149  1  0  0  0
 77150  1  0  0  0
 78 80  1  0  0  0
 78151  1  0  0  0
 78152  1  0  0  0
 79 81  1  0  0  0
 79 83  1  0  0  0
 79153  1  0  0  0
 79154  1  0  0  0
 80 85  1  0  0  0
 80155  1  0  0  0
 80156  1  0  0  0
 81 86  1  0  0  0
 81157  1  0  0  0
 81158  1  0  0  0
 82 83  1  0  0  0
 82 86  1  0  0  0
 82159  1  0  0  0
 82160  1  0  0  0
 83 84  1  0  0  0
 83161  1  0  0  0
 84162  1  0  0  0
 84163  1  0  0  0
M  ISO  4   1 100  68 101  84 101  85 100
M  END
> <chiral flag>
0

> <version>
0

> <s_m_source_file>
/data/baiqing/PycharmProjects/Reinvent-master-3.2/result/LINK_invent/BTK/process_docking_weight1_custom_product_contain_oxygen_bond_distance_aromatic_linkinvent_7_9_3/rearranged_h_0024.sdf

> <i_m_source_file_index>
27

> <r_mmod_Potential_Energy-OPLS-2005>
331.982330322266

> <r_mmod_Stretch_Energy-OPLS-2005>
95.3158187866211

> <r_mmod_Bend_Energy-OPLS-2005>
198.882736206055

> <r_mmod_Torsional_Energy-OPLS-2005>
347.647338867188

> <r_mmod_Improper_Torsional_Energy-OPLS-2005>
2.95878410339355

> <r_mmod_Van_der_Waal_Energy-OPLS-2005>
139.829742431641

> <r_mmod_Electrostatic_Energy-OPLS-2005>
-297.40234375

> <r_mmod_Solvation_Energy-OPLS-2005>
-209.60075378418

> <b_mmod_Minimization_Converged-OPLS-2005>
0

> <r_mmod_RMS_Derivative-OPLS-2005>
2.5352828502655

$$$$
27
                    3D
 Structure written by MMmdl.
162171  0  0  1  0            999 V2000
  -30.6825  -14.6243   20.4749 C   0  0  0  0  0  0
  -30.4132  -12.3816   19.4626 C   0  0  0  0  0  0
  -29.5003  -12.4916   18.2246 C   0  0  0  0  0  0
  -28.0220  -12.3473   18.6325 C   0  0  0  0  0  0
  -27.6431  -13.2320   19.8525 C   0  0  2  0  0  0
  -28.6874  -13.1365   20.9866 C   0  0  0  0  0  0
  -25.2500  -13.8209   20.5699 C   0  0  0  0  0  0
  -24.1794  -13.0441   20.9203 C   0  0  0  0  0  0
  -24.6390  -11.6919   20.8739 C   0  0  0  0  0  0
  -23.9069  -10.4289   21.0401 C   0  0  0  0  0  0
  -24.3623   -9.4208   21.9178 C   0  0  0  0  0  0
  -23.6299   -8.2240   22.0748 C   0  0  0  0  0  0
  -22.4280   -8.0273   21.3541 C   0  0  0  0  0  0
  -21.9912   -9.0243   20.4644 C   0  0  0  0  0  0
  -22.7237  -10.2126   20.3052 C   0  0  0  0  0  0
  -21.6858   -6.0731   22.5281 C   0  0  0  0  0  0
  -21.4012   -6.5637   23.8213 C   0  0  0  0  0  0
  -21.3662   -5.6791   24.9177 C   0  0  0  0  0  0
  -21.6048   -4.3055   24.7231 C   0  0  0  0  0  0
  -21.8822   -3.8142   23.4354 C   0  0  0  0  0  0
  -21.9192   -4.6959   22.3407 C   0  0  0  0  0  0
  -22.7812  -13.5212   21.1857 C   0  0  0  0  0  0
  -22.1663   -4.2144   21.0986 F   0  0  0  0  0  0
  -21.5631   -3.4538   25.7743 F   0  0  0  0  0  0
  -30.0003  -13.4397   20.4068 N   0  0  0  0  0  0
  -26.2937  -12.9424   20.3290 N   0  0  0  0  0  0
  -25.9319  -11.6561   20.5747 N   0  0  0  0  0  0
  -22.0465  -12.8196   22.0418 N   0  0  0  0  0  0
  -25.4148  -15.1937   20.4111 N   0  0  0  0  0  0
  -31.8705  -14.6806   20.1508 O   0  0  0  0  0  0
  -21.6648   -6.8870   21.4240 O   0  0  0  0  0  0
  -22.3489  -14.5516   20.6698 O   0  0  0  0  0  0
  -24.6248  -31.8605   23.2029 C   0  0  0  0  0  0
  -25.9109  -32.4768   23.8350 C   0  0  1  0  0  0
  -27.2157  -27.3374   20.1221 C   0  0  0  0  0  0
  -25.5928  -33.8571   24.2273 N   0  0  0  0  0  0
  -23.4157  -30.4857   21.5445 C   0  0  2  0  0  0
  -24.8594  -28.9377   20.1131 C   0  0  0  0  0  0
  -22.7457  -29.4644   22.4937 C   0  0  0  0  0  0
  -18.0286  -28.1392   22.8484 C   0  0  0  0  0  0
  -24.1487  -36.7303   23.2635 C   0  0  0  0  0  0
  -25.9536  -30.7993   21.3670 C   0  0  0  0  0  0
  -26.0279  -29.4266   20.7129 C   0  0  0  0  0  0
  -27.2134  -28.6383   20.7050 C   0  0  0  0  0  0
  -26.0302  -26.8889   19.5050 C   0  0  0  0  0  0
  -24.8607  -27.6732   19.5007 C   0  0  0  0  0  0
  -23.6282  -29.8189   20.1598 C   0  0  0  0  0  0
  -25.4106  -36.3073   24.0322 C   0  0  1  0  0  0
  -20.5884  -28.3699   23.1284 C   0  0  2  0  0  0
  -20.6782  -26.9428   22.5410 C   0  0  0  0  0  0
  -19.5757  -26.6394   21.5215 C   0  0  0  0  0  0
  -18.1935  -26.7937   22.1624 C   0  0  0  0  0  0
  -19.1538  -28.8861   23.2881 C   0  0  0  0  0  0
  -18.9464  -30.1464   23.8896 C   0  0  0  0  0  0
  -17.6466  -30.6592   24.0572 C   0  0  0  0  0  0
  -25.9050  -34.9446   23.5094 C   0  0  0  0  0  0
  -16.5358  -29.9095   23.6327 C   0  0  0  0  0  0
  -16.7277  -28.6516   23.0340 C   0  0  0  0  0  0
  -26.4497  -31.6571   25.0717 C   0  0  0  0  0  0
  -25.3751  -31.3716   26.1459 C   0  0  0  0  0  0
  -27.0325  -30.2986   24.6164 C   0  0  0  0  0  0
  -27.6043  -32.4311   25.7506 C   0  0  0  0  0  0
  -27.5576  -37.1799   24.8457 C   0  0  0  0  0  0
  -21.4174  -29.3054   22.3676 N   0  0  0  0  0  0
  -26.4275  -37.3777   23.9419 N   0  0  0  0  0  0
  -24.6838  -31.0645   22.0958 N   0  0  0  0  0  0
  -23.4188  -28.8191   23.3016 O   0  0  0  0  0  0
  -28.3297  -26.4989   20.1212 O   0  0  0  0  0  0
  -26.5623  -34.8918   22.4666 O   0  0  0  0  0  0
  -23.5423  -32.1391   23.7380 O   0  0  0  0  0  0
  -29.4152  -20.7768   19.5873 C   0  0  0  0  0  0
  -29.6089  -19.0800   21.8036 C   0  0  0  0  0  0
  -29.7341  -19.3903   19.4200 C   0  0  0  0  0  0
  -29.9003  -18.5175   20.5396 C   0  0  0  0  0  0
  -29.2470  -21.3701   20.8658 C   0  0  0  0  0  0
  -29.2875  -20.4578   21.9683 C   0  0  0  0  0  0
  -31.2049  -23.9399   20.5684 C   0  0  0  0  0  0
  -30.1792  -24.1967   19.4615 C   0  0  0  0  0  0
  -30.4117  -23.2671   21.6961 C   0  0  0  0  0  0
  -28.8262  -23.8669   20.1026 C   0  0  2  0  0  0
  -29.9646  -18.8851   18.0058 C   0  0  0  0  0  0
  -30.6347  -17.1288   20.4386 C   0  0  0  0  0  0
  -28.1734  -25.1777   20.7587 C   0  0  0  0  0  0
  -29.1614  -22.7956   21.0949 N   0  0  0  0  0  0
  -29.9899  -15.7913   20.6706 N   0  0  0  0  0  0
  -29.0066  -21.0185   23.5824 Cl  0  0  0  0  0  0
  -31.4588  -12.4682   19.1616 H   0  0  0  0  0  0
  -30.3188  -11.3999   19.9286 H   0  0  0  0  0  0
  -29.7636  -11.7256   17.4937 H   0  0  0  0  0  0
  -29.6579  -13.4524   17.7316 H   0  0  0  0  0  0
  -27.8462  -11.2969   18.8668 H   0  0  0  0  0  0
  -27.3760  -12.5799   17.7851 H   0  0  0  0  0  0
  -27.6465  -14.2613   19.4923 H   0  0  0  0  0  0
  -28.6907  -12.1385   21.4276 H   0  0  0  0  0  0
  -28.4444  -13.8288   21.7939 H   0  0  0  0  0  0
  -25.2769   -9.5694   22.4752 H   0  0  0  0  0  0
  -24.0017   -7.4637   22.7460 H   0  0  0  0  0  0
  -21.0847   -8.8751   19.8946 H   0  0  0  0  0  0
  -22.3688  -10.9658   19.6158 H   0  0  0  0  0  0
  -21.2003   -7.6141   23.9717 H   0  0  0  0  0  0
  -21.1484   -6.0521   25.9082 H   0  0  0  0  0  0
  -22.0599   -2.7603   23.2859 H   0  0  0  0  0  0
  -22.4095  -11.9887   22.4854 H   0  0  0  0  0  0
  -21.1063  -13.1190   22.2587 H   0  0  0  0  0  0
  -24.6412  -15.8400   20.5248 H   0  0  0  0  0  0
  -26.2572  -15.6409   20.0726 H   0  0  0  0  0  0
  -26.7183  -32.5438   23.1107 H   0  0  0  0  0  0
  -25.0059  -33.9716   25.0404 H   0  0  0  0  0  0
  -22.7084  -31.3057   21.4026 H   0  0  0  0  0  0
  -23.3734  -35.9648   23.3275 H   0  0  0  0  0  0
  -24.3588  -36.8950   22.2055 H   0  0  0  0  0  0
  -23.7254  -37.6504   23.6674 H   0  0  0  0  0  0
  -26.0779  -31.5614   20.5961 H   0  0  0  0  0  0
  -26.8372  -30.8510   21.9920 H   0  0  0  0  0  0
  -28.1137  -29.0091   21.1747 H   0  0  0  0  0  0
  -26.0042  -25.9165   19.0336 H   0  0  0  0  0  0
  -23.9637  -27.2928   19.0308 H   0  0  0  0  0  0
  -23.7481  -30.5949   19.4028 H   0  0  0  0  0  0
  -22.7468  -29.2506   19.8575 H   0  0  0  0  0  0
  -25.1280  -36.1910   25.0811 H   0  0  0  0  0  0
  -20.9981  -28.3289   24.1402 H   0  0  0  0  0  0
  -20.5704  -26.2317   23.3613 H   0  0  0  0  0  0
  -21.6650  -26.7478   22.1193 H   0  0  0  0  0  0
  -19.6927  -25.6306   21.1248 H   0  0  0  0  0  0
  -19.6689  -27.3205   20.6744 H   0  0  0  0  0  0
  -17.4208  -26.6684   21.4026 H   0  0  0  0  0  0
  -18.0337  -26.0078   22.9020 H   0  0  0  0  0  0
  -19.7940  -30.7288   24.2256 H   0  0  0  0  0  0
  -17.5021  -31.6266   24.5182 H   0  0  0  0  0  0
  -15.5362  -30.3005   23.7645 H   0  0  0  0  0  0
  -15.8675  -28.0850   22.7035 H   0  0  0  0  0  0
  -24.5916  -30.7062   25.7816 H   0  0  0  0  0  0
  -24.8959  -32.2888   26.4892 H   0  0  0  0  0  0
  -25.8101  -30.8905   27.0227 H   0  0  0  0  0  0
  -26.2890  -29.6752   24.1180 H   0  0  0  0  0  0
  -27.4001  -29.7224   25.4665 H   0  0  0  0  0  0
  -27.8769  -30.4248   23.9384 H   0  0  0  0  0  0
  -27.2618  -33.3595   26.2091 H   0  0  0  0  0  0
  -28.3863  -32.6900   25.0357 H   0  0  0  0  0  0
  -28.0697  -31.8438   26.5433 H   0  0  0  0  0  0
  -28.2559  -38.0127   24.7520 H   0  0  0  0  0  0
  -28.1099  -36.2654   24.6235 H   0  0  0  0  0  0
  -27.2307  -37.1397   25.8863 H   0  0  0  0  0  0
  -20.9352  -29.8765   21.6876 H   0  0  0  0  0  0
  -26.0140  -38.2839   24.1447 H   0  0  0  0  0  0
  -29.3718  -21.4057   18.7100 H   0  0  0  0  0  0
  -29.7197  -18.4673   22.6868 H   0  0  0  0  0  0
  -31.6700  -24.8642   20.9129 H   0  0  0  0  0  0
  -31.9985  -23.2874   20.2005 H   0  0  0  0  0  0
  -30.3678  -23.5225   18.6253 H   0  0  0  0  0  0
  -30.2328  -25.2098   19.0630 H   0  0  0  0  0  0
  -30.1873  -23.9840   22.4871 H   0  0  0  0  0  0
  -31.0099  -22.4805   22.1594 H   0  0  0  0  0  0
  -28.1459  -23.4860   19.3387 H   0  0  0  0  0  0
  -29.4303  -19.4994   17.2809 H   0  0  0  0  0  0
  -29.6067  -17.8620   17.8868 H   0  0  0  0  0  0
  -31.0259  -18.9137   17.7564 H   0  0  0  0  0  0
  -31.4538  -17.1915   21.1566 H   0  0  0  0  0  0
  -31.1438  -17.0842   19.4758 H   0  0  0  0  0  0
  -28.5960  -25.3216   21.7520 H   0  0  0  0  0  0
  -27.1232  -24.9582   20.9562 H   0  0  0  0  0  0
  -29.0029  -15.7532   20.8749 H   0  0  0  0  0  0
  1 25  1  0  0  0
  1 30  2  0  0  0
  1 85  1  0  0  0
  2  3  1  0  0  0
  2 25  1  0  0  0
  2 87  1  0  0  0
  2 88  1  0  0  0
  3  4  1  0  0  0
  3 89  1  0  0  0
  3 90  1  0  0  0
  4  5  1  0  0  0
  4 91  1  0  0  0
  4 92  1  0  0  0
  5  6  1  0  0  0
  5 26  1  0  0  0
  5 93  1  0  0  0
  6 25  1  0  0  0
  6 94  1  0  0  0
  6 95  1  0  0  0
  7  8  2  0  0  0
  7 26  1  0  0  0
  7 29  1  0  0  0
  8  9  1  0  0  0
  8 22  1  0  0  0
  9 10  1  0  0  0
  9 27  2  0  0  0
 10 11  2  0  0  0
 10 15  1  0  0  0
 11 12  1  0  0  0
 11 96  1  0  0  0
 12 13  2  0  0  0
 12 97  1  0  0  0
 13 14  1  0  0  0
 13 31  1  0  0  0
 14 15  2  0  0  0
 14 98  1  0  0  0
 15 99  1  0  0  0
 16 17  2  0  0  0
 16 21  1  0  0  0
 16 31  1  0  0  0
 17 18  1  0  0  0
 17100  1  0  0  0
 18 19  2  0  0  0
 18101  1  0  0  0
 19 20  1  0  0  0
 19 24  1  0  0  0
 20 21  2  0  0  0
 20102  1  0  0  0
 21 23  1  0  0  0
 22 28  1  0  0  0
 22 32  2  0  0  0
 26 27  1  0  0  0
 28103  1  0  0  0
 28104  1  0  0  0
 29105  1  0  0  0
 29106  1  0  0  0
 33 34  1  0  0  0
 33 66  1  0  0  0
 33 70  2  0  0  0
 34 36  1  0  0  0
 34 59  1  0  0  0
 34107  1  0  0  0
 35 44  2  0  0  0
 35 45  1  0  0  0
 35 68  1  0  0  0
 36 56  1  0  0  0
 36108  1  0  0  0
 37 39  1  0  0  0
 37 47  1  0  0  0
 37 66  1  0  0  0
 37109  1  0  0  0
 38 43  2  0  0  0
 38 46  1  0  0  0
 38 47  1  0  0  0
 39 64  1  0  0  0
 39 67  2  0  0  0
 40 52  1  0  0  0
 40 53  2  0  0  0
 40 58  1  0  0  0
 41110  1  0  0  0
 41111  1  0  0  0
 41112  1  0  0  0
 41 48  1  0  0  0
 42 43  1  0  0  0
 42 66  1  0  0  0
 42113  1  0  0  0
 42114  1  0  0  0
 43 44  1  0  0  0
 44115  1  0  0  0
 45 46  2  0  0  0
 45116  1  0  0  0
 46117  1  0  0  0
 47118  1  0  0  0
 47119  1  0  0  0
 48 56  1  0  0  0
 48 65  1  0  0  0
 48120  1  0  0  0
 49 50  1  0  0  0
 49 53  1  0  0  0
 49 64  1  0  0  0
 49121  1  0  0  0
 50 51  1  0  0  0
 50122  1  0  0  0
 50123  1  0  0  0
 51 52  1  0  0  0
 51124  1  0  0  0
 51125  1  0  0  0
 52126  1  0  0  0
 52127  1  0  0  0
 53 54  1  0  0  0
 54 55  2  0  0  0
 54128  1  0  0  0
 55 57  1  0  0  0
 55129  1  0  0  0
 56 69  2  0  0  0
 57 58  2  0  0  0
 57130  1  0  0  0
 58131  1  0  0  0
 59 60  1  0  0  0
 59 61  1  0  0  0
 59 62  1  0  0  0
 60132  1  0  0  0
 60133  1  0  0  0
 60134  1  0  0  0
 61135  1  0  0  0
 61136  1  0  0  0
 61137  1  0  0  0
 62138  1  0  0  0
 62139  1  0  0  0
 62140  1  0  0  0
 63 65  1  0  0  0
 63141  1  0  0  0
 63142  1  0  0  0
 63143  1  0  0  0
 64144  1  0  0  0
 65145  1  0  0  0
 68 83  1  0  0  0
 71 73  2  0  0  0
 71 75  1  0  0  0
 71146  1  0  0  0
 72 74  2  0  0  0
 72 76  1  0  0  0
 72147  1  0  0  0
 73 74  1  0  0  0
 73 81  1  0  0  0
 74 82  1  0  0  0
 75 76  2  0  0  0
 75 84  1  0  0  0
 76 86  1  0  0  0
 77 78  1  0  0  0
 77 79  1  0  0  0
 77148  1  0  0  0
 77149  1  0  0  0
 78 80  1  0  0  0
 78150  1  0  0  0
 78151  1  0  0  0
 79 84  1  0  0  0
 79152  1  0  0  0
 79153  1  0  0  0
 80 83  1  0  0  0
 80 84  1  0  0  0
 80154  1  0  0  0
 81155  1  0  0  0
 81156  1  0  0  0
 81157  1  0  0  0
 82 85  1  0  0  0
 82158  1  0  0  0
 82159  1  0  0  0
 83160  1  0  0  0
 83161  1  0  0  0
 85162  1  0  0  0
M  ISO  4   1 100  68 101  83 101  85 100
M  END
> <chiral flag>
0

> <version>
0

> <s_m_source_file>
/data/baiqing/PycharmProjects/Reinvent-master-3.2/result/LINK_invent/BTK/process_docking_weight1_custom_product_contain_oxygen_bond_distance_aromatic_linkinvent_7_9_3/rearranged_h_0024.sdf

> <i_m_source_file_index>
28

> <r_mmod_Potential_Energy-OPLS-2005>
199.182205200195

> <r_mmod_Stretch_Energy-OPLS-2005>
77.1683883666992

> <r_mmod_Bend_Energy-OPLS-2005>
179.751129150391

> <r_mmod_Torsional_Energy-OPLS-2005>
321.612518310547

> <r_mmod_Improper_Torsional_Energy-OPLS-2005>
13.1603021621704

> <r_mmod_Van_der_Waal_Energy-OPLS-2005>
147.625152587891

> <r_mmod_Electrostatic_Energy-OPLS-2005>
-375.101135253906

> <r_mmod_Solvation_Energy-OPLS-2005>
-211.165664672852

> <b_mmod_Minimization_Converged-OPLS-2005>
0

> <r_mmod_RMS_Derivative-OPLS-2005>
1.26891100406647

$$$$
28
                    3D
 Structure written by MMmdl.
172182  0  0  1  0            999 V2000
  -30.5586  -14.9412   20.4840 C   0  0  0  0  0  0
  -30.4329  -12.5908   19.5106 C   0  0  0  0  0  0
  -29.5220  -12.5353   18.2614 C   0  0  0  0  0  0
  -28.0528  -12.3255   18.6736 C   0  0  0  0  0  0
  -27.6274  -13.2562   19.8410 C   0  0  2  0  0  0
  -28.6624  -13.2716   20.9867 C   0  0  0  0  0  0
  -25.2331  -13.8162   20.5570 C   0  0  0  0  0  0
  -24.1688  -13.0397   20.9198 C   0  0  0  0  0  0
  -24.6352  -11.6908   20.8761 C   0  0  0  0  0  0
  -23.9057  -10.4270   21.0408 C   0  0  0  0  0  0
  -24.3609   -9.4182   21.9183 C   0  0  0  0  0  0
  -23.6270   -8.2231   22.0764 C   0  0  0  0  0  0
  -22.4236   -8.0268   21.3572 C   0  0  0  0  0  0
  -21.9877   -9.0243   20.4666 C   0  0  0  0  0  0
  -22.7220  -10.2112   20.3066 C   0  0  0  0  0  0
  -21.6829   -6.0701   22.5271 C   0  0  0  0  0  0
  -21.4018   -6.5620   23.8197 C   0  0  0  0  0  0
  -21.3667   -5.6777   24.9164 C   0  0  0  0  0  0
  -21.6039   -4.3036   24.7219 C   0  0  0  0  0  0
  -21.8830   -3.8121   23.4349 C   0  0  0  0  0  0
  -21.9187   -4.6935   22.3396 C   0  0  0  0  0  0
  -22.7714  -13.5168   21.1832 C   0  0  0  0  0  0
  -22.1653   -4.2127   21.0975 F   0  0  0  0  0  0
  -21.5618   -3.4524   25.7736 F   0  0  0  0  0  0
  -29.9475  -13.6843   20.4085 N   0  0  0  0  0  0
  -26.2836  -12.9471   20.3222 N   0  0  0  0  0  0
  -25.9298  -11.6603   20.5774 N   0  0  0  0  0  0
  -22.0394  -12.8199   22.0455 N   0  0  0  0  0  0
  -25.3806  -15.1841   20.3734 N   0  0  0  0  0  0
  -31.6999  -15.0228   20.0096 O   0  0  0  0  0  0
  -21.6625   -6.8851   21.4232 O   0  0  0  0  0  0
  -22.3401  -14.5464   20.6644 O   0  0  0  0  0  0
  -24.6432  -31.8426   23.1864 C   0  0  0  0  0  0
  -25.9217  -32.4684   23.8243 C   0  0  1  0  0  0
  -27.2153  -27.1371   20.1441 C   0  0  0  0  0  0
  -25.5959  -33.8479   24.2180 N   0  0  0  0  0  0
  -23.4449  -30.4621   21.5307 C   0  0  2  0  0  0
  -24.8921  -28.8838   20.1035 C   0  0  0  0  0  0
  -22.7560  -29.4542   22.4849 C   0  0  0  0  0  0
  -18.0309  -28.1382   22.8485 C   0  0  0  0  0  0
  -24.1484  -36.7230   23.2647 C   0  0  0  0  0  0
  -25.9994  -30.7151   21.3834 C   0  0  0  0  0  0
  -26.0668  -29.3269   20.7241 C   0  0  0  0  0  0
  -27.2244  -28.4664   20.7296 C   0  0  0  0  0  0
  -26.0162  -26.7870   19.4902 C   0  0  0  0  0  0
  -24.8789  -27.6276   19.4738 C   0  0  0  0  0  0
  -23.6701  -29.7882   20.1493 C   0  0  0  0  0  0
  -25.4118  -36.3015   24.0321 C   0  0  1  0  0  0
  -20.5918  -28.3702   23.1247 C   0  0  2  0  0  0
  -20.6785  -26.9407   22.5411 C   0  0  0  0  0  0
  -19.5756  -26.6373   21.5214 C   0  0  0  0  0  0
  -18.1937  -26.7923   22.1626 C   0  0  0  0  0  0
  -19.1561  -28.8856   23.2850 C   0  0  0  0  0  0
  -18.9487  -30.1459   23.8878 C   0  0  0  0  0  0
  -17.6478  -30.6574   24.0561 C   0  0  0  0  0  0
  -25.9071  -34.9404   23.5049 C   0  0  0  0  0  0
  -16.5374  -29.9073   23.6337 C   0  0  0  0  0  0
  -16.7287  -28.6488   23.0362 C   0  0  0  0  0  0
  -26.4535  -31.6558   25.0691 C   0  0  0  0  0  0
  -25.3726  -31.3771   26.1393 C   0  0  0  0  0  0
  -27.0411  -30.2954   24.6294 C   0  0  0  0  0  0
  -27.6052  -32.4341   25.7482 C   0  0  0  0  0  0
  -27.5571  -37.1776   24.8471 C   0  0  0  0  0  0
  -21.4256  -29.3021   22.3604 N   0  0  0  0  0  0
  -26.4280  -37.3738   23.9422 N   0  0  0  0  0  0
  -24.7158  -31.0291   22.0878 N   0  0  0  0  0  0
  -23.4217  -28.8099   23.2992 O   0  0  0  0  0  0
  -28.2886  -26.1847   20.2570 O   0  0  0  0  0  0
  -26.5656  -34.8915   22.4633 O   0  0  0  0  0  0
  -23.5558  -32.1302   23.7097 O   0  0  0  0  0  0
  -30.3026  -19.8159   19.8395 C   0  0  0  0  0  0
  -30.5572  -18.4046   20.1011 C   0  0  0  0  0  0
  -28.1759  -19.6278   20.7894 C   0  0  0  0  0  0
  -28.4088  -18.2099   21.0421 C   0  0  0  0  0  0
  -29.1027  -20.5357   20.1783 C   0  0  0  0  0  0
  -29.6330  -17.4890   20.7209 C   0  0  0  0  0  0
  -29.9421  -15.9103   25.0139 C   0  0  0  0  0  0
  -31.2095  -15.1137   24.7148 C   0  0  0  0  0  0
  -26.5073  -22.1505   19.1175 C   0  0  0  0  0  0
  -29.4766  -16.4933   23.6718 C   0  0  0  0  0  0
  -31.1254  -14.8125   23.2226 C   0  0  0  0  0  0
  -26.7543  -22.8857   20.4456 C   0  0  0  0  0  0
  -27.9095  -21.8029   18.5855 C   0  0  0  0  0  0
  -30.5105  -16.0962   22.5984 C   0  0  0  0  0  0
  -28.2486  -23.2170   20.4063 C   0  0  2  0  0  0
  -27.2365  -17.4966   21.6854 C   0  0  0  0  0  0
  -28.3795  -24.7454   19.6718 C   0  0  0  0  0  0
  -28.8255  -21.9345   19.7187 N   0  0  0  0  0  0
  -29.9887  -16.0494   21.1907 N   0  0  0  0  0  0
  -31.4730  -12.7278   19.2097 H   0  0  0  0  0  0
  -30.4156  -11.6378   20.0425 H   0  0  0  0  0  0
  -29.8447  -11.7369   17.5908 H   0  0  0  0  0  0
  -29.6133  -13.4611   17.6915 H   0  0  0  0  0  0
  -27.9431  -11.2842   18.9747 H   0  0  0  0  0  0
  -27.3936  -12.4677   17.8149 H   0  0  0  0  0  0
  -27.5957  -14.2639   19.4211 H   0  0  0  0  0  0
  -28.7443  -12.2921   21.4620 H   0  0  0  0  0  0
  -28.3513  -13.9669   21.7691 H   0  0  0  0  0  0
  -25.2772   -9.5620   22.4746 H   0  0  0  0  0  0
  -23.9968   -7.4604   22.7483 H   0  0  0  0  0  0
  -21.0804   -8.8755   19.8982 H   0  0  0  0  0  0
  -22.3676  -10.9639   19.6165 H   0  0  0  0  0  0
  -21.2034   -7.6132   23.9689 H   0  0  0  0  0  0
  -21.1471   -6.0510   25.9059 H   0  0  0  0  0  0
  -22.0606   -2.7586   23.2839 H   0  0  0  0  0  0
  -22.4022  -11.9912   22.4920 H   0  0  0  0  0  0
  -21.1023  -13.1244   22.2694 H   0  0  0  0  0  0
  -24.5837  -15.8086   20.4293 H   0  0  0  0  0  0
  -26.1960  -15.6178   19.9638 H   0  0  0  0  0  0
  -26.7271  -32.5298   23.0962 H   0  0  0  0  0  0
  -25.0108  -33.9573   25.0329 H   0  0  0  0  0  0
  -22.7468  -31.2874   21.3760 H   0  0  0  0  0  0
  -23.3756  -35.9545   23.3296 H   0  0  0  0  0  0
  -24.3569  -36.8875   22.2060 H   0  0  0  0  0  0
  -23.7226  -37.6424   23.6680 H   0  0  0  0  0  0
  -26.1638  -31.4731   20.6152 H   0  0  0  0  0  0
  -26.8669  -30.7596   22.0314 H   0  0  0  0  0  0
  -28.1168  -28.7997   21.2408 H   0  0  0  0  0  0
  -25.9182  -25.8172   19.0270 H   0  0  0  0  0  0
  -23.9783  -27.2791   18.9882 H   0  0  0  0  0  0
  -23.8077  -30.5617   19.3920 H   0  0  0  0  0  0
  -22.7853  -29.2292   19.8385 H   0  0  0  0  0  0
  -25.1304  -36.1839   25.0808 H   0  0  0  0  0  0
  -21.0008  -28.3288   24.1370 H   0  0  0  0  0  0
  -20.5662  -26.2312   23.3624 H   0  0  0  0  0  0
  -21.6655  -26.7381   22.1236 H   0  0  0  0  0  0
  -19.6904  -25.6275   21.1262 H   0  0  0  0  0  0
  -19.6704  -27.3172   20.6733 H   0  0  0  0  0  0
  -17.4212  -26.6681   21.4025 H   0  0  0  0  0  0
  -18.0316  -26.0065   22.9018 H   0  0  0  0  0  0
  -19.7958  -30.7274   24.2248 H   0  0  0  0  0  0
  -17.5031  -31.6268   24.5153 H   0  0  0  0  0  0
  -15.5367  -30.2966   23.7652 H   0  0  0  0  0  0
  -15.8699  -28.0792   22.7090 H   0  0  0  0  0  0
  -24.5892  -30.7121   25.7740 H   0  0  0  0  0  0
  -24.8929  -32.2960   26.4763 H   0  0  0  0  0  0
  -25.8012  -30.8994   27.0210 H   0  0  0  0  0  0
  -26.3027  -29.6669   24.1298 H   0  0  0  0  0  0
  -27.4018  -29.7270   25.4881 H   0  0  0  0  0  0
  -27.8934  -30.4200   23.9613 H   0  0  0  0  0  0
  -27.2620  -33.3662   26.1986 H   0  0  0  0  0  0
  -28.3887  -32.6879   25.0328 H   0  0  0  0  0  0
  -28.0674  -31.8522   26.5471 H   0  0  0  0  0  0
  -28.2594  -38.0072   24.7507 H   0  0  0  0  0  0
  -28.1066  -36.2600   24.6295 H   0  0  0  0  0  0
  -27.2294  -37.1423   25.8881 H   0  0  0  0  0  0
  -20.9451  -29.8736   21.6799 H   0  0  0  0  0  0
  -26.0145  -38.2808   24.1424 H   0  0  0  0  0  0
  -31.0839  -20.3714   19.3405 H   0  0  0  0  0  0
  -31.5284  -18.0236   19.8226 H   0  0  0  0  0  0
  -27.2087  -20.0237   21.0562 H   0  0  0  0  0  0
  -30.1223  -16.6844   25.7628 H   0  0  0  0  0  0
  -29.1696  -15.2484   25.4078 H   0  0  0  0  0  0
  -31.3051  -14.2146   25.3267 H   0  0  0  0  0  0
  -32.0855  -15.7342   24.9108 H   0  0  0  0  0  0
  -25.9718  -22.7736   18.3985 H   0  0  0  0  0  0
  -25.9109  -21.2495   19.2770 H   0  0  0  0  0  0
  -29.3330  -17.5731   23.7234 H   0  0  0  0  0  0
  -28.5160  -16.0309   23.4622 H   0  0  0  0  0  0
  -30.4742  -13.9465   23.0901 H   0  0  0  0  0  0
  -32.1019  -14.5623   22.8105 H   0  0  0  0  0  0
  -26.5391  -22.2272   21.2866 H   0  0  0  0  0  0
  -26.1217  -23.7672   20.5643 H   0  0  0  0  0  0
  -28.2083  -22.5032   17.8034 H   0  0  0  0  0  0
  -27.9203  -20.8110   18.1275 H   0  0  0  0  0  0
  -31.3022  -16.8488   22.6082 H   0  0  0  0  0  0
  -28.6503  -23.2814   21.4186 H   0  0  0  0  0  0
  -26.3129  -17.7212   21.1522 H   0  0  0  0  0  0
  -27.1034  -17.8349   22.7132 H   0  0  0  0  0  0
  -27.3617  -16.4173   21.6845 H   0  0  0  0  0  0
  -27.7781  -24.7319   18.7624 H   0  0  0  0  0  0
  -29.3973  -24.7463   19.2805 H   0  0  0  0  0  0
  1 25  1  0  0  0
  1 30  2  0  0  0
  1 89  1  0  0  0
  2  3  1  0  0  0
  2 25  1  0  0  0
  2 90  1  0  0  0
  2 91  1  0  0  0
  3  4  1  0  0  0
  3 92  1  0  0  0
  3 93  1  0  0  0
  4  5  1  0  0  0
  4 94  1  0  0  0
  4 95  1  0  0  0
  5  6  1  0  0  0
  5 26  1  0  0  0
  5 96  1  0  0  0
  6 25  1  0  0  0
  6 97  1  0  0  0
  6 98  1  0  0  0
  7  8  2  0  0  0
  7 26  1  0  0  0
  7 29  1  0  0  0
  8  9  1  0  0  0
  8 22  1  0  0  0
  9 10  1  0  0  0
  9 27  2  0  0  0
 10 11  2  0  0  0
 10 15  1  0  0  0
 11 12  1  0  0  0
 11 99  1  0  0  0
 12 13  2  0  0  0
 12100  1  0  0  0
 13 14  1  0  0  0
 13 31  1  0  0  0
 14 15  2  0  0  0
 14101  1  0  0  0
 15102  1  0  0  0
 16 17  2  0  0  0
 16 21  1  0  0  0
 16 31  1  0  0  0
 17 18  1  0  0  0
 17103  1  0  0  0
 18 19  2  0  0  0
 18104  1  0  0  0
 19 20  1  0  0  0
 19 24  1  0  0  0
 20 21  2  0  0  0
 20105  1  0  0  0
 21 23  1  0  0  0
 22 28  1  0  0  0
 22 32  2  0  0  0
 26 27  1  0  0  0
 28106  1  0  0  0
 28107  1  0  0  0
 29108  1  0  0  0
 29109  1  0  0  0
 33 34  1  0  0  0
 33 66  1  0  0  0
 33 70  2  0  0  0
 34 36  1  0  0  0
 34 59  1  0  0  0
 34110  1  0  0  0
 35 44  2  0  0  0
 35 45  1  0  0  0
 35 68  1  0  0  0
 36 56  1  0  0  0
 36111  1  0  0  0
 37 39  1  0  0  0
 37 47  1  0  0  0
 37 66  1  0  0  0
 37112  1  0  0  0
 38 43  2  0  0  0
 38 46  1  0  0  0
 38 47  1  0  0  0
 39 64  1  0  0  0
 39 67  2  0  0  0
 40 52  1  0  0  0
 40 53  2  0  0  0
 40 58  1  0  0  0
 41113  1  0  0  0
 41114  1  0  0  0
 41115  1  0  0  0
 41 48  1  0  0  0
 42 43  1  0  0  0
 42 66  1  0  0  0
 42116  1  0  0  0
 42117  1  0  0  0
 43 44  1  0  0  0
 44118  1  0  0  0
 45 46  2  0  0  0
 45119  1  0  0  0
 46120  1  0  0  0
 47121  1  0  0  0
 47122  1  0  0  0
 48 56  1  0  0  0
 48 65  1  0  0  0
 48123  1  0  0  0
 49 50  1  0  0  0
 49 53  1  0  0  0
 49 64  1  0  0  0
 49124  1  0  0  0
 50 51  1  0  0  0
 50125  1  0  0  0
 50126  1  0  0  0
 51 52  1  0  0  0
 51127  1  0  0  0
 51128  1  0  0  0
 52129  1  0  0  0
 52130  1  0  0  0
 53 54  1  0  0  0
 54 55  2  0  0  0
 54131  1  0  0  0
 55 57  1  0  0  0
 55132  1  0  0  0
 56 69  2  0  0  0
 57 58  2  0  0  0
 57133  1  0  0  0
 58134  1  0  0  0
 59 60  1  0  0  0
 59 61  1  0  0  0
 59 62  1  0  0  0
 60135  1  0  0  0
 60136  1  0  0  0
 60137  1  0  0  0
 61138  1  0  0  0
 61139  1  0  0  0
 61140  1  0  0  0
 62141  1  0  0  0
 62142  1  0  0  0
 62143  1  0  0  0
 63 65  1  0  0  0
 63144  1  0  0  0
 63145  1  0  0  0
 63146  1  0  0  0
 64147  1  0  0  0
 65148  1  0  0  0
 68 87  1  0  0  0
 71 72  2  0  0  0
 71 75  1  0  0  0
 71149  1  0  0  0
 72 76  1  0  0  0
 72150  1  0  0  0
 73 74  1  0  0  0
 73 75  2  0  0  0
 73151  1  0  0  0
 74 76  2  0  0  0
 74 86  1  0  0  0
 75 88  1  0  0  0
 76 89  1  0  0  0
 77 78  1  0  0  0
 77 80  1  0  0  0
 77152  1  0  0  0
 77153  1  0  0  0
 78 81  1  0  0  0
 78154  1  0  0  0
 78155  1  0  0  0
 79 82  1  0  0  0
 79 83  1  0  0  0
 79156  1  0  0  0
 79157  1  0  0  0
 80 84  1  0  0  0
 80158  1  0  0  0
 80159  1  0  0  0
 81 84  1  0  0  0
 81160  1  0  0  0
 81161  1  0  0  0
 82 85  1  0  0  0
 82162  1  0  0  0
 82163  1  0  0  0
 83 88  1  0  0  0
 83164  1  0  0  0
 83165  1  0  0  0
 84 89  1  0  0  0
 84166  1  0  0  0
 85 87  1  0  0  0
 85 88  1  0  0  0
 85167  1  0  0  0
 86168  1  0  0  0
 86169  1  0  0  0
 86170  1  0  0  0
 87171  1  0  0  0
 87172  1  0  0  0
M  ISO  4   1 100  68 101  87 101  89 100
M  END
> <chiral flag>
0

> <version>
0

> <s_m_source_file>
/data/baiqing/PycharmProjects/Reinvent-master-3.2/result/LINK_invent/BTK/process_docking_weight1_custom_product_contain_oxygen_bond_distance_aromatic_linkinvent_7_9_3/rearranged_h_0024.sdf

> <i_m_source_file_index>
29

> <r_mmod_Potential_Energy-OPLS-2005>
921.011657714844

> <r_mmod_Stretch_Energy-OPLS-2005>
256.284484863281

> <r_mmod_Bend_Energy-OPLS-2005>
378.981079101562

> <r_mmod_Torsional_Energy-OPLS-2005>
428.520111083984

> <r_mmod_Improper_Torsional_Energy-OPLS-2005>
15.4135103225708

> <r_mmod_Van_der_Waal_Energy-OPLS-2005>
134.258743286133

> <r_mmod_Electrostatic_Energy-OPLS-2005>
-282.465942382812

> <r_mmod_Solvation_Energy-OPLS-2005>
-196.829666137695

> <b_mmod_Minimization_Converged-OPLS-2005>
0

> <r_mmod_RMS_Derivative-OPLS-2005>
3.76912498474121

$$$$
29
                    3D
 Structure written by MMmdl.
156165  0  0  1  0            999 V2000
  -30.5093  -14.9927   20.4728 C   0  0  0  0  0  0
  -30.4338  -12.6210   19.5009 C   0  0  0  0  0  0
  -29.5252  -12.5554   18.2490 C   0  0  0  0  0  0
  -28.0552  -12.3388   18.6612 C   0  0  0  0  0  0
  -27.6337  -13.2495   19.8453 C   0  0  2  0  0  0
  -28.6762  -13.2601   20.9828 C   0  0  0  0  0  0
  -25.2477  -13.8217   20.5578 C   0  0  0  0  0  0
  -24.1792  -13.0476   20.9187 C   0  0  0  0  0  0
  -24.6417  -11.6936   20.8824 C   0  0  0  0  0  0
  -23.9098  -10.4278   21.0470 C   0  0  0  0  0  0
  -24.3661   -9.4173   21.9212 C   0  0  0  0  0  0
  -23.6321   -8.2236   22.0773 C   0  0  0  0  0  0
  -22.4308   -8.0296   21.3596 C   0  0  0  0  0  0
  -21.9986   -9.0256   20.4675 C   0  0  0  0  0  0
  -22.7295  -10.2125   20.3132 C   0  0  0  0  0  0
  -21.6866   -6.0721   22.5291 C   0  0  0  0  0  0
  -21.3983   -6.5640   23.8207 C   0  0  0  0  0  0
  -21.3669   -5.6810   24.9189 C   0  0  0  0  0  0
  -21.6071   -4.3080   24.7263 C   0  0  0  0  0  0
  -21.8818   -3.8160   23.4394 C   0  0  0  0  0  0
  -21.9188   -4.6956   22.3439 C   0  0  0  0  0  0
  -22.7804  -13.5238   21.1843 C   0  0  0  0  0  0
  -22.1650   -4.2149   21.1003 F   0  0  0  0  0  0
  -21.5683   -3.4569   25.7772 F   0  0  0  0  0  0
  -29.9297  -13.7164   20.3824 N   0  0  0  0  0  0
  -26.2912  -12.9446   20.3267 N   0  0  0  0  0  0
  -25.9345  -11.6567   20.5791 N   0  0  0  0  0  0
  -22.0493  -12.8184   22.0394 N   0  0  0  0  0  0
  -25.4156  -15.1916   20.3724 N   0  0  0  0  0  0
  -31.7180  -15.0574   20.2129 O   0  0  0  0  0  0
  -21.6691   -6.8887   21.4258 O   0  0  0  0  0  0
  -22.3465  -14.5521   20.6659 O   0  0  0  0  0  0
  -24.6477  -31.8319   23.1790 C   0  0  0  0  0  0
  -25.9237  -32.4616   23.8184 C   0  0  1  0  0  0
  -27.2323  -27.0559   20.1497 C   0  0  0  0  0  0
  -25.6000  -33.8439   24.2103 N   0  0  0  0  0  0
  -23.4579  -30.4440   21.5237 C   0  0  2  0  0  0
  -24.9108  -28.8501   20.1084 C   0  0  0  0  0  0
  -22.7565  -29.4486   22.4798 C   0  0  0  0  0  0
  -18.0287  -28.1354   22.8432 C   0  0  0  0  0  0
  -24.1508  -36.7213   23.2629 C   0  0  0  0  0  0
  -26.0164  -30.6778   21.3919 C   0  0  0  0  0  0
  -26.0880  -29.2793   20.7328 C   0  0  0  0  0  0
  -27.2436  -28.3975   20.7350 C   0  0  0  0  0  0
  -26.0311  -26.7553   19.4693 C   0  0  0  0  0  0
  -24.9001  -27.6060   19.4592 C   0  0  0  0  0  0
  -23.6922  -29.7620   20.1463 C   0  0  0  0  0  0
  -25.4145  -36.2963   24.0268 C   0  0  1  0  0  0
  -20.5900  -28.3723   23.1163 C   0  0  2  0  0  0
  -20.6773  -26.9417   22.5367 C   0  0  0  0  0  0
  -19.5761  -26.6360   21.5164 C   0  0  0  0  0  0
  -18.1938  -26.7894   22.1570 C   0  0  0  0  0  0
  -19.1538  -28.8852   23.2794 C   0  0  0  0  0  0
  -18.9496  -30.1452   23.8825 C   0  0  0  0  0  0
  -17.6507  -30.6589   24.0531 C   0  0  0  0  0  0
  -25.9100  -34.9352   23.4994 C   0  0  0  0  0  0
  -16.5389  -29.9082   23.6341 C   0  0  0  0  0  0
  -16.7275  -28.6487   23.0357 C   0  0  0  0  0  0
  -26.4570  -31.6486   25.0651 C   0  0  0  0  0  0
  -25.3790  -31.3696   26.1373 C   0  0  0  0  0  0
  -27.0460  -30.2860   24.6310 C   0  0  0  0  0  0
  -27.6035  -32.4285   25.7473 C   0  0  0  0  0  0
  -27.5569  -37.1771   24.8456 C   0  0  0  0  0  0
  -21.4248  -29.3050   22.3549 N   0  0  0  0  0  0
  -26.4276  -37.3715   23.9395 N   0  0  0  0  0  0
  -24.7264  -31.0069   22.0869 N   0  0  0  0  0  0
  -23.4149  -28.8060   23.3017 O   0  0  0  0  0  0
  -28.2893  -26.0514   20.2612 O   0  0  0  0  0  0
  -26.5693  -34.8882   22.4585 O   0  0  0  0  0  0
  -23.5562  -32.1265   23.6932 O   0  0  0  0  0  0
  -30.4213  -20.4919   21.6723 C   0  0  0  0  0  0
  -31.1541  -19.3885   22.1878 C   0  0  0  0  0  0
  -29.1895  -18.8902   20.3436 C   0  0  0  0  0  0
  -29.3850  -20.3410   20.7190 C   0  0  0  0  0  0
  -29.9436  -17.6906   20.8468 C   0  0  0  0  0  0
  -30.9242  -18.0387   21.8106 C   0  0  0  0  0  0
  -26.3986  -22.1494   20.9257 C   0  0  0  0  0  0
  -27.4094  -22.9938   21.7205 C   0  0  0  0  0  0
  -27.2327  -21.2116   20.0449 C   0  0  0  0  0  0
  -28.6035  -23.0844   20.7761 C   0  0  2  0  0  0
  -28.2762  -24.5099   19.8410 C   0  0  0  0  0  0
  -28.6377  -21.5719   20.2560 N   0  0  0  0  0  0
  -29.6995  -16.1758   20.5623 N   0  0  0  0  0  0
  -31.6328  -17.0662   22.4359 F   0  0  0  0  0  0
  -31.4708  -12.7793   19.2055 H   0  0  0  0  0  0
  -30.4167  -11.6600   20.0175 H   0  0  0  0  0  0
  -29.8366  -11.7512   17.5840 H   0  0  0  0  0  0
  -29.6237  -13.4792   17.6738 H   0  0  0  0  0  0
  -27.9414  -11.2887   18.9346 H   0  0  0  0  0  0
  -27.3976  -12.5108   17.8059 H   0  0  0  0  0  0
  -27.6032  -14.2581   19.4303 H   0  0  0  0  0  0
  -28.7808  -12.2663   21.4248 H   0  0  0  0  0  0
  -28.3658  -13.9230   21.7901 H   0  0  0  0  0  0
  -25.2847   -9.5648   22.4747 H   0  0  0  0  0  0
  -24.0080   -7.4641   22.7490 H   0  0  0  0  0  0
  -21.0971   -8.8782   19.8939 H   0  0  0  0  0  0
  -22.3812  -10.9670   19.6251 H   0  0  0  0  0  0
  -21.1911   -7.6139   23.9718 H   0  0  0  0  0  0
  -21.1506   -6.0535   25.9074 H   0  0  0  0  0  0
  -22.0591   -2.7614   23.2914 H   0  0  0  0  0  0
  -22.4164  -11.9859   22.4774 H   0  0  0  0  0  0
  -21.1071  -13.1113   22.2587 H   0  0  0  0  0  0
  -24.6422  -15.8480   20.4306 H   0  0  0  0  0  0
  -26.2021  -15.5722   19.8649 H   0  0  0  0  0  0
  -26.7269  -32.5205   23.0854 H   0  0  0  0  0  0
  -25.0189  -33.9574   25.0270 H   0  0  0  0  0  0
  -22.7631  -31.2671   21.3501 H   0  0  0  0  0  0
  -23.3781  -35.9547   23.3258 H   0  0  0  0  0  0
  -24.3549  -36.8903   22.2048 H   0  0  0  0  0  0
  -23.7274  -37.6386   23.6721 H   0  0  0  0  0  0
  -26.1784  -31.4311   20.6191 H   0  0  0  0  0  0
  -26.8784  -30.7285   22.0447 H   0  0  0  0  0  0
  -28.1438  -28.7201   21.2386 H   0  0  0  0  0  0
  -25.9340  -25.8175   18.9452 H   0  0  0  0  0  0
  -24.0071  -27.2752   18.9429 H   0  0  0  0  0  0
  -23.8389  -30.5275   19.3815 H   0  0  0  0  0  0
  -22.8100  -29.2002   19.8333 H   0  0  0  0  0  0
  -25.1351  -36.1736   25.0755 H   0  0  0  0  0  0
  -20.9950  -28.3341   24.1301 H   0  0  0  0  0  0
  -20.5565  -26.2405   23.3632 H   0  0  0  0  0  0
  -21.6667  -26.7390   22.1253 H   0  0  0  0  0  0
  -19.6974  -25.6254   21.1247 H   0  0  0  0  0  0
  -19.6689  -27.3125   20.6645 H   0  0  0  0  0  0
  -17.4216  -26.6574   21.3973 H   0  0  0  0  0  0
  -18.0379  -26.0018   22.8949 H   0  0  0  0  0  0
  -19.7987  -30.7240   24.2149 H   0  0  0  0  0  0
  -17.5090  -31.6246   24.5150 H   0  0  0  0  0  0
  -15.5385  -30.2982   23.7700 H   0  0  0  0  0  0
  -15.8655  -28.0790   22.7122 H   0  0  0  0  0  0
  -24.5973  -30.7033   25.7719 H   0  0  0  0  0  0
  -24.9057  -32.2920   26.4737 H   0  0  0  0  0  0
  -25.8147  -30.8915   27.0159 H   0  0  0  0  0  0
  -26.3128  -29.6535   24.1337 H   0  0  0  0  0  0
  -27.4024  -29.7169   25.4888 H   0  0  0  0  0  0
  -27.9025  -30.3983   23.9680 H   0  0  0  0  0  0
  -27.2544  -33.3551   26.2018 H   0  0  0  0  0  0
  -28.3926  -32.6895   25.0417 H   0  0  0  0  0  0
  -28.0661  -31.8489   26.5461 H   0  0  0  0  0  0
  -28.2544  -38.0107   24.7524 H   0  0  0  0  0  0
  -28.1107  -36.2630   24.6257 H   0  0  0  0  0  0
  -27.2284  -37.1383   25.8860 H   0  0  0  0  0  0
  -20.9459  -29.8813   21.6758 H   0  0  0  0  0  0
  -26.0098  -38.2747   24.1484 H   0  0  0  0  0  0
  -30.6591  -21.4738   22.0534 H   0  0  0  0  0  0
  -31.9093  -19.5882   22.9346 H   0  0  0  0  0  0
  -28.4130  -18.6711   19.6247 H   0  0  0  0  0  0
  -25.7858  -22.7794   20.2777 H   0  0  0  0  0  0
  -25.7196  -21.5977   21.5814 H   0  0  0  0  0  0
  -27.6916  -22.4765   22.6371 H   0  0  0  0  0  0
  -27.0182  -23.9733   22.0061 H   0  0  0  0  0  0
  -26.9646  -21.3079   18.9938 H   0  0  0  0  0  0
  -26.9982  -20.1863   20.3352 H   0  0  0  0  0  0
  -29.5129  -23.2760   21.3509 H   0  0  0  0  0  0
  -27.3559  -24.3111   19.2953 H   0  0  0  0  0  0
  -29.0273  -24.4875   19.0483 H   0  0  0  0  0  0
  -28.7181  -15.9486   20.4747 H   0  0  0  0  0  0
  1 25  1  0  0  0
  1 30  2  0  0  0
  1 83  1  0  0  0
  2  3  1  0  0  0
  2 25  1  0  0  0
  2 85  1  0  0  0
  2 86  1  0  0  0
  3  4  1  0  0  0
  3 87  1  0  0  0
  3 88  1  0  0  0
  4  5  1  0  0  0
  4 89  1  0  0  0
  4 90  1  0  0  0
  5  6  1  0  0  0
  5 26  1  0  0  0
  5 91  1  0  0  0
  6 25  1  0  0  0
  6 92  1  0  0  0
  6 93  1  0  0  0
  7  8  2  0  0  0
  7 26  1  0  0  0
  7 29  1  0  0  0
  8  9  1  0  0  0
  8 22  1  0  0  0
  9 10  1  0  0  0
  9 27  2  0  0  0
 10 11  2  0  0  0
 10 15  1  0  0  0
 11 12  1  0  0  0
 11 94  1  0  0  0
 12 13  2  0  0  0
 12 95  1  0  0  0
 13 14  1  0  0  0
 13 31  1  0  0  0
 14 15  2  0  0  0
 14 96  1  0  0  0
 15 97  1  0  0  0
 16 17  2  0  0  0
 16 21  1  0  0  0
 16 31  1  0  0  0
 17 18  1  0  0  0
 17 98  1  0  0  0
 18 19  2  0  0  0
 18 99  1  0  0  0
 19 20  1  0  0  0
 19 24  1  0  0  0
 20 21  2  0  0  0
 20100  1  0  0  0
 21 23  1  0  0  0
 22 28  1  0  0  0
 22 32  2  0  0  0
 26 27  1  0  0  0
 28101  1  0  0  0
 28102  1  0  0  0
 29103  1  0  0  0
 29104  1  0  0  0
 33 34  1  0  0  0
 33 66  1  0  0  0
 33 70  2  0  0  0
 34 36  1  0  0  0
 34 59  1  0  0  0
 34105  1  0  0  0
 35 44  2  0  0  0
 35 45  1  0  0  0
 35 68  1  0  0  0
 36 56  1  0  0  0
 36106  1  0  0  0
 37 39  1  0  0  0
 37 47  1  0  0  0
 37 66  1  0  0  0
 37107  1  0  0  0
 38 43  2  0  0  0
 38 46  1  0  0  0
 38 47  1  0  0  0
 39 64  1  0  0  0
 39 67  2  0  0  0
 40 52  1  0  0  0
 40 53  2  0  0  0
 40 58  1  0  0  0
 41108  1  0  0  0
 41109  1  0  0  0
 41110  1  0  0  0
 41 48  1  0  0  0
 42 43  1  0  0  0
 42 66  1  0  0  0
 42111  1  0  0  0
 42112  1  0  0  0
 43 44  1  0  0  0
 44113  1  0  0  0
 45 46  2  0  0  0
 45114  1  0  0  0
 46115  1  0  0  0
 47116  1  0  0  0
 47117  1  0  0  0
 48 56  1  0  0  0
 48 65  1  0  0  0
 48118  1  0  0  0
 49 50  1  0  0  0
 49 53  1  0  0  0
 49 64  1  0  0  0
 49119  1  0  0  0
 50 51  1  0  0  0
 50120  1  0  0  0
 50121  1  0  0  0
 51 52  1  0  0  0
 51122  1  0  0  0
 51123  1  0  0  0
 52124  1  0  0  0
 52125  1  0  0  0
 53 54  1  0  0  0
 54 55  2  0  0  0
 54126  1  0  0  0
 55 57  1  0  0  0
 55127  1  0  0  0
 56 69  2  0  0  0
 57 58  2  0  0  0
 57128  1  0  0  0
 58129  1  0  0  0
 59 60  1  0  0  0
 59 61  1  0  0  0
 59 62  1  0  0  0
 60130  1  0  0  0
 60131  1  0  0  0
 60132  1  0  0  0
 61133  1  0  0  0
 61134  1  0  0  0
 61135  1  0  0  0
 62136  1  0  0  0
 62137  1  0  0  0
 62138  1  0  0  0
 63 65  1  0  0  0
 63139  1  0  0  0
 63140  1  0  0  0
 63141  1  0  0  0
 64142  1  0  0  0
 65143  1  0  0  0
 68 81  1  0  0  0
 71 72  2  0  0  0
 71 74  1  0  0  0
 71144  1  0  0  0
 72 76  1  0  0  0
 72145  1  0  0  0
 73 74  2  0  0  0
 73 75  1  0  0  0
 73146  1  0  0  0
 74 82  1  0  0  0
 75 76  2  0  0  0
 75 83  1  0  0  0
 76 84  1  0  0  0
 77 78  1  0  0  0
 77 79  1  0  0  0
 77147  1  0  0  0
 77148  1  0  0  0
 78 80  1  0  0  0
 78149  1  0  0  0
 78150  1  0  0  0
 79 82  1  0  0  0
 79151  1  0  0  0
 79152  1  0  0  0
 80 81  1  0  0  0
 80 82  1  0  0  0
 80153  1  0  0  0
 81154  1  0  0  0
 81155  1  0  0  0
 83156  1  0  0  0
M  ISO  4   1 100  68 101  81 101  83 100
M  END
> <chiral flag>
0

> <version>
0

> <s_m_source_file>
/data/baiqing/PycharmProjects/Reinvent-master-3.2/result/LINK_invent/BTK/process_docking_weight1_custom_product_contain_oxygen_bond_distance_aromatic_linkinvent_7_9_3/rearranged_h_0024.sdf

> <i_m_source_file_index>
30

> <r_mmod_Potential_Energy-OPLS-2005>
737.821960449219

> <r_mmod_Stretch_Energy-OPLS-2005>
345.183044433594

> <r_mmod_Bend_Energy-OPLS-2005>
340.483459472656

> <r_mmod_Torsional_Energy-OPLS-2005>
283.876159667969

> <r_mmod_Improper_Torsional_Energy-OPLS-2005>
12.9411363601685

> <r_mmod_Van_der_Waal_Energy-OPLS-2005>
129.684143066406

> <r_mmod_Electrostatic_Energy-OPLS-2005>
-382.517242431641

> <r_mmod_Solvation_Energy-OPLS-2005>
-232.666763305664

> <b_mmod_Minimization_Converged-OPLS-2005>
0

> <r_mmod_RMS_Derivative-OPLS-2005>
7.24579334259033

$$$$
30
                    3D
 Structure written by MMmdl.
163173  0  0  1  0            999 V2000
  -30.7427  -14.3757   20.6920 C   0  0  0  0  0  0
  -30.4234  -12.3025   19.3812 C   0  0  0  0  0  0
  -29.4804  -12.5431   18.1869 C   0  0  0  0  0  0
  -28.0058  -12.3875   18.6067 C   0  0  0  0  0  0
  -27.6704  -13.1940   19.8881 C   0  0  2  0  0  0
  -28.7127  -12.9106   20.9910 C   0  0  0  0  0  0
  -25.2643  -13.8141   20.5701 C   0  0  0  0  0  0
  -24.1872  -13.0435   20.9169 C   0  0  0  0  0  0
  -24.6398  -11.6897   20.8718 C   0  0  0  0  0  0
  -23.9051  -10.4303   21.0390 C   0  0  0  0  0  0
  -24.3604   -9.4227   21.9174 C   0  0  0  0  0  0
  -23.6288   -8.2258   22.0762 C   0  0  0  0  0  0
  -22.4269   -8.0287   21.3554 C   0  0  0  0  0  0
  -21.9902   -9.0255   20.4646 C   0  0  0  0  0  0
  -22.7222  -10.2141   20.3046 C   0  0  0  0  0  0
  -21.6854   -6.0746   22.5288 C   0  0  0  0  0  0
  -21.4009   -6.5657   23.8219 C   0  0  0  0  0  0
  -21.3647   -5.6808   24.9183 C   0  0  0  0  0  0
  -21.6041   -4.3073   24.7235 C   0  0  0  0  0  0
  -21.8815   -3.8163   23.4356 C   0  0  0  0  0  0
  -21.9196   -4.6971   22.3413 C   0  0  0  0  0  0
  -22.7891  -13.5244   21.1845 C   0  0  0  0  0  0
  -22.1667   -4.2160   21.0987 F   0  0  0  0  0  0
  -21.5628   -3.4546   25.7744 F   0  0  0  0  0  0
  -30.0470  -13.2320   20.4567 N   0  0  0  0  0  0
  -26.3080  -12.9283   20.3451 N   0  0  0  0  0  0
  -25.9329  -11.6459   20.5798 N   0  0  0  0  0  0
  -22.0520  -12.8221   22.0381 N   0  0  0  0  0  0
  -25.4382  -15.1857   20.4081 N   0  0  0  0  0  0
  -31.7704  -14.6571   20.0656 O   0  0  0  0  0  0
  -21.6645   -6.8880   21.4245 O   0  0  0  0  0  0
  -22.3599  -14.5583   20.6719 O   0  0  0  0  0  0
  -24.6118  -31.8697   23.2117 C   0  0  0  0  0  0
  -25.9026  -32.4817   23.8410 C   0  0  1  0  0  0
  -27.2322  -27.4487   20.0699 C   0  0  0  0  0  0
  -25.5902  -33.8622   24.2330 N   0  0  0  0  0  0
  -23.3978  -30.4951   21.5525 C   0  0  2  0  0  0
  -24.8396  -28.9624   20.1173 C   0  0  0  0  0  0
  -22.7380  -29.4673   22.5001 C   0  0  0  0  0  0
  -18.0258  -28.1362   22.8506 C   0  0  0  0  0  0
  -24.1494  -36.7316   23.2642 C   0  0  0  0  0  0
  -25.9270  -30.8345   21.3672 C   0  0  0  0  0  0
  -25.9999  -29.4713   20.7105 C   0  0  0  0  0  0
  -27.1942  -28.7183   20.6893 C   0  0  0  0  0  0
  -26.0386  -26.9363   19.5079 C   0  0  0  0  0  0
  -24.8525  -27.6917   19.5195 C   0  0  0  0  0  0
  -23.6030  -29.8279   20.1669 C   0  0  0  0  0  0
  -25.4116  -36.3104   24.0329 C   0  0  1  0  0  0
  -20.5850  -28.3652   23.1324 C   0  0  2  0  0  0
  -20.6749  -26.9392   22.5412 C   0  0  0  0  0  0
  -19.5727  -26.6376   21.5212 C   0  0  0  0  0  0
  -18.1904  -26.7915   22.1621 C   0  0  0  0  0  0
  -19.1508  -28.8821   23.2911 C   0  0  0  0  0  0
  -18.9438  -30.1434   23.8913 C   0  0  0  0  0  0
  -17.6449  -30.6581   24.0557 C   0  0  0  0  0  0
  -25.9042  -34.9473   23.5123 C   0  0  0  0  0  0
  -16.5338  -29.9077   23.6329 C   0  0  0  0  0  0
  -16.7252  -28.6485   23.0368 C   0  0  0  0  0  0
  -26.4461  -31.6594   25.0736 C   0  0  0  0  0  0
  -25.3727  -31.3697   26.1475 C   0  0  0  0  0  0
  -27.0305  -30.3041   24.6131 C   0  0  0  0  0  0
  -27.6032  -32.4313   25.7502 C   0  0  0  0  0  0
  -27.5584  -37.1814   24.8457 C   0  0  0  0  0  0
  -21.4111  -29.3037   22.3741 N   0  0  0  0  0  0
  -26.4300  -37.3789   23.9391 N   0  0  0  0  0  0
  -24.6633  -31.0814   22.1014 N   0  0  0  0  0  0
  -23.4162  -28.8209   23.3027 O   0  0  0  0  0  0
  -28.4385  -26.7772   20.0468 O   0  0  0  0  0  0
  -26.5597  -34.8915   22.4685 O   0  0  0  0  0  0
  -23.5315  -32.1446   23.7525 O   0  0  0  0  0  0
  -31.3570  -20.7751   21.4317 C   0  0  0  0  0  0
  -29.7284  -21.1288   19.1680 C   0  0  0  0  0  0
  -31.0056  -19.6531   20.6461 C   0  0  0  0  0  0
  -30.1182  -22.2518   19.9306 C   0  0  0  0  0  0
  -30.1750  -19.8386   19.5182 C   0  0  0  0  0  0
  -30.9210  -22.0688   21.0796 C   0  0  0  0  0  0
  -30.5267  -24.2915   18.6695 C   0  0  0  0  0  0
  -29.9782  -25.6955   18.5194 C   0  0  0  0  0  0
  -28.6490  -24.3214   20.0390 C   0  0  0  0  0  0
  -29.6673  -16.6647   21.1791 C   0  0  0  0  0  0
  -31.3441  -16.2511   22.3932 C   0  0  0  0  0  0
  -30.2532  -15.3751   21.7656 C   0  0  2  0  0  0
  -28.6156  -25.6239   19.2131 C   0  0  1  0  0  0
  -31.5860  -18.2787   20.9736 C   0  0  0  0  0  0
  -29.7653  -23.5562   19.4923 N   0  0  0  0  0  0
  -30.7134  -17.4517   21.8413 N   0  3  1  0  0  0
  -31.5444  -23.9109   18.0824 O   0  0  0  0  0  0
  -29.8243  -18.7813   18.7498 F   0  0  0  0  0  0
  -31.4231  -23.4124   22.0460 Cl  0  0  0  0  0  0
  -31.4631  -12.4161   19.0693 H   0  0  0  0  0  0
  -30.3387  -11.2733   19.7337 H   0  0  0  0  0  0
  -29.7129  -11.8558   17.3729 H   0  0  0  0  0  0
  -29.6407  -13.5488   17.7969 H   0  0  0  0  0  0
  -27.8097  -11.3259   18.7714 H   0  0  0  0  0  0
  -27.3501  -12.6952   17.7913 H   0  0  0  0  0  0
  -27.7364  -14.2525   19.6355 H   0  0  0  0  0  0
  -28.6893  -11.8548   21.2675 H   0  0  0  0  0  0
  -28.4473  -13.4341   21.9046 H   0  0  0  0  0  0
  -25.2742   -9.5735   22.4741 H   0  0  0  0  0  0
  -24.0022   -7.4660   22.7481 H   0  0  0  0  0  0
  -21.0848   -8.8745   19.8931 H   0  0  0  0  0  0
  -22.3661  -10.9675   19.6158 H   0  0  0  0  0  0
  -21.1988   -7.6157   23.9731 H   0  0  0  0  0  0
  -21.1473   -6.0535   25.9085 H   0  0  0  0  0  0
  -22.0591   -2.7625   23.2859 H   0  0  0  0  0  0
  -22.4111  -11.9848   22.4720 H   0  0  0  0  0  0
  -21.1132  -13.1239   22.2578 H   0  0  0  0  0  0
  -24.6651  -15.8359   20.4978 H   0  0  0  0  0  0
  -26.2860  -15.6225   20.0698 H   0  0  0  0  0  0
  -26.7100  -32.5528   23.1175 H   0  0  0  0  0  0
  -25.0052  -33.9799   25.0474 H   0  0  0  0  0  0
  -22.6851  -31.3112   21.4144 H   0  0  0  0  0  0
  -23.3743  -35.9665   23.3323 H   0  0  0  0  0  0
  -24.3577  -36.8916   22.2047 H   0  0  0  0  0  0
  -23.7272  -37.6537   23.6651 H   0  0  0  0  0  0
  -26.0467  -31.6056   20.6041 H   0  0  0  0  0  0
  -26.8120  -30.8782   21.9906 H   0  0  0  0  0  0
  -28.0940  -29.1150   21.1386 H   0  0  0  0  0  0
  -25.9851  -25.9561   19.0604 H   0  0  0  0  0  0
  -23.9544  -27.2868   19.0725 H   0  0  0  0  0  0
  -23.7038  -30.5997   19.4035 H   0  0  0  0  0  0
  -22.7272  -29.2434   19.8779 H   0  0  0  0  0  0
  -25.1302  -36.1974   25.0826 H   0  0  0  0  0  0
  -20.9941  -28.3209   24.1442 H   0  0  0  0  0  0
  -20.5648  -26.2259   23.3595 H   0  0  0  0  0  0
  -21.6621  -26.7432   22.1210 H   0  0  0  0  0  0
  -19.6885  -25.6288   21.1234 H   0  0  0  0  0  0
  -19.6662  -27.3190   20.6745 H   0  0  0  0  0  0
  -17.4177  -26.6679   21.4018 H   0  0  0  0  0  0
  -18.0289  -26.0039   22.8998 H   0  0  0  0  0  0
  -19.7915  -30.7244   24.2283 H   0  0  0  0  0  0
  -17.5002  -31.6269   24.5143 H   0  0  0  0  0  0
  -15.5337  -30.2989   23.7644 H   0  0  0  0  0  0
  -15.8649  -28.0810   22.7092 H   0  0  0  0  0  0
  -24.5880  -30.7070   25.7807 H   0  0  0  0  0  0
  -24.8933  -32.2847   26.4968 H   0  0  0  0  0  0
  -25.8066  -30.8823   27.0216 H   0  0  0  0  0  0
  -26.2870  -29.6792   24.1159 H   0  0  0  0  0  0
  -27.4046  -29.7284   25.4615 H   0  0  0  0  0  0
  -27.8719  -30.4368   23.9317 H   0  0  0  0  0  0
  -27.2659  -33.3612   26.2105 H   0  0  0  0  0  0
  -28.3835  -32.6877   25.0318 H   0  0  0  0  0  0
  -28.0709  -31.8414   26.5398 H   0  0  0  0  0  0
  -28.2593  -38.0116   24.7507 H   0  0  0  0  0  0
  -28.1082  -36.2644   24.6291 H   0  0  0  0  0  0
  -27.2284  -37.1475   25.8853 H   0  0  0  0  0  0
  -20.9242  -29.8799   21.7016 H   0  0  0  0  0  0
  -26.0184  -38.2870   24.1378 H   0  0  0  0  0  0
  -31.9980  -20.6598   22.2939 H   0  0  0  0  0  0
  -29.1171  -21.2559   18.2856 H   0  0  0  0  0  0
  -29.8910  -25.9745   17.4694 H   0  0  0  0  0  0
  -30.6495  -26.3956   19.0160 H   0  0  0  0  0  0
  -27.7112  -23.7704   19.9634 H   0  0  0  0  0  0
  -28.8343  -24.5323   21.0928 H   0  0  0  0  0  0
  -28.6693  -16.8940   21.5531 H   0  0  0  0  0  0
  -29.6962  -16.7121   20.0891 H   0  0  0  0  0  0
  -32.3607  -16.0760   22.0361 H   0  0  0  0  0  0
  -31.3180  -16.2417   23.4834 H   0  0  0  0  0  0
  -29.6498  -14.9482   22.5625 H   0  0  0  0  0  0
  -27.8894  -25.5411   18.4061 H   0  0  0  0  0  0
  -32.5318  -18.4326   21.4945 H   0  0  0  0  0  0
  -31.8374  -17.7436   20.0569 H   0  0  0  0  0  0
  -30.3345  -18.0065   22.5947 H   0  0  0  0  0  0
  1 25  1  0  0  0
  1 30  2  0  0  0
  1 82  1  0  0  0
  2  3  1  0  0  0
  2 25  1  0  0  0
  2 90  1  0  0  0
  2 91  1  0  0  0
  3  4  1  0  0  0
  3 92  1  0  0  0
  3 93  1  0  0  0
  4  5  1  0  0  0
  4 94  1  0  0  0
  4 95  1  0  0  0
  5  6  1  0  0  0
  5 26  1  0  0  0
  5 96  1  0  0  0
  6 25  1  0  0  0
  6 97  1  0  0  0
  6 98  1  0  0  0
  7  8  2  0  0  0
  7 26  1  0  0  0
  7 29  1  0  0  0
  8  9  1  0  0  0
  8 22  1  0  0  0
  9 10  1  0  0  0
  9 27  2  0  0  0
 10 11  2  0  0  0
 10 15  1  0  0  0
 11 12  1  0  0  0
 11 99  1  0  0  0
 12 13  2  0  0  0
 12100  1  0  0  0
 13 14  1  0  0  0
 13 31  1  0  0  0
 14 15  2  0  0  0
 14101  1  0  0  0
 15102  1  0  0  0
 16 17  2  0  0  0
 16 21  1  0  0  0
 16 31  1  0  0  0
 17 18  1  0  0  0
 17103  1  0  0  0
 18 19  2  0  0  0
 18104  1  0  0  0
 19 20  1  0  0  0
 19 24  1  0  0  0
 20 21  2  0  0  0
 20105  1  0  0  0
 21 23  1  0  0  0
 22 28  1  0  0  0
 22 32  2  0  0  0
 26 27  1  0  0  0
 28106  1  0  0  0
 28107  1  0  0  0
 29108  1  0  0  0
 29109  1  0  0  0
 33 34  1  0  0  0
 33 66  1  0  0  0
 33 70  2  0  0  0
 34 36  1  0  0  0
 34 59  1  0  0  0
 34110  1  0  0  0
 35 44  2  0  0  0
 35 45  1  0  0  0
 35 68  1  0  0  0
 36 56  1  0  0  0
 36111  1  0  0  0
 37 39  1  0  0  0
 37 47  1  0  0  0
 37 66  1  0  0  0
 37112  1  0  0  0
 38 43  2  0  0  0
 38 46  1  0  0  0
 38 47  1  0  0  0
 39 64  1  0  0  0
 39 67  2  0  0  0
 40 52  1  0  0  0
 40 53  2  0  0  0
 40 58  1  0  0  0
 41113  1  0  0  0
 41114  1  0  0  0
 41115  1  0  0  0
 41 48  1  0  0  0
 42 43  1  0  0  0
 42 66  1  0  0  0
 42116  1  0  0  0
 42117  1  0  0  0
 43 44  1  0  0  0
 44118  1  0  0  0
 45 46  2  0  0  0
 45119  1  0  0  0
 46120  1  0  0  0
 47121  1  0  0  0
 47122  1  0  0  0
 48 56  1  0  0  0
 48 65  1  0  0  0
 48123  1  0  0  0
 49 50  1  0  0  0
 49 53  1  0  0  0
 49 64  1  0  0  0
 49124  1  0  0  0
 50 51  1  0  0  0
 50125  1  0  0  0
 50126  1  0  0  0
 51 52  1  0  0  0
 51127  1  0  0  0
 51128  1  0  0  0
 52129  1  0  0  0
 52130  1  0  0  0
 53 54  1  0  0  0
 54 55  2  0  0  0
 54131  1  0  0  0
 55 57  1  0  0  0
 55132  1  0  0  0
 56 69  2  0  0  0
 57 58  2  0  0  0
 57133  1  0  0  0
 58134  1  0  0  0
 59 60  1  0  0  0
 59 61  1  0  0  0
 59 62  1  0  0  0
 60135  1  0  0  0
 60136  1  0  0  0
 60137  1  0  0  0
 61138  1  0  0  0
 61139  1  0  0  0
 61140  1  0  0  0
 62141  1  0  0  0
 62142  1  0  0  0
 62143  1  0  0  0
 63 65  1  0  0  0
 63144  1  0  0  0
 63145  1  0  0  0
 63146  1  0  0  0
 64147  1  0  0  0
 65148  1  0  0  0
 68 83  1  0  0  0
 71 73  2  0  0  0
 71 76  1  0  0  0
 71149  1  0  0  0
 72 74  1  0  0  0
 72 75  2  0  0  0
 72150  1  0  0  0
 73 75  1  0  0  0
 73 84  1  0  0  0
 74 76  2  0  0  0
 74 85  1  0  0  0
 75 88  1  0  0  0
 76 89  1  0  0  0
 77 78  1  0  0  0
 77 85  1  0  0  0
 77 87  2  0  0  0
 78 83  1  0  0  0
 78151  1  0  0  0
 78152  1  0  0  0
 79 83  1  0  0  0
 79 85  1  0  0  0
 79153  1  0  0  0
 79154  1  0  0  0
 80 82  1  0  0  0
 80 86  1  0  0  0
 80155  1  0  0  0
 80156  1  0  0  0
 81 82  1  0  0  0
 81 86  1  0  0  0
 81157  1  0  0  0
 81158  1  0  0  0
 82159  1  0  0  0
 83160  1  0  0  0
 84161  1  0  0  0
 84162  1  0  0  0
 84 86  1  0  0  0
 86163  1  0  0  0
M  CHG  1  86   1
M  ISO  4   1 100  68 101  82 100  83 101
M  END
> <chiral flag>
0

> <version>
0

> <s_m_source_file>
/data/baiqing/PycharmProjects/Reinvent-master-3.2/result/LINK_invent/BTK/process_docking_weight1_custom_product_contain_oxygen_bond_distance_aromatic_linkinvent_7_9_3/rearranged_h_0024.sdf

> <i_m_source_file_index>
31

> <r_mmod_Potential_Energy-OPLS-2005>
-235.848754882812

> <r_mmod_Stretch_Energy-OPLS-2005>
34.8150215148926

> <r_mmod_Bend_Energy-OPLS-2005>
130.518844604492

> <r_mmod_Torsional_Energy-OPLS-2005>
258.073150634766

> <r_mmod_Improper_Torsional_Energy-OPLS-2005>
2.33327221870422

> <r_mmod_Van_der_Waal_Energy-OPLS-2005>
147.751907348633

> <r_mmod_Electrostatic_Energy-OPLS-2005>
-355.874908447266

> <r_mmod_Solvation_Energy-OPLS-2005>
-461.792419433594

> <b_mmod_Minimization_Converged-OPLS-2005>
0

> <r_mmod_RMS_Derivative-OPLS-2005>
2.29739785194397

$$$$
31
                    3D
 Structure written by MMmdl.
156165  0  0  1  0            999 V2000
  -30.5221  -14.8969   20.4389 C   0  0  0  0  0  0
  -30.4459  -12.5504   19.4949 C   0  0  0  0  0  0
  -29.5236  -12.5402   18.2518 C   0  0  0  0  0  0
  -28.0513  -12.3348   18.6601 C   0  0  0  0  0  0
  -27.6375  -13.2412   19.8496 C   0  0  2  0  0  0
  -28.6799  -13.2113   20.9888 C   0  0  0  0  0  0
  -25.2488  -13.8199   20.5705 C   0  0  0  0  0  0
  -24.1791  -13.0432   20.9208 C   0  0  0  0  0  0
  -24.6393  -11.6913   20.8733 C   0  0  0  0  0  0
  -23.9072  -10.4292   21.0400 C   0  0  0  0  0  0
  -24.3624   -9.4207   21.9180 C   0  0  0  0  0  0
  -23.6294   -8.2244   22.0753 C   0  0  0  0  0  0
  -22.4274   -8.0280   21.3541 C   0  0  0  0  0  0
  -21.9910   -9.0255   20.4644 C   0  0  0  0  0  0
  -22.7240  -10.2134   20.3053 C   0  0  0  0  0  0
  -21.6851   -6.0733   22.5278 C   0  0  0  0  0  0
  -21.4016   -6.5639   23.8213 C   0  0  0  0  0  0
  -21.3661   -5.6792   24.9175 C   0  0  0  0  0  0
  -21.6048   -4.3054   24.7223 C   0  0  0  0  0  0
  -21.8817   -3.8142   23.4343 C   0  0  0  0  0  0
  -21.9192   -4.6961   22.3399 C   0  0  0  0  0  0
  -22.7812  -13.5208   21.1873 C   0  0  0  0  0  0
  -22.1662   -4.2148   21.0976 F   0  0  0  0  0  0
  -21.5630   -3.4538   25.7734 F   0  0  0  0  0  0
  -29.9670  -13.6220   20.4103 N   0  0  0  0  0  0
  -26.2914  -12.9421   20.3264 N   0  0  0  0  0  0
  -25.9326  -11.6552   20.5726 N   0  0  0  0  0  0
  -22.0470  -12.8202   22.0435 N   0  0  0  0  0  0
  -25.4170  -15.1932   20.4153 N   0  0  0  0  0  0
  -31.7026  -15.0264   20.0960 O   0  0  0  0  0  0
  -21.6638   -6.8874   21.4238 O   0  0  0  0  0  0
  -22.3496  -14.5517   20.6723 O   0  0  0  0  0  0
  -24.6425  -31.8467   23.1909 C   0  0  0  0  0  0
  -25.9212  -32.4699   23.8289 C   0  0  1  0  0  0
  -27.2112  -27.1537   20.1391 C   0  0  0  0  0  0
  -25.5973  -33.8505   24.2209 N   0  0  0  0  0  0
  -23.4437  -30.4681   21.5366 C   0  0  2  0  0  0
  -24.8915  -28.9009   20.1057 C   0  0  0  0  0  0
  -22.7561  -29.4564   22.4874 C   0  0  0  0  0  0
  -18.0317  -28.1388   22.8459 C   0  0  0  0  0  0
  -24.1494  -36.7260   23.2638 C   0  0  0  0  0  0
  -25.9983  -30.7220   21.3906 C   0  0  0  0  0  0
  -26.0664  -29.3359   20.7311 C   0  0  0  0  0  0
  -27.2245  -28.4745   20.7390 C   0  0  0  0  0  0
  -26.0195  -26.8321   19.4501 C   0  0  0  0  0  0
  -24.8804  -27.6626   19.4498 C   0  0  0  0  0  0
  -23.6672  -29.8008   20.1539 C   0  0  0  0  0  0
  -25.4124  -36.3034   24.0317 C   0  0  1  0  0  0
  -20.5921  -28.3723   23.1229 C   0  0  2  0  0  0
  -20.6827  -26.9436   22.5366 C   0  0  0  0  0  0
  -19.5778  -26.6338   21.5212 C   0  0  0  0  0  0
  -18.1945  -26.7931   22.1590 C   0  0  0  0  0  0
  -19.1566  -28.8865   23.2846 C   0  0  0  0  0  0
  -18.9477  -30.1453   23.8886 C   0  0  0  0  0  0
  -17.6469  -30.6575   24.0561 C   0  0  0  0  0  0
  -25.9080  -34.9408   23.5068 C   0  0  0  0  0  0
  -16.5366  -29.9070   23.6319 C   0  0  0  0  0  0
  -16.7302  -28.6493   23.0334 C   0  0  0  0  0  0
  -26.4536  -31.6553   25.0720 C   0  0  0  0  0  0
  -25.3717  -31.3748   26.1412 C   0  0  0  0  0  0
  -27.0400  -30.2950   24.6294 C   0  0  0  0  0  0
  -27.6064  -32.4315   25.7501 C   0  0  0  0  0  0
  -27.5575  -37.1793   24.8465 C   0  0  0  0  0  0
  -21.4252  -29.3083   22.3640 N   0  0  0  0  0  0
  -26.4290  -37.3746   23.9404 N   0  0  0  0  0  0
  -24.7144  -31.0332   22.0942 N   0  0  0  0  0  0
  -23.4222  -28.8087   23.2993 O   0  0  0  0  0  0
  -28.2606  -26.1718   20.2384 O   0  0  0  0  0  0
  -26.5655  -34.8904   22.4639 O   0  0  0  0  0  0
  -23.5552  -32.1353   23.7137 O   0  0  0  0  0  0
  -29.5997  -19.9256   21.3663 C   0  0  0  0  0  0
  -29.9094  -18.5055   21.4998 C   0  0  0  0  0  0
  -29.0874  -18.1093   19.3281 C   0  0  0  0  0  0
  -28.9795  -20.5166   20.2126 C   0  0  0  0  0  0
  -29.6634  -17.5067   20.4918 C   0  0  0  0  0  0
  -28.7645  -19.5175   19.1953 C   0  0  0  0  0  0
  -26.9878  -22.3775   21.9471 C   0  0  0  0  0  0
  -28.2500  -23.2498   22.0354 C   0  0  0  0  0  0
  -27.0137  -21.7667   20.5369 C   0  0  0  0  0  0
  -28.7577  -23.3075   20.5922 C   0  0  2  0  0  0
  -28.0459  -24.6722   19.8971 C   0  0  0  0  0  0
  -28.3946  -21.8854   20.0758 N   0  0  0  0  0  0
  -29.6830  -15.9970   20.7294 N   0  0  0  0  0  0
  -28.1591  -19.9068   18.0458 F   0  0  0  0  0  0
  -31.4824  -12.7075   19.1927 H   0  0  0  0  0  0
  -30.4268  -11.5819   19.9966 H   0  0  0  0  0  0
  -29.8328  -11.7622   17.5528 H   0  0  0  0  0  0
  -29.6232  -13.4861   17.7171 H   0  0  0  0  0  0
  -27.9257  -11.2866   18.9324 H   0  0  0  0  0  0
  -27.3949  -12.5071   17.8063 H   0  0  0  0  0  0
  -27.6169  -14.2567   19.4522 H   0  0  0  0  0  0
  -28.7491  -12.2143   21.4270 H   0  0  0  0  0  0
  -28.3853  -13.8783   21.7999 H   0  0  0  0  0  0
  -25.2774   -9.5681   22.4747 H   0  0  0  0  0  0
  -24.0003   -7.4636   22.7474 H   0  0  0  0  0  0
  -21.0838   -8.8771   19.8953 H   0  0  0  0  0  0
  -22.3696  -10.9670   19.6158 H   0  0  0  0  0  0
  -21.2010   -7.6148   23.9712 H   0  0  0  0  0  0
  -21.1487   -6.0526   25.9081 H   0  0  0  0  0  0
  -22.0592   -2.7603   23.2845 H   0  0  0  0  0  0
  -22.4101  -11.9866   22.4818 H   0  0  0  0  0  0
  -21.1089  -13.1221   22.2648 H   0  0  0  0  0  0
  -24.6459  -15.8424   20.5279 H   0  0  0  0  0  0
  -26.2569  -15.6359   20.0669 H   0  0  0  0  0  0
  -26.7265  -32.5311   23.1003 H   0  0  0  0  0  0
  -25.0100  -33.9621   25.0343 H   0  0  0  0  0  0
  -22.7447  -31.2940   21.3855 H   0  0  0  0  0  0
  -23.3759  -35.9589   23.3292 H   0  0  0  0  0  0
  -24.3583  -36.8905   22.2057 H   0  0  0  0  0  0
  -23.7257  -37.6457   23.6678 H   0  0  0  0  0  0
  -26.1539  -31.4764   20.6182 H   0  0  0  0  0  0
  -26.8694  -30.7703   22.0322 H   0  0  0  0  0  0
  -28.1136  -28.7960   21.2623 H   0  0  0  0  0  0
  -25.9262  -25.9025   18.9103 H   0  0  0  0  0  0
  -23.9887  -27.3331   18.9337 H   0  0  0  0  0  0
  -23.8000  -30.5766   19.3994 H   0  0  0  0  0  0
  -22.7820  -29.2421   19.8451 H   0  0  0  0  0  0
  -25.1308  -36.1862   25.0811 H   0  0  0  0  0  0
  -20.9999  -28.3291   24.1355 H   0  0  0  0  0  0
  -20.5798  -26.2330   23.3581 H   0  0  0  0  0  0
  -21.6679  -26.7491   22.1108 H   0  0  0  0  0  0
  -19.6938  -25.6216   21.1318 H   0  0  0  0  0  0
  -19.6705  -27.3071   20.6684 H   0  0  0  0  0  0
  -17.4240  -26.6739   21.3953 H   0  0  0  0  0  0
  -18.0284  -26.0054   22.8952 H   0  0  0  0  0  0
  -19.7949  -30.7265   24.2274 H   0  0  0  0  0  0
  -17.5025  -31.6236   24.5200 H   0  0  0  0  0  0
  -15.5362  -30.2956   23.7649 H   0  0  0  0  0  0
  -15.8718  -28.0795   22.7036 H   0  0  0  0  0  0
  -24.5905  -30.7079   25.7742 H   0  0  0  0  0  0
  -24.8891  -32.2930   26.4767 H   0  0  0  0  0  0
  -25.8001  -30.8979   27.0236 H   0  0  0  0  0  0
  -26.3024  -29.6667   24.1291 H   0  0  0  0  0  0
  -27.4007  -29.7247   25.4865 H   0  0  0  0  0  0
  -27.8926  -30.4184   23.9613 H   0  0  0  0  0  0
  -27.2658  -33.3635   26.2020 H   0  0  0  0  0  0
  -28.3902  -32.6851   25.0347 H   0  0  0  0  0  0
  -28.0695  -31.8483   26.5471 H   0  0  0  0  0  0
  -28.2584  -38.0093   24.7497 H   0  0  0  0  0  0
  -28.1083  -36.2628   24.6302 H   0  0  0  0  0  0
  -27.2295  -37.1440   25.8868 H   0  0  0  0  0  0
  -20.9462  -29.8870   21.6881 H   0  0  0  0  0  0
  -26.0160  -38.2816   24.1396 H   0  0  0  0  0  0
  -29.7809  -20.5571   22.2224 H   0  0  0  0  0  0
  -30.2993  -18.1738   22.4519 H   0  0  0  0  0  0
  -28.8081  -17.4646   18.5084 H   0  0  0  0  0  0
  -26.0767  -22.9580   22.0962 H   0  0  0  0  0  0
  -27.0118  -21.5989   22.7115 H   0  0  0  0  0  0
  -28.9909  -22.7731   22.6773 H   0  0  0  0  0  0
  -28.0493  -24.2386   22.4519 H   0  0  0  0  0  0
  -26.3622  -22.3252   19.8634 H   0  0  0  0  0  0
  -26.6275  -20.7446   20.5489 H   0  0  0  0  0  0
  -29.8419  -23.4308   20.5755 H   0  0  0  0  0  0
  -28.2231  -24.6042   18.8238 H   0  0  0  0  0  0
  -26.9814  -24.4891   20.0179 H   0  0  0  0  0  0
  -28.7941  -15.6553   21.0630 H   0  0  0  0  0  0
  1 25  1  0  0  0
  1 30  2  0  0  0
  1 83  1  0  0  0
  2  3  1  0  0  0
  2 25  1  0  0  0
  2 85  1  0  0  0
  2 86  1  0  0  0
  3  4  1  0  0  0
  3 87  1  0  0  0
  3 88  1  0  0  0
  4  5  1  0  0  0
  4 89  1  0  0  0
  4 90  1  0  0  0
  5  6  1  0  0  0
  5 26  1  0  0  0
  5 91  1  0  0  0
  6 25  1  0  0  0
  6 92  1  0  0  0
  6 93  1  0  0  0
  7  8  2  0  0  0
  7 26  1  0  0  0
  7 29  1  0  0  0
  8  9  1  0  0  0
  8 22  1  0  0  0
  9 10  1  0  0  0
  9 27  2  0  0  0
 10 11  2  0  0  0
 10 15  1  0  0  0
 11 12  1  0  0  0
 11 94  1  0  0  0
 12 13  2  0  0  0
 12 95  1  0  0  0
 13 14  1  0  0  0
 13 31  1  0  0  0
 14 15  2  0  0  0
 14 96  1  0  0  0
 15 97  1  0  0  0
 16 17  2  0  0  0
 16 21  1  0  0  0
 16 31  1  0  0  0
 17 18  1  0  0  0
 17 98  1  0  0  0
 18 19  2  0  0  0
 18 99  1  0  0  0
 19 20  1  0  0  0
 19 24  1  0  0  0
 20 21  2  0  0  0
 20100  1  0  0  0
 21 23  1  0  0  0
 22 28  1  0  0  0
 22 32  2  0  0  0
 26 27  1  0  0  0
 28101  1  0  0  0
 28102  1  0  0  0
 29103  1  0  0  0
 29104  1  0  0  0
 33 34  1  0  0  0
 33 66  1  0  0  0
 33 70  2  0  0  0
 34 36  1  0  0  0
 34 59  1  0  0  0
 34105  1  0  0  0
 35 44  2  0  0  0
 35 45  1  0  0  0
 35 68  1  0  0  0
 36 56  1  0  0  0
 36106  1  0  0  0
 37 39  1  0  0  0
 37 47  1  0  0  0
 37 66  1  0  0  0
 37107  1  0  0  0
 38 43  2  0  0  0
 38 46  1  0  0  0
 38 47  1  0  0  0
 39 64  1  0  0  0
 39 67  2  0  0  0
 40 52  1  0  0  0
 40 53  2  0  0  0
 40 58  1  0  0  0
 41108  1  0  0  0
 41109  1  0  0  0
 41110  1  0  0  0
 41 48  1  0  0  0
 42 43  1  0  0  0
 42 66  1  0  0  0
 42111  1  0  0  0
 42112  1  0  0  0
 43 44  1  0  0  0
 44113  1  0  0  0
 45 46  2  0  0  0
 45114  1  0  0  0
 46115  1  0  0  0
 47116  1  0  0  0
 47117  1  0  0  0
 48 56  1  0  0  0
 48 65  1  0  0  0
 48118  1  0  0  0
 49 50  1  0  0  0
 49 53  1  0  0  0
 49 64  1  0  0  0
 49119  1  0  0  0
 50 51  1  0  0  0
 50120  1  0  0  0
 50121  1  0  0  0
 51 52  1  0  0  0
 51122  1  0  0  0
 51123  1  0  0  0
 52124  1  0  0  0
 52125  1  0  0  0
 53 54  1  0  0  0
 54 55  2  0  0  0
 54126  1  0  0  0
 55 57  1  0  0  0
 55127  1  0  0  0
 56 69  2  0  0  0
 57 58  2  0  0  0
 57128  1  0  0  0
 58129  1  0  0  0
 59 60  1  0  0  0
 59 61  1  0  0  0
 59 62  1  0  0  0
 60130  1  0  0  0
 60131  1  0  0  0
 60132  1  0  0  0
 61133  1  0  0  0
 61134  1  0  0  0
 61135  1  0  0  0
 62136  1  0  0  0
 62137  1  0  0  0
 62138  1  0  0  0
 63 65  1  0  0  0
 63139  1  0  0  0
 63140  1  0  0  0
 63141  1  0  0  0
 64142  1  0  0  0
 65143  1  0  0  0
 68 81  1  0  0  0
 71 72  2  0  0  0
 71 74  1  0  0  0
 71144  1  0  0  0
 72 75  1  0  0  0
 72145  1  0  0  0
 73 75  2  0  0  0
 73 76  1  0  0  0
 73146  1  0  0  0
 74 76  2  0  0  0
 74 82  1  0  0  0
 75 83  1  0  0  0
 76 84  1  0  0  0
 77 78  1  0  0  0
 77 79  1  0  0  0
 77147  1  0  0  0
 77148  1  0  0  0
 78 80  1  0  0  0
 78149  1  0  0  0
 78150  1  0  0  0
 79 82  1  0  0  0
 79151  1  0  0  0
 79152  1  0  0  0
 80 81  1  0  0  0
 80 82  1  0  0  0
 80153  1  0  0  0
 81154  1  0  0  0
 81155  1  0  0  0
 83156  1  0  0  0
M  ISO  4   1 100  68 101  81 101  83 100
M  END
> <chiral flag>
0

> <version>
0

> <s_m_source_file>
/data/baiqing/PycharmProjects/Reinvent-master-3.2/result/LINK_invent/BTK/process_docking_weight1_custom_product_contain_oxygen_bond_distance_aromatic_linkinvent_7_9_3/rearranged_h_0024.sdf

> <i_m_source_file_index>
32

> <r_mmod_Potential_Energy-OPLS-2005>
604.973327636719

> <r_mmod_Stretch_Energy-OPLS-2005>
213.610977172852

> <r_mmod_Bend_Energy-OPLS-2005>
295.256744384766

> <r_mmod_Torsional_Energy-OPLS-2005>
325.764038085938

> <r_mmod_Improper_Torsional_Energy-OPLS-2005>
12.984546661377

> <r_mmod_Van_der_Waal_Energy-OPLS-2005>
134.237396240234

> <r_mmod_Electrostatic_Energy-OPLS-2005>
-322.065826416016

> <r_mmod_Solvation_Energy-OPLS-2005>
-223.904541015625

> <b_mmod_Minimization_Converged-OPLS-2005>
0

> <r_mmod_RMS_Derivative-OPLS-2005>
1.20590484142303

$$$$
32
                    3D
 Structure written by MMmdl.
162171  0  0  1  0            999 V2000
  -30.6789  -14.5684   20.5289 C   0  0  0  0  0  0
  -30.4207  -12.3544   19.4247 C   0  0  0  0  0  0
  -29.4939  -12.5234   18.2026 C   0  0  0  0  0  0
  -28.0171  -12.3754   18.6177 C   0  0  0  0  0  0
  -27.6568  -13.2164   19.8744 C   0  0  2  0  0  0
  -28.7098  -13.0413   20.9937 C   0  0  0  0  0  0
  -25.2494  -13.8173   20.5638 C   0  0  0  0  0  0
  -24.1798  -13.0427   20.9217 C   0  0  0  0  0  0
  -24.6416  -11.6908   20.8766 C   0  0  0  0  0  0
  -23.9116  -10.4278   21.0392 C   0  0  0  0  0  0
  -24.3666   -9.4198   21.9170 C   0  0  0  0  0  0
  -23.6292   -8.2276   22.0773 C   0  0  0  0  0  0
  -22.4266   -8.0303   21.3579 C   0  0  0  0  0  0
  -21.9922   -9.0289   20.4671 C   0  0  0  0  0  0
  -22.7288  -10.2145   20.3048 C   0  0  0  0  0  0
  -21.6862   -6.0736   22.5298 C   0  0  0  0  0  0
  -21.4028   -6.5621   23.8237 C   0  0  0  0  0  0
  -21.3655   -5.6769   24.9192 C   0  0  0  0  0  0
  -21.6031   -4.3031   24.7243 C   0  0  0  0  0  0
  -21.8819   -3.8132   23.4364 C   0  0  0  0  0  0
  -21.9187   -4.6958   22.3420 C   0  0  0  0  0  0
  -22.7779  -13.5185   21.1858 C   0  0  0  0  0  0
  -22.1608   -4.2142   21.0992 F   0  0  0  0  0  0
  -21.5649   -3.4511   25.7765 F   0  0  0  0  0  0
  -30.0229  -13.3728   20.4156 N   0  0  0  0  0  0
  -26.2991  -12.9394   20.3384 N   0  0  0  0  0  0
  -25.9366  -11.6544   20.5848 N   0  0  0  0  0  0
  -22.0420  -12.8224   22.0432 N   0  0  0  0  0  0
  -25.4039  -15.1909   20.3878 N   0  0  0  0  0  0
  -31.8471  -14.7076   20.1622 O   0  0  0  0  0  0
  -21.6640   -6.8899   21.4263 O   0  0  0  0  0  0
  -22.3444  -14.5476   20.6650 O   0  0  0  0  0  0
  -24.6168  -31.8617   23.1998 C   0  0  0  0  0  0
  -25.9080  -32.4751   23.8299 C   0  0  1  0  0  0
  -27.2633  -27.4074   20.0907 C   0  0  0  0  0  0
  -25.5957  -33.8557   24.2267 N   0  0  0  0  0  0
  -23.4060  -30.4815   21.5370 C   0  0  2  0  0  0
  -24.8572  -28.9317   20.1094 C   0  0  0  0  0  0
  -22.7389  -29.4667   22.4953 C   0  0  0  0  0  0
  -18.0274  -28.1453   22.8440 C   0  0  0  0  0  0
  -24.1518  -36.7314   23.2629 C   0  0  0  0  0  0
  -25.9317  -30.8164   21.3501 C   0  0  0  0  0  0
  -26.0095  -29.4407   20.7176 C   0  0  0  0  0  0
  -27.2020  -28.6815   20.7139 C   0  0  0  0  0  0
  -26.0920  -26.9257   19.4625 C   0  0  0  0  0  0
  -24.8973  -27.6762   19.4758 C   0  0  0  0  0  0
  -23.6135  -29.7948   20.1562 C   0  0  0  0  0  0
  -25.4129  -36.3074   24.0329 C   0  0  1  0  0  0
  -20.5841  -28.3763   23.1280 C   0  0  2  0  0  0
  -20.6801  -26.9506   22.5395 C   0  0  0  0  0  0
  -19.5783  -26.6468   21.5193 C   0  0  0  0  0  0
  -18.1943  -26.7989   22.1593 C   0  0  0  0  0  0
  -19.1513  -28.8916   23.2836 C   0  0  0  0  0  0
  -18.9446  -30.1489   23.8899 C   0  0  0  0  0  0
  -17.6453  -30.6627   24.0583 C   0  0  0  0  0  0
  -25.9056  -34.9425   23.5075 C   0  0  0  0  0  0
  -16.5345  -29.9139   23.6336 C   0  0  0  0  0  0
  -16.7249  -28.6565   23.0324 C   0  0  0  0  0  0
  -26.4522  -31.6502   25.0591 C   0  0  0  0  0  0
  -25.3812  -31.3588   26.1346 C   0  0  0  0  0  0
  -27.0280  -30.2921   24.5915 C   0  0  0  0  0  0
  -27.6148  -32.4166   25.7325 C   0  0  0  0  0  0
  -27.5576  -37.1785   24.8467 C   0  0  0  0  0  0
  -21.4119  -29.3097   22.3670 N   0  0  0  0  0  0
  -26.4300  -37.3764   23.9413 N   0  0  0  0  0  0
  -24.6706  -31.0710   22.0886 N   0  0  0  0  0  0
  -23.4127  -28.8236   23.3041 O   0  0  0  0  0  0
  -28.4776  -26.7304   20.1119 O   0  0  0  0  0  0
  -26.5557  -34.8904   22.4608 O   0  0  0  0  0  0
  -23.5370  -32.1385   23.7396 O   0  0  0  0  0  0
  -30.9132  -18.1842   19.1610 C   0  0  0  0  0  0
  -30.9215  -19.2946   18.2990 C   0  0  0  0  0  0
  -30.1850  -18.2193   20.3616 C   0  0  0  0  0  0
  -29.4402  -20.5734   19.8047 C   0  0  0  0  0  0
  -29.4653  -19.4224   20.6809 C   0  0  0  0  0  0
  -30.1855  -20.4599   18.5938 C   0  0  0  0  0  0
  -26.6347  -23.0398   20.6653 C   0  0  0  0  0  0
  -27.4240  -24.0702   21.4737 C   0  0  0  0  0  0
  -27.3748  -21.6857   20.6284 C   0  0  0  0  0  0
  -29.5528  -22.9656   20.5071 C   0  0  0  0  0  0
  -28.7821  -24.3206   20.8049 C   0  0  1  0  0  0
  -30.3549  -17.0149   21.3330 C   0  0  0  0  0  0
  -28.6725  -25.3683   19.6446 C   0  0  0  0  0  0
  -28.7340  -21.7999   20.0806 N   0  0  0  0  0  0
  -29.9331  -15.6335   20.9290 N   0  0  0  0  0  0
  -28.8266  -19.4882   21.8734 F   0  0  0  0  0  0
  -30.2177  -21.7397   17.4250 Cl  0  0  0  0  0  0
  -31.4678  -12.4427   19.1304 H   0  0  0  0  0  0
  -30.3111  -11.3499   19.8381 H   0  0  0  0  0  0
  -29.7400  -11.7888   17.4345 H   0  0  0  0  0  0
  -29.6530  -13.5025   17.7491 H   0  0  0  0  0  0
  -27.8343  -11.3167   18.8089 H   0  0  0  0  0  0
  -27.3650  -12.6415   17.7860 H   0  0  0  0  0  0
  -27.6908  -14.2620   19.5707 H   0  0  0  0  0  0
  -28.7141  -12.0118   21.3590 H   0  0  0  0  0  0
  -28.4802  -13.6634   21.8611 H   0  0  0  0  0  0
  -25.2856   -9.5631   22.4703 H   0  0  0  0  0  0
  -23.9991   -7.4664   22.7478 H   0  0  0  0  0  0
  -21.0873   -8.8847   19.8957 H   0  0  0  0  0  0
  -22.3801  -10.9688   19.6120 H   0  0  0  0  0  0
  -21.2026   -7.6125   23.9750 H   0  0  0  0  0  0
  -21.1455   -6.0487   25.9097 H   0  0  0  0  0  0
  -22.0605   -2.7585   23.2896 H   0  0  0  0  0  0
  -22.4006  -11.9897   22.4881 H   0  0  0  0  0  0
  -21.1032  -13.1263   22.2655 H   0  0  0  0  0  0
  -24.6161  -15.8218   20.4959 H   0  0  0  0  0  0
  -26.2329  -15.6541   20.0360 H   0  0  0  0  0  0
  -26.7115  -32.5481   23.1023 H   0  0  0  0  0  0
  -25.0201  -33.9704   25.0473 H   0  0  0  0  0  0
  -22.7020  -31.3010   21.3798 H   0  0  0  0  0  0
  -23.3753  -35.9671   23.3266 H   0  0  0  0  0  0
  -24.3620  -36.8943   22.2045 H   0  0  0  0  0  0
  -23.7306  -37.6525   23.6673 H   0  0  0  0  0  0
  -26.0152  -31.5596   20.5576 H   0  0  0  0  0  0
  -26.8358  -30.8992   21.9461 H   0  0  0  0  0  0
  -28.0871  -29.0703   21.1983 H   0  0  0  0  0  0
  -26.0920  -25.9819   18.9462 H   0  0  0  0  0  0
  -24.0163  -27.2953   18.9737 H   0  0  0  0  0  0
  -23.7056  -30.5534   19.3778 H   0  0  0  0  0  0
  -22.7457  -29.1938   19.8755 H   0  0  0  0  0  0
  -25.1308  -36.1886   25.0818 H   0  0  0  0  0  0
  -20.9885  -28.3372   24.1425 H   0  0  0  0  0  0
  -20.5799  -26.2371   23.3587 H   0  0  0  0  0  0
  -21.6672  -26.7650   22.1142 H   0  0  0  0  0  0
  -19.7002  -25.6387   21.1222 H   0  0  0  0  0  0
  -19.6737  -27.3286   20.6710 H   0  0  0  0  0  0
  -17.4223  -26.6635   21.4002 H   0  0  0  0  0  0
  -18.0381  -26.0169   22.9034 H   0  0  0  0  0  0
  -19.7934  -30.7255   24.2316 H   0  0  0  0  0  0
  -17.5046  -31.6320   24.5180 H   0  0  0  0  0  0
  -15.5361  -30.3067   23.7718 H   0  0  0  0  0  0
  -15.8617  -28.0925   22.7055 H   0  0  0  0  0  0
  -24.6016  -30.6886   25.7689 H   0  0  0  0  0  0
  -24.8955  -32.2688   26.4856 H   0  0  0  0  0  0
  -25.8184  -30.8712   27.0056 H   0  0  0  0  0  0
  -26.2700  -29.6654   24.1176 H   0  0  0  0  0  0
  -27.4201  -29.7196   25.4334 H   0  0  0  0  0  0
  -27.8528  -30.4184   23.8894 H   0  0  0  0  0  0
  -27.2890  -33.3552   26.1821 H   0  0  0  0  0  0
  -28.4012  -32.6525   25.0133 H   0  0  0  0  0  0
  -28.0728  -31.8259   26.5256 H   0  0  0  0  0  0
  -28.2599  -38.0069   24.7468 H   0  0  0  0  0  0
  -28.1047  -36.2574   24.6362 H   0  0  0  0  0  0
  -27.2261  -37.1550   25.8858 H   0  0  0  0  0  0
  -20.9293  -29.8730   21.6807 H   0  0  0  0  0  0
  -26.0160  -38.2847   24.1353 H   0  0  0  0  0  0
  -31.5058  -17.3133   18.9220 H   0  0  0  0  0  0
  -31.5266  -19.2535   17.4065 H   0  0  0  0  0  0
  -26.4721  -23.4266   19.6583 H   0  0  0  0  0  0
  -25.6457  -22.9121   21.1112 H   0  0  0  0  0  0
  -27.5756  -23.7040   22.4865 H   0  0  0  0  0  0
  -26.8666  -25.0006   21.5855 H   0  0  0  0  0  0
  -26.7946  -21.0029   20.0016 H   0  0  0  0  0  0
  -27.3936  -21.2788   21.6374 H   0  0  0  0  0  0
  -30.0963  -22.6717   21.4069 H   0  0  0  0  0  0
  -30.3241  -23.1477   19.7561 H   0  0  0  0  0  0
  -29.3850  -24.8242   21.5605 H   0  0  0  0  0  0
  -29.8553  -17.2547   22.2715 H   0  0  0  0  0  0
  -31.4166  -16.9778   21.5823 H   0  0  0  0  0  0
  -27.9637  -25.0523   18.8816 H   0  0  0  0  0  0
  -29.6366  -25.3946   19.1324 H   0  0  0  0  0  0
  -28.9747  -15.4015   21.1378 H   0  0  0  0  0  0
  1 25  1  0  0  0
  1 30  2  0  0  0
  1 85  1  0  0  0
  2  3  1  0  0  0
  2 25  1  0  0  0
  2 88  1  0  0  0
  2 89  1  0  0  0
  3  4  1  0  0  0
  3 90  1  0  0  0
  3 91  1  0  0  0
  4  5  1  0  0  0
  4 92  1  0  0  0
  4 93  1  0  0  0
  5  6  1  0  0  0
  5 26  1  0  0  0
  5 94  1  0  0  0
  6 25  1  0  0  0
  6 95  1  0  0  0
  6 96  1  0  0  0
  7  8  2  0  0  0
  7 26  1  0  0  0
  7 29  1  0  0  0
  8  9  1  0  0  0
  8 22  1  0  0  0
  9 10  1  0  0  0
  9 27  2  0  0  0
 10 11  2  0  0  0
 10 15  1  0  0  0
 11 12  1  0  0  0
 11 97  1  0  0  0
 12 13  2  0  0  0
 12 98  1  0  0  0
 13 14  1  0  0  0
 13 31  1  0  0  0
 14 15  2  0  0  0
 14 99  1  0  0  0
 15100  1  0  0  0
 16 17  2  0  0  0
 16 21  1  0  0  0
 16 31  1  0  0  0
 17 18  1  0  0  0
 17101  1  0  0  0
 18 19  2  0  0  0
 18102  1  0  0  0
 19 20  1  0  0  0
 19 24  1  0  0  0
 20 21  2  0  0  0
 20103  1  0  0  0
 21 23  1  0  0  0
 22 28  1  0  0  0
 22 32  2  0  0  0
 26 27  1  0  0  0
 28104  1  0  0  0
 28105  1  0  0  0
 29106  1  0  0  0
 29107  1  0  0  0
 33 34  1  0  0  0
 33 66  1  0  0  0
 33 70  2  0  0  0
 34 36  1  0  0  0
 34 59  1  0  0  0
 34108  1  0  0  0
 35 44  2  0  0  0
 35 45  1  0  0  0
 35 68  1  0  0  0
 36 56  1  0  0  0
 36109  1  0  0  0
 37 39  1  0  0  0
 37 47  1  0  0  0
 37 66  1  0  0  0
 37110  1  0  0  0
 38 43  2  0  0  0
 38 46  1  0  0  0
 38 47  1  0  0  0
 39 64  1  0  0  0
 39 67  2  0  0  0
 40 52  1  0  0  0
 40 53  2  0  0  0
 40 58  1  0  0  0
 41111  1  0  0  0
 41112  1  0  0  0
 41113  1  0  0  0
 41 48  1  0  0  0
 42 43  1  0  0  0
 42 66  1  0  0  0
 42114  1  0  0  0
 42115  1  0  0  0
 43 44  1  0  0  0
 44116  1  0  0  0
 45 46  2  0  0  0
 45117  1  0  0  0
 46118  1  0  0  0
 47119  1  0  0  0
 47120  1  0  0  0
 48 56  1  0  0  0
 48 65  1  0  0  0
 48121  1  0  0  0
 49 50  1  0  0  0
 49 53  1  0  0  0
 49 64  1  0  0  0
 49122  1  0  0  0
 50 51  1  0  0  0
 50123  1  0  0  0
 50124  1  0  0  0
 51 52  1  0  0  0
 51125  1  0  0  0
 51126  1  0  0  0
 52127  1  0  0  0
 52128  1  0  0  0
 53 54  1  0  0  0
 54 55  2  0  0  0
 54129  1  0  0  0
 55 57  1  0  0  0
 55130  1  0  0  0
 56 69  2  0  0  0
 57 58  2  0  0  0
 57131  1  0  0  0
 58132  1  0  0  0
 59 60  1  0  0  0
 59 61  1  0  0  0
 59 62  1  0  0  0
 60133  1  0  0  0
 60134  1  0  0  0
 60135  1  0  0  0
 61136  1  0  0  0
 61137  1  0  0  0
 61138  1  0  0  0
 62139  1  0  0  0
 62140  1  0  0  0
 62141  1  0  0  0
 63 65  1  0  0  0
 63142  1  0  0  0
 63143  1  0  0  0
 63144  1  0  0  0
 64145  1  0  0  0
 65146  1  0  0  0
 68 83  1  0  0  0
 71 72  2  0  0  0
 71 73  1  0  0  0
 71147  1  0  0  0
 72 76  1  0  0  0
 72148  1  0  0  0
 73 75  2  0  0  0
 73 82  1  0  0  0
 74 75  1  0  0  0
 74 76  2  0  0  0
 74 84  1  0  0  0
 75 86  1  0  0  0
 76 87  1  0  0  0
 77 78  1  0  0  0
 77 79  1  0  0  0
 77149  1  0  0  0
 77150  1  0  0  0
 78 81  1  0  0  0
 78151  1  0  0  0
 78152  1  0  0  0
 79 84  1  0  0  0
 79153  1  0  0  0
 79154  1  0  0  0
 80 81  1  0  0  0
 80 84  1  0  0  0
 80155  1  0  0  0
 80156  1  0  0  0
 81 83  1  0  0  0
 81157  1  0  0  0
 82 85  1  0  0  0
 82158  1  0  0  0
 82159  1  0  0  0
 83160  1  0  0  0
 83161  1  0  0  0
 85162  1  0  0  0
M  ISO  4   1 100  68 101  83 101  85 100
M  END
> <chiral flag>
0

> <version>
0

> <s_m_source_file>
/data/baiqing/PycharmProjects/Reinvent-master-3.2/result/LINK_invent/BTK/process_docking_weight1_custom_product_contain_oxygen_bond_distance_aromatic_linkinvent_7_9_3/rearranged_h_0024.sdf

> <i_m_source_file_index>
33

> <r_mmod_Potential_Energy-OPLS-2005>
122.547958374023

> <r_mmod_Stretch_Energy-OPLS-2005>
66.1703948974609

> <r_mmod_Bend_Energy-OPLS-2005>
148.349273681641

> <r_mmod_Torsional_Energy-OPLS-2005>
262.493835449219

> <r_mmod_Improper_Torsional_Energy-OPLS-2005>
6.67574977874756

> <r_mmod_Van_der_Waal_Energy-OPLS-2005>
141.932495117188

> <r_mmod_Electrostatic_Energy-OPLS-2005>
-322.112762451172

> <r_mmod_Solvation_Energy-OPLS-2005>
-205.529159545898

> <b_mmod_Minimization_Converged-OPLS-2005>
0

> <r_mmod_RMS_Derivative-OPLS-2005>
7.24511098861694

$$$$
33
                    3D
 Structure written by MMmdl.
160169  0  0  1  0            999 V2000
  -30.5725  -14.7003   20.4810 C   0  0  0  0  0  0
  -30.4545  -12.4259   19.4686 C   0  0  0  0  0  0
  -29.5185  -12.5044   18.2384 C   0  0  0  0  0  0
  -28.0419  -12.3217   18.6480 C   0  0  0  0  0  0
  -27.6514  -13.2079   19.8596 C   0  0  2  0  0  0
  -28.6959  -13.0754   20.9925 C   0  0  0  0  0  0
  -25.2581  -13.8128   20.5663 C   0  0  0  0  0  0
  -24.1837  -13.0428   20.9215 C   0  0  0  0  0  0
  -24.6388  -11.6896   20.8771 C   0  0  0  0  0  0
  -23.9058  -10.4290   21.0438 C   0  0  0  0  0  0
  -24.3618   -9.4200   21.9203 C   0  0  0  0  0  0
  -23.6297   -8.2234   22.0748 C   0  0  0  0  0  0
  -22.4279   -8.0285   21.3538 C   0  0  0  0  0  0
  -21.9924   -9.0260   20.4641 C   0  0  0  0  0  0
  -22.7247  -10.2140   20.3066 C   0  0  0  0  0  0
  -21.6832   -6.0756   22.5292 C   0  0  0  0  0  0
  -21.4000   -6.5651   23.8232 C   0  0  0  0  0  0
  -21.3652   -5.6797   24.9191 C   0  0  0  0  0  0
  -21.6043   -4.3059   24.7231 C   0  0  0  0  0  0
  -21.8815   -3.8162   23.4344 C   0  0  0  0  0  0
  -21.9182   -4.6986   22.3408 C   0  0  0  0  0  0
  -22.7865  -13.5255   21.1838 C   0  0  0  0  0  0
  -22.1653   -4.2178   21.0981 F   0  0  0  0  0  0
  -21.5628   -3.4538   25.7737 F   0  0  0  0  0  0
  -30.0058  -13.4493   20.4334 N   0  0  0  0  0  0
  -26.2977  -12.9281   20.3286 N   0  0  0  0  0  0
  -25.9304  -11.6458   20.5767 N   0  0  0  0  0  0
  -22.0475  -12.8264   22.0381 N   0  0  0  0  0  0
  -25.4339  -15.1825   20.4013 N   0  0  0  0  0  0
  -31.7416  -14.8831   20.1258 O   0  0  0  0  0  0
  -21.6626   -6.8897   21.4251 O   0  0  0  0  0  0
  -22.3571  -14.5553   20.6659 O   0  0  0  0  0  0
  -24.6293  -31.8557   23.2014 C   0  0  0  0  0  0
  -25.9143  -32.4756   23.8334 C   0  0  1  0  0  0
  -27.2238  -27.2936   20.1154 C   0  0  0  0  0  0
  -25.5963  -33.8558   24.2287 N   0  0  0  0  0  0
  -23.4206  -30.4823   21.5429 C   0  0  2  0  0  0
  -24.8678  -28.9247   20.1138 C   0  0  0  0  0  0
  -22.7468  -29.4632   22.4921 C   0  0  0  0  0  0
  -18.0306  -28.1375   22.8492 C   0  0  0  0  0  0
  -24.1481  -36.7271   23.2640 C   0  0  0  0  0  0
  -25.9647  -30.7776   21.3746 C   0  0  0  0  0  0
  -26.0365  -29.4037   20.7148 C   0  0  0  0  0  0
  -27.2153  -28.5999   20.7023 C   0  0  0  0  0  0
  -26.0268  -26.8594   19.5065 C   0  0  0  0  0  0
  -24.8648  -27.6598   19.5021 C   0  0  0  0  0  0
  -23.6365  -29.8098   20.1605 C   0  0  0  0  0  0
  -25.4107  -36.3074   24.0338 C   0  0  1  0  0  0
  -20.5901  -28.3696   23.1278 C   0  0  2  0  0  0
  -20.6791  -26.9410   22.5411 C   0  0  0  0  0  0
  -19.5776  -26.6386   21.5209 C   0  0  0  0  0  0
  -18.1955  -26.7940   22.1606 C   0  0  0  0  0  0
  -19.1547  -28.8853   23.2891 C   0  0  0  0  0  0
  -18.9472  -30.1460   23.8900 C   0  0  0  0  0  0
  -17.6463  -30.6593   24.0569 C   0  0  0  0  0  0
  -25.9047  -34.9442   23.5110 C   0  0  0  0  0  0
  -16.5364  -29.9078   23.6337 C   0  0  0  0  0  0
  -16.7286  -28.6490   23.0373 C   0  0  0  0  0  0
  -26.4536  -31.6577   25.0714 C   0  0  0  0  0  0
  -25.3783  -31.3688   26.1450 C   0  0  0  0  0  0
  -27.0408  -30.3020   24.6179 C   0  0  0  0  0  0
  -27.6109  -32.4309   25.7474 C   0  0  0  0  0  0
  -27.5582  -37.1788   24.8472 C   0  0  0  0  0  0
  -21.4180  -29.3050   22.3656 N   0  0  0  0  0  0
  -26.4279  -37.3787   23.9430 N   0  0  0  0  0  0
  -24.6904  -31.0539   22.0974 N   0  0  0  0  0  0
  -23.4189  -28.8166   23.2996 O   0  0  0  0  0  0
  -28.3716  -26.4845   20.1570 O   0  0  0  0  0  0
  -26.5598  -34.8916   22.4667 O   0  0  0  0  0  0
  -23.5456  -32.1355   23.7343 O   0  0  0  0  0  0
  -30.6073  -19.4736   20.2363 C   0  0  0  0  0  0
  -30.7710  -18.0529   20.3796 C   0  0  0  0  0  0
  -28.3917  -17.8404   20.5510 C   0  0  0  0  0  0
  -29.3332  -20.1267   20.2331 C   0  0  0  0  0  0
  -29.6580  -17.1851   20.5535 C   0  0  0  0  0  0
  -28.2264  -19.2505   20.3773 C   0  0  0  0  0  0
  -28.2288  -23.3043   23.2658 C   0  0  0  0  0  0
  -28.5647  -24.4748   22.3514 C   0  0  0  0  0  0
  -28.5299  -22.0861   22.3865 C   0  0  0  0  0  0
  -28.0357  -24.0074   20.9918 C   0  0  2  0  0  0
  -29.1582  -21.7003   20.0108 C   0  0  0  0  0  0
  -28.4098  -25.0261   19.8263 C   0  0  0  0  0  0
  -29.6990  -15.7249   20.7799 N   0  0  0  0  0  0
  -28.2652  -22.4719   20.9742 N   0  3  1  0  0  0
  -26.9769  -19.7739   20.3615 F   0  0  0  0  0  0
  -31.4935  -12.5755   19.1676 H   0  0  0  0  0  0
  -30.4195  -11.4366   19.9279 H   0  0  0  0  0  0
  -29.7981  -11.7487   17.5031 H   0  0  0  0  0  0
  -29.6404  -13.4706   17.7459 H   0  0  0  0  0  0
  -27.8981  -11.2700   18.9021 H   0  0  0  0  0  0
  -27.3831  -12.5190   17.8014 H   0  0  0  0  0  0
  -27.6628  -14.2377   19.5009 H   0  0  0  0  0  0
  -28.7229  -12.0484   21.3626 H   0  0  0  0  0  0
  -28.4309  -13.6920   21.8533 H   0  0  0  0  0  0
  -25.2762   -9.5660   22.4791 H   0  0  0  0  0  0
  -24.0001   -7.4604   22.7441 H   0  0  0  0  0  0
  -21.0868   -8.8791   19.8925 H   0  0  0  0  0  0
  -22.3726  -10.9697   19.6179 H   0  0  0  0  0  0
  -21.1989   -7.6159   23.9750 H   0  0  0  0  0  0
  -21.1471   -6.0521   25.9097 H   0  0  0  0  0  0
  -22.0596   -2.7626   23.2836 H   0  0  0  0  0  0
  -22.4094  -11.9966   22.4837 H   0  0  0  0  0  0
  -21.1077  -13.1287   22.2511 H   0  0  0  0  0  0
  -24.6576  -15.8313   20.4806 H   0  0  0  0  0  0
  -26.2496  -15.5903   19.9646 H   0  0  0  0  0  0
  -26.7196  -32.5428   23.1062 H   0  0  0  0  0  0
  -25.0238  -33.9692   25.0524 H   0  0  0  0  0  0
  -22.7200  -31.3083   21.3978 H   0  0  0  0  0  0
  -23.3757  -35.9591   23.3316 H   0  0  0  0  0  0
  -24.3578  -36.8869   22.2052 H   0  0  0  0  0  0
  -23.7197  -37.6464   23.6640 H   0  0  0  0  0  0
  -26.1054  -31.5404   20.6080 H   0  0  0  0  0  0
  -26.8425  -30.8227   22.0069 H   0  0  0  0  0  0
  -28.1150  -28.9645   21.1773 H   0  0  0  0  0  0
  -25.9565  -25.8876   19.0430 H   0  0  0  0  0  0
  -23.9624  -27.2876   19.0375 H   0  0  0  0  0  0
  -23.7618  -30.5840   19.4038 H   0  0  0  0  0  0
  -22.7540  -29.2443   19.8548 H   0  0  0  0  0  0
  -25.1276  -36.1925   25.0829 H   0  0  0  0  0  0
  -21.0031  -28.3280   24.1382 H   0  0  0  0  0  0
  -20.5690  -26.2289   23.3599 H   0  0  0  0  0  0
  -21.6662  -26.7436   22.1206 H   0  0  0  0  0  0
  -19.6933  -25.6293   21.1243 H   0  0  0  0  0  0
  -19.6741  -27.3196   20.6745 H   0  0  0  0  0  0
  -17.4229  -26.6742   21.3993 H   0  0  0  0  0  0
  -18.0334  -26.0053   22.8961 H   0  0  0  0  0  0
  -19.7943  -30.7295   24.2260 H   0  0  0  0  0  0
  -17.5015  -31.6275   24.5163 H   0  0  0  0  0  0
  -15.5362  -30.2979   23.7658 H   0  0  0  0  0  0
  -15.8693  -28.0803   22.7095 H   0  0  0  0  0  0
  -24.5994  -30.6986   25.7790 H   0  0  0  0  0  0
  -24.8925  -32.2830   26.4873 H   0  0  0  0  0  0
  -25.8134  -30.8885   27.0225 H   0  0  0  0  0  0
  -26.2984  -29.6724   24.1256 H   0  0  0  0  0  0
  -27.4203  -29.7320   25.4667 H   0  0  0  0  0  0
  -27.8811  -30.4346   23.9358 H   0  0  0  0  0  0
  -27.2764  -33.3639   26.2027 H   0  0  0  0  0  0
  -28.3934  -32.6822   25.0299 H   0  0  0  0  0  0
  -28.0772  -31.8439   26.5398 H   0  0  0  0  0  0
  -28.2595  -38.0097   24.7564 H   0  0  0  0  0  0
  -28.1085  -36.2634   24.6243 H   0  0  0  0  0  0
  -27.2318  -37.1375   25.8881 H   0  0  0  0  0  0
  -20.9340  -29.8704   21.6812 H   0  0  0  0  0  0
  -26.0160  -38.2860   24.1461 H   0  0  0  0  0  0
  -31.4985  -20.0726   20.1156 H   0  0  0  0  0  0
  -31.7697  -17.6365   20.3664 H   0  0  0  0  0  0
  -27.4999  -17.2498   20.6852 H   0  0  0  0  0  0
  -27.1709  -23.3362   23.5356 H   0  0  0  0  0  0
  -28.8038  -23.3095   24.1933 H   0  0  0  0  0  0
  -29.6440  -24.6297   22.3123 H   0  0  0  0  0  0
  -28.1038  -25.4087   22.6771 H   0  0  0  0  0  0
  -27.9440  -21.2123   22.6745 H   0  0  0  0  0  0
  -29.5822  -21.8205   22.5078 H   0  0  0  0  0  0
  -26.9496  -24.0915   21.0698 H   0  0  0  0  0  0
  -28.7698  -21.8513   19.0030 H   0  0  0  0  0  0
  -30.1452  -22.1616   20.0166 H   0  0  0  0  0  0
  -27.8282  -24.8028   18.9325 H   0  0  0  0  0  0
  -29.4438  -24.8324   19.5399 H   0  0  0  0  0  0
  -28.8123  -15.3462   21.0720 H   0  0  0  0  0  0
  -27.3509  -22.0907   20.7742 H   0  0  0  0  0  0
  1 25  1  0  0  0
  1 30  2  0  0  0
  1 83  1  0  0  0
  2  3  1  0  0  0
  2 25  1  0  0  0
  2 86  1  0  0  0
  2 87  1  0  0  0
  3  4  1  0  0  0
  3 88  1  0  0  0
  3 89  1  0  0  0
  4  5  1  0  0  0
  4 90  1  0  0  0
  4 91  1  0  0  0
  5  6  1  0  0  0
  5 26  1  0  0  0
  5 92  1  0  0  0
  6 25  1  0  0  0
  6 93  1  0  0  0
  6 94  1  0  0  0
  7  8  2  0  0  0
  7 26  1  0  0  0
  7 29  1  0  0  0
  8  9  1  0  0  0
  8 22  1  0  0  0
  9 10  1  0  0  0
  9 27  2  0  0  0
 10 11  2  0  0  0
 10 15  1  0  0  0
 11 12  1  0  0  0
 11 95  1  0  0  0
 12 13  2  0  0  0
 12 96  1  0  0  0
 13 14  1  0  0  0
 13 31  1  0  0  0
 14 15  2  0  0  0
 14 97  1  0  0  0
 15 98  1  0  0  0
 16 17  2  0  0  0
 16 21  1  0  0  0
 16 31  1  0  0  0
 17 18  1  0  0  0
 17 99  1  0  0  0
 18 19  2  0  0  0
 18100  1  0  0  0
 19 20  1  0  0  0
 19 24  1  0  0  0
 20 21  2  0  0  0
 20101  1  0  0  0
 21 23  1  0  0  0
 22 28  1  0  0  0
 22 32  2  0  0  0
 26 27  1  0  0  0
 28102  1  0  0  0
 28103  1  0  0  0
 29104  1  0  0  0
 29105  1  0  0  0
 33 34  1  0  0  0
 33 66  1  0  0  0
 33 70  2  0  0  0
 34 36  1  0  0  0
 34 59  1  0  0  0
 34106  1  0  0  0
 35 44  2  0  0  0
 35 45  1  0  0  0
 35 68  1  0  0  0
 36 56  1  0  0  0
 36107  1  0  0  0
 37 39  1  0  0  0
 37 47  1  0  0  0
 37 66  1  0  0  0
 37108  1  0  0  0
 38 43  2  0  0  0
 38 46  1  0  0  0
 38 47  1  0  0  0
 39 64  1  0  0  0
 39 67  2  0  0  0
 40 52  1  0  0  0
 40 53  2  0  0  0
 40 58  1  0  0  0
 41109  1  0  0  0
 41110  1  0  0  0
 41111  1  0  0  0
 41 48  1  0  0  0
 42 43  1  0  0  0
 42 66  1  0  0  0
 42112  1  0  0  0
 42113  1  0  0  0
 43 44  1  0  0  0
 44114  1  0  0  0
 45 46  2  0  0  0
 45115  1  0  0  0
 46116  1  0  0  0
 47117  1  0  0  0
 47118  1  0  0  0
 48 56  1  0  0  0
 48 65  1  0  0  0
 48119  1  0  0  0
 49 50  1  0  0  0
 49 53  1  0  0  0
 49 64  1  0  0  0
 49120  1  0  0  0
 50 51  1  0  0  0
 50121  1  0  0  0
 50122  1  0  0  0
 51 52  1  0  0  0
 51123  1  0  0  0
 51124  1  0  0  0
 52125  1  0  0  0
 52126  1  0  0  0
 53 54  1  0  0  0
 54 55  2  0  0  0
 54127  1  0  0  0
 55 57  1  0  0  0
 55128  1  0  0  0
 56 69  2  0  0  0
 57 58  2  0  0  0
 57129  1  0  0  0
 58130  1  0  0  0
 59 60  1  0  0  0
 59 61  1  0  0  0
 59 62  1  0  0  0
 60131  1  0  0  0
 60132  1  0  0  0
 60133  1  0  0  0
 61134  1  0  0  0
 61135  1  0  0  0
 61136  1  0  0  0
 62137  1  0  0  0
 62138  1  0  0  0
 62139  1  0  0  0
 63 65  1  0  0  0
 63140  1  0  0  0
 63141  1  0  0  0
 63142  1  0  0  0
 64143  1  0  0  0
 65144  1  0  0  0
 68 82  1  0  0  0
 71 72  2  0  0  0
 71 74  1  0  0  0
 71145  1  0  0  0
 72 75  1  0  0  0
 72146  1  0  0  0
 73 75  2  0  0  0
 73 76  1  0  0  0
 73147  1  0  0  0
 74 76  2  0  0  0
 74 81  1  0  0  0
 75 83  1  0  0  0
 76 85  1  0  0  0
 77 78  1  0  0  0
 77 79  1  0  0  0
 77148  1  0  0  0
 77149  1  0  0  0
 78 80  1  0  0  0
 78150  1  0  0  0
 78151  1  0  0  0
 79 84  1  0  0  0
 79152  1  0  0  0
 79153  1  0  0  0
 80 82  1  0  0  0
 80 84  1  0  0  0
 80154  1  0  0  0
 81155  1  0  0  0
 81156  1  0  0  0
 81 84  1  0  0  0
 82157  1  0  0  0
 82158  1  0  0  0
 83159  1  0  0  0
 84160  1  0  0  0
M  CHG  1  84   1
M  ISO  4   1 100  68 101  82 101  83 100
M  END
> <chiral flag>
0

> <version>
0

> <s_m_source_file>
/data/baiqing/PycharmProjects/Reinvent-master-3.2/result/LINK_invent/BTK/process_docking_weight1_custom_product_contain_oxygen_bond_distance_aromatic_linkinvent_7_9_3/rearranged_h_0024.sdf

> <i_m_source_file_index>
34

> <r_mmod_Potential_Energy-OPLS-2005>
124.785499572754

> <r_mmod_Stretch_Energy-OPLS-2005>
100.896148681641

> <r_mmod_Bend_Energy-OPLS-2005>
223.621810913086

> <r_mmod_Torsional_Energy-OPLS-2005>
264.920715332031

> <r_mmod_Improper_Torsional_Energy-OPLS-2005>
5.09462594985962

> <r_mmod_Van_der_Waal_Energy-OPLS-2005>
127.194831848145

> <r_mmod_Electrostatic_Energy-OPLS-2005>
-240.901901245117

> <r_mmod_Solvation_Energy-OPLS-2005>
-419.595275878906

> <b_mmod_Minimization_Converged-OPLS-2005>
0

> <r_mmod_RMS_Derivative-OPLS-2005>
2.99542927742004

$$$$
34
                    3D
 Structure written by MMmdl.
156165  0  0  1  0            999 V2000
  -30.5113  -14.9242   20.4254 C   0  0  0  0  0  0
  -30.4520  -12.5702   19.4910 C   0  0  0  0  0  0
  -29.5259  -12.5313   18.2518 C   0  0  0  0  0  0
  -28.0558  -12.3215   18.6660 C   0  0  0  0  0  0
  -27.6368  -13.2395   19.8432 C   0  0  2  0  0  0
  -28.6807  -13.2278   20.9806 C   0  0  0  0  0  0
  -25.2496  -13.8199   20.5693 C   0  0  0  0  0  0
  -24.1803  -13.0438   20.9228 C   0  0  0  0  0  0
  -24.6406  -11.6919   20.8752 C   0  0  0  0  0  0
  -23.9081  -10.4292   21.0412 C   0  0  0  0  0  0
  -24.3626   -9.4202   21.9189 C   0  0  0  0  0  0
  -23.6294   -8.2241   22.0757 C   0  0  0  0  0  0
  -22.4274   -8.0285   21.3549 C   0  0  0  0  0  0
  -21.9915   -9.0261   20.4649 C   0  0  0  0  0  0
  -22.7250  -10.2137   20.3060 C   0  0  0  0  0  0
  -21.6852   -6.0734   22.5279 C   0  0  0  0  0  0
  -21.4016   -6.5638   23.8214 C   0  0  0  0  0  0
  -21.3658   -5.6791   24.9176 C   0  0  0  0  0  0
  -21.6048   -4.3056   24.7225 C   0  0  0  0  0  0
  -21.8817   -3.8145   23.4346 C   0  0  0  0  0  0
  -21.9194   -4.6962   22.3403 C   0  0  0  0  0  0
  -22.7822  -13.5219   21.1877 C   0  0  0  0  0  0
  -22.1662   -4.2147   21.0981 F   0  0  0  0  0  0
  -21.5627   -3.4542   25.7738 F   0  0  0  0  0  0
  -29.9610  -13.6463   20.3941 N   0  0  0  0  0  0
  -26.2919  -12.9414   20.3241 N   0  0  0  0  0  0
  -25.9338  -11.6554   20.5734 N   0  0  0  0  0  0
  -22.0462  -12.8217   22.0428 N   0  0  0  0  0  0
  -25.4150  -15.1925   20.4084 N   0  0  0  0  0  0
  -31.7051  -15.0486   20.1296 O   0  0  0  0  0  0
  -21.6640   -6.8878   21.4241 O   0  0  0  0  0  0
  -22.3511  -14.5522   20.6713 O   0  0  0  0  0  0
  -24.6434  -31.8444   23.1884 C   0  0  0  0  0  0
  -25.9208  -32.4695   23.8272 C   0  0  1  0  0  0
  -27.2184  -27.1411   20.1495 C   0  0  0  0  0  0
  -25.5956  -33.8500   24.2194 N   0  0  0  0  0  0
  -23.4459  -30.4638   21.5342 C   0  0  2  0  0  0
  -24.8944  -28.8890   20.1120 C   0  0  0  0  0  0
  -22.7564  -29.4553   22.4873 C   0  0  0  0  0  0
  -18.0305  -28.1397   22.8487 C   0  0  0  0  0  0
  -24.1486  -36.7253   23.2642 C   0  0  0  0  0  0
  -26.0016  -30.7196   21.3850 C   0  0  0  0  0  0
  -26.0721  -29.3308   20.7275 C   0  0  0  0  0  0
  -27.2358  -28.4746   20.7252 C   0  0  0  0  0  0
  -26.0117  -26.7958   19.5025 C   0  0  0  0  0  0
  -24.8770  -27.6346   19.4841 C   0  0  0  0  0  0
  -23.6708  -29.7913   20.1541 C   0  0  0  0  0  0
  -25.4118  -36.3028   24.0316 C   0  0  1  0  0  0
  -20.5917  -28.3721   23.1243 C   0  0  2  0  0  0
  -20.6785  -26.9425   22.5408 C   0  0  0  0  0  0
  -19.5755  -26.6386   21.5217 C   0  0  0  0  0  0
  -18.1939  -26.7937   22.1633 C   0  0  0  0  0  0
  -19.1561  -28.8880   23.2854 C   0  0  0  0  0  0
  -18.9476  -30.1478   23.8874 C   0  0  0  0  0  0
  -17.6472  -30.6594   24.0562 C   0  0  0  0  0  0
  -25.9074  -34.9407   23.5064 C   0  0  0  0  0  0
  -16.5364  -29.9086   23.6336 C   0  0  0  0  0  0
  -16.7289  -28.6504   23.0361 C   0  0  0  0  0  0
  -26.4527  -31.6560   25.0713 C   0  0  0  0  0  0
  -25.3713  -31.3753   26.1410 C   0  0  0  0  0  0
  -27.0396  -30.2958   24.6295 C   0  0  0  0  0  0
  -27.6050  -32.4334   25.7502 C   0  0  0  0  0  0
  -27.5572  -37.1785   24.8469 C   0  0  0  0  0  0
  -21.4261  -29.3042   22.3615 N   0  0  0  0  0  0
  -26.4280  -37.3743   23.9411 N   0  0  0  0  0  0
  -24.7169  -31.0308   22.0909 N   0  0  0  0  0  0
  -23.4212  -28.8105   23.3022 O   0  0  0  0  0  0
  -28.2903  -26.1786   20.1947 O   0  0  0  0  0  0
  -26.5661  -34.8909   22.4644 O   0  0  0  0  0  0
  -23.5555  -32.1326   23.7108 O   0  0  0  0  0  0
  -30.0058  -19.9739   21.1400 C   0  0  0  0  0  0
  -29.3069  -20.6089   20.0477 C   0  0  0  0  0  0
  -29.6644  -17.5423   20.3969 C   0  0  0  0  0  0
  -30.1774  -18.5320   21.3073 C   0  0  0  0  0  0
  -28.7634  -19.6010   19.1734 C   0  0  0  0  0  0
  -28.9131  -18.1658   19.3473 C   0  0  0  0  0  0
  -31.5507  -22.8390   20.3640 C   0  0  0  0  0  0
  -30.4730  -23.6806   21.0634 C   0  0  0  0  0  0
  -30.8165  -22.0835   19.2299 C   0  0  0  0  0  0
  -29.3170  -23.5293   20.0935 C   0  0  2  0  0  0
  -28.0649  -24.6343   20.1942 C   0  0  0  0  0  0
  -29.3840  -22.0365   19.5901 N   0  0  0  0  0  0
  -29.6460  -16.0257   20.6181 N   0  0  0  0  0  0
  -30.8528  -18.0947   22.3977 F   0  0  0  0  0  0
  -28.0917  -20.0232   18.0740 F   0  0  0  0  0  0
  -28.3028  -17.3543   18.4490 F   0  0  0  0  0  0
  -31.4836  -12.7429   19.1796 H   0  0  0  0  0  0
  -30.4531  -11.6085   20.0066 H   0  0  0  0  0  0
  -29.8400  -11.7407   17.5695 H   0  0  0  0  0  0
  -29.6182  -13.4671   17.6981 H   0  0  0  0  0  0
  -27.9415  -11.2767   18.9568 H   0  0  0  0  0  0
  -27.3957  -12.4743   17.8116 H   0  0  0  0  0  0
  -27.6099  -14.2485   19.4316 H   0  0  0  0  0  0
  -28.7628  -12.2360   21.4285 H   0  0  0  0  0  0
  -28.3850  -13.9024   21.7855 H   0  0  0  0  0  0
  -25.2770   -9.5682   22.4767 H   0  0  0  0  0  0
  -24.0002   -7.4637   22.7482 H   0  0  0  0  0  0
  -21.0842   -8.8784   19.8960 H   0  0  0  0  0  0
  -22.3706  -10.9679   19.6172 H   0  0  0  0  0  0
  -21.2008   -7.6147   23.9715 H   0  0  0  0  0  0
  -21.1482   -6.0523   25.9079 H   0  0  0  0  0  0
  -22.0597   -2.7606   23.2849 H   0  0  0  0  0  0
  -22.4072  -11.9885   22.4830 H   0  0  0  0  0  0
  -21.1081  -13.1250   22.2626 H   0  0  0  0  0  0
  -24.6340  -15.8324   20.5055 H   0  0  0  0  0  0
  -26.2320  -15.6291   20.0036 H   0  0  0  0  0  0
  -26.7279  -32.5299   23.1002 H   0  0  0  0  0  0
  -25.0071  -33.9608   25.0320 H   0  0  0  0  0  0
  -22.7471  -31.2888   21.3796 H   0  0  0  0  0  0
  -23.3751  -35.9582   23.3296 H   0  0  0  0  0  0
  -24.3568  -36.8894   22.2059 H   0  0  0  0  0  0
  -23.7240  -37.6445   23.6687 H   0  0  0  0  0  0
  -26.1572  -31.4736   20.6122 H   0  0  0  0  0  0
  -26.8720  -30.7693   22.0275 H   0  0  0  0  0  0
  -28.1361  -28.8108   21.2203 H   0  0  0  0  0  0
  -25.9122  -25.8413   19.0110 H   0  0  0  0  0  0
  -23.9786  -27.2909   18.9903 H   0  0  0  0  0  0
  -23.8067  -30.5646   19.3971 H   0  0  0  0  0  0
  -22.7852  -29.2334   19.8445 H   0  0  0  0  0  0
  -25.1306  -36.1855   25.0808 H   0  0  0  0  0  0
  -21.0008  -28.3307   24.1366 H   0  0  0  0  0  0
  -20.5677  -26.2332   23.3627 H   0  0  0  0  0  0
  -21.6649  -26.7430   22.1201 H   0  0  0  0  0  0
  -19.6906  -25.6291   21.1257 H   0  0  0  0  0  0
  -19.6683  -27.3188   20.6740 H   0  0  0  0  0  0
  -17.4204  -26.6691   21.4039 H   0  0  0  0  0  0
  -18.0332  -26.0084   22.9034 H   0  0  0  0  0  0
  -19.7948  -30.7307   24.2225 H   0  0  0  0  0  0
  -17.5020  -31.6266   24.5173 H   0  0  0  0  0  0
  -15.5360  -30.2976   23.7672 H   0  0  0  0  0  0
  -15.8692  -28.0812   22.7087 H   0  0  0  0  0  0
  -24.5893  -30.7097   25.7737 H   0  0  0  0  0  0
  -24.8898  -32.2935   26.4784 H   0  0  0  0  0  0
  -25.7998  -30.8963   27.0224 H   0  0  0  0  0  0
  -26.3020  -29.6676   24.1287 H   0  0  0  0  0  0
  -27.3993  -29.7259   25.4872 H   0  0  0  0  0  0
  -27.8933  -30.4191   23.9627 H   0  0  0  0  0  0
  -27.2633  -33.3651   26.2028 H   0  0  0  0  0  0
  -28.3892  -32.6874   25.0356 H   0  0  0  0  0  0
  -28.0689  -31.8498   26.5464 H   0  0  0  0  0  0
  -28.2590  -38.0081   24.7506 H   0  0  0  0  0  0
  -28.1070  -36.2611   24.6308 H   0  0  0  0  0  0
  -27.2292  -37.1447   25.8874 H   0  0  0  0  0  0
  -20.9476  -29.8749   21.6789 H   0  0  0  0  0  0
  -26.0148  -38.2814   24.1404 H   0  0  0  0  0  0
  -30.4868  -20.6070   21.8691 H   0  0  0  0  0  0
  -32.0215  -22.1552   21.0701 H   0  0  0  0  0  0
  -32.3432  -23.4630   19.9486 H   0  0  0  0  0  0
  -30.7738  -24.7215   21.1903 H   0  0  0  0  0  0
  -30.2157  -23.2729   22.0417 H   0  0  0  0  0  0
  -31.2984  -21.1208   19.0344 H   0  0  0  0  0  0
  -30.9243  -22.6254   18.2874 H   0  0  0  0  0  0
  -29.7038  -24.0400   19.2071 H   0  0  0  0  0  0
  -27.4680  -24.3939   21.0740 H   0  0  0  0  0  0
  -27.4274  -24.4052   19.3425 H   0  0  0  0  0  0
  -28.7126  -15.6900   20.7944 H   0  0  0  0  0  0
  1 25  1  0  0  0
  1 30  2  0  0  0
  1 83  1  0  0  0
  2  3  1  0  0  0
  2 25  1  0  0  0
  2 87  1  0  0  0
  2 88  1  0  0  0
  3  4  1  0  0  0
  3 89  1  0  0  0
  3 90  1  0  0  0
  4  5  1  0  0  0
  4 91  1  0  0  0
  4 92  1  0  0  0
  5  6  1  0  0  0
  5 26  1  0  0  0
  5 93  1  0  0  0
  6 25  1  0  0  0
  6 94  1  0  0  0
  6 95  1  0  0  0
  7  8  2  0  0  0
  7 26  1  0  0  0
  7 29  1  0  0  0
  8  9  1  0  0  0
  8 22  1  0  0  0
  9 10  1  0  0  0
  9 27  2  0  0  0
 10 11  2  0  0  0
 10 15  1  0  0  0
 11 12  1  0  0  0
 11 96  1  0  0  0
 12 13  2  0  0  0
 12 97  1  0  0  0
 13 14  1  0  0  0
 13 31  1  0  0  0
 14 15  2  0  0  0
 14 98  1  0  0  0
 15 99  1  0  0  0
 16 17  2  0  0  0
 16 21  1  0  0  0
 16 31  1  0  0  0
 17 18  1  0  0  0
 17100  1  0  0  0
 18 19  2  0  0  0
 18101  1  0  0  0
 19 20  1  0  0  0
 19 24  1  0  0  0
 20 21  2  0  0  0
 20102  1  0  0  0
 21 23  1  0  0  0
 22 28  1  0  0  0
 22 32  2  0  0  0
 26 27  1  0  0  0
 28103  1  0  0  0
 28104  1  0  0  0
 29105  1  0  0  0
 29106  1  0  0  0
 33 34  1  0  0  0
 33 66  1  0  0  0
 33 70  2  0  0  0
 34 36  1  0  0  0
 34 59  1  0  0  0
 34107  1  0  0  0
 35 44  2  0  0  0
 35 45  1  0  0  0
 35 68  1  0  0  0
 36 56  1  0  0  0
 36108  1  0  0  0
 37 39  1  0  0  0
 37 47  1  0  0  0
 37 66  1  0  0  0
 37109  1  0  0  0
 38 43  2  0  0  0
 38 46  1  0  0  0
 38 47  1  0  0  0
 39 64  1  0  0  0
 39 67  2  0  0  0
 40 52  1  0  0  0
 40 53  2  0  0  0
 40 58  1  0  0  0
 41110  1  0  0  0
 41111  1  0  0  0
 41112  1  0  0  0
 41 48  1  0  0  0
 42 43  1  0  0  0
 42 66  1  0  0  0
 42113  1  0  0  0
 42114  1  0  0  0
 43 44  1  0  0  0
 44115  1  0  0  0
 45 46  2  0  0  0
 45116  1  0  0  0
 46117  1  0  0  0
 47118  1  0  0  0
 47119  1  0  0  0
 48 56  1  0  0  0
 48 65  1  0  0  0
 48120  1  0  0  0
 49 50  1  0  0  0
 49 53  1  0  0  0
 49 64  1  0  0  0
 49121  1  0  0  0
 50 51  1  0  0  0
 50122  1  0  0  0
 50123  1  0  0  0
 51 52  1  0  0  0
 51124  1  0  0  0
 51125  1  0  0  0
 52126  1  0  0  0
 52127  1  0  0  0
 53 54  1  0  0  0
 54 55  2  0  0  0
 54128  1  0  0  0
 55 57  1  0  0  0
 55129  1  0  0  0
 56 69  2  0  0  0
 57 58  2  0  0  0
 57130  1  0  0  0
 58131  1  0  0  0
 59 60  1  0  0  0
 59 61  1  0  0  0
 59 62  1  0  0  0
 60132  1  0  0  0
 60133  1  0  0  0
 60134  1  0  0  0
 61135  1  0  0  0
 61136  1  0  0  0
 61137  1  0  0  0
 62138  1  0  0  0
 62139  1  0  0  0
 62140  1  0  0  0
 63 65  1  0  0  0
 63141  1  0  0  0
 63142  1  0  0  0
 63143  1  0  0  0
 64144  1  0  0  0
 65145  1  0  0  0
 68 81  1  0  0  0
 71 72  2  0  0  0
 71 74  1  0  0  0
 71146  1  0  0  0
 72 75  1  0  0  0
 72 82  1  0  0  0
 73 74  2  0  0  0
 73 76  1  0  0  0
 73 83  1  0  0  0
 74 84  1  0  0  0
 75 76  2  0  0  0
 75 85  1  0  0  0
 76 86  1  0  0  0
 77 78  1  0  0  0
 77 79  1  0  0  0
 77147  1  0  0  0
 77148  1  0  0  0
 78 80  1  0  0  0
 78149  1  0  0  0
 78150  1  0  0  0
 79 82  1  0  0  0
 79151  1  0  0  0
 79152  1  0  0  0
 80 81  1  0  0  0
 80 82  1  0  0  0
 80153  1  0  0  0
 81154  1  0  0  0
 81155  1  0  0  0
 83156  1  0  0  0
M  ISO  4   1 100  68 101  81 101  83 100
M  END
> <chiral flag>
0

> <version>
0

> <s_m_source_file>
/data/baiqing/PycharmProjects/Reinvent-master-3.2/result/LINK_invent/BTK/process_docking_weight1_custom_product_contain_oxygen_bond_distance_aromatic_linkinvent_7_9_3/rearranged_h_0024.sdf

> <i_m_source_file_index>
35

> <r_mmod_Potential_Energy-OPLS-2005>
690.189758300781

> <r_mmod_Stretch_Energy-OPLS-2005>
228.782531738281

> <r_mmod_Bend_Energy-OPLS-2005>
394.843444824219

> <r_mmod_Torsional_Energy-OPLS-2005>
322.379486083984

> <r_mmod_Improper_Torsional_Energy-OPLS-2005>
16.6621189117432

> <r_mmod_Van_der_Waal_Energy-OPLS-2005>
140.946685791016

> <r_mmod_Electrostatic_Energy-OPLS-2005>
-373.254425048828

> <r_mmod_Solvation_Energy-OPLS-2005>
-219.42236328125

> <b_mmod_Minimization_Converged-OPLS-2005>
0

> <r_mmod_RMS_Derivative-OPLS-2005>
0.923104405403137

$$$$
35
                    3D
 Structure written by MMmdl.
191201  0  0  1  0            999 V2000
  -30.5644  -14.8348   20.3502 C   0  0  0  0  0  0
  -30.4537  -12.4847   19.4755 C   0  0  0  0  0  0
  -29.5180  -12.3846   18.2479 C   0  0  0  0  0  0
  -28.0372  -12.2777   18.6642 C   0  0  0  0  0  0
  -27.6360  -13.2222   19.8327 C   0  0  2  0  0  0
  -28.6904  -13.2272   20.9562 C   0  0  0  0  0  0
  -25.2566  -13.8188   20.5727 C   0  0  0  0  0  0
  -24.1832  -13.0463   20.9226 C   0  0  0  0  0  0
  -24.6388  -11.6927   20.8780 C   0  0  0  0  0  0
  -23.9061  -10.4306   21.0422 C   0  0  0  0  0  0
  -24.3616   -9.4222   21.9194 C   0  0  0  0  0  0
  -23.6300   -8.2256   22.0764 C   0  0  0  0  0  0
  -22.4284   -8.0295   21.3546 C   0  0  0  0  0  0
  -21.9918   -9.0253   20.4644 C   0  0  0  0  0  0
  -22.7234  -10.2137   20.3061 C   0  0  0  0  0  0
  -21.6850   -6.0737   22.5272 C   0  0  0  0  0  0
  -21.3998   -6.5631   23.8206 C   0  0  0  0  0  0
  -21.3676   -5.6783   24.9173 C   0  0  0  0  0  0
  -21.6057   -4.3051   24.7215 C   0  0  0  0  0  0
  -21.8826   -3.8146   23.4340 C   0  0  0  0  0  0
  -21.9198   -4.6965   22.3396 C   0  0  0  0  0  0
  -22.7857  -13.5249   21.1845 C   0  0  0  0  0  0
  -22.1667   -4.2153   21.0971 F   0  0  0  0  0  0
  -21.5644   -3.4532   25.7733 F   0  0  0  0  0  0
  -29.9676  -13.5883   20.3337 N   0  0  0  0  0  0
  -26.2952  -12.9356   20.3291 N   0  0  0  0  0  0
  -25.9313  -11.6510   20.5804 N   0  0  0  0  0  0
  -22.0462  -12.8238   22.0376 N   0  0  0  0  0  0
  -25.4316  -15.1904   20.4156 N   0  0  0  0  0  0
  -31.7963  -14.9029   20.3238 O   0  0  0  0  0  0
  -21.6653   -6.8886   21.4242 O   0  0  0  0  0  0
  -22.3568  -14.5551   20.6678 O   0  0  0  0  0  0
  -24.6351  -31.8535   23.1968 C   0  0  0  0  0  0
  -25.9154  -32.4759   23.8325 C   0  0  1  0  0  0
  -27.2190  -27.2279   20.1468 C   0  0  0  0  0  0
  -25.5944  -33.8562   24.2250 N   0  0  0  0  0  0
  -23.4337  -30.4750   21.5418 C   0  0  2  0  0  0
  -24.8815  -28.9168   20.1154 C   0  0  0  0  0  0
  -22.7523  -29.4597   22.4920 C   0  0  0  0  0  0
  -18.0294  -28.1404   22.8484 C   0  0  0  0  0  0
  -24.1489  -36.7287   23.2635 C   0  0  0  0  0  0
  -25.9811  -30.7584   21.3786 C   0  0  0  0  0  0
  -26.0555  -29.3759   20.7254 C   0  0  0  0  0  0
  -27.2283  -28.5479   20.7245 C   0  0  0  0  0  0
  -26.0236  -26.8531   19.4912 C   0  0  0  0  0  0
  -24.8730  -27.6653   19.4835 C   0  0  0  0  0  0
  -23.6548  -29.8083   20.1590 C   0  0  0  0  0  0
  -25.4119  -36.3074   24.0319 C   0  0  1  0  0  0
  -20.5900  -28.3720   23.1269 C   0  0  2  0  0  0
  -20.6792  -26.9436   22.5410 C   0  0  0  0  0  0
  -19.5763  -26.6394   21.5223 C   0  0  0  0  0  0
  -18.1941  -26.7950   22.1624 C   0  0  0  0  0  0
  -19.1548  -28.8878   23.2874 C   0  0  0  0  0  0
  -18.9466  -30.1477   23.8897 C   0  0  0  0  0  0
  -17.6460  -30.6597   24.0570 C   0  0  0  0  0  0
  -25.9065  -34.9448   23.5089 C   0  0  0  0  0  0
  -16.5352  -29.9093   23.6334 C   0  0  0  0  0  0
  -16.7278  -28.6513   23.0354 C   0  0  0  0  0  0
  -26.4494  -31.6584   25.0723 C   0  0  0  0  0  0
  -25.3694  -31.3735   26.1424 C   0  0  0  0  0  0
  -27.0327  -30.2997   24.6204 C   0  0  0  0  0  0
  -27.6038  -32.4322   25.7518 C   0  0  0  0  0  0
  -27.5582  -37.1806   24.8459 C   0  0  0  0  0  0
  -21.4230  -29.3059   22.3658 N   0  0  0  0  0  0
  -26.4290  -37.3778   23.9407 N   0  0  0  0  0  0
  -24.7028  -31.0466   22.0961 N   0  0  0  0  0  0
  -23.4208  -28.8138   23.3030 O   0  0  0  0  0  0
  -28.3027  -26.3053   20.1987 O   0  0  0  0  0  0
  -26.5632  -34.8919   22.4655 O   0  0  0  0  0  0
  -23.5484  -32.1369   23.7236 O   0  0  0  0  0  0
  -29.3959  -16.3581   24.3961 C   0  0  0  0  0  0
  -29.0345  -16.9368   23.1710 C   0  0  0  0  0  0
  -30.7436  -16.3512   24.7856 C   0  0  0  0  0  0
  -30.0111  -17.5078   22.3275 C   0  0  0  0  0  0
  -31.7427  -16.9164   23.9622 C   0  0  0  0  0  0
  -31.3790  -17.5129   22.7190 C   0  0  0  0  0  0
  -29.5327  -18.0572   21.0482 C   0  0  0  0  0  0
  -34.4080  -13.3399   23.7507 C   0  0  0  0  0  0
  -35.7215  -14.1331   23.8122 C   0  0  0  0  0  0
  -30.0853  -23.5175   22.6252 C   0  0  0  0  0  0
  -30.3663  -24.0269   21.2082 C   0  0  0  0  0  0
  -33.2946  -14.3664   23.9952 C   0  0  0  0  0  0
  -35.3186  -15.5498   24.2368 C   0  0  0  0  0  0
  -28.9914  -22.4441   22.4790 C   0  0  0  0  0  0
  -29.1284  -23.6202   20.4036 C   0  0  2  0  0  0
  -32.4214  -18.1473   21.7971 C   0  0  0  0  0  0
  -27.3682  -19.3173   20.5313 C   0  0  0  0  0  0
  -29.8390  -15.7437   18.2619 C   0  0  0  0  0  0
  -33.1905  -16.8275   24.4486 C   0  0  0  0  0  0
  -28.0153  -24.8323   20.4647 C   0  0  0  0  0  0
  -29.4191  -20.9078   20.5456 C   0  0  0  0  0  0
  -28.7914  -19.4942   21.0998 C   0  0  2  0  0  0
  -29.5258  -17.2756   19.9901 N   0  0  0  0  0  0
  -29.8337  -15.8700   19.7292 N   0  0  0  0  0  0
  -33.9129  -15.6970   23.8130 N   0  3  0  0  0  0
  -28.7554  -22.2417   21.0252 N   0  3  1  0  0  0
  -31.4774  -12.6560   19.1427 H   0  0  0  0  0  0
  -30.4713  -11.5474   20.0331 H   0  0  0  0  0  0
  -29.7891  -11.5048   17.6629 H   0  0  0  0  0  0
  -29.6609  -13.2175   17.5664 H   0  0  0  0  0  0
  -27.8743  -11.2437   18.9650 H   0  0  0  0  0  0
  -27.3900  -12.4417   17.8026 H   0  0  0  0  0  0
  -27.6006  -14.2238   19.4083 H   0  0  0  0  0  0
  -28.7532  -12.2535   21.4455 H   0  0  0  0  0  0
  -28.4258  -13.9511   21.7268 H   0  0  0  0  0  0
  -25.2752   -9.5705   22.4784 H   0  0  0  0  0  0
  -24.0014   -7.4648   22.7484 H   0  0  0  0  0  0
  -21.0858   -8.8749   19.8935 H   0  0  0  0  0  0
  -22.3678  -10.9679   19.6183 H   0  0  0  0  0  0
  -21.1948   -7.6132   23.9705 H   0  0  0  0  0  0
  -21.1504   -6.0513   25.9073 H   0  0  0  0  0  0
  -22.0586   -2.7610   23.2826 H   0  0  0  0  0  0
  -22.4050  -11.9880   22.4752 H   0  0  0  0  0  0
  -21.1084  -13.1276   22.2528 H   0  0  0  0  0  0
  -24.6684  -15.8483   20.5291 H   0  0  0  0  0  0
  -26.2931  -15.6278   20.1149 H   0  0  0  0  0  0
  -26.7226  -32.5397   23.1072 H   0  0  0  0  0  0
  -25.0094  -33.9699   25.0400 H   0  0  0  0  0  0
  -22.7310  -31.2977   21.3942 H   0  0  0  0  0  0
  -23.3764  -35.9606   23.3275 H   0  0  0  0  0  0
  -24.3580  -36.8936   22.2053 H   0  0  0  0  0  0
  -23.7222  -37.6473   23.6674 H   0  0  0  0  0  0
  -26.1148  -31.5129   20.6026 H   0  0  0  0  0  0
  -26.8611  -30.8154   22.0077 H   0  0  0  0  0  0
  -28.1277  -28.8974   21.2121 H   0  0  0  0  0  0
  -25.9445  -25.9100   18.9729 H   0  0  0  0  0  0
  -23.9792  -27.3127   18.9879 H   0  0  0  0  0  0
  -23.7864  -30.5859   19.4046 H   0  0  0  0  0  0
  -22.7708  -29.2466   19.8502 H   0  0  0  0  0  0
  -25.1302  -36.1921   25.0810 H   0  0  0  0  0  0
  -20.9985  -28.3300   24.1396 H   0  0  0  0  0  0
  -20.5715  -26.2331   23.3622 H   0  0  0  0  0  0
  -21.6658  -26.7479   22.1185 H   0  0  0  0  0  0
  -19.6929  -25.6299   21.1272 H   0  0  0  0  0  0
  -19.6709  -27.3192   20.6743 H   0  0  0  0  0  0
  -17.4222  -26.6711   21.4016 H   0  0  0  0  0  0
  -18.0324  -26.0088   22.9009 H   0  0  0  0  0  0
  -19.7939  -30.7301   24.2268 H   0  0  0  0  0  0
  -17.5009  -31.6275   24.5178 H   0  0  0  0  0  0
  -15.5352  -30.2991   23.7667 H   0  0  0  0  0  0
  -15.8681  -28.0832   22.7068 H   0  0  0  0  0  0
  -24.5899  -30.7056   25.7742 H   0  0  0  0  0  0
  -24.8846  -32.2895   26.4802 H   0  0  0  0  0  0
  -25.7988  -30.8947   27.0232 H   0  0  0  0  0  0
  -26.2897  -29.6769   24.1210 H   0  0  0  0  0  0
  -27.3982  -29.7240   25.4715 H   0  0  0  0  0  0
  -27.8790  -30.4271   23.9455 H   0  0  0  0  0  0
  -27.2643  -33.3635   26.2063 H   0  0  0  0  0  0
  -28.3877  -32.6861   25.0372 H   0  0  0  0  0  0
  -28.0668  -31.8464   26.5468 H   0  0  0  0  0  0
  -28.2580  -38.0122   24.7525 H   0  0  0  0  0  0
  -28.1098  -36.2655   24.6263 H   0  0  0  0  0  0
  -27.2301  -37.1419   25.8860 H   0  0  0  0  0  0
  -20.9432  -29.8771   21.6849 H   0  0  0  0  0  0
  -26.0168  -38.2851   24.1415 H   0  0  0  0  0  0
  -28.6414  -15.9146   25.0318 H   0  0  0  0  0  0
  -27.9939  -16.9338   22.8755 H   0  0  0  0  0  0
  -31.0066  -15.8934   25.7299 H   0  0  0  0  0  0
  -34.3749  -12.5420   24.4939 H   0  0  0  0  0  0
  -34.2904  -12.8783   22.7707 H   0  0  0  0  0  0
  -36.1812  -14.1584   22.8239 H   0  0  0  0  0  0
  -36.4441  -13.6890   24.4995 H   0  0  0  0  0  0
  -29.7351  -24.3236   23.2739 H   0  0  0  0  0  0
  -30.9916  -23.1118   23.0782 H   0  0  0  0  0  0
  -31.2454  -23.5180   20.8079 H   0  0  0  0  0  0
  -30.5712  -25.0979   21.1711 H   0  0  0  0  0  0
  -32.9340  -14.2694   25.0209 H   0  0  0  0  0  0
  -32.4399  -14.2200   23.3327 H   0  0  0  0  0  0
  -35.9609  -16.3189   23.8055 H   0  0  0  0  0  0
  -35.3807  -15.6347   25.3230 H   0  0  0  0  0  0
  -28.0667  -22.7933   22.9411 H   0  0  0  0  0  0
  -29.2758  -21.5372   23.0116 H   0  0  0  0  0  0
  -29.3953  -23.4797   19.3560 H   0  0  0  0  0  0
  -32.2664  -19.2249   21.7407 H   0  0  0  0  0  0
  -32.3372  -17.7423   20.7872 H   0  0  0  0  0  0
  -33.4512  -17.9866   22.1046 H   0  0  0  0  0  0
  -26.8698  -18.4545   20.9737 H   0  0  0  0  0  0
  -27.3811  -19.1674   19.4510 H   0  0  0  0  0  0
  -26.7368  -20.1802   20.7399 H   0  0  0  0  0  0
  -28.9059  -15.3034   17.9149 H   0  0  0  0  0  0
  -30.6685  -15.1442   17.8834 H   0  0  0  0  0  0
  -29.9409  -16.7030   17.7504 H   0  0  0  0  0  0
  -33.1997  -16.7019   25.5322 H   0  0  0  0  0  0
  -33.7140  -17.7668   24.2682 H   0  0  0  0  0  0
  -27.5732  -24.8183   21.4613 H   0  0  0  0  0  0
  -27.2179  -24.5004   19.8057 H   0  0  0  0  0  0
  -29.3812  -20.8929   19.4555 H   0  0  0  0  0  0
  -30.4795  -20.9476   20.7949 H   0  0  0  0  0  0
  -28.6271  -19.6580   22.1620 H   0  0  0  0  0  0
  -33.9247  -15.8713   22.8182 H   0  0  0  0  0  0
  -27.7640  -22.1055   20.8830 H   0  0  0  0  0  0
  1 25  1  0  0  0
  1 30  2  0  0  0
  1 94  1  0  0  0
  2  3  1  0  0  0
  2 25  1  0  0  0
  2 97  1  0  0  0
  2 98  1  0  0  0
  3  4  1  0  0  0
  3 99  1  0  0  0
  3100  1  0  0  0
  4  5  1  0  0  0
  4101  1  0  0  0
  4102  1  0  0  0
  5  6  1  0  0  0
  5 26  1  0  0  0
  5103  1  0  0  0
  6 25  1  0  0  0
  6104  1  0  0  0
  6105  1  0  0  0
  7  8  2  0  0  0
  7 26  1  0  0  0
  7 29  1  0  0  0
  8  9  1  0  0  0
  8 22  1  0  0  0
  9 10  1  0  0  0
  9 27  2  0  0  0
 10 11  2  0  0  0
 10 15  1  0  0  0
 11 12  1  0  0  0
 11106  1  0  0  0
 12 13  2  0  0  0
 12107  1  0  0  0
 13 14  1  0  0  0
 13 31  1  0  0  0
 14 15  2  0  0  0
 14108  1  0  0  0
 15109  1  0  0  0
 16 17  2  0  0  0
 16 21  1  0  0  0
 16 31  1  0  0  0
 17 18  1  0  0  0
 17110  1  0  0  0
 18 19  2  0  0  0
 18111  1  0  0  0
 19 20  1  0  0  0
 19 24  1  0  0  0
 20 21  2  0  0  0
 20112  1  0  0  0
 21 23  1  0  0  0
 22 28  1  0  0  0
 22 32  2  0  0  0
 26 27  1  0  0  0
 28113  1  0  0  0
 28114  1  0  0  0
 29115  1  0  0  0
 29116  1  0  0  0
 33 34  1  0  0  0
 33 66  1  0  0  0
 33 70  2  0  0  0
 34 36  1  0  0  0
 34 59  1  0  0  0
 34117  1  0  0  0
 35 44  2  0  0  0
 35 45  1  0  0  0
 35 68  1  0  0  0
 36 56  1  0  0  0
 36118  1  0  0  0
 37 39  1  0  0  0
 37 47  1  0  0  0
 37 66  1  0  0  0
 37119  1  0  0  0
 38 43  2  0  0  0
 38 46  1  0  0  0
 38 47  1  0  0  0
 39 64  1  0  0  0
 39 67  2  0  0  0
 40 52  1  0  0  0
 40 53  2  0  0  0
 40 58  1  0  0  0
 41120  1  0  0  0
 41121  1  0  0  0
 41122  1  0  0  0
 41 48  1  0  0  0
 42 43  1  0  0  0
 42 66  1  0  0  0
 42123  1  0  0  0
 42124  1  0  0  0
 43 44  1  0  0  0
 44125  1  0  0  0
 45 46  2  0  0  0
 45126  1  0  0  0
 46127  1  0  0  0
 47128  1  0  0  0
 47129  1  0  0  0
 48 56  1  0  0  0
 48 65  1  0  0  0
 48130  1  0  0  0
 49 50  1  0  0  0
 49 53  1  0  0  0
 49 64  1  0  0  0
 49131  1  0  0  0
 50 51  1  0  0  0
 50132  1  0  0  0
 50133  1  0  0  0
 51 52  1  0  0  0
 51134  1  0  0  0
 51135  1  0  0  0
 52136  1  0  0  0
 52137  1  0  0  0
 53 54  1  0  0  0
 54 55  2  0  0  0
 54138  1  0  0  0
 55 57  1  0  0  0
 55139  1  0  0  0
 56 69  2  0  0  0
 57 58  2  0  0  0
 57140  1  0  0  0
 58141  1  0  0  0
 59 60  1  0  0  0
 59 61  1  0  0  0
 59 62  1  0  0  0
 60142  1  0  0  0
 60143  1  0  0  0
 60144  1  0  0  0
 61145  1  0  0  0
 61146  1  0  0  0
 61147  1  0  0  0
 62148  1  0  0  0
 62149  1  0  0  0
 62150  1  0  0  0
 63 65  1  0  0  0
 63151  1  0  0  0
 63152  1  0  0  0
 63153  1  0  0  0
 64154  1  0  0  0
 65155  1  0  0  0
 68 90  1  0  0  0
 71 72  2  0  0  0
 71 73  1  0  0  0
 71156  1  0  0  0
 72 74  1  0  0  0
 72157  1  0  0  0
 73 75  2  0  0  0
 73158  1  0  0  0
 74 76  2  0  0  0
 74 77  1  0  0  0
 75 76  1  0  0  0
 75 89  1  0  0  0
 76 86  1  0  0  0
 77 92  1  0  0  0
 77 93  2  0  0  0
 78 79  1  0  0  0
 78 82  1  0  0  0
 78159  1  0  0  0
 78160  1  0  0  0
 79 83  1  0  0  0
 79161  1  0  0  0
 79162  1  0  0  0
 80 81  1  0  0  0
 80 84  1  0  0  0
 80163  1  0  0  0
 80164  1  0  0  0
 81 85  1  0  0  0
 81165  1  0  0  0
 81166  1  0  0  0
 82 95  1  0  0  0
 82167  1  0  0  0
 82168  1  0  0  0
 83 95  1  0  0  0
 83169  1  0  0  0
 83170  1  0  0  0
 84 96  1  0  0  0
 84171  1  0  0  0
 84172  1  0  0  0
 85 90  1  0  0  0
 85 96  1  0  0  0
 85173  1  0  0  0
 86174  1  0  0  0
 86175  1  0  0  0
 86176  1  0  0  0
 87177  1  0  0  0
 87178  1  0  0  0
 87179  1  0  0  0
 87 92  1  0  0  0
 88 94  1  0  0  0
 88180  1  0  0  0
 88181  1  0  0  0
 88182  1  0  0  0
 89183  1  0  0  0
 89184  1  0  0  0
 89 95  1  0  0  0
 90185  1  0  0  0
 90186  1  0  0  0
 91 92  1  0  0  0
 91187  1  0  0  0
 91188  1  0  0  0
 91 96  1  0  0  0
 92189  1  0  0  0
 93 94  1  0  0  0
 95190  1  0  0  0
 96191  1  0  0  0
M  CHG  2  95   1  96   1
M  ISO  4   1 100  68 101  90 101  94 100
M  END
> <chiral flag>
0

> <version>
0

> <s_m_source_file>
/data/baiqing/PycharmProjects/Reinvent-master-3.2/result/LINK_invent/BTK/process_docking_weight1_custom_product_contain_oxygen_bond_distance_aromatic_linkinvent_7_9_3/rearranged_h_0024.sdf

> <i_m_source_file_index>
36

> <r_mmod_Potential_Energy-OPLS-2005>
566.110046386719

> <r_mmod_Stretch_Energy-OPLS-2005>
177.741744995117

> <r_mmod_Bend_Energy-OPLS-2005>
318.522155761719

> <r_mmod_Torsional_Energy-OPLS-2005>
458.077758789062

> <r_mmod_Improper_Torsional_Energy-OPLS-2005>
30.8744335174561

> <r_mmod_Van_der_Waal_Energy-OPLS-2005>
121.598731994629

> <r_mmod_Electrostatic_Energy-OPLS-2005>
90.2712860107422

> <r_mmod_Solvation_Energy-OPLS-2005>
-764.926086425781

> <b_mmod_Minimization_Converged-OPLS-2005>
0

> <r_mmod_RMS_Derivative-OPLS-2005>
3.00112795829773

$$$$
36
                    3D
 Structure written by MMmdl.
160169  0  0  1  0            999 V2000
  -30.4822  -14.8824   20.4102 C   0  0  0  0  0  0
  -30.4682  -12.5390   19.4759 C   0  0  0  0  0  0
  -29.5327  -12.5436   18.2410 C   0  0  0  0  0  0
  -28.0543  -12.3337   18.6395 C   0  0  0  0  0  0
  -27.6436  -13.2139   19.8465 C   0  0  2  0  0  0
  -28.6954  -13.1329   20.9726 C   0  0  0  0  0  0
  -25.2542  -13.8131   20.5668 C   0  0  0  0  0  0
  -24.1812  -13.0411   20.9169 C   0  0  0  0  0  0
  -24.6373  -11.6877   20.8691 C   0  0  0  0  0  0
  -23.9044  -10.4265   21.0371 C   0  0  0  0  0  0
  -24.3608   -9.4194   21.9173 C   0  0  0  0  0  0
  -23.6282   -8.2237   22.0751 C   0  0  0  0  0  0
  -22.4275   -8.0268   21.3532 C   0  0  0  0  0  0
  -21.9898   -9.0231   20.4639 C   0  0  0  0  0  0
  -22.7209  -10.2112   20.3033 C   0  0  0  0  0  0
  -21.6851   -6.0714   22.5273 C   0  0  0  0  0  0
  -21.4014   -6.5623   23.8204 C   0  0  0  0  0  0
  -21.3661   -5.6777   24.9166 C   0  0  0  0  0  0
  -21.6049   -4.3041   24.7216 C   0  0  0  0  0  0
  -21.8824   -3.8129   23.4342 C   0  0  0  0  0  0
  -21.9198   -4.6943   22.3395 C   0  0  0  0  0  0
  -22.7844  -13.5237   21.1816 C   0  0  0  0  0  0
  -22.1678   -4.2139   21.0966 F   0  0  0  0  0  0
  -21.5618   -3.4522   25.7724 F   0  0  0  0  0  0
  -29.9830  -13.5811   20.4158 N   0  0  0  0  0  0
  -26.2950  -12.9276   20.3251 N   0  0  0  0  0  0
  -25.9303  -11.6450   20.5706 N   0  0  0  0  0  0
  -22.0455  -12.8267   22.0377 N   0  0  0  0  0  0
  -25.4242  -15.1847   20.4114 N   0  0  0  0  0  0
  -31.6925  -15.0248   20.1820 O   0  0  0  0  0  0
  -21.6638   -6.8864   21.4242 O   0  0  0  0  0  0
  -22.3531  -14.5523   20.6619 O   0  0  0  0  0  0
  -24.6383  -31.8505   23.1934 C   0  0  0  0  0  0
  -25.9184  -32.4736   23.8318 C   0  0  1  0  0  0
  -27.2270  -27.2105   20.1335 C   0  0  0  0  0  0
  -25.5955  -33.8537   24.2251 N   0  0  0  0  0  0
  -23.4384  -30.4707   21.5397 C   0  0  2  0  0  0
  -24.8875  -28.9087   20.1134 C   0  0  0  0  0  0
  -22.7542  -29.4581   22.4910 C   0  0  0  0  0  0
  -18.0297  -28.1422   22.8489 C   0  0  0  0  0  0
  -24.1472  -36.7251   23.2636 C   0  0  0  0  0  0
  -25.9878  -30.7506   21.3781 C   0  0  0  0  0  0
  -26.0632  -29.3654   20.7236 C   0  0  0  0  0  0
  -27.2357  -28.5319   20.7162 C   0  0  0  0  0  0
  -26.0256  -26.8371   19.4918 C   0  0  0  0  0  0
  -24.8770  -27.6552   19.4842 C   0  0  0  0  0  0
  -23.6592  -29.8021   20.1584 C   0  0  0  0  0  0
  -25.4108  -36.3056   24.0317 C   0  0  1  0  0  0
  -20.5904  -28.3732   23.1255 C   0  0  2  0  0  0
  -20.6801  -26.9447   22.5411 C   0  0  0  0  0  0
  -19.5763  -26.6401   21.5233 C   0  0  0  0  0  0
  -18.1935  -26.7962   22.1634 C   0  0  0  0  0  0
  -19.1550  -28.8896   23.2863 C   0  0  0  0  0  0
  -18.9468  -30.1495   23.8887 C   0  0  0  0  0  0
  -17.6467  -30.6616   24.0572 C   0  0  0  0  0  0
  -25.9063  -34.9423   23.5086 C   0  0  0  0  0  0
  -16.5358  -29.9118   23.6339 C   0  0  0  0  0  0
  -16.7286  -28.6534   23.0356 C   0  0  0  0  0  0
  -26.4509  -31.6558   25.0732 C   0  0  0  0  0  0
  -25.3684  -31.3715   26.1414 C   0  0  0  0  0  0
  -27.0358  -30.2985   24.6208 C   0  0  0  0  0  0
  -27.6042  -32.4261   25.7570 C   0  0  0  0  0  0
  -27.5566  -37.1767   24.8461 C   0  0  0  0  0  0
  -21.4243  -29.3057   22.3645 N   0  0  0  0  0  0
  -26.4279  -37.3760   23.9412 N   0  0  0  0  0  0
  -24.7087  -31.0415   22.0937 N   0  0  0  0  0  0
  -23.4212  -28.8142   23.3043 O   0  0  0  0  0  0
  -28.3158  -26.2892   20.1409 O   0  0  0  0  0  0
  -26.5631  -34.8904   22.4650 O   0  0  0  0  0  0
  -23.5511  -32.1366   23.7166 O   0  0  0  0  0  0
  -30.1430  -18.7401   19.5938 C   0  0  0  0  0  0
  -29.9608  -20.1824   19.6820 C   0  0  0  0  0  0
  -28.9608  -18.4677   21.6184 C   0  0  0  0  0  0
  -29.6474  -17.7944   20.5580 C   0  0  0  0  0  0
  -28.7453  -19.8910   21.7004 C   0  0  0  0  0  0
  -29.2408  -20.8379   20.7352 C   0  0  0  0  0  0
  -30.8241  -23.7981   21.6292 C   0  0  0  0  0  0
  -30.5146  -23.9783   20.1436 C   0  0  0  0  0  0
  -29.8454  -22.7160   22.1110 C   0  0  0  0  0  0
  -29.0586  -23.5336   20.0490 C   0  0  2  0  0  0
  -27.8926  -20.3819   22.8650 C   0  0  0  0  0  0
  -28.0869  -24.8139   20.4763 C   0  0  0  0  0  0
  -29.4513  -16.1801   20.3256 C   0  0  0  0  0  0
  -29.0562  -22.2908   20.9503 N   0  0  0  0  0  0
  -28.4101  -15.9027   21.1066 F   0  0  0  0  0  0
  -28.9852  -16.1567   19.0753 F   0  0  0  0  0  0
  -31.4968  -12.7274   19.1650 H   0  0  0  0  0  0
  -30.4783  -11.5560   19.9493 H   0  0  0  0  0  0
  -29.8439  -11.7779   17.5305 H   0  0  0  0  0  0
  -29.6303  -13.4978   17.7200 H   0  0  0  0  0  0
  -27.9191  -11.2802   18.8836 H   0  0  0  0  0  0
  -27.4009  -12.5306   17.7880 H   0  0  0  0  0  0
  -27.6225  -14.2286   19.4610 H   0  0  0  0  0  0
  -28.7687  -12.1085   21.3393 H   0  0  0  0  0  0
  -28.4062  -13.7204   21.8430 H   0  0  0  0  0  0
  -25.2751   -9.5699   22.4743 H   0  0  0  0  0  0
  -23.9990   -7.4646   22.7496 H   0  0  0  0  0  0
  -21.0813   -8.8738   19.8961 H   0  0  0  0  0  0
  -22.3654  -10.9645   19.6136 H   0  0  0  0  0  0
  -21.2018   -7.6134   23.9713 H   0  0  0  0  0  0
  -21.1481   -6.0497   25.9069 H   0  0  0  0  0  0
  -22.0609   -2.7595   23.2834 H   0  0  0  0  0  0
  -22.4049  -11.9983   22.4863 H   0  0  0  0  0  0
  -21.1067  -13.1319   22.2479 H   0  0  0  0  0  0
  -24.6630  -15.8408   20.5442 H   0  0  0  0  0  0
  -26.2936  -15.6360   20.1545 H   0  0  0  0  0  0
  -26.7283  -32.5372   23.1098 H   0  0  0  0  0  0
  -25.0142  -33.9678   25.0423 H   0  0  0  0  0  0
  -22.7416  -31.2962   21.3918 H   0  0  0  0  0  0
  -23.3750  -35.9563   23.3296 H   0  0  0  0  0  0
  -24.3570  -36.8882   22.2055 H   0  0  0  0  0  0
  -23.7195  -37.6432   23.6671 H   0  0  0  0  0  0
  -26.1222  -31.5064   20.6043 H   0  0  0  0  0  0
  -26.8649  -30.8119   22.0098 H   0  0  0  0  0  0
  -28.1384  -28.8819   21.1987 H   0  0  0  0  0  0
  -25.9605  -25.8865   18.9820 H   0  0  0  0  0  0
  -23.9793  -27.3070   18.9897 H   0  0  0  0  0  0
  -23.7869  -30.5778   19.4024 H   0  0  0  0  0  0
  -22.7761  -29.2382   19.8517 H   0  0  0  0  0  0
  -25.1293  -36.1899   25.0810 H   0  0  0  0  0  0
  -20.9989  -28.3317   24.1376 H   0  0  0  0  0  0
  -20.5726  -26.2346   23.3619 H   0  0  0  0  0  0
  -21.6660  -26.7482   22.1179 H   0  0  0  0  0  0
  -19.6910  -25.6299   21.1278 H   0  0  0  0  0  0
  -19.6692  -27.3205   20.6749 H   0  0  0  0  0  0
  -17.4209  -26.6712   21.4036 H   0  0  0  0  0  0
  -18.0319  -26.0118   22.9035 H   0  0  0  0  0  0
  -19.7940  -30.7320   24.2251 H   0  0  0  0  0  0
  -17.5016  -31.6302   24.5177 H   0  0  0  0  0  0
  -15.5351  -30.3022   23.7664 H   0  0  0  0  0  0
  -15.8685  -28.0856   22.7068 H   0  0  0  0  0  0
  -24.5846  -30.7113   25.7693 H   0  0  0  0  0  0
  -24.8900  -32.2905   26.4813 H   0  0  0  0  0  0
  -25.7934  -30.8868   27.0222 H   0  0  0  0  0  0
  -26.2931  -29.6712   24.1285 H   0  0  0  0  0  0
  -27.4108  -29.7287   25.4722 H   0  0  0  0  0  0
  -27.8781  -30.4276   23.9406 H   0  0  0  0  0  0
  -27.2663  -33.3561   26.2166 H   0  0  0  0  0  0
  -28.3917  -32.6797   25.0462 H   0  0  0  0  0  0
  -28.0657  -31.8362   26.5516 H   0  0  0  0  0  0
  -28.2589  -38.0060   24.7530 H   0  0  0  0  0  0
  -28.1055  -36.2599   24.6269 H   0  0  0  0  0  0
  -27.2291  -37.1394   25.8864 H   0  0  0  0  0  0
  -20.9462  -29.8739   21.6796 H   0  0  0  0  0  0
  -26.0153  -38.2821   24.1452 H   0  0  0  0  0  0
  -30.6370  -18.3525   18.7135 H   0  0  0  0  0  0
  -30.3891  -20.7957   18.9010 H   0  0  0  0  0  0
  -28.4932  -17.8612   22.3821 H   0  0  0  0  0  0
  -30.6393  -24.7287   22.1678 H   0  0  0  0  0  0
  -31.8642  -23.5149   21.8007 H   0  0  0  0  0  0
  -31.1480  -23.3155   19.5516 H   0  0  0  0  0  0
  -30.6791  -24.9967   19.7893 H   0  0  0  0  0  0
  -29.1809  -23.1099   22.8828 H   0  0  0  0  0  0
  -30.4054  -21.8949   22.5635 H   0  0  0  0  0  0
  -28.8426  -23.2503   19.0172 H   0  0  0  0  0  0
  -27.2776  -19.5818   23.2786 H   0  0  0  0  0  0
  -27.2106  -21.1690   22.5429 H   0  0  0  0  0  0
  -28.5163  -20.7760   23.6673 H   0  0  0  0  0  0
  -28.0350  -24.8204   21.5647 H   0  0  0  0  0  0
  -27.0813  -24.5233   20.1790 H   0  0  0  0  0  0
  1 25  1  0  0  0
  1 30  2  0  0  0
  1 83  1  0  0  0
  2  3  1  0  0  0
  2 25  1  0  0  0
  2 87  1  0  0  0
  2 88  1  0  0  0
  3  4  1  0  0  0
  3 89  1  0  0  0
  3 90  1  0  0  0
  4  5  1  0  0  0
  4 91  1  0  0  0
  4 92  1  0  0  0
  5  6  1  0  0  0
  5 26  1  0  0  0
  5 93  1  0  0  0
  6 25  1  0  0  0
  6 94  1  0  0  0
  6 95  1  0  0  0
  7  8  2  0  0  0
  7 26  1  0  0  0
  7 29  1  0  0  0
  8  9  1  0  0  0
  8 22  1  0  0  0
  9 10  1  0  0  0
  9 27  2  0  0  0
 10 11  2  0  0  0
 10 15  1  0  0  0
 11 12  1  0  0  0
 11 96  1  0  0  0
 12 13  2  0  0  0
 12 97  1  0  0  0
 13 14  1  0  0  0
 13 31  1  0  0  0
 14 15  2  0  0  0
 14 98  1  0  0  0
 15 99  1  0  0  0
 16 17  2  0  0  0
 16 21  1  0  0  0
 16 31  1  0  0  0
 17 18  1  0  0  0
 17100  1  0  0  0
 18 19  2  0  0  0
 18101  1  0  0  0
 19 20  1  0  0  0
 19 24  1  0  0  0
 20 21  2  0  0  0
 20102  1  0  0  0
 21 23  1  0  0  0
 22 28  1  0  0  0
 22 32  2  0  0  0
 26 27  1  0  0  0
 28103  1  0  0  0
 28104  1  0  0  0
 29105  1  0  0  0
 29106  1  0  0  0
 33 34  1  0  0  0
 33 66  1  0  0  0
 33 70  2  0  0  0
 34 36  1  0  0  0
 34 59  1  0  0  0
 34107  1  0  0  0
 35 44  2  0  0  0
 35 45  1  0  0  0
 35 68  1  0  0  0
 36 56  1  0  0  0
 36108  1  0  0  0
 37 39  1  0  0  0
 37 47  1  0  0  0
 37 66  1  0  0  0
 37109  1  0  0  0
 38 43  2  0  0  0
 38 46  1  0  0  0
 38 47  1  0  0  0
 39 64  1  0  0  0
 39 67  2  0  0  0
 40 52  1  0  0  0
 40 53  2  0  0  0
 40 58  1  0  0  0
 41110  1  0  0  0
 41111  1  0  0  0
 41112  1  0  0  0
 41 48  1  0  0  0
 42 43  1  0  0  0
 42 66  1  0  0  0
 42113  1  0  0  0
 42114  1  0  0  0
 43 44  1  0  0  0
 44115  1  0  0  0
 45 46  2  0  0  0
 45116  1  0  0  0
 46117  1  0  0  0
 47118  1  0  0  0
 47119  1  0  0  0
 48 56  1  0  0  0
 48 65  1  0  0  0
 48120  1  0  0  0
 49 50  1  0  0  0
 49 53  1  0  0  0
 49 64  1  0  0  0
 49121  1  0  0  0
 50 51  1  0  0  0
 50122  1  0  0  0
 50123  1  0  0  0
 51 52  1  0  0  0
 51124  1  0  0  0
 51125  1  0  0  0
 52126  1  0  0  0
 52127  1  0  0  0
 53 54  1  0  0  0
 54 55  2  0  0  0
 54128  1  0  0  0
 55 57  1  0  0  0
 55129  1  0  0  0
 56 69  2  0  0  0
 57 58  2  0  0  0
 57130  1  0  0  0
 58131  1  0  0  0
 59 60  1  0  0  0
 59 61  1  0  0  0
 59 62  1  0  0  0
 60132  1  0  0  0
 60133  1  0  0  0
 60134  1  0  0  0
 61135  1  0  0  0
 61136  1  0  0  0
 61137  1  0  0  0
 62138  1  0  0  0
 62139  1  0  0  0
 62140  1  0  0  0
 63 65  1  0  0  0
 63141  1  0  0  0
 63142  1  0  0  0
 63143  1  0  0  0
 64144  1  0  0  0
 65145  1  0  0  0
 68 82  1  0  0  0
 71 72  2  0  0  0
 71 74  1  0  0  0
 71146  1  0  0  0
 72 76  1  0  0  0
 72147  1  0  0  0
 73 74  2  0  0  0
 73 75  1  0  0  0
 73148  1  0  0  0
 74 83  1  0  0  0
 75 76  2  0  0  0
 75 81  1  0  0  0
 76 84  1  0  0  0
 77 78  1  0  0  0
 77 79  1  0  0  0
 77149  1  0  0  0
 77150  1  0  0  0
 78 80  1  0  0  0
 78151  1  0  0  0
 78152  1  0  0  0
 79 84  1  0  0  0
 79153  1  0  0  0
 79154  1  0  0  0
 80 82  1  0  0  0
 80 84  1  0  0  0
 80155  1  0  0  0
 81156  1  0  0  0
 81157  1  0  0  0
 81158  1  0  0  0
 82159  1  0  0  0
 82160  1  0  0  0
 83 85  1  0  0  0
 83 86  1  0  0  0
M  ISO  4   1 100  68 101  82 101  83 100
M  END
> <chiral flag>
0

> <version>
0

> <s_m_source_file>
/data/baiqing/PycharmProjects/Reinvent-master-3.2/result/LINK_invent/BTK/process_docking_weight1_custom_product_contain_oxygen_bond_distance_aromatic_linkinvent_7_9_3/rearranged_h_0024.sdf

> <i_m_source_file_index>
37

> <r_mmod_Potential_Energy-OPLS-2005>
653.024780273438

> <r_mmod_Stretch_Energy-OPLS-2005>
189.023086547852

> <r_mmod_Bend_Energy-OPLS-2005>
298.879333496094

> <r_mmod_Torsional_Energy-OPLS-2005>
293.249176025391

> <r_mmod_Improper_Torsional_Energy-OPLS-2005>
16.7141513824463

> <r_mmod_Van_der_Waal_Energy-OPLS-2005>
146.517684936523

> <r_mmod_Electrostatic_Energy-OPLS-2005>
-233.880401611328

> <r_mmod_Solvation_Energy-OPLS-2005>
-195.079666137695

> <b_mmod_Minimization_Converged-OPLS-2005>
0

> <r_mmod_RMS_Derivative-OPLS-2005>
2.80708909034729

$$$$
37
                    3D
 Structure written by MMmdl.
162171  0  0  1  0            999 V2000
  -30.6527  -14.5665   20.5308 C   0  0  0  0  0  0
  -30.4370  -12.3468   19.4393 C   0  0  0  0  0  0
  -29.5048  -12.4913   18.2152 C   0  0  0  0  0  0
  -28.0247  -12.3375   18.6189 C   0  0  0  0  0  0
  -27.6599  -13.1859   19.8660 C   0  0  2  0  0  0
  -28.7064  -13.0155   20.9904 C   0  0  0  0  0  0
  -25.2609  -13.8085   20.5661 C   0  0  0  0  0  0
  -24.1855  -13.0396   20.9189 C   0  0  0  0  0  0
  -24.6397  -11.6854   20.8733 C   0  0  0  0  0  0
  -23.9056  -10.4268   21.0429 C   0  0  0  0  0  0
  -24.3618   -9.4199   21.9202 C   0  0  0  0  0  0
  -23.6300   -8.2227   22.0778 C   0  0  0  0  0  0
  -22.4296   -8.0250   21.3560 C   0  0  0  0  0  0
  -21.9925   -9.0218   20.4652 C   0  0  0  0  0  0
  -22.7225  -10.2117   20.3074 C   0  0  0  0  0  0
  -21.6861   -6.0705   22.5279 C   0  0  0  0  0  0
  -21.3966   -6.5617   23.8190 C   0  0  0  0  0  0
  -21.3665   -5.6791   24.9172 C   0  0  0  0  0  0
  -21.6073   -4.3054   24.7240 C   0  0  0  0  0  0
  -21.8821   -3.8127   23.4364 C   0  0  0  0  0  0
  -21.9197   -4.6924   22.3407 C   0  0  0  0  0  0
  -22.7885  -13.5215   21.1829 C   0  0  0  0  0  0
  -22.1668   -4.2113   21.0993 F   0  0  0  0  0  0
  -21.5688   -3.4545   25.7757 F   0  0  0  0  0  0
  -30.0284  -13.3540   20.4342 N   0  0  0  0  0  0
  -26.3016  -12.9216   20.3318 N   0  0  0  0  0  0
  -25.9321  -11.6402   20.5773 N   0  0  0  0  0  0
  -22.0512  -12.8238   22.0390 N   0  0  0  0  0  0
  -25.4273  -15.1789   20.4012 N   0  0  0  0  0  0
  -31.8060  -14.7504   20.1303 O   0  0  0  0  0  0
  -21.6666   -6.8836   21.4230 O   0  0  0  0  0  0
  -22.3569  -14.5507   20.6645 O   0  0  0  0  0  0
  -24.6141  -31.8637   23.2054 C   0  0  0  0  0  0
  -25.9006  -32.4818   23.8362 C   0  0  1  0  0  0
  -27.2525  -27.4100   20.1023 C   0  0  0  0  0  0
  -25.5845  -33.8611   24.2286 N   0  0  0  0  0  0
  -23.4061  -30.4859   21.5449 C   0  0  2  0  0  0
  -24.8578  -28.9497   20.1106 C   0  0  0  0  0  0
  -22.7429  -29.4611   22.4936 C   0  0  0  0  0  0
  -18.0292  -28.1351   22.8492 C   0  0  0  0  0  0
  -24.1442  -36.7294   23.2617 C   0  0  0  0  0  0
  -25.9340  -30.8304   21.3551 C   0  0  0  0  0  0
  -26.0164  -29.4587   20.7090 C   0  0  0  0  0  0
  -27.2088  -28.6960   20.7009 C   0  0  0  0  0  0
  -26.0658  -26.9167   19.5064 C   0  0  0  0  0  0
  -24.8786  -27.6803   19.5087 C   0  0  0  0  0  0
  -23.6202  -29.8201   20.1593 C   0  0  0  0  0  0
  -25.4058  -36.3098   24.0337 C   0  0  1  0  0  0
  -20.5889  -28.3626   23.1313 C   0  0  2  0  0  0
  -20.6749  -26.9350   22.5427 C   0  0  0  0  0  0
  -19.5752  -26.6381   21.5189 C   0  0  0  0  0  0
  -18.1938  -26.7896   22.1624 C   0  0  0  0  0  0
  -19.1543  -28.8805   23.2917 C   0  0  0  0  0  0
  -18.9466  -30.1399   23.8957 C   0  0  0  0  0  0
  -17.6463  -30.6539   24.0597 C   0  0  0  0  0  0
  -25.9029  -34.9482   23.5130 C   0  0  0  0  0  0
  -16.5354  -29.9064   23.6313 C   0  0  0  0  0  0
  -16.7279  -28.6485   23.0327 C   0  0  0  0  0  0
  -26.4436  -31.6601   25.0676 C   0  0  0  0  0  0
  -25.3696  -31.3736   26.1426 C   0  0  0  0  0  0
  -27.0258  -30.3047   24.6013 C   0  0  0  0  0  0
  -27.5994  -32.4316   25.7456 C   0  0  0  0  0  0
  -27.5599  -37.1744   24.8391 C   0  0  0  0  0  0
  -21.4151  -29.2979   22.3681 N   0  0  0  0  0  0
  -26.4199  -37.3836   23.9509 N   0  0  0  0  0  0
  -24.6705  -31.0740   22.0959 N   0  0  0  0  0  0
  -23.4186  -28.8183   23.3009 O   0  0  0  0  0  0
  -28.4453  -26.6986   20.1649 O   0  0  0  0  0  0
  -26.5629  -34.8948   22.4714 O   0  0  0  0  0  0
  -23.5317  -32.1387   23.7430 O   0  0  0  0  0  0
  -30.6008  -19.2688   21.5568 C   0  0  0  0  0  0
  -30.6835  -17.8476   21.6391 C   0  0  0  0  0  0
  -29.0749  -19.0607   19.6932 C   0  0  0  0  0  0
  -29.1662  -17.6462   19.7447 C   0  0  0  0  0  0
  -29.7680  -19.8937   20.5985 C   0  0  0  0  0  0
  -29.9601  -17.0100   20.7445 C   0  0  0  0  0  0
  -27.9458  -23.1986   20.4191 C   0  0  0  0  0  0
  -30.3444  -23.5043   19.6941 C   0  0  0  0  0  0
  -28.3655  -21.8669   21.1064 C   0  0  0  0  0  0
  -30.7166  -22.2163   20.4792 C   0  0  0  0  0  0
  -29.0942  -24.2353   20.2671 C   0  0  0  0  0  0
  -28.3873  -16.8561   18.7032 C   0  0  0  0  0  0
  -28.6882  -25.4889   19.4096 C   0  0  0  0  0  0
  -29.5764  -21.2998   20.5040 N   0  0  0  0  0  0
  -29.8598  -15.5831   20.9594 N   0  0  0  0  0  0
  -31.4802  -12.4609   19.1385 H   0  0  0  0  0  0
  -30.3569  -11.3433   19.8637 H   0  0  0  0  0  0
  -29.7609  -11.7517   17.4565 H   0  0  0  0  0  0
  -29.6498  -13.4662   17.7480 H   0  0  0  0  0  0
  -27.8374  -11.2794   18.8105 H   0  0  0  0  0  0
  -27.3794  -12.6068   17.7809 H   0  0  0  0  0  0
  -27.6883  -14.2179   19.5388 H   0  0  0  0  0  0
  -28.7079  -11.9871   21.3577 H   0  0  0  0  0  0
  -28.4572  -13.6344   21.8528 H   0  0  0  0  0  0
  -25.2786   -9.5694   22.4752 H   0  0  0  0  0  0
  -24.0023   -7.4652   22.7539 H   0  0  0  0  0  0
  -21.0856   -8.8700   19.8977 H   0  0  0  0  0  0
  -22.3665  -10.9651   19.6178 H   0  0  0  0  0  0
  -21.1877   -7.6108   23.9663 H   0  0  0  0  0  0
  -21.1510   -6.0540   25.9075 H   0  0  0  0  0  0
  -22.0589   -2.7577   23.2894 H   0  0  0  0  0  0
  -22.4117  -11.9918   22.4832 H   0  0  0  0  0  0
  -21.1123  -13.1280   22.2538 H   0  0  0  0  0  0
  -24.6365  -15.8153   20.4526 H   0  0  0  0  0  0
  -26.2533  -15.6069   20.0096 H   0  0  0  0  0  0
  -26.7094  -32.5551   23.1145 H   0  0  0  0  0  0
  -24.9883  -33.9759   25.0357 H   0  0  0  0  0  0
  -22.6933  -31.3011   21.4032 H   0  0  0  0  0  0
  -23.3762  -35.9550   23.3091 H   0  0  0  0  0  0
  -24.3590  -36.9098   22.2075 H   0  0  0  0  0  0
  -23.7064  -37.6392   23.6737 H   0  0  0  0  0  0
  -26.0280  -31.5925   20.5800 H   0  0  0  0  0  0
  -26.8288  -30.9013   21.9613 H   0  0  0  0  0  0
  -28.1028  -29.0908   21.1650 H   0  0  0  0  0  0
  -26.0172  -25.9372   19.0581 H   0  0  0  0  0  0
  -23.9854  -27.2789   19.0491 H   0  0  0  0  0  0
  -23.7337  -30.5995   19.4045 H   0  0  0  0  0  0
  -22.7447  -29.2452   19.8533 H   0  0  0  0  0  0
  -25.1190  -36.1924   25.0813 H   0  0  0  0  0  0
  -21.0000  -28.3189   24.1428 H   0  0  0  0  0  0
  -20.5593  -26.2228   23.3614 H   0  0  0  0  0  0
  -21.6630  -26.7329   22.1270 H   0  0  0  0  0  0
  -19.6916  -25.6321   21.1146 H   0  0  0  0  0  0
  -19.6711  -27.3261   20.6778 H   0  0  0  0  0  0
  -17.4196  -26.6630   21.4035 H   0  0  0  0  0  0
  -18.0373  -26.0025   22.9025 H   0  0  0  0  0  0
  -19.7939  -30.7180   24.2389 H   0  0  0  0  0  0
  -17.5011  -31.6204   24.5231 H   0  0  0  0  0  0
  -15.5355  -30.2986   23.7597 H   0  0  0  0  0  0
  -15.8684  -28.0818   22.6995 H   0  0  0  0  0  0
  -24.5829  -30.7135   25.7755 H   0  0  0  0  0  0
  -24.8941  -32.2924   26.4868 H   0  0  0  0  0  0
  -25.8028  -30.8884   27.0178 H   0  0  0  0  0  0
  -26.2806  -29.6838   24.1014 H   0  0  0  0  0  0
  -27.4013  -29.7237   25.4444 H   0  0  0  0  0  0
  -27.8633  -30.4391   23.9155 H   0  0  0  0  0  0
  -27.2602  -33.3649   26.1960 H   0  0  0  0  0  0
  -28.3857  -32.6820   25.0321 H   0  0  0  0  0  0
  -28.0567  -31.8454   26.5436 H   0  0  0  0  0  0
  -28.2365  -38.0285   24.7809 H   0  0  0  0  0  0
  -28.1336  -36.2865   24.5688 H   0  0  0  0  0  0
  -27.2412  -37.0723   25.8780 H   0  0  0  0  0  0
  -20.9291  -29.8657   21.6885 H   0  0  0  0  0  0
  -26.0049  -38.2826   24.1799 H   0  0  0  0  0  0
  -31.1483  -19.8686   22.2748 H   0  0  0  0  0  0
  -31.2788  -17.4162   22.4326 H   0  0  0  0  0  0
  -28.4477  -19.5178   18.9418 H   0  0  0  0  0  0
  -27.1171  -23.6452   20.9722 H   0  0  0  0  0  0
  -27.5418  -22.9641   19.4344 H   0  0  0  0  0  0
  -30.1728  -23.2542   18.6438 H   0  0  0  0  0  0
  -31.2017  -24.1809   19.6959 H   0  0  0  0  0  0
  -27.5399  -21.1543   21.0503 H   0  0  0  0  0  0
  -28.5474  -22.0402   22.1702 H   0  0  0  0  0  0
  -31.0037  -22.4768   21.5024 H   0  0  0  0  0  0
  -31.5846  -21.7400   20.0209 H   0  0  0  0  0  0
  -29.3672  -24.5842   21.2633 H   0  0  0  0  0  0
  -27.9160  -17.5029   17.9584 H   0  0  0  0  0  0
  -27.5807  -16.2973   19.1661 H   0  0  0  0  0  0
  -29.0444  -16.1691   18.1674 H   0  0  0  0  0  0
  -27.9183  -25.2363   18.6836 H   0  0  0  0  0  0
  -29.5413  -25.7548   18.7857 H   0  0  0  0  0  0
  -28.9415  -15.2614   21.2250 H   0  0  0  0  0  0
  1 25  1  0  0  0
  1 30  2  0  0  0
  1 85  1  0  0  0
  2  3  1  0  0  0
  2 25  1  0  0  0
  2 86  1  0  0  0
  2 87  1  0  0  0
  3  4  1  0  0  0
  3 88  1  0  0  0
  3 89  1  0  0  0
  4  5  1  0  0  0
  4 90  1  0  0  0
  4 91  1  0  0  0
  5  6  1  0  0  0
  5 26  1  0  0  0
  5 92  1  0  0  0
  6 25  1  0  0  0
  6 93  1  0  0  0
  6 94  1  0  0  0
  7  8  2  0  0  0
  7 26  1  0  0  0
  7 29  1  0  0  0
  8  9  1  0  0  0
  8 22  1  0  0  0
  9 10  1  0  0  0
  9 27  2  0  0  0
 10 11  2  0  0  0
 10 15  1  0  0  0
 11 12  1  0  0  0
 11 95  1  0  0  0
 12 13  2  0  0  0
 12 96  1  0  0  0
 13 14  1  0  0  0
 13 31  1  0  0  0
 14 15  2  0  0  0
 14 97  1  0  0  0
 15 98  1  0  0  0
 16 17  2  0  0  0
 16 21  1  0  0  0
 16 31  1  0  0  0
 17 18  1  0  0  0
 17 99  1  0  0  0
 18 19  2  0  0  0
 18100  1  0  0  0
 19 20  1  0  0  0
 19 24  1  0  0  0
 20 21  2  0  0  0
 20101  1  0  0  0
 21 23  1  0  0  0
 22 28  1  0  0  0
 22 32  2  0  0  0
 26 27  1  0  0  0
 28102  1  0  0  0
 28103  1  0  0  0
 29104  1  0  0  0
 29105  1  0  0  0
 33 34  1  0  0  0
 33 66  1  0  0  0
 33 70  2  0  0  0
 34 36  1  0  0  0
 34 59  1  0  0  0
 34106  1  0  0  0
 35 44  2  0  0  0
 35 45  1  0  0  0
 35 68  1  0  0  0
 36 56  1  0  0  0
 36107  1  0  0  0
 37 39  1  0  0  0
 37 47  1  0  0  0
 37 66  1  0  0  0
 37108  1  0  0  0
 38 43  2  0  0  0
 38 46  1  0  0  0
 38 47  1  0  0  0
 39 64  1  0  0  0
 39 67  2  0  0  0
 40 52  1  0  0  0
 40 53  2  0  0  0
 40 58  1  0  0  0
 41109  1  0  0  0
 41110  1  0  0  0
 41111  1  0  0  0
 41 48  1  0  0  0
 42 43  1  0  0  0
 42 66  1  0  0  0
 42112  1  0  0  0
 42113  1  0  0  0
 43 44  1  0  0  0
 44114  1  0  0  0
 45 46  2  0  0  0
 45115  1  0  0  0
 46116  1  0  0  0
 47117  1  0  0  0
 47118  1  0  0  0
 48 56  1  0  0  0
 48 65  1  0  0  0
 48119  1  0  0  0
 49 50  1  0  0  0
 49 53  1  0  0  0
 49 64  1  0  0  0
 49120  1  0  0  0
 50 51  1  0  0  0
 50121  1  0  0  0
 50122  1  0  0  0
 51 52  1  0  0  0
 51123  1  0  0  0
 51124  1  0  0  0
 52125  1  0  0  0
 52126  1  0  0  0
 53 54  1  0  0  0
 54 55  2  0  0  0
 54127  1  0  0  0
 55 57  1  0  0  0
 55128  1  0  0  0
 56 69  2  0  0  0
 57 58  2  0  0  0
 57129  1  0  0  0
 58130  1  0  0  0
 59 60  1  0  0  0
 59 61  1  0  0  0
 59 62  1  0  0  0
 60131  1  0  0  0
 60132  1  0  0  0
 60133  1  0  0  0
 61134  1  0  0  0
 61135  1  0  0  0
 61136  1  0  0  0
 62137  1  0  0  0
 62138  1  0  0  0
 62139  1  0  0  0
 63 65  1  0  0  0
 63140  1  0  0  0
 63141  1  0  0  0
 63142  1  0  0  0
 64143  1  0  0  0
 65144  1  0  0  0
 68 83  1  0  0  0
 71 72  2  0  0  0
 71 75  1  0  0  0
 71145  1  0  0  0
 72 76  1  0  0  0
 72146  1  0  0  0
 73 74  1  0  0  0
 73 75  2  0  0  0
 73147  1  0  0  0
 74 76  2  0  0  0
 74 82  1  0  0  0
 75 84  1  0  0  0
 76 85  1  0  0  0
 77 79  1  0  0  0
 77 81  1  0  0  0
 77148  1  0  0  0
 77149  1  0  0  0
 78 80  1  0  0  0
 78 81  1  0  0  0
 78150  1  0  0  0
 78151  1  0  0  0
 79 84  1  0  0  0
 79152  1  0  0  0
 79153  1  0  0  0
 80 84  1  0  0  0
 80154  1  0  0  0
 80155  1  0  0  0
 81 83  1  0  0  0
 81156  1  0  0  0
 82157  1  0  0  0
 82158  1  0  0  0
 82159  1  0  0  0
 83160  1  0  0  0
 83161  1  0  0  0
 85162  1  0  0  0
M  ISO  4   1 100  68 101  83 101  85 100
M  END
> <chiral flag>
0

> <version>
0

> <s_m_source_file>
/data/baiqing/PycharmProjects/Reinvent-master-3.2/result/LINK_invent/BTK/process_docking_weight1_custom_product_contain_oxygen_bond_distance_aromatic_linkinvent_7_9_3/rearranged_h_0024.sdf

> <i_m_source_file_index>
38

> <r_mmod_Potential_Energy-OPLS-2005>
21.6306915283203

> <r_mmod_Stretch_Energy-OPLS-2005>
51.4982070922852

> <r_mmod_Bend_Energy-OPLS-2005>
132.599990844727

> <r_mmod_Torsional_Energy-OPLS-2005>
294.316680908203

> <r_mmod_Improper_Torsional_Energy-OPLS-2005>
8.0903148651123

> <r_mmod_Van_der_Waal_Energy-OPLS-2005>
143.373611450195

> <r_mmod_Electrostatic_Energy-OPLS-2005>
-415.595306396484

> <r_mmod_Solvation_Energy-OPLS-2005>
-216.992279052734

> <b_mmod_Minimization_Converged-OPLS-2005>
0

> <r_mmod_RMS_Derivative-OPLS-2005>
4.97501468658447

$$$$
38
                    3D
 Structure written by MMmdl.
162171  0  0  1  0            999 V2000
  -30.6638  -14.6735   20.5501 C   0  0  0  0  0  0
  -30.4337  -12.4443   19.4395 C   0  0  0  0  0  0
  -29.4912  -12.5194   18.2194 C   0  0  0  0  0  0
  -28.0192  -12.3380   18.6413 C   0  0  0  0  0  0
  -27.6478  -13.1990   19.8756 C   0  0  2  0  0  0
  -28.7113  -13.0336   20.9906 C   0  0  0  0  0  0
  -25.2499  -13.8134   20.5689 C   0  0  0  0  0  0
  -24.1770  -13.0414   20.9206 C   0  0  0  0  0  0
  -24.6336  -11.6880   20.8781 C   0  0  0  0  0  0
  -23.9037  -10.4277   21.0444 C   0  0  0  0  0  0
  -24.3593   -9.4200   21.9219 C   0  0  0  0  0  0
  -23.6267   -8.2238   22.0780 C   0  0  0  0  0  0
  -22.4262   -8.0269   21.3560 C   0  0  0  0  0  0
  -21.9896   -9.0249   20.4667 C   0  0  0  0  0  0
  -22.7225  -10.2123   20.3076 C   0  0  0  0  0  0
  -21.6859   -6.0714   22.5273 C   0  0  0  0  0  0
  -21.4014   -6.5627   23.8205 C   0  0  0  0  0  0
  -21.3639   -5.6780   24.9170 C   0  0  0  0  0  0
  -21.6046   -4.3047   24.7233 C   0  0  0  0  0  0
  -21.8837   -3.8138   23.4360 C   0  0  0  0  0  0
  -21.9201   -4.6941   22.3406 C   0  0  0  0  0  0
  -22.7787  -13.5215   21.1847 C   0  0  0  0  0  0
  -22.1673   -4.2128   21.0983 F   0  0  0  0  0  0
  -21.5619   -3.4534   25.7754 F   0  0  0  0  0  0
  -29.9921  -13.4712   20.4167 N   0  0  0  0  0  0
  -26.2943  -12.9279   20.3431 N   0  0  0  0  0  0
  -25.9269  -11.6454   20.5858 N   0  0  0  0  0  0
  -22.0425  -12.8226   22.0401 N   0  0  0  0  0  0
  -25.4116  -15.1861   20.4011 N   0  0  0  0  0  0
  -31.8451  -14.7159   20.1856 O   0  0  0  0  0  0
  -21.6641   -6.8858   21.4234 O   0  0  0  0  0  0
  -22.3481  -14.5523   20.6685 O   0  0  0  0  0  0
  -24.6317  -31.8575   23.2017 C   0  0  0  0  0  0
  -25.9161  -32.4744   23.8358 C   0  0  1  0  0  0
  -27.2315  -27.3174   20.1246 C   0  0  0  0  0  0
  -25.5967  -33.8548   24.2283 N   0  0  0  0  0  0
  -23.4246  -30.4832   21.5428 C   0  0  2  0  0  0
  -24.8738  -28.9447   20.1060 C   0  0  0  0  0  0
  -22.7483  -29.4623   22.4899 C   0  0  0  0  0  0
  -18.0275  -28.1378   22.8459 C   0  0  0  0  0  0
  -24.1472  -36.7283   23.2638 C   0  0  0  0  0  0
  -25.9663  -30.7907   21.3722 C   0  0  0  0  0  0
  -26.0429  -29.4201   20.7141 C   0  0  0  0  0  0
  -27.2258  -28.6208   20.7102 C   0  0  0  0  0  0
  -26.0418  -26.9038   19.4783 C   0  0  0  0  0  0
  -24.8782  -27.6952   19.4733 C   0  0  0  0  0  0
  -23.6399  -29.8225   20.1571 C   0  0  0  0  0  0
  -25.4088  -36.3048   24.0326 C   0  0  1  0  0  0
  -20.5878  -28.3700   23.1239 C   0  0  2  0  0  0
  -20.6762  -26.9403   22.5391 C   0  0  0  0  0  0
  -19.5745  -26.6376   21.5182 C   0  0  0  0  0  0
  -18.1918  -26.7919   22.1583 C   0  0  0  0  0  0
  -19.1526  -28.8851   23.2845 C   0  0  0  0  0  0
  -18.9456  -30.1450   23.8863 C   0  0  0  0  0  0
  -17.6465  -30.6577   24.0562 C   0  0  0  0  0  0
  -25.9050  -34.9431   23.5101 C   0  0  0  0  0  0
  -16.5363  -29.9071   23.6336 C   0  0  0  0  0  0
  -16.7266  -28.6501   23.0329 C   0  0  0  0  0  0
  -26.4547  -31.6559   25.0740 C   0  0  0  0  0  0
  -25.3802  -31.3655   26.1478 C   0  0  0  0  0  0
  -27.0452  -30.2994   24.6228 C   0  0  0  0  0  0
  -27.6109  -32.4318   25.7500 C   0  0  0  0  0  0
  -27.5566  -37.1751   24.8438 C   0  0  0  0  0  0
  -21.4189  -29.3067   22.3641 N   0  0  0  0  0  0
  -26.4232  -37.3777   23.9454 N   0  0  0  0  0  0
  -24.6927  -31.0602   22.0952 N   0  0  0  0  0  0
  -23.4183  -28.8141   23.2976 O   0  0  0  0  0  0
  -28.3366  -26.4488   20.2066 O   0  0  0  0  0  0
  -26.5603  -34.8913   22.4654 O   0  0  0  0  0  0
  -23.5477  -32.1381   23.7342 O   0  0  0  0  0  0
  -29.9918  -19.0159   19.7982 C   0  0  0  0  0  0
  -29.4832  -20.3264   19.5550 C   0  0  0  0  0  0
  -29.5650  -20.8099   21.9051 C   0  0  0  0  0  0
  -30.2728  -18.5469   21.1077 C   0  0  0  0  0  0
  -30.0724  -19.4972   22.1550 C   0  0  0  0  0  0
  -29.2408  -21.2543   20.6013 C   0  0  0  0  0  0
  -30.4247  -19.1180   23.5813 C   0  0  0  0  0  0
  -31.6190  -18.1627   23.6104 C   0  0  0  0  0  0
  -31.2979  -16.8755   22.8488 C   0  0  0  0  0  0
  -30.8480  -17.0858   21.3788 C   0  0  1  0  0  0
  -28.6052  -16.1464   21.0169 C   0  0  0  0  0  0
  -29.0961  -23.8631   20.5254 C   0  0  0  0  0  0
  -28.0580  -24.9959   20.0956 C   0  0  0  0  0  0
  -28.5490  -22.4816   20.3501 N   0  0  0  0  0  0
  -30.0493  -15.8537   20.9904 N   0  0  0  0  0  0
  -31.4647  -12.5845   19.1102 H   0  0  0  0  0  0
  -30.4081  -11.4495   19.8866 H   0  0  0  0  0  0
  -29.7654  -11.7601   17.4861 H   0  0  0  0  0  0
  -29.6118  -13.4842   17.7248 H   0  0  0  0  0  0
  -27.8692  -11.2825   18.8705 H   0  0  0  0  0  0
  -27.3546  -12.5686   17.8078 H   0  0  0  0  0  0
  -27.6575  -14.2238   19.5169 H   0  0  0  0  0  0
  -28.7676  -11.9836   21.2837 H   0  0  0  0  0  0
  -28.4773  -13.5320   21.9277 H   0  0  0  0  0  0
  -25.2739   -9.5672   22.4795 H   0  0  0  0  0  0
  -23.9983   -7.4628   22.7499 H   0  0  0  0  0  0
  -21.0843   -8.8762   19.8958 H   0  0  0  0  0  0
  -22.3715  -10.9650   19.6171 H   0  0  0  0  0  0
  -21.2012   -7.6132   23.9703 H   0  0  0  0  0  0
  -21.1428   -6.0513   25.9066 H   0  0  0  0  0  0
  -22.0638   -2.7598   23.2883 H   0  0  0  0  0  0
  -22.4037  -11.9916   22.4843 H   0  0  0  0  0  0
  -21.1036  -13.1260   22.2587 H   0  0  0  0  0  0
  -24.6453  -15.8392   20.5315 H   0  0  0  0  0  0
  -26.2583  -15.6328   20.0737 H   0  0  0  0  0  0
  -26.7239  -32.5412   23.1117 H   0  0  0  0  0  0
  -25.0140  -33.9694   25.0447 H   0  0  0  0  0  0
  -22.7218  -31.3059   21.4005 H   0  0  0  0  0  0
  -23.3747  -35.9590   23.3208 H   0  0  0  0  0  0
  -24.3591  -36.9014   22.2075 H   0  0  0  0  0  0
  -23.7207  -37.6441   23.6744 H   0  0  0  0  0  0
  -26.1021  -31.5532   20.6044 H   0  0  0  0  0  0
  -26.8457  -30.8391   22.0017 H   0  0  0  0  0  0
  -28.1213  -28.9855   21.1930 H   0  0  0  0  0  0
  -25.9754  -25.9506   18.9784 H   0  0  0  0  0  0
  -23.9885  -27.3304   18.9793 H   0  0  0  0  0  0
  -23.7562  -30.6054   19.4068 H   0  0  0  0  0  0
  -22.7605  -29.2545   19.8490 H   0  0  0  0  0  0
  -25.1237  -36.1878   25.0807 H   0  0  0  0  0  0
  -20.9961  -28.3296   24.1360 H   0  0  0  0  0  0
  -20.5630  -26.2305   23.3599 H   0  0  0  0  0  0
  -21.6632  -26.7384   22.1212 H   0  0  0  0  0  0
  -19.6911  -25.6279   21.1230 H   0  0  0  0  0  0
  -19.6702  -27.3167   20.6700 H   0  0  0  0  0  0
  -17.4182  -26.6644   21.3993 H   0  0  0  0  0  0
  -18.0326  -26.0050   22.8971 H   0  0  0  0  0  0
  -19.7941  -30.7269   24.2197 H   0  0  0  0  0  0
  -17.5028  -31.6242   24.5186 H   0  0  0  0  0  0
  -15.5366  -30.2970   23.7701 H   0  0  0  0  0  0
  -15.8656  -28.0854   22.7016 H   0  0  0  0  0  0
  -24.5982  -30.6986   25.7811 H   0  0  0  0  0  0
  -24.8981  -32.2794   26.4966 H   0  0  0  0  0  0
  -25.8169  -30.8804   27.0220 H   0  0  0  0  0  0
  -26.3052  -29.6650   24.1334 H   0  0  0  0  0  0
  -27.4251  -29.7341   25.4753 H   0  0  0  0  0  0
  -27.8854  -30.4283   23.9403 H   0  0  0  0  0  0
  -27.2724  -33.3630   26.2058 H   0  0  0  0  0  0
  -28.3919  -32.6871   25.0322 H   0  0  0  0  0  0
  -28.0786  -31.8466   26.5429 H   0  0  0  0  0  0
  -28.2472  -38.0151   24.7635 H   0  0  0  0  0  0
  -28.1174  -36.2707   24.6055 H   0  0  0  0  0  0
  -27.2329  -37.1134   25.8838 H   0  0  0  0  0  0
  -20.9381  -29.8842   21.6895 H   0  0  0  0  0  0
  -26.0091  -38.2811   24.1589 H   0  0  0  0  0  0
  -30.1657  -18.3571   18.9596 H   0  0  0  0  0  0
  -29.2456  -20.6035   18.5371 H   0  0  0  0  0  0
  -29.3913  -21.4735   22.7412 H   0  0  0  0  0  0
  -29.5557  -18.6527   24.0497 H   0  0  0  0  0  0
  -30.6546  -20.0103   24.1654 H   0  0  0  0  0  0
  -31.8839  -17.9248   24.6401 H   0  0  0  0  0  0
  -32.4939  -18.6446   23.1697 H   0  0  0  0  0  0
  -30.4934  -16.3827   23.3976 H   0  0  0  0  0  0
  -32.1466  -16.1898   22.8906 H   0  0  0  0  0  0
  -31.7640  -17.0914   20.7852 H   0  0  0  0  0  0
  -28.3700  -17.0519   21.5736 H   0  0  0  0  0  0
  -27.9869  -15.4238   21.5278 H   0  0  0  0  0  0
  -28.2387  -16.2940   20.0024 H   0  0  0  0  0  0
  -29.3724  -23.9947   21.5727 H   0  0  0  0  0  0
  -30.0146  -23.9620   19.9431 H   0  0  0  0  0  0
  -27.1501  -24.7952   20.6682 H   0  0  0  0  0  0
  -27.8114  -24.8003   19.0513 H   0  0  0  0  0  0
  -27.5957  -22.4380   20.7072 H   0  0  0  0  0  0
  1 25  1  0  0  0
  1 30  2  0  0  0
  1 85  1  0  0  0
  2  3  1  0  0  0
  2 25  1  0  0  0
  2 86  1  0  0  0
  2 87  1  0  0  0
  3  4  1  0  0  0
  3 88  1  0  0  0
  3 89  1  0  0  0
  4  5  1  0  0  0
  4 90  1  0  0  0
  4 91  1  0  0  0
  5  6  1  0  0  0
  5 26  1  0  0  0
  5 92  1  0  0  0
  6 25  1  0  0  0
  6 93  1  0  0  0
  6 94  1  0  0  0
  7  8  2  0  0  0
  7 26  1  0  0  0
  7 29  1  0  0  0
  8  9  1  0  0  0
  8 22  1  0  0  0
  9 10  1  0  0  0
  9 27  2  0  0  0
 10 11  2  0  0  0
 10 15  1  0  0  0
 11 12  1  0  0  0
 11 95  1  0  0  0
 12 13  2  0  0  0
 12 96  1  0  0  0
 13 14  1  0  0  0
 13 31  1  0  0  0
 14 15  2  0  0  0
 14 97  1  0  0  0
 15 98  1  0  0  0
 16 17  2  0  0  0
 16 21  1  0  0  0
 16 31  1  0  0  0
 17 18  1  0  0  0
 17 99  1  0  0  0
 18 19  2  0  0  0
 18100  1  0  0  0
 19 20  1  0  0  0
 19 24  1  0  0  0
 20 21  2  0  0  0
 20101  1  0  0  0
 21 23  1  0  0  0
 22 28  1  0  0  0
 22 32  2  0  0  0
 26 27  1  0  0  0
 28102  1  0  0  0
 28103  1  0  0  0
 29104  1  0  0  0
 29105  1  0  0  0
 33 34  1  0  0  0
 33 66  1  0  0  0
 33 70  2  0  0  0
 34 36  1  0  0  0
 34 59  1  0  0  0
 34106  1  0  0  0
 35 44  2  0  0  0
 35 45  1  0  0  0
 35 68  1  0  0  0
 36 56  1  0  0  0
 36107  1  0  0  0
 37 39  1  0  0  0
 37 47  1  0  0  0
 37 66  1  0  0  0
 37108  1  0  0  0
 38 43  2  0  0  0
 38 46  1  0  0  0
 38 47  1  0  0  0
 39 64  1  0  0  0
 39 67  2  0  0  0
 40 52  1  0  0  0
 40 53  2  0  0  0
 40 58  1  0  0  0
 41109  1  0  0  0
 41110  1  0  0  0
 41111  1  0  0  0
 41 48  1  0  0  0
 42 43  1  0  0  0
 42 66  1  0  0  0
 42112  1  0  0  0
 42113  1  0  0  0
 43 44  1  0  0  0
 44114  1  0  0  0
 45 46  2  0  0  0
 45115  1  0  0  0
 46116  1  0  0  0
 47117  1  0  0  0
 47118  1  0  0  0
 48 56  1  0  0  0
 48 65  1  0  0  0
 48119  1  0  0  0
 49 50  1  0  0  0
 49 53  1  0  0  0
 49 64  1  0  0  0
 49120  1  0  0  0
 50 51  1  0  0  0
 50121  1  0  0  0
 50122  1  0  0  0
 51 52  1  0  0  0
 51123  1  0  0  0
 51124  1  0  0  0
 52125  1  0  0  0
 52126  1  0  0  0
 53 54  1  0  0  0
 54 55  2  0  0  0
 54127  1  0  0  0
 55 57  1  0  0  0
 55128  1  0  0  0
 56 69  2  0  0  0
 57 58  2  0  0  0
 57129  1  0  0  0
 58130  1  0  0  0
 59 60  1  0  0  0
 59 61  1  0  0  0
 59 62  1  0  0  0
 60131  1  0  0  0
 60132  1  0  0  0
 60133  1  0  0  0
 61134  1  0  0  0
 61135  1  0  0  0
 61136  1  0  0  0
 62137  1  0  0  0
 62138  1  0  0  0
 62139  1  0  0  0
 63 65  1  0  0  0
 63140  1  0  0  0
 63141  1  0  0  0
 63142  1  0  0  0
 64143  1  0  0  0
 65144  1  0  0  0
 68 83  1  0  0  0
 71 72  2  0  0  0
 71 74  1  0  0  0
 71145  1  0  0  0
 72 76  1  0  0  0
 72146  1  0  0  0
 73 75  1  0  0  0
 73 76  2  0  0  0
 73147  1  0  0  0
 74 75  2  0  0  0
 74 80  1  0  0  0
 75 77  1  0  0  0
 76 84  1  0  0  0
 77 78  1  0  0  0
 77148  1  0  0  0
 77149  1  0  0  0
 78 79  1  0  0  0
 78150  1  0  0  0
 78151  1  0  0  0
 79 80  1  0  0  0
 79152  1  0  0  0
 79153  1  0  0  0
 80 85  1  0  0  0
 80154  1  0  0  0
 81 85  1  0  0  0
 81155  1  0  0  0
 81156  1  0  0  0
 81157  1  0  0  0
 82 83  1  0  0  0
 82 84  1  0  0  0
 82158  1  0  0  0
 82159  1  0  0  0
 83160  1  0  0  0
 83161  1  0  0  0
 84162  1  0  0  0
M  ISO  4   1 100  68 101  83 101  85 100
M  END
> <chiral flag>
0

> <version>
0

> <s_m_source_file>
/data/baiqing/PycharmProjects/Reinvent-master-3.2/result/LINK_invent/BTK/process_docking_weight1_custom_product_contain_oxygen_bond_distance_aromatic_linkinvent_7_9_3/rearranged_h_0024.sdf

> <i_m_source_file_index>
39

> <r_mmod_Potential_Energy-OPLS-2005>
270.756256103516

> <r_mmod_Stretch_Energy-OPLS-2005>
93.4482574462891

> <r_mmod_Bend_Energy-OPLS-2005>
176.44660949707

> <r_mmod_Torsional_Energy-OPLS-2005>
284.084991455078

> <r_mmod_Improper_Torsional_Energy-OPLS-2005>
6.82196474075317

> <r_mmod_Van_der_Waal_Energy-OPLS-2005>
169.954162597656

> <r_mmod_Electrostatic_Energy-OPLS-2005>
-311.513977050781

> <r_mmod_Solvation_Energy-OPLS-2005>
-203.876205444336

> <b_mmod_Minimization_Converged-OPLS-2005>
0

> <r_mmod_RMS_Derivative-OPLS-2005>
2.67695093154907

$$$$
39
                    3D
 Structure written by MMmdl.
172181  0  0  1  0            999 V2000
  -29.5436  -14.5910   20.6101 C   0  0  0  0  0  0
  -30.5520  -12.7047   19.3070 C   0  0  0  0  0  0
  -29.5853  -12.3968   18.1245 C   0  0  0  0  0  0
  -28.1298  -12.8636   18.3525 C   0  0  0  0  0  0
  -27.7169  -12.5031   19.7663 C   0  0  2  0  0  0
  -28.8204  -12.3398   20.8249 C   0  0  0  0  0  0
  -25.7575  -14.1866   20.7817 C   0  0  0  0  0  0
  -24.4519  -13.3486   20.7866 C   0  0  0  0  0  0
  -24.6593  -11.9052   20.8001 C   0  0  0  0  0  0
  -23.8940  -10.5957   20.9969 C   0  0  0  0  0  0
  -24.3532   -9.5692   21.8786 C   0  0  0  0  0  0
  -23.6526   -8.3444   22.0589 C   0  0  0  0  0  0
  -22.4509   -8.0988   21.3499 C   0  0  0  0  0  0
  -21.9988   -9.0937   20.4596 C   0  0  0  0  0  0
  -22.7043  -10.3102   20.2847 C   0  0  0  0  0  0
  -21.7126   -6.1037   22.5190 C   0  0  0  0  0  0
  -21.4246   -6.5894   23.8152 C   0  0  0  0  0  0
  -21.3812   -5.6989   24.9118 C   0  0  0  0  0  0
  -21.6045   -4.3218   24.7118 C   0  0  0  0  0  0
  -21.8778   -3.8370   23.4218 C   0  0  0  0  0  0
  -21.9247   -4.7217   22.3306 C   0  0  0  0  0  0
  -22.9514  -13.6568   21.0701 C   0  0  0  0  0  0
  -22.1680   -4.2390   21.0861 F   0  0  0  0  0  0
  -21.5544   -3.4626   25.7596 F   0  0  0  0  0  0
  -29.8074  -13.2728   20.4550 N   0  0  0  0  0  0
  -26.4178  -12.9629   20.2479 N   0  0  0  0  0  0
  -25.8689  -11.7563   20.5369 N   0  0  0  0  0  0
  -22.2960  -12.9465   22.0012 N   0  0  0  0  0  0
  -26.5215  -16.0975   21.9331 N   0  0  0  0  0  0
  -30.5442  -15.2949   20.2912 O   0  0  0  0  0  0
  -21.7162   -6.9265   21.4140 O   0  0  0  0  0  0
  -22.3023  -14.5050   20.4756 O   0  0  0  0  0  0
  -24.6652  -31.8250   23.1838 C   0  0  0  0  0  0
  -25.9346  -32.4612   23.8243 C   0  0  1  0  0  0
  -27.0061  -26.8587   20.1673 C   0  0  0  0  0  0
  -25.6019  -33.8443   24.2120 N   0  0  0  0  0  0
  -23.4692  -30.4574   21.5365 C   0  0  2  0  0  0
  -24.8869  -28.8745   20.0934 C   0  0  0  0  0  0
  -22.7685  -29.4438   22.4752 C   0  0  0  0  0  0
  -18.0321  -28.1412   22.8463 C   0  0  0  0  0  0
  -24.1483  -36.7234   23.2634 C   0  0  0  0  0  0
  -26.0451  -30.5974   21.4385 C   0  0  0  0  0  0
  -26.0724  -29.1955   20.7650 C   0  0  0  0  0  0
  -27.1436  -28.1945   20.7963 C   0  0  0  0  0  0
  -25.8593  -26.7520   19.3726 C   0  0  0  0  0  0
  -24.8118  -27.6844   19.3687 C   0  0  0  0  0  0
  -23.7016  -29.8238   20.1422 C   0  0  0  0  0  0
  -25.4128  -36.3001   24.0287 C   0  0  1  0  0  0
  -20.5945  -28.3752   23.1198 C   0  0  2  0  0  0
  -20.6815  -26.9414   22.5422 C   0  0  0  0  0  0
  -19.5765  -26.6353   21.5261 C   0  0  0  0  0  0
  -18.1941  -26.7950   22.1641 C   0  0  0  0  0  0
  -19.1572  -28.8911   23.2813 C   0  0  0  0  0  0
  -18.9468  -30.1509   23.8833 C   0  0  0  0  0  0
  -17.6451  -30.6595   24.0545 C   0  0  0  0  0  0
  -25.9096  -34.9376   23.4990 C   0  0  0  0  0  0
  -16.5356  -29.9055   23.6343 C   0  0  0  0  0  0
  -16.7302  -28.6490   23.0351 C   0  0  0  0  0  0
  -26.4535  -31.6640   25.0833 C   0  0  0  0  0  0
  -25.3609  -31.3979   26.1471 C   0  0  0  0  0  0
  -27.0447  -30.2991   24.6711 C   0  0  0  0  0  0
  -27.6036  -32.4473   25.7582 C   0  0  0  0  0  0
  -27.5588  -37.1772   24.8430 C   0  0  0  0  0  0
  -21.4374  -29.3037   22.3556 N   0  0  0  0  0  0
  -26.4275  -37.3736   23.9403 N   0  0  0  0  0  0
  -24.7481  -30.9896   22.1029 N   0  0  0  0  0  0
  -23.4283  -28.7899   23.2874 O   0  0  0  0  0  0
  -27.7801  -25.5976   20.2266 O   0  0  0  0  0  0
  -26.5658  -34.8879   22.4580 O   0  0  0  0  0  0
  -23.5731  -32.1256   23.6934 O   0  0  0  0  0  0
  -24.9549  -14.8445   22.8233 C   0  0  0  0  0  0
  -26.2507  -21.1325   17.7230 C   0  0  0  0  0  0
  -26.9202  -22.4519   18.2440 C   0  0  0  0  0  0
  -24.6510  -16.1834   20.7869 C   0  0  0  0  0  0
  -27.1861  -14.0770   22.5917 C   0  0  0  0  0  0
  -26.9483  -19.7734   18.1004 C   0  0  0  0  0  0
  -27.4350  -20.8369   20.2925 C   0  0  0  0  0  0
  -26.9864  -22.4754   19.7848 C   0  0  1  0  0  0
  -26.7670  -16.1878   19.7506 C   0  0  1  0  0  0
  -25.7713  -23.9992   22.7953 C   0  0  0  0  0  0
  -28.1814  -24.5113   22.8743 C   0  0  0  0  0  0
  -27.4187  -17.9052   19.9028 C   0  0  0  0  0  0
  -27.0539  -24.1584   20.5423 C   0  0  1  0  0  0
  -28.0892  -14.8983   20.8422 N   0  0  0  0  0  0
  -26.8946  -19.4553   19.5613 N   0  3  2  0  0  0
  -27.0957  -23.8345   22.1294 N   0  3  0  0  0  0
  -31.3049  -13.4103   18.9445 H   0  0  0  0  0  0
  -31.1316  -11.8242   19.6070 H   0  0  0  0  0  0
  -29.5668  -11.3140   17.9872 H   0  0  0  0  0  0
  -29.9701  -12.8029   17.1841 H   0  0  0  0  0  0
  -27.4478  -12.4375   17.6132 H   0  0  0  0  0  0
  -28.0868  -13.9417   18.2014 H   0  0  0  0  0  0
  -27.6546  -11.4419   19.4863 H   0  0  0  0  0  0
  -29.2350  -11.3331   20.7054 H   0  0  0  0  0  0
  -28.6490  -12.2830   21.8827 H   0  0  0  0  0  0
  -25.2678   -9.7374   22.4330 H   0  0  0  0  0  0
  -24.0496   -7.5998   22.7376 H   0  0  0  0  0  0
  -21.0949   -8.9299   19.8928 H   0  0  0  0  0  0
  -22.3151  -11.0489   19.5987 H   0  0  0  0  0  0
  -21.2397   -7.6413   23.9769 H   0  0  0  0  0  0
  -21.1632   -6.0673   25.9009 H   0  0  0  0  0  0
  -22.0380   -2.7818   23.2632 H   0  0  0  0  0  0
  -22.7741  -12.2727   22.5757 H   0  0  0  0  0  0
  -21.3198  -13.1413   22.1856 H   0  0  0  0  0  0
  -25.8925  -16.3726   22.6761 H   0  0  0  0  0  0
  -27.4672  -15.9494   22.2689 H   0  0  0  0  0  0
  -26.7392  -32.5039   23.0905 H   0  0  0  0  0  0
  -25.0193  -33.9566   25.0280 H   0  0  0  0  0  0
  -22.7829  -31.2939   21.3964 H   0  0  0  0  0  0
  -23.3774  -35.9524   23.3231 H   0  0  0  0  0  0
  -24.3553  -36.8964   22.2059 H   0  0  0  0  0  0
  -23.7192  -37.6383   23.6741 H   0  0  0  0  0  0
  -26.2663  -31.3427   20.6738 H   0  0  0  0  0  0
  -26.8949  -30.6212   22.1054 H   0  0  0  0  0  0
  -28.0207  -28.3996   21.3924 H   0  0  0  0  0  0
  -25.7099  -25.8608   18.7816 H   0  0  0  0  0  0
  -23.9225  -27.4641   18.7935 H   0  0  0  0  0  0
  -23.8873  -30.6151   19.4141 H   0  0  0  0  0  0
  -22.8029  -29.3063   19.8025 H   0  0  0  0  0  0
  -25.1317  -36.1791   25.0770 H   0  0  0  0  0  0
  -21.0012  -28.3371   24.1329 H   0  0  0  0  0  0
  -20.5768  -26.2326   23.3652 H   0  0  0  0  0  0
  -21.6662  -26.7421   22.1156 H   0  0  0  0  0  0
  -19.6881  -25.6246   21.1311 H   0  0  0  0  0  0
  -19.6722  -27.3152   20.6784 H   0  0  0  0  0  0
  -17.4222  -26.6723   21.4033 H   0  0  0  0  0  0
  -18.0271  -26.0131   22.9060 H   0  0  0  0  0  0
  -19.7937  -30.7359   24.2160 H   0  0  0  0  0  0
  -17.4990  -31.6267   24.5168 H   0  0  0  0  0  0
  -15.5347  -30.2908   23.7745 H   0  0  0  0  0  0
  -15.8716  -28.0811   22.7057 H   0  0  0  0  0  0
  -24.5722  -30.7426   25.7754 H   0  0  0  0  0  0
  -24.8855  -32.3235   26.4767 H   0  0  0  0  0  0
  -25.7746  -30.9180   27.0359 H   0  0  0  0  0  0
  -26.3119  -29.6581   24.1807 H   0  0  0  0  0  0
  -27.4001  -29.7494   25.5446 H   0  0  0  0  0  0
  -27.9083  -30.4162   24.0157 H   0  0  0  0  0  0
  -27.2627  -33.3818   26.2065 H   0  0  0  0  0  0
  -28.3858  -32.7003   25.0406 H   0  0  0  0  0  0
  -28.0707  -31.8689   26.5573 H   0  0  0  0  0  0
  -28.2519  -38.0159   24.7573 H   0  0  0  0  0  0
  -28.1187  -36.2692   24.6131 H   0  0  0  0  0  0
  -27.2334  -37.1248   25.8838 H   0  0  0  0  0  0
  -20.9593  -29.8844   21.6808 H   0  0  0  0  0  0
  -26.0134  -38.2788   24.1459 H   0  0  0  0  0  0
  -24.2746  -14.0642   23.1569 H   0  0  0  0  0  0
  -24.8906  -15.5111   23.6936 H   0  0  0  0  0  0
  -26.1828  -21.1989   16.6332 H   0  0  0  0  0  0
  -25.2103  -21.0976   18.0606 H   0  0  0  0  0  0
  -26.3452  -23.3066   17.8855 H   0  0  0  0  0  0
  -27.9143  -22.5571   17.8128 H   0  0  0  0  0  0
  -24.3609  -17.1928   21.0773 H   0  0  0  0  0  0
  -23.9273  -15.9432   20.0242 H   0  0  0  0  0  0
  -27.0929  -13.0030   22.7323 H   0  0  0  0  0  0
  -27.7629  -14.4021   23.4599 H   0  0  0  0  0  0
  -27.9878  -19.8246   17.7739 H   0  0  0  0  0  0
  -26.4936  -18.9581   17.5356 H   0  0  0  0  0  0
  -27.2169  -20.7322   21.3575 H   0  0  0  0  0  0
  -28.5219  -20.7809   20.2347 H   0  0  0  0  0  0
  -25.9311  -22.3276   20.0209 H   0  0  0  0  0  0
  -26.6904  -15.8907   18.7005 H   0  0  0  0  0  0
  -25.8576  -24.0183   23.8813 H   0  0  0  0  0  0
  -25.1204  -23.1595   22.5438 H   0  0  0  0  0  0
  -25.2633  -24.9149   22.4901 H   0  0  0  0  0  0
  -28.1789  -24.1837   23.9166 H   0  0  0  0  0  0
  -28.0752  -25.5981   22.8618 H   0  0  0  0  0  0
  -29.1571  -24.2456   22.4627 H   0  0  0  0  0  0
  -28.3963  -17.8626   19.4242 H   0  0  0  0  0  0
  -27.6836  -18.0248   20.9503 H   0  0  0  0  0  0
  -26.0179  -24.4563   20.4069 H   0  0  0  0  0  0
  -25.9152  -19.4079   19.7977 H   0  0  0  0  0  0
  -27.3052  -22.8572   22.2438 H   0  0  0  0  0  0
  1 25  1  0  0  0
  1 30  2  0  0  0
  1 84  1  0  0  0
  2  3  1  0  0  0
  2 25  1  0  0  0
  2 87  1  0  0  0
  2 88  1  0  0  0
  3  4  1  0  0  0
  3 89  1  0  0  0
  3 90  1  0  0  0
  4  5  1  0  0  0
  4 91  1  0  0  0
  4 92  1  0  0  0
  5  6  1  0  0  0
  5 26  1  0  0  0
  5 93  1  0  0  0
  6 25  1  0  0  0
  6 94  1  0  0  0
  6 95  1  0  0  0
  7  8  2  0  0  0
  7 26  1  0  0  0
  7 29  1  0  0  0
  8  9  1  0  0  0
  8 22  1  0  0  0
  9 10  1  0  0  0
  9 27  2  0  0  0
 10 11  2  0  0  0
 10 15  1  0  0  0
 11 12  1  0  0  0
 11 96  1  0  0  0
 12 13  2  0  0  0
 12 97  1  0  0  0
 13 14  1  0  0  0
 13 31  1  0  0  0
 14 15  2  0  0  0
 14 98  1  0  0  0
 15 99  1  0  0  0
 16 17  2  0  0  0
 16 21  1  0  0  0
 16 31  1  0  0  0
 17 18  1  0  0  0
 17100  1  0  0  0
 18 19  2  0  0  0
 18101  1  0  0  0
 19 20  1  0  0  0
 19 24  1  0  0  0
 20 21  2  0  0  0
 20102  1  0  0  0
 21 23  1  0  0  0
 22 28  1  0  0  0
 22 32  2  0  0  0
 26 27  1  0  0  0
 28103  1  0  0  0
 28104  1  0  0  0
 29105  1  0  0  0
 29106  1  0  0  0
 33 34  1  0  0  0
 33 66  1  0  0  0
 33 70  2  0  0  0
 34 36  1  0  0  0
 34 59  1  0  0  0
 34107  1  0  0  0
 35 44  2  0  0  0
 35 45  1  0  0  0
 35 68  1  0  0  0
 36 56  1  0  0  0
 36108  1  0  0  0
 37 39  1  0  0  0
 37 47  1  0  0  0
 37 66  1  0  0  0
 37109  1  0  0  0
 38 43  2  0  0  0
 38 46  1  0  0  0
 38 47  1  0  0  0
 39 64  1  0  0  0
 39 67  2  0  0  0
 40 52  1  0  0  0
 40 53  2  0  0  0
 40 58  1  0  0  0
 41110  1  0  0  0
 41111  1  0  0  0
 41112  1  0  0  0
 41 48  1  0  0  0
 42 43  1  0  0  0
 42 66  1  0  0  0
 42113  1  0  0  0
 42114  1  0  0  0
 43 44  1  0  0  0
 44115  1  0  0  0
 45 46  2  0  0  0
 45116  1  0  0  0
 46117  1  0  0  0
 47118  1  0  0  0
 47119  1  0  0  0
 48 56  1  0  0  0
 48 65  1  0  0  0
 48120  1  0  0  0
 49 50  1  0  0  0
 49 53  1  0  0  0
 49 64  1  0  0  0
 49121  1  0  0  0
 50 51  1  0  0  0
 50122  1  0  0  0
 50123  1  0  0  0
 51 52  1  0  0  0
 51124  1  0  0  0
 51125  1  0  0  0
 52126  1  0  0  0
 52127  1  0  0  0
 53 54  1  0  0  0
 54 55  2  0  0  0
 54128  1  0  0  0
 55 57  1  0  0  0
 55129  1  0  0  0
 56 69  2  0  0  0
 57 58  2  0  0  0
 57130  1  0  0  0
 58131  1  0  0  0
 59 60  1  0  0  0
 59 61  1  0  0  0
 59 62  1  0  0  0
 60132  1  0  0  0
 60133  1  0  0  0
 60134  1  0  0  0
 61135  1  0  0  0
 61136  1  0  0  0
 61137  1  0  0  0
 62138  1  0  0  0
 62139  1  0  0  0
 62140  1  0  0  0
 63 65  1  0  0  0
 63141  1  0  0  0
 63142  1  0  0  0
 63143  1  0  0  0
 64144  1  0  0  0
 65145  1  0  0  0
 68 83  1  0  0  0
 71 74  1  0  0  0
 71 75  1  0  0  0
 71146  1  0  0  0
 71147  1  0  0  0
 72 73  1  0  0  0
 72 76  1  0  0  0
 72148  1  0  0  0
 72149  1  0  0  0
 73150  1  0  0  0
 73151  1  0  0  0
 73 78  1  0  0  0
 74 79  1  0  0  0
 74152  1  0  0  0
 74153  1  0  0  0
 75 84  1  0  0  0
 75154  1  0  0  0
 75155  1  0  0  0
 76 85  1  0  0  0
 76156  1  0  0  0
 76157  1  0  0  0
 77 78  1  0  0  0
 77 85  1  0  0  0
 77158  1  0  0  0
 77159  1  0  0  0
 78 83  1  0  0  0
 78160  1  0  0  0
 79 82  1  0  0  0
 79 84  1  0  0  0
 79161  1  0  0  0
 80162  1  0  0  0
 80163  1  0  0  0
 80164  1  0  0  0
 80 86  1  0  0  0
 81 86  1  0  0  0
 81165  1  0  0  0
 81166  1  0  0  0
 81167  1  0  0  0
 82168  1  0  0  0
 82169  1  0  0  0
 82 85  1  0  0  0
 83 86  1  0  0  0
 83170  1  0  0  0
 85171  1  0  0  0
 86172  1  0  0  0
M  CHG  2  85   1  86   1
M  ISO  4   1 100  68 101  83 101  84 100
M  END
> <chiral flag>
0

> <version>
0

> <s_m_source_file>
/data/baiqing/PycharmProjects/Reinvent-master-3.2/result/LINK_invent/BTK/process_docking_weight1_custom_product_contain_oxygen_bond_distance_aromatic_linkinvent_7_9_3/rearranged_h_0024.sdf

> <i_m_source_file_index>
40

> <r_mmod_Potential_Energy-OPLS-2005>
10748.703125

> <r_mmod_Stretch_Energy-OPLS-2005>
6286.27880859375

> <r_mmod_Bend_Energy-OPLS-2005>
813.433959960938

> <r_mmod_Torsional_Energy-OPLS-2005>
574.495422363281

> <r_mmod_Improper_Torsional_Energy-OPLS-2005>
29.735897064209

> <r_mmod_Van_der_Waal_Energy-OPLS-2005>
2485.21435546875

> <r_mmod_Electrostatic_Energy-OPLS-2005>
82.714729309082

> <r_mmod_Solvation_Energy-OPLS-2005>
-874.790466308594

> <b_mmod_Minimization_Converged-OPLS-2005>
0

> <r_mmod_RMS_Derivative-OPLS-2005>
15.0269384384155

$$$$
40
                    3D
 Structure written by MMmdl.
170180  0  0  1  0            999 V2000
  -29.5288  -16.6335   20.6696 C   0  0  0  0  0  0
  -30.2143  -13.9220   19.7261 C   0  0  0  0  0  0
  -29.5716  -13.0506   18.5492 C   0  0  0  0  0  0
  -28.2448  -12.3967   18.9548 C   0  0  0  0  0  0
  -27.5294  -13.3978   19.8744 C   0  0  2  0  0  0
  -28.3759  -14.0366   21.0208 C   0  0  0  0  0  0
  -25.1862  -13.8342   20.5919 C   0  0  0  0  0  0
  -24.1391  -13.0373   20.9309 C   0  0  0  0  0  0
  -24.6270  -11.6930   20.8780 C   0  0  0  0  0  0
  -23.9068  -10.4267   21.0404 C   0  0  0  0  0  0
  -24.3644   -9.4206   21.9180 C   0  0  0  0  0  0
  -23.6331   -8.2238   22.0758 C   0  0  0  0  0  0
  -22.4306   -8.0278   21.3543 C   0  0  0  0  0  0
  -21.9933   -9.0239   20.4627 C   0  0  0  0  0  0
  -22.7257  -10.2113   20.3039 C   0  0  0  0  0  0
  -21.6865   -6.0757   22.5294 C   0  0  0  0  0  0
  -21.4024   -6.5656   23.8228 C   0  0  0  0  0  0
  -21.3657   -5.6798   24.9179 C   0  0  0  0  0  0
  -21.6033   -4.3061   24.7219 C   0  0  0  0  0  0
  -21.8822   -3.8165   23.4339 C   0  0  0  0  0  0
  -21.9208   -4.6990   22.3405 C   0  0  0  0  0  0
  -22.7428  -13.5086   21.1933 C   0  0  0  0  0  0
  -22.1666   -4.2177   21.0979 F   0  0  0  0  0  0
  -21.5626   -3.4544   25.7733 F   0  0  0  0  0  0
  -29.3042  -15.0718   20.4277 N   0  0  0  0  0  0
  -26.2364  -12.9778   20.3455 N   0  0  0  0  0  0
  -25.9232  -11.6762   20.5717 N   0  0  0  0  0  0
  -22.0158  -12.8063   22.0509 N   0  0  0  0  0  0
  -25.3323  -15.2131   20.4430 N   0  0  0  0  0  0
  -30.8027  -16.5236   20.5402 O   0  0  0  0  0  0
  -21.6648   -6.8892   21.4259 O   0  0  0  0  0  0
  -22.3105  -14.5392   20.6784 O   0  0  0  0  0  0
  -25.1638  -31.7299   23.3969 C   0  0  0  0  0  0
  -26.3601  -32.4686   23.9197 C   0  0  1  0  0  0
  -27.7428  -27.3704   19.7818 C   0  0  0  0  0  0
  -25.9645  -33.8695   24.2805 N   0  0  0  0  0  0
  -23.2104  -28.8836   21.7677 C   0  0  2  0  0  0
  -25.2560  -28.4554   19.6219 C   0  0  0  0  0  0
  -22.1921  -28.1920   22.4087 C   0  0  0  0  0  0
  -17.7557  -28.1426   22.8262 C   0  0  0  0  0  0
  -24.1716  -36.6745   23.2520 C   0  0  0  0  0  0
  -26.5005  -30.3664   21.6611 C   0  0  0  0  0  0
  -26.4537  -29.3036   20.2718 C   0  0  0  0  0  0
  -27.6601  -28.6588   20.2783 C   0  0  0  0  0  0
  -26.7261  -26.8015   18.9990 C   0  0  0  0  0  0
  -25.4821  -27.3768   18.8488 C   0  0  0  0  0  0
  -23.6562  -28.1674   20.2003 C   0  0  0  0  0  0
  -25.4440  -36.2740   24.0200 C   0  0  1  0  0  0
  -20.1692  -28.0116   23.2853 C   0  0  2  0  0  0
  -20.0663  -26.5482   22.7155 C   0  0  0  0  0  0
  -19.1902  -26.5252   21.5046 C   0  0  0  0  0  0
  -17.8145  -26.8226   22.0698 C   0  0  0  0  0  0
  -18.9001  -28.7602   23.3474 C   0  0  0  0  0  0
  -18.8516  -30.0451   23.9289 C   0  0  0  0  0  0
  -17.6083  -30.6809   24.0640 C   0  0  0  0  0  0
  -26.0172  -34.9401   23.4855 C   0  0  0  0  0  0
  -16.4424  -30.0216   23.6323 C   0  0  0  0  0  0
  -16.5183  -28.7623   23.0121 C   0  0  0  0  0  0
  -26.7363  -31.6884   25.2200 C   0  0  0  0  0  0
  -25.5806  -31.3618   26.2231 C   0  0  0  0  0  0
  -27.4843  -30.3835   24.8758 C   0  0  0  0  0  0
  -27.7621  -32.5381   25.9705 C   0  0  0  0  0  0
  -27.5674  -37.1868   24.8500 C   0  0  0  0  0  0
  -21.0056  -28.7371   22.4501 N   0  0  0  0  0  0
  -26.4210  -37.3843   23.9684 N   0  0  0  0  0  0
  -25.1764  -30.4497   22.6652 N   0  0  0  0  0  0
  -22.5657  -27.3321   23.1650 O   0  0  0  0  0  0
  -28.9539  -26.7606   19.8439 O   0  0  0  0  0  0
  -26.5553  -34.8977   22.3802 O   0  0  0  0  0  0
  -24.1543  -32.3544   23.8381 O   0  0  0  0  0  0
  -26.2860  -23.4294   20.7361 C   0  0  0  0  0  0
  -25.7191  -24.9974   20.9325 C   0  0  0  0  0  0
  -27.1393  -23.5317   22.5000 C   0  0  0  0  0  0
  -27.1812  -22.2951   21.4509 C   0  0  0  0  0  0
  -26.5920  -25.1220   22.7089 C   0  0  0  0  0  0
  -25.8008  -26.3010   21.8998 C   0  0  0  0  0  0
  -29.5865  -25.5014   23.3939 C   0  0  0  0  0  0
  -23.2301  -29.9848   23.8826 C   0  0  0  0  0  0
  -22.9680  -31.1213   22.0764 C   0  0  0  0  0  0
  -24.6364  -28.4558   23.7127 C   0  0  0  0  0  0
  -24.3219  -30.3655   20.6897 C   0  0  0  0  0  0
  -28.8737  -27.3952   23.1602 C   0  0  0  0  0  0
  -29.7768  -26.5399   22.2666 C   0  0  2  0  0  0
  -27.1225  -25.6492   24.0474 C   0  0  0  0  0  0
  -28.2085  -20.2966   21.0596 C   0  0  0  0  0  0
  -29.2988  -25.9032   20.9311 C   0  0  0  0  0  0
  -25.2859  -28.1527   22.0702 N   0  0  0  0  0  0
  -28.4611  -26.1601   23.8162 N   0  0  0  0  0  0
  -28.5731  -18.1704   20.8793 N   0  0  0  0  0  0
  -30.0447  -24.4199   23.7046 O   0  0  0  0  0  0
  -31.0941  -14.4049   19.2862 H   0  0  0  0  0  0
  -30.6099  -13.2605   20.5033 H   0  0  0  0  0  0
  -30.2852  -12.3096   18.1896 H   0  0  0  0  0  0
  -29.3931  -13.7175   17.7042 H   0  0  0  0  0  0
  -28.4440  -11.4714   19.5042 H   0  0  0  0  0  0
  -27.6358  -12.1305   18.0886 H   0  0  0  0  0  0
  -27.2949  -14.2150   19.1891 H   0  0  0  0  0  0
  -28.8827  -13.2801   21.6221 H   0  0  0  0  0  0
  -27.7178  -14.5549   21.7244 H   0  0  0  0  0  0
  -25.2804   -9.5713   22.4723 H   0  0  0  0  0  0
  -24.0053   -7.4657   22.7512 H   0  0  0  0  0  0
  -21.0848   -8.8777   19.8943 H   0  0  0  0  0  0
  -22.3743  -10.9654   19.6129 H   0  0  0  0  0  0
  -21.2008   -7.6164   23.9733 H   0  0  0  0  0  0
  -21.1463   -6.0523   25.9076 H   0  0  0  0  0  0
  -22.0598   -2.7635   23.2830 H   0  0  0  0  0  0
  -22.3877  -11.9761   22.4874 H   0  0  0  0  0  0
  -21.0778  -13.1042   22.2772 H   0  0  0  0  0  0
  -24.5643  -15.8620   20.5718 H   0  0  0  0  0  0
  -26.1765  -15.6617   20.1169 H   0  0  0  0  0  0
  -27.1839  -32.4812   23.2062 H   0  0  0  0  0  0
  -25.4641  -33.9703   25.1505 H   0  0  0  0  0  0
  -22.4560  -29.2551   21.0506 H   0  0  0  0  0  0
  -23.4413  -35.8638   23.2608 H   0  0  0  0  0  0
  -24.3872  -36.9045   22.2074 H   0  0  0  0  0  0
  -23.6894  -37.5474   23.6942 H   0  0  0  0  0  0
  -26.7460  -31.3590   21.2829 H   0  0  0  0  0  0
  -27.3814  -30.1224   22.2463 H   0  0  0  0  0  0
  -28.5199  -29.0777   20.7797 H   0  0  0  0  0  0
  -26.9242  -25.8553   18.5197 H   0  0  0  0  0  0
  -24.6952  -26.8204   18.3600 H   0  0  0  0  0  0
  -22.9571  -28.4007   19.3891 H   0  0  0  0  0  0
  -23.5251  -27.0898   20.3209 H   0  0  0  0  0  0
  -25.1534  -36.1253   25.0628 H   0  0  0  0  0  0
  -20.5366  -27.9812   24.3165 H   0  0  0  0  0  0
  -19.6330  -25.9209   23.4958 H   0  0  0  0  0  0
  -20.9480  -25.9723   22.4411 H   0  0  0  0  0  0
  -19.1945  -25.5451   21.0255 H   0  0  0  0  0  0
  -19.4834  -27.2640   20.7564 H   0  0  0  0  0  0
  -17.0793  -26.8291   21.2633 H   0  0  0  0  0  0
  -17.4959  -26.0291   22.7470 H   0  0  0  0  0  0
  -19.7513  -30.5205   24.2946 H   0  0  0  0  0  0
  -17.5459  -31.6606   24.5179 H   0  0  0  0  0  0
  -15.4798  -30.5012   23.7556 H   0  0  0  0  0  0
  -15.6139  -28.2891   22.6567 H   0  0  0  0  0  0
  -25.1251  -30.3964   26.0170 H   0  0  0  0  0  0
  -24.8049  -32.1268   26.2535 H   0  0  0  0  0  0
  -25.9597  -31.2836   27.2420 H   0  0  0  0  0  0
  -27.0203  -29.6989   24.2037 H   0  0  0  0  0  0
  -27.6944  -29.8151   25.7823 H   0  0  0  0  0  0
  -28.4524  -30.6114   24.4266 H   0  0  0  0  0  0
  -27.3110  -33.4096   26.4471 H   0  0  0  0  0  0
  -28.5546  -32.8970   25.3114 H   0  0  0  0  0  0
  -28.2411  -31.9713   26.7702 H   0  0  0  0  0  0
  -28.2152  -38.0636   24.8235 H   0  0  0  0  0  0
  -28.1737  -36.3299   24.5520 H   0  0  0  0  0  0
  -27.2565  -37.0415   25.8866 H   0  0  0  0  0  0
  -20.7049  -29.5575   21.9450 H   0  0  0  0  0  0
  -25.9769  -38.2636   24.2240 H   0  0  0  0  0  0
  -25.9208  -23.0362   19.7985 H   0  0  0  0  0  0
  -25.0778  -25.2084   20.0920 H   0  0  0  0  0  0
  -27.6862  -23.2232   23.3778 H   0  0  0  0  0  0
  -22.2789  -29.6864   24.3215 H   0  0  0  0  0  0
  -23.4136  -30.5157   24.8073 H   0  0  0  0  0  0
  -22.9405  -32.2126   22.0384 H   0  0  0  0  0  0
  -21.9310  -31.0454   21.7451 H   0  0  0  0  0  0
  -24.4001  -27.5395   24.2518 H   0  0  0  0  0  0
  -25.4377  -28.7013   24.3854 H   0  0  0  0  0  0
  -24.9261  -31.2170   20.3641 H   0  0  0  0  0  0
  -23.7804  -30.3269   19.7351 H   0  0  0  0  0  0
  -28.0604  -27.9162   22.6708 H   0  0  0  0  0  0
  -29.4230  -28.0733   23.8206 H   0  0  0  0  0  0
  -30.7784  -26.9620   22.2095 H   0  0  0  0  0  0
  -27.1135  -24.8956   24.8394 H   0  0  0  0  0  0
  -26.5024  -26.4655   24.4154 H   0  0  0  0  0  0
  -29.2051  -20.5510   21.4127 H   0  0  0  0  0  0
  -28.1632  -20.4818   19.9803 H   0  0  0  0  0  0
  -28.5008  -25.1861   21.0583 H   0  0  0  0  0  0
  -30.1222  -25.3008   20.5451 H   0  0  0  0  0  0
  -27.6478  -17.8148   20.6981 H   0  0  0  0  0  0
  1 25  1  0  0  0
  1 30  2  0  0  0
  1 89  1  0  0  0
  2  3  1  0  0  0
  2 25  1  0  0  0
  2 91  1  0  0  0
  2 92  1  0  0  0
  3  4  1  0  0  0
  3 93  1  0  0  0
  3 94  1  0  0  0
  4  5  1  0  0  0
  4 95  1  0  0  0
  4 96  1  0  0  0
  5  6  1  0  0  0
  5 26  1  0  0  0
  5 97  1  0  0  0
  6 25  1  0  0  0
  6 98  1  0  0  0
  6 99  1  0  0  0
  7  8  2  0  0  0
  7 26  1  0  0  0
  7 29  1  0  0  0
  8  9  1  0  0  0
  8 22  1  0  0  0
  9 10  1  0  0  0
  9 27  2  0  0  0
 10 11  2  0  0  0
 10 15  1  0  0  0
 11 12  1  0  0  0
 11100  1  0  0  0
 12 13  2  0  0  0
 12101  1  0  0  0
 13 14  1  0  0  0
 13 31  1  0  0  0
 14 15  2  0  0  0
 14102  1  0  0  0
 15103  1  0  0  0
 16 17  2  0  0  0
 16 21  1  0  0  0
 16 31  1  0  0  0
 17 18  1  0  0  0
 17104  1  0  0  0
 18 19  2  0  0  0
 18105  1  0  0  0
 19 20  1  0  0  0
 19 24  1  0  0  0
 20 21  2  0  0  0
 20106  1  0  0  0
 21 23  1  0  0  0
 22 28  1  0  0  0
 22 32  2  0  0  0
 26 27  1  0  0  0
 28107  1  0  0  0
 28108  1  0  0  0
 29109  1  0  0  0
 29110  1  0  0  0
 33 34  1  0  0  0
 33 66  1  0  0  0
 33 70  2  0  0  0
 34 36  1  0  0  0
 34 59  1  0  0  0
 34111  1  0  0  0
 35 44  2  0  0  0
 35 45  1  0  0  0
 35 68  1  0  0  0
 36 56  1  0  0  0
 36112  1  0  0  0
 37 39  1  0  0  0
 37 47  1  0  0  0
 37 66  1  0  0  0
 37113  1  0  0  0
 38 43  2  0  0  0
 38 46  1  0  0  0
 38 47  1  0  0  0
 39 64  1  0  0  0
 39 67  2  0  0  0
 40 52  1  0  0  0
 40 53  2  0  0  0
 40 58  1  0  0  0
 41114  1  0  0  0
 41115  1  0  0  0
 41116  1  0  0  0
 41 48  1  0  0  0
 42 43  1  0  0  0
 42 66  1  0  0  0
 42117  1  0  0  0
 42118  1  0  0  0
 43 44  1  0  0  0
 44119  1  0  0  0
 45 46  2  0  0  0
 45120  1  0  0  0
 46121  1  0  0  0
 47122  1  0  0  0
 47123  1  0  0  0
 48 56  1  0  0  0
 48 65  1  0  0  0
 48124  1  0  0  0
 49 50  1  0  0  0
 49 53  1  0  0  0
 49 64  1  0  0  0
 49125  1  0  0  0
 50 51  1  0  0  0
 50126  1  0  0  0
 50127  1  0  0  0
 51 52  1  0  0  0
 51128  1  0  0  0
 51129  1  0  0  0
 52130  1  0  0  0
 52131  1  0  0  0
 53 54  1  0  0  0
 54 55  2  0  0  0
 54132  1  0  0  0
 55 57  1  0  0  0
 55133  1  0  0  0
 56 69  2  0  0  0
 57 58  2  0  0  0
 57134  1  0  0  0
 58135  1  0  0  0
 59 60  1  0  0  0
 59 61  1  0  0  0
 59 62  1  0  0  0
 60136  1  0  0  0
 60137  1  0  0  0
 60138  1  0  0  0
 61139  1  0  0  0
 61140  1  0  0  0
 61141  1  0  0  0
 62142  1  0  0  0
 62143  1  0  0  0
 62144  1  0  0  0
 63 65  1  0  0  0
 63145  1  0  0  0
 63146  1  0  0  0
 63147  1  0  0  0
 64148  1  0  0  0
 65149  1  0  0  0
 68 86  1  0  0  0
 71 72  2  0  0  0
 71 74  1  0  0  0
 71150  1  0  0  0
 72 76  1  0  0  0
 72151  1  0  0  0
 73 74  2  0  0  0
 73 75  1  0  0  0
 73152  1  0  0  0
 74 85  1  0  0  0
 75 76  2  0  0  0
 75 84  1  0  0  0
 76 87  1  0  0  0
 77 83  1  0  0  0
 77 88  1  0  0  0
 77 90  2  0  0  0
 78 79  1  0  0  0
 78 80  1  0  0  0
 78153  1  0  0  0
 78154  1  0  0  0
 79 81  1  0  0  0
 79155  1  0  0  0
 79156  1  0  0  0
 80 87  1  0  0  0
 80157  1  0  0  0
 80158  1  0  0  0
 81 87  1  0  0  0
 81159  1  0  0  0
 81160  1  0  0  0
 82 83  1  0  0  0
 82 88  1  0  0  0
 82161  1  0  0  0
 82162  1  0  0  0
 83 86  1  0  0  0
 83163  1  0  0  0
 84 88  1  0  0  0
 84164  1  0  0  0
 84165  1  0  0  0
 85 89  1  0  0  0
 85166  1  0  0  0
 85167  1  0  0  0
 86168  1  0  0  0
 86169  1  0  0  0
 89170  1  0  0  0
M  ISO  4   1 100  68 101  86 101  89 100
M  END
> <chiral flag>
0

> <version>
0

> <s_m_source_file>
/data/baiqing/PycharmProjects/Reinvent-master-3.2/result/LINK_invent/BTK/process_docking_weight1_custom_product_contain_oxygen_bond_distance_aromatic_linkinvent_7_9_3/rearranged_h_0024.sdf

> <i_m_source_file_index>
41

> <r_mmod_Potential_Energy-OPLS-2005>
19492.361328125

> <r_mmod_Stretch_Energy-OPLS-2005>
10205.0146484375

> <r_mmod_Bend_Energy-OPLS-2005>
1985.88464355469

> <r_mmod_Torsional_Energy-OPLS-2005>
516.090698242188

> <r_mmod_Improper_Torsional_Energy-OPLS-2005>
47.0844039916992

> <r_mmod_Van_der_Waal_Energy-OPLS-2005>
3394.91967773438

> <r_mmod_Electrostatic_Energy-OPLS-2005>
-385.387817382812

> <r_mmod_Solvation_Energy-OPLS-2005>
-239.362167358398

> <b_mmod_Minimization_Converged-OPLS-2005>
0

> <r_mmod_RMS_Derivative-OPLS-2005>
14.2062540054321

$$$$
41
                    3D
 Structure written by MMmdl.
156165  0  0  1  0            999 V2000
  -30.5245  -14.9062   20.4387 C   0  0  0  0  0  0
  -30.4552  -12.5559   19.4941 C   0  0  0  0  0  0
  -29.5289  -12.5316   18.2540 C   0  0  0  0  0  0
  -28.0574  -12.3263   18.6661 C   0  0  0  0  0  0
  -27.6401  -13.2414   19.8473 C   0  0  2  0  0  0
  -28.6853  -13.2162   20.9840 C   0  0  0  0  0  0
  -25.2482  -13.8176   20.5701 C   0  0  0  0  0  0
  -24.1785  -13.0402   20.9180 C   0  0  0  0  0  0
  -24.6402  -11.6893   20.8713 C   0  0  0  0  0  0
  -23.9084  -10.4270   21.0387 C   0  0  0  0  0  0
  -24.3628   -9.4188   21.9175 C   0  0  0  0  0  0
  -23.6294   -8.2230   22.0751 C   0  0  0  0  0  0
  -22.4276   -8.0274   21.3541 C   0  0  0  0  0  0
  -21.9913   -9.0248   20.4642 C   0  0  0  0  0  0
  -22.7252  -10.2118   20.3040 C   0  0  0  0  0  0
  -21.6853   -6.0723   22.5282 C   0  0  0  0  0  0
  -21.4014   -6.5627   23.8215 C   0  0  0  0  0  0
  -21.3662   -5.6782   24.9176 C   0  0  0  0  0  0
  -21.6054   -4.3046   24.7230 C   0  0  0  0  0  0
  -21.8819   -3.8135   23.4351 C   0  0  0  0  0  0
  -21.9187   -4.6948   22.3404 C   0  0  0  0  0  0
  -22.7807  -13.5185   21.1848 C   0  0  0  0  0  0
  -22.1663   -4.2130   21.0981 F   0  0  0  0  0  0
  -21.5625   -3.4533   25.7746 F   0  0  0  0  0  0
  -29.9723  -13.6292   20.4040 N   0  0  0  0  0  0
  -26.2940  -12.9416   20.3276 N   0  0  0  0  0  0
  -25.9349  -11.6541   20.5732 N   0  0  0  0  0  0
  -22.0457  -12.8192   22.0422 N   0  0  0  0  0  0
  -25.4083  -15.1911   20.4200 N   0  0  0  0  0  0
  -31.7121  -15.0399   20.1223 O   0  0  0  0  0  0
  -21.6637   -6.8871   21.4248 O   0  0  0  0  0  0
  -22.3485  -14.5484   20.6690 O   0  0  0  0  0  0
  -24.6420  -31.8467   23.1889 C   0  0  0  0  0  0
  -25.9201  -32.4711   23.8283 C   0  0  1  0  0  0
  -27.2252  -27.1589   20.1449 C   0  0  0  0  0  0
  -25.5952  -33.8514   24.2206 N   0  0  0  0  0  0
  -23.4443  -30.4657   21.5359 C   0  0  2  0  0  0
  -24.8942  -28.8964   20.1137 C   0  0  0  0  0  0
  -22.7566  -29.4557   22.4877 C   0  0  0  0  0  0
  -18.0302  -28.1402   22.8478 C   0  0  0  0  0  0
  -24.1494  -36.7260   23.2639 C   0  0  0  0  0  0
  -25.9996  -30.7284   21.3837 C   0  0  0  0  0  0
  -26.0727  -29.3411   20.7264 C   0  0  0  0  0  0
  -27.2395  -28.4897   20.7230 C   0  0  0  0  0  0
  -26.0168  -26.8115   19.4986 C   0  0  0  0  0  0
  -24.8787  -27.6437   19.4851 C   0  0  0  0  0  0
  -23.6690  -29.7949   20.1553 C   0  0  0  0  0  0
  -25.4126  -36.3041   24.0316 C   0  0  1  0  0  0
  -20.5919  -28.3723   23.1251 C   0  0  2  0  0  0
  -20.6796  -26.9429   22.5409 C   0  0  0  0  0  0
  -19.5765  -26.6388   21.5222 C   0  0  0  0  0  0
  -18.1944  -26.7938   22.1626 C   0  0  0  0  0  0
  -19.1561  -28.8884   23.2856 C   0  0  0  0  0  0
  -18.9472  -30.1478   23.8880 C   0  0  0  0  0  0
  -17.6469  -30.6599   24.0563 C   0  0  0  0  0  0
  -25.9075  -34.9415   23.5076 C   0  0  0  0  0  0
  -16.5358  -29.9092   23.6334 C   0  0  0  0  0  0
  -16.7286  -28.6512   23.0354 C   0  0  0  0  0  0
  -26.4518  -31.6560   25.0710 C   0  0  0  0  0  0
  -25.3700  -31.3757   26.1403 C   0  0  0  0  0  0
  -27.0366  -30.2953   24.6269 C   0  0  0  0  0  0
  -27.6061  -32.4305   25.7496 C   0  0  0  0  0  0
  -27.5583  -37.1786   24.8466 C   0  0  0  0  0  0
  -21.4258  -29.3048   22.3625 N   0  0  0  0  0  0
  -26.4295  -37.3751   23.9406 N   0  0  0  0  0  0
  -24.7156  -31.0342   22.0914 N   0  0  0  0  0  0
  -23.4212  -28.8108   23.3027 O   0  0  0  0  0  0
  -28.2954  -26.1957   20.1896 O   0  0  0  0  0  0
  -26.5664  -34.8907   22.4652 O   0  0  0  0  0  0
  -23.5548  -32.1335   23.7119 O   0  0  0  0  0  0
  -30.2742  -19.9686   20.2523 C   0  0  0  0  0  0
  -30.5500  -18.5255   20.2521 C   0  0  0  0  0  0
  -28.0535  -19.5295   20.8962 C   0  0  0  0  0  0
  -29.0008  -20.5592   20.5894 C   0  0  0  0  0  0
  -29.5769  -17.5156   20.5900 C   0  0  0  0  0  0
  -28.3167  -18.1119   20.8990 C   0  0  0  0  0  0
  -29.5485  -23.1692   22.6434 C   0  0  0  0  0  0
  -30.1504  -23.7066   21.3417 C   0  0  0  0  0  0
  -28.4173  -22.2227   22.2055 C   0  0  0  0  0  0
  -29.0895  -23.3817   20.2953 C   0  0  2  0  0  0
  -28.0053  -24.6723   20.2267 C   0  0  0  0  0  0
  -28.6015  -21.9869   20.7721 N   0  0  0  0  0  0
  -29.6524  -15.9903   20.6707 N   0  0  0  0  0  0
  -27.3022  -17.2780   21.2291 F   0  0  0  0  0  0
  -31.4890  -12.7201   19.1854 H   0  0  0  0  0  0
  -30.4478  -11.5908   20.0031 H   0  0  0  0  0  0
  -29.8403  -11.7435   17.5673 H   0  0  0  0  0  0
  -29.6291  -13.4693   17.7049 H   0  0  0  0  0  0
  -27.9401  -11.2819   18.9560 H   0  0  0  0  0  0
  -27.3999  -12.4810   17.8106 H   0  0  0  0  0  0
  -27.6166  -14.2549   19.4443 H   0  0  0  0  0  0
  -28.7579  -12.2203   21.4236 H   0  0  0  0  0  0
  -28.3904  -13.8847   21.7943 H   0  0  0  0  0  0
  -25.2768   -9.5666   22.4752 H   0  0  0  0  0  0
  -23.9993   -7.4625   22.7480 H   0  0  0  0  0  0
  -21.0830   -8.8775   19.8958 H   0  0  0  0  0  0
  -22.3714  -10.9654   19.6144 H   0  0  0  0  0  0
  -21.2014   -7.6133   23.9718 H   0  0  0  0  0  0
  -21.1487   -6.0506   25.9079 H   0  0  0  0  0  0
  -22.0594   -2.7593   23.2857 H   0  0  0  0  0  0
  -22.4064  -11.9871   22.4847 H   0  0  0  0  0  0
  -21.1076  -13.1224   22.2614 H   0  0  0  0  0  0
  -24.6438  -15.8343   20.5889 H   0  0  0  0  0  0
  -26.2803  -15.6708   20.2354 H   0  0  0  0  0  0
  -26.7264  -32.5327   23.1012 H   0  0  0  0  0  0
  -25.0049  -33.9632   25.0320 H   0  0  0  0  0  0
  -22.7464  -31.2912   21.3838 H   0  0  0  0  0  0
  -23.3762  -35.9587   23.3291 H   0  0  0  0  0  0
  -24.3576  -36.8898   22.2054 H   0  0  0  0  0  0
  -23.7241  -37.6450   23.6683 H   0  0  0  0  0  0
  -26.1536  -31.4845   20.6122 H   0  0  0  0  0  0
  -26.8705  -30.7785   22.0258 H   0  0  0  0  0  0
  -28.1398  -28.8306   21.2144 H   0  0  0  0  0  0
  -25.9143  -25.8622   18.9973 H   0  0  0  0  0  0
  -23.9805  -27.2990   18.9913 H   0  0  0  0  0  0
  -23.8018  -30.5700   19.3995 H   0  0  0  0  0  0
  -22.7843  -29.2352   19.8463 H   0  0  0  0  0  0
  -25.1315  -36.1873   25.0810 H   0  0  0  0  0  0
  -21.0010  -28.3313   24.1373 H   0  0  0  0  0  0
  -20.5719  -26.2330   23.3620 H   0  0  0  0  0  0
  -21.6657  -26.7457   22.1190 H   0  0  0  0  0  0
  -19.6926  -25.6299   21.1259 H   0  0  0  0  0  0
  -19.6701  -27.3196   20.6751 H   0  0  0  0  0  0
  -17.4215  -26.6682   21.4029 H   0  0  0  0  0  0
  -18.0337  -26.0093   22.9035 H   0  0  0  0  0  0
  -19.7945  -30.7301   24.2238 H   0  0  0  0  0  0
  -17.5019  -31.6275   24.5174 H   0  0  0  0  0  0
  -15.5358  -30.2990   23.7673 H   0  0  0  0  0  0
  -15.8684  -28.0830   22.7078 H   0  0  0  0  0  0
  -24.5878  -30.7111   25.7720 H   0  0  0  0  0  0
  -24.8886  -32.2942   26.4776 H   0  0  0  0  0  0
  -25.7972  -30.8957   27.0216 H   0  0  0  0  0  0
  -26.2974  -29.6688   24.1263 H   0  0  0  0  0  0
  -27.3968  -29.7244   25.4839 H   0  0  0  0  0  0
  -27.8895  -30.4192   23.9590 H   0  0  0  0  0  0
  -27.2670  -33.3622   26.2041 H   0  0  0  0  0  0
  -28.3895  -32.6830   25.0338 H   0  0  0  0  0  0
  -28.0702  -31.8439   26.5436 H   0  0  0  0  0  0
  -28.2593  -38.0092   24.7515 H   0  0  0  0  0  0
  -28.1083  -36.2617   24.6292 H   0  0  0  0  0  0
  -27.2295  -37.1438   25.8867 H   0  0  0  0  0  0
  -20.9476  -29.8738   21.6779 H   0  0  0  0  0  0
  -26.0161  -38.2821   24.1402 H   0  0  0  0  0  0
  -31.0926  -20.6354   20.0184 H   0  0  0  0  0  0
  -31.5490  -18.2015   19.9970 H   0  0  0  0  0  0
  -27.0557  -19.8328   21.1750 H   0  0  0  0  0  0
  -29.1556  -23.9749   23.2655 H   0  0  0  0  0  0
  -30.3084  -22.6459   23.2264 H   0  0  0  0  0  0
  -31.0695  -23.1659   21.1109 H   0  0  0  0  0  0
  -30.3995  -24.7672   21.3882 H   0  0  0  0  0  0
  -27.4426  -22.6858   22.3689 H   0  0  0  0  0  0
  -28.4303  -21.3161   22.8132 H   0  0  0  0  0  0
  -29.5695  -23.2849   19.3201 H   0  0  0  0  0  0
  -27.3272  -24.5614   21.0724 H   0  0  0  0  0  0
  -27.3984  -24.4423   19.3538 H   0  0  0  0  0  0
  -28.7488  -15.6240   20.9289 H   0  0  0  0  0  0
  1 25  1  0  0  0
  1 30  2  0  0  0
  1 83  1  0  0  0
  2  3  1  0  0  0
  2 25  1  0  0  0
  2 85  1  0  0  0
  2 86  1  0  0  0
  3  4  1  0  0  0
  3 87  1  0  0  0
  3 88  1  0  0  0
  4  5  1  0  0  0
  4 89  1  0  0  0
  4 90  1  0  0  0
  5  6  1  0  0  0
  5 26  1  0  0  0
  5 91  1  0  0  0
  6 25  1  0  0  0
  6 92  1  0  0  0
  6 93  1  0  0  0
  7  8  2  0  0  0
  7 26  1  0  0  0
  7 29  1  0  0  0
  8  9  1  0  0  0
  8 22  1  0  0  0
  9 10  1  0  0  0
  9 27  2  0  0  0
 10 11  2  0  0  0
 10 15  1  0  0  0
 11 12  1  0  0  0
 11 94  1  0  0  0
 12 13  2  0  0  0
 12 95  1  0  0  0
 13 14  1  0  0  0
 13 31  1  0  0  0
 14 15  2  0  0  0
 14 96  1  0  0  0
 15 97  1  0  0  0
 16 17  2  0  0  0
 16 21  1  0  0  0
 16 31  1  0  0  0
 17 18  1  0  0  0
 17 98  1  0  0  0
 18 19  2  0  0  0
 18 99  1  0  0  0
 19 20  1  0  0  0
 19 24  1  0  0  0
 20 21  2  0  0  0
 20100  1  0  0  0
 21 23  1  0  0  0
 22 28  1  0  0  0
 22 32  2  0  0  0
 26 27  1  0  0  0
 28101  1  0  0  0
 28102  1  0  0  0
 29103  1  0  0  0
 29104  1  0  0  0
 33 34  1  0  0  0
 33 66  1  0  0  0
 33 70  2  0  0  0
 34 36  1  0  0  0
 34 59  1  0  0  0
 34105  1  0  0  0
 35 44  2  0  0  0
 35 45  1  0  0  0
 35 68  1  0  0  0
 36 56  1  0  0  0
 36106  1  0  0  0
 37 39  1  0  0  0
 37 47  1  0  0  0
 37 66  1  0  0  0
 37107  1  0  0  0
 38 43  2  0  0  0
 38 46  1  0  0  0
 38 47  1  0  0  0
 39 64  1  0  0  0
 39 67  2  0  0  0
 40 52  1  0  0  0
 40 53  2  0  0  0
 40 58  1  0  0  0
 41108  1  0  0  0
 41109  1  0  0  0
 41110  1  0  0  0
 41 48  1  0  0  0
 42 43  1  0  0  0
 42 66  1  0  0  0
 42111  1  0  0  0
 42112  1  0  0  0
 43 44  1  0  0  0
 44113  1  0  0  0
 45 46  2  0  0  0
 45114  1  0  0  0
 46115  1  0  0  0
 47116  1  0  0  0
 47117  1  0  0  0
 48 56  1  0  0  0
 48 65  1  0  0  0
 48118  1  0  0  0
 49 50  1  0  0  0
 49 53  1  0  0  0
 49 64  1  0  0  0
 49119  1  0  0  0
 50 51  1  0  0  0
 50120  1  0  0  0
 50121  1  0  0  0
 51 52  1  0  0  0
 51122  1  0  0  0
 51123  1  0  0  0
 52124  1  0  0  0
 52125  1  0  0  0
 53 54  1  0  0  0
 54 55  2  0  0  0
 54126  1  0  0  0
 55 57  1  0  0  0
 55127  1  0  0  0
 56 69  2  0  0  0
 57 58  2  0  0  0
 57128  1  0  0  0
 58129  1  0  0  0
 59 60  1  0  0  0
 59 61  1  0  0  0
 59 62  1  0  0  0
 60130  1  0  0  0
 60131  1  0  0  0
 60132  1  0  0  0
 61133  1  0  0  0
 61134  1  0  0  0
 61135  1  0  0  0
 62136  1  0  0  0
 62137  1  0  0  0
 62138  1  0  0  0
 63 65  1  0  0  0
 63139  1  0  0  0
 63140  1  0  0  0
 63141  1  0  0  0
 64142  1  0  0  0
 65143  1  0  0  0
 68 81  1  0  0  0
 71 72  2  0  0  0
 71 74  1  0  0  0
 71144  1  0  0  0
 72 75  1  0  0  0
 72145  1  0  0  0
 73 74  2  0  0  0
 73 76  1  0  0  0
 73146  1  0  0  0
 74 82  1  0  0  0
 75 76  2  0  0  0
 75 83  1  0  0  0
 76 84  1  0  0  0
 77 78  1  0  0  0
 77 79  1  0  0  0
 77147  1  0  0  0
 77148  1  0  0  0
 78 80  1  0  0  0
 78149  1  0  0  0
 78150  1  0  0  0
 79 82  1  0  0  0
 79151  1  0  0  0
 79152  1  0  0  0
 80 81  1  0  0  0
 80 82  1  0  0  0
 80153  1  0  0  0
 81154  1  0  0  0
 81155  1  0  0  0
 83156  1  0  0  0
M  ISO  4   1 100  68 101  81 101  83 100
M  END
> <chiral flag>
0

> <version>
0

> <s_m_source_file>
/data/baiqing/PycharmProjects/Reinvent-master-3.2/result/LINK_invent/BTK/process_docking_weight1_custom_product_contain_oxygen_bond_distance_aromatic_linkinvent_7_9_3/rearranged_h_0024.sdf

> <i_m_source_file_index>
42

> <r_mmod_Potential_Energy-OPLS-2005>
509.684173583984

> <r_mmod_Stretch_Energy-OPLS-2005>
211.421813964844

> <r_mmod_Bend_Energy-OPLS-2005>
325.570037841797

> <r_mmod_Torsional_Energy-OPLS-2005>
289.885955810547

> <r_mmod_Improper_Torsional_Energy-OPLS-2005>
8.84271812438965

> <r_mmod_Van_der_Waal_Energy-OPLS-2005>
132.407669067383

> <r_mmod_Electrostatic_Energy-OPLS-2005>
-410.414001464844

> <r_mmod_Solvation_Energy-OPLS-2005>
-213.918563842773

> <b_mmod_Minimization_Converged-OPLS-2005>
0

> <r_mmod_RMS_Derivative-OPLS-2005>
1.52198851108551

$$$$
42
                    3D
 Structure written by MMmdl.
169178  0  0  1  0            999 V2000
  -30.6710  -14.5881   20.4177 C   0  0  0  0  0  0
  -30.4335  -12.3359   19.4465 C   0  0  0  0  0  0
  -29.5038  -12.4353   18.2158 C   0  0  0  0  0  0
  -28.0158  -12.3244   18.6231 C   0  0  0  0  0  0
  -27.6408  -13.1830   19.8617 C   0  0  2  0  0  0
  -28.7061  -13.0439   20.9735 C   0  0  0  0  0  0
  -25.2488  -13.8034   20.5652 C   0  0  0  0  0  0
  -24.1769  -13.0347   20.9226 C   0  0  0  0  0  0
  -24.6327  -11.6818   20.8801 C   0  0  0  0  0  0
  -23.9007  -10.4232   21.0442 C   0  0  0  0  0  0
  -24.3574   -9.4157   21.9214 C   0  0  0  0  0  0
  -23.6254   -8.2196   22.0764 C   0  0  0  0  0  0
  -22.4246   -8.0245   21.3541 C   0  0  0  0  0  0
  -21.9877   -9.0220   20.4648 C   0  0  0  0  0  0
  -22.7200  -10.2099   20.3072 C   0  0  0  0  0  0
  -21.6829   -6.0716   22.5282 C   0  0  0  0  0  0
  -21.3998   -6.5627   23.8213 C   0  0  0  0  0  0
  -21.3656   -5.6786   24.9181 C   0  0  0  0  0  0
  -21.6040   -4.3048   24.7239 C   0  0  0  0  0  0
  -21.8823   -3.8139   23.4362 C   0  0  0  0  0  0
  -21.9186   -4.6948   22.3411 C   0  0  0  0  0  0
  -22.7802  -13.5181   21.1864 C   0  0  0  0  0  0
  -22.1657   -4.2135   21.0988 F   0  0  0  0  0  0
  -21.5632   -3.4537   25.7755 F   0  0  0  0  0  0
  -30.0226  -13.3785   20.4040 N   0  0  0  0  0  0
  -26.2914  -12.9150   20.3378 N   0  0  0  0  0  0
  -25.9246  -11.6354   20.5859 N   0  0  0  0  0  0
  -22.0423  -12.8197   22.0416 N   0  0  0  0  0  0
  -25.4059  -15.1756   20.3888 N   0  0  0  0  0  0
  -31.8843  -14.6392   20.2066 O   0  0  0  0  0  0
  -21.6603   -6.8854   21.4244 O   0  0  0  0  0  0
  -22.3523  -14.5500   20.6703 O   0  0  0  0  0  0
  -24.6136  -31.8685   23.2087 C   0  0  0  0  0  0
  -25.9037  -32.4822   23.8390 C   0  0  1  0  0  0
  -27.2458  -27.4321   20.1104 C   0  0  0  0  0  0
  -25.5899  -33.8615   24.2332 N   0  0  0  0  0  0
  -23.4022  -30.4903   21.5478 C   0  0  2  0  0  0
  -24.8535  -28.9557   20.1130 C   0  0  0  0  0  0
  -22.7413  -29.4653   22.4974 C   0  0  0  0  0  0
  -18.0272  -28.1367   22.8487 C   0  0  0  0  0  0
  -24.1482  -36.7309   23.2632 C   0  0  0  0  0  0
  -25.9298  -30.8340   21.3629 C   0  0  0  0  0  0
  -26.0097  -29.4663   20.7156 C   0  0  0  0  0  0
  -27.2053  -28.7110   20.7144 C   0  0  0  0  0  0
  -26.0731  -26.9456   19.4856 C   0  0  0  0  0  0
  -24.8792  -27.6930   19.4954 C   0  0  0  0  0  0
  -23.6130  -29.8207   20.1628 C   0  0  0  0  0  0
  -25.4096  -36.3102   24.0341 C   0  0  1  0  0  0
  -20.5867  -28.3659   23.1309 C   0  0  2  0  0  0
  -20.6764  -26.9392   22.5408 C   0  0  0  0  0  0
  -19.5742  -26.6384   21.5198 C   0  0  0  0  0  0
  -18.1920  -26.7914   22.1610 C   0  0  0  0  0  0
  -19.1526  -28.8828   23.2894 C   0  0  0  0  0  0
  -18.9458  -30.1433   23.8906 C   0  0  0  0  0  0
  -17.6469  -30.6579   24.0560 C   0  0  0  0  0  0
  -25.9032  -34.9473   23.5131 C   0  0  0  0  0  0
  -16.5356  -29.9084   23.6324 C   0  0  0  0  0  0
  -16.7269  -28.6499   23.0343 C   0  0  0  0  0  0
  -26.4473  -31.6593   25.0713 C   0  0  0  0  0  0
  -25.3738  -31.3695   26.1464 C   0  0  0  0  0  0
  -27.0317  -30.3041   24.6072 C   0  0  0  0  0  0
  -27.6048  -32.4308   25.7481 C   0  0  0  0  0  0
  -27.5584  -37.1786   24.8448 C   0  0  0  0  0  0
  -21.4143  -29.3028   22.3713 N   0  0  0  0  0  0
  -26.4273  -37.3799   23.9433 N   0  0  0  0  0  0
  -24.6663  -31.0790   22.0986 N   0  0  0  0  0  0
  -23.4191  -28.8192   23.3010 O   0  0  0  0  0  0
  -28.4217  -26.7006   20.1387 O   0  0  0  0  0  0
  -26.5599  -34.8931   22.4692 O   0  0  0  0  0  0
  -23.5328  -32.1430   23.7487 O   0  0  0  0  0  0
  -33.5556  -20.8243   20.8541 C   0  0  0  0  0  0
  -33.1990  -19.4679   20.9706 C   0  0  0  0  0  0
  -32.6179  -21.8326   21.1446 C   0  0  0  0  0  0
  -30.9558  -20.1268   21.6720 C   0  0  0  0  0  0
  -31.9000  -19.1020   21.3840 C   0  0  0  0  0  0
  -31.3089  -21.4985   21.5516 C   0  0  0  0  0  0
  -28.4538  -25.3743   20.5145 C   0  0  0  0  0  0
  -30.4984  -16.6100   17.9957 C   0  0  0  0  0  0
  -29.3277  -16.1224   18.8595 C   0  0  0  0  0  0
  -31.3877  -17.3756   18.9714 C   0  0  0  0  0  0
  -29.8847  -15.9681   20.3033 C   0  0  1  0  0  0
  -28.8090  -16.1732   21.3952 C   0  0  0  0  0  0
  -31.5394  -17.6104   21.4855 C   0  0  0  0  0  0
  -30.3307  -22.6281   21.9054 C   0  0  0  0  0  0
  -29.8711  -24.8180   20.7176 C   0  0  0  0  0  0
  -30.7550  -17.1921   20.2973 N   0  3  1  0  0  0
  -29.7940  -23.3334   20.7151 N   0  3  0  0  0  0
  -27.4712  -24.6536   20.7291 O   0  0  0  0  0  0
  -31.4757  -12.4332   19.1380 H   0  0  0  0  0  0
  -30.3535  -11.3490   19.9049 H   0  0  0  0  0  0
  -29.7460  -11.6399   17.5093 H   0  0  0  0  0  0
  -29.6903  -13.3612   17.6757 H   0  0  0  0  0  0
  -27.8228  -11.2733   18.8413 H   0  0  0  0  0  0
  -27.3735  -12.5777   17.7794 H   0  0  0  0  0  0
  -27.6099  -14.2082   19.5314 H   0  0  0  0  0  0
  -28.7186  -12.0163   21.3404 H   0  0  0  0  0  0
  -28.4723  -13.6391   21.8531 H   0  0  0  0  0  0
  -25.2717   -9.5628   22.4792 H   0  0  0  0  0  0
  -23.9956   -7.4580   22.7478 H   0  0  0  0  0  0
  -21.0813   -8.8747   19.8942 H   0  0  0  0  0  0
  -22.3675  -10.9647   19.6182 H   0  0  0  0  0  0
  -21.1983   -7.6135   23.9717 H   0  0  0  0  0  0
  -21.1472   -6.0514   25.9081 H   0  0  0  0  0  0
  -22.0606   -2.7599   23.2870 H   0  0  0  0  0  0
  -22.4005  -11.9846   22.4808 H   0  0  0  0  0  0
  -21.1041  -13.1244   22.2603 H   0  0  0  0  0  0
  -24.6199  -15.8101   20.4793 H   0  0  0  0  0  0
  -26.2264  -15.6200   20.0004 H   0  0  0  0  0  0
  -26.7107  -32.5552   23.1162 H   0  0  0  0  0  0
  -25.0062  -33.9779   25.0484 H   0  0  0  0  0  0
  -22.6888  -31.3047   21.4054 H   0  0  0  0  0  0
  -23.3759  -35.9623   23.3263 H   0  0  0  0  0  0
  -24.3602  -36.8961   22.2057 H   0  0  0  0  0  0
  -23.7210  -37.6491   23.6670 H   0  0  0  0  0  0
  -26.0369  -31.5966   20.5901 H   0  0  0  0  0  0
  -26.8190  -30.8935   21.9785 H   0  0  0  0  0  0
  -28.0952  -29.1035   21.1865 H   0  0  0  0  0  0
  -26.0749  -25.9827   18.9943 H   0  0  0  0  0  0
  -23.9934  -27.2926   19.0213 H   0  0  0  0  0  0
  -23.7182  -30.5948   19.4015 H   0  0  0  0  0  0
  -22.7384  -29.2371   19.8687 H   0  0  0  0  0  0
  -25.1254  -36.1964   25.0835 H   0  0  0  0  0  0
  -20.9950  -28.3228   24.1430 H   0  0  0  0  0  0
  -20.5664  -26.2268   23.3592 H   0  0  0  0  0  0
  -21.6635  -26.7434   22.1199 H   0  0  0  0  0  0
  -19.6910  -25.6302   21.1205 H   0  0  0  0  0  0
  -19.6683  -27.3210   20.6736 H   0  0  0  0  0  0
  -17.4188  -26.6673   21.4007 H   0  0  0  0  0  0
  -18.0317  -26.0042   22.8991 H   0  0  0  0  0  0
  -19.7944  -30.7227   24.2290 H   0  0  0  0  0  0
  -17.5032  -31.6262   24.5161 H   0  0  0  0  0  0
  -15.5356  -30.2991   23.7644 H   0  0  0  0  0  0
  -15.8666  -28.0827   22.7047 H   0  0  0  0  0  0
  -24.5898  -30.7060   25.7802 H   0  0  0  0  0  0
  -24.8948  -32.2850   26.4932 H   0  0  0  0  0  0
  -25.8086  -30.8843   27.0209 H   0  0  0  0  0  0
  -26.2856  -29.6789   24.1148 H   0  0  0  0  0  0
  -27.4131  -29.7290   25.4521 H   0  0  0  0  0  0
  -27.8670  -30.4387   23.9195 H   0  0  0  0  0  0
  -27.2675  -33.3618   26.2047 H   0  0  0  0  0  0
  -28.3864  -32.6844   25.0309 H   0  0  0  0  0  0
  -28.0693  -31.8428   26.5404 H   0  0  0  0  0  0
  -28.2522  -38.0163   24.7615 H   0  0  0  0  0  0
  -28.1165  -36.2703   24.6113 H   0  0  0  0  0  0
  -27.2335  -37.1246   25.8855 H   0  0  0  0  0  0
  -20.9291  -29.8788   21.6974 H   0  0  0  0  0  0
  -26.0161  -38.2860   24.1508 H   0  0  0  0  0  0
  -34.5571  -21.0924   20.5455 H   0  0  0  0  0  0
  -33.9332  -18.7076   20.7408 H   0  0  0  0  0  0
  -32.9170  -22.8697   21.0661 H   0  0  0  0  0  0
  -29.9591  -19.8613   21.9994 H   0  0  0  0  0  0
  -30.1645  -17.2254   17.1594 H   0  0  0  0  0  0
  -31.0482  -15.7633   17.5811 H   0  0  0  0  0  0
  -28.9239  -15.2306   18.4017 H   0  0  0  0  0  0
  -28.5291  -16.8657   18.8404 H   0  0  0  0  0  0
  -31.4287  -18.4350   18.7114 H   0  0  0  0  0  0
  -32.4073  -16.9885   18.9567 H   0  0  0  0  0  0
  -28.5193  -17.2203   21.4868 H   0  0  0  0  0  0
  -29.1634  -15.8514   22.3757 H   0  0  0  0  0  0
  -27.8877  -15.6437   21.1869 H   0  0  0  0  0  0
  -30.9669  -17.4611   22.4012 H   0  0  0  0  0  0
  -32.4381  -16.9997   21.5782 H   0  0  0  0  0  0
  -30.8427  -23.3225   22.5736 H   0  0  0  0  0  0
  -29.4942  -22.2294   22.4809 H   0  0  0  0  0  0
  -30.2628  -25.2044   21.6582 H   0  0  0  0  0  0
  -30.5234  -25.1661   19.9175 H   0  0  0  0  0  0
  -30.0514  -17.9115   20.2782 H   0  0  0  0  0  0
  -28.8045  -23.1393   20.6514 H   0  0  0  0  0  0
  -30.2356  -22.9788   19.8845 H   0  0  0  0  0  0
  1 25  1  0  0  0
  1 30  2  0  0  0
  1 81  1  0  0  0
  2  3  1  0  0  0
  2 25  1  0  0  0
  2 89  1  0  0  0
  2 90  1  0  0  0
  3  4  1  0  0  0
  3 91  1  0  0  0
  3 92  1  0  0  0
  4  5  1  0  0  0
  4 93  1  0  0  0
  4 94  1  0  0  0
  5  6  1  0  0  0
  5 26  1  0  0  0
  5 95  1  0  0  0
  6 25  1  0  0  0
  6 96  1  0  0  0
  6 97  1  0  0  0
  7  8  2  0  0  0
  7 26  1  0  0  0
  7 29  1  0  0  0
  8  9  1  0  0  0
  8 22  1  0  0  0
  9 10  1  0  0  0
  9 27  2  0  0  0
 10 11  2  0  0  0
 10 15  1  0  0  0
 11 12  1  0  0  0
 11 98  1  0  0  0
 12 13  2  0  0  0
 12 99  1  0  0  0
 13 14  1  0  0  0
 13 31  1  0  0  0
 14 15  2  0  0  0
 14100  1  0  0  0
 15101  1  0  0  0
 16 17  2  0  0  0
 16 21  1  0  0  0
 16 31  1  0  0  0
 17 18  1  0  0  0
 17102  1  0  0  0
 18 19  2  0  0  0
 18103  1  0  0  0
 19 20  1  0  0  0
 19 24  1  0  0  0
 20 21  2  0  0  0
 20104  1  0  0  0
 21 23  1  0  0  0
 22 28  1  0  0  0
 22 32  2  0  0  0
 26 27  1  0  0  0
 28105  1  0  0  0
 28106  1  0  0  0
 29107  1  0  0  0
 29108  1  0  0  0
 33 34  1  0  0  0
 33 66  1  0  0  0
 33 70  2  0  0  0
 34 36  1  0  0  0
 34 59  1  0  0  0
 34109  1  0  0  0
 35 44  2  0  0  0
 35 45  1  0  0  0
 35 68  1  0  0  0
 36 56  1  0  0  0
 36110  1  0  0  0
 37 39  1  0  0  0
 37 47  1  0  0  0
 37 66  1  0  0  0
 37111  1  0  0  0
 38 43  2  0  0  0
 38 46  1  0  0  0
 38 47  1  0  0  0
 39 64  1  0  0  0
 39 67  2  0  0  0
 40 52  1  0  0  0
 40 53  2  0  0  0
 40 58  1  0  0  0
 41112  1  0  0  0
 41113  1  0  0  0
 41114  1  0  0  0
 41 48  1  0  0  0
 42 43  1  0  0  0
 42 66  1  0  0  0
 42115  1  0  0  0
 42116  1  0  0  0
 43 44  1  0  0  0
 44117  1  0  0  0
 45 46  2  0  0  0
 45118  1  0  0  0
 46119  1  0  0  0
 47120  1  0  0  0
 47121  1  0  0  0
 48 56  1  0  0  0
 48 65  1  0  0  0
 48122  1  0  0  0
 49 50  1  0  0  0
 49 53  1  0  0  0
 49 64  1  0  0  0
 49123  1  0  0  0
 50 51  1  0  0  0
 50124  1  0  0  0
 50125  1  0  0  0
 51 52  1  0  0  0
 51126  1  0  0  0
 51127  1  0  0  0
 52128  1  0  0  0
 52129  1  0  0  0
 53 54  1  0  0  0
 54 55  2  0  0  0
 54130  1  0  0  0
 55 57  1  0  0  0
 55131  1  0  0  0
 56 69  2  0  0  0
 57 58  2  0  0  0
 57132  1  0  0  0
 58133  1  0  0  0
 59 60  1  0  0  0
 59 61  1  0  0  0
 59 62  1  0  0  0
 60134  1  0  0  0
 60135  1  0  0  0
 60136  1  0  0  0
 61137  1  0  0  0
 61138  1  0  0  0
 61139  1  0  0  0
 62140  1  0  0  0
 62141  1  0  0  0
 62142  1  0  0  0
 63 65  1  0  0  0
 63143  1  0  0  0
 63144  1  0  0  0
 63145  1  0  0  0
 64146  1  0  0  0
 65147  1  0  0  0
 68 77  1  0  0  0
 71 72  2  0  0  0
 71 73  1  0  0  0
 71148  1  0  0  0
 72 75  1  0  0  0
 72149  1  0  0  0
 73 76  2  0  0  0
 73150  1  0  0  0
 74 75  2  0  0  0
 74 76  1  0  0  0
 74151  1  0  0  0
 75 83  1  0  0  0
 76 84  1  0  0  0
 77 85  1  0  0  0
 77 88  2  0  0  0
 78 79  1  0  0  0
 78 80  1  0  0  0
 78152  1  0  0  0
 78153  1  0  0  0
 79 81  1  0  0  0
 79154  1  0  0  0
 79155  1  0  0  0
 80 86  1  0  0  0
 80156  1  0  0  0
 80157  1  0  0  0
 81 82  1  0  0  0
 81 86  1  0  0  0
 82158  1  0  0  0
 82159  1  0  0  0
 82160  1  0  0  0
 83161  1  0  0  0
 83162  1  0  0  0
 83 86  1  0  0  0
 84 87  1  0  0  0
 84163  1  0  0  0
 84164  1  0  0  0
 85 87  1  0  0  0
 85165  1  0  0  0
 85166  1  0  0  0
 86167  1  0  0  0
 87168  1  0  0  0
 87169  1  0  0  0
M  CHG  2  86   1  87   1
M  ISO  4   1 100  68 101  77 101  81 100
M  END
> <chiral flag>
0

> <version>
0

> <s_m_source_file>
/data/baiqing/PycharmProjects/Reinvent-master-3.2/result/LINK_invent/BTK/process_docking_weight1_custom_product_contain_oxygen_bond_distance_aromatic_linkinvent_7_9_3/rearranged_h_0024.sdf

> <i_m_source_file_index>
43

> <r_mmod_Potential_Energy-OPLS-2005>
-278.561004638672

> <r_mmod_Stretch_Energy-OPLS-2005>
49.933666229248

> <r_mmod_Bend_Energy-OPLS-2005>
159.162780761719

> <r_mmod_Torsional_Energy-OPLS-2005>
275.862945556641

> <r_mmod_Improper_Torsional_Energy-OPLS-2005>
9.47680950164795

> <r_mmod_Van_der_Waal_Energy-OPLS-2005>
156.373611450195

> <r_mmod_Electrostatic_Energy-OPLS-2005>
-98.3721084594727

> <r_mmod_Solvation_Energy-OPLS-2005>
-862.723327636719

> <b_mmod_Minimization_Converged-OPLS-2005>
0

> <r_mmod_RMS_Derivative-OPLS-2005>
1.49478495121002

$$$$
43
                    3D
 Structure written by MMmdl.
162171  0  0  1  0            999 V2000
  -30.6717  -14.6303   20.5169 C   0  0  0  0  0  0
  -30.4209  -12.3884   19.4585 C   0  0  0  0  0  0
  -29.4993  -12.4998   18.2245 C   0  0  0  0  0  0
  -28.0233  -12.3375   18.6360 C   0  0  0  0  0  0
  -27.6494  -13.2164   19.8592 C   0  0  2  0  0  0
  -28.6915  -13.0764   20.9890 C   0  0  0  0  0  0
  -25.2557  -13.8176   20.5675 C   0  0  0  0  0  0
  -24.1822  -13.0443   20.9180 C   0  0  0  0  0  0
  -24.6383  -11.6902   20.8739 C   0  0  0  0  0  0
  -23.9062  -10.4297   21.0395 C   0  0  0  0  0  0
  -24.3619   -9.4203   21.9173 C   0  0  0  0  0  0
  -23.6294   -8.2240   22.0751 C   0  0  0  0  0  0
  -22.4278   -8.0284   21.3542 C   0  0  0  0  0  0
  -21.9906   -9.0242   20.4636 C   0  0  0  0  0  0
  -22.7234  -10.2127   20.3036 C   0  0  0  0  0  0
  -21.6859   -6.0722   22.5278 C   0  0  0  0  0  0
  -21.4013   -6.5627   23.8203 C   0  0  0  0  0  0
  -21.3657   -5.6788   24.9167 C   0  0  0  0  0  0
  -21.6051   -4.3044   24.7233 C   0  0  0  0  0  0
  -21.8824   -3.8129   23.4349 C   0  0  0  0  0  0
  -21.9195   -4.6950   22.3402 C   0  0  0  0  0  0
  -22.7844  -13.5237   21.1834 C   0  0  0  0  0  0
  -22.1666   -4.2128   21.0987 F   0  0  0  0  0  0
  -21.5633   -3.4533   25.7739 F   0  0  0  0  0  0
  -30.0044  -13.4309   20.4252 N   0  0  0  0  0  0
  -26.2964  -12.9352   20.3310 N   0  0  0  0  0  0
  -25.9321  -11.6501   20.5751 N   0  0  0  0  0  0
  -22.0503  -12.8206   22.0393 N   0  0  0  0  0  0
  -25.4283  -15.1895   20.4096 N   0  0  0  0  0  0
  -31.8230  -14.7236   20.0792 O   0  0  0  0  0  0
  -21.6657   -6.8869   21.4232 O   0  0  0  0  0  0
  -22.3518  -14.5525   20.6672 O   0  0  0  0  0  0
  -24.6226  -31.8592   23.2030 C   0  0  0  0  0  0
  -25.9086  -32.4776   23.8360 C   0  0  1  0  0  0
  -27.2182  -27.3205   20.1374 C   0  0  0  0  0  0
  -25.5928  -33.8582   24.2267 N   0  0  0  0  0  0
  -23.4169  -30.4823   21.5460 C   0  0  2  0  0  0
  -24.8649  -28.9332   20.1125 C   0  0  0  0  0  0
  -22.7465  -29.4599   22.4944 C   0  0  0  0  0  0
  -18.0275  -28.1380   22.8500 C   0  0  0  0  0  0
  -24.1476  -36.7264   23.2634 C   0  0  0  0  0  0
  -25.9554  -30.7940   21.3712 C   0  0  0  0  0  0
  -26.0334  -29.4204   20.7135 C   0  0  0  0  0  0
  -27.2173  -28.6274   20.7108 C   0  0  0  0  0  0
  -26.0294  -26.8693   19.5298 C   0  0  0  0  0  0
  -24.8636  -27.6618   19.5131 C   0  0  0  0  0  0
  -23.6337  -29.8171   20.1599 C   0  0  0  0  0  0
  -25.4109  -36.3072   24.0330 C   0  0  1  0  0  0
  -20.5885  -28.3659   23.1306 C   0  0  2  0  0  0
  -20.6779  -26.9391   22.5430 C   0  0  0  0  0  0
  -19.5760  -26.6368   21.5231 C   0  0  0  0  0  0
  -18.1926  -26.7937   22.1616 C   0  0  0  0  0  0
  -19.1536  -28.8840   23.2900 C   0  0  0  0  0  0
  -18.9465  -30.1450   23.8893 C   0  0  0  0  0  0
  -17.6462  -30.6602   24.0575 C   0  0  0  0  0  0
  -25.9050  -34.9455   23.5083 C   0  0  0  0  0  0
  -16.5350  -29.9112   23.6350 C   0  0  0  0  0  0
  -16.7268  -28.6522   23.0357 C   0  0  0  0  0  0
  -26.4504  -31.6604   25.0727 C   0  0  0  0  0  0
  -25.3735  -31.3811   26.1463 C   0  0  0  0  0  0
  -27.0335  -30.3020   24.6175 C   0  0  0  0  0  0
  -27.6026  -32.4378   25.7518 C   0  0  0  0  0  0
  -27.5584  -37.1784   24.8456 C   0  0  0  0  0  0
  -21.4180  -29.3007   22.3690 N   0  0  0  0  0  0
  -26.4269  -37.3774   23.9439 N   0  0  0  0  0  0
  -24.6845  -31.0605   22.0987 N   0  0  0  0  0  0
  -23.4209  -28.8139   23.3016 O   0  0  0  0  0  0
  -28.3341  -26.4838   20.1386 O   0  0  0  0  0  0
  -26.5607  -34.8914   22.4644 O   0  0  0  0  0  0
  -23.5400  -32.1410   23.7365 O   0  0  0  0  0  0
  -28.5841  -19.1650   19.8136 C   0  0  0  0  0  0
  -28.4229  -20.5810   19.9460 C   0  0  0  0  0  0
  -30.6483  -19.2733   21.0318 C   0  0  0  0  0  0
  -29.7287  -18.4795   20.3079 C   0  0  0  0  0  0
  -29.3930  -21.3961   20.5942 C   0  0  0  0  0  0
  -30.4767  -20.6772   21.1906 C   0  0  0  0  0  0
  -30.1771  -23.7899   18.5702 C   0  0  0  0  0  0
  -28.6509  -23.9176   18.6263 C   0  0  0  0  0  0
  -30.5921  -23.3834   19.9889 C   0  0  0  0  0  0
  -28.3170  -23.7657   20.1100 C   0  0  2  0  0  0
  -29.4059  -16.0321   22.1097 C   0  0  0  0  0  0
  -30.0754  -17.0021   19.8795 C   0  0  0  0  0  0
  -28.2345  -25.1918   20.8548 C   0  0  0  0  0  0
  -29.3847  -22.8453   20.6160 N   0  0  0  0  0  0
  -29.9488  -15.7852   20.7706 N   0  0  0  0  0  0
  -31.4198  -21.3529   21.8937 F   0  0  0  0  0  0
  -31.4651  -12.4853   19.1551 H   0  0  0  0  0  0
  -30.3391  -11.3981   19.9093 H   0  0  0  0  0  0
  -29.7637  -11.7432   17.4840 H   0  0  0  0  0  0
  -29.6420  -13.4665   17.7397 H   0  0  0  0  0  0
  -27.8634  -11.2853   18.8748 H   0  0  0  0  0  0
  -27.3670  -12.5581   17.7939 H   0  0  0  0  0  0
  -27.6674  -14.2507   19.5155 H   0  0  0  0  0  0
  -28.7095  -12.0554   21.3726 H   0  0  0  0  0  0
  -28.4172  -13.6937   21.8397 H   0  0  0  0  0  0
  -25.2766   -9.5679   22.4729 H   0  0  0  0  0  0
  -23.9999   -7.4635   22.7464 H   0  0  0  0  0  0
  -21.0848   -8.8757   19.8943 H   0  0  0  0  0  0
  -22.3699  -10.9651   19.6135 H   0  0  0  0  0  0
  -21.2004   -7.6137   23.9697 H   0  0  0  0  0  0
  -21.1477   -6.0520   25.9068 H   0  0  0  0  0  0
  -22.0605   -2.7596   23.2863 H   0  0  0  0  0  0
  -22.4160  -11.9879   22.4753 H   0  0  0  0  0  0
  -21.1096  -13.1177   22.2570 H   0  0  0  0  0  0
  -24.6667  -15.8486   20.5217 H   0  0  0  0  0  0
  -26.2914  -15.6267   20.1101 H   0  0  0  0  0  0
  -26.7140  -32.5426   23.1102 H   0  0  0  0  0  0
  -25.0147  -33.9780   25.0464 H   0  0  0  0  0  0
  -22.7087  -31.3025   21.4055 H   0  0  0  0  0  0
  -23.3753  -35.9576   23.3286 H   0  0  0  0  0  0
  -24.3579  -36.8902   22.2045 H   0  0  0  0  0  0
  -23.7219  -37.6458   23.6671 H   0  0  0  0  0  0
  -26.0840  -31.5621   20.6088 H   0  0  0  0  0  0
  -26.8354  -30.8422   22.0016 H   0  0  0  0  0  0
  -28.1217  -28.9963   21.1770 H   0  0  0  0  0  0
  -25.9986  -25.8861   19.0800 H   0  0  0  0  0  0
  -23.9618  -27.2806   19.0553 H   0  0  0  0  0  0
  -23.7510  -30.5986   19.4077 H   0  0  0  0  0  0
  -22.7528  -29.2487   19.8556 H   0  0  0  0  0  0
  -25.1298  -36.1901   25.0825 H   0  0  0  0  0  0
  -20.9972  -28.3194   24.1431 H   0  0  0  0  0  0
  -20.5684  -26.2258   23.3619 H   0  0  0  0  0  0
  -21.6648  -26.7461   22.1201 H   0  0  0  0  0  0
  -19.6953  -25.6286   21.1251 H   0  0  0  0  0  0
  -19.6718  -27.3183   20.6772 H   0  0  0  0  0  0
  -17.4225  -26.6701   21.3976 H   0  0  0  0  0  0
  -18.0290  -26.0088   22.9003 H   0  0  0  0  0  0
  -19.7941  -30.7284   24.2218 H   0  0  0  0  0  0
  -17.5036  -31.6282   24.5183 H   0  0  0  0  0  0
  -15.5352  -30.3021   23.7704 H   0  0  0  0  0  0
  -15.8659  -28.0879   22.7050 H   0  0  0  0  0  0
  -24.5860  -30.7226   25.7811 H   0  0  0  0  0  0
  -24.8986  -32.3012   26.4847 H   0  0  0  0  0  0
  -25.8021  -30.9006   27.0261 H   0  0  0  0  0  0
  -26.2916  -29.6793   24.1153 H   0  0  0  0  0  0
  -27.4008  -29.7262   25.4681 H   0  0  0  0  0  0
  -27.8804  -30.4325   23.9435 H   0  0  0  0  0  0
  -27.2587  -33.3680   26.2062 H   0  0  0  0  0  0
  -28.3845  -32.6955   25.0362 H   0  0  0  0  0  0
  -28.0684  -31.8542   26.5472 H   0  0  0  0  0  0
  -28.2539  -38.0133   24.7557 H   0  0  0  0  0  0
  -28.1122  -36.2669   24.6177 H   0  0  0  0  0  0
  -27.2323  -37.1306   25.8856 H   0  0  0  0  0  0
  -20.9317  -29.8746   21.6948 H   0  0  0  0  0  0
  -26.0130  -38.2826   24.1501 H   0  0  0  0  0  0
  -27.8416  -18.6117   19.2547 H   0  0  0  0  0  0
  -27.5610  -21.0392   19.4839 H   0  0  0  0  0  0
  -31.5474  -18.8207   21.4221 H   0  0  0  0  0  0
  -30.6522  -24.7258   18.2762 H   0  0  0  0  0  0
  -30.4663  -23.0272   17.8457 H   0  0  0  0  0  0
  -28.1957  -23.1074   18.0554 H   0  0  0  0  0  0
  -28.2837  -24.8498   18.1992 H   0  0  0  0  0  0
  -30.9354  -24.2494   20.5586 H   0  0  0  0  0  0
  -31.4387  -22.6961   19.9465 H   0  0  0  0  0  0
  -27.3414  -23.2848   20.2078 H   0  0  0  0  0  0
  -28.3190  -15.9545   22.0940 H   0  0  0  0  0  0
  -29.6692  -17.0178   22.4914 H   0  0  0  0  0  0
  -29.7877  -15.3127   22.8372 H   0  0  0  0  0  0
  -31.1035  -17.0537   19.5179 H   0  0  0  0  0  0
  -29.4909  -16.7855   18.9850 H   0  0  0  0  0  0
  -29.0283  -25.2308   21.6016 H   0  0  0  0  0  0
  -27.3239  -25.1957   21.4554 H   0  0  0  0  0  0
  1 25  1  0  0  0
  1 30  2  0  0  0
  1 85  1  0  0  0
  2  3  1  0  0  0
  2 25  1  0  0  0
  2 87  1  0  0  0
  2 88  1  0  0  0
  3  4  1  0  0  0
  3 89  1  0  0  0
  3 90  1  0  0  0
  4  5  1  0  0  0
  4 91  1  0  0  0
  4 92  1  0  0  0
  5  6  1  0  0  0
  5 26  1  0  0  0
  5 93  1  0  0  0
  6 25  1  0  0  0
  6 94  1  0  0  0
  6 95  1  0  0  0
  7  8  2  0  0  0
  7 26  1  0  0  0
  7 29  1  0  0  0
  8  9  1  0  0  0
  8 22  1  0  0  0
  9 10  1  0  0  0
  9 27  2  0  0  0
 10 11  2  0  0  0
 10 15  1  0  0  0
 11 12  1  0  0  0
 11 96  1  0  0  0
 12 13  2  0  0  0
 12 97  1  0  0  0
 13 14  1  0  0  0
 13 31  1  0  0  0
 14 15  2  0  0  0
 14 98  1  0  0  0
 15 99  1  0  0  0
 16 17  2  0  0  0
 16 21  1  0  0  0
 16 31  1  0  0  0
 17 18  1  0  0  0
 17100  1  0  0  0
 18 19  2  0  0  0
 18101  1  0  0  0
 19 20  1  0  0  0
 19 24  1  0  0  0
 20 21  2  0  0  0
 20102  1  0  0  0
 21 23  1  0  0  0
 22 28  1  0  0  0
 22 32  2  0  0  0
 26 27  1  0  0  0
 28103  1  0  0  0
 28104  1  0  0  0
 29105  1  0  0  0
 29106  1  0  0  0
 33 34  1  0  0  0
 33 66  1  0  0  0
 33 70  2  0  0  0
 34 36  1  0  0  0
 34 59  1  0  0  0
 34107  1  0  0  0
 35 44  2  0  0  0
 35 45  1  0  0  0
 35 68  1  0  0  0
 36 56  1  0  0  0
 36108  1  0  0  0
 37 39  1  0  0  0
 37 47  1  0  0  0
 37 66  1  0  0  0
 37109  1  0  0  0
 38 43  2  0  0  0
 38 46  1  0  0  0
 38 47  1  0  0  0
 39 64  1  0  0  0
 39 67  2  0  0  0
 40 52  1  0  0  0
 40 53  2  0  0  0
 40 58  1  0  0  0
 41110  1  0  0  0
 41111  1  0  0  0
 41112  1  0  0  0
 41 48  1  0  0  0
 42 43  1  0  0  0
 42 66  1  0  0  0
 42113  1  0  0  0
 42114  1  0  0  0
 43 44  1  0  0  0
 44115  1  0  0  0
 45 46  2  0  0  0
 45116  1  0  0  0
 46117  1  0  0  0
 47118  1  0  0  0
 47119  1  0  0  0
 48 56  1  0  0  0
 48 65  1  0  0  0
 48120  1  0  0  0
 49 50  1  0  0  0
 49 53  1  0  0  0
 49 64  1  0  0  0
 49121  1  0  0  0
 50 51  1  0  0  0
 50122  1  0  0  0
 50123  1  0  0  0
 51 52  1  0  0  0
 51124  1  0  0  0
 51125  1  0  0  0
 52126  1  0  0  0
 52127  1  0  0  0
 53 54  1  0  0  0
 54 55  2  0  0  0
 54128  1  0  0  0
 55 57  1  0  0  0
 55129  1  0  0  0
 56 69  2  0  0  0
 57 58  2  0  0  0
 57130  1  0  0  0
 58131  1  0  0  0
 59 60  1  0  0  0
 59 61  1  0  0  0
 59 62  1  0  0  0
 60132  1  0  0  0
 60133  1  0  0  0
 60134  1  0  0  0
 61135  1  0  0  0
 61136  1  0  0  0
 61137  1  0  0  0
 62138  1  0  0  0
 62139  1  0  0  0
 62140  1  0  0  0
 63 65  1  0  0  0
 63141  1  0  0  0
 63142  1  0  0  0
 63143  1  0  0  0
 64144  1  0  0  0
 65145  1  0  0  0
 68 83  1  0  0  0
 71 72  2  0  0  0
 71 74  1  0  0  0
 71146  1  0  0  0
 72 75  1  0  0  0
 72147  1  0  0  0
 73 74  2  0  0  0
 73 76  1  0  0  0
 73148  1  0  0  0
 74 82  1  0  0  0
 75 76  2  0  0  0
 75 84  1  0  0  0
 76 86  1  0  0  0
 77 78  1  0  0  0
 77 79  1  0  0  0
 77149  1  0  0  0
 77150  1  0  0  0
 78 80  1  0  0  0
 78151  1  0  0  0
 78152  1  0  0  0
 79 84  1  0  0  0
 79153  1  0  0  0
 79154  1  0  0  0
 80 83  1  0  0  0
 80 84  1  0  0  0
 80155  1  0  0  0
 81 85  1  0  0  0
 81156  1  0  0  0
 81157  1  0  0  0
 81158  1  0  0  0
 82 85  1  0  0  0
 82159  1  0  0  0
 82160  1  0  0  0
 83161  1  0  0  0
 83162  1  0  0  0
M  ISO  4   1 100  68 101  83 101  85 100
M  END
> <chiral flag>
0

> <version>
0

> <s_m_source_file>
/data/baiqing/PycharmProjects/Reinvent-master-3.2/result/LINK_invent/BTK/process_docking_weight1_custom_product_contain_oxygen_bond_distance_aromatic_linkinvent_7_9_3/rearranged_h_0024.sdf

> <i_m_source_file_index>
44

> <r_mmod_Potential_Energy-OPLS-2005>
388.730621337891

> <r_mmod_Stretch_Energy-OPLS-2005>
86.7074203491211

> <r_mmod_Bend_Energy-OPLS-2005>
191.581405639648

> <r_mmod_Torsional_Energy-OPLS-2005>
379.943084716797

> <r_mmod_Improper_Torsional_Energy-OPLS-2005>
16.6393184661865

> <r_mmod_Van_der_Waal_Energy-OPLS-2005>
145.221664428711

> <r_mmod_Electrostatic_Energy-OPLS-2005>
-271.975769042969

> <r_mmod_Solvation_Energy-OPLS-2005>
-204.038726806641

> <b_mmod_Minimization_Converged-OPLS-2005>
0

> <r_mmod_RMS_Derivative-OPLS-2005>
3.67156362533569

$$$$
44
                    3D
 Structure written by MMmdl.
157165  0  0  1  0            999 V2000
  -30.6690  -14.5916   20.4979 C   0  0  0  0  0  0
  -30.4306  -12.3403   19.4952 C   0  0  0  0  0  0
  -29.5206  -12.4384   18.2517 C   0  0  0  0  0  0
  -28.0333  -12.3329   18.6401 C   0  0  0  0  0  0
  -27.6536  -13.2170   19.8589 C   0  0  2  0  0  0
  -28.6893  -13.0860   20.9974 C   0  0  0  0  0  0
  -25.2553  -13.8175   20.5655 C   0  0  0  0  0  0
  -24.1806  -13.0450   20.9146 C   0  0  0  0  0  0
  -24.6362  -11.6923   20.8697 C   0  0  0  0  0  0
  -23.9020  -10.4304   21.0356 C   0  0  0  0  0  0
  -24.3590   -9.4236   21.9136 C   0  0  0  0  0  0
  -23.6288   -8.2257   22.0725 C   0  0  0  0  0  0
  -22.4274   -8.0269   21.3521 C   0  0  0  0  0  0
  -21.9886   -9.0228   20.4625 C   0  0  0  0  0  0
  -22.7187  -10.2122   20.3019 C   0  0  0  0  0  0
  -21.6872   -6.0720   22.5266 C   0  0  0  0  0  0
  -21.4028   -6.5620   23.8201 C   0  0  0  0  0  0
  -21.3664   -5.6773   24.9160 C   0  0  0  0  0  0
  -21.6051   -4.3033   24.7212 C   0  0  0  0  0  0
  -21.8822   -3.8124   23.4330 C   0  0  0  0  0  0
  -21.9203   -4.6940   22.3389 C   0  0  0  0  0  0
  -22.7828  -13.5238   21.1823 C   0  0  0  0  0  0
  -22.1662   -4.2118   21.0962 F   0  0  0  0  0  0
  -21.5637   -3.4522   25.7727 F   0  0  0  0  0  0
  -30.0181  -13.3887   20.4453 N   0  0  0  0  0  0
  -26.2975  -12.9354   20.3267 N   0  0  0  0  0  0
  -25.9296  -11.6514   20.5732 N   0  0  0  0  0  0
  -22.0471  -12.8230   22.0369 N   0  0  0  0  0  0
  -25.4303  -15.1892   20.4115 N   0  0  0  0  0  0
  -31.8362  -14.7177   20.1242 O   0  0  0  0  0  0
  -21.6650   -6.8858   21.4229 O   0  0  0  0  0  0
  -22.3512  -14.5548   20.6688 O   0  0  0  0  0  0
  -24.6157  -31.8650   23.2060 C   0  0  0  0  0  0
  -25.9028  -32.4809   23.8390 C   0  0  1  0  0  0
  -27.2410  -27.3887   20.1241 C   0  0  0  0  0  0
  -25.5869  -33.8612   24.2313 N   0  0  0  0  0  0
  -23.4076  -30.4842   21.5452 C   0  0  2  0  0  0
  -24.8594  -28.9438   20.1091 C   0  0  0  0  0  0
  -22.7423  -29.4628   22.4961 C   0  0  0  0  0  0
  -18.0272  -28.1364   22.8489 C   0  0  0  0  0  0
  -24.1476  -36.7311   23.2642 C   0  0  0  0  0  0
  -25.9395  -30.8157   21.3690 C   0  0  0  0  0  0
  -26.0153  -29.4468   20.7159 C   0  0  0  0  0  0
  -27.2015  -28.6748   20.7222 C   0  0  0  0  0  0
  -26.0722  -26.9189   19.4804 C   0  0  0  0  0  0
  -24.8859  -27.6838   19.4844 C   0  0  0  0  0  0
  -23.6201  -29.8115   20.1611 C   0  0  0  0  0  0
  -25.4097  -36.3114   24.0345 C   0  0  1  0  0  0
  -20.5866  -28.3658   23.1308 C   0  0  2  0  0  0
  -20.6756  -26.9388   22.5416 C   0  0  0  0  0  0
  -19.5738  -26.6370   21.5210 C   0  0  0  0  0  0
  -18.1917  -26.7911   22.1619 C   0  0  0  0  0  0
  -19.1523  -28.8829   23.2894 C   0  0  0  0  0  0
  -18.9448  -30.1435   23.8902 C   0  0  0  0  0  0
  -17.6453  -30.6575   24.0557 C   0  0  0  0  0  0
  -25.9024  -34.9473   23.5134 C   0  0  0  0  0  0
  -16.5344  -29.9078   23.6318 C   0  0  0  0  0  0
  -16.7260  -28.6490   23.0347 C   0  0  0  0  0  0
  -26.4450  -31.6615   25.0744 C   0  0  0  0  0  0
  -25.3714  -31.3743   26.1500 C   0  0  0  0  0  0
  -27.0306  -30.3050   24.6176 C   0  0  0  0  0  0
  -27.5998  -32.4367   25.7520 C   0  0  0  0  0  0
  -27.5573  -37.1822   24.8462 C   0  0  0  0  0  0
  -21.4145  -29.3025   22.3716 N   0  0  0  0  0  0
  -26.4291  -37.3790   23.9406 N   0  0  0  0  0  0
  -24.6718  -31.0720   22.0974 N   0  0  0  0  0  0
  -23.4180  -28.8180   23.3020 O   0  0  0  0  0  0
  -28.4061  -26.6428   20.2404 O   0  0  0  0  0  0
  -26.5597  -34.8921   22.4702 O   0  0  0  0  0  0
  -23.5338  -32.1429   23.7421 O   0  0  0  0  0  0
  -29.6376  -18.1739   20.9519 C   0  0  0  0  0  0
  -29.6287  -18.3797   18.1795 C   0  0  0  0  0  0
  -29.3627  -19.4518   20.3569 C   0  0  0  0  0  0
  -29.8883  -16.9886   20.1834 C   0  0  0  0  0  0
  -29.2673  -19.4982   18.9402 C   0  0  0  0  0  0
  -29.9453  -17.1473   18.7679 C   0  0  0  0  0  0
  -28.4244  -23.1060   21.1083 C   0  0  0  0  0  0
  -30.4984  -22.4212   20.0530 C   0  0  0  0  0  0
  -29.1147  -20.6959   21.2701 C   0  0  0  0  0  0
  -27.8277  -24.0818   20.0510 C   0  0  0  0  0  0
  -28.5964  -25.3669   19.5828 C   0  0  0  0  0  0
  -29.9206  -15.6813   20.8273 N   0  0  0  0  0  0
  -29.2349  -22.0834   20.7162 N   0  0  0  0  0  0
  -27.9766  -23.1514   22.2586 O   0  0  0  0  0  0
  -28.6490  -20.8466   18.0510 Cl  0  0  0  0  0  0
  -30.2884  -15.8786   17.6518 Cl  0  0  0  0  0  0
  -31.4819  -12.4271   19.2133 H   0  0  0  0  0  0
  -30.3278  -11.3605   19.9666 H   0  0  0  0  0  0
  -29.7822  -11.6485   17.5468 H   0  0  0  0  0  0
  -29.6961  -13.3711   17.7274 H   0  0  0  0  0  0
  -27.8349  -11.2862   18.8703 H   0  0  0  0  0  0
  -27.4038  -12.5756   17.7834 H   0  0  0  0  0  0
  -27.6739  -14.2489   19.5081 H   0  0  0  0  0  0
  -28.6787  -12.0763   21.4107 H   0  0  0  0  0  0
  -28.4335  -13.7465   21.8266 H   0  0  0  0  0  0
  -25.2749   -9.5743   22.4683 H   0  0  0  0  0  0
  -24.0024   -7.4666   22.7455 H   0  0  0  0  0  0
  -21.0815   -8.8725   19.8947 H   0  0  0  0  0  0
  -22.3622  -10.9640   19.6117 H   0  0  0  0  0  0
  -21.2023   -7.6129   23.9692 H   0  0  0  0  0  0
  -21.1489   -6.0499   25.9063 H   0  0  0  0  0  0
  -22.0606   -2.7584   23.2835 H   0  0  0  0  0  0
  -22.4114  -11.9925   22.4798 H   0  0  0  0  0  0
  -21.1064  -13.1220   22.2526 H   0  0  0  0  0  0
  -24.6700  -15.8509   20.5273 H   0  0  0  0  0  0
  -26.2935  -15.6254   20.1125 H   0  0  0  0  0  0
  -26.7094  -32.5509   23.1148 H   0  0  0  0  0  0
  -25.0020  -33.9779   25.0463 H   0  0  0  0  0  0
  -22.6977  -31.3013   21.4005 H   0  0  0  0  0  0
  -23.3738  -35.9646   23.3325 H   0  0  0  0  0  0
  -24.3561  -36.8906   22.2050 H   0  0  0  0  0  0
  -23.7227  -37.6524   23.6639 H   0  0  0  0  0  0
  -26.0648  -31.5805   20.6004 H   0  0  0  0  0  0
  -26.8221  -30.8658   21.9961 H   0  0  0  0  0  0
  -28.0896  -29.0531   21.2094 H   0  0  0  0  0  0
  -26.0534  -25.9570   18.9900 H   0  0  0  0  0  0
  -23.9977  -27.2965   19.0047 H   0  0  0  0  0  0
  -23.7261  -30.5837   19.3988 H   0  0  0  0  0  0
  -22.7461  -29.2283   19.8660 H   0  0  0  0  0  0
  -25.1271  -36.1992   25.0842 H   0  0  0  0  0  0
  -20.9951  -28.3216   24.1433 H   0  0  0  0  0  0
  -20.5633  -26.2265   23.3607 H   0  0  0  0  0  0
  -21.6625  -26.7413   22.1222 H   0  0  0  0  0  0
  -19.6896  -25.6281   21.1233 H   0  0  0  0  0  0
  -19.6675  -27.3180   20.6738 H   0  0  0  0  0  0
  -17.4184  -26.6658   21.4021 H   0  0  0  0  0  0
  -18.0317  -26.0051   22.9013 H   0  0  0  0  0  0
  -19.7928  -30.7239   24.2275 H   0  0  0  0  0  0
  -17.5012  -31.6254   24.5156 H   0  0  0  0  0  0
  -15.5342  -30.2981   23.7638 H   0  0  0  0  0  0
  -15.8658  -28.0805   22.7066 H   0  0  0  0  0  0
  -24.5843  -30.7138   25.7842 H   0  0  0  0  0  0
  -24.8963  -32.2919   26.4983 H   0  0  0  0  0  0
  -25.8064  -30.8879   27.0244 H   0  0  0  0  0  0
  -26.2895  -29.6821   24.1155 H   0  0  0  0  0  0
  -27.3972  -29.7274   25.4674 H   0  0  0  0  0  0
  -27.8764  -30.4354   23.9421 H   0  0  0  0  0  0
  -27.2573  -33.3650   26.2106 H   0  0  0  0  0  0
  -28.3801  -32.6974   25.0358 H   0  0  0  0  0  0
  -28.0678  -31.8513   26.5446 H   0  0  0  0  0  0
  -28.2602  -38.0107   24.7488 H   0  0  0  0  0  0
  -28.1062  -36.2639   24.6313 H   0  0  0  0  0  0
  -27.2298  -37.1497   25.8869 H   0  0  0  0  0  0
  -20.9307  -29.8771   21.6963 H   0  0  0  0  0  0
  -26.0188  -38.2886   24.1367 H   0  0  0  0  0  0
  -29.6246  -18.1035   22.0299 H   0  0  0  0  0  0
  -29.6047  -18.4546   17.1022 H   0  0  0  0  0  0
  -31.0352  -23.1854   20.6165 H   0  0  0  0  0  0
  -30.3340  -22.8070   19.0474 H   0  0  0  0  0  0
  -31.1591  -21.5585   19.9772 H   0  0  0  0  0  0
  -29.7923  -20.6332   22.1220 H   0  0  0  0  0  0
  -28.1148  -20.5659   21.6880 H   0  0  0  0  0  0
  -26.8293  -24.3543   20.3860 H   0  0  0  0  0  0
  -27.6632  -23.4692   19.1650 H   0  0  0  0  0  0
  -28.3954  -25.5193   18.5216 H   0  0  0  0  0  0
  -29.6662  -25.1657   19.6305 H   0  0  0  0  0  0
  -29.0935  -15.4629   21.3613 H   0  0  0  0  0  0
  1 25  1  0  0  0
  1 30  2  0  0  0
  1 82  1  0  0  0
  2  3  1  0  0  0
  2 25  1  0  0  0
  2 87  1  0  0  0
  2 88  1  0  0  0
  3  4  1  0  0  0
  3 89  1  0  0  0
  3 90  1  0  0  0
  4  5  1  0  0  0
  4 91  1  0  0  0
  4 92  1  0  0  0
  5  6  1  0  0  0
  5 26  1  0  0  0
  5 93  1  0  0  0
  6 25  1  0  0  0
  6 94  1  0  0  0
  6 95  1  0  0  0
  7  8  2  0  0  0
  7 26  1  0  0  0
  7 29  1  0  0  0
  8  9  1  0  0  0
  8 22  1  0  0  0
  9 10  1  0  0  0
  9 27  2  0  0  0
 10 11  2  0  0  0
 10 15  1  0  0  0
 11 12  1  0  0  0
 11 96  1  0  0  0
 12 13  2  0  0  0
 12 97  1  0  0  0
 13 14  1  0  0  0
 13 31  1  0  0  0
 14 15  2  0  0  0
 14 98  1  0  0  0
 15 99  1  0  0  0
 16 17  2  0  0  0
 16 21  1  0  0  0
 16 31  1  0  0  0
 17 18  1  0  0  0
 17100  1  0  0  0
 18 19  2  0  0  0
 18101  1  0  0  0
 19 20  1  0  0  0
 19 24  1  0  0  0
 20 21  2  0  0  0
 20102  1  0  0  0
 21 23  1  0  0  0
 22 28  1  0  0  0
 22 32  2  0  0  0
 26 27  1  0  0  0
 28103  1  0  0  0
 28104  1  0  0  0
 29105  1  0  0  0
 29106  1  0  0  0
 33 34  1  0  0  0
 33 66  1  0  0  0
 33 70  2  0  0  0
 34 36  1  0  0  0
 34 59  1  0  0  0
 34107  1  0  0  0
 35 44  2  0  0  0
 35 45  1  0  0  0
 35 68  1  0  0  0
 36 56  1  0  0  0
 36108  1  0  0  0
 37 39  1  0  0  0
 37 47  1  0  0  0
 37 66  1  0  0  0
 37109  1  0  0  0
 38 43  2  0  0  0
 38 46  1  0  0  0
 38 47  1  0  0  0
 39 64  1  0  0  0
 39 67  2  0  0  0
 40 52  1  0  0  0
 40 53  2  0  0  0
 40 58  1  0  0  0
 41110  1  0  0  0
 41111  1  0  0  0
 41112  1  0  0  0
 41 48  1  0  0  0
 42 43  1  0  0  0
 42 66  1  0  0  0
 42113  1  0  0  0
 42114  1  0  0  0
 43 44  1  0  0  0
 44115  1  0  0  0
 45 46  2  0  0  0
 45116  1  0  0  0
 46117  1  0  0  0
 47118  1  0  0  0
 47119  1  0  0  0
 48 56  1  0  0  0
 48 65  1  0  0  0
 48120  1  0  0  0
 49 50  1  0  0  0
 49 53  1  0  0  0
 49 64  1  0  0  0
 49121  1  0  0  0
 50 51  1  0  0  0
 50122  1  0  0  0
 50123  1  0  0  0
 51 52  1  0  0  0
 51124  1  0  0  0
 51125  1  0  0  0
 52126  1  0  0  0
 52127  1  0  0  0
 53 54  1  0  0  0
 54 55  2  0  0  0
 54128  1  0  0  0
 55 57  1  0  0  0
 55129  1  0  0  0
 56 69  2  0  0  0
 57 58  2  0  0  0
 57130  1  0  0  0
 58131  1  0  0  0
 59 60  1  0  0  0
 59 61  1  0  0  0
 59 62  1  0  0  0
 60132  1  0  0  0
 60133  1  0  0  0
 60134  1  0  0  0
 61135  1  0  0  0
 61136  1  0  0  0
 61137  1  0  0  0
 62138  1  0  0  0
 62139  1  0  0  0
 62140  1  0  0  0
 63 65  1  0  0  0
 63141  1  0  0  0
 63142  1  0  0  0
 63143  1  0  0  0
 64144  1  0  0  0
 65145  1  0  0  0
 68 81  1  0  0  0
 71 73  2  0  0  0
 71 74  1  0  0  0
 71146  1  0  0  0
 72 75  2  0  0  0
 72 76  1  0  0  0
 72147  1  0  0  0
 73 75  1  0  0  0
 73 79  1  0  0  0
 74 76  2  0  0  0
 74 82  1  0  0  0
 75 85  1  0  0  0
 76 86  1  0  0  0
 77 80  1  0  0  0
 77 83  1  0  0  0
 77 84  2  0  0  0
 78 83  1  0  0  0
 78148  1  0  0  0
 78149  1  0  0  0
 78150  1  0  0  0
 79 83  1  0  0  0
 79151  1  0  0  0
 79152  1  0  0  0
 80 81  1  0  0  0
 80153  1  0  0  0
 80154  1  0  0  0
 81155  1  0  0  0
 81156  1  0  0  0
 82157  1  0  0  0
M  ISO  4   1 100  68 101  81 101  82 100
M  END
> <chiral flag>
0

> <version>
0

> <s_m_source_file>
/data/baiqing/PycharmProjects/Reinvent-master-3.2/result/LINK_invent/BTK/process_docking_weight1_custom_product_contain_oxygen_bond_distance_aromatic_linkinvent_7_9_3/rearranged_h_0024.sdf

> <i_m_source_file_index>
45

> <r_mmod_Potential_Energy-OPLS-2005>
29.908899307251

> <r_mmod_Stretch_Energy-OPLS-2005>
60.3283958435059

> <r_mmod_Bend_Energy-OPLS-2005>
148.228546142578

> <r_mmod_Torsional_Energy-OPLS-2005>
287.524353027344

> <r_mmod_Improper_Torsional_Energy-OPLS-2005>
10.1697359085083

> <r_mmod_Van_der_Waal_Energy-OPLS-2005>
153.111679077148

> <r_mmod_Electrostatic_Energy-OPLS-2005>
-429.301818847656

> <r_mmod_Solvation_Energy-OPLS-2005>
-234.889083862305

> <b_mmod_Minimization_Converged-OPLS-2005>
0

> <r_mmod_RMS_Derivative-OPLS-2005>
2.70081114768982

$$$$
45
                    3D
 Structure written by MMmdl.
163171  0  0  1  0            999 V2000
  -30.6073  -14.8454   21.5137 C   0  0  0  0  0  0
  -31.2096  -13.0764   18.9174 C   0  0  0  0  0  0
  -29.9136  -12.8780   17.4464 C   0  0  0  0  0  0
  -27.9879  -13.1148   17.5319 C   0  0  0  0  0  0
  -27.2707  -13.8152   19.1277 C   0  0  2  0  0  0
  -29.9454  -13.6529   21.0010 C   0  0  0  0  0  0
  -24.8789  -14.3763   20.5550 C   0  0  0  0  0  0
  -23.8683  -13.3950   21.5230 C   0  0  0  0  0  0
  -24.4618  -11.6533   21.4204 C   0  0  0  0  0  0
  -23.7824  -10.4045   21.3526 C   0  0  0  0  0  0
  -24.3039   -9.3398   22.0884 C   0  0  0  0  0  0
  -23.6172   -8.1218   22.0987 C   0  0  0  0  0  0
  -22.4271   -7.9767   21.3488 C   0  0  0  0  0  0
  -21.9933   -9.0156   20.5026 C   0  0  0  0  0  0
  -22.6837  -10.2353   20.4916 C   0  0  0  0  0  0
  -21.6646   -6.0533   22.5150 C   0  0  0  0  0  0
  -21.3837   -6.5560   23.8056 C   0  0  0  0  0  0
  -21.3539   -5.6791   24.9074 C   0  0  0  0  0  0
  -21.6021   -4.3058   24.7199 C   0  0  0  0  0  0
  -21.8897   -3.8080   23.4361 C   0  0  0  0  0  0
  -21.9171   -4.6810   22.3361 C   0  0  0  0  0  0
  -22.4549  -13.6805   21.4830 C   0  0  0  0  0  0
  -22.1773   -4.1986   21.0975 F   0  0  0  0  0  0
  -21.5557   -3.4602   25.7750 F   0  0  0  0  0  0
  -31.0578  -13.7549   20.5477 N   0  0  0  0  0  0
  -26.0856  -13.3233   19.7396 N   0  0  0  0  0  0
  -25.8085  -11.6045   20.3423 N   0  0  0  0  0  0
  -21.7148  -12.8694   22.2062 N   0  0  0  0  0  0
  -24.9624  -15.7089   20.2937 N   0  0  0  0  0  0
  -31.4490  -15.7051   21.2313 O   0  0  0  0  0  0
  -21.6570   -6.8481   21.3976 O   0  0  0  0  0  0
  -22.0333  -14.5960   20.7820 O   0  0  0  0  0  0
  -24.7194  -31.7644   23.1247 C   0  0  0  0  0  0
  -25.9612  -32.4273   23.7926 C   0  0  1  0  0  0
  -27.1054  -26.4015   20.1386 C   0  0  0  0  0  0
  -25.6061  -33.8120   24.1750 N   0  0  0  0  0  0
  -23.5445  -30.3691   21.4890 C   0  0  2  0  0  0
  -24.9675  -28.6631   20.0917 C   0  0  0  0  0  0
  -22.7860  -29.4156   22.4577 C   0  0  0  0  0  0
  -18.0344  -28.1460   22.8402 C   0  0  0  0  0  0
  -24.1452  -36.7062   23.2651 C   0  0  0  0  0  0
  -26.1348  -30.3865   21.4304 C   0  0  0  0  0  0
  -26.1677  -28.9248   20.7616 C   0  0  0  0  0  0
  -27.2190  -27.8269   20.7554 C   0  0  0  0  0  0
  -25.8834  -26.4198   19.4279 C   0  0  0  0  0  0
  -24.8830  -27.4413   19.4031 C   0  0  0  0  0  0
  -23.7992  -29.6678   20.1230 C   0  0  0  0  0  0
  -25.4112  -36.2769   24.0245 C   0  0  1  0  0  0
  -20.5982  -28.3835   23.1050 C   0  0  2  0  0  0
  -20.6791  -26.9465   22.5378 C   0  0  0  0  0  0
  -19.5774  -26.6355   21.5195 C   0  0  0  0  0  0
  -18.1965  -26.7965   22.1604 C   0  0  0  0  0  0
  -19.1615  -28.8983   23.2702 C   0  0  0  0  0  0
  -18.9535  -30.1556   23.8780 C   0  0  0  0  0  0
  -17.6523  -30.6631   24.0546 C   0  0  0  0  0  0
  -25.9172  -34.9171   23.4839 C   0  0  0  0  0  0
  -16.5410  -29.9118   23.6347 C   0  0  0  0  0  0
  -16.7323  -28.6542   23.0355 C   0  0  0  0  0  0
  -26.4671  -31.6478   25.0716 C   0  0  0  0  0  0
  -25.3651  -31.3934   26.1294 C   0  0  0  0  0  0
  -27.0705  -30.2789   24.6887 C   0  0  0  0  0  0
  -27.5991  -32.4467   25.7619 C   0  0  0  0  0  0
  -27.5533  -37.1648   24.8431 C   0  0  0  0  0  0
  -21.4480  -29.3033   22.3333 N   0  0  0  0  0  0
  -26.4170  -37.3597   23.9481 N   0  0  0  0  0  0
  -24.8284  -30.8801   22.0656 N   0  0  0  0  0  0
  -23.4194  -28.7751   23.2989 O   0  0  0  0  0  0
  -27.9224  -24.9998   20.1384 O   0  0  0  0  0  0
  -26.5854  -34.8833   22.4499 O   0  0  0  0  0  0
  -23.6149  -32.0884   23.6021 O   0  0  0  0  0  0
  -29.3062  -14.6124   19.0470 C   0  0  0  0  0  0
  -28.0555  -12.4578   20.9313 C   0  0  0  0  0  0
  -28.6612  -16.0361   19.7180 C   0  0  0  0  0  0
  -27.6974  -14.0565   21.4757 C   0  0  0  0  0  0
  -27.8456  -15.5311   20.8687 C   0  0  0  0  0  0
  -28.8897  -12.4376   19.5769 C   0  0  0  0  0  0
  -28.3983  -21.3582   19.9169 C   0  0  0  0  0  0
  -26.9699  -15.1839   23.6840 C   0  0  0  0  0  0
  -26.1016  -13.1593   22.0362 C   0  0  0  0  0  0
  -26.7822  -19.6559   18.9802 C   0  0  0  0  0  0
  -28.8574  -18.0209   19.5378 C   0  0  0  0  0  0
  -27.5648  -23.1711   19.8122 C   0  0  0  0  0  0
  -27.6698  -14.1220   22.8019 C   0  0  0  0  0  0
  -29.3517  -14.8930   22.6659 N   0  0  0  0  0  0
  -28.0943  -19.7641   19.6377 N   0  0  0  0  0  0
  -29.5561  -21.4957   20.3242 O   0  0  0  0  0  0
  -27.3102  -16.5774   21.5427 F   0  0  0  0  0  0
  -29.3634  -10.7819   19.1402 Cl  0  0  0  0  0  0
  -32.0145  -13.6801   18.4929 H   0  0  0  0  0  0
  -31.7172  -12.1213   19.0555 H   0  0  0  0  0  0
  -30.1239  -11.9376   16.9331 H   0  0  0  0  0  0
  -30.2529  -13.5763   16.6788 H   0  0  0  0  0  0
  -27.4981  -12.1529   17.3516 H   0  0  0  0  0  0
  -27.6630  -13.7351   16.7007 H   0  0  0  0  0  0
  -26.8964  -14.7701   18.7529 H   0  0  0  0  0  0
  -30.4793  -12.6482   21.0289 H   0  0  0  0  0  0
  -29.9284  -12.8990   21.9136 H   0  0  0  0  0  0
  -25.1887   -9.4728   22.6944 H   0  0  0  0  0  0
  -23.9960   -7.3183   22.7131 H   0  0  0  0  0  0
  -21.1083   -8.8963   19.8947 H   0  0  0  0  0  0
  -22.3369  -11.0591   19.8830 H   0  0  0  0  0  0
  -21.1883   -7.6096   23.9473 H   0  0  0  0  0  0
  -21.1263   -6.0589   25.8933 H   0  0  0  0  0  0
  -22.0821   -2.7561   23.2964 H   0  0  0  0  0  0
  -22.1308  -12.1451   22.7700 H   0  0  0  0  0  0
  -20.7141  -13.0110   22.2579 H   0  0  0  0  0  0
  -24.3391  -16.3801   20.7224 H   0  0  0  0  0  0
  -25.7315  -16.1456   19.8048 H   0  0  0  0  0  0
  -26.7765  -32.4615   23.0691 H   0  0  0  0  0  0
  -25.0059  -33.9109   24.9820 H   0  0  0  0  0  0
  -22.8896  -31.2186   21.2890 H   0  0  0  0  0  0
  -23.3758  -35.9339   23.3121 H   0  0  0  0  0  0
  -24.3519  -36.8971   22.2108 H   0  0  0  0  0  0
  -23.7128  -37.6121   23.6909 H   0  0  0  0  0  0
  -26.3768  -31.0947   20.6390 H   0  0  0  0  0  0
  -26.9764  -30.4427   22.1047 H   0  0  0  0  0  0
  -28.1124  -28.0177   21.3363 H   0  0  0  0  0  0
  -25.6357  -25.5091   18.9030 H   0  0  0  0  0  0
  -23.9810  -27.2279   18.8441 H   0  0  0  0  0  0
  -24.0062  -30.4276   19.3690 H   0  0  0  0  0  0
  -22.8947  -29.1698   19.7780 H   0  0  0  0  0  0
  -25.1305  -36.1421   25.0714 H   0  0  0  0  0  0
  -21.0075  -28.3511   24.1173 H   0  0  0  0  0  0
  -20.5590  -26.2501   23.3691 H   0  0  0  0  0  0
  -21.6659  -26.7327   22.1246 H   0  0  0  0  0  0
  -19.6925  -25.6222   21.1341 H   0  0  0  0  0  0
  -19.6732  -27.3064   20.6650 H   0  0  0  0  0  0
  -17.4209  -26.6654   21.4043 H   0  0  0  0  0  0
  -18.0389  -26.0173   22.9074 H   0  0  0  0  0  0
  -19.8038  -30.7379   24.2099 H   0  0  0  0  0  0
  -17.5105  -31.6295   24.5192 H   0  0  0  0  0  0
  -15.5420  -30.3010   23.7754 H   0  0  0  0  0  0
  -15.8713  -28.0853   22.7128 H   0  0  0  0  0  0
  -24.5776  -30.7368   25.7595 H   0  0  0  0  0  0
  -24.8946  -32.3241   26.4470 H   0  0  0  0  0  0
  -25.7744  -30.9222   27.0245 H   0  0  0  0  0  0
  -26.3503  -29.6225   24.2005 H   0  0  0  0  0  0
  -27.4150  -29.7448   25.5754 H   0  0  0  0  0  0
  -27.9451  -30.3843   24.0468 H   0  0  0  0  0  0
  -27.2394  -33.3844   26.1870 H   0  0  0  0  0  0
  -28.4011  -32.6932   25.0652 H   0  0  0  0  0  0
  -28.0456  -31.8863   26.5847 H   0  0  0  0  0  0
  -28.2331  -38.0143   24.7685 H   0  0  0  0  0  0
  -28.1236  -36.2675   24.5956 H   0  0  0  0  0  0
  -27.2326  -37.0916   25.8837 H   0  0  0  0  0  0
  -20.9854  -29.8788   21.6436 H   0  0  0  0  0  0
  -25.9924  -38.2578   24.1663 H   0  0  0  0  0  0
  -29.9442  -14.9815   18.2560 H   0  0  0  0  0  0
  -28.0041  -11.5543   21.5229 H   0  0  0  0  0  0
  -26.7009  -14.7378   24.6387 H   0  0  0  0  0  0
  -26.0531  -15.5784   23.2477 H   0  0  0  0  0  0
  -27.6164  -16.0301   23.9278 H   0  0  0  0  0  0
  -26.3349  -12.2200   22.5687 H   0  0  0  0  0  0
  -24.4106  -12.7063   19.9226 H   0  0  0  0  0  0
  -25.5378  -13.4492   22.9386 H   0  0  0  0  0  0
  -26.0068  -20.2636   19.4492 H   0  0  0  0  0  0
  -26.4018  -18.6348   18.9676 H   0  0  0  0  0  0
  -26.8419  -19.9782   17.9382 H   0  0  0  0  0  0
  -29.2518  -18.0722   18.5199 H   0  0  0  0  0  0
  -29.7567  -18.1659   20.1461 H   0  0  0  0  0  0
  -26.6362  -23.0181   20.3625 H   0  0  0  0  0  0
  -27.2374  -23.1918   18.7707 H   0  0  0  0  0  0
  -29.4237  -15.7466   23.1965 H   0  0  0  0  0  0
  1 25  1  0  0  0
  1 30  2  0  0  0
  1 84  1  0  0  0
  2  3  1  0  0  0
  2 25  1  0  0  0
  2 89  1  0  0  0
  2 90  1  0  0  0
  3  4  1  0  0  0
  3 91  1  0  0  0
  3 92  1  0  0  0
  4  5  1  0  0  0
  4 93  1  0  0  0
  4 94  1  0  0  0
  5  6  1  0  0  0
  5 26  1  0  0  0
  5 95  1  0  0  0
  6 25  1  0  0  0
  6 96  1  0  0  0
  6 97  1  0  0  0
  7  8  2  0  0  0
  7 26  1  0  0  0
  7 29  1  0  0  0
  8  9  1  0  0  0
  8 22  1  0  0  0
  9 10  1  0  0  0
  9 27  2  0  0  0
 10 11  2  0  0  0
 10 15  1  0  0  0
 11 12  1  0  0  0
 11 98  1  0  0  0
 12 13  2  0  0  0
 12 99  1  0  0  0
 13 14  1  0  0  0
 13 31  1  0  0  0
 14 15  2  0  0  0
 14100  1  0  0  0
 15101  1  0  0  0
 16 17  2  0  0  0
 16 21  1  0  0  0
 16 31  1  0  0  0
 17 18  1  0  0  0
 17102  1  0  0  0
 18 19  2  0  0  0
 18103  1  0  0  0
 19 20  1  0  0  0
 19 24  1  0  0  0
 20 21  2  0  0  0
 20104  1  0  0  0
 21 23  1  0  0  0
 22 28  1  0  0  0
 22 32  2  0  0  0
 26 27  1  0  0  0
 28105  1  0  0  0
 28106  1  0  0  0
 29107  1  0  0  0
 29108  1  0  0  0
 33 34  1  0  0  0
 33 66  1  0  0  0
 33 70  2  0  0  0
 34 36  1  0  0  0
 34 59  1  0  0  0
 34109  1  0  0  0
 35 44  2  0  0  0
 35 45  1  0  0  0
 35 68  1  0  0  0
 36 56  1  0  0  0
 36110  1  0  0  0
 37 39  1  0  0  0
 37 47  1  0  0  0
 37 66  1  0  0  0
 37111  1  0  0  0
 38 43  2  0  0  0
 38 46  1  0  0  0
 38 47  1  0  0  0
 39 64  1  0  0  0
 39 67  2  0  0  0
 40 52  1  0  0  0
 40 53  2  0  0  0
 40 58  1  0  0  0
 41112  1  0  0  0
 41113  1  0  0  0
 41114  1  0  0  0
 41 48  1  0  0  0
 42 43  1  0  0  0
 42 66  1  0  0  0
 42115  1  0  0  0
 42116  1  0  0  0
 43 44  1  0  0  0
 44117  1  0  0  0
 45 46  2  0  0  0
 45118  1  0  0  0
 46119  1  0  0  0
 47120  1  0  0  0
 47121  1  0  0  0
 48 56  1  0  0  0
 48 65  1  0  0  0
 48122  1  0  0  0
 49 50  1  0  0  0
 49 53  1  0  0  0
 49 64  1  0  0  0
 49123  1  0  0  0
 50 51  1  0  0  0
 50124  1  0  0  0
 50125  1  0  0  0
 51 52  1  0  0  0
 51126  1  0  0  0
 51127  1  0  0  0
 52128  1  0  0  0
 52129  1  0  0  0
 53 54  1  0  0  0
 54 55  2  0  0  0
 54130  1  0  0  0
 55 57  1  0  0  0
 55131  1  0  0  0
 56 69  2  0  0  0
 57 58  2  0  0  0
 57132  1  0  0  0
 58133  1  0  0  0
 59 60  1  0  0  0
 59 61  1  0  0  0
 59 62  1  0  0  0
 60134  1  0  0  0
 60135  1  0  0  0
 60136  1  0  0  0
 61137  1  0  0  0
 61138  1  0  0  0
 61139  1  0  0  0
 62140  1  0  0  0
 62141  1  0  0  0
 62142  1  0  0  0
 63 65  1  0  0  0
 63143  1  0  0  0
 63144  1  0  0  0
 63145  1  0  0  0
 64146  1  0  0  0
 65147  1  0  0  0
 68 82  1  0  0  0
 71 73  2  0  0  0
 71 76  1  0  0  0
 71148  1  0  0  0
 72 74  1  0  0  0
 72 76  2  0  0  0
 72149  1  0  0  0
 73 75  1  0  0  0
 73 81  1  0  0  0
 74 75  2  0  0  0
 74 83  1  0  0  0
 75 87  1  0  0  0
 76 88  1  0  0  0
 77 82  1  0  0  0
 77 85  1  0  0  0
 77 86  2  0  0  0
 78150  1  0  0  0
 78151  1  0  0  0
 78152  1  0  0  0
 78 83  1  0  0  0
 79 83  1  0  0  0
 79153  1  0  0  0
 79154  1  0  0  0
 79155  1  0  0  0
 80 85  1  0  0  0
 80156  1  0  0  0
 80157  1  0  0  0
 80158  1  0  0  0
 81 85  1  0  0  0
 81159  1  0  0  0
 81160  1  0  0  0
 82161  1  0  0  0
 82162  1  0  0  0
 83 84  1  0  0  0
 84163  1  0  0  0
M  ISO  4   1 100  68 101  82 101  84 100
M  END
> <chiral flag>
0

> <version>
0

> <s_m_source_file>
/data/baiqing/PycharmProjects/Reinvent-master-3.2/result/LINK_invent/BTK/process_docking_weight1_custom_product_contain_oxygen_bond_distance_aromatic_linkinvent_7_9_3/rearranged_h_0024.sdf

> <i_m_source_file_index>
46

> <r_mmod_Potential_Energy-OPLS-2005>
24390.205078125

> <r_mmod_Stretch_Energy-OPLS-2005>
14337.572265625

> <r_mmod_Bend_Energy-OPLS-2005>
2206.14501953125

> <r_mmod_Torsional_Energy-OPLS-2005>
464.695098876953

> <r_mmod_Improper_Torsional_Energy-OPLS-2005>
47.9924125671387

> <r_mmod_Van_der_Waal_Energy-OPLS-2005>
5717.8076171875

> <r_mmod_Electrostatic_Energy-OPLS-2005>
-351.15185546875

> <r_mmod_Solvation_Energy-OPLS-2005>
-263.348236083984

> <b_mmod_Minimization_Converged-OPLS-2005>
0

> <r_mmod_RMS_Derivative-OPLS-2005>
12.8187322616577

$$$$
46
                    3D
 Structure written by MMmdl.
177187  0  0  1  0            999 V2000
  -30.7099  -14.5077   20.5693 C   0  0  0  0  0  0
  -30.4243  -12.3303   19.4317 C   0  0  0  0  0  0
  -29.4982  -12.5070   18.2107 C   0  0  0  0  0  0
  -28.0209  -12.3547   18.6232 C   0  0  0  0  0  0
  -27.6577  -13.2085   19.8671 C   0  0  2  0  0  0
  -28.7004  -13.0279   20.9941 C   0  0  0  0  0  0
  -25.2578  -13.8098   20.5642 C   0  0  0  0  0  0
  -24.1850  -13.0414   20.9251 C   0  0  0  0  0  0
  -24.6397  -11.6885   20.8769 C   0  0  0  0  0  0
  -23.9050  -10.4284   21.0417 C   0  0  0  0  0  0
  -24.3586   -9.4209   21.9206 C   0  0  0  0  0  0
  -23.6273   -8.2239   22.0761 C   0  0  0  0  0  0
  -22.4277   -8.0265   21.3528 C   0  0  0  0  0  0
  -21.9920   -9.0226   20.4610 C   0  0  0  0  0  0
  -22.7241  -10.2112   20.3036 C   0  0  0  0  0  0
  -21.6842   -6.0733   22.5264 C   0  0  0  0  0  0
  -21.4001   -6.5641   23.8192 C   0  0  0  0  0  0
  -21.3652   -5.6791   24.9159 C   0  0  0  0  0  0
  -21.6043   -4.3056   24.7215 C   0  0  0  0  0  0
  -21.8826   -3.8146   23.4334 C   0  0  0  0  0  0
  -21.9179   -4.6957   22.3387 C   0  0  0  0  0  0
  -22.7890  -13.5237   21.1901 C   0  0  0  0  0  0
  -22.1651   -4.2144   21.0959 F   0  0  0  0  0  0
  -21.5638   -3.4538   25.7728 F   0  0  0  0  0  0
  -30.0299  -13.3325   20.4382 N   0  0  0  0  0  0
  -26.3007  -12.9289   20.3311 N   0  0  0  0  0  0
  -25.9320  -11.6460   20.5768 N   0  0  0  0  0  0
  -22.0515  -12.8248   22.0465 N   0  0  0  0  0  0
  -25.4242  -15.1762   20.3778 N   0  0  0  0  0  0
  -31.8437  -14.6636   20.1093 O   0  0  0  0  0  0
  -21.6638   -6.8866   21.4222 O   0  0  0  0  0  0
  -22.3613  -14.5539   20.6705 O   0  0  0  0  0  0
  -24.6195  -31.8678   23.2133 C   0  0  0  0  0  0
  -25.9084  -32.4816   23.8415 C   0  0  1  0  0  0
  -27.2235  -27.3996   20.0769 C   0  0  0  0  0  0
  -25.5940  -33.8612   24.2348 N   0  0  0  0  0  0
  -23.4058  -30.4982   21.5570 C   0  0  2  0  0  0
  -24.8472  -28.9718   20.1165 C   0  0  0  0  0  0
  -22.7427  -29.4671   22.4992 C   0  0  0  0  0  0
  -18.0275  -28.1375   22.8492 C   0  0  0  0  0  0
  -24.1488  -36.7301   23.2629 C   0  0  0  0  0  0
  -25.9435  -30.8188   21.3768 C   0  0  0  0  0  0
  -26.0151  -29.4536   20.7199 C   0  0  0  0  0  0
  -27.2012  -28.6728   20.7068 C   0  0  0  0  0  0
  -26.0238  -26.9619   19.4529 C   0  0  0  0  0  0
  -24.8479  -27.7239   19.4849 C   0  0  0  0  0  0
  -23.6138  -29.8437   20.1689 C   0  0  0  0  0  0
  -25.4107  -36.3097   24.0333 C   0  0  1  0  0  0
  -20.5871  -28.3669   23.1302 C   0  0  2  0  0  0
  -20.6770  -26.9403   22.5407 C   0  0  0  0  0  0
  -19.5745  -26.6384   21.5208 C   0  0  0  0  0  0
  -18.1921  -26.7919   22.1619 C   0  0  0  0  0  0
  -19.1528  -28.8837   23.2893 C   0  0  0  0  0  0
  -18.9455  -30.1443   23.8906 C   0  0  0  0  0  0
  -17.6457  -30.6580   24.0567 C   0  0  0  0  0  0
  -25.9042  -34.9464   23.5132 C   0  0  0  0  0  0
  -16.5346  -29.9080   23.6336 C   0  0  0  0  0  0
  -16.7260  -28.6497   23.0354 C   0  0  0  0  0  0
  -26.4504  -31.6588   25.0742 C   0  0  0  0  0  0
  -25.3769  -31.3693   26.1488 C   0  0  0  0  0  0
  -27.0346  -30.3022   24.6140 C   0  0  0  0  0  0
  -27.6068  -32.4306   25.7516 C   0  0  0  0  0  0
  -27.5579  -37.1802   24.8460 C   0  0  0  0  0  0
  -21.4153  -29.3046   22.3720 N   0  0  0  0  0  0
  -26.4281  -37.3791   23.9423 N   0  0  0  0  0  0
  -24.6749  -31.0752   22.1062 N   0  0  0  0  0  0
  -23.4186  -28.8189   23.3022 O   0  0  0  0  0  0
  -28.3811  -26.6183   20.0946 O   0  0  0  0  0  0
  -26.5584  -34.8916   22.4681 O   0  0  0  0  0  0
  -23.5381  -32.1448   23.7511 O   0  0  0  0  0  0
  -31.3791  -19.5928   21.5255 C   0  0  0  0  0  0
  -31.6977  -17.1907   21.7999 C   0  0  0  0  0  0
  -30.1383  -19.3811   20.8863 C   0  0  0  0  0  0
  -29.6369  -18.0360   20.7863 C   0  0  0  0  0  0
  -30.4441  -16.9233   21.2027 C   0  0  0  0  0  0
  -32.1532  -18.5095   21.9743 C   0  0  0  0  0  0
  -29.1209  -23.0425   20.3983 C   0  0  0  0  0  0
  -31.8499  -23.4708   19.7330 C   0  0  0  0  0  0
  -25.5224  -17.6646   22.8336 C   0  0  0  0  0  0
  -24.9291  -18.6545   21.8254 C   0  0  0  0  0  0
  -30.9042  -24.7001   19.6239 C   0  0  0  0  0  0
  -31.1510  -22.1155   19.4184 C   0  0  0  0  0  0
  -26.9906  -17.4734   22.4144 C   0  0  0  0  0  0
  -25.8739  -18.5888   20.6263 C   0  0  0  0  0  0
  -29.4319  -24.2719   19.5027 C   0  0  2  0  0  0
  -29.3222  -20.5823   20.3375 C   0  0  0  0  0  0
  -28.2191  -17.8070   20.2449 C   0  0  0  0  0  0
  -28.3295  -25.3703   19.3605 C   0  0  0  0  0  0
  -29.9055  -21.9453   20.1982 N   0  0  0  0  0  0
  -30.0083  -15.5498   21.0818 N   0  0  0  0  0  0
  -27.2001  -18.3007   21.2051 N   0  3  0  0  0  0
  -28.1437  -23.0455   21.1532 O   0  0  0  0  0  0
  -33.6724  -18.8004   22.7390 Cl  0  0  0  0  0  0
  -31.4678  -12.4253   19.1270 H   0  0  0  0  0  0
  -30.3287  -11.3258   19.8468 H   0  0  0  0  0  0
  -29.7472  -11.7780   17.4383 H   0  0  0  0  0  0
  -29.6585  -13.4900   17.7658 H   0  0  0  0  0  0
  -27.8477  -11.2986   18.8354 H   0  0  0  0  0  0
  -27.3675  -12.6065   17.7871 H   0  0  0  0  0  0
  -27.6908  -14.2501   19.5482 H   0  0  0  0  0  0
  -28.6844  -12.0005   21.3596 H   0  0  0  0  0  0
  -28.4563  -13.6503   21.8564 H   0  0  0  0  0  0
  -25.2710   -9.5702   22.4800 H   0  0  0  0  0  0
  -23.9966   -7.4632   22.7498 H   0  0  0  0  0  0
  -21.0879   -8.8712   19.8883 H   0  0  0  0  0  0
  -22.3724  -10.9626   19.6113 H   0  0  0  0  0  0
  -21.1997   -7.6146   23.9703 H   0  0  0  0  0  0
  -21.1462   -6.0514   25.9063 H   0  0  0  0  0  0
  -22.0623   -2.7611   23.2824 H   0  0  0  0  0  0
  -22.4119  -11.9912   22.4865 H   0  0  0  0  0  0
  -21.1118  -13.1240   22.2633 H   0  0  0  0  0  0
  -24.5433  -15.6767   20.3317 H   0  0  0  0  0  0
  -26.0219  -15.4115   19.5981 H   0  0  0  0  0  0
  -26.7152  -32.5509   23.1166 H   0  0  0  0  0  0
  -25.0156  -33.9776   25.0534 H   0  0  0  0  0  0
  -22.6959  -31.3172   21.4236 H   0  0  0  0  0  0
  -23.3753  -35.9629   23.3279 H   0  0  0  0  0  0
  -24.3593  -36.8924   22.2049 H   0  0  0  0  0  0
  -23.7235  -37.6497   23.6655 H   0  0  0  0  0  0
  -26.0666  -31.5853   20.6100 H   0  0  0  0  0  0
  -26.8279  -30.8651   22.0006 H   0  0  0  0  0  0
  -28.0985  -29.0426   21.1831 H   0  0  0  0  0  0
  -25.9345  -26.0312   18.9166 H   0  0  0  0  0  0
  -23.9523  -27.3498   19.0081 H   0  0  0  0  0  0
  -23.7268  -30.6243   19.4152 H   0  0  0  0  0  0
  -22.7352  -29.2702   19.8659 H   0  0  0  0  0  0
  -25.1284  -36.1950   25.0825 H   0  0  0  0  0  0
  -20.9957  -28.3228   24.1423 H   0  0  0  0  0  0
  -20.5682  -26.2274   23.3596 H   0  0  0  0  0  0
  -21.6637  -26.7447   22.1188 H   0  0  0  0  0  0
  -19.6905  -25.6297   21.1228 H   0  0  0  0  0  0
  -19.6679  -27.3209   20.6749 H   0  0  0  0  0  0
  -17.4195  -26.6670   21.4015 H   0  0  0  0  0  0
  -18.0318  -26.0047   22.9002 H   0  0  0  0  0  0
  -19.7933  -30.7260   24.2266 H   0  0  0  0  0  0
  -17.5013  -31.6263   24.5158 H   0  0  0  0  0  0
  -15.5346  -30.2988   23.7656 H   0  0  0  0  0  0
  -15.8651  -28.0815   22.7070 H   0  0  0  0  0  0
  -24.5967  -30.7002   25.7845 H   0  0  0  0  0  0
  -24.8938  -32.2847   26.4911 H   0  0  0  0  0  0
  -25.8131  -30.8902   27.0263 H   0  0  0  0  0  0
  -26.2909  -29.6769   24.1189 H   0  0  0  0  0  0
  -27.4108  -29.7263   25.4607 H   0  0  0  0  0  0
  -27.8749  -30.4328   23.9316 H   0  0  0  0  0  0
  -27.2681  -33.3609   26.2085 H   0  0  0  0  0  0
  -28.3893  -32.6851   25.0354 H   0  0  0  0  0  0
  -28.0718  -31.8434   26.5442 H   0  0  0  0  0  0
  -28.2573  -38.0126   24.7552 H   0  0  0  0  0  0
  -28.1105  -36.2659   24.6232 H   0  0  0  0  0  0
  -27.2307  -37.1378   25.8865 H   0  0  0  0  0  0
  -20.9309  -29.8791   21.6964 H   0  0  0  0  0  0
  -26.0160  -38.2857   24.1455 H   0  0  0  0  0  0
  -31.7572  -20.5926   21.6814 H   0  0  0  0  0  0
  -32.3206  -16.3808   22.1508 H   0  0  0  0  0  0
  -32.2496  -23.4265   20.7474 H   0  0  0  0  0  0
  -32.7168  -23.6070   19.0847 H   0  0  0  0  0  0
  -24.9977  -16.7104   22.7891 H   0  0  0  0  0  0
  -25.4324  -18.0338   23.8563 H   0  0  0  0  0  0
  -24.9437  -19.6623   22.2441 H   0  0  0  0  0  0
  -23.8965  -18.4237   21.5599 H   0  0  0  0  0  0
  -31.1741  -25.2894   18.7459 H   0  0  0  0  0  0
  -31.0357  -25.3576   20.4832 H   0  0  0  0  0  0
  -31.8488  -21.2969   19.5827 H   0  0  0  0  0  0
  -30.9040  -22.0661   18.3570 H   0  0  0  0  0  0
  -27.1781  -16.4195   22.2033 H   0  0  0  0  0  0
  -27.6816  -17.7771   23.2021 H   0  0  0  0  0  0
  -25.8742  -19.5155   20.0508 H   0  0  0  0  0  0
  -25.5730  -17.7893   19.9509 H   0  0  0  0  0  0
  -29.3709  -23.8148   18.5134 H   0  0  0  0  0  0
  -28.4174  -20.6363   20.9411 H   0  0  0  0  0  0
  -28.9949  -20.3293   19.3293 H   0  0  0  0  0  0
  -28.0315  -16.7614   20.0088 H   0  0  0  0  0  0
  -28.1149  -18.3234   19.2903 H   0  0  0  0  0  0
  -27.4072  -24.8464   19.5999 H   0  0  0  0  0  0
  -28.2585  -25.6382   18.3046 H   0  0  0  0  0  0
  -29.0545  -15.3335   21.3229 H   0  0  0  0  0  0
  -27.5389  -19.1876   21.5449 H   0  0  0  0  0  0
  1 25  1  0  0  0
  1 30  2  0  0  0
  1 90  1  0  0  0
  2  3  1  0  0  0
  2 25  1  0  0  0
  2 94  1  0  0  0
  2 95  1  0  0  0
  3  4  1  0  0  0
  3 96  1  0  0  0
  3 97  1  0  0  0
  4  5  1  0  0  0
  4 98  1  0  0  0
  4 99  1  0  0  0
  5  6  1  0  0  0
  5 26  1  0  0  0
  5100  1  0  0  0
  6 25  1  0  0  0
  6101  1  0  0  0
  6102  1  0  0  0
  7  8  2  0  0  0
  7 26  1  0  0  0
  7 29  1  0  0  0
  8  9  1  0  0  0
  8 22  1  0  0  0
  9 10  1  0  0  0
  9 27  2  0  0  0
 10 11  2  0  0  0
 10 15  1  0  0  0
 11 12  1  0  0  0
 11103  1  0  0  0
 12 13  2  0  0  0
 12104  1  0  0  0
 13 14  1  0  0  0
 13 31  1  0  0  0
 14 15  2  0  0  0
 14105  1  0  0  0
 15106  1  0  0  0
 16 17  2  0  0  0
 16 21  1  0  0  0
 16 31  1  0  0  0
 17 18  1  0  0  0
 17107  1  0  0  0
 18 19  2  0  0  0
 18108  1  0  0  0
 19 20  1  0  0  0
 19 24  1  0  0  0
 20 21  2  0  0  0
 20109  1  0  0  0
 21 23  1  0  0  0
 22 28  1  0  0  0
 22 32  2  0  0  0
 26 27  1  0  0  0
 28110  1  0  0  0
 28111  1  0  0  0
 29112  1  0  0  0
 29113  1  0  0  0
 33 34  1  0  0  0
 33 66  1  0  0  0
 33 70  2  0  0  0
 34 36  1  0  0  0
 34 59  1  0  0  0
 34114  1  0  0  0
 35 44  2  0  0  0
 35 45  1  0  0  0
 35 68  1  0  0  0
 36 56  1  0  0  0
 36115  1  0  0  0
 37 39  1  0  0  0
 37 47  1  0  0  0
 37 66  1  0  0  0
 37116  1  0  0  0
 38 43  2  0  0  0
 38 46  1  0  0  0
 38 47  1  0  0  0
 39 64  1  0  0  0
 39 67  2  0  0  0
 40 52  1  0  0  0
 40 53  2  0  0  0
 40 58  1  0  0  0
 41117  1  0  0  0
 41118  1  0  0  0
 41119  1  0  0  0
 41 48  1  0  0  0
 42 43  1  0  0  0
 42 66  1  0  0  0
 42120  1  0  0  0
 42121  1  0  0  0
 43 44  1  0  0  0
 44122  1  0  0  0
 45 46  2  0  0  0
 45123  1  0  0  0
 46124  1  0  0  0
 47125  1  0  0  0
 47126  1  0  0  0
 48 56  1  0  0  0
 48 65  1  0  0  0
 48127  1  0  0  0
 49 50  1  0  0  0
 49 53  1  0  0  0
 49 64  1  0  0  0
 49128  1  0  0  0
 50 51  1  0  0  0
 50129  1  0  0  0
 50130  1  0  0  0
 51 52  1  0  0  0
 51131  1  0  0  0
 51132  1  0  0  0
 52133  1  0  0  0
 52134  1  0  0  0
 53 54  1  0  0  0
 54 55  2  0  0  0
 54135  1  0  0  0
 55 57  1  0  0  0
 55136  1  0  0  0
 56 69  2  0  0  0
 57 58  2  0  0  0
 57137  1  0  0  0
 58138  1  0  0  0
 59 60  1  0  0  0
 59 61  1  0  0  0
 59 62  1  0  0  0
 60139  1  0  0  0
 60140  1  0  0  0
 60141  1  0  0  0
 61142  1  0  0  0
 61143  1  0  0  0
 61144  1  0  0  0
 62145  1  0  0  0
 62146  1  0  0  0
 62147  1  0  0  0
 63 65  1  0  0  0
 63148  1  0  0  0
 63149  1  0  0  0
 63150  1  0  0  0
 64151  1  0  0  0
 65152  1  0  0  0
 68 88  1  0  0  0
 71 73  2  0  0  0
 71 76  1  0  0  0
 71153  1  0  0  0
 72 75  1  0  0  0
 72 76  2  0  0  0
 72154  1  0  0  0
 73 74  1  0  0  0
 73 86  1  0  0  0
 74 75  2  0  0  0
 74 87  1  0  0  0
 75 90  1  0  0  0
 76 93  1  0  0  0
 77 85  1  0  0  0
 77 89  1  0  0  0
 77 92  2  0  0  0
 78 81  1  0  0  0
 78 82  1  0  0  0
 78155  1  0  0  0
 78156  1  0  0  0
 79 80  1  0  0  0
 79 83  1  0  0  0
 79157  1  0  0  0
 79158  1  0  0  0
 80 84  1  0  0  0
 80159  1  0  0  0
 80160  1  0  0  0
 81 85  1  0  0  0
 81161  1  0  0  0
 81162  1  0  0  0
 82 89  1  0  0  0
 82163  1  0  0  0
 82164  1  0  0  0
 83 91  1  0  0  0
 83165  1  0  0  0
 83166  1  0  0  0
 84 91  1  0  0  0
 84167  1  0  0  0
 84168  1  0  0  0
 85 88  1  0  0  0
 85169  1  0  0  0
 86 89  1  0  0  0
 86170  1  0  0  0
 86171  1  0  0  0
 87172  1  0  0  0
 87173  1  0  0  0
 87 91  1  0  0  0
 88174  1  0  0  0
 88175  1  0  0  0
 90176  1  0  0  0
 91177  1  0  0  0
M  CHG  1  91   1
M  ISO  4   1 100  68 101  88 101  90 100
M  END
> <chiral flag>
0

> <version>
0

> <s_m_source_file>
/data/baiqing/PycharmProjects/Reinvent-master-3.2/result/LINK_invent/BTK/process_docking_weight1_custom_product_contain_oxygen_bond_distance_aromatic_linkinvent_7_9_3/rearranged_h_0024.sdf

> <i_m_source_file_index>
47

> <r_mmod_Potential_Energy-OPLS-2005>
50.8562927246094

> <r_mmod_Stretch_Energy-OPLS-2005>
58.0299987792969

> <r_mmod_Bend_Energy-OPLS-2005>
154.341857910156

> <r_mmod_Torsional_Energy-OPLS-2005>
328.450775146484

> <r_mmod_Improper_Torsional_Energy-OPLS-2005>
10.8947277069092

> <r_mmod_Van_der_Waal_Energy-OPLS-2005>
170.485900878906

> <r_mmod_Electrostatic_Energy-OPLS-2005>
-217.566299438477

> <r_mmod_Solvation_Energy-OPLS-2005>
-473.435089111328

> <b_mmod_Minimization_Converged-OPLS-2005>
0

> <r_mmod_RMS_Derivative-OPLS-2005>
1.65196359157562

$$$$
47
                    3D
 Structure written by MMmdl.
158167  0  0  1  0            999 V2000
  -30.5986  -14.6471   20.5124 C   0  0  0  0  0  0
  -30.4437  -12.4004   19.4491 C   0  0  0  0  0  0
  -29.5085  -12.5191   18.2239 C   0  0  0  0  0  0
  -28.0312  -12.3531   18.6338 C   0  0  0  0  0  0
  -27.6548  -13.2141   19.8678 C   0  0  2  0  0  0
  -28.6986  -13.0495   20.9952 C   0  0  0  0  0  0
  -25.2563  -13.8162   20.5677 C   0  0  0  0  0  0
  -24.1820  -13.0438   20.9180 C   0  0  0  0  0  0
  -24.6387  -11.6906   20.8721 C   0  0  0  0  0  0
  -23.9060  -10.4290   21.0399 C   0  0  0  0  0  0
  -24.3612   -9.4210   21.9180 C   0  0  0  0  0  0
  -23.6285   -8.2247   22.0755 C   0  0  0  0  0  0
  -22.4268   -8.0277   21.3546 C   0  0  0  0  0  0
  -21.9900   -9.0250   20.4652 C   0  0  0  0  0  0
  -22.7230  -10.2129   20.3058 C   0  0  0  0  0  0
  -21.6855   -6.0727   22.5275 C   0  0  0  0  0  0
  -21.4013   -6.5629   23.8208 C   0  0  0  0  0  0
  -21.3661   -5.6786   24.9171 C   0  0  0  0  0  0
  -21.6045   -4.3049   24.7225 C   0  0  0  0  0  0
  -21.8819   -3.8139   23.4346 C   0  0  0  0  0  0
  -21.9199   -4.6955   22.3403 C   0  0  0  0  0  0
  -22.7848  -13.5240   21.1840 C   0  0  0  0  0  0
  -22.1668   -4.2140   21.0982 F   0  0  0  0  0  0
  -21.5639   -3.4537   25.7742 F   0  0  0  0  0  0
  -30.0150  -13.4073   20.4403 N   0  0  0  0  0  0
  -26.2990  -12.9339   20.3325 N   0  0  0  0  0  0
  -25.9313  -11.6497   20.5740 N   0  0  0  0  0  0
  -22.0490  -12.8238   22.0401 N   0  0  0  0  0  0
  -25.4286  -15.1884   20.4108 N   0  0  0  0  0  0
  -31.7442  -14.8468   20.0954 O   0  0  0  0  0  0
  -21.6641   -6.8867   21.4236 O   0  0  0  0  0  0
  -22.3537  -14.5558   20.6712 O   0  0  0  0  0  0
  -24.6266  -31.8583   23.2023 C   0  0  0  0  0  0
  -25.9123  -32.4764   23.8346 C   0  0  1  0  0  0
  -27.2277  -27.3153   20.1103 C   0  0  0  0  0  0
  -25.5946  -33.8564   24.2285 N   0  0  0  0  0  0
  -23.4191  -30.4821   21.5447 C   0  0  2  0  0  0
  -24.8634  -28.9305   20.1137 C   0  0  0  0  0  0
  -22.7472  -29.4615   22.4935 C   0  0  0  0  0  0
  -18.0288  -28.1380   22.8481 C   0  0  0  0  0  0
  -24.1491  -36.7276   23.2638 C   0  0  0  0  0  0
  -25.9598  -30.7866   21.3729 C   0  0  0  0  0  0
  -26.0310  -29.4133   20.7150 C   0  0  0  0  0  0
  -27.2116  -28.6155   20.7039 C   0  0  0  0  0  0
  -26.0305  -26.8743   19.5031 C   0  0  0  0  0  0
  -24.8642  -27.6657   19.5032 C   0  0  0  0  0  0
  -23.6342  -29.8154   20.1602 C   0  0  0  0  0  0
  -25.4114  -36.3071   24.0337 C   0  0  1  0  0  0
  -20.5886  -28.3684   23.1279 C   0  0  2  0  0  0
  -20.6775  -26.9406   22.5407 C   0  0  0  0  0  0
  -19.5761  -26.6384   21.5201 C   0  0  0  0  0  0
  -18.1937  -26.7927   22.1608 C   0  0  0  0  0  0
  -19.1540  -28.8850   23.2874 C   0  0  0  0  0  0
  -18.9465  -30.1452   23.8890 C   0  0  0  0  0  0
  -17.6466  -30.6581   24.0566 C   0  0  0  0  0  0
  -25.9057  -34.9444   23.5113 C   0  0  0  0  0  0
  -16.5356  -29.9082   23.6332 C   0  0  0  0  0  0
  -16.7277  -28.6501   23.0349 C   0  0  0  0  0  0
  -26.4517  -31.6566   25.0713 C   0  0  0  0  0  0
  -25.3767  -31.3687   26.1454 C   0  0  0  0  0  0
  -27.0364  -30.2995   24.6153 C   0  0  0  0  0  0
  -27.6083  -32.4293   25.7479 C   0  0  0  0  0  0
  -27.5582  -37.1792   24.8469 C   0  0  0  0  0  0
  -21.4184  -29.3035   22.3671 N   0  0  0  0  0  0
  -26.4288  -37.3768   23.9421 N   0  0  0  0  0  0
  -24.6871  -31.0594   22.0968 N   0  0  0  0  0  0
  -23.4199  -28.8162   23.3019 O   0  0  0  0  0  0
  -28.3834  -26.5206   20.1620 O   0  0  0  0  0  0
  -26.5605  -34.8915   22.4666 O   0  0  0  0  0  0
  -23.5431  -32.1386   23.7358 O   0  0  0  0  0  0
  -28.7835  -19.0822   19.6058 C   0  0  0  0  0  0
  -29.0960  -17.6871   19.6520 C   0  0  0  0  0  0
  -30.1638  -17.9994   21.7850 C   0  0  0  0  0  0
  -29.1226  -19.9702   20.6640 C   0  0  0  0  0  0
  -29.7713  -17.1007   20.7573 C   0  0  0  0  0  0
  -29.8514  -19.3937   21.7444 C   0  0  0  0  0  0
  -29.0013  -22.4911   20.2480 C   0  0  0  0  0  0
  -26.8710  -22.5973   22.2084 C   0  0  0  0  0  0
  -26.9660  -23.7730   21.2393 C   0  0  0  0  0  0
  -27.2225  -21.2911   21.4838 C   0  0  0  0  0  0
  -28.3886  -23.9079   20.6752 C   0  0  2  0  0  0
  -28.4675  -25.1301   19.6496 C   0  0  0  0  0  0
  -28.5169  -21.3060   20.7801 N   0  0  0  0  0  0
  -29.7844  -15.6523   20.9650 N   0  0  0  0  0  0
  -29.9548  -22.4847   19.4632 O   0  0  0  0  0  0
  -30.2771  -20.3689   23.1073 Cl  0  0  0  0  0  0
  -31.4830  -12.5389   19.1452 H   0  0  0  0  0  0
  -30.3889  -11.3996   19.8806 H   0  0  0  0  0  0
  -29.7725  -11.7757   17.4706 H   0  0  0  0  0  0
  -29.6479  -13.4931   17.7512 H   0  0  0  0  0  0
  -27.8632  -11.2982   18.8532 H   0  0  0  0  0  0
  -27.3797  -12.5959   17.7940 H   0  0  0  0  0  0
  -27.6789  -14.2523   19.5368 H   0  0  0  0  0  0
  -28.7113  -12.0200   21.3556 H   0  0  0  0  0  0
  -28.4374  -13.6579   21.8622 H   0  0  0  0  0  0
  -25.2757   -9.5692   22.4756 H   0  0  0  0  0  0
  -23.9994   -7.4641   22.7477 H   0  0  0  0  0  0
  -21.0830   -8.8765   19.8962 H   0  0  0  0  0  0
  -22.3678  -10.9666   19.6169 H   0  0  0  0  0  0
  -21.1991   -7.6134   23.9704 H   0  0  0  0  0  0
  -21.1490   -6.0518   25.9074 H   0  0  0  0  0  0
  -22.0598   -2.7601   23.2850 H   0  0  0  0  0  0
  -22.4105  -11.9898   22.4786 H   0  0  0  0  0  0
  -21.1118  -13.1279   22.2623 H   0  0  0  0  0  0
  -24.6637  -15.8436   20.5288 H   0  0  0  0  0  0
  -26.2805  -15.6301   20.0903 H   0  0  0  0  0  0
  -26.7183  -32.5437   23.1083 H   0  0  0  0  0  0
  -25.0141  -33.9698   25.0465 H   0  0  0  0  0  0
  -22.7128  -31.3028   21.4015 H   0  0  0  0  0  0
  -23.3761  -35.9601   23.3297 H   0  0  0  0  0  0
  -24.3579  -36.8893   22.2052 H   0  0  0  0  0  0
  -23.7237  -37.6476   23.6657 H   0  0  0  0  0  0
  -26.0941  -31.5497   20.6046 H   0  0  0  0  0  0
  -26.8390  -30.8326   22.0040 H   0  0  0  0  0  0
  -28.1106  -28.9833   21.1771 H   0  0  0  0  0  0
  -25.9564  -25.9039   19.0389 H   0  0  0  0  0  0
  -23.9646  -27.2853   19.0395 H   0  0  0  0  0  0
  -23.7624  -30.5927   19.4060 H   0  0  0  0  0  0
  -22.7522  -29.2505   19.8532 H   0  0  0  0  0  0
  -25.1290  -36.1918   25.0826 H   0  0  0  0  0  0
  -20.9982  -28.3266   24.1399 H   0  0  0  0  0  0
  -20.5656  -26.2291   23.3599 H   0  0  0  0  0  0
  -21.6647  -26.7429   22.1212 H   0  0  0  0  0  0
  -19.6915  -25.6294   21.1230 H   0  0  0  0  0  0
  -19.6710  -27.3196   20.6734 H   0  0  0  0  0  0
  -17.4205  -26.6678   21.4008 H   0  0  0  0  0  0
  -18.0341  -26.0059   22.8996 H   0  0  0  0  0  0
  -19.7942  -30.7269   24.2249 H   0  0  0  0  0  0
  -17.5024  -31.6260   24.5168 H   0  0  0  0  0  0
  -15.5358  -30.2984   23.7654 H   0  0  0  0  0  0
  -15.8677  -28.0820   22.7067 H   0  0  0  0  0  0
  -24.5966  -30.6998   25.7802 H   0  0  0  0  0  0
  -24.8934  -32.2839   26.4881 H   0  0  0  0  0  0
  -25.8120  -30.8888   27.0229 H   0  0  0  0  0  0
  -26.2930  -29.6720   24.1223 H   0  0  0  0  0  0
  -27.4129  -29.7266   25.4638 H   0  0  0  0  0  0
  -27.8771  -30.4287   23.9331 H   0  0  0  0  0  0
  -27.2714  -33.3605   26.2044 H   0  0  0  0  0  0
  -28.3903  -32.6818   25.0307 H   0  0  0  0  0  0
  -28.0742  -31.8420   26.5404 H   0  0  0  0  0  0
  -28.2593  -38.0094   24.7518 H   0  0  0  0  0  0
  -28.1080  -36.2623   24.6287 H   0  0  0  0  0  0
  -27.2300  -37.1437   25.8871 H   0  0  0  0  0  0
  -20.9360  -29.8742   21.6867 H   0  0  0  0  0  0
  -26.0169  -38.2840   24.1428 H   0  0  0  0  0  0
  -28.1970  -19.4533   18.7771 H   0  0  0  0  0  0
  -28.7346  -17.0525   18.8545 H   0  0  0  0  0  0
  -30.6411  -17.6070   22.6717 H   0  0  0  0  0  0
  -25.8648  -22.5329   22.6236 H   0  0  0  0  0  0
  -27.5450  -22.7503   23.0529 H   0  0  0  0  0  0
  -26.6851  -24.6923   21.7540 H   0  0  0  0  0  0
  -26.2498  -23.6427   20.4268 H   0  0  0  0  0  0
  -26.4483  -21.0633   20.7498 H   0  0  0  0  0  0
  -27.1993  -20.4733   22.2061 H   0  0  0  0  0  0
  -29.0262  -24.1954   21.5116 H   0  0  0  0  0  0
  -27.7919  -24.9584   18.8143 H   0  0  0  0  0  0
  -29.4521  -25.0869   19.1832 H   0  0  0  0  0  0
  -28.9201  -15.2883   21.3367 H   0  0  0  0  0  0
  1 25  1  0  0  0
  1 30  2  0  0  0
  1 84  1  0  0  0
  2  3  1  0  0  0
  2 25  1  0  0  0
  2 87  1  0  0  0
  2 88  1  0  0  0
  3  4  1  0  0  0
  3 89  1  0  0  0
  3 90  1  0  0  0
  4  5  1  0  0  0
  4 91  1  0  0  0
  4 92  1  0  0  0
  5  6  1  0  0  0
  5 26  1  0  0  0
  5 93  1  0  0  0
  6 25  1  0  0  0
  6 94  1  0  0  0
  6 95  1  0  0  0
  7  8  2  0  0  0
  7 26  1  0  0  0
  7 29  1  0  0  0
  8  9  1  0  0  0
  8 22  1  0  0  0
  9 10  1  0  0  0
  9 27  2  0  0  0
 10 11  2  0  0  0
 10 15  1  0  0  0
 11 12  1  0  0  0
 11 96  1  0  0  0
 12 13  2  0  0  0
 12 97  1  0  0  0
 13 14  1  0  0  0
 13 31  1  0  0  0
 14 15  2  0  0  0
 14 98  1  0  0  0
 15 99  1  0  0  0
 16 17  2  0  0  0
 16 21  1  0  0  0
 16 31  1  0  0  0
 17 18  1  0  0  0
 17100  1  0  0  0
 18 19  2  0  0  0
 18101  1  0  0  0
 19 20  1  0  0  0
 19 24  1  0  0  0
 20 21  2  0  0  0
 20102  1  0  0  0
 21 23  1  0  0  0
 22 28  1  0  0  0
 22 32  2  0  0  0
 26 27  1  0  0  0
 28103  1  0  0  0
 28104  1  0  0  0
 29105  1  0  0  0
 29106  1  0  0  0
 33 34  1  0  0  0
 33 66  1  0  0  0
 33 70  2  0  0  0
 34 36  1  0  0  0
 34 59  1  0  0  0
 34107  1  0  0  0
 35 44  2  0  0  0
 35 45  1  0  0  0
 35 68  1  0  0  0
 36 56  1  0  0  0
 36108  1  0  0  0
 37 39  1  0  0  0
 37 47  1  0  0  0
 37 66  1  0  0  0
 37109  1  0  0  0
 38 43  2  0  0  0
 38 46  1  0  0  0
 38 47  1  0  0  0
 39 64  1  0  0  0
 39 67  2  0  0  0
 40 52  1  0  0  0
 40 53  2  0  0  0
 40 58  1  0  0  0
 41110  1  0  0  0
 41111  1  0  0  0
 41112  1  0  0  0
 41 48  1  0  0  0
 42 43  1  0  0  0
 42 66  1  0  0  0
 42113  1  0  0  0
 42114  1  0  0  0
 43 44  1  0  0  0
 44115  1  0  0  0
 45 46  2  0  0  0
 45116  1  0  0  0
 46117  1  0  0  0
 47118  1  0  0  0
 47119  1  0  0  0
 48 56  1  0  0  0
 48 65  1  0  0  0
 48120  1  0  0  0
 49 50  1  0  0  0
 49 53  1  0  0  0
 49 64  1  0  0  0
 49121  1  0  0  0
 50 51  1  0  0  0
 50122  1  0  0  0
 50123  1  0  0  0
 51 52  1  0  0  0
 51124  1  0  0  0
 51125  1  0  0  0
 52126  1  0  0  0
 52127  1  0  0  0
 53 54  1  0  0  0
 54 55  2  0  0  0
 54128  1  0  0  0
 55 57  1  0  0  0
 55129  1  0  0  0
 56 69  2  0  0  0
 57 58  2  0  0  0
 57130  1  0  0  0
 58131  1  0  0  0
 59 60  1  0  0  0
 59 61  1  0  0  0
 59 62  1  0  0  0
 60132  1  0  0  0
 60133  1  0  0  0
 60134  1  0  0  0
 61135  1  0  0  0
 61136  1  0  0  0
 61137  1  0  0  0
 62138  1  0  0  0
 62139  1  0  0  0
 62140  1  0  0  0
 63 65  1  0  0  0
 63141  1  0  0  0
 63142  1  0  0  0
 63143  1  0  0  0
 64144  1  0  0  0
 65145  1  0  0  0
 68 82  1  0  0  0
 71 72  2  0  0  0
 71 74  1  0  0  0
 71146  1  0  0  0
 72 75  1  0  0  0
 72147  1  0  0  0
 73 75  2  0  0  0
 73 76  1  0  0  0
 73148  1  0  0  0
 74 76  2  0  0  0
 74 83  1  0  0  0
 75 84  1  0  0  0
 76 86  1  0  0  0
 77 81  1  0  0  0
 77 83  1  0  0  0
 77 85  2  0  0  0
 78 79  1  0  0  0
 78 80  1  0  0  0
 78149  1  0  0  0
 78150  1  0  0  0
 79 81  1  0  0  0
 79151  1  0  0  0
 79152  1  0  0  0
 80 83  1  0  0  0
 80153  1  0  0  0
 80154  1  0  0  0
 81 82  1  0  0  0
 81155  1  0  0  0
 82156  1  0  0  0
 82157  1  0  0  0
 84158  1  0  0  0
M  ISO  4   1 100  68 101  82 101  84 100
M  END
> <chiral flag>
0

> <version>
0

> <s_m_source_file>
/data/baiqing/PycharmProjects/Reinvent-master-3.2/result/LINK_invent/BTK/process_docking_weight1_custom_product_contain_oxygen_bond_distance_aromatic_linkinvent_7_9_3/rearranged_h_0024.sdf

> <i_m_source_file_index>
48

> <r_mmod_Potential_Energy-OPLS-2005>
198.220138549805

> <r_mmod_Stretch_Energy-OPLS-2005>
87.2781829833984

> <r_mmod_Bend_Energy-OPLS-2005>
152.671737670898

> <r_mmod_Torsional_Energy-OPLS-2005>
322.988677978516

> <r_mmod_Improper_Torsional_Energy-OPLS-2005>
8.06334400177002

> <r_mmod_Van_der_Waal_Energy-OPLS-2005>
138.547592163086

> <r_mmod_Electrostatic_Energy-OPLS-2005>
-333.185455322266

> <r_mmod_Solvation_Energy-OPLS-2005>
-225.986862182617

> <b_mmod_Minimization_Converged-OPLS-2005>
0

> <r_mmod_RMS_Derivative-OPLS-2005>
1.15014374256134

$$$$
48
                    3D
 Structure written by MMmdl.
155163  0  0  1  0            999 V2000
  -30.6283  -14.6324   20.4788 C   0  0  0  0  0  0
  -30.4311  -12.3864   19.4384 C   0  0  0  0  0  0
  -29.5057  -12.5312   18.2119 C   0  0  0  0  0  0
  -28.0266  -12.3677   18.6169 C   0  0  0  0  0  0
  -27.6535  -13.2198   19.8587 C   0  0  2  0  0  0
  -28.6995  -13.0701   20.9860 C   0  0  0  0  0  0
  -25.2586  -13.8186   20.5640 C   0  0  0  0  0  0
  -24.1850  -13.0445   20.9154 C   0  0  0  0  0  0
  -24.6415  -11.6910   20.8695 C   0  0  0  0  0  0
  -23.9079  -10.4290   21.0370 C   0  0  0  0  0  0
  -24.3649   -9.4202   21.9150 C   0  0  0  0  0  0
  -23.6320   -8.2243   22.0743 C   0  0  0  0  0  0
  -22.4299   -8.0269   21.3538 C   0  0  0  0  0  0
  -21.9915   -9.0248   20.4635 C   0  0  0  0  0  0
  -22.7254  -10.2116   20.3025 C   0  0  0  0  0  0
  -21.6857   -6.0720   22.5274 C   0  0  0  0  0  0
  -21.4019   -6.5624   23.8210 C   0  0  0  0  0  0
  -21.3665   -5.6786   24.9171 C   0  0  0  0  0  0
  -21.6055   -4.3052   24.7231 C   0  0  0  0  0  0
  -21.8819   -3.8133   23.4352 C   0  0  0  0  0  0
  -21.9205   -4.6942   22.3400 C   0  0  0  0  0  0
  -22.7875  -13.5212   21.1808 C   0  0  0  0  0  0
  -22.1659   -4.2123   21.0978 F   0  0  0  0  0  0
  -21.5638   -3.4539   25.7741 F   0  0  0  0  0  0
  -30.0176  -13.4073   20.4241 N   0  0  0  0  0  0
  -26.3009  -12.9362   20.3286 N   0  0  0  0  0  0
  -25.9351  -11.6511   20.5726 N   0  0  0  0  0  0
  -22.0528  -12.8215   22.0384 N   0  0  0  0  0  0
  -25.4322  -15.1913   20.4048 N   0  0  0  0  0  0
  -31.7964  -14.7729   20.1125 O   0  0  0  0  0  0
  -21.6658   -6.8867   21.4242 O   0  0  0  0  0  0
  -22.3530  -14.5502   20.6637 O   0  0  0  0  0  0
  -24.6239  -31.8629   23.2037 C   0  0  0  0  0  0
  -25.9096  -32.4789   23.8370 C   0  0  1  0  0  0
  -27.2308  -27.3375   20.1139 C   0  0  0  0  0  0
  -25.5910  -33.8583   24.2291 N   0  0  0  0  0  0
  -23.4179  -30.4849   21.5488 C   0  0  2  0  0  0
  -24.8655  -28.9488   20.1082 C   0  0  0  0  0  0
  -22.7470  -29.4634   22.4983 C   0  0  0  0  0  0
  -18.0279  -28.1390   22.8476 C   0  0  0  0  0  0
  -24.1486  -36.7308   23.2639 C   0  0  0  0  0  0
  -25.9586  -30.7995   21.3748 C   0  0  0  0  0  0
  -26.0345  -29.4308   20.7117 C   0  0  0  0  0  0
  -27.2210  -28.6395   20.7010 C   0  0  0  0  0  0
  -26.0374  -26.9098   19.4847 C   0  0  0  0  0  0
  -24.8710  -27.6946   19.4804 C   0  0  0  0  0  0
  -23.6282  -29.8214   20.1635 C   0  0  0  0  0  0
  -25.4113  -36.3100   24.0335 C   0  0  1  0  0  0
  -20.5868  -28.3679   23.1299 C   0  0  2  0  0  0
  -20.6770  -26.9410   22.5416 C   0  0  0  0  0  0
  -19.5758  -26.6385   21.5209 C   0  0  0  0  0  0
  -18.1931  -26.7933   22.1613 C   0  0  0  0  0  0
  -19.1524  -28.8861   23.2873 C   0  0  0  0  0  0
  -18.9451  -30.1468   23.8887 C   0  0  0  0  0  0
  -17.6448  -30.6590   24.0563 C   0  0  0  0  0  0
  -25.9047  -34.9460   23.5113 C   0  0  0  0  0  0
  -16.5336  -29.9080   23.6330 C   0  0  0  0  0  0
  -16.7268  -28.6498   23.0342 C   0  0  0  0  0  0
  -26.4472  -31.6593   25.0746 C   0  0  0  0  0  0
  -25.3684  -31.3723   26.1455 C   0  0  0  0  0  0
  -27.0326  -30.3020   24.6220 C   0  0  0  0  0  0
  -27.6046  -32.4319   25.7502 C   0  0  0  0  0  0
  -27.5584  -37.1801   24.8454 C   0  0  0  0  0  0
  -21.4186  -29.3029   22.3702 N   0  0  0  0  0  0
  -26.4297  -37.3787   23.9399 N   0  0  0  0  0  0
  -24.6851  -31.0645   22.0991 N   0  0  0  0  0  0
  -23.4193  -28.8181   23.3074 O   0  0  0  0  0  0
  -28.3496  -26.4908   20.1695 O   0  0  0  0  0  0
  -26.5627  -34.8925   22.4688 O   0  0  0  0  0  0
  -23.5405  -32.1434   23.7364 O   0  0  0  0  0  0
  -28.9939  -19.4130   21.1185 C   0  0  0  0  0  0
  -29.0631  -18.0022   21.3497 C   0  0  0  0  0  0
  -30.6136  -19.1702   19.3730 C   0  0  0  0  0  0
  -29.7557  -20.0460   20.1015 C   0  0  0  0  0  0
  -29.9002  -17.1310   20.5953 C   0  0  0  0  0  0
  -30.6810  -17.7627   19.5890 C   0  0  0  0  0  0
  -29.8426  -21.7343   18.3447 C   0  0  0  0  0  0
  -29.2595  -23.9933   20.3837 C   0  0  0  0  0  0
  -28.8260  -22.4566   20.4922 C   0  0  0  0  0  0
  -28.1003  -25.0356   20.0974 C   0  0  0  0  0  0
  -29.8299  -15.6859   20.8410 N   0  0  0  0  0  0
  -29.6733  -21.4547   19.7748 N   0  0  0  0  0  0
  -31.4852  -17.0374   18.7770 F   0  0  0  0  0  0
  -31.4729  -12.5023   19.1357 H   0  0  0  0  0  0
  -30.3482  -11.3842   19.8603 H   0  0  0  0  0  0
  -29.7716  -11.8079   17.4416 H   0  0  0  0  0  0
  -29.6538  -13.5167   17.7654 H   0  0  0  0  0  0
  -27.8511  -11.3115   18.8201 H   0  0  0  0  0  0
  -27.3790  -12.6295   17.7789 H   0  0  0  0  0  0
  -27.6691  -14.2575   19.5296 H   0  0  0  0  0  0
  -28.7081  -12.0477   21.3662 H   0  0  0  0  0  0
  -28.4488  -13.7074   21.8354 H   0  0  0  0  0  0
  -25.2794   -9.5683   22.4727 H   0  0  0  0  0  0
  -24.0021   -7.4632   22.7460 H   0  0  0  0  0  0
  -21.0836   -8.8774   19.8950 H   0  0  0  0  0  0
  -22.3712  -10.9661   19.6128 H   0  0  0  0  0  0
  -21.2012   -7.6131   23.9706 H   0  0  0  0  0  0
  -21.1487   -6.0510   25.9076 H   0  0  0  0  0  0
  -22.0606   -2.7589   23.2870 H   0  0  0  0  0  0
  -22.4160  -11.9903   22.4817 H   0  0  0  0  0  0
  -21.1137  -13.1216   22.2540 H   0  0  0  0  0  0
  -24.6710  -15.8558   20.5049 H   0  0  0  0  0  0
  -26.2887  -15.6263   20.0868 H   0  0  0  0  0  0
  -26.7177  -32.5472   23.1129 H   0  0  0  0  0  0
  -25.0009  -33.9713   25.0399 H   0  0  0  0  0  0
  -22.7103  -31.3052   21.4100 H   0  0  0  0  0  0
  -23.3758  -35.9630   23.3292 H   0  0  0  0  0  0
  -24.3591  -36.8939   22.2061 H   0  0  0  0  0  0
  -23.7221  -37.6496   23.6669 H   0  0  0  0  0  0
  -26.0940  -31.5715   20.6156 H   0  0  0  0  0  0
  -26.8355  -30.8398   22.0088 H   0  0  0  0  0  0
  -28.1178  -29.0094   21.1768 H   0  0  0  0  0  0
  -25.9747  -25.9546   18.9872 H   0  0  0  0  0  0
  -23.9830  -27.3185   18.9914 H   0  0  0  0  0  0
  -23.7307  -30.6003   19.4077 H   0  0  0  0  0  0
  -22.7499  -29.2421   19.8692 H   0  0  0  0  0  0
  -25.1287  -36.1965   25.0830 H   0  0  0  0  0  0
  -20.9955  -28.3260   24.1420 H   0  0  0  0  0  0
  -20.5680  -26.2287   23.3612 H   0  0  0  0  0  0
  -21.6637  -26.7460   22.1197 H   0  0  0  0  0  0
  -19.6915  -25.6297   21.1242 H   0  0  0  0  0  0
  -19.6706  -27.3187   20.6742 H   0  0  0  0  0  0
  -17.4203  -26.6682   21.4014 H   0  0  0  0  0  0
  -18.0333  -26.0080   22.9016 H   0  0  0  0  0  0
  -19.7926  -30.7285   24.2245 H   0  0  0  0  0  0
  -17.4998  -31.6265   24.5166 H   0  0  0  0  0  0
  -15.5334  -30.2968   23.7674 H   0  0  0  0  0  0
  -15.8668  -28.0819   22.7056 H   0  0  0  0  0  0
  -24.5858  -30.7092   25.7746 H   0  0  0  0  0  0
  -24.8870  -32.2881   26.4902 H   0  0  0  0  0  0
  -25.7976  -30.8859   27.0225 H   0  0  0  0  0  0
  -26.2924  -29.6767   24.1225 H   0  0  0  0  0  0
  -27.3988  -29.7288   25.4746 H   0  0  0  0  0  0
  -27.8800  -30.4306   23.9485 H   0  0  0  0  0  0
  -27.2686  -33.3620   26.2104 H   0  0  0  0  0  0
  -28.3838  -32.6881   25.0302 H   0  0  0  0  0  0
  -28.0752  -31.8432   26.5389 H   0  0  0  0  0  0
  -28.2583  -38.0116   24.7530 H   0  0  0  0  0  0
  -28.1102  -36.2649   24.6244 H   0  0  0  0  0  0
  -27.2312  -37.1403   25.8858 H   0  0  0  0  0  0
  -20.9376  -29.8733   21.6883 H   0  0  0  0  0  0
  -26.0194  -38.2867   24.1397 H   0  0  0  0  0  0
  -28.3158  -19.9939   21.7297 H   0  0  0  0  0  0
  -28.4383  -17.5846   22.1269 H   0  0  0  0  0  0
  -31.2446  -19.5680   18.5932 H   0  0  0  0  0  0
  -30.8873  -21.9463   18.1094 H   0  0  0  0  0  0
  -29.2546  -22.6007   18.0340 H   0  0  0  0  0  0
  -29.5070  -20.9083   17.7132 H   0  0  0  0  0  0
  -30.0298  -24.1201   19.6229 H   0  0  0  0  0  0
  -29.7540  -24.2719   21.3160 H   0  0  0  0  0  0
  -27.8059  -22.3549   20.1191 H   0  0  0  0  0  0
  -28.7717  -22.1925   21.5480 H   0  0  0  0  0  0
  -27.2768  -24.7976   20.7746 H   0  0  0  0  0  0
  -27.7518  -24.8033   19.0903 H   0  0  0  0  0  0
  -28.9630  -15.3833   21.2575 H   0  0  0  0  0  0
  1 25  1  0  0  0
  1 30  2  0  0  0
  1 81  1  0  0  0
  2  3  1  0  0  0
  2 25  1  0  0  0
  2 84  1  0  0  0
  2 85  1  0  0  0
  3  4  1  0  0  0
  3 86  1  0  0  0
  3 87  1  0  0  0
  4  5  1  0  0  0
  4 88  1  0  0  0
  4 89  1  0  0  0
  5  6  1  0  0  0
  5 26  1  0  0  0
  5 90  1  0  0  0
  6 25  1  0  0  0
  6 91  1  0  0  0
  6 92  1  0  0  0
  7  8  2  0  0  0
  7 26  1  0  0  0
  7 29  1  0  0  0
  8  9  1  0  0  0
  8 22  1  0  0  0
  9 10  1  0  0  0
  9 27  2  0  0  0
 10 11  2  0  0  0
 10 15  1  0  0  0
 11 12  1  0  0  0
 11 93  1  0  0  0
 12 13  2  0  0  0
 12 94  1  0  0  0
 13 14  1  0  0  0
 13 31  1  0  0  0
 14 15  2  0  0  0
 14 95  1  0  0  0
 15 96  1  0  0  0
 16 17  2  0  0  0
 16 21  1  0  0  0
 16 31  1  0  0  0
 17 18  1  0  0  0
 17 97  1  0  0  0
 18 19  2  0  0  0
 18 98  1  0  0  0
 19 20  1  0  0  0
 19 24  1  0  0  0
 20 21  2  0  0  0
 20 99  1  0  0  0
 21 23  1  0  0  0
 22 28  1  0  0  0
 22 32  2  0  0  0
 26 27  1  0  0  0
 28100  1  0  0  0
 28101  1  0  0  0
 29102  1  0  0  0
 29103  1  0  0  0
 33 34  1  0  0  0
 33 66  1  0  0  0
 33 70  2  0  0  0
 34 36  1  0  0  0
 34 59  1  0  0  0
 34104  1  0  0  0
 35 44  2  0  0  0
 35 45  1  0  0  0
 35 68  1  0  0  0
 36 56  1  0  0  0
 36105  1  0  0  0
 37 39  1  0  0  0
 37 47  1  0  0  0
 37 66  1  0  0  0
 37106  1  0  0  0
 38 43  2  0  0  0
 38 46  1  0  0  0
 38 47  1  0  0  0
 39 64  1  0  0  0
 39 67  2  0  0  0
 40 52  1  0  0  0
 40 53  2  0  0  0
 40 58  1  0  0  0
 41107  1  0  0  0
 41108  1  0  0  0
 41109  1  0  0  0
 41 48  1  0  0  0
 42 43  1  0  0  0
 42 66  1  0  0  0
 42110  1  0  0  0
 42111  1  0  0  0
 43 44  1  0  0  0
 44112  1  0  0  0
 45 46  2  0  0  0
 45113  1  0  0  0
 46114  1  0  0  0
 47115  1  0  0  0
 47116  1  0  0  0
 48 56  1  0  0  0
 48 65  1  0  0  0
 48117  1  0  0  0
 49 50  1  0  0  0
 49 53  1  0  0  0
 49 64  1  0  0  0
 49118  1  0  0  0
 50 51  1  0  0  0
 50119  1  0  0  0
 50120  1  0  0  0
 51 52  1  0  0  0
 51121  1  0  0  0
 51122  1  0  0  0
 52123  1  0  0  0
 52124  1  0  0  0
 53 54  1  0  0  0
 54 55  2  0  0  0
 54125  1  0  0  0
 55 57  1  0  0  0
 55126  1  0  0  0
 56 69  2  0  0  0
 57 58  2  0  0  0
 57127  1  0  0  0
 58128  1  0  0  0
 59 60  1  0  0  0
 59 61  1  0  0  0
 59 62  1  0  0  0
 60129  1  0  0  0
 60130  1  0  0  0
 60131  1  0  0  0
 61132  1  0  0  0
 61133  1  0  0  0
 61134  1  0  0  0
 62135  1  0  0  0
 62136  1  0  0  0
 62137  1  0  0  0
 63 65  1  0  0  0
 63138  1  0  0  0
 63139  1  0  0  0
 63140  1  0  0  0
 64141  1  0  0  0
 65142  1  0  0  0
 68 80  1  0  0  0
 71 72  2  0  0  0
 71 74  1  0  0  0
 71143  1  0  0  0
 72 75  1  0  0  0
 72144  1  0  0  0
 73 74  2  0  0  0
 73 76  1  0  0  0
 73145  1  0  0  0
 74 82  1  0  0  0
 75 76  2  0  0  0
 75 81  1  0  0  0
 76 83  1  0  0  0
 77 82  1  0  0  0
 77146  1  0  0  0
 77147  1  0  0  0
 77148  1  0  0  0
 78 79  1  0  0  0
 78 80  1  0  0  0
 78149  1  0  0  0
 78150  1  0  0  0
 79 82  1  0  0  0
 79151  1  0  0  0
 79152  1  0  0  0
 80153  1  0  0  0
 80154  1  0  0  0
 81155  1  0  0  0
M  ISO  4   1 100  68 101  80 101  81 100
M  END
> <chiral flag>
0

> <version>
0

> <s_m_source_file>
/data/baiqing/PycharmProjects/Reinvent-master-3.2/result/LINK_invent/BTK/process_docking_weight1_custom_product_contain_oxygen_bond_distance_aromatic_linkinvent_7_9_3/rearranged_h_0024.sdf

> <i_m_source_file_index>
49

> <r_mmod_Potential_Energy-OPLS-2005>
32.3138389587402

> <r_mmod_Stretch_Energy-OPLS-2005>
79.0290222167969

> <r_mmod_Bend_Energy-OPLS-2005>
145.368286132812

> <r_mmod_Torsional_Energy-OPLS-2005>
223.43359375

> <r_mmod_Improper_Torsional_Energy-OPLS-2005>
5.92296504974365

> <r_mmod_Van_der_Waal_Energy-OPLS-2005>
158.602645874023

> <r_mmod_Electrostatic_Energy-OPLS-2005>
-388.854034423828

> <r_mmod_Solvation_Energy-OPLS-2005>
-235.412231445312

> <b_mmod_Minimization_Converged-OPLS-2005>
0

> <r_mmod_RMS_Derivative-OPLS-2005>
3.11085104942322

$$$$
49
                    3D
 Structure written by MMmdl.
160169  0  0  1  0            999 V2000
  -30.6144  -14.6312   20.4661 C   0  0  0  0  0  0
  -30.4404  -12.3799   19.4388 C   0  0  0  0  0  0
  -29.5119  -12.5103   18.2120 C   0  0  0  0  0  0
  -28.0322  -12.3474   18.6206 C   0  0  0  0  0  0
  -27.6509  -13.2119   19.8524 C   0  0  2  0  0  0
  -28.6978  -13.0679   20.9787 C   0  0  0  0  0  0
  -25.2543  -13.8150   20.5593 C   0  0  0  0  0  0
  -24.1807  -13.0408   20.9156 C   0  0  0  0  0  0
  -24.6390  -11.6890   20.8739 C   0  0  0  0  0  0
  -23.9051  -10.4280   21.0413 C   0  0  0  0  0  0
  -24.3614   -9.4210   21.9182 C   0  0  0  0  0  0
  -23.6291   -8.2253   22.0755 C   0  0  0  0  0  0
  -22.4279   -8.0285   21.3548 C   0  0  0  0  0  0
  -21.9899   -9.0247   20.4652 C   0  0  0  0  0  0
  -22.7230  -10.2126   20.3061 C   0  0  0  0  0  0
  -21.6846   -6.0741   22.5286 C   0  0  0  0  0  0
  -21.4015   -6.5638   23.8225 C   0  0  0  0  0  0
  -21.3659   -5.6783   24.9175 C   0  0  0  0  0  0
  -21.6043   -4.3051   24.7218 C   0  0  0  0  0  0
  -21.8820   -3.8150   23.4343 C   0  0  0  0  0  0
  -21.9195   -4.6968   22.3407 C   0  0  0  0  0  0
  -22.7852  -13.5244   21.1798 C   0  0  0  0  0  0
  -22.1660   -4.2162   21.0982 F   0  0  0  0  0  0
  -21.5613   -3.4534   25.7727 F   0  0  0  0  0  0
  -30.0158  -13.4000   20.4133 N   0  0  0  0  0  0
  -26.2961  -12.9307   20.3237 N   0  0  0  0  0  0
  -25.9309  -11.6470   20.5725 N   0  0  0  0  0  0
  -22.0470  -12.8284   22.0384 N   0  0  0  0  0  0
  -25.4218  -15.1862   20.3924 N   0  0  0  0  0  0
  -31.7978  -14.7958   20.1608 O   0  0  0  0  0  0
  -21.6643   -6.8897   21.4253 O   0  0  0  0  0  0
  -22.3569  -14.5540   20.6634 O   0  0  0  0  0  0
  -24.6242  -31.8608   23.2062 C   0  0  0  0  0  0
  -25.9094  -32.4801   23.8368 C   0  0  1  0  0  0
  -27.2269  -27.3253   20.1224 C   0  0  0  0  0  0
  -25.5933  -33.8599   24.2298 N   0  0  0  0  0  0
  -23.4171  -30.4920   21.5411 C   0  0  2  0  0  0
  -24.8689  -28.9481   20.1092 C   0  0  0  0  0  0
  -22.7467  -29.4644   22.4846 C   0  0  0  0  0  0
  -18.0316  -28.1351   22.8504 C   0  0  0  0  0  0
  -24.1474  -36.7306   23.2642 C   0  0  0  0  0  0
  -25.9608  -30.7929   21.3772 C   0  0  0  0  0  0
  -26.0369  -29.4228   20.7194 C   0  0  0  0  0  0
  -27.2178  -28.6236   20.7180 C   0  0  0  0  0  0
  -26.0354  -26.9021   19.4848 C   0  0  0  0  0  0
  -24.8727  -27.6926   19.4840 C   0  0  0  0  0  0
  -23.6366  -29.8302   20.1553 C   0  0  0  0  0  0
  -25.4110  -36.3116   24.0341 C   0  0  1  0  0  0
  -20.5925  -28.3659   23.1251 C   0  0  2  0  0  0
  -20.6772  -26.9351   22.5399 C   0  0  0  0  0  0
  -19.5753  -26.6350   21.5183 C   0  0  0  0  0  0
  -18.1938  -26.7910   22.1596 C   0  0  0  0  0  0
  -19.1569  -28.8819   23.2888 C   0  0  0  0  0  0
  -18.9484  -30.1426   23.8890 C   0  0  0  0  0  0
  -17.6476  -30.6558   24.0541 C   0  0  0  0  0  0
  -25.9048  -34.9482   23.5122 C   0  0  0  0  0  0
  -16.5371  -29.9047   23.6323 C   0  0  0  0  0  0
  -16.7298  -28.6461   23.0367 C   0  0  0  0  0  0
  -26.4480  -31.6639   25.0757 C   0  0  0  0  0  0
  -25.3688  -31.3811   26.1478 C   0  0  0  0  0  0
  -27.0326  -30.3069   24.6224 C   0  0  0  0  0  0
  -27.6047  -32.4381   25.7531 C   0  0  0  0  0  0
  -27.5573  -37.1816   24.8476 C   0  0  0  0  0  0
  -21.4179  -29.3026   22.3608 N   0  0  0  0  0  0
  -26.4289  -37.3802   23.9427 N   0  0  0  0  0  0
  -24.6858  -31.0659   22.0988 N   0  0  0  0  0  0
  -23.4222  -28.8136   23.2857 O   0  0  0  0  0  0
  -28.3433  -26.4758   20.1829 O   0  0  0  0  0  0
  -26.5594  -34.8934   22.4668 O   0  0  0  0  0  0
  -23.5414  -32.1378   23.7405 O   0  0  0  0  0  0
  -30.8619  -19.3447   20.8698 C   0  0  0  0  0  0
  -28.8335  -19.2135   19.5845 C   0  0  0  0  0  0
  -30.8801  -17.9228   21.0058 C   0  0  0  0  0  0
  -28.8395  -17.7976   19.7339 C   0  0  0  0  0  0
  -29.8399  -20.0307   20.1535 C   0  0  0  0  0  0
  -29.8613  -17.1105   20.4412 C   0  0  0  0  0  0
  -28.1701  -23.2825   22.6928 C   0  0  0  0  0  0
  -29.2777  -24.1945   22.1614 C   0  0  0  0  0  0
  -28.3520  -22.0350   21.8260 C   0  0  0  0  0  0
  -29.1851  -23.9906   20.6392 C   0  0  2  0  0  0
  -29.9022  -21.5896   19.9158 C   0  0  0  0  0  0
  -28.1074  -25.0179   20.0554 C   0  0  0  0  0  0
  -29.7441  -15.6703   20.6400 N   0  0  0  0  0  0
  -28.8347  -22.5031   20.4973 N   0  3  1  0  0  0
  -31.4831  -12.5060   19.1379 H   0  0  0  0  0  0
  -30.3697  -11.3798   19.8683 H   0  0  0  0  0  0
  -29.7819  -11.7784   17.4502 H   0  0  0  0  0  0
  -29.6543  -13.4924   17.7583 H   0  0  0  0  0  0
  -27.8622  -11.2914   18.8371 H   0  0  0  0  0  0
  -27.3852  -12.5931   17.7785 H   0  0  0  0  0  0
  -27.6665  -14.2462   19.5062 H   0  0  0  0  0  0
  -28.7021  -12.0474   21.3651 H   0  0  0  0  0  0
  -28.4483  -13.7107   21.8264 H   0  0  0  0  0  0
  -25.2761   -9.5684   22.4739 H   0  0  0  0  0  0
  -23.9998   -7.4649   22.7476 H   0  0  0  0  0  0
  -21.0825   -8.8768   19.8968 H   0  0  0  0  0  0
  -22.3693  -10.9648   19.6173 H   0  0  0  0  0  0
  -21.2030   -7.6146   23.9738 H   0  0  0  0  0  0
  -21.1462   -6.0505   25.9080 H   0  0  0  0  0  0
  -22.0608   -2.7612   23.2832 H   0  0  0  0  0  0
  -22.4036  -11.9972   22.4854 H   0  0  0  0  0  0
  -21.1078  -13.1350   22.2507 H   0  0  0  0  0  0
  -24.6355  -15.8248   20.4562 H   0  0  0  0  0  0
  -26.2519  -15.6250   20.0174 H   0  0  0  0  0  0
  -26.7151  -32.5466   23.1098 H   0  0  0  0  0  0
  -25.0170  -33.9752   25.0512 H   0  0  0  0  0  0
  -22.7121  -31.3164   21.3990 H   0  0  0  0  0  0
  -23.3756  -35.9614   23.3335 H   0  0  0  0  0  0
  -24.3553  -36.8895   22.2046 H   0  0  0  0  0  0
  -23.7167  -37.6499   23.6633 H   0  0  0  0  0  0
  -26.0933  -31.5498   20.6028 H   0  0  0  0  0  0
  -26.8431  -30.8433   22.0036 H   0  0  0  0  0  0
  -28.1068  -28.9770   21.2223 H   0  0  0  0  0  0
  -25.9662  -25.9418   18.9957 H   0  0  0  0  0  0
  -23.9798  -27.3219   19.0036 H   0  0  0  0  0  0
  -23.7558  -30.6125   19.4021 H   0  0  0  0  0  0
  -22.7552  -29.2687   19.8426 H   0  0  0  0  0  0
  -25.1246  -36.1994   25.0824 H   0  0  0  0  0  0
  -21.0081  -28.3242   24.1345 H   0  0  0  0  0  0
  -20.5610  -26.2226   23.3584 H   0  0  0  0  0  0
  -21.6633  -26.7313   22.1184 H   0  0  0  0  0  0
  -19.6874  -25.6262   21.1193 H   0  0  0  0  0  0
  -19.6732  -27.3158   20.6726 H   0  0  0  0  0  0
  -17.4186  -26.6723   21.4007 H   0  0  0  0  0  0
  -18.0331  -26.0027   22.8964 H   0  0  0  0  0  0
  -19.7962  -30.7255   24.2240 H   0  0  0  0  0  0
  -17.5032  -31.6247   24.5111 H   0  0  0  0  0  0
  -15.5373  -30.2915   23.7668 H   0  0  0  0  0  0
  -15.8713  -28.0760   22.7096 H   0  0  0  0  0  0
  -24.5917  -30.7078   25.7851 H   0  0  0  0  0  0
  -24.8810  -32.2970   26.4827 H   0  0  0  0  0  0
  -25.7997  -30.9095   27.0308 H   0  0  0  0  0  0
  -26.2904  -29.6868   24.1191 H   0  0  0  0  0  0
  -27.3940  -29.7306   25.4755 H   0  0  0  0  0  0
  -27.8794  -30.4394   23.9489 H   0  0  0  0  0  0
  -27.2694  -33.3745   26.2007 H   0  0  0  0  0  0
  -28.3913  -32.6844   25.0386 H   0  0  0  0  0  0
  -28.0605  -31.8542   26.5540 H   0  0  0  0  0  0
  -28.2590  -38.0117   24.7526 H   0  0  0  0  0  0
  -28.1053  -36.2640   24.6279 H   0  0  0  0  0  0
  -27.2287  -37.1429   25.8879 H   0  0  0  0  0  0
  -20.9291  -29.8808   21.6900 H   0  0  0  0  0  0
  -26.0196  -38.2871   24.1476 H   0  0  0  0  0  0
  -31.6640  -19.9172   21.3186 H   0  0  0  0  0  0
  -28.0408  -19.6661   19.0072 H   0  0  0  0  0  0
  -31.6734  -17.4614   21.5772 H   0  0  0  0  0  0
  -28.0374  -17.2380   19.2689 H   0  0  0  0  0  0
  -27.1821  -23.7149   22.5234 H   0  0  0  0  0  0
  -28.2428  -23.0748   23.7620 H   0  0  0  0  0  0
  -30.2440  -23.8416   22.5292 H   0  0  0  0  0  0
  -29.1796  -25.2391   22.4670 H   0  0  0  0  0  0
  -27.4439  -21.4372   21.7308 H   0  0  0  0  0  0
  -29.1046  -21.4107   22.3109 H   0  0  0  0  0  0
  -30.1434  -24.1995   20.1620 H   0  0  0  0  0  0
  -29.9379  -21.7559   18.8382 H   0  0  0  0  0  0
  -30.8701  -21.9329   20.2839 H   0  0  0  0  0  0
  -27.1758  -24.8066   20.5801 H   0  0  0  0  0  0
  -27.9198  -24.7856   19.0065 H   0  0  0  0  0  0
  -28.7976  -15.3340   20.7387 H   0  0  0  0  0  0
  -28.0546  -22.4368   19.8585 H   0  0  0  0  0  0
  1 25  1  0  0  0
  1 30  2  0  0  0
  1 83  1  0  0  0
  2  3  1  0  0  0
  2 25  1  0  0  0
  2 85  1  0  0  0
  2 86  1  0  0  0
  3  4  1  0  0  0
  3 87  1  0  0  0
  3 88  1  0  0  0
  4  5  1  0  0  0
  4 89  1  0  0  0
  4 90  1  0  0  0
  5  6  1  0  0  0
  5 26  1  0  0  0
  5 91  1  0  0  0
  6 25  1  0  0  0
  6 92  1  0  0  0
  6 93  1  0  0  0
  7  8  2  0  0  0
  7 26  1  0  0  0
  7 29  1  0  0  0
  8  9  1  0  0  0
  8 22  1  0  0  0
  9 10  1  0  0  0
  9 27  2  0  0  0
 10 11  2  0  0  0
 10 15  1  0  0  0
 11 12  1  0  0  0
 11 94  1  0  0  0
 12 13  2  0  0  0
 12 95  1  0  0  0
 13 14  1  0  0  0
 13 31  1  0  0  0
 14 15  2  0  0  0
 14 96  1  0  0  0
 15 97  1  0  0  0
 16 17  2  0  0  0
 16 21  1  0  0  0
 16 31  1  0  0  0
 17 18  1  0  0  0
 17 98  1  0  0  0
 18 19  2  0  0  0
 18 99  1  0  0  0
 19 20  1  0  0  0
 19 24  1  0  0  0
 20 21  2  0  0  0
 20100  1  0  0  0
 21 23  1  0  0  0
 22 28  1  0  0  0
 22 32  2  0  0  0
 26 27  1  0  0  0
 28101  1  0  0  0
 28102  1  0  0  0
 29103  1  0  0  0
 29104  1  0  0  0
 33 34  1  0  0  0
 33 66  1  0  0  0
 33 70  2  0  0  0
 34 36  1  0  0  0
 34 59  1  0  0  0
 34105  1  0  0  0
 35 44  2  0  0  0
 35 45  1  0  0  0
 35 68  1  0  0  0
 36 56  1  0  0  0
 36106  1  0  0  0
 37 39  1  0  0  0
 37 47  1  0  0  0
 37 66  1  0  0  0
 37107  1  0  0  0
 38 43  2  0  0  0
 38 46  1  0  0  0
 38 47  1  0  0  0
 39 64  1  0  0  0
 39 67  2  0  0  0
 40 52  1  0  0  0
 40 53  2  0  0  0
 40 58  1  0  0  0
 41108  1  0  0  0
 41109  1  0  0  0
 41110  1  0  0  0
 41 48  1  0  0  0
 42 43  1  0  0  0
 42 66  1  0  0  0
 42111  1  0  0  0
 42112  1  0  0  0
 43 44  1  0  0  0
 44113  1  0  0  0
 45 46  2  0  0  0
 45114  1  0  0  0
 46115  1  0  0  0
 47116  1  0  0  0
 47117  1  0  0  0
 48 56  1  0  0  0
 48 65  1  0  0  0
 48118  1  0  0  0
 49 50  1  0  0  0
 49 53  1  0  0  0
 49 64  1  0  0  0
 49119  1  0  0  0
 50 51  1  0  0  0
 50120  1  0  0  0
 50121  1  0  0  0
 51 52  1  0  0  0
 51122  1  0  0  0
 51123  1  0  0  0
 52124  1  0  0  0
 52125  1  0  0  0
 53 54  1  0  0  0
 54 55  2  0  0  0
 54126  1  0  0  0
 55 57  1  0  0  0
 55127  1  0  0  0
 56 69  2  0  0  0
 57 58  2  0  0  0
 57128  1  0  0  0
 58129  1  0  0  0
 59 60  1  0  0  0
 59 61  1  0  0  0
 59 62  1  0  0  0
 60130  1  0  0  0
 60131  1  0  0  0
 60132  1  0  0  0
 61133  1  0  0  0
 61134  1  0  0  0
 61135  1  0  0  0
 62136  1  0  0  0
 62137  1  0  0  0
 62138  1  0  0  0
 63 65  1  0  0  0
 63139  1  0  0  0
 63140  1  0  0  0
 63141  1  0  0  0
 64142  1  0  0  0
 65143  1  0  0  0
 68 82  1  0  0  0
 71 73  2  0  0  0
 71 75  1  0  0  0
 71144  1  0  0  0
 72 74  1  0  0  0
 72 75  2  0  0  0
 72145  1  0  0  0
 73 76  1  0  0  0
 73146  1  0  0  0
 74 76  2  0  0  0
 74147  1  0  0  0
 75 81  1  0  0  0
 76 83  1  0  0  0
 77 78  1  0  0  0
 77 79  1  0  0  0
 77148  1  0  0  0
 77149  1  0  0  0
 78 80  1  0  0  0
 78150  1  0  0  0
 78151  1  0  0  0
 79 84  1  0  0  0
 79152  1  0  0  0
 79153  1  0  0  0
 80 82  1  0  0  0
 80 84  1  0  0  0
 80154  1  0  0  0
 81155  1  0  0  0
 81156  1  0  0  0
 81 84  1  0  0  0
 82157  1  0  0  0
 82158  1  0  0  0
 83159  1  0  0  0
 84160  1  0  0  0
M  CHG  1  84   1
M  ISO  4   1 100  68 101  82 101  83 100
M  END
> <chiral flag>
0

> <version>
0

> <s_m_source_file>
/data/baiqing/PycharmProjects/Reinvent-master-3.2/result/LINK_invent/BTK/process_docking_weight1_custom_product_contain_oxygen_bond_distance_aromatic_linkinvent_7_9_3/rearranged_h_0024.sdf

> <i_m_source_file_index>
50

> <r_mmod_Potential_Energy-OPLS-2005>
66.4427642822266

> <r_mmod_Stretch_Energy-OPLS-2005>
78.9299468994141

> <r_mmod_Bend_Energy-OPLS-2005>
160.241439819336

> <r_mmod_Torsional_Energy-OPLS-2005>
283.82421875

> <r_mmod_Improper_Torsional_Energy-OPLS-2005>
7.15376615524292

> <r_mmod_Van_der_Waal_Energy-OPLS-2005>
142.017501831055

> <r_mmod_Electrostatic_Energy-OPLS-2005>
-217.845062255859

> <r_mmod_Solvation_Energy-OPLS-2005>
-436.901641845703

> <b_mmod_Minimization_Converged-OPLS-2005>
0

> <r_mmod_RMS_Derivative-OPLS-2005>
5.1082649230957

$$$$
50
                    3D
 Structure written by MMmdl.
159168  0  0  1  0            999 V2000
  -30.6123  -14.6523   20.4701 C   0  0  0  0  0  0
  -30.4450  -12.3954   19.4452 C   0  0  0  0  0  0
  -29.5090  -12.4987   18.2184 C   0  0  0  0  0  0
  -28.0275  -12.3510   18.6266 C   0  0  0  0  0  0
  -27.6520  -13.2187   19.8593 C   0  0  2  0  0  0
  -28.7042  -13.0713   20.9823 C   0  0  0  0  0  0
  -25.2519  -13.8154   20.5697 C   0  0  0  0  0  0
  -24.1795  -13.0407   20.9181 C   0  0  0  0  0  0
  -24.6383  -11.6897   20.8734 C   0  0  0  0  0  0
  -23.9050  -10.4287   21.0392 C   0  0  0  0  0  0
  -24.3612   -9.4211   21.9173 C   0  0  0  0  0  0
  -23.6303   -8.2238   22.0746 C   0  0  0  0  0  0
  -22.4277   -8.0274   21.3539 C   0  0  0  0  0  0
  -21.9907   -9.0234   20.4634 C   0  0  0  0  0  0
  -22.7226  -10.2120   20.3035 C   0  0  0  0  0  0
  -21.6843   -6.0740   22.5292 C   0  0  0  0  0  0
  -21.3987   -6.5636   23.8224 C   0  0  0  0  0  0
  -21.3665   -5.6783   24.9186 C   0  0  0  0  0  0
  -21.6058   -4.3049   24.7229 C   0  0  0  0  0  0
  -21.8817   -3.8145   23.4341 C   0  0  0  0  0  0
  -21.9190   -4.6966   22.3402 C   0  0  0  0  0  0
  -22.7816  -13.5198   21.1860 C   0  0  0  0  0  0
  -22.1664   -4.2164   21.0979 F   0  0  0  0  0  0
  -21.5652   -3.4520   25.7731 F   0  0  0  0  0  0
  -30.0174  -13.4193   20.4155 N   0  0  0  0  0  0
  -26.2987  -12.9364   20.3331 N   0  0  0  0  0  0
  -25.9329  -11.6510   20.5769 N   0  0  0  0  0  0
  -22.0442  -12.8218   22.0432 N   0  0  0  0  0  0
  -25.4060  -15.1882   20.4185 N   0  0  0  0  0  0
  -31.7833  -14.8206   20.1148 O   0  0  0  0  0  0
  -21.6631   -6.8882   21.4252 O   0  0  0  0  0  0
  -22.3505  -14.5515   20.6726 O   0  0  0  0  0  0
  -24.6261  -31.8595   23.1990 C   0  0  0  0  0  0
  -25.9109  -32.4769   23.8335 C   0  0  1  0  0  0
  -27.2349  -27.3243   20.1154 C   0  0  0  0  0  0
  -25.5928  -33.8569   24.2259 N   0  0  0  0  0  0
  -23.4199  -30.4803   21.5423 C   0  0  2  0  0  0
  -24.8676  -28.9344   20.1075 C   0  0  0  0  0  0
  -22.7466  -29.4625   22.4938 C   0  0  0  0  0  0
  -18.0280  -28.1393   22.8481 C   0  0  0  0  0  0
  -24.1484  -36.7274   23.2641 C   0  0  0  0  0  0
  -25.9599  -30.7933   21.3684 C   0  0  0  0  0  0
  -26.0368  -29.4221   20.7062 C   0  0  0  0  0  0
  -27.2239  -28.6307   20.6940 C   0  0  0  0  0  0
  -26.0412  -26.8861   19.4988 C   0  0  0  0  0  0
  -24.8729  -27.6731   19.4919 C   0  0  0  0  0  0
  -23.6316  -29.8089   20.1592 C   0  0  0  0  0  0
  -25.4108  -36.3071   24.0335 C   0  0  1  0  0  0
  -20.5884  -28.3680   23.1274 C   0  0  2  0  0  0
  -20.6754  -26.9403   22.5388 C   0  0  0  0  0  0
  -19.5719  -26.6380   21.5195 C   0  0  0  0  0  0
  -18.1908  -26.7942   22.1615 C   0  0  0  0  0  0
  -19.1539  -28.8855   23.2875 C   0  0  0  0  0  0
  -18.9466  -30.1469   23.8865 C   0  0  0  0  0  0
  -17.6464  -30.6589   24.0561 C   0  0  0  0  0  0
  -25.9045  -34.9445   23.5092 C   0  0  0  0  0  0
  -16.5351  -29.9076   23.6351 C   0  0  0  0  0  0
  -16.7268  -28.6514   23.0330 C   0  0  0  0  0  0
  -26.4473  -31.6599   25.0727 C   0  0  0  0  0  0
  -25.3705  -31.3750   26.1462 C   0  0  0  0  0  0
  -27.0324  -30.3024   24.6203 C   0  0  0  0  0  0
  -27.6044  -32.4332   25.7483 C   0  0  0  0  0  0
  -27.5576  -37.1789   24.8456 C   0  0  0  0  0  0
  -21.4186  -29.3047   22.3689 N   0  0  0  0  0  0
  -26.4278  -37.3778   23.9424 N   0  0  0  0  0  0
  -24.6873  -31.0598   22.0941 N   0  0  0  0  0  0
  -23.4199  -28.8163   23.3014 O   0  0  0  0  0  0
  -28.3660  -26.4910   20.1547 O   0  0  0  0  0  0
  -26.5606  -34.8932   22.4648 O   0  0  0  0  0  0
  -23.5426  -32.1393   23.7323 O   0  0  0  0  0  0
  -30.8910  -19.3498   20.2195 C   0  0  0  0  0  0
  -30.9784  -17.9364   20.4125 C   0  0  0  0  0  0
  -29.6528  -20.0498   20.1307 C   0  0  0  0  0  0
  -29.8114  -17.1376   20.5317 C   0  0  0  0  0  0
  -28.5739  -17.8361   20.4651 C   0  0  0  0  0  0
  -28.4866  -19.2495   20.2679 C   0  0  0  0  0  0
  -29.7991  -23.6149   22.8140 C   0  0  0  0  0  0
  -30.1468  -24.6152   21.7320 C   0  0  0  0  0  0
  -29.8661  -22.3206   22.0315 C   0  0  0  0  0  0
  -29.4309  -24.0888   20.4729 C   0  0  2  0  0  0
  -29.6301  -21.5900   19.7736 C   0  0  0  0  0  0
  -28.1718  -25.0172   20.1497 C   0  0  0  0  0  0
  -29.1849  -22.6167   20.7709 N   0  0  0  0  0  0
  -29.7671  -15.6905   20.7552 N   0  0  0  0  0  0
  -27.4337  -17.1119   20.5775 F   0  0  0  0  0  0
  -30.2782  -24.1948   19.4483 F   0  0  0  0  0  0
  -26.9205  -19.9813   20.1700 Cl  0  0  0  0  0  0
  -31.4848  -12.5282   19.1404 H   0  0  0  0  0  0
  -30.3918  -11.4014   19.8946 H   0  0  0  0  0  0
  -29.7732  -11.7376   17.4829 H   0  0  0  0  0  0
  -29.6543  -13.4618   17.7265 H   0  0  0  0  0  0
  -27.8505  -11.2972   18.8433 H   0  0  0  0  0  0
  -27.3795  -12.5962   17.7836 H   0  0  0  0  0  0
  -27.6624  -14.2546   19.5190 H   0  0  0  0  0  0
  -28.7204  -12.0465   21.3566 H   0  0  0  0  0  0
  -28.4555  -13.6986   21.8393 H   0  0  0  0  0  0
  -25.2760   -9.5708   22.4735 H   0  0  0  0  0  0
  -24.0025   -7.4623   22.7452 H   0  0  0  0  0  0
  -21.0844   -8.8736   19.8932 H   0  0  0  0  0  0
  -22.3685  -10.9646   19.6129 H   0  0  0  0  0  0
  -21.1938   -7.6135   23.9736 H   0  0  0  0  0  0
  -21.1507   -6.0504   25.9101 H   0  0  0  0  0  0
  -22.0590   -2.7607   23.2822 H   0  0  0  0  0  0
  -22.4039  -11.9901   22.4873 H   0  0  0  0  0  0
  -21.1038  -13.1247   22.2562 H   0  0  0  0  0  0
  -24.6241  -15.8182   20.5558 H   0  0  0  0  0  0
  -26.2730  -15.6853   20.2457 H   0  0  0  0  0  0
  -26.7185  -32.5428   23.1099 H   0  0  0  0  0  0
  -25.0090  -33.9688   25.0414 H   0  0  0  0  0  0
  -22.7161  -31.3024   21.3962 H   0  0  0  0  0  0
  -23.3776  -35.9573   23.3274 H   0  0  0  0  0  0
  -24.3595  -36.8918   22.2064 H   0  0  0  0  0  0
  -23.7204  -37.6457   23.6667 H   0  0  0  0  0  0
  -26.0944  -31.5658   20.6100 H   0  0  0  0  0  0
  -26.8397  -30.8335   22.0003 H   0  0  0  0  0  0
  -28.1235  -29.0082   21.1606 H   0  0  0  0  0  0
  -25.9879  -25.9208   19.0191 H   0  0  0  0  0  0
  -23.9779  -27.2939   19.0175 H   0  0  0  0  0  0
  -23.7335  -30.5817   19.3957 H   0  0  0  0  0  0
  -22.7550  -29.2277   19.8669 H   0  0  0  0  0  0
  -25.1303  -36.1890   25.0830 H   0  0  0  0  0  0
  -20.9985  -28.3220   24.1391 H   0  0  0  0  0  0
  -20.5609  -26.2292   23.3590 H   0  0  0  0  0  0
  -21.6622  -26.7386   22.1195 H   0  0  0  0  0  0
  -19.6857  -25.6283   21.1223 H   0  0  0  0  0  0
  -19.6652  -27.3201   20.6735 H   0  0  0  0  0  0
  -17.4170  -26.6695   21.4026 H   0  0  0  0  0  0
  -18.0313  -26.0102   22.9027 H   0  0  0  0  0  0
  -19.7944  -30.7309   24.2193 H   0  0  0  0  0  0
  -17.5015  -31.6267   24.5174 H   0  0  0  0  0  0
  -15.5348  -30.2955   23.7728 H   0  0  0  0  0  0
  -15.8675  -28.0838   22.7012 H   0  0  0  0  0  0
  -24.5850  -30.7132   25.7795 H   0  0  0  0  0  0
  -24.8929  -32.2925   26.4917 H   0  0  0  0  0  0
  -25.8038  -30.8890   27.0216 H   0  0  0  0  0  0
  -26.2907  -29.6780   24.1213 H   0  0  0  0  0  0
  -27.4009  -29.7279   25.4712 H   0  0  0  0  0  0
  -27.8778  -30.4329   23.9447 H   0  0  0  0  0  0
  -27.2664  -33.3644   26.2046 H   0  0  0  0  0  0
  -28.3861  -32.6877   25.0310 H   0  0  0  0  0  0
  -28.0712  -31.8465   26.5407 H   0  0  0  0  0  0
  -28.2573  -38.0106   24.7573 H   0  0  0  0  0  0
  -28.1099  -36.2661   24.6200 H   0  0  0  0  0  0
  -27.2309  -37.1331   25.8855 H   0  0  0  0  0  0
  -20.9348  -29.8815   21.6950 H   0  0  0  0  0  0
  -26.0151  -38.2839   24.1466 H   0  0  0  0  0  0
  -31.8105  -19.9085   20.1137 H   0  0  0  0  0  0
  -31.9554  -17.4773   20.4712 H   0  0  0  0  0  0
  -28.7893  -23.7782   23.1940 H   0  0  0  0  0  0
  -30.4917  -23.6353   23.6563 H   0  0  0  0  0  0
  -31.2264  -24.6085   21.5690 H   0  0  0  0  0  0
  -29.8734  -25.6356   22.0078 H   0  0  0  0  0  0
  -29.4025  -21.4882   22.5624 H   0  0  0  0  0  0
  -30.9120  -22.0619   21.8474 H   0  0  0  0  0  0
  -29.0117  -21.7144   18.8836 H   0  0  0  0  0  0
  -30.6411  -21.8421   19.4516 H   0  0  0  0  0  0
  -27.3922  -24.7864   20.8770 H   0  0  0  0  0  0
  -27.7863  -24.7124   19.1777 H   0  0  0  0  0  0
  -28.8415  -15.3618   20.9881 H   0  0  0  0  0  0
  1 25  1  0  0  0
  1 30  2  0  0  0
  1 84  1  0  0  0
  2  3  1  0  0  0
  2 25  1  0  0  0
  2 88  1  0  0  0
  2 89  1  0  0  0
  3  4  1  0  0  0
  3 90  1  0  0  0
  3 91  1  0  0  0
  4  5  1  0  0  0
  4 92  1  0  0  0
  4 93  1  0  0  0
  5  6  1  0  0  0
  5 26  1  0  0  0
  5 94  1  0  0  0
  6 25  1  0  0  0
  6 95  1  0  0  0
  6 96  1  0  0  0
  7  8  2  0  0  0
  7 26  1  0  0  0
  7 29  1  0  0  0
  8  9  1  0  0  0
  8 22  1  0  0  0
  9 10  1  0  0  0
  9 27  2  0  0  0
 10 11  2  0  0  0
 10 15  1  0  0  0
 11 12  1  0  0  0
 11 97  1  0  0  0
 12 13  2  0  0  0
 12 98  1  0  0  0
 13 14  1  0  0  0
 13 31  1  0  0  0
 14 15  2  0  0  0
 14 99  1  0  0  0
 15100  1  0  0  0
 16 17  2  0  0  0
 16 21  1  0  0  0
 16 31  1  0  0  0
 17 18  1  0  0  0
 17101  1  0  0  0
 18 19  2  0  0  0
 18102  1  0  0  0
 19 20  1  0  0  0
 19 24  1  0  0  0
 20 21  2  0  0  0
 20103  1  0  0  0
 21 23  1  0  0  0
 22 28  1  0  0  0
 22 32  2  0  0  0
 26 27  1  0  0  0
 28104  1  0  0  0
 28105  1  0  0  0
 29106  1  0  0  0
 29107  1  0  0  0
 33 34  1  0  0  0
 33 66  1  0  0  0
 33 70  2  0  0  0
 34 36  1  0  0  0
 34 59  1  0  0  0
 34108  1  0  0  0
 35 44  2  0  0  0
 35 45  1  0  0  0
 35 68  1  0  0  0
 36 56  1  0  0  0
 36109  1  0  0  0
 37 39  1  0  0  0
 37 47  1  0  0  0
 37 66  1  0  0  0
 37110  1  0  0  0
 38 43  2  0  0  0
 38 46  1  0  0  0
 38 47  1  0  0  0
 39 64  1  0  0  0
 39 67  2  0  0  0
 40 52  1  0  0  0
 40 53  2  0  0  0
 40 58  1  0  0  0
 41111  1  0  0  0
 41112  1  0  0  0
 41113  1  0  0  0
 41 48  1  0  0  0
 42 43  1  0  0  0
 42 66  1  0  0  0
 42114  1  0  0  0
 42115  1  0  0  0
 43 44  1  0  0  0
 44116  1  0  0  0
 45 46  2  0  0  0
 45117  1  0  0  0
 46118  1  0  0  0
 47119  1  0  0  0
 47120  1  0  0  0
 48 56  1  0  0  0
 48 65  1  0  0  0
 48121  1  0  0  0
 49 50  1  0  0  0
 49 53  1  0  0  0
 49 64  1  0  0  0
 49122  1  0  0  0
 50 51  1  0  0  0
 50123  1  0  0  0
 50124  1  0  0  0
 51 52  1  0  0  0
 51125  1  0  0  0
 51126  1  0  0  0
 52127  1  0  0  0
 52128  1  0  0  0
 53 54  1  0  0  0
 54 55  2  0  0  0
 54129  1  0  0  0
 55 57  1  0  0  0
 55130  1  0  0  0
 56 69  2  0  0  0
 57 58  2  0  0  0
 57131  1  0  0  0
 58132  1  0  0  0
 59 60  1  0  0  0
 59 61  1  0  0  0
 59 62  1  0  0  0
 60133  1  0  0  0
 60134  1  0  0  0
 60135  1  0  0  0
 61136  1  0  0  0
 61137  1  0  0  0
 61138  1  0  0  0
 62139  1  0  0  0
 62140  1  0  0  0
 62141  1  0  0  0
 63 65  1  0  0  0
 63142  1  0  0  0
 63143  1  0  0  0
 63144  1  0  0  0
 64145  1  0  0  0
 65146  1  0  0  0
 68 82  1  0  0  0
 71 72  2  0  0  0
 71 73  1  0  0  0
 71147  1  0  0  0
 72 74  1  0  0  0
 72148  1  0  0  0
 73 76  2  0  0  0
 73 81  1  0  0  0
 74 75  2  0  0  0
 74 84  1  0  0  0
 75 76  1  0  0  0
 75 85  1  0  0  0
 76 87  1  0  0  0
 77 78  1  0  0  0
 77 79  1  0  0  0
 77149  1  0  0  0
 77150  1  0  0  0
 78 80  1  0  0  0
 78151  1  0  0  0
 78152  1  0  0  0
 79 83  1  0  0  0
 79153  1  0  0  0
 79154  1  0  0  0
 80 82  1  0  0  0
 80 83  1  0  0  0
 80 86  1  0  0  0
 81 83  1  0  0  0
 81155  1  0  0  0
 81156  1  0  0  0
 82157  1  0  0  0
 82158  1  0  0  0
 84159  1  0  0  0
M  ISO  4   1 100  68 101  82 101  84 100
M  END
> <chiral flag>
0

> <version>
0

> <s_m_source_file>
/data/baiqing/PycharmProjects/Reinvent-master-3.2/result/LINK_invent/BTK/process_docking_weight1_custom_product_contain_oxygen_bond_distance_aromatic_linkinvent_7_9_3/rearranged_h_0024.sdf

> <i_m_source_file_index>
51

> <r_mmod_Potential_Energy-OPLS-2005>
185.948303222656

> <r_mmod_Stretch_Energy-OPLS-2005>
86.7851333618164

> <r_mmod_Bend_Energy-OPLS-2005>
167.749923706055

> <r_mmod_Torsional_Energy-OPLS-2005>
295.769409179688

> <r_mmod_Improper_Torsional_Energy-OPLS-2005>
5.20980024337769

> <r_mmod_Van_der_Waal_Energy-OPLS-2005>
142.017044067383

> <r_mmod_Electrostatic_Energy-OPLS-2005>
-366.138671875

> <r_mmod_Solvation_Energy-OPLS-2005>
-195.004318237305

> <b_mmod_Minimization_Converged-OPLS-2005>
0

> <r_mmod_RMS_Derivative-OPLS-2005>
2.82590508460999

$$$$
51
                    3D
 Structure written by MMmdl.
159168  0  0  1  0            999 V2000
  -30.6955  -14.6092   20.4973 C   0  0  0  0  0  0
  -30.4195  -12.3780   19.4549 C   0  0  0  0  0  0
  -29.5009  -12.4931   18.2227 C   0  0  0  0  0  0
  -28.0267  -12.3406   18.6397 C   0  0  0  0  0  0
  -27.6498  -13.2286   19.8570 C   0  0  2  0  0  0
  -28.6968  -13.1245   20.9878 C   0  0  0  0  0  0
  -25.2547  -13.8195   20.5692 C   0  0  0  0  0  0
  -24.1823  -13.0440   20.9185 C   0  0  0  0  0  0
  -24.6410  -11.6913   20.8744 C   0  0  0  0  0  0
  -23.9077  -10.4288   21.0398 C   0  0  0  0  0  0
  -24.3621   -9.4211   21.9181 C   0  0  0  0  0  0
  -23.6290   -8.2254   22.0758 C   0  0  0  0  0  0
  -22.4285   -8.0288   21.3541 C   0  0  0  0  0  0
  -21.9912   -9.0259   20.4656 C   0  0  0  0  0  0
  -22.7241  -10.2135   20.3056 C   0  0  0  0  0  0
  -21.6857   -6.0735   22.5270 C   0  0  0  0  0  0
  -21.4011   -6.5636   23.8203 C   0  0  0  0  0  0
  -21.3659   -5.6793   24.9166 C   0  0  0  0  0  0
  -21.6044   -4.3052   24.7227 C   0  0  0  0  0  0
  -21.8819   -3.8143   23.4345 C   0  0  0  0  0  0
  -21.9194   -4.6956   22.3402 C   0  0  0  0  0  0
  -22.7849  -13.5230   21.1839 C   0  0  0  0  0  0
  -22.1668   -4.2139   21.0979 F   0  0  0  0  0  0
  -21.5623   -3.4541   25.7738 F   0  0  0  0  0  0
  -30.0090  -13.4291   20.4070 N   0  0  0  0  0  0
  -26.2988  -12.9403   20.3336 N   0  0  0  0  0  0
  -25.9351  -11.6544   20.5783 N   0  0  0  0  0  0
  -22.0510  -12.8225   22.0404 N   0  0  0  0  0  0
  -25.4232  -15.1916   20.4095 N   0  0  0  0  0  0
  -31.8729  -14.6799   20.1388 O   0  0  0  0  0  0
  -21.6643   -6.8887   21.4243 O   0  0  0  0  0  0
  -22.3527  -14.5537   20.6699 O   0  0  0  0  0  0
  -24.6265  -31.8642   23.2045 C   0  0  0  0  0  0
  -25.9117  -32.4799   23.8378 C   0  0  1  0  0  0
  -27.2058  -27.3192   20.1071 C   0  0  0  0  0  0
  -25.5937  -33.8595   24.2338 N   0  0  0  0  0  0
  -23.4172  -30.4922   21.5467 C   0  0  2  0  0  0
  -24.8610  -28.9570   20.1060 C   0  0  0  0  0  0
  -22.7471  -29.4658   22.4920 C   0  0  0  0  0  0
  -18.0270  -28.1372   22.8476 C   0  0  0  0  0  0
  -24.1490  -36.7278   23.2638 C   0  0  0  0  0  0
  -25.9618  -30.7941   21.3759 C   0  0  0  0  0  0
  -26.0318  -29.4224   20.7169 C   0  0  0  0  0  0
  -27.2076  -28.6130   20.7147 C   0  0  0  0  0  0
  -26.0191  -26.9322   19.4370 C   0  0  0  0  0  0
  -24.8569  -27.7175   19.4560 C   0  0  0  0  0  0
  -23.6311  -29.8366   20.1594 C   0  0  0  0  0  0
  -25.4112  -36.3103   24.0353 C   0  0  1  0  0  0
  -20.5868  -28.3714   23.1249 C   0  0  2  0  0  0
  -20.6747  -26.9430   22.5383 C   0  0  0  0  0  0
  -19.5727  -26.6378   21.5189 C   0  0  0  0  0  0
  -18.1912  -26.7912   22.1605 C   0  0  0  0  0  0
  -19.1523  -28.8853   23.2851 C   0  0  0  0  0  0
  -18.9438  -30.1448   23.8879 C   0  0  0  0  0  0
  -17.6436  -30.6580   24.0529 C   0  0  0  0  0  0
  -25.9048  -34.9461   23.5154 C   0  0  0  0  0  0
  -16.5333  -29.9063   23.6293 C   0  0  0  0  0  0
  -16.7257  -28.6467   23.0345 C   0  0  0  0  0  0
  -26.4543  -31.6581   25.0710 C   0  0  0  0  0  0
  -25.3867  -31.3741   26.1529 C   0  0  0  0  0  0
  -27.0281  -30.2970   24.6113 C   0  0  0  0  0  0
  -27.6190  -32.4282   25.7386 C   0  0  0  0  0  0
  -27.5590  -37.1812   24.8478 C   0  0  0  0  0  0
  -21.4179  -29.3086   22.3665 N   0  0  0  0  0  0
  -26.4297  -37.3796   23.9429 N   0  0  0  0  0  0
  -24.6879  -31.0670   22.0991 N   0  0  0  0  0  0
  -23.4203  -28.8183   23.2985 O   0  0  0  0  0  0
  -28.2940  -26.4316   20.1913 O   0  0  0  0  0  0
  -26.5604  -34.8920   22.4708 O   0  0  0  0  0  0
  -23.5425  -32.1449   23.7371 O   0  0  0  0  0  0
  -30.6858  -19.6497   21.1486 C   0  0  0  0  0  0
  -30.1435  -20.9608   21.0356 C   0  0  0  0  0  0
  -29.9586  -18.4769   20.8003 C   0  0  0  0  0  0
  -28.8242  -21.1759   20.5733 C   0  0  0  0  0  0
  -28.6462  -18.6838   20.3093 C   0  0  0  0  0  0
  -28.0994  -19.9983   20.2008 C   0  0  0  0  0  0
  -27.5481  -23.3869   22.6818 C   0  0  0  0  0  0
  -28.8540  -24.0312   22.1970 C   0  0  0  0  0  0
  -27.0908  -22.4793   21.5316 C   0  0  0  0  0  0
  -28.8367  -23.8138   20.6823 C   0  0  2  0  0  0
  -30.6872  -17.0940   20.9283 C   0  0  0  0  0  0
  -28.0015  -24.9895   19.9882 C   0  0  0  0  0  0
  -28.1836  -22.4679   20.5561 N   0  0  0  0  0  0
  -30.0175  -15.7543   20.8169 N   0  0  0  0  0  0
  -27.8933  -17.6201   19.9360 F   0  0  0  0  0  0
  -26.8302  -20.1240   19.7389 F   0  0  0  0  0  0
  -31.4656  -12.4644   19.1557 H   0  0  0  0  0  0
  -30.3281  -11.3941   19.9169 H   0  0  0  0  0  0
  -29.7621  -11.7340   17.4834 H   0  0  0  0  0  0
  -29.6476  -13.4586   17.7365 H   0  0  0  0  0  0
  -27.8647  -11.2918   18.8883 H   0  0  0  0  0  0
  -27.3702  -12.5582   17.7971 H   0  0  0  0  0  0
  -27.6579  -14.2587   19.4970 H   0  0  0  0  0  0
  -28.7022  -12.1243   21.4236 H   0  0  0  0  0  0
  -28.4580  -13.8127   21.8005 H   0  0  0  0  0  0
  -25.2767   -9.5680   22.4763 H   0  0  0  0  0  0
  -23.9986   -7.4650   22.7489 H   0  0  0  0  0  0
  -21.0835   -8.8778   19.8980 H   0  0  0  0  0  0
  -22.3686  -10.9674   19.6166 H   0  0  0  0  0  0
  -21.2007   -7.6144   23.9693 H   0  0  0  0  0  0
  -21.1482   -6.0533   25.9065 H   0  0  0  0  0  0
  -22.0602   -2.7608   23.2850 H   0  0  0  0  0  0
  -22.4121  -11.9867   22.4771 H   0  0  0  0  0  0
  -21.1141  -13.1260   22.2639 H   0  0  0  0  0  0
  -24.6538  -15.8423   20.5243 H   0  0  0  0  0  0
  -26.2712  -15.6376   20.0847 H   0  0  0  0  0  0
  -26.7166  -32.5489   23.1101 H   0  0  0  0  0  0
  -25.0136  -33.9746   25.0519 H   0  0  0  0  0  0
  -22.7097  -31.3120   21.4031 H   0  0  0  0  0  0
  -23.3771  -35.9594   23.3311 H   0  0  0  0  0  0
  -24.3594  -36.8862   22.2054 H   0  0  0  0  0  0
  -23.7203  -37.6478   23.6626 H   0  0  0  0  0  0
  -26.0906  -31.5558   20.6058 H   0  0  0  0  0  0
  -26.8464  -30.8436   21.9987 H   0  0  0  0  0  0
  -28.1016  -28.9566   21.2145 H   0  0  0  0  0  0
  -25.9461  -25.9995   18.8978 H   0  0  0  0  0  0
  -23.9641  -27.3633   18.9589 H   0  0  0  0  0  0
  -23.7561  -30.6162   19.4070 H   0  0  0  0  0  0
  -22.7494  -29.2725   19.8528 H   0  0  0  0  0  0
  -25.1281  -36.1985   25.0845 H   0  0  0  0  0  0
  -20.9951  -28.3314   24.1370 H   0  0  0  0  0  0
  -20.5638  -26.2328   23.3588 H   0  0  0  0  0  0
  -21.6622  -26.7451   22.1191 H   0  0  0  0  0  0
  -19.6914  -25.6296   21.1211 H   0  0  0  0  0  0
  -19.6636  -27.3181   20.6704 H   0  0  0  0  0  0
  -17.4193  -26.6665   21.3993 H   0  0  0  0  0  0
  -18.0266  -26.0058   22.8994 H   0  0  0  0  0  0
  -19.7911  -30.7271   24.2250 H   0  0  0  0  0  0
  -17.4980  -31.6260   24.5126 H   0  0  0  0  0  0
  -15.5328  -30.2956   23.7581 H   0  0  0  0  0  0
  -15.8666  -28.0759   22.7089 H   0  0  0  0  0  0
  -25.8155  -30.8412   27.0026 H   0  0  0  0  0  0
  -24.5710  -30.7556   25.7792 H   0  0  0  0  0  0
  -24.9507  -32.2951   26.5409 H   0  0  0  0  0  0
  -26.2763  -29.6765   24.1216 H   0  0  0  0  0  0
  -27.4054  -29.7190   25.4565 H   0  0  0  0  0  0
  -27.8642  -30.4223   23.9228 H   0  0  0  0  0  0
  -27.2950  -33.3665   26.1912 H   0  0  0  0  0  0
  -28.3980  -32.6728   25.0151 H   0  0  0  0  0  0
  -28.0874  -31.8421   26.5304 H   0  0  0  0  0  0
  -28.2624  -38.0095   24.7524 H   0  0  0  0  0  0
  -28.1073  -36.2629   24.6314 H   0  0  0  0  0  0
  -27.2316  -37.1474   25.8883 H   0  0  0  0  0  0
  -20.9357  -29.8866   21.6913 H   0  0  0  0  0  0
  -26.0187  -38.2883   24.1408 H   0  0  0  0  0  0
  -31.6961  -19.5460   21.5203 H   0  0  0  0  0  0
  -30.7483  -21.7999   21.3468 H   0  0  0  0  0  0
  -26.7852  -24.1404   22.8787 H   0  0  0  0  0  0
  -27.7042  -22.8232   23.6029 H   0  0  0  0  0  0
  -29.7035  -23.5117   22.6403 H   0  0  0  0  0  0
  -28.9376  -25.0815   22.4770 H   0  0  0  0  0  0
  -26.1860  -22.8699   21.0651 H   0  0  0  0  0  0
  -26.8283  -21.4934   21.9195 H   0  0  0  0  0  0
  -29.8518  -23.8018   20.2820 H   0  0  0  0  0  0
  -31.2044  -17.0967   21.8899 H   0  0  0  0  0  0
  -31.4813  -17.1405   20.1816 H   0  0  0  0  0  0
  -26.9824  -24.8225   20.3318 H   0  0  0  0  0  0
  -27.9917  -24.8084   18.9128 H   0  0  0  0  0  0
  -29.0350  -15.6898   21.0310 H   0  0  0  0  0  0
  1 25  1  0  0  0
  1 30  2  0  0  0
  1 84  1  0  0  0
  2  3  1  0  0  0
  2 25  1  0  0  0
  2 87  1  0  0  0
  2 88  1  0  0  0
  3  4  1  0  0  0
  3 89  1  0  0  0
  3 90  1  0  0  0
  4  5  1  0  0  0
  4 91  1  0  0  0
  4 92  1  0  0  0
  5  6  1  0  0  0
  5 26  1  0  0  0
  5 93  1  0  0  0
  6 25  1  0  0  0
  6 94  1  0  0  0
  6 95  1  0  0  0
  7  8  2  0  0  0
  7 26  1  0  0  0
  7 29  1  0  0  0
  8  9  1  0  0  0
  8 22  1  0  0  0
  9 10  1  0  0  0
  9 27  2  0  0  0
 10 11  2  0  0  0
 10 15  1  0  0  0
 11 12  1  0  0  0
 11 96  1  0  0  0
 12 13  2  0  0  0
 12 97  1  0  0  0
 13 14  1  0  0  0
 13 31  1  0  0  0
 14 15  2  0  0  0
 14 98  1  0  0  0
 15 99  1  0  0  0
 16 17  2  0  0  0
 16 21  1  0  0  0
 16 31  1  0  0  0
 17 18  1  0  0  0
 17100  1  0  0  0
 18 19  2  0  0  0
 18101  1  0  0  0
 19 20  1  0  0  0
 19 24  1  0  0  0
 20 21  2  0  0  0
 20102  1  0  0  0
 21 23  1  0  0  0
 22 28  1  0  0  0
 22 32  2  0  0  0
 26 27  1  0  0  0
 28103  1  0  0  0
 28104  1  0  0  0
 29105  1  0  0  0
 29106  1  0  0  0
 33 34  1  0  0  0
 33 66  1  0  0  0
 33 70  2  0  0  0
 34 36  1  0  0  0
 34 59  1  0  0  0
 34107  1  0  0  0
 35 44  2  0  0  0
 35 45  1  0  0  0
 35 68  1  0  0  0
 36 56  1  0  0  0
 36108  1  0  0  0
 37 39  1  0  0  0
 37 47  1  0  0  0
 37 66  1  0  0  0
 37109  1  0  0  0
 38 43  2  0  0  0
 38 46  1  0  0  0
 38 47  1  0  0  0
 39 64  1  0  0  0
 39 67  2  0  0  0
 40 52  1  0  0  0
 40 53  2  0  0  0
 40 58  1  0  0  0
 41110  1  0  0  0
 41111  1  0  0  0
 41112  1  0  0  0
 41 48  1  0  0  0
 42 43  1  0  0  0
 42 66  1  0  0  0
 42113  1  0  0  0
 42114  1  0  0  0
 43 44  1  0  0  0
 44115  1  0  0  0
 45 46  2  0  0  0
 45116  1  0  0  0
 46117  1  0  0  0
 47118  1  0  0  0
 47119  1  0  0  0
 48 56  1  0  0  0
 48 65  1  0  0  0
 48120  1  0  0  0
 49 50  1  0  0  0
 49 53  1  0  0  0
 49 64  1  0  0  0
 49121  1  0  0  0
 50 51  1  0  0  0
 50122  1  0  0  0
 50123  1  0  0  0
 51 52  1  0  0  0
 51124  1  0  0  0
 51125  1  0  0  0
 52126  1  0  0  0
 52127  1  0  0  0
 53 54  1  0  0  0
 54 55  2  0  0  0
 54128  1  0  0  0
 55 57  1  0  0  0
 55129  1  0  0  0
 56 69  2  0  0  0
 57 58  2  0  0  0
 57130  1  0  0  0
 58131  1  0  0  0
 59 60  1  0  0  0
 59 61  1  0  0  0
 59 62  1  0  0  0
 60132  1  0  0  0
 60133  1  0  0  0
 60134  1  0  0  0
 61135  1  0  0  0
 61136  1  0  0  0
 61137  1  0  0  0
 62138  1  0  0  0
 62139  1  0  0  0
 62140  1  0  0  0
 63 65  1  0  0  0
 63141  1  0  0  0
 63142  1  0  0  0
 63143  1  0  0  0
 64144  1  0  0  0
 65145  1  0  0  0
 68 82  1  0  0  0
 71 72  2  0  0  0
 71 73  1  0  0  0
 71146  1  0  0  0
 72 74  1  0  0  0
 72147  1  0  0  0
 73 75  2  0  0  0
 73 81  1  0  0  0
 74 76  2  0  0  0
 74 83  1  0  0  0
 75 76  1  0  0  0
 75 85  1  0  0  0
 76 86  1  0  0  0
 77 78  1  0  0  0
 77 79  1  0  0  0
 77148  1  0  0  0
 77149  1  0  0  0
 78 80  1  0  0  0
 78150  1  0  0  0
 78151  1  0  0  0
 79 83  1  0  0  0
 79152  1  0  0  0
 79153  1  0  0  0
 80 82  1  0  0  0
 80 83  1  0  0  0
 80154  1  0  0  0
 81 84  1  0  0  0
 81155  1  0  0  0
 81156  1  0  0  0
 82157  1  0  0  0
 82158  1  0  0  0
 84159  1  0  0  0
M  ISO  4   1 100  68 101  82 101  84 100
M  END
> <chiral flag>
0

> <version>
0

> <s_m_source_file>
/data/baiqing/PycharmProjects/Reinvent-master-3.2/result/LINK_invent/BTK/process_docking_weight1_custom_product_contain_oxygen_bond_distance_aromatic_linkinvent_7_9_3/rearranged_h_0024.sdf

> <i_m_source_file_index>
52

> <r_mmod_Potential_Energy-OPLS-2005>
201.17658996582

> <r_mmod_Stretch_Energy-OPLS-2005>
78.0455703735352

> <r_mmod_Bend_Energy-OPLS-2005>
184.555450439453

> <r_mmod_Torsional_Energy-OPLS-2005>
272.646881103516

> <r_mmod_Improper_Torsional_Energy-OPLS-2005>
9.19549179077148

> <r_mmod_Van_der_Waal_Energy-OPLS-2005>
157.647903442383

> <r_mmod_Electrostatic_Energy-OPLS-2005>
-346.304779052734

> <r_mmod_Solvation_Energy-OPLS-2005>
-206.382797241211

> <b_mmod_Minimization_Converged-OPLS-2005>
0

> <r_mmod_RMS_Derivative-OPLS-2005>
2.26565957069397

$$$$
52
                    3D
 Structure written by MMmdl.
146154  0  0  1  0            999 V2000
  -30.5230  -15.0384   20.4139 C   0  0  0  0  0  0
  -30.4371  -12.6509   19.5086 C   0  0  0  0  0  0
  -29.5241  -12.5440   18.2646 C   0  0  0  0  0  0
  -28.0602  -12.3139   18.6839 C   0  0  0  0  0  0
  -27.6227  -13.2579   19.8342 C   0  0  2  0  0  0
  -28.6642  -13.3308   20.9705 C   0  0  0  0  0  0
  -25.2434  -13.8229   20.5739 C   0  0  0  0  0  0
  -24.1762  -13.0436   20.9242 C   0  0  0  0  0  0
  -24.6393  -11.6926   20.8760 C   0  0  0  0  0  0
  -23.9082  -10.4293   21.0409 C   0  0  0  0  0  0
  -24.3627   -9.4208   21.9186 C   0  0  0  0  0  0
  -23.6298   -8.2246   22.0757 C   0  0  0  0  0  0
  -22.4280   -8.0282   21.3547 C   0  0  0  0  0  0
  -21.9920   -9.0257   20.4649 C   0  0  0  0  0  0
  -22.7254  -10.2133   20.3059 C   0  0  0  0  0  0
  -21.6854   -6.0735   22.5280 C   0  0  0  0  0  0
  -21.4017   -6.5639   23.8213 C   0  0  0  0  0  0
  -21.3661   -5.6794   24.9175 C   0  0  0  0  0  0
  -21.6040   -4.3055   24.7230 C   0  0  0  0  0  0
  -21.8819   -3.8147   23.4351 C   0  0  0  0  0  0
  -21.9195   -4.6963   22.3405 C   0  0  0  0  0  0
  -22.7781  -13.5201   21.1889 C   0  0  0  0  0  0
  -22.1661   -4.2147   21.0986 F   0  0  0  0  0  0
  -21.5630   -3.4540   25.7743 F   0  0  0  0  0  0
  -29.9250  -13.7704   20.3599 N   0  0  0  0  0  0
  -26.2857  -12.9477   20.3246 N   0  0  0  0  0  0
  -25.9327  -11.6594   20.5733 N   0  0  0  0  0  0
  -22.0434  -12.8188   22.0443 N   0  0  0  0  0  0
  -25.4084  -15.1962   20.4186 N   0  0  0  0  0  0
  -31.7356  -15.0528   20.1717 O   0  0  0  0  0  0
  -21.6642   -6.8878   21.4241 O   0  0  0  0  0  0
  -22.3468  -14.5503   20.6725 O   0  0  0  0  0  0
  -24.6490  -31.8388   23.1854 C   0  0  0  0  0  0
  -25.9241  -32.4668   23.8253 C   0  0  1  0  0  0
  -27.2072  -27.0639   20.1588 C   0  0  0  0  0  0
  -25.5964  -33.8478   24.2163 N   0  0  0  0  0  0
  -23.4564  -30.4584   21.5327 C   0  0  2  0  0  0
  -24.9065  -28.8791   20.1086 C   0  0  0  0  0  0
  -22.7599  -29.4527   22.4850 C   0  0  0  0  0  0
  -18.0314  -28.1394   22.8467 C   0  0  0  0  0  0
  -24.1494  -36.7247   23.2645 C   0  0  0  0  0  0
  -26.0182  -30.6890   21.3967 C   0  0  0  0  0  0
  -26.0878  -29.2943   20.7368 C   0  0  0  0  0  0
  -27.2378  -28.4040   20.7462 C   0  0  0  0  0  0
  -26.0022  -26.7821   19.4731 C   0  0  0  0  0  0
  -24.8819  -27.6393   19.4577 C   0  0  0  0  0  0
  -23.6860  -29.7881   20.1526 C   0  0  0  0  0  0
  -25.4134  -36.3016   24.0304 C   0  0  1  0  0  0
  -20.5927  -28.3735   23.1219 C   0  0  2  0  0  0
  -20.6796  -26.9441   22.5397 C   0  0  0  0  0  0
  -19.5761  -26.6381   21.5212 C   0  0  0  0  0  0
  -18.1947  -26.7931   22.1628 C   0  0  0  0  0  0
  -19.1570  -28.8882   23.2828 C   0  0  0  0  0  0
  -18.9488  -30.1473   23.8854 C   0  0  0  0  0  0
  -17.6483  -30.6585   24.0553 C   0  0  0  0  0  0
  -25.9083  -34.9389   23.5042 C   0  0  0  0  0  0
  -16.5375  -29.9074   23.6338 C   0  0  0  0  0  0
  -16.7300  -28.6494   23.0355 C   0  0  0  0  0  0
  -26.4533  -31.6563   25.0728 C   0  0  0  0  0  0
  -25.3696  -31.3787   26.1408 C   0  0  0  0  0  0
  -27.0402  -30.2940   24.6372 C   0  0  0  0  0  0
  -27.6038  -32.4345   25.7537 C   0  0  0  0  0  0
  -27.5562  -37.1806   24.8478 C   0  0  0  0  0  0
  -21.4286  -29.3044   22.3581 N   0  0  0  0  0  0
  -26.4298  -37.3724   23.9383 N   0  0  0  0  0  0
  -24.7284  -31.0177   22.0928 N   0  0  0  0  0  0
  -23.4206  -28.8085   23.3039 O   0  0  0  0  0  0
  -28.2089  -26.0014   20.2453 O   0  0  0  0  0  0
  -26.5669  -34.8886   22.4622 O   0  0  0  0  0  0
  -23.5592  -32.1297   23.7034 O   0  0  0  0  0  0
  -28.9801  -21.8911   20.3685 C   0  0  0  0  0  0
  -28.5768  -23.1048   20.2788 C   0  0  0  0  0  0
  -31.4608  -18.1016   20.8073 C   0  0  0  0  0  0
  -31.9293  -19.4256   20.9116 C   0  0  0  0  0  0
  -29.2555  -19.0351   20.4107 C   0  0  0  0  0  0
  -29.7132  -20.4761   20.5036 C   0  0  0  0  0  0
  -30.1098  -17.7899   20.5516 C   0  0  0  0  0  0
  -31.1093  -20.5657   20.7689 C   0  0  0  0  0  0
  -27.7856  -24.4882   20.0371 C   0  0  0  0  0  0
  -29.7578  -16.2648   20.5052 N   0  0  0  0  0  0
  -31.9079  -22.0961   20.9428 Cl  0  0  0  0  0  0
  -31.4689  -12.8136   19.1939 H   0  0  0  0  0  0
  -30.4446  -11.7141   20.0680 H   0  0  0  0  0  0
  -29.8615  -11.7369   17.6129 H   0  0  0  0  0  0
  -29.5964  -13.4623   17.6791 H   0  0  0  0  0  0
  -27.9706  -11.2760   19.0065 H   0  0  0  0  0  0
  -27.3962  -12.4247   17.8258 H   0  0  0  0  0  0
  -27.5704  -14.2502   19.3855 H   0  0  0  0  0  0
  -28.7774  -12.3660   21.4669 H   0  0  0  0  0  0
  -28.3482  -14.0398   21.7373 H   0  0  0  0  0  0
  -25.2770   -9.5682   22.4762 H   0  0  0  0  0  0
  -24.0005   -7.4637   22.7479 H   0  0  0  0  0  0
  -21.0852   -8.8779   19.8956 H   0  0  0  0  0  0
  -22.3712  -10.9672   19.6167 H   0  0  0  0  0  0
  -21.2008   -7.6147   23.9716 H   0  0  0  0  0  0
  -21.1482   -6.0524   25.9077 H   0  0  0  0  0  0
  -22.0596   -2.7610   23.2855 H   0  0  0  0  0  0
  -22.4063  -11.9855   22.4831 H   0  0  0  0  0  0
  -21.1047  -13.1205   22.2645 H   0  0  0  0  0  0
  -24.6382  -15.8452   20.5383 H   0  0  0  0  0  0
  -26.2459  -15.6407   20.0673 H   0  0  0  0  0  0
  -26.7309  -32.5243   23.0975 H   0  0  0  0  0  0
  -25.0096  -33.9593   25.0301 H   0  0  0  0  0  0
  -22.7622  -31.2868   21.3761 H   0  0  0  0  0  0
  -23.3735  -35.9605   23.3349 H   0  0  0  0  0  0
  -24.3553  -36.8841   22.2049 H   0  0  0  0  0  0
  -23.7279  -37.6468   23.6659 H   0  0  0  0  0  0
  -26.1800  -31.4411   20.6234 H   0  0  0  0  0  0
  -26.8863  -30.7416   22.0421 H   0  0  0  0  0  0
  -28.1298  -28.7136   21.2729 H   0  0  0  0  0  0
  -25.8750  -25.8434   18.9574 H   0  0  0  0  0  0
  -23.9850  -27.3204   18.9443 H   0  0  0  0  0  0
  -23.8249  -30.5619   19.3969 H   0  0  0  0  0  0
  -22.7988  -29.2341   19.8413 H   0  0  0  0  0  0
  -25.1335  -36.1846   25.0797 H   0  0  0  0  0  0
  -21.0007  -28.3323   24.1346 H   0  0  0  0  0  0
  -20.5691  -26.2361   23.3624 H   0  0  0  0  0  0
  -21.6662  -26.7439   22.1196 H   0  0  0  0  0  0
  -19.6935  -25.6284   21.1259 H   0  0  0  0  0  0
  -19.6686  -27.3170   20.6725 H   0  0  0  0  0  0
  -17.4217  -26.6660   21.4034 H   0  0  0  0  0  0
  -18.0358  -26.0088   22.9043 H   0  0  0  0  0  0
  -19.7965  -30.7296   24.2209 H   0  0  0  0  0  0
  -17.5038  -31.6265   24.5155 H   0  0  0  0  0  0
  -15.5371  -30.2955   23.7688 H   0  0  0  0  0  0
  -15.8705  -28.0792   22.7096 H   0  0  0  0  0  0
  -24.5877  -30.7131   25.7736 H   0  0  0  0  0  0
  -24.8886  -32.2986   26.4739 H   0  0  0  0  0  0
  -25.7954  -30.9022   27.0246 H   0  0  0  0  0  0
  -26.3040  -29.6660   24.1339 H   0  0  0  0  0  0
  -27.3930  -29.7247   25.4984 H   0  0  0  0  0  0
  -27.8986  -30.4150   23.9760 H   0  0  0  0  0  0
  -27.2600  -33.3663   26.2035 H   0  0  0  0  0  0
  -28.3897  -32.6875   25.0414 H   0  0  0  0  0  0
  -28.0645  -31.8525   26.5528 H   0  0  0  0  0  0
  -28.2629  -38.0051   24.7421 H   0  0  0  0  0  0
  -28.1000  -36.2566   24.6444 H   0  0  0  0  0  0
  -27.2251  -37.1626   25.8877 H   0  0  0  0  0  0
  -20.9517  -29.8749   21.6737 H   0  0  0  0  0  0
  -26.0159  -38.2803   24.1318 H   0  0  0  0  0  0
  -32.1882  -17.3174   20.9508 H   0  0  0  0  0  0
  -32.9790  -19.5732   21.1192 H   0  0  0  0  0  0
  -28.2032  -18.8818   20.2221 H   0  0  0  0  0  0
  -26.8721  -24.3570   20.6191 H   0  0  0  0  0  0
  -27.4840  -24.4013   18.9936 H   0  0  0  0  0  0
  -28.7671  -16.0787   20.5545 H   0  0  0  0  0  0
  1 25  1  0  0  0
  1 30  2  0  0  0
  1 80  1  0  0  0
  2  3  1  0  0  0
  2 25  1  0  0  0
  2 82  1  0  0  0
  2 83  1  0  0  0
  3  4  1  0  0  0
  3 84  1  0  0  0
  3 85  1  0  0  0
  4  5  1  0  0  0
  4 86  1  0  0  0
  4 87  1  0  0  0
  5  6  1  0  0  0
  5 26  1  0  0  0
  5 88  1  0  0  0
  6 25  1  0  0  0
  6 89  1  0  0  0
  6 90  1  0  0  0
  7  8  2  0  0  0
  7 26  1  0  0  0
  7 29  1  0  0  0
  8  9  1  0  0  0
  8 22  1  0  0  0
  9 10  1  0  0  0
  9 27  2  0  0  0
 10 11  2  0  0  0
 10 15  1  0  0  0
 11 12  1  0  0  0
 11 91  1  0  0  0
 12 13  2  0  0  0
 12 92  1  0  0  0
 13 14  1  0  0  0
 13 31  1  0  0  0
 14 15  2  0  0  0
 14 93  1  0  0  0
 15 94  1  0  0  0
 16 17  2  0  0  0
 16 21  1  0  0  0
 16 31  1  0  0  0
 17 18  1  0  0  0
 17 95  1  0  0  0
 18 19  2  0  0  0
 18 96  1  0  0  0
 19 20  1  0  0  0
 19 24  1  0  0  0
 20 21  2  0  0  0
 20 97  1  0  0  0
 21 23  1  0  0  0
 22 28  1  0  0  0
 22 32  2  0  0  0
 26 27  1  0  0  0
 28 98  1  0  0  0
 28 99  1  0  0  0
 29100  1  0  0  0
 29101  1  0  0  0
 33 34  1  0  0  0
 33 66  1  0  0  0
 33 70  2  0  0  0
 34 36  1  0  0  0
 34 59  1  0  0  0
 34102  1  0  0  0
 35 44  2  0  0  0
 35 45  1  0  0  0
 35 68  1  0  0  0
 36 56  1  0  0  0
 36103  1  0  0  0
 37 39  1  0  0  0
 37 47  1  0  0  0
 37 66  1  0  0  0
 37104  1  0  0  0
 38 43  2  0  0  0
 38 46  1  0  0  0
 38 47  1  0  0  0
 39 64  1  0  0  0
 39 67  2  0  0  0
 40 52  1  0  0  0
 40 53  2  0  0  0
 40 58  1  0  0  0
 41105  1  0  0  0
 41106  1  0  0  0
 41107  1  0  0  0
 41 48  1  0  0  0
 42 43  1  0  0  0
 42 66  1  0  0  0
 42108  1  0  0  0
 42109  1  0  0  0
 43 44  1  0  0  0
 44110  1  0  0  0
 45 46  2  0  0  0
 45111  1  0  0  0
 46112  1  0  0  0
 47113  1  0  0  0
 47114  1  0  0  0
 48 56  1  0  0  0
 48 65  1  0  0  0
 48115  1  0  0  0
 49 50  1  0  0  0
 49 53  1  0  0  0
 49 64  1  0  0  0
 49116  1  0  0  0
 50 51  1  0  0  0
 50117  1  0  0  0
 50118  1  0  0  0
 51 52  1  0  0  0
 51119  1  0  0  0
 51120  1  0  0  0
 52121  1  0  0  0
 52122  1  0  0  0
 53 54  1  0  0  0
 54 55  2  0  0  0
 54123  1  0  0  0
 55 57  1  0  0  0
 55124  1  0  0  0
 56 69  2  0  0  0
 57 58  2  0  0  0
 57125  1  0  0  0
 58126  1  0  0  0
 59 60  1  0  0  0
 59 61  1  0  0  0
 59 62  1  0  0  0
 60127  1  0  0  0
 60128  1  0  0  0
 60129  1  0  0  0
 61130  1  0  0  0
 61131  1  0  0  0
 61132  1  0  0  0
 62133  1  0  0  0
 62134  1  0  0  0
 62135  1  0  0  0
 63 65  1  0  0  0
 63136  1  0  0  0
 63137  1  0  0  0
 63138  1  0  0  0
 64139  1  0  0  0
 65140  1  0  0  0
 68 79  1  0  0  0
 71 72  3  0  0  0
 71 76  1  0  0  0
 72 79  1  0  0  0
 73 74  2  0  0  0
 73 77  1  0  0  0
 73141  1  0  0  0
 74 78  1  0  0  0
 74142  1  0  0  0
 75 76  1  0  0  0
 75 77  2  0  0  0
 75143  1  0  0  0
 76 78  2  0  0  0
 77 80  1  0  0  0
 78 81  1  0  0  0
 79144  1  0  0  0
 79145  1  0  0  0
 80146  1  0  0  0
M  ISO  4   1 100  68 101  79 101  80 100
M  END
> <chiral flag>
0

> <version>
0

> <s_m_source_file>
/data/baiqing/PycharmProjects/Reinvent-master-3.2/result/LINK_invent/BTK/process_docking_weight1_custom_product_contain_oxygen_bond_distance_aromatic_linkinvent_7_9_3/rearranged_h_0024.sdf

> <i_m_source_file_index>
53

> <r_mmod_Potential_Energy-OPLS-2005>
666.0478515625

> <r_mmod_Stretch_Energy-OPLS-2005>
322.725067138672

> <r_mmod_Bend_Energy-OPLS-2005>
276.314422607422

> <r_mmod_Torsional_Energy-OPLS-2005>
210.532577514648

> <r_mmod_Improper_Torsional_Energy-OPLS-2005>
4.99998712539673

> <r_mmod_Van_der_Waal_Energy-OPLS-2005>
142.477966308594

> <r_mmod_Electrostatic_Energy-OPLS-2005>
-343.489044189453

> <r_mmod_Solvation_Energy-OPLS-2005>
-213.574905395508

> <b_mmod_Minimization_Converged-OPLS-2005>
0

> <r_mmod_RMS_Derivative-OPLS-2005>
1.22725641727448

$$$$
53
                    3D
 Structure written by MMmdl.
153162  0  0  1  0            999 V2000
  -30.5894  -14.7374   20.5112 C   0  0  0  0  0  0
  -30.4601  -12.4714   19.4644 C   0  0  0  0  0  0
  -29.5279  -12.5406   18.2329 C   0  0  0  0  0  0
  -28.0465  -12.3720   18.6289 C   0  0  0  0  0  0
  -27.6542  -13.2312   19.8614 C   0  0  2  0  0  0
  -28.6990  -13.1058   20.9957 C   0  0  0  0  0  0
  -25.2563  -13.8199   20.5640 C   0  0  0  0  0  0
  -24.1851  -13.0463   20.9191 C   0  0  0  0  0  0
  -24.6426  -11.6933   20.8729 C   0  0  0  0  0  0
  -23.9065  -10.4326   21.0395 C   0  0  0  0  0  0
  -24.3618   -9.4234   21.9174 C   0  0  0  0  0  0
  -23.6314   -8.2268   22.0754 C   0  0  0  0  0  0
  -22.4301   -8.0297   21.3559 C   0  0  0  0  0  0
  -21.9906   -9.0267   20.4668 C   0  0  0  0  0  0
  -22.7219  -10.2151   20.3063 C   0  0  0  0  0  0
  -21.6864   -6.0743   22.5294 C   0  0  0  0  0  0
  -21.4005   -6.5644   23.8216 C   0  0  0  0  0  0
  -21.3658   -5.6795   24.9191 C   0  0  0  0  0  0
  -21.6037   -4.3054   24.7227 C   0  0  0  0  0  0
  -21.8821   -3.8146   23.4348 C   0  0  0  0  0  0
  -21.9200   -4.6978   22.3400 C   0  0  0  0  0  0
  -22.7868  -13.5263   21.1873 C   0  0  0  0  0  0
  -22.1678   -4.2178   21.0975 F   0  0  0  0  0  0
  -21.5635   -3.4515   25.7721 F   0  0  0  0  0  0
  -30.0073  -13.4899   20.4402 N   0  0  0  0  0  0
  -26.3005  -12.9403   20.3248 N   0  0  0  0  0  0
  -25.9357  -11.6544   20.5683 N   0  0  0  0  0  0
  -22.0458  -12.8293   22.0413 N   0  0  0  0  0  0
  -25.4226  -15.1926   20.4062 N   0  0  0  0  0  0
  -31.7443  -14.9083   20.1104 O   0  0  0  0  0  0
  -21.6670   -6.8892   21.4255 O   0  0  0  0  0  0
  -22.3549  -14.5568   20.6706 O   0  0  0  0  0  0
  -24.6275  -31.8569   23.1913 C   0  0  0  0  0  0
  -25.9091  -32.4755   23.8304 C   0  0  1  0  0  0
  -27.2530  -27.2887   20.1077 C   0  0  0  0  0  0
  -25.5878  -33.8550   24.2244 N   0  0  0  0  0  0
  -23.4310  -30.4712   21.5295 C   0  0  2  0  0  0
  -24.8887  -28.9230   20.1042 C   0  0  0  0  0  0
  -22.7506  -29.4626   22.4876 C   0  0  0  0  0  0
  -18.0312  -28.1433   22.8510 C   0  0  0  0  0  0
  -24.1481  -36.7285   23.2633 C   0  0  0  0  0  0
  -25.9736  -30.7811   21.3649 C   0  0  0  0  0  0
  -26.0544  -29.3998   20.7176 C   0  0  0  0  0  0
  -27.2357  -28.5886   20.7162 C   0  0  0  0  0  0
  -26.0656  -26.8922   19.4477 C   0  0  0  0  0  0
  -24.8979  -27.6794   19.4593 C   0  0  0  0  0  0
  -23.6485  -29.7872   20.1531 C   0  0  0  0  0  0
  -25.4093  -36.3053   24.0320 C   0  0  1  0  0  0
  -20.5912  -28.3711   23.1305 C   0  0  2  0  0  0
  -20.6792  -26.9435   22.5452 C   0  0  0  0  0  0
  -19.5765  -26.6419   21.5244 C   0  0  0  0  0  0
  -18.1940  -26.7982   22.1647 C   0  0  0  0  0  0
  -19.1571  -28.8899   23.2905 C   0  0  0  0  0  0
  -18.9467  -30.1503   23.8906 C   0  0  0  0  0  0
  -17.6453  -30.6617   24.0579 C   0  0  0  0  0  0
  -25.9045  -34.9432   23.5102 C   0  0  0  0  0  0
  -16.5356  -29.9107   23.6330 C   0  0  0  0  0  0
  -16.7290  -28.6542   23.0342 C   0  0  0  0  0  0
  -26.4469  -31.6580   25.0685 C   0  0  0  0  0  0
  -25.3666  -31.3788   26.1388 C   0  0  0  0  0  0
  -27.0283  -30.2983   24.6149 C   0  0  0  0  0  0
  -27.6052  -32.4293   25.7459 C   0  0  0  0  0  0
  -27.5582  -37.1781   24.8440 C   0  0  0  0  0  0
  -21.4221  -29.3026   22.3658 N   0  0  0  0  0  0
  -26.4263  -37.3743   23.9426 N   0  0  0  0  0  0
  -24.6966  -31.0544   22.0872 N   0  0  0  0  0  0
  -23.4239  -28.8192   23.2982 O   0  0  0  0  0  0
  -28.3655  -26.4132   20.1710 O   0  0  0  0  0  0
  -26.5626  -34.8906   22.4671 O   0  0  0  0  0  0
  -23.5409  -32.1408   23.7184 O   0  0  0  0  0  0
  -30.4568  -19.4596   19.7624 C   0  0  0  0  0  0
  -30.6471  -18.0401   19.9361 C   0  0  0  0  0  0
  -29.4390  -20.2350   20.4119 C   0  0  0  0  0  0
  -29.7970  -17.2593   20.7708 C   0  0  0  0  0  0
  -28.6539  -19.4357   21.2961 C   0  0  0  0  0  0
  -28.8144  -18.0213   21.4585 C   0  0  0  0  0  0
  -29.5549  -22.6034   19.1654 C   0  0  0  0  0  0
  -28.9755  -22.7072   21.2238 C   0  0  0  0  0  0
  -29.2529  -23.8165   20.1356 C   0  0  0  0  0  0
  -28.2020  -24.9785   19.7701 C   0  0  0  0  0  0
  -29.1020  -21.6686   20.1975 N   0  0  0  0  0  0
  -29.7855  -15.7810   20.9314 N   0  0  0  0  0  0
  -27.6610  -20.0420   21.9925 F   0  0  0  0  0  0
  -27.9634  -17.3740   22.2867 F   0  0  0  0  0  0
  -31.4898  -12.6487   19.1477 H   0  0  0  0  0  0
  -30.4534  -11.4788   19.9130 H   0  0  0  0  0  0
  -29.8147  -11.7848   17.5009 H   0  0  0  0  0  0
  -29.6598  -13.5049   17.7384 H   0  0  0  0  0  0
  -27.8713  -11.3133   18.8320 H   0  0  0  0  0  0
  -27.4084  -12.6297   17.7806 H   0  0  0  0  0  0
  -27.6640  -14.2684   19.5248 H   0  0  0  0  0  0
  -28.7349  -12.0831   21.3766 H   0  0  0  0  0  0
  -28.4208  -13.7334   21.8444 H   0  0  0  0  0  0
  -25.2757   -9.5737   22.4741 H   0  0  0  0  0  0
  -24.0042   -7.4648   22.7461 H   0  0  0  0  0  0
  -21.0815   -8.8774   19.8973 H   0  0  0  0  0  0
  -22.3651  -10.9698   19.6174 H   0  0  0  0  0  0
  -21.1981   -7.6150   23.9735 H   0  0  0  0  0  0
  -21.1484   -6.0517   25.9097 H   0  0  0  0  0  0
  -22.0600   -2.7615   23.2824 H   0  0  0  0  0  0
  -22.4024  -11.9967   22.4857 H   0  0  0  0  0  0
  -21.1091  -13.1399   22.2593 H   0  0  0  0  0  0
  -24.6489  -15.8386   20.5294 H   0  0  0  0  0  0
  -26.2510  -15.6342   20.0274 H   0  0  0  0  0  0
  -26.7182  -32.5459   23.1087 H   0  0  0  0  0  0
  -24.9902  -33.9701   25.0302 H   0  0  0  0  0  0
  -22.7238  -31.2881   21.3648 H   0  0  0  0  0  0
  -23.3744  -35.9610   23.3238 H   0  0  0  0  0  0
  -24.3598  -36.8966   22.2064 H   0  0  0  0  0  0
  -23.7249  -37.6469   23.6700 H   0  0  0  0  0  0
  -26.0907  -31.5390   20.5862 H   0  0  0  0  0  0
  -26.8599  -30.8580   21.9848 H   0  0  0  0  0  0
  -28.1259  -28.9438   21.2179 H   0  0  0  0  0  0
  -26.0097  -25.9587   18.9115 H   0  0  0  0  0  0
  -24.0079  -27.3276   18.9534 H   0  0  0  0  0  0
  -23.7371  -30.5406   19.3701 H   0  0  0  0  0  0
  -22.7856  -29.1768   19.8803 H   0  0  0  0  0  0
  -25.1285  -36.1863   25.0804 H   0  0  0  0  0  0
  -21.0038  -28.3275   24.1405 H   0  0  0  0  0  0
  -20.5729  -26.2290   23.3628 H   0  0  0  0  0  0
  -21.6654  -26.7464   22.1206 H   0  0  0  0  0  0
  -19.6903  -25.6332   21.1271 H   0  0  0  0  0  0
  -19.6717  -27.3238   20.6784 H   0  0  0  0  0  0
  -17.4226  -26.6761   21.4032 H   0  0  0  0  0  0
  -18.0305  -26.0151   22.9063 H   0  0  0  0  0  0
  -19.7921  -30.7362   24.2266 H   0  0  0  0  0  0
  -17.4980  -31.6283   24.5208 H   0  0  0  0  0  0
  -15.5350  -30.3003   23.7661 H   0  0  0  0  0  0
  -15.8694  -28.0877   22.6998 H   0  0  0  0  0  0
  -24.5825  -30.7148   25.7734 H   0  0  0  0  0  0
  -24.8854  -32.2977   26.4732 H   0  0  0  0  0  0
  -25.7934  -30.9031   27.0218 H   0  0  0  0  0  0
  -26.2868  -29.6759   24.1121 H   0  0  0  0  0  0
  -27.3923  -29.7201   25.4656 H   0  0  0  0  0  0
  -27.8743  -30.4255   23.9390 H   0  0  0  0  0  0
  -27.2692  -33.3605   26.2022 H   0  0  0  0  0  0
  -28.3859  -32.6837   25.0283 H   0  0  0  0  0  0
  -28.0690  -31.8403   26.5377 H   0  0  0  0  0  0
  -28.2550  -38.0138   24.7532 H   0  0  0  0  0  0
  -28.1147  -36.2677   24.6166 H   0  0  0  0  0  0
  -27.2328  -37.1269   25.8849 H   0  0  0  0  0  0
  -20.9425  -29.8666   21.6787 H   0  0  0  0  0  0
  -26.0136  -38.2794   24.1473 H   0  0  0  0  0  0
  -31.1288  -19.9603   19.0798 H   0  0  0  0  0  0
  -31.4339  -17.5471   19.3820 H   0  0  0  0  0  0
  -30.6143  -22.5147   18.9170 H   0  0  0  0  0  0
  -28.9155  -22.5906   18.2798 H   0  0  0  0  0  0
  -27.9795  -22.7393   21.6643 H   0  0  0  0  0  0
  -29.7574  -22.6387   21.9828 H   0  0  0  0  0  0
  -30.2231  -24.2796   20.3273 H   0  0  0  0  0  0
  -27.2278  -24.6278   20.1167 H   0  0  0  0  0  0
  -28.1274  -25.0140   18.6838 H   0  0  0  0  0  0
  -28.9365  -15.4477   21.3653 H   0  0  0  0  0  0
  1 25  1  0  0  0
  1 30  2  0  0  0
  1 82  1  0  0  0
  2  3  1  0  0  0
  2 25  1  0  0  0
  2 85  1  0  0  0
  2 86  1  0  0  0
  3  4  1  0  0  0
  3 87  1  0  0  0
  3 88  1  0  0  0
  4  5  1  0  0  0
  4 89  1  0  0  0
  4 90  1  0  0  0
  5  6  1  0  0  0
  5 26  1  0  0  0
  5 91  1  0  0  0
  6 25  1  0  0  0
  6 92  1  0  0  0
  6 93  1  0  0  0
  7  8  2  0  0  0
  7 26  1  0  0  0
  7 29  1  0  0  0
  8  9  1  0  0  0
  8 22  1  0  0  0
  9 10  1  0  0  0
  9 27  2  0  0  0
 10 11  2  0  0  0
 10 15  1  0  0  0
 11 12  1  0  0  0
 11 94  1  0  0  0
 12 13  2  0  0  0
 12 95  1  0  0  0
 13 14  1  0  0  0
 13 31  1  0  0  0
 14 15  2  0  0  0
 14 96  1  0  0  0
 15 97  1  0  0  0
 16 17  2  0  0  0
 16 21  1  0  0  0
 16 31  1  0  0  0
 17 18  1  0  0  0
 17 98  1  0  0  0
 18 19  2  0  0  0
 18 99  1  0  0  0
 19 20  1  0  0  0
 19 24  1  0  0  0
 20 21  2  0  0  0
 20100  1  0  0  0
 21 23  1  0  0  0
 22 28  1  0  0  0
 22 32  2  0  0  0
 26 27  1  0  0  0
 28101  1  0  0  0
 28102  1  0  0  0
 29103  1  0  0  0
 29104  1  0  0  0
 33 34  1  0  0  0
 33 66  1  0  0  0
 33 70  2  0  0  0
 34 36  1  0  0  0
 34 59  1  0  0  0
 34105  1  0  0  0
 35 44  2  0  0  0
 35 45  1  0  0  0
 35 68  1  0  0  0
 36 56  1  0  0  0
 36106  1  0  0  0
 37 39  1  0  0  0
 37 47  1  0  0  0
 37 66  1  0  0  0
 37107  1  0  0  0
 38 43  2  0  0  0
 38 46  1  0  0  0
 38 47  1  0  0  0
 39 64  1  0  0  0
 39 67  2  0  0  0
 40 52  1  0  0  0
 40 53  2  0  0  0
 40 58  1  0  0  0
 41108  1  0  0  0
 41109  1  0  0  0
 41110  1  0  0  0
 41 48  1  0  0  0
 42 43  1  0  0  0
 42 66  1  0  0  0
 42111  1  0  0  0
 42112  1  0  0  0
 43 44  1  0  0  0
 44113  1  0  0  0
 45 46  2  0  0  0
 45114  1  0  0  0
 46115  1  0  0  0
 47116  1  0  0  0
 47117  1  0  0  0
 48 56  1  0  0  0
 48 65  1  0  0  0
 48118  1  0  0  0
 49 50  1  0  0  0
 49 53  1  0  0  0
 49 64  1  0  0  0
 49119  1  0  0  0
 50 51  1  0  0  0
 50120  1  0  0  0
 50121  1  0  0  0
 51 52  1  0  0  0
 51122  1  0  0  0
 51123  1  0  0  0
 52124  1  0  0  0
 52125  1  0  0  0
 53 54  1  0  0  0
 54 55  2  0  0  0
 54126  1  0  0  0
 55 57  1  0  0  0
 55127  1  0  0  0
 56 69  2  0  0  0
 57 58  2  0  0  0
 57128  1  0  0  0
 58129  1  0  0  0
 59 60  1  0  0  0
 59 61  1  0  0  0
 59 62  1  0  0  0
 60130  1  0  0  0
 60131  1  0  0  0
 60132  1  0  0  0
 61133  1  0  0  0
 61134  1  0  0  0
 61135  1  0  0  0
 62136  1  0  0  0
 62137  1  0  0  0
 62138  1  0  0  0
 63 65  1  0  0  0
 63139  1  0  0  0
 63140  1  0  0  0
 63141  1  0  0  0
 64142  1  0  0  0
 65143  1  0  0  0
 68 80  1  0  0  0
 71 72  2  0  0  0
 71 73  1  0  0  0
 71144  1  0  0  0
 72 74  1  0  0  0
 72145  1  0  0  0
 73 75  2  0  0  0
 73 81  1  0  0  0
 74 76  2  0  0  0
 74 82  1  0  0  0
 75 76  1  0  0  0
 75 83  1  0  0  0
 76 84  1  0  0  0
 77 79  1  0  0  0
 77 81  1  0  0  0
 77146  1  0  0  0
 77147  1  0  0  0
 78 79  1  0  0  0
 78 81  1  0  0  0
 78148  1  0  0  0
 78149  1  0  0  0
 79 80  1  0  0  0
 79150  1  0  0  0
 80151  1  0  0  0
 80152  1  0  0  0
 82153  1  0  0  0
M  ISO  4   1 100  68 101  80 101  82 100
M  END
> <chiral flag>
0

> <version>
0

> <s_m_source_file>
/data/baiqing/PycharmProjects/Reinvent-master-3.2/result/LINK_invent/BTK/process_docking_weight1_custom_product_contain_oxygen_bond_distance_aromatic_linkinvent_7_9_3/rearranged_h_0024.sdf

> <i_m_source_file_index>
54

> <r_mmod_Potential_Energy-OPLS-2005>
248.867904663086

> <r_mmod_Stretch_Energy-OPLS-2005>
107.559310913086

> <r_mmod_Bend_Energy-OPLS-2005>
227.388687133789

> <r_mmod_Torsional_Energy-OPLS-2005>
256.863342285156

> <r_mmod_Improper_Torsional_Energy-OPLS-2005>
7.32460641860962

> <r_mmod_Van_der_Waal_Energy-OPLS-2005>
138.060302734375

> <r_mmod_Electrostatic_Energy-OPLS-2005>
-349.337493896484

> <r_mmod_Solvation_Energy-OPLS-2005>
-214.556854248047

> <b_mmod_Minimization_Converged-OPLS-2005>
0

> <r_mmod_RMS_Derivative-OPLS-2005>
6.27078008651733

$$$$
54
                    3D
 Structure written by MMmdl.
161170  0  0  1  0            999 V2000
  -30.6161  -14.6458   20.5057 C   0  0  0  0  0  0
  -30.4434  -12.3983   19.4508 C   0  0  0  0  0  0
  -29.5104  -12.5114   18.2239 C   0  0  0  0  0  0
  -28.0340  -12.3434   18.6372 C   0  0  0  0  0  0
  -27.6545  -13.2142   19.8638 C   0  0  2  0  0  0
  -28.6994  -13.0690   20.9931 C   0  0  0  0  0  0
  -25.2566  -13.8162   20.5671 C   0  0  0  0  0  0
  -24.1829  -13.0434   20.9183 C   0  0  0  0  0  0
  -24.6396  -11.6906   20.8735 C   0  0  0  0  0  0
  -23.9063  -10.4292   21.0405 C   0  0  0  0  0  0
  -24.3615   -9.4206   21.9183 C   0  0  0  0  0  0
  -23.6287   -8.2243   22.0757 C   0  0  0  0  0  0
  -22.4266   -8.0283   21.3549 C   0  0  0  0  0  0
  -21.9902   -9.0257   20.4652 C   0  0  0  0  0  0
  -22.7233  -10.2134   20.3056 C   0  0  0  0  0  0
  -21.6853   -6.0732   22.5280 C   0  0  0  0  0  0
  -21.4017   -6.5635   23.8212 C   0  0  0  0  0  0
  -21.3658   -5.6790   24.9174 C   0  0  0  0  0  0
  -21.6041   -4.3052   24.7227 C   0  0  0  0  0  0
  -21.8820   -3.8143   23.4348 C   0  0  0  0  0  0
  -21.9194   -4.6962   22.3404 C   0  0  0  0  0  0
  -22.7850  -13.5236   21.1846 C   0  0  0  0  0  0
  -22.1660   -4.2146   21.0984 F   0  0  0  0  0  0
  -21.5629   -3.4539   25.7739 F   0  0  0  0  0  0
  -30.0149  -13.4159   20.4305 N   0  0  0  0  0  0
  -26.2995  -12.9339   20.3312 N   0  0  0  0  0  0
  -25.9323  -11.6497   20.5745 N   0  0  0  0  0  0
  -22.0491  -12.8235   22.0402 N   0  0  0  0  0  0
  -25.4271  -15.1884   20.4081 N   0  0  0  0  0  0
  -31.7799  -14.8195   20.1310 O   0  0  0  0  0  0
  -21.6635   -6.8874   21.4240 O   0  0  0  0  0  0
  -22.3540  -14.5543   20.6696 O   0  0  0  0  0  0
  -24.6246  -31.8602   23.2029 C   0  0  0  0  0  0
  -25.9095  -32.4782   23.8355 C   0  0  1  0  0  0
  -27.2239  -27.3263   20.1237 C   0  0  0  0  0  0
  -25.5907  -33.8584   24.2273 N   0  0  0  0  0  0
  -23.4176  -30.4828   21.5463 C   0  0  2  0  0  0
  -24.8643  -28.9361   20.1146 C   0  0  0  0  0  0
  -22.7463  -29.4621   22.4952 C   0  0  0  0  0  0
  -18.0283  -28.1388   22.8489 C   0  0  0  0  0  0
  -24.1487  -36.7300   23.2638 C   0  0  0  0  0  0
  -25.9573  -30.7937   21.3723 C   0  0  0  0  0  0
  -26.0322  -29.4203   20.7176 C   0  0  0  0  0  0
  -27.2168  -28.6274   20.7109 C   0  0  0  0  0  0
  -26.0379  -26.8939   19.4917 C   0  0  0  0  0  0
  -24.8678  -27.6772   19.4934 C   0  0  0  0  0  0
  -23.6319  -29.8163   20.1619 C   0  0  0  0  0  0
  -25.4111  -36.3087   24.0326 C   0  0  1  0  0  0
  -20.5882  -28.3683   23.1299 C   0  0  2  0  0  0
  -20.6775  -26.9410   22.5419 C   0  0  0  0  0  0
  -19.5750  -26.6388   21.5222 C   0  0  0  0  0  0
  -18.1928  -26.7930   22.1632 C   0  0  0  0  0  0
  -19.1536  -28.8853   23.2889 C   0  0  0  0  0  0
  -18.9460  -30.1459   23.8897 C   0  0  0  0  0  0
  -17.6460  -30.6589   24.0569 C   0  0  0  0  0  0
  -25.9046  -34.9455   23.5102 C   0  0  0  0  0  0
  -16.5351  -29.9090   23.6335 C   0  0  0  0  0  0
  -16.7271  -28.6513   23.0345 C   0  0  0  0  0  0
  -26.4481  -31.6591   25.0725 C   0  0  0  0  0  0
  -25.3714  -31.3745   26.1454 C   0  0  0  0  0  0
  -27.0313  -30.3009   24.6177 C   0  0  0  0  0  0
  -27.6031  -32.4334   25.7500 C   0  0  0  0  0  0
  -27.5579  -37.1805   24.8461 C   0  0  0  0  0  0
  -21.4179  -29.3035   22.3693 N   0  0  0  0  0  0
  -26.4287  -37.3782   23.9410 N   0  0  0  0  0  0
  -24.6852  -31.0619   22.0976 N   0  0  0  0  0  0
  -23.4189  -28.8162   23.3031 O   0  0  0  0  0  0
  -28.3481  -26.4916   20.1337 O   0  0  0  0  0  0
  -26.5628  -34.8922   22.4677 O   0  0  0  0  0  0
  -23.5414  -32.1399   23.7366 O   0  0  0  0  0  0
  -30.5724  -19.3849   21.4425 C   0  0  0  0  0  0
  -30.6117  -17.9643   21.5566 C   0  0  0  0  0  0
  -29.1635  -17.7971   19.6485 C   0  0  0  0  0  0
  -29.1405  -19.2242   19.4970 C   0  0  0  0  0  0
  -29.8373  -20.0651   20.4261 C   0  0  0  0  0  0
  -29.9095  -17.1287   20.6556 C   0  0  0  0  0  0
  -28.9290  -22.4563   20.3641 C   0  0  0  0  0  0
  -31.5604  -23.3540   19.5538 C   0  0  0  0  0  0
  -30.6124  -24.4111   20.1165 C   0  0  0  0  0  0
  -31.3532  -22.0181   20.2799 C   0  0  0  0  0  0
  -29.1491  -23.9810   19.9424 C   0  0  2  0  0  0
  -28.1705  -25.0795   20.5532 C   0  0  0  0  0  0
  -28.3981  -19.8018   18.2881 C   0  0  0  0  0  0
  -29.9616  -21.5314   20.2954 N   0  0  0  0  0  0
  -29.7916  -15.6846   20.8494 N   0  0  0  0  0  0
  -27.8005  -22.1166   20.7284 O   0  0  0  0  0  0
  -28.2271  -18.8786   17.3403 F   0  0  0  0  0  0
  -27.1934  -20.2380   18.6492 F   0  0  0  0  0  0
  -29.0747  -20.8073   17.7309 F   0  0  0  0  0  0
  -31.4837  -12.5308   19.1481 H   0  0  0  0  0  0
  -30.3848  -11.4020   19.8917 H   0  0  0  0  0  0
  -29.7769  -11.7629   17.4765 H   0  0  0  0  0  0
  -29.6489  -13.4825   17.7451 H   0  0  0  0  0  0
  -27.8746  -11.2898   18.8707 H   0  0  0  0  0  0
  -27.3787  -12.5707   17.7958 H   0  0  0  0  0  0
  -27.6723  -14.2488   19.5212 H   0  0  0  0  0  0
  -28.7127  -12.0472   21.3742 H   0  0  0  0  0  0
  -28.4439  -13.6992   21.8469 H   0  0  0  0  0  0
  -25.2765   -9.5677   22.4753 H   0  0  0  0  0  0
  -24.0001   -7.4628   22.7473 H   0  0  0  0  0  0
  -21.0833   -8.8774   19.8954 H   0  0  0  0  0  0
  -22.3697  -10.9671   19.6159 H   0  0  0  0  0  0
  -21.2011   -7.6144   23.9712 H   0  0  0  0  0  0
  -21.1477   -6.0521   25.9074 H   0  0  0  0  0  0
  -22.0600   -2.7607   23.2849 H   0  0  0  0  0  0
  -22.4102  -11.9903   22.4805 H   0  0  0  0  0  0
  -21.1110  -13.1265   22.2609 H   0  0  0  0  0  0
  -24.6562  -15.8388   20.5132 H   0  0  0  0  0  0
  -26.2703  -15.6287   20.0647 H   0  0  0  0  0  0
  -26.7162  -32.5453   23.1106 H   0  0  0  0  0  0
  -25.0024  -33.9732   25.0395 H   0  0  0  0  0  0
  -22.7112  -31.3033   21.4044 H   0  0  0  0  0  0
  -23.3743  -35.9638   23.3299 H   0  0  0  0  0  0
  -24.3578  -36.8924   22.2052 H   0  0  0  0  0  0
  -23.7247  -37.6504   23.6663 H   0  0  0  0  0  0
  -26.0856  -31.5564   20.6031 H   0  0  0  0  0  0
  -26.8385  -30.8444   21.9999 H   0  0  0  0  0  0
  -28.1150  -28.9961   21.1857 H   0  0  0  0  0  0
  -26.0042  -25.9382   18.9891 H   0  0  0  0  0  0
  -23.9738  -27.3026   19.0142 H   0  0  0  0  0  0
  -23.7509  -30.5931   19.4056 H   0  0  0  0  0  0
  -22.7514  -29.2461   19.8602 H   0  0  0  0  0  0
  -25.1291  -36.1936   25.0818 H   0  0  0  0  0  0
  -20.9976  -28.3257   24.1421 H   0  0  0  0  0  0
  -20.5695  -26.2286   23.3613 H   0  0  0  0  0  0
  -21.6642  -26.7452   22.1204 H   0  0  0  0  0  0
  -19.6910  -25.6302   21.1246 H   0  0  0  0  0  0
  -19.6687  -27.3206   20.6759 H   0  0  0  0  0  0
  -17.4199  -26.6679   21.4032 H   0  0  0  0  0  0
  -18.0321  -26.0074   22.9032 H   0  0  0  0  0  0
  -19.7934  -30.7282   24.2254 H   0  0  0  0  0  0
  -17.5014  -31.6270   24.5172 H   0  0  0  0  0  0
  -15.5352  -30.2992   23.7659 H   0  0  0  0  0  0
  -15.8672  -28.0843   22.7043 H   0  0  0  0  0  0
  -24.5878  -30.7101   25.7797 H   0  0  0  0  0  0
  -24.8917  -32.2921   26.4871 H   0  0  0  0  0  0
  -25.8036  -30.8934   27.0236 H   0  0  0  0  0  0
  -26.2885  -29.6779   24.1179 H   0  0  0  0  0  0
  -27.3977  -29.7252   25.4688 H   0  0  0  0  0  0
  -27.8772  -30.4288   23.9418 H   0  0  0  0  0  0
  -27.2616  -33.3625   26.2080 H   0  0  0  0  0  0
  -28.3837  -32.6913   25.0329 H   0  0  0  0  0  0
  -28.0698  -31.8460   26.5418 H   0  0  0  0  0  0
  -28.2593  -38.0106   24.7511 H   0  0  0  0  0  0
  -28.1076  -36.2636   24.6276 H   0  0  0  0  0  0
  -27.2301  -37.1445   25.8866 H   0  0  0  0  0  0
  -20.9349  -29.8748   21.6901 H   0  0  0  0  0  0
  -26.0165  -38.2854   24.1418 H   0  0  0  0  0  0
  -31.1335  -19.9618   22.1641 H   0  0  0  0  0  0
  -31.1717  -17.5216   22.3689 H   0  0  0  0  0  0
  -28.5963  -17.1964   18.9541 H   0  0  0  0  0  0
  -32.5952  -23.6801   19.6654 H   0  0  0  0  0  0
  -31.3905  -23.2284   18.4831 H   0  0  0  0  0  0
  -30.7817  -25.3586   19.6028 H   0  0  0  0  0  0
  -30.8286  -24.5902   21.1709 H   0  0  0  0  0  0
  -31.6881  -22.1199   21.3134 H   0  0  0  0  0  0
  -31.9995  -21.2677   19.8217 H   0  0  0  0  0  0
  -28.9547  -23.9793   18.8693 H   0  0  0  0  0  0
  -28.2870  -25.0682   21.6377 H   0  0  0  0  0  0
  -27.1495  -24.7393   20.3873 H   0  0  0  0  0  0
  -28.8633  -15.3680   21.0855 H   0  0  0  0  0  0
  1 25  1  0  0  0
  1 30  2  0  0  0
  1 85  1  0  0  0
  2  3  1  0  0  0
  2 25  1  0  0  0
  2 90  1  0  0  0
  2 91  1  0  0  0
  3  4  1  0  0  0
  3 92  1  0  0  0
  3 93  1  0  0  0
  4  5  1  0  0  0
  4 94  1  0  0  0
  4 95  1  0  0  0
  5  6  1  0  0  0
  5 26  1  0  0  0
  5 96  1  0  0  0
  6 25  1  0  0  0
  6 97  1  0  0  0
  6 98  1  0  0  0
  7  8  2  0  0  0
  7 26  1  0  0  0
  7 29  1  0  0  0
  8  9  1  0  0  0
  8 22  1  0  0  0
  9 10  1  0  0  0
  9 27  2  0  0  0
 10 11  2  0  0  0
 10 15  1  0  0  0
 11 12  1  0  0  0
 11 99  1  0  0  0
 12 13  2  0  0  0
 12100  1  0  0  0
 13 14  1  0  0  0
 13 31  1  0  0  0
 14 15  2  0  0  0
 14101  1  0  0  0
 15102  1  0  0  0
 16 17  2  0  0  0
 16 21  1  0  0  0
 16 31  1  0  0  0
 17 18  1  0  0  0
 17103  1  0  0  0
 18 19  2  0  0  0
 18104  1  0  0  0
 19 20  1  0  0  0
 19 24  1  0  0  0
 20 21  2  0  0  0
 20105  1  0  0  0
 21 23  1  0  0  0
 22 28  1  0  0  0
 22 32  2  0  0  0
 26 27  1  0  0  0
 28106  1  0  0  0
 28107  1  0  0  0
 29108  1  0  0  0
 29109  1  0  0  0
 33 34  1  0  0  0
 33 66  1  0  0  0
 33 70  2  0  0  0
 34 36  1  0  0  0
 34 59  1  0  0  0
 34110  1  0  0  0
 35 44  2  0  0  0
 35 45  1  0  0  0
 35 68  1  0  0  0
 36 56  1  0  0  0
 36111  1  0  0  0
 37 39  1  0  0  0
 37 47  1  0  0  0
 37 66  1  0  0  0
 37112  1  0  0  0
 38 43  2  0  0  0
 38 46  1  0  0  0
 38 47  1  0  0  0
 39 64  1  0  0  0
 39 67  2  0  0  0
 40 52  1  0  0  0
 40 53  2  0  0  0
 40 58  1  0  0  0
 41113  1  0  0  0
 41114  1  0  0  0
 41115  1  0  0  0
 41 48  1  0  0  0
 42 43  1  0  0  0
 42 66  1  0  0  0
 42116  1  0  0  0
 42117  1  0  0  0
 43 44  1  0  0  0
 44118  1  0  0  0
 45 46  2  0  0  0
 45119  1  0  0  0
 46120  1  0  0  0
 47121  1  0  0  0
 47122  1  0  0  0
 48 56  1  0  0  0
 48 65  1  0  0  0
 48123  1  0  0  0
 49 50  1  0  0  0
 49 53  1  0  0  0
 49 64  1  0  0  0
 49124  1  0  0  0
 50 51  1  0  0  0
 50125  1  0  0  0
 50126  1  0  0  0
 51 52  1  0  0  0
 51127  1  0  0  0
 51128  1  0  0  0
 52129  1  0  0  0
 52130  1  0  0  0
 53 54  1  0  0  0
 54 55  2  0  0  0
 54131  1  0  0  0
 55 57  1  0  0  0
 55132  1  0  0  0
 56 69  2  0  0  0
 57 58  2  0  0  0
 57133  1  0  0  0
 58134  1  0  0  0
 59 60  1  0  0  0
 59 61  1  0  0  0
 59 62  1  0  0  0
 60135  1  0  0  0
 60136  1  0  0  0
 60137  1  0  0  0
 61138  1  0  0  0
 61139  1  0  0  0
 61140  1  0  0  0
 62141  1  0  0  0
 62142  1  0  0  0
 62143  1  0  0  0
 63 65  1  0  0  0
 63144  1  0  0  0
 63145  1  0  0  0
 63146  1  0  0  0
 64147  1  0  0  0
 65148  1  0  0  0
 68 82  1  0  0  0
 71 72  2  0  0  0
 71 75  1  0  0  0
 71149  1  0  0  0
 72 76  1  0  0  0
 72150  1  0  0  0
 73 74  1  0  0  0
 73 76  2  0  0  0
 73151  1  0  0  0
 74 75  2  0  0  0
 74 83  1  0  0  0
 75 84  1  0  0  0
 76 85  1  0  0  0
 77 81  1  0  0  0
 77 84  1  0  0  0
 77 86  2  0  0  0
 78 79  1  0  0  0
 78 80  1  0  0  0
 78152  1  0  0  0
 78153  1  0  0  0
 79 81  1  0  0  0
 79154  1  0  0  0
 79155  1  0  0  0
 80 84  1  0  0  0
 80156  1  0  0  0
 80157  1  0  0  0
 81 82  1  0  0  0
 81158  1  0  0  0
 82159  1  0  0  0
 82160  1  0  0  0
 83 87  1  0  0  0
 83 88  1  0  0  0
 83 89  1  0  0  0
 85161  1  0  0  0
M  ISO  4   1 100  68 101  82 101  85 100
M  END
> <chiral flag>
0

> <version>
0

> <s_m_source_file>
/data/baiqing/PycharmProjects/Reinvent-master-3.2/result/LINK_invent/BTK/process_docking_weight1_custom_product_contain_oxygen_bond_distance_aromatic_linkinvent_7_9_3/rearranged_h_0024.sdf

> <i_m_source_file_index>
55

> <r_mmod_Potential_Energy-OPLS-2005>
206.293273925781

> <r_mmod_Stretch_Energy-OPLS-2005>
87.4931564331055

> <r_mmod_Bend_Energy-OPLS-2005>
134.363555908203

> <r_mmod_Torsional_Energy-OPLS-2005>
322.220184326172

> <r_mmod_Improper_Torsional_Energy-OPLS-2005>
6.33321857452393

> <r_mmod_Van_der_Waal_Energy-OPLS-2005>
150.66096496582

> <r_mmod_Electrostatic_Energy-OPLS-2005>
-326.663055419922

> <r_mmod_Solvation_Energy-OPLS-2005>
-215.099105834961

> <b_mmod_Minimization_Converged-OPLS-2005>
0

> <r_mmod_RMS_Derivative-OPLS-2005>
0.911017656326294

$$$$
55
                    3D
 Structure written by MMmdl.
152160  0  0  1  0            999 V2000
  -30.5210  -15.0198   20.4139 C   0  0  0  0  0  0
  -30.4442  -12.6374   19.5335 C   0  0  0  0  0  0
  -29.5311  -12.5521   18.2886 C   0  0  0  0  0  0
  -28.0794  -12.2900   18.7166 C   0  0  0  0  0  0
  -27.6318  -13.2492   19.8491 C   0  0  2  0  0  0
  -28.6612  -13.3290   20.9983 C   0  0  0  0  0  0
  -25.2459  -13.8120   20.5733 C   0  0  0  0  0  0
  -24.1792  -13.0363   20.9275 C   0  0  0  0  0  0
  -24.6405  -11.6852   20.8863 C   0  0  0  0  0  0
  -23.9069  -10.4228   21.0489 C   0  0  0  0  0  0
  -24.3595   -9.4113   21.9233 C   0  0  0  0  0  0
  -23.6261   -8.2163   22.0750 C   0  0  0  0  0  0
  -22.4230   -8.0244   21.3543 C   0  0  0  0  0  0
  -21.9906   -9.0216   20.4633 C   0  0  0  0  0  0
  -22.7274  -10.2094   20.3109 C   0  0  0  0  0  0
  -21.6808   -6.0717   22.5286 C   0  0  0  0  0  0
  -21.3994   -6.5634   23.8214 C   0  0  0  0  0  0
  -21.3649   -5.6797   24.9190 C   0  0  0  0  0  0
  -21.6033   -4.3055   24.7260 C   0  0  0  0  0  0
  -21.8829   -3.8145   23.4379 C   0  0  0  0  0  0
  -21.9170   -4.6944   22.3430 C   0  0  0  0  0  0
  -22.7822  -13.5171   21.1858 C   0  0  0  0  0  0
  -22.1653   -4.2132   21.1007 F   0  0  0  0  0  0
  -21.5597   -3.4539   25.7772 F   0  0  0  0  0  0
  -29.9431  -13.7451   20.4110 N   0  0  0  0  0  0
  -26.2896  -12.9383   20.3295 N   0  0  0  0  0  0
  -25.9338  -11.6492   20.5784 N   0  0  0  0  0  0
  -22.0450  -12.8194   22.0413 N   0  0  0  0  0  0
  -25.4103  -15.1807   20.4028 N   0  0  0  0  0  0
  -31.7059  -15.0802   20.0626 O   0  0  0  0  0  0
  -21.6587   -6.8858   21.4245 O   0  0  0  0  0  0
  -22.3556  -14.5453   20.6620 O   0  0  0  0  0  0
  -24.6482  -31.8420   23.1863 C   0  0  0  0  0  0
  -25.9234  -32.4706   23.8263 C   0  0  1  0  0  0
  -27.2295  -27.1091   20.1525 C   0  0  0  0  0  0
  -25.5970  -33.8497   24.2194 N   0  0  0  0  0  0
  -23.4555  -30.4576   21.5335 C   0  0  2  0  0  0
  -24.9066  -28.8779   20.1175 C   0  0  0  0  0  0
  -22.7578  -29.4549   22.4860 C   0  0  0  0  0  0
  -18.0277  -28.1406   22.8460 C   0  0  0  0  0  0
  -24.1487  -36.7254   23.2640 C   0  0  0  0  0  0
  -26.0143  -30.7094   21.3868 C   0  0  0  0  0  0
  -26.0876  -29.3145   20.7314 C   0  0  0  0  0  0
  -27.2510  -28.4489   20.7263 C   0  0  0  0  0  0
  -26.0182  -26.7823   19.5037 C   0  0  0  0  0  0
  -24.8853  -27.6232   19.4905 C   0  0  0  0  0  0
  -23.6852  -29.7819   20.1558 C   0  0  0  0  0  0
  -25.4121  -36.3034   24.0311 C   0  0  1  0  0  0
  -20.5900  -28.3737   23.1213 C   0  0  2  0  0  0
  -20.6752  -26.9441   22.5363 C   0  0  0  0  0  0
  -19.5740  -26.6430   21.5172 C   0  0  0  0  0  0
  -18.1923  -26.7968   22.1558 C   0  0  0  0  0  0
  -19.1551  -28.8870   23.2847 C   0  0  0  0  0  0
  -18.9458  -30.1466   23.8893 C   0  0  0  0  0  0
  -17.6452  -30.6564   24.0600 C   0  0  0  0  0  0
  -25.9073  -34.9415   23.5067 C   0  0  0  0  0  0
  -16.5348  -29.9071   23.6365 C   0  0  0  0  0  0
  -16.7276  -28.6517   23.0326 C   0  0  0  0  0  0
  -26.4544  -31.6580   25.0714 C   0  0  0  0  0  0
  -25.3728  -31.3746   26.1400 C   0  0  0  0  0  0
  -27.0414  -30.2982   24.6292 C   0  0  0  0  0  0
  -27.6081  -32.4339   25.7505 C   0  0  0  0  0  0
  -27.5569  -37.1784   24.8464 C   0  0  0  0  0  0
  -21.4257  -29.3090   22.3613 N   0  0  0  0  0  0
  -26.4284  -37.3756   23.9411 N   0  0  0  0  0  0
  -24.7269  -31.0229   22.0925 N   0  0  0  0  0  0
  -23.4171  -28.8073   23.3022 O   0  0  0  0  0  0
  -28.2854  -26.1124   20.2006 O   0  0  0  0  0  0
  -26.5647  -34.8918   22.4630 O   0  0  0  0  0  0
  -23.5587  -32.1291   23.7065 O   0  0  0  0  0  0
  -29.2025  -17.0910   18.6206 C   0  0  0  0  0  0
  -27.5280  -18.8240   20.0502 C   0  0  0  0  0  0
  -29.6317  -17.5489   19.8857 C   0  0  0  0  0  0
  -28.9227  -18.8398   20.2722 C   0  0  0  0  0  0
  -27.8496  -17.2346   18.2473 C   0  0  0  0  0  0
  -26.9874  -18.0285   19.0286 C   0  0  0  0  0  0
  -29.0419  -23.2095   20.2369 C   0  0  0  0  0  0
  -28.5335  -21.5779   20.2589 C   0  0  0  0  0  0
  -27.9966  -24.5612   20.1641 C   0  0  0  0  0  0
  -29.7746  -16.2241   20.6697 N   0  0  0  0  0  0
  -29.4097  -20.2560   20.3761 N   0  0  0  0  0  0
  -27.2384  -16.3299   16.9074 Cl  0  0  0  0  0  0
  -25.3025  -18.1495   18.6516 Cl  0  0  0  0  0  0
  -31.4756  -12.7975   19.2120 H   0  0  0  0  0  0
  -30.4556  -11.6996   20.0890 H   0  0  0  0  0  0
  -29.8745  -11.7692   17.6137 H   0  0  0  0  0  0
  -29.5857  -13.4884   17.7381 H   0  0  0  0  0  0
  -28.0254  -11.2629   19.0737 H   0  0  0  0  0  0
  -27.4073  -12.3513   17.8620 H   0  0  0  0  0  0
  -27.5818  -14.2392   19.3975 H   0  0  0  0  0  0
  -28.7605  -12.3760   21.5172 H   0  0  0  0  0  0
  -28.3358  -14.0516   21.7499 H   0  0  0  0  0  0
  -25.2702   -9.5530   22.4858 H   0  0  0  0  0  0
  -23.9912   -7.4507   22.7439 H   0  0  0  0  0  0
  -21.0837   -8.8782   19.8916 H   0  0  0  0  0  0
  -22.3742  -10.9659   19.6253 H   0  0  0  0  0  0
  -21.2014   -7.6140   23.9742 H   0  0  0  0  0  0
  -21.1446   -6.0508   25.9086 H   0  0  0  0  0  0
  -22.0621   -2.7600   23.2903 H   0  0  0  0  0  0
  -22.4094  -11.9854   22.4789 H   0  0  0  0  0  0
  -21.1081  -13.1254   22.2648 H   0  0  0  0  0  0
  -24.5785  -15.7611   20.3725 H   0  0  0  0  0  0
  -26.1434  -15.5159   19.7940 H   0  0  0  0  0  0
  -26.7288  -32.5299   23.0990 H   0  0  0  0  0  0
  -25.0136  -33.9636   25.0349 H   0  0  0  0  0  0
  -22.7593  -31.2832   21.3730 H   0  0  0  0  0  0
  -23.3773  -35.9569   23.3302 H   0  0  0  0  0  0
  -24.3565  -36.8882   22.2054 H   0  0  0  0  0  0
  -23.7226  -37.6440   23.6677 H   0  0  0  0  0  0
  -26.1643  -31.4614   20.6101 H   0  0  0  0  0  0
  -26.8875  -30.7696   22.0271 H   0  0  0  0  0  0
  -28.1510  -28.7860   21.2223 H   0  0  0  0  0  0
  -25.9104  -25.8287   19.0122 H   0  0  0  0  0  0
  -23.9831  -27.2829   19.0014 H   0  0  0  0  0  0
  -23.8265  -30.5575   19.4022 H   0  0  0  0  0  0
  -22.8002  -29.2228   19.8424 H   0  0  0  0  0  0
  -25.1319  -36.1874   25.0804 H   0  0  0  0  0  0
  -20.9990  -28.3283   24.1349 H   0  0  0  0  0  0
  -20.5659  -26.2340   23.3556 H   0  0  0  0  0  0
  -21.6619  -26.7476   22.1164 H   0  0  0  0  0  0
  -19.6922  -25.6368   21.1154 H   0  0  0  0  0  0
  -19.6703  -27.3273   20.6735 H   0  0  0  0  0  0
  -17.4217  -26.6756   21.3917 H   0  0  0  0  0  0
  -18.0306  -26.0070   22.8917 H   0  0  0  0  0  0
  -19.7910  -30.7312   24.2250 H   0  0  0  0  0  0
  -17.4985  -31.6228   24.5237 H   0  0  0  0  0  0
  -15.5344  -30.2967   23.7710 H   0  0  0  0  0  0
  -15.8681  -28.0859   22.6984 H   0  0  0  0  0  0
  -24.5956  -30.7048   25.7689 H   0  0  0  0  0  0
  -24.8869  -32.2914   26.4734 H   0  0  0  0  0  0
  -25.8021  -30.8972   27.0218 H   0  0  0  0  0  0
  -26.3030  -29.6700   24.1311 H   0  0  0  0  0  0
  -27.4032  -29.7281   25.4848 H   0  0  0  0  0  0
  -27.8926  -30.4203   23.9608 H   0  0  0  0  0  0
  -27.2704  -33.3687   26.1982 H   0  0  0  0  0  0
  -28.3967  -32.6810   25.0389 H   0  0  0  0  0  0
  -28.0675  -31.8522   26.5503 H   0  0  0  0  0  0
  -28.2592  -38.0079   24.7521 H   0  0  0  0  0  0
  -28.1071  -36.2609   24.6307 H   0  0  0  0  0  0
  -27.2279  -37.1441   25.8865 H   0  0  0  0  0  0
  -20.9477  -29.8798   21.6787 H   0  0  0  0  0  0
  -26.0158  -38.2824   24.1430 H   0  0  0  0  0  0
  -29.7392  -16.2943   18.1293 H   0  0  0  0  0  0
  -26.8874  -19.5967   20.4403 H   0  0  0  0  0  0
  -29.7218  -23.3141   19.3894 H   0  0  0  0  0  0
  -29.6771  -23.3623   21.1097 H   0  0  0  0  0  0
  -27.9318  -21.4503   19.3581 H   0  0  0  0  0  0
  -27.8131  -21.5246   21.0744 H   0  0  0  0  0  0
  -27.2822  -24.4131   20.9716 H   0  0  0  0  0  0
  -27.4184  -24.3853   19.2606 H   0  0  0  0  0  0
  -28.9962  -16.0620   21.2942 H   0  0  0  0  0  0
  -30.4172  -20.3796   20.2895 H   0  0  0  0  0  0
  1 25  1  0  0  0
  1 30  2  0  0  0
  1 80  1  0  0  0
  2  3  1  0  0  0
  2 25  1  0  0  0
  2 84  1  0  0  0
  2 85  1  0  0  0
  3  4  1  0  0  0
  3 86  1  0  0  0
  3 87  1  0  0  0
  4  5  1  0  0  0
  4 88  1  0  0  0
  4 89  1  0  0  0
  5  6  1  0  0  0
  5 26  1  0  0  0
  5 90  1  0  0  0
  6 25  1  0  0  0
  6 91  1  0  0  0
  6 92  1  0  0  0
  7  8  2  0  0  0
  7 26  1  0  0  0
  7 29  1  0  0  0
  8  9  1  0  0  0
  8 22  1  0  0  0
  9 10  1  0  0  0
  9 27  2  0  0  0
 10 11  2  0  0  0
 10 15  1  0  0  0
 11 12  1  0  0  0
 11 93  1  0  0  0
 12 13  2  0  0  0
 12 94  1  0  0  0
 13 14  1  0  0  0
 13 31  1  0  0  0
 14 15  2  0  0  0
 14 95  1  0  0  0
 15 96  1  0  0  0
 16 17  2  0  0  0
 16 21  1  0  0  0
 16 31  1  0  0  0
 17 18  1  0  0  0
 17 97  1  0  0  0
 18 19  2  0  0  0
 18 98  1  0  0  0
 19 20  1  0  0  0
 19 24  1  0  0  0
 20 21  2  0  0  0
 20 99  1  0  0  0
 21 23  1  0  0  0
 22 28  1  0  0  0
 22 32  2  0  0  0
 26 27  1  0  0  0
 28100  1  0  0  0
 28101  1  0  0  0
 29102  1  0  0  0
 29103  1  0  0  0
 33 34  1  0  0  0
 33 66  1  0  0  0
 33 70  2  0  0  0
 34 36  1  0  0  0
 34 59  1  0  0  0
 34104  1  0  0  0
 35 44  2  0  0  0
 35 45  1  0  0  0
 35 68  1  0  0  0
 36 56  1  0  0  0
 36105  1  0  0  0
 37 39  1  0  0  0
 37 47  1  0  0  0
 37 66  1  0  0  0
 37106  1  0  0  0
 38 43  2  0  0  0
 38 46  1  0  0  0
 38 47  1  0  0  0
 39 64  1  0  0  0
 39 67  2  0  0  0
 40 52  1  0  0  0
 40 53  2  0  0  0
 40 58  1  0  0  0
 41107  1  0  0  0
 41108  1  0  0  0
 41109  1  0  0  0
 41 48  1  0  0  0
 42 43  1  0  0  0
 42 66  1  0  0  0
 42110  1  0  0  0
 42111  1  0  0  0
 43 44  1  0  0  0
 44112  1  0  0  0
 45 46  2  0  0  0
 45113  1  0  0  0
 46114  1  0  0  0
 47115  1  0  0  0
 47116  1  0  0  0
 48 56  1  0  0  0
 48 65  1  0  0  0
 48117  1  0  0  0
 49 50  1  0  0  0
 49 53  1  0  0  0
 49 64  1  0  0  0
 49118  1  0  0  0
 50 51  1  0  0  0
 50119  1  0  0  0
 50120  1  0  0  0
 51 52  1  0  0  0
 51121  1  0  0  0
 51122  1  0  0  0
 52123  1  0  0  0
 52124  1  0  0  0
 53 54  1  0  0  0
 54 55  2  0  0  0
 54125  1  0  0  0
 55 57  1  0  0  0
 55126  1  0  0  0
 56 69  2  0  0  0
 57 58  2  0  0  0
 57127  1  0  0  0
 58128  1  0  0  0
 59 60  1  0  0  0
 59 61  1  0  0  0
 59 62  1  0  0  0
 60129  1  0  0  0
 60130  1  0  0  0
 60131  1  0  0  0
 61132  1  0  0  0
 61133  1  0  0  0
 61134  1  0  0  0
 62135  1  0  0  0
 62136  1  0  0  0
 62137  1  0  0  0
 63 65  1  0  0  0
 63138  1  0  0  0
 63139  1  0  0  0
 63140  1  0  0  0
 64141  1  0  0  0
 65142  1  0  0  0
 68 79  1  0  0  0
 71 73  2  0  0  0
 71 75  1  0  0  0
 71143  1  0  0  0
 72 74  2  0  0  0
 72 76  1  0  0  0
 72144  1  0  0  0
 73 74  1  0  0  0
 73 80  1  0  0  0
 74 81  1  0  0  0
 75 76  2  0  0  0
 75 82  1  0  0  0
 76 83  1  0  0  0
 77 78  1  0  0  0
 77 79  1  0  0  0
 77145  1  0  0  0
 77146  1  0  0  0
 78 81  1  0  0  0
 78147  1  0  0  0
 78148  1  0  0  0
 79149  1  0  0  0
 79150  1  0  0  0
 80151  1  0  0  0
 81152  1  0  0  0
M  ISO  4   1 100  68 101  79 101  80 100
M  END
> <chiral flag>
0

> <version>
0

> <s_m_source_file>
/data/baiqing/PycharmProjects/Reinvent-master-3.2/result/LINK_invent/BTK/process_docking_weight1_custom_product_contain_oxygen_bond_distance_aromatic_linkinvent_7_9_3/rearranged_h_0024.sdf

> <i_m_source_file_index>
56

> <r_mmod_Potential_Energy-OPLS-2005>
846.83251953125

> <r_mmod_Stretch_Energy-OPLS-2005>
320.389282226562

> <r_mmod_Bend_Energy-OPLS-2005>
311.943389892578

> <r_mmod_Torsional_Energy-OPLS-2005>
433.029724121094

> <r_mmod_Improper_Torsional_Energy-OPLS-2005>
35.5264663696289

> <r_mmod_Van_der_Waal_Energy-OPLS-2005>
130.317352294922

> <r_mmod_Electrostatic_Energy-OPLS-2005>
-394.635864257812

> <r_mmod_Solvation_Energy-OPLS-2005>
-222.587127685547

> <b_mmod_Minimization_Converged-OPLS-2005>
0

> <r_mmod_RMS_Derivative-OPLS-2005>
6.38426303863525

$$$$
56
                    3D
 Structure written by MMmdl.
158166  0  0  1  0            999 V2000
  -30.7084  -14.5070   20.5395 C   0  0  0  0  0  0
  -30.4197  -12.3084   19.4683 C   0  0  0  0  0  0
  -29.5144  -12.4846   18.2324 C   0  0  0  0  0  0
  -28.0318  -12.3354   18.6296 C   0  0  0  0  0  0
  -27.6580  -13.2105   19.8564 C   0  0  2  0  0  0
  -28.6918  -13.0629   20.9952 C   0  0  0  0  0  0
  -25.2595  -13.8142   20.5656 C   0  0  0  0  0  0
  -24.1843  -13.0424   20.9187 C   0  0  0  0  0  0
  -24.6406  -11.6899   20.8762 C   0  0  0  0  0  0
  -23.9075  -10.4285   21.0429 C   0  0  0  0  0  0
  -24.3627   -9.4197   21.9218 C   0  0  0  0  0  0
  -23.6296   -8.2235   22.0767 C   0  0  0  0  0  0
  -22.4298   -8.0263   21.3519 C   0  0  0  0  0  0
  -21.9935   -9.0243   20.4623 C   0  0  0  0  0  0
  -22.7273  -10.2121   20.3041 C   0  0  0  0  0  0
  -21.6863   -6.0729   22.5288 C   0  0  0  0  0  0
  -21.4025   -6.5649   23.8219 C   0  0  0  0  0  0
  -21.3659   -5.6798   24.9184 C   0  0  0  0  0  0
  -21.6043   -4.3060   24.7235 C   0  0  0  0  0  0
  -21.8825   -3.8145   23.4361 C   0  0  0  0  0  0
  -21.9216   -4.6960   22.3414 C   0  0  0  0  0  0
  -22.7878  -13.5245   21.1838 C   0  0  0  0  0  0
  -22.1709   -4.2144   21.1006 F   0  0  0  0  0  0
  -21.5605   -3.4551   25.7751 F   0  0  0  0  0  0
  -30.0310  -13.3300   20.4533 N   0  0  0  0  0  0
  -26.3015  -12.9320   20.3244 N   0  0  0  0  0  0
  -25.9316  -11.6498   20.5708 N   0  0  0  0  0  0
  -22.0456  -12.8265   22.0358 N   0  0  0  0  0  0
  -25.4299  -15.1861   20.4085 N   0  0  0  0  0  0
  -31.8588  -14.6243   20.1089 O   0  0  0  0  0  0
  -21.6651   -6.8863   21.4239 O   0  0  0  0  0  0
  -22.3612  -14.5556   20.6657 O   0  0  0  0  0  0
  -24.6090  -31.8719   23.2126 C   0  0  0  0  0  0
  -25.8972  -32.4867   23.8440 C   0  0  1  0  0  0
  -27.2361  -27.4496   20.1319 C   0  0  0  0  0  0
  -25.5813  -33.8681   24.2352 N   0  0  0  0  0  0
  -23.4011  -30.4931   21.5507 C   0  0  2  0  0  0
  -24.8558  -28.9687   20.1132 C   0  0  0  0  0  0
  -22.7404  -29.4662   22.4978 C   0  0  0  0  0  0
  -18.0282  -28.1352   22.8523 C   0  0  0  0  0  0
  -24.1498  -36.7355   23.2646 C   0  0  0  0  0  0
  -25.9268  -30.8479   21.3693 C   0  0  0  0  0  0
  -26.0101  -29.4844   20.7163 C   0  0  0  0  0  0
  -27.2058  -28.7342   20.7192 C   0  0  0  0  0  0
  -26.0717  -26.9530   19.5099 C   0  0  0  0  0  0
  -24.8839  -27.7054   19.5000 C   0  0  0  0  0  0
  -23.6140  -29.8265   20.1641 C   0  0  0  0  0  0
  -25.4135  -36.3168   24.0335 C   0  0  1  0  0  0
  -20.5876  -28.3626   23.1360 C   0  0  2  0  0  0
  -20.6771  -26.9366   22.5435 C   0  0  0  0  0  0
  -19.5741  -26.6369   21.5239 C   0  0  0  0  0  0
  -18.1924  -26.7919   22.1648 C   0  0  0  0  0  0
  -19.1521  -28.8818   23.2942 C   0  0  0  0  0  0
  -18.9440  -30.1441   23.8921 C   0  0  0  0  0  0
  -17.6426  -30.6554   24.0587 C   0  0  0  0  0  0
  -25.9029  -34.9504   23.5153 C   0  0  0  0  0  0
  -16.5328  -29.9047   23.6335 C   0  0  0  0  0  0
  -16.7277  -28.6481   23.0349 C   0  0  0  0  0  0
  -26.4436  -31.6673   25.0768 C   0  0  0  0  0  0
  -25.3719  -31.3723   26.1515 C   0  0  0  0  0  0
  -27.0311  -30.3124   24.6199 C   0  0  0  0  0  0
  -27.6025  -32.4449   25.7473 C   0  0  0  0  0  0
  -27.5605  -37.1850   24.8455 C   0  0  0  0  0  0
  -21.4129  -29.2990   22.3746 N   0  0  0  0  0  0
  -26.4342  -37.3821   23.9359 N   0  0  0  0  0  0
  -24.6627  -31.0862   22.1017 N   0  0  0  0  0  0
  -23.4203  -28.8216   23.3010 O   0  0  0  0  0  0
  -28.3955  -26.7108   20.1435 O   0  0  0  0  0  0
  -26.5612  -34.8931   22.4730 O   0  0  0  0  0  0
  -23.5267  -32.1432   23.7511 O   0  0  0  0  0  0
  -28.1254  -19.1001   23.1445 C   0  0  0  0  0  0
  -27.6996  -20.2966   22.5351 C   0  0  0  0  0  0
  -28.8907  -18.1654   22.4169 C   0  0  0  0  0  0
  -28.0472  -20.5829   21.1976 C   0  0  0  0  0  0
  -29.2324  -18.4235   21.0730 C   0  0  0  0  0  0
  -28.8208  -19.6440   20.4603 C   0  0  0  0  0  0
  -28.4784  -24.1759   18.8755 C   0  0  0  0  0  0
  -28.2707  -22.9891   21.1292 C   0  0  0  0  0  0
  -28.3957  -25.5598   21.0089 C   0  0  0  0  0  0
  -27.9175  -24.2573   20.3076 C   0  0  1  0  0  0
  -27.6098  -21.7891   20.6160 N   0  0  0  0  0  0
  -30.0045  -15.6491   20.9549 N   0  0  0  0  0  0
  -31.6287  -17.5872   20.3317 O   0  0  0  0  0  0
  -29.6715  -17.0284   18.8067 O   0  0  0  0  0  0
  -30.2196  -17.1925   20.1678 S   0  0  0  0  0  0
  -29.2526  -20.0334   18.8265 Cl  0  0  0  0  0  0
  -31.4693  -12.3817   19.1845 H   0  0  0  0  0  0
  -30.2978  -11.3135   19.8990 H   0  0  0  0  0  0
  -29.7771  -11.7488   17.4711 H   0  0  0  0  0  0
  -29.6792  -13.4685   17.7887 H   0  0  0  0  0  0
  -27.8593  -11.2819   18.8576 H   0  0  0  0  0  0
  -27.3818  -12.5723   17.7854 H   0  0  0  0  0  0
  -27.6849  -14.2448   19.5123 H   0  0  0  0  0  0
  -28.6651  -12.0515   21.4058 H   0  0  0  0  0  0
  -28.4473  -13.7268   21.8246 H   0  0  0  0  0  0
  -25.2738   -9.5692   22.4862 H   0  0  0  0  0  0
  -23.9953   -7.4652   22.7545 H   0  0  0  0  0  0
  -21.0851   -8.8749   19.8966 H   0  0  0  0  0  0
  -22.3767  -10.9690   19.6162 H   0  0  0  0  0  0
  -21.2006   -7.6157   23.9725 H   0  0  0  0  0  0
  -21.1487   -6.0527   25.9091 H   0  0  0  0  0  0
  -22.0591   -2.7608   23.2867 H   0  0  0  0  0  0
  -22.3995  -11.9833   22.4630 H   0  0  0  0  0  0
  -21.1079  -13.1292   22.2599 H   0  0  0  0  0  0
  -24.6412  -15.8163   20.4873 H   0  0  0  0  0  0
  -26.2486  -15.6274   20.0133 H   0  0  0  0  0  0
  -26.7062  -32.5605   23.1236 H   0  0  0  0  0  0
  -24.9926  -33.9886   25.0465 H   0  0  0  0  0  0
  -22.6886  -31.3073   21.4100 H   0  0  0  0  0  0
  -23.3766  -35.9676   23.3319 H   0  0  0  0  0  0
  -24.3592  -36.8969   22.2055 H   0  0  0  0  0  0
  -23.7240  -37.6560   23.6660 H   0  0  0  0  0  0
  -26.0444  -31.6270   20.6129 H   0  0  0  0  0  0
  -26.8078  -30.8904   21.9985 H   0  0  0  0  0  0
  -28.0968  -29.1342   21.1833 H   0  0  0  0  0  0
  -26.0775  -25.9933   19.0167 H   0  0  0  0  0  0
  -24.0037  -27.3111   19.0146 H   0  0  0  0  0  0
  -23.7173  -30.5982   19.4000 H   0  0  0  0  0  0
  -22.7450  -29.2330   19.8725 H   0  0  0  0  0  0
  -25.1323  -36.2097   25.0834 H   0  0  0  0  0  0
  -20.9979  -28.3127   24.1477 H   0  0  0  0  0  0
  -20.5701  -26.2188   23.3581 H   0  0  0  0  0  0
  -21.6636  -26.7427   22.1204 H   0  0  0  0  0  0
  -19.6872  -25.6285   21.1243 H   0  0  0  0  0  0
  -19.6680  -27.3207   20.6795 H   0  0  0  0  0  0
  -17.4199  -26.6712   21.4036 H   0  0  0  0  0  0
  -18.0295  -26.0049   22.9029 H   0  0  0  0  0  0
  -19.7900  -30.7297   24.2260 H   0  0  0  0  0  0
  -17.4954  -31.6241   24.5153 H   0  0  0  0  0  0
  -15.5312  -30.2919   23.7648 H   0  0  0  0  0  0
  -15.8710  -28.0805   22.7004 H   0  0  0  0  0  0
  -24.5848  -30.7151   25.7792 H   0  0  0  0  0  0
  -24.8949  -32.2845   26.5104 H   0  0  0  0  0  0
  -25.8054  -30.8741   27.0186 H   0  0  0  0  0  0
  -26.2803  -29.6789   24.1459 H   0  0  0  0  0  0
  -27.4270  -29.7499   25.4661 H   0  0  0  0  0  0
  -27.8560  -30.4432   23.9202 H   0  0  0  0  0  0
  -27.2631  -33.3693   26.2166 H   0  0  0  0  0  0
  -28.3704  -32.7172   25.0218 H   0  0  0  0  0  0
  -28.0867  -31.8565   26.5270 H   0  0  0  0  0  0
  -28.2662  -38.0116   24.7493 H   0  0  0  0  0  0
  -28.1065  -36.2648   24.6316 H   0  0  0  0  0  0
  -27.2297  -37.1549   25.8854 H   0  0  0  0  0  0
  -20.9238  -29.8716   21.7009 H   0  0  0  0  0  0
  -26.0258  -38.2917   24.1312 H   0  0  0  0  0  0
  -27.8654  -18.9003   24.1743 H   0  0  0  0  0  0
  -27.1053  -20.9999   23.1041 H   0  0  0  0  0  0
  -29.2224  -17.2597   22.8967 H   0  0  0  0  0  0
  -29.5660  -24.2343   18.8808 H   0  0  0  0  0  0
  -28.1074  -25.0043   18.2731 H   0  0  0  0  0  0
  -28.1923  -23.2582   18.3582 H   0  0  0  0  0  0
  -27.9720  -23.1377   22.1702 H   0  0  0  0  0  0
  -29.3509  -22.8346   21.1342 H   0  0  0  0  0  0
  -29.4162  -25.4212   21.3740 H   0  0  0  0  0  0
  -27.7971  -25.7463   21.9066 H   0  0  0  0  0  0
  -26.8295  -24.3053   20.2435 H   0  0  0  0  0  0
  -26.5997  -21.8925   20.6508 H   0  0  0  0  0  0
  -29.0182  -15.5148   21.1598 H   0  0  0  0  0  0
  1 25  1  0  0  0
  1 30  2  0  0  0
  1 82  1  0  0  0
  2  3  1  0  0  0
  2 25  1  0  0  0
  2 87  1  0  0  0
  2 88  1  0  0  0
  3  4  1  0  0  0
  3 89  1  0  0  0
  3 90  1  0  0  0
  4  5  1  0  0  0
  4 91  1  0  0  0
  4 92  1  0  0  0
  5  6  1  0  0  0
  5 26  1  0  0  0
  5 93  1  0  0  0
  6 25  1  0  0  0
  6 94  1  0  0  0
  6 95  1  0  0  0
  7  8  2  0  0  0
  7 26  1  0  0  0
  7 29  1  0  0  0
  8  9  1  0  0  0
  8 22  1  0  0  0
  9 10  1  0  0  0
  9 27  2  0  0  0
 10 11  2  0  0  0
 10 15  1  0  0  0
 11 12  1  0  0  0
 11 96  1  0  0  0
 12 13  2  0  0  0
 12 97  1  0  0  0
 13 14  1  0  0  0
 13 31  1  0  0  0
 14 15  2  0  0  0
 14 98  1  0  0  0
 15 99  1  0  0  0
 16 17  2  0  0  0
 16 21  1  0  0  0
 16 31  1  0  0  0
 17 18  1  0  0  0
 17100  1  0  0  0
 18 19  2  0  0  0
 18101  1  0  0  0
 19 20  1  0  0  0
 19 24  1  0  0  0
 20 21  2  0  0  0
 20102  1  0  0  0
 21 23  1  0  0  0
 22 28  1  0  0  0
 22 32  2  0  0  0
 26 27  1  0  0  0
 28103  1  0  0  0
 28104  1  0  0  0
 29105  1  0  0  0
 29106  1  0  0  0
 33 34  1  0  0  0
 33 66  1  0  0  0
 33 70  2  0  0  0
 34 36  1  0  0  0
 34 59  1  0  0  0
 34107  1  0  0  0
 35 44  2  0  0  0
 35 45  1  0  0  0
 35 68  1  0  0  0
 36 56  1  0  0  0
 36108  1  0  0  0
 37 39  1  0  0  0
 37 47  1  0  0  0
 37 66  1  0  0  0
 37109  1  0  0  0
 38 43  2  0  0  0
 38 46  1  0  0  0
 38 47  1  0  0  0
 39 64  1  0  0  0
 39 67  2  0  0  0
 40 52  1  0  0  0
 40 53  2  0  0  0
 40 58  1  0  0  0
 41110  1  0  0  0
 41111  1  0  0  0
 41112  1  0  0  0
 41 48  1  0  0  0
 42 43  1  0  0  0
 42 66  1  0  0  0
 42113  1  0  0  0
 42114  1  0  0  0
 43 44  1  0  0  0
 44115  1  0  0  0
 45 46  2  0  0  0
 45116  1  0  0  0
 46117  1  0  0  0
 47118  1  0  0  0
 47119  1  0  0  0
 48 56  1  0  0  0
 48 65  1  0  0  0
 48120  1  0  0  0
 49 50  1  0  0  0
 49 53  1  0  0  0
 49 64  1  0  0  0
 49121  1  0  0  0
 50 51  1  0  0  0
 50122  1  0  0  0
 50123  1  0  0  0
 51 52  1  0  0  0
 51124  1  0  0  0
 51125  1  0  0  0
 52126  1  0  0  0
 52127  1  0  0  0
 53 54  1  0  0  0
 54 55  2  0  0  0
 54128  1  0  0  0
 55 57  1  0  0  0
 55129  1  0  0  0
 56 69  2  0  0  0
 57 58  2  0  0  0
 57130  1  0  0  0
 58131  1  0  0  0
 59 60  1  0  0  0
 59 61  1  0  0  0
 59 62  1  0  0  0
 60132  1  0  0  0
 60133  1  0  0  0
 60134  1  0  0  0
 61135  1  0  0  0
 61136  1  0  0  0
 61137  1  0  0  0
 62138  1  0  0  0
 62139  1  0  0  0
 62140  1  0  0  0
 63 65  1  0  0  0
 63141  1  0  0  0
 63142  1  0  0  0
 63143  1  0  0  0
 64144  1  0  0  0
 65145  1  0  0  0
 68 79  1  0  0  0
 71 72  2  0  0  0
 71 73  1  0  0  0
 71146  1  0  0  0
 72 74  1  0  0  0
 72147  1  0  0  0
 73 75  2  0  0  0
 73148  1  0  0  0
 74 76  2  0  0  0
 74 81  1  0  0  0
 75 76  1  0  0  0
 75 85  1  0  0  0
 76 86  1  0  0  0
 77149  1  0  0  0
 77150  1  0  0  0
 77151  1  0  0  0
 77 80  1  0  0  0
 78 80  1  0  0  0
 78 81  1  0  0  0
 78152  1  0  0  0
 78153  1  0  0  0
 79 80  1  0  0  0
 79154  1  0  0  0
 79155  1  0  0  0
 80156  1  0  0  0
 81157  1  0  0  0
 82158  1  0  0  0
 82 85  1  0  0  0
 83 85  2  0  0  0
 84 85  2  0  0  0
M  ISO  4   1 100  68 101  79 101  82 100
M  END
> <chiral flag>
0

> <version>
0

> <s_m_source_file>
/data/baiqing/PycharmProjects/Reinvent-master-3.2/result/LINK_invent/BTK/process_docking_weight1_custom_product_contain_oxygen_bond_distance_aromatic_linkinvent_7_9_3/rearranged_h_0024.sdf

> <i_m_source_file_index>
57

> <r_mmod_Potential_Energy-OPLS-2005>
-130.714599609375

> <r_mmod_Stretch_Energy-OPLS-2005>
38.0887184143066

> <r_mmod_Bend_Energy-OPLS-2005>
93.1833724975586

> <r_mmod_Torsional_Energy-OPLS-2005>
251.294784545898

> <r_mmod_Improper_Torsional_Energy-OPLS-2005>
13.3410444259644

> <r_mmod_Van_der_Waal_Energy-OPLS-2005>
137.970916748047

> <r_mmod_Electrostatic_Energy-OPLS-2005>
-408.658782958984

> <r_mmod_Solvation_Energy-OPLS-2005>
-273.867065429688

> <b_mmod_Minimization_Converged-OPLS-2005>
0

> <r_mmod_RMS_Derivative-OPLS-2005>
4.95585346221924

$$$$
57
                    3D
 Structure written by MMmdl.
153162  0  0  1  0            999 V2000
  -30.5020  -15.0865   20.4373 C   0  0  0  0  0  0
  -30.4457  -12.6952   19.4907 C   0  0  0  0  0  0
  -29.5243  -12.5538   18.2557 C   0  0  0  0  0  0
  -28.0620  -12.3139   18.6792 C   0  0  0  0  0  0
  -27.6201  -13.2590   19.8276 C   0  0  2  0  0  0
  -28.6667  -13.3489   20.9574 C   0  0  0  0  0  0
  -25.2421  -13.8209   20.5723 C   0  0  0  0  0  0
  -24.1762  -13.0434   20.9229 C   0  0  0  0  0  0
  -24.6389  -11.6920   20.8745 C   0  0  0  0  0  0
  -23.9071  -10.4294   21.0390 C   0  0  0  0  0  0
  -24.3619   -9.4213   21.9175 C   0  0  0  0  0  0
  -23.6297   -8.2246   22.0751 C   0  0  0  0  0  0
  -22.4279   -8.0273   21.3538 C   0  0  0  0  0  0
  -21.9910   -9.0239   20.4636 C   0  0  0  0  0  0
  -22.7234  -10.2121   20.3044 C   0  0  0  0  0  0
  -21.6851   -6.0730   22.5272 C   0  0  0  0  0  0
  -21.4017   -6.5638   23.8205 C   0  0  0  0  0  0
  -21.3664   -5.6795   24.9171 C   0  0  0  0  0  0
  -21.6042   -4.3054   24.7222 C   0  0  0  0  0  0
  -21.8820   -3.8141   23.4345 C   0  0  0  0  0  0
  -21.9199   -4.6959   22.3402 C   0  0  0  0  0  0
  -22.7779  -13.5181   21.1895 C   0  0  0  0  0  0
  -22.1664   -4.2146   21.0978 F   0  0  0  0  0  0
  -21.5632   -3.4538   25.7736 F   0  0  0  0  0  0
  -29.9153  -13.8129   20.3339 N   0  0  0  0  0  0
  -26.2855  -12.9464   20.3230 N   0  0  0  0  0  0
  -25.9322  -11.6578   20.5716 N   0  0  0  0  0  0
  -22.0441  -12.8170   22.0439 N   0  0  0  0  0  0
  -25.4044  -15.1953   20.4167 N   0  0  0  0  0  0
  -31.7299  -15.1172   20.2839 O   0  0  0  0  0  0
  -21.6645   -6.8868   21.4230 O   0  0  0  0  0  0
  -22.3472  -14.5499   20.6749 O   0  0  0  0  0  0
  -24.6513  -31.8327   23.1751 C   0  0  0  0  0  0
  -25.9239  -32.4628   23.8184 C   0  0  1  0  0  0
  -27.2493  -27.0303   20.2078 C   0  0  0  0  0  0
  -25.5948  -33.8434   24.2113 N   0  0  0  0  0  0
  -23.4646  -30.4409   21.5211 C   0  0  2  0  0  0
  -24.9213  -28.8279   20.1315 C   0  0  0  0  0  0
  -22.7596  -29.4486   22.4818 C   0  0  0  0  0  0
  -18.0310  -28.1411   22.8451 C   0  0  0  0  0  0
  -24.1500  -36.7241   23.2657 C   0  0  0  0  0  0
  -26.0222  -30.6746   21.3864 C   0  0  0  0  0  0
  -26.0996  -29.2664   20.7494 C   0  0  0  0  0  0
  -27.2609  -28.3888   20.7589 C   0  0  0  0  0  0
  -26.0387  -26.7038   19.5606 C   0  0  0  0  0  0
  -24.9073  -27.5604   19.5213 C   0  0  0  0  0  0
  -23.7020  -29.7448   20.1520 C   0  0  0  0  0  0
  -25.4131  -36.2989   24.0317 C   0  0  1  0  0  0
  -20.5918  -28.3749   23.1199 C   0  0  2  0  0  0
  -20.6794  -26.9440   22.5412 C   0  0  0  0  0  0
  -19.5780  -26.6388   21.5206 C   0  0  0  0  0  0
  -18.1947  -26.7944   22.1607 C   0  0  0  0  0  0
  -19.1570  -28.8897   23.2804 C   0  0  0  0  0  0
  -18.9502  -30.1486   23.8849 C   0  0  0  0  0  0
  -17.6502  -30.6602   24.0563 C   0  0  0  0  0  0
  -25.9079  -34.9370   23.5031 C   0  0  0  0  0  0
  -16.5380  -29.9102   23.6347 C   0  0  0  0  0  0
  -16.7298  -28.6524   23.0347 C   0  0  0  0  0  0
  -26.4532  -31.6529   25.0670 C   0  0  0  0  0  0
  -25.3673  -31.3770   26.1341 C   0  0  0  0  0  0
  -27.0424  -30.2908   24.6326 C   0  0  0  0  0  0
  -27.6055  -32.4301   25.7463 C   0  0  0  0  0  0
  -27.5546  -37.1780   24.8481 C   0  0  0  0  0  0
  -21.4280  -29.3047   22.3549 N   0  0  0  0  0  0
  -26.4297  -37.3698   23.9381 N   0  0  0  0  0  0
  -24.7332  -31.0075   22.0833 N   0  0  0  0  0  0
  -23.4161  -28.8057   23.3048 O   0  0  0  0  0  0
  -28.3579  -26.0777   20.1311 O   0  0  0  0  0  0
  -26.5695  -34.8899   22.4624 O   0  0  0  0  0  0
  -23.5608  -32.1258   23.6896 O   0  0  0  0  0  0
  -30.1893  -19.2854   22.7718 C   0  0  0  0  0  0
  -29.8150  -20.4724   22.0978 C   0  0  0  0  0  0
  -30.2026  -18.0072   22.1633 C   0  0  0  0  0  0
  -29.4082  -20.4973   20.7456 C   0  0  0  0  0  0
  -29.8209  -17.8031   20.8182 C   0  0  0  0  0  0
  -29.4179  -19.1007   20.1364 C   0  0  0  0  0  0
  -30.0738  -24.2150   20.6837 C   0  0  0  0  0  0
  -30.3865  -22.7643   20.1358 C   0  0  0  0  0  0
  -28.0894  -23.0007   20.2353 C   0  0  0  0  0  0
  -28.5556  -24.5690   20.6563 C   0  0  2  0  0  0
  -29.1988  -21.8958   20.1745 N   0  0  0  0  0  0
  -29.7129  -16.3007   20.3654 N   0  0  0  0  0  0
  -28.9350  -18.9641   18.4838 Cl  0  0  0  0  0  0
  -31.4676  -12.8932   19.1651 H   0  0  0  0  0  0
  -30.4864  -11.7645   20.0583 H   0  0  0  0  0  0
  -29.8667  -11.7424   17.6153 H   0  0  0  0  0  0
  -29.5824  -13.4637   17.6566 H   0  0  0  0  0  0
  -27.9755  -11.2766   19.0015 H   0  0  0  0  0  0
  -27.3975  -12.4219   17.8223 H   0  0  0  0  0  0
  -27.5589  -14.2473   19.3732 H   0  0  0  0  0  0
  -28.7979  -12.3882   21.4577 H   0  0  0  0  0  0
  -28.3445  -14.0580   21.7210 H   0  0  0  0  0  0
  -25.2754   -9.5708   22.4762 H   0  0  0  0  0  0
  -24.0006   -7.4645   22.7488 H   0  0  0  0  0  0
  -21.0837   -8.8743   19.8950 H   0  0  0  0  0  0
  -22.3665  -10.9660   19.6165 H   0  0  0  0  0  0
  -21.1998   -7.6145   23.9703 H   0  0  0  0  0  0
  -21.1489   -6.0528   25.9075 H   0  0  0  0  0  0
  -22.0593   -2.7603   23.2842 H   0  0  0  0  0  0
  -22.4087  -11.9831   22.4808 H   0  0  0  0  0  0
  -21.1056  -13.1170   22.2655 H   0  0  0  0  0  0
  -24.6273  -15.8383   20.5248 H   0  0  0  0  0  0
  -26.2417  -15.6425   20.0673 H   0  0  0  0  0  0
  -26.7308  -32.5214   23.0908 H   0  0  0  0  0  0
  -25.0006  -33.9528   25.0200 H   0  0  0  0  0  0
  -22.7740  -31.2676   21.3433 H   0  0  0  0  0  0
  -23.3727  -35.9612   23.3400 H   0  0  0  0  0  0
  -24.3562  -36.8808   22.2055 H   0  0  0  0  0  0
  -23.7335  -37.6485   23.6657 H   0  0  0  0  0  0
  -26.1754  -31.4132   20.5980 H   0  0  0  0  0  0
  -26.8918  -30.7423   22.0293 H   0  0  0  0  0  0
  -28.1674  -28.7365   21.2354 H   0  0  0  0  0  0
  -25.9636  -25.7397   19.0775 H   0  0  0  0  0  0
  -24.0107  -27.2148   19.0262 H   0  0  0  0  0  0
  -23.8519  -30.5063   19.3857 H   0  0  0  0  0  0
  -22.8162  -29.1878   19.8427 H   0  0  0  0  0  0
  -25.1329  -36.1812   25.0815 H   0  0  0  0  0  0
  -20.9994  -28.3378   24.1327 H   0  0  0  0  0  0
  -20.5690  -26.2355   23.3643 H   0  0  0  0  0  0
  -21.6656  -26.7441   22.1204 H   0  0  0  0  0  0
  -19.6972  -25.6290   21.1263 H   0  0  0  0  0  0
  -19.6754  -27.3174   20.6716 H   0  0  0  0  0  0
  -17.4217  -26.6672   21.4013 H   0  0  0  0  0  0
  -18.0351  -26.0110   22.9035 H   0  0  0  0  0  0
  -19.7998  -30.7281   24.2198 H   0  0  0  0  0  0
  -17.5090  -31.6294   24.5158 H   0  0  0  0  0  0
  -15.5389  -30.2995   23.7731 H   0  0  0  0  0  0
  -15.8691  -28.0853   22.7069 H   0  0  0  0  0  0
  -24.5876  -30.7107   25.7645 H   0  0  0  0  0  0
  -24.8834  -32.2965   26.4620 H   0  0  0  0  0  0
  -25.7907  -30.9025   27.0208 H   0  0  0  0  0  0
  -26.3079  -29.6578   24.1336 H   0  0  0  0  0  0
  -27.4010  -29.7263   25.4942 H   0  0  0  0  0  0
  -27.8982  -30.4126   23.9693 H   0  0  0  0  0  0
  -27.2681  -33.3685   26.1878 H   0  0  0  0  0  0
  -28.3941  -32.6718   25.0327 H   0  0  0  0  0  0
  -28.0621  -31.8513   26.5499 H   0  0  0  0  0  0
  -28.2600  -38.0020   24.7361 H   0  0  0  0  0  0
  -28.0995  -36.2527   24.6507 H   0  0  0  0  0  0
  -27.2235  -37.1660   25.8882 H   0  0  0  0  0  0
  -20.9513  -29.8752   21.6708 H   0  0  0  0  0  0
  -26.0164  -38.2790   24.1296 H   0  0  0  0  0  0
  -30.4784  -19.3638   23.8113 H   0  0  0  0  0  0
  -29.8778  -21.4044   22.6421 H   0  0  0  0  0  0
  -30.4688  -17.1588   22.7800 H   0  0  0  0  0  0
  -30.4318  -24.2802   21.7122 H   0  0  0  0  0  0
  -30.6608  -24.9509   20.1327 H   0  0  0  0  0  0
  -31.2307  -22.3328   20.6767 H   0  0  0  0  0  0
  -30.7166  -22.8293   19.0974 H   0  0  0  0  0  0
  -27.6072  -23.0307   19.2578 H   0  0  0  0  0  0
  -27.3159  -22.6677   20.9296 H   0  0  0  0  0  0
  -28.2529  -24.6576   21.7006 H   0  0  0  0  0  0
  -28.7797  -16.0793   20.0584 H   0  0  0  0  0  0
  1 25  1  0  0  0
  1 30  2  0  0  0
  1 82  1  0  0  0
  2  3  1  0  0  0
  2 25  1  0  0  0
  2 84  1  0  0  0
  2 85  1  0  0  0
  3  4  1  0  0  0
  3 86  1  0  0  0
  3 87  1  0  0  0
  4  5  1  0  0  0
  4 88  1  0  0  0
  4 89  1  0  0  0
  5  6  1  0  0  0
  5 26  1  0  0  0
  5 90  1  0  0  0
  6 25  1  0  0  0
  6 91  1  0  0  0
  6 92  1  0  0  0
  7  8  2  0  0  0
  7 26  1  0  0  0
  7 29  1  0  0  0
  8  9  1  0  0  0
  8 22  1  0  0  0
  9 10  1  0  0  0
  9 27  2  0  0  0
 10 11  2  0  0  0
 10 15  1  0  0  0
 11 12  1  0  0  0
 11 93  1  0  0  0
 12 13  2  0  0  0
 12 94  1  0  0  0
 13 14  1  0  0  0
 13 31  1  0  0  0
 14 15  2  0  0  0
 14 95  1  0  0  0
 15 96  1  0  0  0
 16 17  2  0  0  0
 16 21  1  0  0  0
 16 31  1  0  0  0
 17 18  1  0  0  0
 17 97  1  0  0  0
 18 19  2  0  0  0
 18 98  1  0  0  0
 19 20  1  0  0  0
 19 24  1  0  0  0
 20 21  2  0  0  0
 20 99  1  0  0  0
 21 23  1  0  0  0
 22 28  1  0  0  0
 22 32  2  0  0  0
 26 27  1  0  0  0
 28100  1  0  0  0
 28101  1  0  0  0
 29102  1  0  0  0
 29103  1  0  0  0
 33 34  1  0  0  0
 33 66  1  0  0  0
 33 70  2  0  0  0
 34 36  1  0  0  0
 34 59  1  0  0  0
 34104  1  0  0  0
 35 44  2  0  0  0
 35 45  1  0  0  0
 35 68  1  0  0  0
 36 56  1  0  0  0
 36105  1  0  0  0
 37 39  1  0  0  0
 37 47  1  0  0  0
 37 66  1  0  0  0
 37106  1  0  0  0
 38 43  2  0  0  0
 38 46  1  0  0  0
 38 47  1  0  0  0
 39 64  1  0  0  0
 39 67  2  0  0  0
 40 52  1  0  0  0
 40 53  2  0  0  0
 40 58  1  0  0  0
 41107  1  0  0  0
 41108  1  0  0  0
 41109  1  0  0  0
 41 48  1  0  0  0
 42 43  1  0  0  0
 42 66  1  0  0  0
 42110  1  0  0  0
 42111  1  0  0  0
 43 44  1  0  0  0
 44112  1  0  0  0
 45 46  2  0  0  0
 45113  1  0  0  0
 46114  1  0  0  0
 47115  1  0  0  0
 47116  1  0  0  0
 48 56  1  0  0  0
 48 65  1  0  0  0
 48117  1  0  0  0
 49 50  1  0  0  0
 49 53  1  0  0  0
 49 64  1  0  0  0
 49118  1  0  0  0
 50 51  1  0  0  0
 50119  1  0  0  0
 50120  1  0  0  0
 51 52  1  0  0  0
 51121  1  0  0  0
 51122  1  0  0  0
 52123  1  0  0  0
 52124  1  0  0  0
 53 54  1  0  0  0
 54 55  2  0  0  0
 54125  1  0  0  0
 55 57  1  0  0  0
 55126  1  0  0  0
 56 69  2  0  0  0
 57 58  2  0  0  0
 57127  1  0  0  0
 58128  1  0  0  0
 59 60  1  0  0  0
 59 61  1  0  0  0
 59 62  1  0  0  0
 60129  1  0  0  0
 60130  1  0  0  0
 60131  1  0  0  0
 61132  1  0  0  0
 61133  1  0  0  0
 61134  1  0  0  0
 62135  1  0  0  0
 62136  1  0  0  0
 62137  1  0  0  0
 63 65  1  0  0  0
 63138  1  0  0  0
 63139  1  0  0  0
 63140  1  0  0  0
 64141  1  0  0  0
 65142  1  0  0  0
 68 80  1  0  0  0
 71 72  2  0  0  0
 71 73  1  0  0  0
 71143  1  0  0  0
 72 74  1  0  0  0
 72144  1  0  0  0
 73 75  2  0  0  0
 73145  1  0  0  0
 74 76  2  0  0  0
 74 81  1  0  0  0
 75 76  1  0  0  0
 75 82  1  0  0  0
 76 83  1  0  0  0
 77 78  1  0  0  0
 77 80  1  0  0  0
 77146  1  0  0  0
 77147  1  0  0  0
 78 81  1  0  0  0
 78148  1  0  0  0
 78149  1  0  0  0
 79 80  1  0  0  0
 79 81  1  0  0  0
 79150  1  0  0  0
 79151  1  0  0  0
 80152  1  0  0  0
 82153  1  0  0  0
M  ISO  4   1 100  68 101  80 101  82 100
M  END
> <chiral flag>
0

> <version>
0

> <s_m_source_file>
/data/baiqing/PycharmProjects/Reinvent-master-3.2/result/LINK_invent/BTK/process_docking_weight1_custom_product_contain_oxygen_bond_distance_aromatic_linkinvent_7_9_3/rearranged_h_0024.sdf

> <i_m_source_file_index>
58

> <r_mmod_Potential_Energy-OPLS-2005>
996.11865234375

> <r_mmod_Stretch_Energy-OPLS-2005>
355.662719726562

> <r_mmod_Bend_Energy-OPLS-2005>
409.244262695312

> <r_mmod_Torsional_Energy-OPLS-2005>
358.297058105469

> <r_mmod_Improper_Torsional_Energy-OPLS-2005>
14.4330253601074

> <r_mmod_Van_der_Waal_Energy-OPLS-2005>
115.470542907715

> <r_mmod_Electrostatic_Energy-OPLS-2005>
-323.290679931641

> <r_mmod_Solvation_Energy-OPLS-2005>
-222.445617675781

> <b_mmod_Minimization_Converged-OPLS-2005>
0

> <r_mmod_RMS_Derivative-OPLS-2005>
3.19355392456055

$$$$
58
                    3D
 Structure written by MMmdl.
164173  0  0  1  0            999 V2000
  -30.7504  -14.4574   20.6044 C   0  0  0  0  0  0
  -30.4137  -12.3199   19.4111 C   0  0  0  0  0  0
  -29.4833  -12.5139   18.1987 C   0  0  0  0  0  0
  -28.0099  -12.3520   18.6173 C   0  0  0  0  0  0
  -27.6528  -13.1982   19.8661 C   0  0  2  0  0  0
  -28.7008  -13.0116   20.9886 C   0  0  0  0  0  0
  -25.2567  -13.8134   20.5686 C   0  0  0  0  0  0
  -24.1819  -13.0423   20.9202 C   0  0  0  0  0  0
  -24.6364  -11.6888   20.8754 C   0  0  0  0  0  0
  -23.9035  -10.4280   21.0415 C   0  0  0  0  0  0
  -24.3599   -9.4200   21.9189 C   0  0  0  0  0  0
  -23.6284   -8.2234   22.0750 C   0  0  0  0  0  0
  -22.4269   -8.0272   21.3542 C   0  0  0  0  0  0
  -21.9895   -9.0241   20.4645 C   0  0  0  0  0  0
  -22.7213  -10.2122   20.3058 C   0  0  0  0  0  0
  -21.6848   -6.0730   22.5284 C   0  0  0  0  0  0
  -21.4003   -6.5641   23.8217 C   0  0  0  0  0  0
  -21.3655   -5.6787   24.9179 C   0  0  0  0  0  0
  -21.6043   -4.3051   24.7230 C   0  0  0  0  0  0
  -21.8820   -3.8142   23.4352 C   0  0  0  0  0  0
  -21.9194   -4.6956   22.3407 C   0  0  0  0  0  0
  -22.7847  -13.5239   21.1867 C   0  0  0  0  0  0
  -22.1663   -4.2144   21.0986 F   0  0  0  0  0  0
  -21.5634   -3.4531   25.7739 F   0  0  0  0  0  0
  -30.0316  -13.3104   20.4323 N   0  0  0  0  0  0
  -26.2979  -12.9273   20.3350 N   0  0  0  0  0  0
  -25.9289  -11.6449   20.5775 N   0  0  0  0  0  0
  -22.0473  -12.8229   22.0407 N   0  0  0  0  0  0
  -25.4298  -15.1846   20.4052 N   0  0  0  0  0  0
  -31.8699  -14.6108   20.1060 O   0  0  0  0  0  0
  -21.6636   -6.8868   21.4242 O   0  0  0  0  0  0
  -22.3543  -14.5554   20.6724 O   0  0  0  0  0  0
  -24.6139  -31.8692   23.2117 C   0  0  0  0  0  0
  -25.9039  -32.4826   23.8405 C   0  0  1  0  0  0
  -27.2250  -27.4362   20.0940 C   0  0  0  0  0  0
  -25.5919  -33.8626   24.2342 N   0  0  0  0  0  0
  -23.4001  -30.4955   21.5529 C   0  0  2  0  0  0
  -24.8444  -28.9682   20.1108 C   0  0  0  0  0  0
  -22.7409  -29.4661   22.4993 C   0  0  0  0  0  0
  -18.0270  -28.1367   22.8487 C   0  0  0  0  0  0
  -24.1485  -36.7299   23.2637 C   0  0  0  0  0  0
  -25.9297  -30.8375   21.3625 C   0  0  0  0  0  0
  -26.0069  -29.4745   20.7057 C   0  0  0  0  0  0
  -27.2014  -28.7179   20.6914 C   0  0  0  0  0  0
  -26.0439  -26.9536   19.4806 C   0  0  0  0  0  0
  -24.8581  -27.7076   19.4937 C   0  0  0  0  0  0
  -23.6061  -29.8331   20.1653 C   0  0  0  0  0  0
  -25.4104  -36.3111   24.0350 C   0  0  1  0  0  0
  -20.5860  -28.3647   23.1322 C   0  0  2  0  0  0
  -20.6756  -26.9384   22.5426 C   0  0  0  0  0  0
  -19.5751  -26.6377   21.5206 C   0  0  0  0  0  0
  -18.1917  -26.7926   22.1591 C   0  0  0  0  0  0
  -19.1520  -28.8821   23.2906 C   0  0  0  0  0  0
  -18.9450  -30.1428   23.8912 C   0  0  0  0  0  0
  -17.6455  -30.6574   24.0561 C   0  0  0  0  0  0
  -25.9037  -34.9482   23.5136 C   0  0  0  0  0  0
  -16.5342  -29.9078   23.6329 C   0  0  0  0  0  0
  -16.7259  -28.6494   23.0346 C   0  0  0  0  0  0
  -26.4477  -31.6599   25.0720 C   0  0  0  0  0  0
  -25.3760  -31.3701   26.1484 C   0  0  0  0  0  0
  -27.0291  -30.3042   24.6067 C   0  0  0  0  0  0
  -27.6065  -32.4307   25.7476 C   0  0  0  0  0  0
  -27.5586  -37.1798   24.8456 C   0  0  0  0  0  0
  -21.4137  -29.3021   22.3733 N   0  0  0  0  0  0
  -26.4279  -37.3804   23.9430 N   0  0  0  0  0  0
  -24.6665  -31.0811   22.1009 N   0  0  0  0  0  0
  -23.4197  -28.8196   23.3017 O   0  0  0  0  0  0
  -28.3797  -26.6772   20.1356 O   0  0  0  0  0  0
  -26.5583  -34.8934   22.4685 O   0  0  0  0  0  0
  -23.5339  -32.1432   23.7529 O   0  0  0  0  0  0
  -30.1924  -19.8421   19.7281 C   0  0  0  0  0  0
  -28.9442  -20.0377   21.7896 C   0  0  0  0  0  0
  -30.0773  -18.4331   19.7762 C   0  0  0  0  0  0
  -29.3716  -17.8109   20.8386 C   0  0  0  0  0  0
  -29.6117  -20.6793   20.7135 C   0  0  0  0  0  0
  -28.8217  -18.6337   21.8483 C   0  0  0  0  0  0
  -29.0183  -23.0740   21.2387 C   0  0  0  0  0  0
  -30.5156  -24.2579   19.7817 C   0  0  0  0  0  0
  -30.5870  -22.7373   19.5801 C   0  0  0  0  0  0
  -29.3898  -24.4917   20.7886 C   0  0  1  0  0  0
  -30.7052  -17.6219   18.6561 C   0  0  0  0  0  0
  -31.0628  -16.0355   22.4209 C   0  0  0  0  0  0
  -29.1286  -16.2891   20.8823 C   0  0  0  0  0  0
  -28.1760  -25.2546   20.2109 C   0  0  0  0  0  0
  -29.7224  -22.1195   20.5875 N   0  0  0  0  0  0
  -30.2171  -15.4242   21.3915 N   0  0  0  0  0  0
  -28.1634  -22.8931   22.1105 O   0  0  0  0  0  0
  -28.1521  -18.0757   22.8855 F   0  0  0  0  0  0
  -31.4561  -12.4110   19.1008 H   0  0  0  0  0  0
  -30.3165  -11.3101   19.8129 H   0  0  0  0  0  0
  -29.7306  -11.7995   17.4122 H   0  0  0  0  0  0
  -29.6362  -13.5059   17.7697 H   0  0  0  0  0  0
  -27.8341  -11.2946   18.8205 H   0  0  0  0  0  0
  -27.3528  -12.6132   17.7870 H   0  0  0  0  0  0
  -27.6724  -14.2328   19.5371 H   0  0  0  0  0  0
  -28.6836  -11.9848   21.3563 H   0  0  0  0  0  0
  -28.4566  -13.6310   21.8521 H   0  0  0  0  0  0
  -25.2749   -9.5677   22.4757 H   0  0  0  0  0  0
  -23.9998   -7.4618   22.7457 H   0  0  0  0  0  0
  -21.0833   -8.8750   19.8948 H   0  0  0  0  0  0
  -22.3680  -10.9657   19.6161 H   0  0  0  0  0  0
  -21.1982   -7.6147   23.9718 H   0  0  0  0  0  0
  -21.1480   -6.0520   25.9082 H   0  0  0  0  0  0
  -22.0602   -2.7603   23.2848 H   0  0  0  0  0  0
  -22.4065  -11.9872   22.4782 H   0  0  0  0  0  0
  -21.1092  -13.1256   22.2609 H   0  0  0  0  0  0
  -24.6629  -15.8387   20.5146 H   0  0  0  0  0  0
  -26.2763  -15.6221   20.0661 H   0  0  0  0  0  0
  -26.7108  -32.5540   23.1170 H   0  0  0  0  0  0
  -25.0147  -33.9796   25.0536 H   0  0  0  0  0  0
  -22.6877  -31.3122   21.4178 H   0  0  0  0  0  0
  -23.3773  -35.9602   23.3271 H   0  0  0  0  0  0
  -24.3593  -36.8928   22.2055 H   0  0  0  0  0  0
  -23.7198  -37.6483   23.6657 H   0  0  0  0  0  0
  -26.0430  -31.6056   20.5965 H   0  0  0  0  0  0
  -26.8176  -30.8867   21.9816 H   0  0  0  0  0  0
  -28.0964  -29.1034   21.1602 H   0  0  0  0  0  0
  -26.0161  -25.9927   18.9878 H   0  0  0  0  0  0
  -23.9671  -27.3143   19.0251 H   0  0  0  0  0  0
  -23.7107  -30.6103   19.4072 H   0  0  0  0  0  0
  -22.7299  -29.2523   19.8705 H   0  0  0  0  0  0
  -25.1275  -36.1971   25.0842 H   0  0  0  0  0  0
  -20.9949  -28.3201   24.1447 H   0  0  0  0  0  0
  -20.5620  -26.2262   23.3613 H   0  0  0  0  0  0
  -21.6633  -26.7404   22.1241 H   0  0  0  0  0  0
  -19.6912  -25.6293   21.1216 H   0  0  0  0  0  0
  -19.6716  -27.3199   20.6754 H   0  0  0  0  0  0
  -17.4212  -26.6712   21.3963 H   0  0  0  0  0  0
  -18.0278  -26.0040   22.8948 H   0  0  0  0  0  0
  -19.7930  -30.7232   24.2285 H   0  0  0  0  0  0
  -17.5017  -31.6258   24.5155 H   0  0  0  0  0  0
  -15.5345  -30.2981   23.7657 H   0  0  0  0  0  0
  -15.8659  -28.0822   22.7052 H   0  0  0  0  0  0
  -24.6012  -30.6929   25.7869 H   0  0  0  0  0  0
  -24.8855  -32.2840   26.4848 H   0  0  0  0  0  0
  -25.8157  -30.8998   27.0288 H   0  0  0  0  0  0
  -26.2812  -29.6811   24.1147 H   0  0  0  0  0  0
  -27.4101  -29.7266   25.4495 H   0  0  0  0  0  0
  -27.8635  -30.4362   23.9174 H   0  0  0  0  0  0
  -27.2709  -33.3624   26.2041 H   0  0  0  0  0  0
  -28.3890  -32.6828   25.0304 H   0  0  0  0  0  0
  -28.0714  -31.8430   26.5399 H   0  0  0  0  0  0
  -28.2586  -38.0114   24.7543 H   0  0  0  0  0  0
  -28.1098  -36.2655   24.6212 H   0  0  0  0  0  0
  -27.2333  -37.1358   25.8864 H   0  0  0  0  0  0
  -20.9283  -29.8779   21.6993 H   0  0  0  0  0  0
  -26.0168  -38.2873   24.1469 H   0  0  0  0  0  0
  -30.7256  -20.2741   18.8936 H   0  0  0  0  0  0
  -28.4996  -20.5963   22.5973 H   0  0  0  0  0  0
  -30.3381  -24.7733   18.8364 H   0  0  0  0  0  0
  -31.4592  -24.6349   20.1785 H   0  0  0  0  0  0
  -31.6137  -22.3796   19.6709 H   0  0  0  0  0  0
  -30.2244  -22.4815   18.5833 H   0  0  0  0  0  0
  -29.7666  -25.0224   21.6640 H   0  0  0  0  0  0
  -31.1562  -18.2657   17.9006 H   0  0  0  0  0  0
  -29.9635  -17.0025   18.1523 H   0  0  0  0  0  0
  -31.4954  -16.9831   19.0462 H   0  0  0  0  0  0
  -30.4549  -16.5215   23.1843 H   0  0  0  0  0  0
  -31.7308  -16.7797   21.9842 H   0  0  0  0  0  0
  -31.6781  -15.2876   22.9245 H   0  0  0  0  0  0
  -28.8548  -15.9951   19.8706 H   0  0  0  0  0  0
  -28.2404  -16.0852   21.4809 H   0  0  0  0  0  0
  -27.3108  -25.0536   20.8469 H   0  0  0  0  0  0
  -27.9382  -24.8620   19.2204 H   0  0  0  0  0  0
  1 25  1  0  0  0
  1 30  2  0  0  0
  1 86  1  0  0  0
  2  3  1  0  0  0
  2 25  1  0  0  0
  2 89  1  0  0  0
  2 90  1  0  0  0
  3  4  1  0  0  0
  3 91  1  0  0  0
  3 92  1  0  0  0
  4  5  1  0  0  0
  4 93  1  0  0  0
  4 94  1  0  0  0
  5  6  1  0  0  0
  5 26  1  0  0  0
  5 95  1  0  0  0
  6 25  1  0  0  0
  6 96  1  0  0  0
  6 97  1  0  0  0
  7  8  2  0  0  0
  7 26  1  0  0  0
  7 29  1  0  0  0
  8  9  1  0  0  0
  8 22  1  0  0  0
  9 10  1  0  0  0
  9 27  2  0  0  0
 10 11  2  0  0  0
 10 15  1  0  0  0
 11 12  1  0  0  0
 11 98  1  0  0  0
 12 13  2  0  0  0
 12 99  1  0  0  0
 13 14  1  0  0  0
 13 31  1  0  0  0
 14 15  2  0  0  0
 14100  1  0  0  0
 15101  1  0  0  0
 16 17  2  0  0  0
 16 21  1  0  0  0
 16 31  1  0  0  0
 17 18  1  0  0  0
 17102  1  0  0  0
 18 19  2  0  0  0
 18103  1  0  0  0
 19 20  1  0  0  0
 19 24  1  0  0  0
 20 21  2  0  0  0
 20104  1  0  0  0
 21 23  1  0  0  0
 22 28  1  0  0  0
 22 32  2  0  0  0
 26 27  1  0  0  0
 28105  1  0  0  0
 28106  1  0  0  0
 29107  1  0  0  0
 29108  1  0  0  0
 33 34  1  0  0  0
 33 66  1  0  0  0
 33 70  2  0  0  0
 34 36  1  0  0  0
 34 59  1  0  0  0
 34109  1  0  0  0
 35 44  2  0  0  0
 35 45  1  0  0  0
 35 68  1  0  0  0
 36 56  1  0  0  0
 36110  1  0  0  0
 37 39  1  0  0  0
 37 47  1  0  0  0
 37 66  1  0  0  0
 37111  1  0  0  0
 38 43  2  0  0  0
 38 46  1  0  0  0
 38 47  1  0  0  0
 39 64  1  0  0  0
 39 67  2  0  0  0
 40 52  1  0  0  0
 40 53  2  0  0  0
 40 58  1  0  0  0
 41112  1  0  0  0
 41113  1  0  0  0
 41114  1  0  0  0
 41 48  1  0  0  0
 42 43  1  0  0  0
 42 66  1  0  0  0
 42115  1  0  0  0
 42116  1  0  0  0
 43 44  1  0  0  0
 44117  1  0  0  0
 45 46  2  0  0  0
 45118  1  0  0  0
 46119  1  0  0  0
 47120  1  0  0  0
 47121  1  0  0  0
 48 56  1  0  0  0
 48 65  1  0  0  0
 48122  1  0  0  0
 49 50  1  0  0  0
 49 53  1  0  0  0
 49 64  1  0  0  0
 49123  1  0  0  0
 50 51  1  0  0  0
 50124  1  0  0  0
 50125  1  0  0  0
 51 52  1  0  0  0
 51126  1  0  0  0
 51127  1  0  0  0
 52128  1  0  0  0
 52129  1  0  0  0
 53 54  1  0  0  0
 54 55  2  0  0  0
 54130  1  0  0  0
 55 57  1  0  0  0
 55131  1  0  0  0
 56 69  2  0  0  0
 57 58  2  0  0  0
 57132  1  0  0  0
 58133  1  0  0  0
 59 60  1  0  0  0
 59 61  1  0  0  0
 59 62  1  0  0  0
 60134  1  0  0  0
 60135  1  0  0  0
 60136  1  0  0  0
 61137  1  0  0  0
 61138  1  0  0  0
 61139  1  0  0  0
 62140  1  0  0  0
 62141  1  0  0  0
 62142  1  0  0  0
 63 65  1  0  0  0
 63143  1  0  0  0
 63144  1  0  0  0
 63145  1  0  0  0
 64146  1  0  0  0
 65147  1  0  0  0
 68 84  1  0  0  0
 71 73  2  0  0  0
 71 75  1  0  0  0
 71148  1  0  0  0
 72 75  2  0  0  0
 72 76  1  0  0  0
 72149  1  0  0  0
 73 74  1  0  0  0
 73 81  1  0  0  0
 74 76  2  0  0  0
 74 83  1  0  0  0
 75 85  1  0  0  0
 76 88  1  0  0  0
 77 80  1  0  0  0
 77 85  1  0  0  0
 77 87  2  0  0  0
 78 79  1  0  0  0
 78 80  1  0  0  0
 78150  1  0  0  0
 78151  1  0  0  0
 79 85  1  0  0  0
 79152  1  0  0  0
 79153  1  0  0  0
 80 84  1  0  0  0
 80154  1  0  0  0
 81155  1  0  0  0
 81156  1  0  0  0
 81157  1  0  0  0
 82 86  1  0  0  0
 82158  1  0  0  0
 82159  1  0  0  0
 82160  1  0  0  0
 83 86  1  0  0  0
 83161  1  0  0  0
 83162  1  0  0  0
 84163  1  0  0  0
 84164  1  0  0  0
M  ISO  4   1 100  68 101  84 101  86 100
M  END
> <chiral flag>
0

> <version>
0

> <s_m_source_file>
/data/baiqing/PycharmProjects/Reinvent-master-3.2/result/LINK_invent/BTK/process_docking_weight1_custom_product_contain_oxygen_bond_distance_aromatic_linkinvent_7_9_3/rearranged_h_0024.sdf

> <i_m_source_file_index>
59

> <r_mmod_Potential_Energy-OPLS-2005>
188.294509887695

> <r_mmod_Stretch_Energy-OPLS-2005>
43.1778221130371

> <r_mmod_Bend_Energy-OPLS-2005>
121.134132385254

> <r_mmod_Torsional_Energy-OPLS-2005>
325.687103271484

> <r_mmod_Improper_Torsional_Energy-OPLS-2005>
3.94518089294434

> <r_mmod_Van_der_Waal_Energy-OPLS-2005>
162.951187133789

> <r_mmod_Electrostatic_Energy-OPLS-2005>
-282.478424072266

> <r_mmod_Solvation_Energy-OPLS-2005>
-200.402420043945

> <b_mmod_Minimization_Converged-OPLS-2005>
0

> <r_mmod_RMS_Derivative-OPLS-2005>
1.24748289585114

$$$$
59
                    3D
 Structure written by MMmdl.
152160  0  0  1  0            999 V2000
  -30.6277  -14.6294   20.4980 C   0  0  0  0  0  0
  -30.4393  -12.3863   19.4469 C   0  0  0  0  0  0
  -29.5055  -12.5053   18.2216 C   0  0  0  0  0  0
  -28.0285  -12.3459   18.6359 C   0  0  0  0  0  0
  -27.6541  -13.2160   19.8655 C   0  0  2  0  0  0
  -28.7016  -13.0646   20.9922 C   0  0  0  0  0  0
  -25.2555  -13.8160   20.5693 C   0  0  0  0  0  0
  -24.1817  -13.0421   20.9157 C   0  0  0  0  0  0
  -24.6395  -11.6897   20.8725 C   0  0  0  0  0  0
  -23.9064  -10.4284   21.0397 C   0  0  0  0  0  0
  -24.3615   -9.4204   21.9180 C   0  0  0  0  0  0
  -23.6289   -8.2240   22.0753 C   0  0  0  0  0  0
  -22.4272   -8.0276   21.3542 C   0  0  0  0  0  0
  -21.9905   -9.0249   20.4644 C   0  0  0  0  0  0
  -22.7234  -10.2127   20.3051 C   0  0  0  0  0  0
  -21.6852   -6.0733   22.5278 C   0  0  0  0  0  0
  -21.4014   -6.5638   23.8210 C   0  0  0  0  0  0
  -21.3659   -5.6792   24.9172 C   0  0  0  0  0  0
  -21.6044   -4.3054   24.7225 C   0  0  0  0  0  0
  -21.8821   -3.8146   23.4346 C   0  0  0  0  0  0
  -21.9193   -4.6961   22.3401 C   0  0  0  0  0  0
  -22.7841  -13.5216   21.1834 C   0  0  0  0  0  0
  -22.1661   -4.2147   21.0979 F   0  0  0  0  0  0
  -21.5628   -3.4539   25.7739 F   0  0  0  0  0  0
  -30.0177  -13.4048   20.4273 N   0  0  0  0  0  0
  -26.3000  -12.9352   20.3351 N   0  0  0  0  0  0
  -25.9331  -11.6503   20.5768 N   0  0  0  0  0  0
  -22.0496  -12.8212   22.0402 N   0  0  0  0  0  0
  -25.4226  -15.1887   20.4187 N   0  0  0  0  0  0
  -31.7924  -14.7913   20.1228 O   0  0  0  0  0  0
  -21.6635   -6.8875   21.4240 O   0  0  0  0  0  0
  -22.3519  -14.5526   20.6692 O   0  0  0  0  0  0
  -24.6256  -31.8613   23.2042 C   0  0  0  0  0  0
  -25.9109  -32.4785   23.8365 C   0  0  1  0  0  0
  -27.2232  -27.3290   20.1086 C   0  0  0  0  0  0
  -25.5933  -33.8586   24.2291 N   0  0  0  0  0  0
  -23.4180  -30.4863   21.5473 C   0  0  2  0  0  0
  -24.8629  -28.9457   20.1112 C   0  0  0  0  0  0
  -22.7474  -29.4628   22.4946 C   0  0  0  0  0  0
  -18.0285  -28.1374   22.8480 C   0  0  0  0  0  0
  -24.1490  -36.7293   23.2640 C   0  0  0  0  0  0
  -25.9589  -30.7951   21.3736 C   0  0  0  0  0  0
  -26.0329  -29.4238   20.7145 C   0  0  0  0  0  0
  -27.2164  -28.6275   20.7037 C   0  0  0  0  0  0
  -26.0263  -26.9047   19.4828 C   0  0  0  0  0  0
  -24.8609  -27.6905   19.4878 C   0  0  0  0  0  0
  -23.6312  -29.8251   20.1612 C   0  0  0  0  0  0
  -25.4113  -36.3087   24.0330 C   0  0  1  0  0  0
  -20.5885  -28.3682   23.1280 C   0  0  2  0  0  0
  -20.6774  -26.9406   22.5402 C   0  0  0  0  0  0
  -19.5751  -26.6379   21.5201 C   0  0  0  0  0  0
  -18.1932  -26.7917   22.1615 C   0  0  0  0  0  0
  -19.1536  -28.8844   23.2874 C   0  0  0  0  0  0
  -18.9464  -30.1446   23.8892 C   0  0  0  0  0  0
  -17.6467  -30.6582   24.0558 C   0  0  0  0  0  0
  -25.9051  -34.9457   23.5108 C   0  0  0  0  0  0
  -16.5356  -29.9082   23.6326 C   0  0  0  0  0  0
  -16.7273  -28.6496   23.0348 C   0  0  0  0  0  0
  -26.4501  -31.6587   25.0726 C   0  0  0  0  0  0
  -25.3739  -31.3713   26.1458 C   0  0  0  0  0  0
  -27.0345  -30.3016   24.6159 C   0  0  0  0  0  0
  -27.6067  -32.4318   25.7496 C   0  0  0  0  0  0
  -27.5579  -37.1803   24.8467 C   0  0  0  0  0  0
  -21.4188  -29.3043   22.3685 N   0  0  0  0  0  0
  -26.4293  -37.3780   23.9410 N   0  0  0  0  0  0
  -24.6864  -31.0636   22.0986 N   0  0  0  0  0  0
  -23.4203  -28.8165   23.3020 O   0  0  0  0  0  0
  -28.3431  -26.4819   20.1555 O   0  0  0  0  0  0
  -26.5619  -34.8922   22.4674 O   0  0  0  0  0  0
  -23.5423  -32.1409   23.7375 O   0  0  0  0  0  0
  -31.1103  -19.2766   20.4270 C   0  0  0  0  0  0
  -31.1197  -17.8533   20.5200 C   0  0  0  0  0  0
  -28.7132  -19.3054   20.6227 C   0  0  0  0  0  0
  -29.9150  -20.0452   20.4791 C   0  0  0  0  0  0
  -29.9168  -17.1190   20.6787 C   0  0  0  0  0  0
  -28.7196  -17.8819   20.7251 C   0  0  0  0  0  0
  -29.2531  -23.9849   20.3327 C   0  0  0  0  0  0
  -28.8666  -22.4388   20.2474 C   0  0  0  0  0  0
  -28.1050  -25.0290   20.0068 C   0  0  0  0  0  0
  -29.8093  -15.6712   20.8318 N   0  0  0  0  0  0
  -29.9954  -21.4759   20.4049 N   0  0  0  0  0  0
  -27.5437  -17.2241   20.8723 F   0  0  0  0  0  0
  -31.4799  -12.5120   19.1429 H   0  0  0  0  0  0
  -30.3743  -11.3902   19.8869 H   0  0  0  0  0  0
  -29.7662  -11.7539   17.4750 H   0  0  0  0  0  0
  -29.6483  -13.4750   17.7417 H   0  0  0  0  0  0
  -27.8644  -11.2928   18.8671 H   0  0  0  0  0  0
  -27.3725  -12.5775   17.7959 H   0  0  0  0  0  0
  -27.6710  -14.2517   19.5258 H   0  0  0  0  0  0
  -28.7123  -12.0412   21.3706 H   0  0  0  0  0  0
  -28.4518  -13.6935   21.8479 H   0  0  0  0  0  0
  -25.2763   -9.5681   22.4751 H   0  0  0  0  0  0
  -23.9996   -7.4636   22.7478 H   0  0  0  0  0  0
  -21.0833   -8.8769   19.8954 H   0  0  0  0  0  0
  -22.3693  -10.9665   19.6158 H   0  0  0  0  0  0
  -21.2008   -7.6149   23.9713 H   0  0  0  0  0  0
  -21.1478   -6.0523   25.9076 H   0  0  0  0  0  0
  -22.0601   -2.7609   23.2847 H   0  0  0  0  0  0
  -22.4116  -11.9870   22.4781 H   0  0  0  0  0  0
  -21.1120  -13.1242   22.2625 H   0  0  0  0  0  0
  -24.6604  -15.8384   20.5728 H   0  0  0  0  0  0
  -26.2973  -15.6603   20.2196 H   0  0  0  0  0  0
  -26.7179  -32.5458   23.1117 H   0  0  0  0  0  0
  -25.0095  -33.9729   25.0447 H   0  0  0  0  0  0
  -22.7109  -31.3064   21.4068 H   0  0  0  0  0  0
  -23.3753  -35.9627   23.3306 H   0  0  0  0  0  0
  -24.3582  -36.8908   22.2055 H   0  0  0  0  0  0
  -23.7242  -37.6495   23.6658 H   0  0  0  0  0  0
  -26.0889  -31.5599   20.6067 H   0  0  0  0  0  0
  -26.8400  -30.8430   22.0016 H   0  0  0  0  0  0
  -28.1140  -28.9900   21.1854 H   0  0  0  0  0  0
  -25.9544  -25.9489   18.9873 H   0  0  0  0  0  0
  -23.9646  -27.3180   19.0110 H   0  0  0  0  0  0
  -23.7505  -30.6036   19.4066 H   0  0  0  0  0  0
  -22.7508  -29.2556   19.8578 H   0  0  0  0  0  0
  -25.1291  -36.1944   25.0822 H   0  0  0  0  0  0
  -20.9971  -28.3255   24.1404 H   0  0  0  0  0  0
  -20.5668  -26.2296   23.3603 H   0  0  0  0  0  0
  -21.6645  -26.7435   22.1199 H   0  0  0  0  0  0
  -19.6917  -25.6290   21.1229 H   0  0  0  0  0  0
  -19.6684  -27.3194   20.6733 H   0  0  0  0  0  0
  -17.4198  -26.6658   21.4021 H   0  0  0  0  0  0
  -18.0337  -26.0057   22.9010 H   0  0  0  0  0  0
  -19.7946  -30.7253   24.2264 H   0  0  0  0  0  0
  -17.5028  -31.6262   24.5162 H   0  0  0  0  0  0
  -15.5356  -30.2986   23.7653 H   0  0  0  0  0  0
  -15.8670  -28.0816   22.7070 H   0  0  0  0  0  0
  -24.5922  -30.7050   25.7791 H   0  0  0  0  0  0
  -24.8919  -32.2874   26.4884 H   0  0  0  0  0  0
  -25.8072  -30.8897   27.0232 H   0  0  0  0  0  0
  -26.2909  -29.6764   24.1201 H   0  0  0  0  0  0
  -27.4083  -29.7271   25.4645 H   0  0  0  0  0  0
  -27.8763  -30.4318   23.9352 H   0  0  0  0  0  0
  -27.2684  -33.3624   26.2068 H   0  0  0  0  0  0
  -28.3882  -32.6867   25.0323 H   0  0  0  0  0  0
  -28.0732  -31.8443   26.5415 H   0  0  0  0  0  0
  -28.2600  -38.0099   24.7512 H   0  0  0  0  0  0
  -28.1070  -36.2628   24.6294 H   0  0  0  0  0  0
  -27.2294  -37.1454   25.8870 H   0  0  0  0  0  0
  -20.9367  -29.8783   21.6908 H   0  0  0  0  0  0
  -26.0173  -38.2855   24.1415 H   0  0  0  0  0  0
  -32.0603  -19.7811   20.3182 H   0  0  0  0  0  0
  -32.0688  -17.3390   20.4825 H   0  0  0  0  0  0
  -27.7649  -19.8187   20.6717 H   0  0  0  0  0  0
  -30.0827  -24.1818   19.6530 H   0  0  0  0  0  0
  -29.6322  -24.1934   21.3336 H   0  0  0  0  0  0
  -28.3951  -22.2470   19.2820 H   0  0  0  0  0  0
  -28.1087  -22.2219   21.0019 H   0  0  0  0  0  0
  -27.8088  -24.8426   18.9741 H   0  0  0  0  0  0
  -27.2483  -24.7622   20.6286 H   0  0  0  0  0  0
  -28.8812  -15.3714   21.0895 H   0  0  0  0  0  0
  -30.9277  -21.8702   20.2977 H   0  0  0  0  0  0
  1 25  1  0  0  0
  1 30  2  0  0  0
  1 80  1  0  0  0
  2  3  1  0  0  0
  2 25  1  0  0  0
  2 83  1  0  0  0
  2 84  1  0  0  0
  3  4  1  0  0  0
  3 85  1  0  0  0
  3 86  1  0  0  0
  4  5  1  0  0  0
  4 87  1  0  0  0
  4 88  1  0  0  0
  5  6  1  0  0  0
  5 26  1  0  0  0
  5 89  1  0  0  0
  6 25  1  0  0  0
  6 90  1  0  0  0
  6 91  1  0  0  0
  7  8  2  0  0  0
  7 26  1  0  0  0
  7 29  1  0  0  0
  8  9  1  0  0  0
  8 22  1  0  0  0
  9 10  1  0  0  0
  9 27  2  0  0  0
 10 11  2  0  0  0
 10 15  1  0  0  0
 11 12  1  0  0  0
 11 92  1  0  0  0
 12 13  2  0  0  0
 12 93  1  0  0  0
 13 14  1  0  0  0
 13 31  1  0  0  0
 14 15  2  0  0  0
 14 94  1  0  0  0
 15 95  1  0  0  0
 16 17  2  0  0  0
 16 21  1  0  0  0
 16 31  1  0  0  0
 17 18  1  0  0  0
 17 96  1  0  0  0
 18 19  2  0  0  0
 18 97  1  0  0  0
 19 20  1  0  0  0
 19 24  1  0  0  0
 20 21  2  0  0  0
 20 98  1  0  0  0
 21 23  1  0  0  0
 22 28  1  0  0  0
 22 32  2  0  0  0
 26 27  1  0  0  0
 28 99  1  0  0  0
 28100  1  0  0  0
 29101  1  0  0  0
 29102  1  0  0  0
 33 34  1  0  0  0
 33 66  1  0  0  0
 33 70  2  0  0  0
 34 36  1  0  0  0
 34 59  1  0  0  0
 34103  1  0  0  0
 35 44  2  0  0  0
 35 45  1  0  0  0
 35 68  1  0  0  0
 36 56  1  0  0  0
 36104  1  0  0  0
 37 39  1  0  0  0
 37 47  1  0  0  0
 37 66  1  0  0  0
 37105  1  0  0  0
 38 43  2  0  0  0
 38 46  1  0  0  0
 38 47  1  0  0  0
 39 64  1  0  0  0
 39 67  2  0  0  0
 40 52  1  0  0  0
 40 53  2  0  0  0
 40 58  1  0  0  0
 41106  1  0  0  0
 41107  1  0  0  0
 41108  1  0  0  0
 41 48  1  0  0  0
 42 43  1  0  0  0
 42 66  1  0  0  0
 42109  1  0  0  0
 42110  1  0  0  0
 43 44  1  0  0  0
 44111  1  0  0  0
 45 46  2  0  0  0
 45112  1  0  0  0
 46113  1  0  0  0
 47114  1  0  0  0
 47115  1  0  0  0
 48 56  1  0  0  0
 48 65  1  0  0  0
 48116  1  0  0  0
 49 50  1  0  0  0
 49 53  1  0  0  0
 49 64  1  0  0  0
 49117  1  0  0  0
 50 51  1  0  0  0
 50118  1  0  0  0
 50119  1  0  0  0
 51 52  1  0  0  0
 51120  1  0  0  0
 51121  1  0  0  0
 52122  1  0  0  0
 52123  1  0  0  0
 53 54  1  0  0  0
 54 55  2  0  0  0
 54124  1  0  0  0
 55 57  1  0  0  0
 55125  1  0  0  0
 56 69  2  0  0  0
 57 58  2  0  0  0
 57126  1  0  0  0
 58127  1  0  0  0
 59 60  1  0  0  0
 59 61  1  0  0  0
 59 62  1  0  0  0
 60128  1  0  0  0
 60129  1  0  0  0
 60130  1  0  0  0
 61131  1  0  0  0
 61132  1  0  0  0
 61133  1  0  0  0
 62134  1  0  0  0
 62135  1  0  0  0
 62136  1  0  0  0
 63 65  1  0  0  0
 63137  1  0  0  0
 63138  1  0  0  0
 63139  1  0  0  0
 64140  1  0  0  0
 65141  1  0  0  0
 68 79  1  0  0  0
 71 72  2  0  0  0
 71 74  1  0  0  0
 71142  1  0  0  0
 72 75  1  0  0  0
 72143  1  0  0  0
 73 74  2  0  0  0
 73 76  1  0  0  0
 73144  1  0  0  0
 74 81  1  0  0  0
 75 76  2  0  0  0
 75 80  1  0  0  0
 76 82  1  0  0  0
 77 78  1  0  0  0
 77 79  1  0  0  0
 77145  1  0  0  0
 77146  1  0  0  0
 78 81  1  0  0  0
 78147  1  0  0  0
 78148  1  0  0  0
 79149  1  0  0  0
 79150  1  0  0  0
 80151  1  0  0  0
 81152  1  0  0  0
M  ISO  4   1 100  68 101  79 101  80 100
M  END
> <chiral flag>
0

> <version>
0

> <s_m_source_file>
/data/baiqing/PycharmProjects/Reinvent-master-3.2/result/LINK_invent/BTK/process_docking_weight1_custom_product_contain_oxygen_bond_distance_aromatic_linkinvent_7_9_3/rearranged_h_0024.sdf

> <i_m_source_file_index>
60

> <r_mmod_Potential_Energy-OPLS-2005>
-1.59744024276733

> <r_mmod_Stretch_Energy-OPLS-2005>
71.6558456420898

> <r_mmod_Bend_Energy-OPLS-2005>
143.812271118164

> <r_mmod_Torsional_Energy-OPLS-2005>
200.10888671875

> <r_mmod_Improper_Torsional_Energy-OPLS-2005>
4.6348934173584

> <r_mmod_Van_der_Waal_Energy-OPLS-2005>
145.609085083008

> <r_mmod_Electrostatic_Energy-OPLS-2005>
-403.753173828125

> <r_mmod_Solvation_Energy-OPLS-2005>
-208.76188659668

> <b_mmod_Minimization_Converged-OPLS-2005>
0

> <r_mmod_RMS_Derivative-OPLS-2005>
0.584842085838318

$$$$
60
                    3D
 Structure written by MMmdl.
173181  0  0  1  0            999 V2000
  -30.6209  -14.5646   20.5337 C   0  0  0  0  0  0
  -30.4481  -12.3581   19.4234 C   0  0  0  0  0  0
  -29.5032  -12.5045   18.2108 C   0  0  0  0  0  0
  -28.0220  -12.3575   18.6220 C   0  0  0  0  0  0
  -27.6558  -13.2042   19.8701 C   0  0  2  0  0  0
  -28.7048  -12.9991   20.9874 C   0  0  0  0  0  0
  -25.2558  -13.8128   20.5675 C   0  0  0  0  0  0
  -24.1816  -13.0411   20.9192 C   0  0  0  0  0  0
  -24.6393  -11.6885   20.8739 C   0  0  0  0  0  0
  -23.9067  -10.4262   21.0390 C   0  0  0  0  0  0
  -24.3617   -9.4184   21.9172 C   0  0  0  0  0  0
  -23.6283   -8.2229   22.0745 C   0  0  0  0  0  0
  -22.4275   -8.0253   21.3537 C   0  0  0  0  0  0
  -21.9913   -9.0224   20.4656 C   0  0  0  0  0  0
  -22.7241  -10.2096   20.3056 C   0  0  0  0  0  0
  -21.6850   -6.0737   22.5285 C   0  0  0  0  0  0
  -21.4014   -6.5640   23.8226 C   0  0  0  0  0  0
  -21.3656   -5.6781   24.9179 C   0  0  0  0  0  0
  -21.6051   -4.3050   24.7234 C   0  0  0  0  0  0
  -21.8815   -3.8148   23.4350 C   0  0  0  0  0  0
  -21.9194   -4.6961   22.3398 C   0  0  0  0  0  0
  -22.7832  -13.5193   21.1855 C   0  0  0  0  0  0
  -22.1653   -4.2143   21.0973 F   0  0  0  0  0  0
  -21.5638   -3.4528   25.7749 F   0  0  0  0  0  0
  -30.0235  -13.3461   20.4249 N   0  0  0  0  0  0
  -26.2997  -12.9294   20.3355 N   0  0  0  0  0  0
  -25.9318  -11.6465   20.5768 N   0  0  0  0  0  0
  -22.0500  -12.8157   22.0407 N   0  0  0  0  0  0
  -25.4207  -15.1850   20.4020 N   0  0  0  0  0  0
  -31.7849  -14.7739   20.1774 O   0  0  0  0  0  0
  -21.6644   -6.8857   21.4244 O   0  0  0  0  0  0
  -22.3511  -14.5483   20.6698 O   0  0  0  0  0  0
  -24.6178  -31.8640   23.2024 C   0  0  0  0  0  0
  -25.9031  -32.4809   23.8348 C   0  0  1  0  0  0
  -27.2514  -27.3926   20.1137 C   0  0  0  0  0  0
  -25.5878  -33.8606   24.2275 N   0  0  0  0  0  0
  -23.4091  -30.4809   21.5427 C   0  0  2  0  0  0
  -24.8604  -28.9325   20.1175 C   0  0  0  0  0  0
  -22.7434  -29.4626   22.4962 C   0  0  0  0  0  0
  -18.0274  -28.1424   22.8491 C   0  0  0  0  0  0
  -24.1481  -36.7334   23.2651 C   0  0  0  0  0  0
  -25.9365  -30.8187   21.3558 C   0  0  0  0  0  0
  -26.0202  -29.4435   20.7141 C   0  0  0  0  0  0
  -27.2197  -28.6850   20.7010 C   0  0  0  0  0  0
  -26.0763  -26.9048   19.5045 C   0  0  0  0  0  0
  -24.8872  -27.6657   19.5072 C   0  0  0  0  0  0
  -23.6217  -29.8024   20.1616 C   0  0  0  0  0  0
  -25.4108  -36.3108   24.0321 C   0  0  1  0  0  0
  -20.5845  -28.3711   23.1321 C   0  0  2  0  0  0
  -20.6755  -26.9437   22.5443 C   0  0  0  0  0  0
  -19.5738  -26.6402   21.5242 C   0  0  0  0  0  0
  -18.1910  -26.7954   22.1635 C   0  0  0  0  0  0
  -19.1518  -28.8882   23.2902 C   0  0  0  0  0  0
  -18.9446  -30.1471   23.8920 C   0  0  0  0  0  0
  -17.6452  -30.6617   24.0561 C   0  0  0  0  0  0
  -25.9046  -34.9469   23.5106 C   0  0  0  0  0  0
  -16.5343  -29.9099   23.6345 C   0  0  0  0  0  0
  -16.7260  -28.6530   23.0347 C   0  0  0  0  0  0
  -26.4437  -31.6573   25.0686 C   0  0  0  0  0  0
  -25.3685  -31.3638   26.1418 C   0  0  0  0  0  0
  -27.0262  -30.3015   24.6058 C   0  0  0  0  0  0
  -27.6018  -32.4288   25.7446 C   0  0  0  0  0  0
  -27.5560  -37.1817   24.8469 C   0  0  0  0  0  0
  -21.4152  -29.3059   22.3707 N   0  0  0  0  0  0
  -26.4279  -37.3793   23.9414 N   0  0  0  0  0  0
  -24.6736  -31.0707   22.0937 N   0  0  0  0  0  0
  -23.4175  -28.8188   23.3052 O   0  0  0  0  0  0
  -28.4274  -26.6545   20.0930 O   0  0  0  0  0  0
  -26.5639  -34.8938   22.4684 O   0  0  0  0  0  0
  -23.5377  -32.1409   23.7415 O   0  0  0  0  0  0
  -30.0195  -19.5884   22.1991 C   0  0  0  0  0  0
  -29.8748  -17.1902   22.6180 C   0  0  0  0  0  0
  -30.0784  -19.3738   20.8050 C   0  0  0  0  0  0
  -29.9661  -16.9208   21.2379 C   0  0  0  0  0  0
  -29.9121  -18.5127   23.0957 C   0  0  0  0  0  0
  -30.0536  -18.0206   20.3271 C   0  0  0  0  0  0
  -30.2636  -20.5867   19.9275 C   0  0  0  0  0  0
  -27.4773  -25.1153   21.8436 C   0  0  0  0  0  0
  -31.7869  -21.8682   18.5822 C   0  0  0  0  0  0
  -25.3141  -21.1763   20.0317 C   0  0  0  0  0  0
  -26.3882  -21.4142   17.9302 C   0  0  0  0  0  0
  -27.6841  -20.8734   19.9065 C   0  0  0  0  0  0
  -28.6362  -24.1159   19.7426 C   0  0  0  0  0  0
  -29.0548  -21.5538   19.6193 C   0  0  1  0  0  0
  -28.5155  -25.3382   20.7233 C   0  0  1  0  0  0
  -31.4469  -20.7765   19.4761 N   0  0  0  0  0  0
  -29.7520  -15.5620   20.8259 N   0  0  0  0  0  0
  -26.5398  -21.6216   19.3728 N   0  0  0  0  0  0
  -29.1492  -22.8449   20.3878 N   0  3  0  0  0  0
  -29.8388  -18.7577   24.4251 F   0  0  0  0  0  0
  -30.0786  -17.7677   18.9950 F   0  0  0  0  0  0
  -31.4851  -12.5047   19.1129 H   0  0  0  0  0  0
  -30.3964  -11.3508   19.8426 H   0  0  0  0  0  0
  -29.7545  -11.7646   17.4476 H   0  0  0  0  0  0
  -29.6557  -13.4824   17.7455 H   0  0  0  0  0  0
  -27.8339  -11.3006   18.8160 H   0  0  0  0  0  0
  -27.3765  -12.6302   17.7860 H   0  0  0  0  0  0
  -27.6870  -14.2472   19.5581 H   0  0  0  0  0  0
  -28.7090  -11.9588   21.3166 H   0  0  0  0  0  0
  -28.4660  -13.5853   21.8770 H   0  0  0  0  0  0
  -25.2767   -9.5647   22.4739 H   0  0  0  0  0  0
  -24.0009   -7.4611   22.7430 H   0  0  0  0  0  0
  -21.0871   -8.8726   19.8933 H   0  0  0  0  0  0
  -22.3707  -10.9625   19.6147 H   0  0  0  0  0  0
  -21.1999   -7.6144   23.9723 H   0  0  0  0  0  0
  -21.1492   -6.0519   25.9075 H   0  0  0  0  0  0
  -22.0608   -2.7615   23.2862 H   0  0  0  0  0  0
  -22.4130  -11.9837   22.4820 H   0  0  0  0  0  0
  -21.1085  -13.1112   22.2581 H   0  0  0  0  0  0
  -24.6447  -15.8283   20.5151 H   0  0  0  0  0  0
  -26.2526  -15.6300   20.0367 H   0  0  0  0  0  0
  -26.7097  -32.5480   23.1111 H   0  0  0  0  0  0
  -24.9937  -33.9777   25.0351 H   0  0  0  0  0  0
  -22.7016  -31.2997   21.3948 H   0  0  0  0  0  0
  -23.3725  -35.9675   23.3334 H   0  0  0  0  0  0
  -24.3590  -36.8982   22.2072 H   0  0  0  0  0  0
  -23.7256  -37.6541   23.6690 H   0  0  0  0  0  0
  -26.0460  -31.5693   20.5718 H   0  0  0  0  0  0
  -26.8268  -30.8862   21.9674 H   0  0  0  0  0  0
  -28.1157  -29.0831   21.1579 H   0  0  0  0  0  0
  -26.0728  -25.9356   19.0270 H   0  0  0  0  0  0
  -23.9958  -27.2701   19.0414 H   0  0  0  0  0  0
  -23.7271  -30.5699   19.3947 H   0  0  0  0  0  0
  -22.7482  -29.2204   19.8701 H   0  0  0  0  0  0
  -25.1277  -36.1959   25.0803 H   0  0  0  0  0  0
  -20.9942  -28.3298   24.1444 H   0  0  0  0  0  0
  -20.5703  -26.2327   23.3651 H   0  0  0  0  0  0
  -21.6619  -26.7504   22.1212 H   0  0  0  0  0  0
  -19.6913  -25.6321   21.1270 H   0  0  0  0  0  0
  -19.6657  -27.3218   20.6773 H   0  0  0  0  0  0
  -17.4176  -26.6727   21.4031 H   0  0  0  0  0  0
  -18.0295  -26.0084   22.9030 H   0  0  0  0  0  0
  -19.7915  -30.7278   24.2314 H   0  0  0  0  0  0
  -17.4995  -31.6295   24.5179 H   0  0  0  0  0  0
  -15.5345  -30.3004   23.7669 H   0  0  0  0  0  0
  -15.8654  -28.0855   22.7064 H   0  0  0  0  0  0
  -24.5890  -30.6995   25.7702 H   0  0  0  0  0  0
  -24.8830  -32.2751   26.4901 H   0  0  0  0  0  0
  -25.7999  -30.8756   27.0163 H   0  0  0  0  0  0
  -26.2785  -29.6826   24.1100 H   0  0  0  0  0  0
  -27.4012  -29.7234   25.4516 H   0  0  0  0  0  0
  -27.8630  -30.4380   23.9206 H   0  0  0  0  0  0
  -27.2684  -33.3646   26.1966 H   0  0  0  0  0  0
  -28.3824  -32.6784   25.0232 H   0  0  0  0  0  0
  -28.0660  -31.8426   26.5406 H   0  0  0  0  0  0
  -28.2568  -38.0127   24.7502 H   0  0  0  0  0  0
  -28.1059  -36.2646   24.6281 H   0  0  0  0  0  0
  -27.2291  -37.1465   25.8880 H   0  0  0  0  0  0
  -20.9355  -29.8772   21.6881 H   0  0  0  0  0  0
  -26.0172  -38.2869   24.1386 H   0  0  0  0  0  0
  -30.0697  -20.5893   22.5992 H   0  0  0  0  0  0
  -29.7512  -16.3848   23.3267 H   0  0  0  0  0  0
  -27.6780  -24.1949   22.3901 H   0  0  0  0  0  0
  -26.4615  -25.0397   21.4559 H   0  0  0  0  0  0
  -27.5012  -25.9290   22.5702 H   0  0  0  0  0  0
  -32.8657  -21.8744   18.4130 H   0  0  0  0  0  0
  -31.5353  -22.8465   18.9918 H   0  0  0  0  0  0
  -31.3136  -21.7598   17.6040 H   0  0  0  0  0  0
  -24.4464  -21.7288   19.6651 H   0  0  0  0  0  0
  -25.3656  -21.3431   21.1088 H   0  0  0  0  0  0
  -25.1317  -20.1131   19.8664 H   0  0  0  0  0  0
  -25.5470  -21.9915   17.5425 H   0  0  0  0  0  0
  -26.2068  -20.3638   17.6945 H   0  0  0  0  0  0
  -27.2700  -21.7326   17.3727 H   0  0  0  0  0  0
  -27.5685  -20.7514   20.9856 H   0  0  0  0  0  0
  -27.6648  -19.8647   19.4899 H   0  0  0  0  0  0
  -29.3238  -24.3828   18.9388 H   0  0  0  0  0  0
  -27.6708  -23.9502   19.2664 H   0  0  0  0  0  0
  -29.1144  -21.7873   18.5563 H   0  0  0  0  0  0
  -29.4772  -25.3893   21.2354 H   0  0  0  0  0  0
  -28.8200  -15.2159   20.9966 H   0  0  0  0  0  0
  -28.6435  -22.6963   21.2470 H   0  0  0  0  0  0
  -30.1184  -22.9776   20.6340 H   0  0  0  0  0  0
  1 25  1  0  0  0
  1 30  2  0  0  0
  1 87  1  0  0  0
  2  3  1  0  0  0
  2 25  1  0  0  0
  2 92  1  0  0  0
  2 93  1  0  0  0
  3  4  1  0  0  0
  3 94  1  0  0  0
  3 95  1  0  0  0
  4  5  1  0  0  0
  4 96  1  0  0  0
  4 97  1  0  0  0
  5  6  1  0  0  0
  5 26  1  0  0  0
  5 98  1  0  0  0
  6 25  1  0  0  0
  6 99  1  0  0  0
  6100  1  0  0  0
  7  8  2  0  0  0
  7 26  1  0  0  0
  7 29  1  0  0  0
  8  9  1  0  0  0
  8 22  1  0  0  0
  9 10  1  0  0  0
  9 27  2  0  0  0
 10 11  2  0  0  0
 10 15  1  0  0  0
 11 12  1  0  0  0
 11101  1  0  0  0
 12 13  2  0  0  0
 12102  1  0  0  0
 13 14  1  0  0  0
 13 31  1  0  0  0
 14 15  2  0  0  0
 14103  1  0  0  0
 15104  1  0  0  0
 16 17  2  0  0  0
 16 21  1  0  0  0
 16 31  1  0  0  0
 17 18  1  0  0  0
 17105  1  0  0  0
 18 19  2  0  0  0
 18106  1  0  0  0
 19 20  1  0  0  0
 19 24  1  0  0  0
 20 21  2  0  0  0
 20107  1  0  0  0
 21 23  1  0  0  0
 22 28  1  0  0  0
 22 32  2  0  0  0
 26 27  1  0  0  0
 28108  1  0  0  0
 28109  1  0  0  0
 29110  1  0  0  0
 29111  1  0  0  0
 33 34  1  0  0  0
 33 66  1  0  0  0
 33 70  2  0  0  0
 34 36  1  0  0  0
 34 59  1  0  0  0
 34112  1  0  0  0
 35 44  2  0  0  0
 35 45  1  0  0  0
 35 68  1  0  0  0
 36 56  1  0  0  0
 36113  1  0  0  0
 37 39  1  0  0  0
 37 47  1  0  0  0
 37 66  1  0  0  0
 37114  1  0  0  0
 38 43  2  0  0  0
 38 46  1  0  0  0
 38 47  1  0  0  0
 39 64  1  0  0  0
 39 67  2  0  0  0
 40 52  1  0  0  0
 40 53  2  0  0  0
 40 58  1  0  0  0
 41115  1  0  0  0
 41116  1  0  0  0
 41117  1  0  0  0
 41 48  1  0  0  0
 42 43  1  0  0  0
 42 66  1  0  0  0
 42118  1  0  0  0
 42119  1  0  0  0
 43 44  1  0  0  0
 44120  1  0  0  0
 45 46  2  0  0  0
 45121  1  0  0  0
 46122  1  0  0  0
 47123  1  0  0  0
 47124  1  0  0  0
 48 56  1  0  0  0
 48 65  1  0  0  0
 48125  1  0  0  0
 49 50  1  0  0  0
 49 53  1  0  0  0
 49 64  1  0  0  0
 49126  1  0  0  0
 50 51  1  0  0  0
 50127  1  0  0  0
 50128  1  0  0  0
 51 52  1  0  0  0
 51129  1  0  0  0
 51130  1  0  0  0
 52131  1  0  0  0
 52132  1  0  0  0
 53 54  1  0  0  0
 54 55  2  0  0  0
 54133  1  0  0  0
 55 57  1  0  0  0
 55134  1  0  0  0
 56 69  2  0  0  0
 57 58  2  0  0  0
 57135  1  0  0  0
 58136  1  0  0  0
 59 60  1  0  0  0
 59 61  1  0  0  0
 59 62  1  0  0  0
 60137  1  0  0  0
 60138  1  0  0  0
 60139  1  0  0  0
 61140  1  0  0  0
 61141  1  0  0  0
 61142  1  0  0  0
 62143  1  0  0  0
 62144  1  0  0  0
 62145  1  0  0  0
 63 65  1  0  0  0
 63146  1  0  0  0
 63147  1  0  0  0
 63148  1  0  0  0
 64149  1  0  0  0
 65150  1  0  0  0
 68 85  1  0  0  0
 71 73  2  0  0  0
 71 75  1  0  0  0
 71151  1  0  0  0
 72 74  1  0  0  0
 72 75  2  0  0  0
 72152  1  0  0  0
 73 76  1  0  0  0
 73 77  1  0  0  0
 74 76  2  0  0  0
 74 87  1  0  0  0
 75 90  1  0  0  0
 76 91  1  0  0  0
 77 84  1  0  0  0
 77 86  2  0  0  0
 78153  1  0  0  0
 78154  1  0  0  0
 78155  1  0  0  0
 78 85  1  0  0  0
 79 86  1  0  0  0
 79156  1  0  0  0
 79157  1  0  0  0
 79158  1  0  0  0
 80 88  1  0  0  0
 80159  1  0  0  0
 80160  1  0  0  0
 80161  1  0  0  0
 81 88  1  0  0  0
 81162  1  0  0  0
 81163  1  0  0  0
 81164  1  0  0  0
 82 88  1  0  0  0
 82165  1  0  0  0
 82166  1  0  0  0
 82 84  1  0  0  0
 83 85  1  0  0  0
 83 89  1  0  0  0
 83167  1  0  0  0
 83168  1  0  0  0
 84 89  1  0  0  0
 84169  1  0  0  0
 85170  1  0  0  0
 87171  1  0  0  0
 89172  1  0  0  0
 89173  1  0  0  0
M  CHG  1  89   1
M  ISO  4   1 100  68 101  85 101  87 100
M  END
> <chiral flag>
0

> <version>
0

> <s_m_source_file>
/data/baiqing/PycharmProjects/Reinvent-master-3.2/result/LINK_invent/BTK/process_docking_weight1_custom_product_contain_oxygen_bond_distance_aromatic_linkinvent_7_9_3/rearranged_h_0024.sdf

> <i_m_source_file_index>
61

> <r_mmod_Potential_Energy-OPLS-2005>
-60.7561988830566

> <r_mmod_Stretch_Energy-OPLS-2005>
60.9409980773926

> <r_mmod_Bend_Energy-OPLS-2005>
138.947998046875

> <r_mmod_Torsional_Energy-OPLS-2005>
284.517852783203

> <r_mmod_Improper_Torsional_Energy-OPLS-2005>
7.79219388961792

> <r_mmod_Van_der_Waal_Energy-OPLS-2005>
140.041625976562

> <r_mmod_Electrostatic_Energy-OPLS-2005>
-267.120727539062

> <r_mmod_Solvation_Energy-OPLS-2005>
-450.795349121094

> <b_mmod_Minimization_Converged-OPLS-2005>
0

> <r_mmod_RMS_Derivative-OPLS-2005>
4.43609237670898

$$$$
61
                    3D
 Structure written by MMmdl.
159168  0  0  1  0            999 V2000
  -30.4564  -14.9250   20.4008 C   0  0  0  0  0  0
  -30.4410  -12.5743   19.4721 C   0  0  0  0  0  0
  -29.5273  -12.5799   18.2262 C   0  0  0  0  0  0
  -28.0517  -12.3542   18.6255 C   0  0  0  0  0  0
  -27.6266  -13.2460   19.8251 C   0  0  2  0  0  0
  -28.6626  -13.1978   20.9643 C   0  0  0  0  0  0
  -25.2479  -13.8179   20.5656 C   0  0  0  0  0  0
  -24.1803  -13.0427   20.9216 C   0  0  0  0  0  0
  -24.6405  -11.6918   20.8677 C   0  0  0  0  0  0
  -23.9063  -10.4320   21.0342 C   0  0  0  0  0  0
  -24.3620   -9.4257   21.9130 C   0  0  0  0  0  0
  -23.6317   -8.2272   22.0721 C   0  0  0  0  0  0
  -22.4296   -8.0293   21.3529 C   0  0  0  0  0  0
  -21.9909   -9.0245   20.4627 C   0  0  0  0  0  0
  -22.7221  -10.2133   20.3012 C   0  0  0  0  0  0
  -21.6881   -6.0751   22.5300 C   0  0  0  0  0  0
  -21.4043   -6.5632   23.8253 C   0  0  0  0  0  0
  -21.3669   -5.6757   24.9181 C   0  0  0  0  0  0
  -21.6034   -4.3030   24.7203 C   0  0  0  0  0  0
  -21.8818   -3.8153   23.4324 C   0  0  0  0  0  0
  -21.9203   -4.6966   22.3413 C   0  0  0  0  0  0
  -22.7827  -13.5212   21.1866 C   0  0  0  0  0  0
  -22.1663   -4.2176   21.0969 F   0  0  0  0  0  0
  -21.5596   -3.4504   25.7706 F   0  0  0  0  0  0
  -29.9419  -13.6339   20.3966 N   0  0  0  0  0  0
  -26.2858  -12.9394   20.3063 N   0  0  0  0  0  0
  -25.9304  -11.6537   20.5582 N   0  0  0  0  0  0
  -22.0414  -12.8266   22.0407 N   0  0  0  0  0  0
  -25.4102  -15.1917   20.4168 N   0  0  0  0  0  0
  -31.6473  -15.0692   20.0924 O   0  0  0  0  0  0
  -21.6661   -6.8884   21.4279 O   0  0  0  0  0  0
  -22.3541  -14.5469   20.6624 O   0  0  0  0  0  0
  -24.6405  -31.8477   23.1856 C   0  0  0  0  0  0
  -25.9149  -32.4720   23.8291 C   0  0  1  0  0  0
  -27.2231  -27.1570   20.1370 C   0  0  0  0  0  0
  -25.5921  -33.8527   24.2203 N   0  0  0  0  0  0
  -23.4452  -30.4565   21.5319 C   0  0  2  0  0  0
  -24.8961  -28.8804   20.1066 C   0  0  0  0  0  0
  -22.7579  -29.4499   22.4862 C   0  0  0  0  0  0
  -18.0300  -28.1322   22.8491 C   0  0  0  0  0  0
  -24.1503  -36.7303   23.2632 C   0  0  0  0  0  0
  -25.9960  -30.7201   21.3817 C   0  0  0  0  0  0
  -26.0663  -29.3289   20.7288 C   0  0  0  0  0  0
  -27.2246  -28.4767   20.7374 C   0  0  0  0  0  0
  -26.0457  -26.8083   19.4503 C   0  0  0  0  0  0
  -24.8936  -27.6326   19.4565 C   0  0  0  0  0  0
  -23.6742  -29.7840   20.1497 C   0  0  0  0  0  0
  -25.4119  -36.3059   24.0321 C   0  0  1  0  0  0
  -20.5928  -28.3661   23.1241 C   0  0  2  0  0  0
  -20.6771  -26.9372   22.5380 C   0  0  0  0  0  0
  -19.5745  -26.6329   21.5184 C   0  0  0  0  0  0
  -18.1931  -26.7875   22.1598 C   0  0  0  0  0  0
  -19.1563  -28.8809   23.2857 C   0  0  0  0  0  0
  -18.9463  -30.1393   23.8900 C   0  0  0  0  0  0
  -17.6459  -30.6557   24.0508 C   0  0  0  0  0  0
  -25.9062  -34.9433   23.5062 C   0  0  0  0  0  0
  -16.5352  -29.9035   23.6293 C   0  0  0  0  0  0
  -16.7277  -28.6411   23.0397 C   0  0  0  0  0  0
  -26.4466  -31.6604   25.0761 C   0  0  0  0  0  0
  -25.3638  -31.3801   26.1458 C   0  0  0  0  0  0
  -27.0296  -30.3010   24.6287 C   0  0  0  0  0  0
  -27.6004  -32.4379   25.7565 C   0  0  0  0  0  0
  -27.5592  -37.1797   24.8439 C   0  0  0  0  0  0
  -21.4270  -29.3022   22.3657 N   0  0  0  0  0  0
  -26.4278  -37.3781   23.9418 N   0  0  0  0  0  0
  -24.7142  -31.0310   22.0891 N   0  0  0  0  0  0
  -23.4237  -28.8059   23.3020 O   0  0  0  0  0  0
  -28.2873  -26.2133   20.3051 O   0  0  0  0  0  0
  -26.5647  -34.8895   22.4650 O   0  0  0  0  0  0
  -23.5516  -32.1354   23.7055 O   0  0  0  0  0  0
  -29.1687  -19.9901   20.9172 C   0  0  0  0  0  0
  -29.3742  -18.5822   21.2428 C   0  0  0  0  0  0
  -28.9859  -19.4180   18.6402 C   0  0  0  0  0  0
  -29.0062  -20.5429   19.5968 C   0  0  0  0  0  0
  -29.5069  -17.5118   20.2875 C   0  0  0  0  0  0
  -29.2692  -18.0131   18.9701 C   0  0  0  0  0  0
  -27.6127  -22.9396   17.5333 C   0  0  0  0  0  0
  -26.9018  -23.0005   18.9002 C   0  0  0  0  0  0
  -29.0558  -22.4927   17.9157 C   0  0  0  0  0  0
  -28.0848  -23.2217   19.8483 C   0  0  2  0  0  0
  -28.5626  -19.6108   17.1859 C   0  0  0  0  0  0
  -28.5437  -24.8608   19.6086 C   0  0  0  0  0  0
  -28.9715  -22.0431   19.3146 N   0  0  0  0  0  0
  -29.5777  -16.0187   20.6390 N   0  0  0  0  0  0
  -29.2775  -16.8127   17.7142 Cl  0  0  0  0  0  0
  -31.4801  -12.7456   19.1831 H   0  0  0  0  0  0
  -30.4272  -11.5906   19.9454 H   0  0  0  0  0  0
  -29.8510  -11.8151   17.5196 H   0  0  0  0  0  0
  -29.6267  -13.5384   17.7090 H   0  0  0  0  0  0
  -27.9343  -11.3034   18.8884 H   0  0  0  0  0  0
  -27.4025  -12.5246   17.7648 H   0  0  0  0  0  0
  -27.6002  -14.2652   19.4365 H   0  0  0  0  0  0
  -28.7402  -12.1868   21.3757 H   0  0  0  0  0  0
  -28.3608  -13.8434   21.7893 H   0  0  0  0  0  0
  -25.2763   -9.5757   22.4671 H   0  0  0  0  0  0
  -24.0055   -7.4693   22.7427 H   0  0  0  0  0  0
  -21.0841   -8.8726   19.8956 H   0  0  0  0  0  0
  -22.3663  -10.9622   19.6080 H   0  0  0  0  0  0
  -21.2057   -7.6132   23.9780 H   0  0  0  0  0  0
  -21.1468   -6.0456   25.9088 H   0  0  0  0  0  0
  -22.0586   -2.7618   23.2803 H   0  0  0  0  0  0
  -22.4019  -12.0034   22.4999 H   0  0  0  0  0  0
  -21.0952  -13.1258   22.2385 H   0  0  0  0  0  0
  -24.6302  -15.8179   20.5675 H   0  0  0  0  0  0
  -26.2112  -15.6572   20.0119 H   0  0  0  0  0  0
  -26.7240  -32.5315   23.1048 H   0  0  0  0  0  0
  -25.0119  -33.9687   25.0382 H   0  0  0  0  0  0
  -22.7468  -31.2806   21.3729 H   0  0  0  0  0  0
  -23.3783  -35.9610   23.3216 H   0  0  0  0  0  0
  -24.3607  -36.9014   22.2059 H   0  0  0  0  0  0
  -23.7204  -37.6451   23.6726 H   0  0  0  0  0  0
  -26.1455  -31.4705   20.6030 H   0  0  0  0  0  0
  -26.8737  -30.7814   22.0133 H   0  0  0  0  0  0
  -28.1175  -28.8046   21.2508 H   0  0  0  0  0  0
  -25.9920  -25.8634   18.9349 H   0  0  0  0  0  0
  -24.0014  -27.2930   18.9494 H   0  0  0  0  0  0
  -23.8196  -30.5606   19.3980 H   0  0  0  0  0  0
  -22.7928  -29.2289   19.8290 H   0  0  0  0  0  0
  -25.1300  -36.1903   25.0816 H   0  0  0  0  0  0
  -20.9988  -28.3186   24.1368 H   0  0  0  0  0  0
  -20.5603  -26.2288   23.3591 H   0  0  0  0  0  0
  -21.6633  -26.7342   22.1199 H   0  0  0  0  0  0
  -19.6900  -25.6228   21.1239 H   0  0  0  0  0  0
  -19.6663  -27.3107   20.6688 H   0  0  0  0  0  0
  -17.4206  -26.6636   21.3991 H   0  0  0  0  0  0
  -18.0314  -25.9986   22.8966 H   0  0  0  0  0  0
  -19.7938  -30.7168   24.2331 H   0  0  0  0  0  0
  -17.5010  -31.6246   24.5090 H   0  0  0  0  0  0
  -15.5338  -30.2924   23.7597 H   0  0  0  0  0  0
  -15.8681  -28.0650   22.7226 H   0  0  0  0  0  0
  -24.5786  -30.7200   25.7770 H   0  0  0  0  0  0
  -24.8851  -32.2990   26.4868 H   0  0  0  0  0  0
  -25.7901  -30.8964   27.0256 H   0  0  0  0  0  0
  -26.2857  -29.6797   24.1292 H   0  0  0  0  0  0
  -27.3932  -29.7264   25.4814 H   0  0  0  0  0  0
  -27.8788  -30.4298   23.9568 H   0  0  0  0  0  0
  -27.2576  -33.3674   26.2132 H   0  0  0  0  0  0
  -28.3829  -32.6953   25.0421 H   0  0  0  0  0  0
  -28.0665  -31.8517   26.5489 H   0  0  0  0  0  0
  -28.2535  -38.0169   24.7576 H   0  0  0  0  0  0
  -28.1163  -36.2699   24.6162 H   0  0  0  0  0  0
  -27.2337  -37.1321   25.8843 H   0  0  0  0  0  0
  -20.9489  -29.8802   21.6890 H   0  0  0  0  0  0
  -26.0157  -38.2848   24.1441 H   0  0  0  0  0  0
  -29.1327  -20.6829   21.7455 H   0  0  0  0  0  0
  -29.4308  -18.3149   22.2906 H   0  0  0  0  0  0
  -27.6166  -23.9143   17.0379 H   0  0  0  0  0  0
  -27.0934  -22.2800   16.8413 H   0  0  0  0  0  0
  -26.4378  -22.0338   19.1115 H   0  0  0  0  0  0
  -26.1013  -23.7348   18.9601 H   0  0  0  0  0  0
  -29.7382  -23.3459   17.8691 H   0  0  0  0  0  0
  -29.5193  -21.8138   17.2104 H   0  0  0  0  0  0
  -27.8045  -23.0539   20.8869 H   0  0  0  0  0  0
  -27.8583  -20.4141   17.0735 H   0  0  0  0  0  0
  -27.9928  -18.7737   16.7858 H   0  0  0  0  0  0
  -29.4277  -19.7554   16.5407 H   0  0  0  0  0  0
  -28.3715  -25.1371   18.5728 H   0  0  0  0  0  0
  -29.6323  -24.8248   19.6698 H   0  0  0  0  0  0
  -28.6880  -15.6718   20.9711 H   0  0  0  0  0  0
  1 25  1  0  0  0
  1 30  2  0  0  0
  1 84  1  0  0  0
  2  3  1  0  0  0
  2 25  1  0  0  0
  2 86  1  0  0  0
  2 87  1  0  0  0
  3  4  1  0  0  0
  3 88  1  0  0  0
  3 89  1  0  0  0
  4  5  1  0  0  0
  4 90  1  0  0  0
  4 91  1  0  0  0
  5  6  1  0  0  0
  5 26  1  0  0  0
  5 92  1  0  0  0
  6 25  1  0  0  0
  6 93  1  0  0  0
  6 94  1  0  0  0
  7  8  2  0  0  0
  7 26  1  0  0  0
  7 29  1  0  0  0
  8  9  1  0  0  0
  8 22  1  0  0  0
  9 10  1  0  0  0
  9 27  2  0  0  0
 10 11  2  0  0  0
 10 15  1  0  0  0
 11 12  1  0  0  0
 11 95  1  0  0  0
 12 13  2  0  0  0
 12 96  1  0  0  0
 13 14  1  0  0  0
 13 31  1  0  0  0
 14 15  2  0  0  0
 14 97  1  0  0  0
 15 98  1  0  0  0
 16 17  2  0  0  0
 16 21  1  0  0  0
 16 31  1  0  0  0
 17 18  1  0  0  0
 17 99  1  0  0  0
 18 19  2  0  0  0
 18100  1  0  0  0
 19 20  1  0  0  0
 19 24  1  0  0  0
 20 21  2  0  0  0
 20101  1  0  0  0
 21 23  1  0  0  0
 22 28  1  0  0  0
 22 32  2  0  0  0
 26 27  1  0  0  0
 28102  1  0  0  0
 28103  1  0  0  0
 29104  1  0  0  0
 29105  1  0  0  0
 33 34  1  0  0  0
 33 66  1  0  0  0
 33 70  2  0  0  0
 34 36  1  0  0  0
 34 59  1  0  0  0
 34106  1  0  0  0
 35 44  2  0  0  0
 35 45  1  0  0  0
 35 68  1  0  0  0
 36 56  1  0  0  0
 36107  1  0  0  0
 37 39  1  0  0  0
 37 47  1  0  0  0
 37 66  1  0  0  0
 37108  1  0  0  0
 38 43  2  0  0  0
 38 46  1  0  0  0
 38 47  1  0  0  0
 39 64  1  0  0  0
 39 67  2  0  0  0
 40 52  1  0  0  0
 40 53  2  0  0  0
 40 58  1  0  0  0
 41109  1  0  0  0
 41110  1  0  0  0
 41111  1  0  0  0
 41 48  1  0  0  0
 42 43  1  0  0  0
 42 66  1  0  0  0
 42112  1  0  0  0
 42113  1  0  0  0
 43 44  1  0  0  0
 44114  1  0  0  0
 45 46  2  0  0  0
 45115  1  0  0  0
 46116  1  0  0  0
 47117  1  0  0  0
 47118  1  0  0  0
 48 56  1  0  0  0
 48 65  1  0  0  0
 48119  1  0  0  0
 49 50  1  0  0  0
 49 53  1  0  0  0
 49 64  1  0  0  0
 49120  1  0  0  0
 50 51  1  0  0  0
 50121  1  0  0  0
 50122  1  0  0  0
 51 52  1  0  0  0
 51123  1  0  0  0
 51124  1  0  0  0
 52125  1  0  0  0
 52126  1  0  0  0
 53 54  1  0  0  0
 54 55  2  0  0  0
 54127  1  0  0  0
 55 57  1  0  0  0
 55128  1  0  0  0
 56 69  2  0  0  0
 57 58  2  0  0  0
 57129  1  0  0  0
 58130  1  0  0  0
 59 60  1  0  0  0
 59 61  1  0  0  0
 59 62  1  0  0  0
 60131  1  0  0  0
 60132  1  0  0  0
 60133  1  0  0  0
 61134  1  0  0  0
 61135  1  0  0  0
 61136  1  0  0  0
 62137  1  0  0  0
 62138  1  0  0  0
 62139  1  0  0  0
 63 65  1  0  0  0
 63140  1  0  0  0
 63141  1  0  0  0
 63142  1  0  0  0
 64143  1  0  0  0
 65144  1  0  0  0
 68 82  1  0  0  0
 71 72  2  0  0  0
 71 74  1  0  0  0
 71145  1  0  0  0
 72 75  1  0  0  0
 72146  1  0  0  0
 73 74  2  0  0  0
 73 76  1  0  0  0
 73 81  1  0  0  0
 74 83  1  0  0  0
 75 76  2  0  0  0
 75 84  1  0  0  0
 76 85  1  0  0  0
 77 78  1  0  0  0
 77 79  1  0  0  0
 77147  1  0  0  0
 77148  1  0  0  0
 78 80  1  0  0  0
 78149  1  0  0  0
 78150  1  0  0  0
 79 83  1  0  0  0
 79151  1  0  0  0
 79152  1  0  0  0
 80 82  1  0  0  0
 80 83  1  0  0  0
 80153  1  0  0  0
 81154  1  0  0  0
 81155  1  0  0  0
 81156  1  0  0  0
 82157  1  0  0  0
 82158  1  0  0  0
 84159  1  0  0  0
M  ISO  4   1 100  68 101  82 101  84 100
M  END
> <chiral flag>
0

> <version>
0

> <s_m_source_file>
/data/baiqing/PycharmProjects/Reinvent-master-3.2/result/LINK_invent/BTK/process_docking_weight1_custom_product_contain_oxygen_bond_distance_aromatic_linkinvent_7_9_3/rearranged_h_0024.sdf

> <i_m_source_file_index>
62

> <r_mmod_Potential_Energy-OPLS-2005>
687.456359863281

> <r_mmod_Stretch_Energy-OPLS-2005>
261.196258544922

> <r_mmod_Bend_Energy-OPLS-2005>
398.463439941406

> <r_mmod_Torsional_Energy-OPLS-2005>
306.689453125

> <r_mmod_Improper_Torsional_Energy-OPLS-2005>
10.5806922912598

> <r_mmod_Van_der_Waal_Energy-OPLS-2005>
158.726608276367

> <r_mmod_Electrostatic_Energy-OPLS-2005>
-403.007263183594

> <r_mmod_Solvation_Energy-OPLS-2005>
-228.877258300781

> <b_mmod_Minimization_Converged-OPLS-2005>
0

> <r_mmod_RMS_Derivative-OPLS-2005>
6.68706941604614

$$$$
62
                    3D
 Structure written by MMmdl.
157166  0  0  1  0            999 V2000
  -30.8572  -14.5659   20.0247 C   0  0  0  0  0  0
  -30.5016  -12.2932   19.3574 C   0  0  0  0  0  0
  -29.4280  -12.0088   18.2627 C   0  0  0  0  0  0
  -28.0630  -12.7203   18.3510 C   0  0  0  0  0  0
  -27.6681  -13.2923   19.7521 C   0  0  2  0  0  0
  -28.7773  -13.2089   20.8416 C   0  0  0  0  0  0
  -25.2522  -13.8501   20.4783 C   0  0  0  0  0  0
  -24.1918  -13.0818   20.8609 C   0  0  0  0  0  0
  -24.6686  -11.7180   20.8426 C   0  0  0  0  0  0
  -23.9706  -10.4536   21.0406 C   0  0  0  0  0  0
  -24.4240   -9.4527   21.9134 C   0  0  0  0  0  0
  -23.6782   -8.2636   22.0785 C   0  0  0  0  0  0
  -22.4710   -8.0699   21.3673 C   0  0  0  0  0  0
  -22.0517   -9.0755   20.4644 C   0  0  0  0  0  0
  -22.7906  -10.2526   20.3012 C   0  0  0  0  0  0
  -21.7073   -6.1089   22.5309 C   0  0  0  0  0  0
  -21.3994   -6.5798   23.8211 C   0  0  0  0  0  0
  -21.3644   -5.6879   24.9125 C   0  0  0  0  0  0
  -21.6042   -4.3173   24.7116 C   0  0  0  0  0  0
  -21.8893   -3.8341   23.4151 C   0  0  0  0  0  0
  -21.9279   -4.7271   22.3282 C   0  0  0  0  0  0
  -22.7968  -13.5462   21.1669 C   0  0  0  0  0  0
  -22.1762   -4.2502   21.0926 F   0  0  0  0  0  0
  -21.5654   -3.4521   25.7597 F   0  0  0  0  0  0
  -30.0624  -13.4410   20.1206 N   0  0  0  0  0  0
  -26.3099  -12.9805   20.2418 N   0  0  0  0  0  0
  -25.9434  -11.6921   20.4576 N   0  0  0  0  0  0
  -22.0962  -12.8283   22.0260 N   0  0  0  0  0  0
  -25.4230  -15.2226   20.2569 N   0  0  0  0  0  0
  -31.7889  -14.8032   20.7898 O   0  0  0  0  0  0
  -21.6934   -6.9339   21.4286 O   0  0  0  0  0  0
  -22.3568  -14.5872   20.6741 O   0  0  0  0  0  0
  -24.6297  -31.8653   23.2211 C   0  0  0  0  0  0
  -25.9148  -32.4873   23.8524 C   0  0  1  0  0  0
  -27.2199  -27.2688   20.0059 C   0  0  0  0  0  0
  -25.5900  -33.8682   24.2362 N   0  0  0  0  0  0
  -23.4286  -30.4978   21.5666 C   0  0  2  0  0  0
  -24.8728  -28.9786   20.1152 C   0  0  0  0  0  0
  -22.7483  -29.4617   22.5030 C   0  0  0  0  0  0
  -18.0315  -28.1396   22.8506 C   0  0  0  0  0  0
  -24.1460  -36.7303   23.2633 C   0  0  0  0  0  0
  -25.9924  -30.7665   21.4154 C   0  0  0  0  0  0
  -26.0603  -29.4111   20.7206 C   0  0  0  0  0  0
  -27.2334  -28.5713   20.6571 C   0  0  0  0  0  0
  -25.9757  -26.9179   19.4163 C   0  0  0  0  0  0
  -24.8395  -27.7491   19.4601 C   0  0  0  0  0  0
  -23.6450  -29.8735   20.1759 C   0  0  0  0  0  0
  -25.4108  -36.3203   24.0349 C   0  0  1  0  0  0
  -20.5889  -28.3713   23.1312 C   0  0  2  0  0  0
  -20.6817  -26.9465   22.5448 C   0  0  0  0  0  0
  -19.5780  -26.6383   21.5255 C   0  0  0  0  0  0
  -18.1938  -26.7934   22.1636 C   0  0  0  0  0  0
  -19.1567  -28.8884   23.2869 C   0  0  0  0  0  0
  -18.9462  -30.1470   23.8893 C   0  0  0  0  0  0
  -17.6459  -30.6597   24.0567 C   0  0  0  0  0  0
  -25.9044  -34.9541   23.5167 C   0  0  0  0  0  0
  -16.5348  -29.9083   23.6348 C   0  0  0  0  0  0
  -16.7282  -28.6495   23.0360 C   0  0  0  0  0  0
  -26.4504  -31.6734   25.0938 C   0  0  0  0  0  0
  -25.3643  -31.3906   26.1603 C   0  0  0  0  0  0
  -27.0358  -30.3135   24.6488 C   0  0  0  0  0  0
  -27.6051  -32.4523   25.7626 C   0  0  0  0  0  0
  -27.5605  -37.1817   24.8443 C   0  0  0  0  0  0
  -21.4176  -29.3031   22.3695 N   0  0  0  0  0  0
  -26.4295  -37.3893   23.9430 N   0  0  0  0  0  0
  -24.7071  -31.0555   22.1226 N   0  0  0  0  0  0
  -23.4237  -28.8136   23.3101 O   0  0  0  0  0  0
  -28.3287  -26.3596   19.9225 O   0  0  0  0  0  0
  -26.5617  -34.8958   22.4737 O   0  0  0  0  0  0
  -23.5397  -32.1521   23.7426 O   0  0  0  0  0  0
  -29.2971  -20.1721   17.1788 C   0  0  0  0  0  0
  -29.5345  -19.0327   16.3873 C   0  0  0  0  0  0
  -30.3313  -19.0642   19.0787 C   0  0  0  0  0  0
  -29.6769  -20.2435   18.5755 C   0  0  0  0  0  0
  -30.5027  -17.8795   18.2806 C   0  0  0  0  0  0
  -30.0045  -17.8706   16.9611 C   0  0  0  0  0  0
  -28.2178  -23.6703   20.2615 C   0  0  0  0  0  0
  -29.3322  -24.0777   18.6756 C   0  0  0  0  0  0
  -28.1993  -24.9420   19.3537 C   0  0  2  0  0  0
  -31.3827  -16.6741   18.7059 C   0  0  0  0  0  0
  -29.4208  -21.5090   19.5121 C   0  0  0  0  0  0
  -30.7669  -15.2930   18.8490 N   0  0  0  0  0  0
  -28.6700  -22.8086   19.1435 N   0  3  1  0  0  0
  -30.0127  -16.7281   16.2402 F   0  0  0  0  0  0
  -31.4471  -12.4228   18.8249 H   0  0  0  0  0  0
  -30.6947  -11.4399   20.0443 H   0  0  0  0  0  0
  -29.0846  -10.9587   18.3309 H   0  0  0  0  0  0
  -29.8863  -12.0786   17.2411 H   0  0  0  0  0  0
  -27.2835  -12.0574   17.9293 H   0  0  0  0  0  0
  -28.1895  -13.5996   17.7097 H   0  0  0  0  0  0
  -27.6099  -14.3590   19.4746 H   0  0  0  0  0  0
  -28.7357  -12.1476   21.1848 H   0  0  0  0  0  0
  -28.5502  -13.8748   21.7021 H   0  0  0  0  0  0
  -25.3639   -9.5832   22.4385 H   0  0  0  0  0  0
  -24.0575   -7.5078   22.7562 H   0  0  0  0  0  0
  -21.1527   -8.9649   19.8750 H   0  0  0  0  0  0
  -22.4988  -11.0225   19.5987 H   0  0  0  0  0  0
  -21.1872   -7.6261   23.9855 H   0  0  0  0  0  0
  -21.1317   -6.0476   25.9075 H   0  0  0  0  0  0
  -22.0613   -2.7830   23.2589 H   0  0  0  0  0  0
  -22.4863  -11.9914   22.4208 H   0  0  0  0  0  0
  -21.1327  -13.1121   22.2174 H   0  0  0  0  0  0
  -24.7133  -15.9563   20.2051 H   0  0  0  0  0  0
  -26.2101  -15.5134   19.6985 H   0  0  0  0  0  0
  -26.7215  -32.5516   23.1215 H   0  0  0  0  0  0
  -25.0056  -33.9956   25.0519 H   0  0  0  0  0  0
  -22.7231  -31.3249   21.4463 H   0  0  0  0  0  0
  -23.3880  -35.9478   23.3181 H   0  0  0  0  0  0
  -24.3565  -36.9049   22.2082 H   0  0  0  0  0  0
  -23.7017  -37.6356   23.6731 H   0  0  0  0  0  0
  -26.1604  -31.5644   20.7001 H   0  0  0  0  0  0
  -26.8391  -30.7711   22.0805 H   0  0  0  0  0  0
  -28.1436  -28.9177   21.1123 H   0  0  0  0  0  0
  -25.8101  -26.0092   18.8640 H   0  0  0  0  0  0
  -23.9290  -27.4186   18.9620 H   0  0  0  0  0  0
  -23.7865  -30.6780   19.4546 H   0  0  0  0  0  0
  -22.7532  -29.3318   19.8448 H   0  0  0  0  0  0
  -25.1284  -36.2096   25.0850 H   0  0  0  0  0  0
  -20.9955  -28.3286   24.1417 H   0  0  0  0  0  0
  -20.5758  -26.2319   23.3638 H   0  0  0  0  0  0
  -21.6676  -26.7505   22.1199 H   0  0  0  0  0  0
  -19.6948  -25.6263   21.1311 H   0  0  0  0  0  0
  -19.6721  -27.3173   20.6759 H   0  0  0  0  0  0
  -17.4227  -26.6710   21.3996 H   0  0  0  0  0  0
  -18.0295  -26.0063   22.9018 H   0  0  0  0  0  0
  -19.7915  -30.7306   24.2235 H   0  0  0  0  0  0
  -17.4993  -31.6279   24.5168 H   0  0  0  0  0  0
  -15.5330  -30.2973   23.7687 H   0  0  0  0  0  0
  -15.8659  -28.0807   22.7073 H   0  0  0  0  0  0
  -24.5895  -30.7162   25.7916 H   0  0  0  0  0  0
  -24.8744  -32.3078   26.4878 H   0  0  0  0  0  0
  -25.7941  -30.9216   27.0459 H   0  0  0  0  0  0
  -26.2948  -29.6823   24.1548 H   0  0  0  0  0  0
  -27.3994  -29.7514   25.5093 H   0  0  0  0  0  0
  -27.8879  -30.4389   23.9807 H   0  0  0  0  0  0
  -27.2719  -33.3948   26.1948 H   0  0  0  0  0  0
  -28.3927  -32.6842   25.0460 H   0  0  0  0  0  0
  -28.0576  -31.8798   26.5703 H   0  0  0  0  0  0
  -28.2573  -38.0172   24.7687 H   0  0  0  0  0  0
  -28.1169  -36.2734   24.6067 H   0  0  0  0  0  0
  -27.2332  -37.1206   25.8833 H   0  0  0  0  0  0
  -20.9403  -29.8810   21.6918 H   0  0  0  0  0  0
  -26.0209  -38.2954   24.1532 H   0  0  0  0  0  0
  -28.8650  -21.0296   16.6728 H   0  0  0  0  0  0
  -29.3225  -18.9425   15.3228 H   0  0  0  0  0  0
  -30.6450  -19.0597   20.1444 H   0  0  0  0  0  0
  -27.2336  -23.4116   20.6727 H   0  0  0  0  0  0
  -28.9229  -23.7142   21.0670 H   0  0  0  0  0  0
  -30.3331  -24.1856   19.0997 H   0  0  0  0  0  0
  -29.3706  -24.1662   17.5955 H   0  0  0  0  0  0
  -27.3885  -24.8941   18.6490 H   0  0  0  0  0  0
  -32.2697  -16.6594   18.0592 H   0  0  0  0  0  0
  -31.8552  -16.9426   19.6453 H   0  0  0  0  0  0
  -30.2963  -21.7401   20.1066 H   0  0  0  0  0  0
  -28.6844  -21.0897   20.2149 H   0  0  0  0  0  0
  -30.6695  -14.7287   17.9928 H   0  0  0  0  0  0
  -27.8442  -22.5808   18.6135 H   0  0  0  0  0  0
  1 25  1  0  0  0
  1 30  2  0  0  0
  1 82  1  0  0  0
  2  3  1  0  0  0
  2 25  1  0  0  0
  2 85  1  0  0  0
  2 86  1  0  0  0
  3  4  1  0  0  0
  3 87  1  0  0  0
  3 88  1  0  0  0
  4  5  1  0  0  0
  4 89  1  0  0  0
  4 90  1  0  0  0
  5  6  1  0  0  0
  5 26  1  0  0  0
  5 91  1  0  0  0
  6 25  1  0  0  0
  6 92  1  0  0  0
  6 93  1  0  0  0
  7  8  2  0  0  0
  7 26  1  0  0  0
  7 29  1  0  0  0
  8  9  1  0  0  0
  8 22  1  0  0  0
  9 10  1  0  0  0
  9 27  2  0  0  0
 10 11  2  0  0  0
 10 15  1  0  0  0
 11 12  1  0  0  0
 11 94  1  0  0  0
 12 13  2  0  0  0
 12 95  1  0  0  0
 13 14  1  0  0  0
 13 31  1  0  0  0
 14 15  2  0  0  0
 14 96  1  0  0  0
 15 97  1  0  0  0
 16 17  2  0  0  0
 16 21  1  0  0  0
 16 31  1  0  0  0
 17 18  1  0  0  0
 17 98  1  0  0  0
 18 19  2  0  0  0
 18 99  1  0  0  0
 19 20  1  0  0  0
 19 24  1  0  0  0
 20 21  2  0  0  0
 20100  1  0  0  0
 21 23  1  0  0  0
 22 28  1  0  0  0
 22 32  2  0  0  0
 26 27  1  0  0  0
 28101  1  0  0  0
 28102  1  0  0  0
 29103  1  0  0  0
 29104  1  0  0  0
 33 34  1  0  0  0
 33 66  1  0  0  0
 33 70  2  0  0  0
 34 36  1  0  0  0
 34 59  1  0  0  0
 34105  1  0  0  0
 35 44  2  0  0  0
 35 45  1  0  0  0
 35 68  1  0  0  0
 36 56  1  0  0  0
 36106  1  0  0  0
 37 39  1  0  0  0
 37 47  1  0  0  0
 37 66  1  0  0  0
 37107  1  0  0  0
 38 43  2  0  0  0
 38 46  1  0  0  0
 38 47  1  0  0  0
 39 64  1  0  0  0
 39 67  2  0  0  0
 40 52  1  0  0  0
 40 53  2  0  0  0
 40 58  1  0  0  0
 41108  1  0  0  0
 41109  1  0  0  0
 41110  1  0  0  0
 41 48  1  0  0  0
 42 43  1  0  0  0
 42 66  1  0  0  0
 42111  1  0  0  0
 42112  1  0  0  0
 43 44  1  0  0  0
 44113  1  0  0  0
 45 46  2  0  0  0
 45114  1  0  0  0
 46115  1  0  0  0
 47116  1  0  0  0
 47117  1  0  0  0
 48 56  1  0  0  0
 48 65  1  0  0  0
 48118  1  0  0  0
 49 50  1  0  0  0
 49 53  1  0  0  0
 49 64  1  0  0  0
 49119  1  0  0  0
 50 51  1  0  0  0
 50120  1  0  0  0
 50121  1  0  0  0
 51 52  1  0  0  0
 51122  1  0  0  0
 51123  1  0  0  0
 52124  1  0  0  0
 52125  1  0  0  0
 53 54  1  0  0  0
 54 55  2  0  0  0
 54126  1  0  0  0
 55 57  1  0  0  0
 55127  1  0  0  0
 56 69  2  0  0  0
 57 58  2  0  0  0
 57128  1  0  0  0
 58129  1  0  0  0
 59 60  1  0  0  0
 59 61  1  0  0  0
 59 62  1  0  0  0
 60130  1  0  0  0
 60131  1  0  0  0
 60132  1  0  0  0
 61133  1  0  0  0
 61134  1  0  0  0
 61135  1  0  0  0
 62136  1  0  0  0
 62137  1  0  0  0
 62138  1  0  0  0
 63 65  1  0  0  0
 63139  1  0  0  0
 63140  1  0  0  0
 63141  1  0  0  0
 64142  1  0  0  0
 65143  1  0  0  0
 68 79  1  0  0  0
 71 72  2  0  0  0
 71 74  1  0  0  0
 71144  1  0  0  0
 72 76  1  0  0  0
 72145  1  0  0  0
 73 74  2  0  0  0
 73 75  1  0  0  0
 73146  1  0  0  0
 74 81  1  0  0  0
 75 76  2  0  0  0
 75 80  1  0  0  0
 76 84  1  0  0  0
 77 79  1  0  0  0
 77 83  1  0  0  0
 77147  1  0  0  0
 77148  1  0  0  0
 78 79  1  0  0  0
 78 83  1  0  0  0
 78149  1  0  0  0
 78150  1  0  0  0
 79151  1  0  0  0
 80 82  1  0  0  0
 80152  1  0  0  0
 80153  1  0  0  0
 81154  1  0  0  0
 81155  1  0  0  0
 81 83  1  0  0  0
 82156  1  0  0  0
 83157  1  0  0  0
M  CHG  1  83   1
M  ISO  4   1 100  68 101  79 101  82 100
M  END
> <chiral flag>
0

> <version>
0

> <s_m_source_file>
/data/baiqing/PycharmProjects/Reinvent-master-3.2/result/LINK_invent/BTK/process_docking_weight1_custom_product_contain_oxygen_bond_distance_aromatic_linkinvent_7_9_3/rearranged_h_0024.sdf

> <i_m_source_file_index>
63

> <r_mmod_Potential_Energy-OPLS-2005>
333.469848632812

> <r_mmod_Stretch_Energy-OPLS-2005>
146.039505004883

> <r_mmod_Bend_Energy-OPLS-2005>
280.587799072266

> <r_mmod_Torsional_Energy-OPLS-2005>
327.613098144531

> <r_mmod_Improper_Torsional_Energy-OPLS-2005>
11.0258493423462

> <r_mmod_Van_der_Waal_Energy-OPLS-2005>
148.576080322266

> <r_mmod_Electrostatic_Energy-OPLS-2005>
-324.786560058594

> <r_mmod_Solvation_Energy-OPLS-2005>
-486.254364013672

> <b_mmod_Minimization_Converged-OPLS-2005>
0

> <r_mmod_RMS_Derivative-OPLS-2005>
45.6913795471191

$$$$
63
                    3D
 Structure written by MMmdl.
159168  0  0  1  0            999 V2000
  -30.5211  -15.0207   20.4065 C   0  0  0  0  0  0
  -30.4381  -12.6373   19.5011 C   0  0  0  0  0  0
  -29.5223  -12.5335   18.2594 C   0  0  0  0  0  0
  -28.0597  -12.3055   18.6828 C   0  0  0  0  0  0
  -27.6231  -13.2537   19.8298 C   0  0  2  0  0  0
  -28.6636  -13.3220   20.9669 C   0  0  0  0  0  0
  -25.2438  -13.8216   20.5707 C   0  0  0  0  0  0
  -24.1765  -13.0434   20.9238 C   0  0  0  0  0  0
  -24.6388  -11.6922   20.8752 C   0  0  0  0  0  0
  -23.9074  -10.4291   21.0407 C   0  0  0  0  0  0
  -24.3624   -9.4207   21.9183 C   0  0  0  0  0  0
  -23.6298   -8.2243   22.0752 C   0  0  0  0  0  0
  -22.4280   -8.0281   21.3543 C   0  0  0  0  0  0
  -21.9918   -9.0252   20.4644 C   0  0  0  0  0  0
  -22.7247  -10.2131   20.3055 C   0  0  0  0  0  0
  -21.6852   -6.0735   22.5277 C   0  0  0  0  0  0
  -21.4017   -6.5639   23.8209 C   0  0  0  0  0  0
  -21.3658   -5.6789   24.9171 C   0  0  0  0  0  0
  -21.6047   -4.3051   24.7221 C   0  0  0  0  0  0
  -21.8819   -3.8146   23.4339 C   0  0  0  0  0  0
  -21.9195   -4.6965   22.3398 C   0  0  0  0  0  0
  -22.7788  -13.5206   21.1890 C   0  0  0  0  0  0
  -22.1663   -4.2151   21.0974 F   0  0  0  0  0  0
  -21.5627   -3.4534   25.7733 F   0  0  0  0  0  0
  -29.9287  -13.7521   20.3576 N   0  0  0  0  0  0
  -26.2853  -12.9458   20.3210 N   0  0  0  0  0  0
  -25.9319  -11.6582   20.5721 N   0  0  0  0  0  0
  -22.0441  -12.8187   22.0444 N   0  0  0  0  0  0
  -25.4081  -15.1945   20.4118 N   0  0  0  0  0  0
  -31.7350  -15.0503   20.1727 O   0  0  0  0  0  0
  -21.6640   -6.8879   21.4240 O   0  0  0  0  0  0
  -22.3472  -14.5508   20.6733 O   0  0  0  0  0  0
  -24.6487  -31.8376   23.1824 C   0  0  0  0  0  0
  -25.9235  -32.4661   23.8235 C   0  0  1  0  0  0
  -27.2184  -27.0845   20.1621 C   0  0  0  0  0  0
  -25.5955  -33.8468   24.2151 N   0  0  0  0  0  0
  -23.4552  -30.4540   21.5293 C   0  0  2  0  0  0
  -24.9054  -28.8700   20.1095 C   0  0  0  0  0  0
  -22.7595  -29.4513   22.4840 C   0  0  0  0  0  0
  -18.0308  -28.1396   22.8456 C   0  0  0  0  0  0
  -24.1499  -36.7244   23.2644 C   0  0  0  0  0  0
  -26.0135  -30.6956   21.3877 C   0  0  0  0  0  0
  -26.0843  -29.3015   20.7309 C   0  0  0  0  0  0
  -27.2401  -28.4258   20.7378 C   0  0  0  0  0  0
  -26.0146  -26.7666   19.4968 C   0  0  0  0  0  0
  -24.8861  -27.6185   19.4750 C   0  0  0  0  0  0
  -23.6843  -29.7782   20.1506 C   0  0  0  0  0  0
  -25.4128  -36.3008   24.0316 C   0  0  1  0  0  0
  -20.5922  -28.3723   23.1220 C   0  0  2  0  0  0
  -20.6784  -26.9419   22.5398 C   0  0  0  0  0  0
  -19.5765  -26.6373   21.5203 C   0  0  0  0  0  0
  -18.1948  -26.7929   22.1612 C   0  0  0  0  0  0
  -19.1567  -28.8877   23.2821 C   0  0  0  0  0  0
  -18.9484  -30.1473   23.8848 C   0  0  0  0  0  0
  -17.6481  -30.6583   24.0557 C   0  0  0  0  0  0
  -25.9080  -34.9386   23.5046 C   0  0  0  0  0  0
  -16.5369  -29.9077   23.6337 C   0  0  0  0  0  0
  -16.7292  -28.6503   23.0341 C   0  0  0  0  0  0
  -26.4533  -31.6551   25.0703 C   0  0  0  0  0  0
  -25.3701  -31.3764   26.1389 C   0  0  0  0  0  0
  -27.0413  -30.2942   24.6324 C   0  0  0  0  0  0
  -27.6050  -32.4332   25.7495 C   0  0  0  0  0  0
  -27.5575  -37.1775   24.8465 C   0  0  0  0  0  0
  -21.4279  -29.3042   22.3590 N   0  0  0  0  0  0
  -26.4281  -37.3729   23.9415 N   0  0  0  0  0  0
  -24.7262  -31.0181   22.0885 N   0  0  0  0  0  0
  -23.4211  -28.8076   23.3022 O   0  0  0  0  0  0
  -28.2594  -26.0715   20.2449 O   0  0  0  0  0  0
  -26.5673  -34.8893   22.4630 O   0  0  0  0  0  0
  -23.5596  -32.1285   23.7010 O   0  0  0  0  0  0
  -30.8513  -20.5975   20.5442 C   0  0  0  0  0  0
  -31.3797  -18.1695   20.6224 C   0  0  0  0  0  0
  -29.0912  -18.9347   20.3671 C   0  0  0  0  0  0
  -29.4590  -20.4048   20.4203 C   0  0  0  0  0  0
  -30.0350  -17.7626   20.4803 C   0  0  0  0  0  0
  -31.7713  -19.5279   20.6434 C   0  0  0  0  0  0
  -28.1529  -22.3948   22.6346 C   0  0  0  0  0  0
  -29.2195  -23.3136   22.0238 C   0  0  0  0  0  0
  -27.6054  -21.5582   21.4678 C   0  0  0  0  0  0
  -28.9976  -23.1862   20.5148 C   0  0  2  0  0  0
  -27.6351  -18.5743   20.1333 C   0  0  0  0  0  0
  -27.9974  -24.5196   20.0802 C   0  0  0  0  0  0
  -28.5967  -21.6516   20.4002 N   0  0  0  0  0  0
  -29.7358  -16.2288   20.4877 N   0  0  0  0  0  0
  -33.4492  -19.8979   20.8117 Cl  0  0  0  0  0  0
  -31.4684  -12.8045   19.1835 H   0  0  0  0  0  0
  -30.4483  -11.6975   20.0549 H   0  0  0  0  0  0
  -29.8543  -11.7236   17.6088 H   0  0  0  0  0  0
  -29.5966  -13.4495   17.6714 H   0  0  0  0  0  0
  -27.9731  -11.2692   19.0122 H   0  0  0  0  0  0
  -27.3929  -12.4080   17.8256 H   0  0  0  0  0  0
  -27.5728  -14.2457   19.3798 H   0  0  0  0  0  0
  -28.7678  -12.3585   21.4676 H   0  0  0  0  0  0
  -28.3483  -14.0361   21.7293 H   0  0  0  0  0  0
  -25.2769   -9.5681   22.4759 H   0  0  0  0  0  0
  -24.0001   -7.4636   22.7473 H   0  0  0  0  0  0
  -21.0848   -8.8772   19.8949 H   0  0  0  0  0  0
  -22.3704  -10.9670   19.6166 H   0  0  0  0  0  0
  -21.2010   -7.6146   23.9714 H   0  0  0  0  0  0
  -21.1481   -6.0517   25.9073 H   0  0  0  0  0  0
  -22.0601   -2.7610   23.2836 H   0  0  0  0  0  0
  -22.4062  -11.9852   22.4834 H   0  0  0  0  0  0
  -21.1059  -13.1207   22.2656 H   0  0  0  0  0  0
  -24.6297  -15.8371   20.5104 H   0  0  0  0  0  0
  -26.2348  -15.6310   20.0286 H   0  0  0  0  0  0
  -26.7299  -32.5247   23.0956 H   0  0  0  0  0  0
  -25.0070  -33.9572   25.0277 H   0  0  0  0  0  0
  -22.7607  -31.2812   21.3689 H   0  0  0  0  0  0
  -23.3761  -35.9577   23.3289 H   0  0  0  0  0  0
  -24.3576  -36.8900   22.2060 H   0  0  0  0  0  0
  -23.7256  -37.6434   23.6699 H   0  0  0  0  0  0
  -26.1739  -31.4471   20.6128 H   0  0  0  0  0  0
  -26.8814  -30.7474   22.0337 H   0  0  0  0  0  0
  -28.1355  -28.7489   21.2500 H   0  0  0  0  0  0
  -25.9128  -25.8075   19.0100 H   0  0  0  0  0  0
  -23.9880  -27.2828   18.9755 H   0  0  0  0  0  0
  -23.8251  -30.5499   19.3931 H   0  0  0  0  0  0
  -22.7983  -29.2232   19.8380 H   0  0  0  0  0  0
  -25.1318  -36.1824   25.0808 H   0  0  0  0  0  0
  -21.0002  -28.3310   24.1348 H   0  0  0  0  0  0
  -20.5671  -26.2335   23.3620 H   0  0  0  0  0  0
  -21.6652  -26.7412   22.1208 H   0  0  0  0  0  0
  -19.6935  -25.6277   21.1252 H   0  0  0  0  0  0
  -19.6712  -27.3160   20.6717 H   0  0  0  0  0  0
  -17.4215  -26.6658   21.4021 H   0  0  0  0  0  0
  -18.0356  -26.0083   22.9025 H   0  0  0  0  0  0
  -19.7963  -30.7293   24.2200 H   0  0  0  0  0  0
  -17.5036  -31.6261   24.5165 H   0  0  0  0  0  0
  -15.5369  -30.2963   23.7690 H   0  0  0  0  0  0
  -15.8693  -28.0813   22.7074 H   0  0  0  0  0  0
  -24.5886  -30.7104   25.7707 H   0  0  0  0  0  0
  -24.8880  -32.2956   26.4726 H   0  0  0  0  0  0
  -25.7962  -30.8990   27.0221 H   0  0  0  0  0  0
  -26.3050  -29.6643   24.1317 H   0  0  0  0  0  0
  -27.3996  -29.7262   25.4918 H   0  0  0  0  0  0
  -27.8968  -30.4169   23.9679 H   0  0  0  0  0  0
  -27.2634  -33.3663   26.1988 H   0  0  0  0  0  0
  -28.3901  -32.6842   25.0350 H   0  0  0  0  0  0
  -28.0674  -31.8512   26.5477 H   0  0  0  0  0  0
  -28.2571  -38.0088   24.7501 H   0  0  0  0  0  0
  -28.1087  -36.2609   24.6299 H   0  0  0  0  0  0
  -27.2286  -37.1428   25.8864 H   0  0  0  0  0  0
  -20.9510  -29.8755   21.6754 H   0  0  0  0  0  0
  -26.0144  -38.2798   24.1407 H   0  0  0  0  0  0
  -31.2530  -21.5979   20.5846 H   0  0  0  0  0  0
  -32.1586  -17.4301   20.7241 H   0  0  0  0  0  0
  -27.3515  -22.9622   23.1098 H   0  0  0  0  0  0
  -28.5970  -21.7574   23.4004 H   0  0  0  0  0  0
  -30.2129  -22.9522   22.2918 H   0  0  0  0  0  0
  -29.1472  -24.3409   22.3840 H   0  0  0  0  0  0
  -26.6622  -21.9741   21.1098 H   0  0  0  0  0  0
  -27.3941  -20.5434   21.8036 H   0  0  0  0  0  0
  -29.9459  -23.3322   19.9958 H   0  0  0  0  0  0
  -27.1455  -18.3222   21.0734 H   0  0  0  0  0  0
  -27.5538  -17.7184   19.4632 H   0  0  0  0  0  0
  -27.0926  -19.3958   19.6652 H   0  0  0  0  0  0
  -27.0444  -24.3485   20.5824 H   0  0  0  0  0  0
  -27.7793  -24.3822   19.0211 H   0  0  0  0  0  0
  -28.7530  -16.0157   20.5607 H   0  0  0  0  0  0
  1 25  1  0  0  0
  1 30  2  0  0  0
  1 84  1  0  0  0
  2  3  1  0  0  0
  2 25  1  0  0  0
  2 86  1  0  0  0
  2 87  1  0  0  0
  3  4  1  0  0  0
  3 88  1  0  0  0
  3 89  1  0  0  0
  4  5  1  0  0  0
  4 90  1  0  0  0
  4 91  1  0  0  0
  5  6  1  0  0  0
  5 26  1  0  0  0
  5 92  1  0  0  0
  6 25  1  0  0  0
  6 93  1  0  0  0
  6 94  1  0  0  0
  7  8  2  0  0  0
  7 26  1  0  0  0
  7 29  1  0  0  0
  8  9  1  0  0  0
  8 22  1  0  0  0
  9 10  1  0  0  0
  9 27  2  0  0  0
 10 11  2  0  0  0
 10 15  1  0  0  0
 11 12  1  0  0  0
 11 95  1  0  0  0
 12 13  2  0  0  0
 12 96  1  0  0  0
 13 14  1  0  0  0
 13 31  1  0  0  0
 14 15  2  0  0  0
 14 97  1  0  0  0
 15 98  1  0  0  0
 16 17  2  0  0  0
 16 21  1  0  0  0
 16 31  1  0  0  0
 17 18  1  0  0  0
 17 99  1  0  0  0
 18 19  2  0  0  0
 18100  1  0  0  0
 19 20  1  0  0  0
 19 24  1  0  0  0
 20 21  2  0  0  0
 20101  1  0  0  0
 21 23  1  0  0  0
 22 28  1  0  0  0
 22 32  2  0  0  0
 26 27  1  0  0  0
 28102  1  0  0  0
 28103  1  0  0  0
 29104  1  0  0  0
 29105  1  0  0  0
 33 34  1  0  0  0
 33 66  1  0  0  0
 33 70  2  0  0  0
 34 36  1  0  0  0
 34 59  1  0  0  0
 34106  1  0  0  0
 35 44  2  0  0  0
 35 45  1  0  0  0
 35 68  1  0  0  0
 36 56  1  0  0  0
 36107  1  0  0  0
 37 39  1  0  0  0
 37 47  1  0  0  0
 37 66  1  0  0  0
 37108  1  0  0  0
 38 43  2  0  0  0
 38 46  1  0  0  0
 38 47  1  0  0  0
 39 64  1  0  0  0
 39 67  2  0  0  0
 40 52  1  0  0  0
 40 53  2  0  0  0
 40 58  1  0  0  0
 41109  1  0  0  0
 41110  1  0  0  0
 41111  1  0  0  0
 41 48  1  0  0  0
 42 43  1  0  0  0
 42 66  1  0  0  0
 42112  1  0  0  0
 42113  1  0  0  0
 43 44  1  0  0  0
 44114  1  0  0  0
 45 46  2  0  0  0
 45115  1  0  0  0
 46116  1  0  0  0
 47117  1  0  0  0
 47118  1  0  0  0
 48 56  1  0  0  0
 48 65  1  0  0  0
 48119  1  0  0  0
 49 50  1  0  0  0
 49 53  1  0  0  0
 49 64  1  0  0  0
 49120  1  0  0  0
 50 51  1  0  0  0
 50121  1  0  0  0
 50122  1  0  0  0
 51 52  1  0  0  0
 51123  1  0  0  0
 51124  1  0  0  0
 52125  1  0  0  0
 52126  1  0  0  0
 53 54  1  0  0  0
 54 55  2  0  0  0
 54127  1  0  0  0
 55 57  1  0  0  0
 55128  1  0  0  0
 56 69  2  0  0  0
 57 58  2  0  0  0
 57129  1  0  0  0
 58130  1  0  0  0
 59 60  1  0  0  0
 59 61  1  0  0  0
 59 62  1  0  0  0
 60131  1  0  0  0
 60132  1  0  0  0
 60133  1  0  0  0
 61134  1  0  0  0
 61135  1  0  0  0
 61136  1  0  0  0
 62137  1  0  0  0
 62138  1  0  0  0
 62139  1  0  0  0
 63 65  1  0  0  0
 63140  1  0  0  0
 63141  1  0  0  0
 63142  1  0  0  0
 64143  1  0  0  0
 65144  1  0  0  0
 68 82  1  0  0  0
 71 74  2  0  0  0
 71 76  1  0  0  0
 71145  1  0  0  0
 72 75  1  0  0  0
 72 76  2  0  0  0
 72146  1  0  0  0
 73 74  1  0  0  0
 73 75  2  0  0  0
 73 81  1  0  0  0
 74 83  1  0  0  0
 75 84  1  0  0  0
 76 85  1  0  0  0
 77 78  1  0  0  0
 77 79  1  0  0  0
 77147  1  0  0  0
 77148  1  0  0  0
 78 80  1  0  0  0
 78149  1  0  0  0
 78150  1  0  0  0
 79 83  1  0  0  0
 79151  1  0  0  0
 79152  1  0  0  0
 80 82  1  0  0  0
 80 83  1  0  0  0
 80153  1  0  0  0
 81154  1  0  0  0
 81155  1  0  0  0
 81156  1  0  0  0
 82157  1  0  0  0
 82158  1  0  0  0
 84159  1  0  0  0
M  ISO  4   1 100  68 101  82 101  84 100
M  END
> <chiral flag>
0

> <version>
0

> <s_m_source_file>
/data/baiqing/PycharmProjects/Reinvent-master-3.2/result/LINK_invent/BTK/process_docking_weight1_custom_product_contain_oxygen_bond_distance_aromatic_linkinvent_7_9_3/rearranged_h_0024.sdf

> <i_m_source_file_index>
64

> <r_mmod_Potential_Energy-OPLS-2005>
723.704284667969

> <r_mmod_Stretch_Energy-OPLS-2005>
329.147247314453

> <r_mmod_Bend_Energy-OPLS-2005>
311.606719970703

> <r_mmod_Torsional_Energy-OPLS-2005>
277.601379394531

> <r_mmod_Improper_Torsional_Energy-OPLS-2005>
11.0399312973022

> <r_mmod_Van_der_Waal_Energy-OPLS-2005>
127.02042388916

> <r_mmod_Electrostatic_Energy-OPLS-2005>
-352.173583984375

> <r_mmod_Solvation_Energy-OPLS-2005>
-225.507553100586

> <b_mmod_Minimization_Converged-OPLS-2005>
0

> <r_mmod_RMS_Derivative-OPLS-2005>
0.991478323936462

$$$$
64
                    3D
 Structure written by MMmdl.
174183  0  0  1  0            999 V2000
  -29.6000  -12.7868   20.2721 C   0  0  0  0  0  0
  -30.5341  -11.8251   19.3648 C   0  0  0  0  0  0
  -29.4858  -12.4387   17.9472 C   0  0  0  0  0  0
  -28.0276  -13.3558   18.3750 C   0  0  0  0  0  0
  -27.6836  -14.0494   20.1354 C   0  0  2  0  0  0
  -28.8884  -13.3852   21.4840 C   0  0  0  0  0  0
  -25.2682  -14.6276   21.0265 C   0  0  0  0  0  0
  -24.3052  -13.7955   21.4680 C   0  0  0  0  0  0
  -25.0564  -12.5719   21.3430 C   0  0  0  0  0  0
  -24.5952  -10.0486   20.2170 C   0  0  0  0  0  0
  -24.7987   -8.7176   20.9073 C   0  0  0  0  0  0
  -23.8285   -7.9474   21.6283 C   0  0  0  0  0  0
  -22.5152   -7.9318   21.1612 C   0  0  0  0  0  0
  -22.2888   -8.7567   20.0565 C   0  0  0  0  0  0
  -23.3412   -9.5695   19.5223 C   0  0  0  0  0  0
  -21.6814   -6.1233   22.5439 C   0  0  0  0  0  0
  -21.4129   -6.5872   23.8474 C   0  0  0  0  0  0
  -21.3818   -5.6858   24.9302 C   0  0  0  0  0  0
  -21.6146   -4.3150   24.7153 C   0  0  0  0  0  0
  -21.8906   -3.8458   23.4187 C   0  0  0  0  0  0
  -21.9203   -4.7439   22.3339 C   0  0  0  0  0  0
  -22.8190  -14.1054   21.4891 C   0  0  0  0  0  0
  -22.1540   -4.2677   21.0866 F   0  0  0  0  0  0
  -21.5695   -3.4494   25.7552 F   0  0  0  0  0  0
  -30.1855  -12.3545   20.9748 N   0  0  0  0  0  0
  -26.3824  -13.9050   20.7778 N   0  0  0  0  0  0
  -26.1854  -13.0908   21.7607 N   0  0  0  0  0  0
  -22.0808  -13.6140   22.4659 N   0  0  0  0  0  0
  -25.3202  -15.9603   20.8621 N   0  0  0  0  0  0
  -30.2485  -13.9906   19.8346 O   0  0  0  0  0  0
  -21.5647   -6.9848   21.4783 O   0  0  0  0  0  0
  -22.2943  -14.7436   20.5938 O   0  0  0  0  0  0
  -24.6710  -31.8220   23.1779 C   0  0  0  0  0  0
  -25.9409  -32.4546   23.8167 C   0  0  1  0  0  0
  -26.9419  -26.8144   20.0307 C   0  0  0  0  0  0
  -25.6076  -33.8376   24.2053 N   0  0  0  0  0  0
  -23.4651  -30.4644   21.5401 C   0  0  2  0  0  0
  -24.8519  -28.8742   20.0795 C   0  0  0  0  0  0
  -22.7626  -29.4477   22.4788 C   0  0  0  0  0  0
  -18.0306  -28.1405   22.8458 C   0  0  0  0  0  0
  -24.1512  -36.7167   23.2638 C   0  0  0  0  0  0
  -26.0490  -30.5686   21.4273 C   0  0  0  0  0  0
  -26.0571  -29.1675   20.7291 C   0  0  0  0  0  0
  -27.1217  -28.1437   20.6954 C   0  0  0  0  0  0
  -25.7568  -26.7460   19.3060 C   0  0  0  0  0  0
  -24.7324  -27.6934   19.3541 C   0  0  0  0  0  0
  -23.6808  -29.8378   20.1463 C   0  0  0  0  0  0
  -25.4163  -36.2932   24.0276 C   0  0  1  0  0  0
  -20.5930  -28.3745   23.1194 C   0  0  2  0  0  0
  -20.6802  -26.9437   22.5397 C   0  0  0  0  0  0
  -19.5779  -26.6376   21.5206 C   0  0  0  0  0  0
  -18.1954  -26.7936   22.1611 C   0  0  0  0  0  0
  -19.1568  -28.8892   23.2813 C   0  0  0  0  0  0
  -18.9484  -30.1483   23.8848 C   0  0  0  0  0  0
  -17.6483  -30.6601   24.0552 C   0  0  0  0  0  0
  -25.9150  -34.9324   23.4978 C   0  0  0  0  0  0
  -16.5370  -29.9091   23.6351 C   0  0  0  0  0  0
  -16.7287  -28.6510   23.0363 C   0  0  0  0  0  0
  -26.4613  -31.6523   25.0736 C   0  0  0  0  0  0
  -25.3705  -31.3837   26.1368 C   0  0  0  0  0  0
  -27.0503  -30.2845   24.6609 C   0  0  0  0  0  0
  -27.6087  -32.4346   25.7542 C   0  0  0  0  0  0
  -27.5577  -37.1747   24.8460 C   0  0  0  0  0  0
  -21.4302  -29.3048   22.3550 N   0  0  0  0  0  0
  -26.4289  -37.3687   23.9401 N   0  0  0  0  0  0
  -24.7545  -30.9810   22.0974 N   0  0  0  0  0  0
  -23.4205  -28.7972   23.2951 O   0  0  0  0  0  0
  -27.6839  -25.5215   19.9525 O   0  0  0  0  0  0
  -26.5742  -34.8867   22.4565 O   0  0  0  0  0  0
  -23.5792  -32.1285   23.6858 O   0  0  0  0  0  0
  -26.2527  -10.6238   21.7481 C   0  0  0  0  0  0
  -24.5424  -10.6658   22.4728 C   0  0  0  0  0  0
  -23.5031  -12.0439   19.7470 C   0  0  0  0  0  0
  -25.2181  -12.1832   19.0940 C   0  0  0  0  0  0
  -26.6433  -11.3369   20.0915 C   0  0  0  0  0  0
  -23.1443  -11.2992   21.4618 C   0  0  0  0  0  0
  -24.9792  -18.2866   18.6099 C   0  0  0  0  0  0
  -26.9002  -16.3886   18.1213 C   0  0  0  0  0  0
  -27.1157  -17.9248   18.8491 C   0  0  1  0  0  0
  -24.7116  -16.7352   17.9194 C   0  0  2  0  0  0
  -28.5712  -18.3752   18.6333 C   0  0  0  0  0  0
  -23.2090  -16.4462   17.9865 C   0  0  0  0  0  0
  -25.2898  -13.7896   18.1280 C   0  0  0  0  0  0
  -27.1819  -22.2978   19.1446 C   0  0  0  0  0  0
  -26.3134  -20.6707   19.2809 C   0  0  0  0  0  0
  -26.9602  -23.9798   19.8844 C   0  0  0  0  0  0
  -26.2567  -19.1640   18.5279 N   0  0  0  0  0  0
  -28.3220  -11.6124   20.1472 N   0  0  0  0  0  0
  -25.6005  -15.5149   18.3665 N   0  3  1  0  0  0
  -21.5246  -10.9167   21.9996 Cl  0  0  0  0  0  0
  -31.5895  -12.0228   19.1205 H   0  0  0  0  0  0
  -30.5403  -10.7252   19.3395 H   0  0  0  0  0  0
  -29.2218  -11.5988   17.2993 H   0  0  0  0  0  0
  -30.1094  -13.0790   17.3201 H   0  0  0  0  0  0
  -27.3442  -12.5824   18.0703 H   0  0  0  0  0  0
  -27.9025  -14.0686   17.5693 H   0  0  0  0  0  0
  -27.9067  -15.1114   20.1866 H   0  0  0  0  0  0
  -28.4234  -12.8865   22.3493 H   0  0  0  0  0  0
  -29.2631  -14.2658   22.0445 H   0  0  0  0  0  0
  -25.7880   -8.4295   21.2341 H   0  0  0  0  0  0
  -24.1600   -7.2000   22.3341 H   0  0  0  0  0  0
  -21.3526   -8.6739   19.5223 H   0  0  0  0  0  0
  -23.0299  -10.0621   18.6110 H   0  0  0  0  0  0
  -21.2042   -7.6343   24.0155 H   0  0  0  0  0  0
  -21.1658   -6.0435   25.9265 H   0  0  0  0  0  0
  -22.0667   -2.7953   23.2500 H   0  0  0  0  0  0
  -22.4900  -13.0761   23.2152 H   0  0  0  0  0  0
  -21.0882  -13.7941   22.4745 H   0  0  0  0  0  0
  -24.5232  -16.4240   21.2909 H   0  0  0  0  0  0
  -26.1574  -16.3102   21.3208 H   0  0  0  0  0  0
  -26.7428  -32.4958   23.0807 H   0  0  0  0  0  0
  -25.0173  -33.9452   25.0168 H   0  0  0  0  0  0
  -22.7803  -31.3050   21.4055 H   0  0  0  0  0  0
  -23.3806  -35.9462   23.3247 H   0  0  0  0  0  0
  -24.3584  -36.8881   22.2063 H   0  0  0  0  0  0
  -23.7242  -37.6320   23.6747 H   0  0  0  0  0  0
  -26.2772  -31.3202   20.6704 H   0  0  0  0  0  0
  -26.8974  -30.5771   22.0994 H   0  0  0  0  0  0
  -28.0332  -28.3256   21.2462 H   0  0  0  0  0  0
  -25.5517  -25.8916   18.6815 H   0  0  0  0  0  0
  -23.8232  -27.4995   18.8027 H   0  0  0  0  0  0
  -23.8644  -30.6321   19.4219 H   0  0  0  0  0  0
  -22.7693  -29.3413   19.8095 H   0  0  0  0  0  0
  -25.1370  -36.1703   25.0765 H   0  0  0  0  0  0
  -20.9999  -28.3345   24.1322 H   0  0  0  0  0  0
  -20.5711  -26.2348   23.3619 H   0  0  0  0  0  0
  -21.6667  -26.7450   22.1189 H   0  0  0  0  0  0
  -19.6959  -25.6273   21.1268 H   0  0  0  0  0  0
  -19.6733  -27.3159   20.6714 H   0  0  0  0  0  0
  -17.4227  -26.6649   21.4017 H   0  0  0  0  0  0
  -18.0372  -26.0092   22.9024 H   0  0  0  0  0  0
  -19.7963  -30.7304   24.2196 H   0  0  0  0  0  0
  -17.5045  -31.6281   24.5160 H   0  0  0  0  0  0
  -15.5375  -30.2989   23.7718 H   0  0  0  0  0  0
  -15.8672  -28.0826   22.7118 H   0  0  0  0  0  0
  -24.5927  -30.7135   25.7698 H   0  0  0  0  0  0
  -24.8857  -32.3058   26.4576 H   0  0  0  0  0  0
  -25.7909  -30.9161   27.0279 H   0  0  0  0  0  0
  -26.3177  -29.6472   24.1649 H   0  0  0  0  0  0
  -27.3956  -29.7287   25.5338 H   0  0  0  0  0  0
  -27.9177  -30.3941   24.0098 H   0  0  0  0  0  0
  -27.2652  -33.3712   26.1946 H   0  0  0  0  0  0
  -28.4000  -32.6793   25.0445 H   0  0  0  0  0  0
  -28.0639  -31.8583   26.5607 H   0  0  0  0  0  0
  -28.2558  -38.0078   24.7535 H   0  0  0  0  0  0
  -28.1113  -36.2604   24.6268 H   0  0  0  0  0  0
  -27.2282  -37.1357   25.8857 H   0  0  0  0  0  0
  -20.9520  -29.8773   21.6734 H   0  0  0  0  0  0
  -26.0116  -38.2729   24.1435 H   0  0  0  0  0  0
  -27.0595  -10.2523   22.3605 H   0  0  0  0  0  0
  -24.3521  -10.2291   23.4424 H   0  0  0  0  0  0
  -22.6827  -12.4764   19.1868 H   0  0  0  0  0  0
  -24.7269  -18.2157   19.6683 H   0  0  0  0  0  0
  -24.1964  -18.9271   18.2036 H   0  0  0  0  0  0
  -27.8152  -15.8842   18.3626 H   0  0  0  0  0  0
  -27.0233  -16.5018   17.0435 H   0  0  0  0  0  0
  -27.0205  -17.7649   19.9255 H   0  0  0  0  0  0
  -24.8782  -16.8534   16.8457 H   0  0  0  0  0  0
  -28.8012  -18.5156   17.5755 H   0  0  0  0  0  0
  -29.2695  -17.6329   19.0231 H   0  0  0  0  0  0
  -28.7967  -19.3087   19.1484 H   0  0  0  0  0  0
  -22.8641  -16.4226   19.0143 H   0  0  0  0  0  0
  -22.9250  -15.5235   17.4844 H   0  0  0  0  0  0
  -22.6566  -17.2470   17.4934 H   0  0  0  0  0  0
  -24.2323  -13.8377   17.8877 H   0  0  0  0  0  0
  -25.6845  -13.5541   17.1408 H   0  0  0  0  0  0
  -27.2083  -22.4904   18.0727 H   0  0  0  0  0  0
  -28.2171  -22.0513   19.3868 H   0  0  0  0  0  0
  -25.2755  -20.9860   19.1605 H   0  0  0  0  0  0
  -26.3722  -20.4173   20.3404 H   0  0  0  0  0  0
  -26.9564  -23.7487   20.9502 H   0  0  0  0  0  0
  -25.9047  -24.1572   19.6997 H   0  0  0  0  0  0
  -28.7252  -10.8271   20.6372 H   0  0  0  0  0  0
  -25.4819  -15.5996   19.3867 H   0  0  0  0  0  0
  1 25  1  0  0  0
  1 30  2  0  0  0
  1 88  1  0  0  0
  2  3  1  0  0  0
  2 25  1  0  0  0
  2 91  1  0  0  0
  2 92  1  0  0  0
  3  4  1  0  0  0
  3 93  1  0  0  0
  3 94  1  0  0  0
  4  5  1  0  0  0
  4 95  1  0  0  0
  4 96  1  0  0  0
  5  6  1  0  0  0
  5 26  1  0  0  0
  5 97  1  0  0  0
  6 25  1  0  0  0
  6 98  1  0  0  0
  6 99  1  0  0  0
  7  8  2  0  0  0
  7 26  1  0  0  0
  7 29  1  0  0  0
  8  9  1  0  0  0
  8 22  1  0  0  0
  9 10  1  0  0  0
  9 27  2  0  0  0
 10 11  2  0  0  0
 10 15  1  0  0  0
 11 12  1  0  0  0
 11100  1  0  0  0
 12 13  2  0  0  0
 12101  1  0  0  0
 13 14  1  0  0  0
 13 31  1  0  0  0
 14 15  2  0  0  0
 14102  1  0  0  0
 15103  1  0  0  0
 16 17  2  0  0  0
 16 21  1  0  0  0
 16 31  1  0  0  0
 17 18  1  0  0  0
 17104  1  0  0  0
 18 19  2  0  0  0
 18105  1  0  0  0
 19 20  1  0  0  0
 19 24  1  0  0  0
 20 21  2  0  0  0
 20106  1  0  0  0
 21 23  1  0  0  0
 22 28  1  0  0  0
 22 32  2  0  0  0
 26 27  1  0  0  0
 28107  1  0  0  0
 28108  1  0  0  0
 29109  1  0  0  0
 29110  1  0  0  0
 33 34  1  0  0  0
 33 66  1  0  0  0
 33 70  2  0  0  0
 34 36  1  0  0  0
 34 59  1  0  0  0
 34111  1  0  0  0
 35 44  2  0  0  0
 35 45  1  0  0  0
 35 68  1  0  0  0
 36 56  1  0  0  0
 36112  1  0  0  0
 37 39  1  0  0  0
 37 47  1  0  0  0
 37 66  1  0  0  0
 37113  1  0  0  0
 38 43  2  0  0  0
 38 46  1  0  0  0
 38 47  1  0  0  0
 39 64  1  0  0  0
 39 67  2  0  0  0
 40 52  1  0  0  0
 40 53  2  0  0  0
 40 58  1  0  0  0
 41114  1  0  0  0
 41115  1  0  0  0
 41116  1  0  0  0
 41 48  1  0  0  0
 42 43  1  0  0  0
 42 66  1  0  0  0
 42117  1  0  0  0
 42118  1  0  0  0
 43 44  1  0  0  0
 44119  1  0  0  0
 45 46  2  0  0  0
 45120  1  0  0  0
 46121  1  0  0  0
 47122  1  0  0  0
 47123  1  0  0  0
 48 56  1  0  0  0
 48 65  1  0  0  0
 48124  1  0  0  0
 49 50  1  0  0  0
 49 53  1  0  0  0
 49 64  1  0  0  0
 49125  1  0  0  0
 50 51  1  0  0  0
 50126  1  0  0  0
 50127  1  0  0  0
 51 52  1  0  0  0
 51128  1  0  0  0
 51129  1  0  0  0
 52130  1  0  0  0
 52131  1  0  0  0
 53 54  1  0  0  0
 54 55  2  0  0  0
 54132  1  0  0  0
 55 57  1  0  0  0
 55133  1  0  0  0
 56 69  2  0  0  0
 57 58  2  0  0  0
 57134  1  0  0  0
 58135  1  0  0  0
 59 60  1  0  0  0
 59 61  1  0  0  0
 59 62  1  0  0  0
 60136  1  0  0  0
 60137  1  0  0  0
 60138  1  0  0  0
 61139  1  0  0  0
 61140  1  0  0  0
 61141  1  0  0  0
 62142  1  0  0  0
 62143  1  0  0  0
 62144  1  0  0  0
 63 65  1  0  0  0
 63145  1  0  0  0
 63146  1  0  0  0
 63147  1  0  0  0
 64148  1  0  0  0
 65149  1  0  0  0
 68 86  1  0  0  0
 71 72  2  0  0  0
 71 75  1  0  0  0
 71150  1  0  0  0
 72 76  1  0  0  0
 72151  1  0  0  0
 73 74  1  0  0  0
 73 76  2  0  0  0
 73152  1  0  0  0
 74 75  2  0  0  0
 74 83  1  0  0  0
 75 88  1  0  0  0
 76 90  1  0  0  0
 77 80  1  0  0  0
 77 87  1  0  0  0
 77153  1  0  0  0
 77154  1  0  0  0
 78 79  1  0  0  0
 78 89  1  0  0  0
 78155  1  0  0  0
 78156  1  0  0  0
 79 81  1  0  0  0
 79 87  1  0  0  0
 79157  1  0  0  0
 80 82  1  0  0  0
 80 89  1  0  0  0
 80158  1  0  0  0
 81159  1  0  0  0
 81160  1  0  0  0
 81161  1  0  0  0
 82162  1  0  0  0
 82163  1  0  0  0
 82164  1  0  0  0
 83165  1  0  0  0
 83166  1  0  0  0
 83 89  1  0  0  0
 84 85  1  0  0  0
 84 86  1  0  0  0
 84167  1  0  0  0
 84168  1  0  0  0
 85 87  1  0  0  0
 85169  1  0  0  0
 85170  1  0  0  0
 86171  1  0  0  0
 86172  1  0  0  0
 88173  1  0  0  0
 89174  1  0  0  0
M  CHG  1  89   1
M  ISO  4   1 100  68 101  86 101  88 100
M  END
> <chiral flag>
0

> <version>
0

> <s_m_source_file>
/data/baiqing/PycharmProjects/Reinvent-master-3.2/result/LINK_invent/BTK/process_docking_weight1_custom_product_contain_oxygen_bond_distance_aromatic_linkinvent_7_9_3/rearranged_h_0024.sdf

> <i_m_source_file_index>
65

> <r_mmod_Potential_Energy-OPLS-2005>
16124.625

> <r_mmod_Stretch_Energy-OPLS-2005>
7745.341796875

> <r_mmod_Bend_Energy-OPLS-2005>
1659.37475585938

> <r_mmod_Torsional_Energy-OPLS-2005>
760.933166503906

> <r_mmod_Improper_Torsional_Energy-OPLS-2005>
60.080493927002

> <r_mmod_Van_der_Waal_Energy-OPLS-2005>
3811.4453125

> <r_mmod_Electrostatic_Energy-OPLS-2005>
-368.409637451172

> <r_mmod_Solvation_Energy-OPLS-2005>
-409.723999023438

> <b_mmod_Minimization_Converged-OPLS-2005>
0

> <r_mmod_RMS_Derivative-OPLS-2005>
4.02027034759521

$$$$
65
                    3D
 Structure written by MMmdl.
149157  0  0  1  0            999 V2000
  -30.5217  -14.9099   20.4302 C   0  0  0  0  0  0
  -30.4552  -12.5577   19.4966 C   0  0  0  0  0  0
  -29.5265  -12.5152   18.2584 C   0  0  0  0  0  0
  -28.0587  -12.3036   18.6780 C   0  0  0  0  0  0
  -27.6376  -13.2362   19.8430 C   0  0  2  0  0  0
  -28.6811  -13.2287   20.9818 C   0  0  0  0  0  0
  -25.2499  -13.8187   20.5687 C   0  0  0  0  0  0
  -24.1809  -13.0430   20.9235 C   0  0  0  0  0  0
  -24.6412  -11.6911   20.8776 C   0  0  0  0  0  0
  -23.9094  -10.4281   21.0426 C   0  0  0  0  0  0
  -24.3643   -9.4186   21.9191 C   0  0  0  0  0  0
  -23.6303   -8.2229   22.0750 C   0  0  0  0  0  0
  -22.4283   -8.0282   21.3548 C   0  0  0  0  0  0
  -21.9930   -9.0260   20.4650 C   0  0  0  0  0  0
  -22.7269  -10.2130   20.3069 C   0  0  0  0  0  0
  -21.6848   -6.0741   22.5282 C   0  0  0  0  0  0
  -21.4012   -6.5646   23.8218 C   0  0  0  0  0  0
  -21.3658   -5.6799   24.9183 C   0  0  0  0  0  0
  -21.6039   -4.3065   24.7233 C   0  0  0  0  0  0
  -21.8816   -3.8154   23.4357 C   0  0  0  0  0  0
  -21.9190   -4.6966   22.3408 C   0  0  0  0  0  0
  -22.7826  -13.5204   21.1893 C   0  0  0  0  0  0
  -22.1659   -4.2152   21.0985 F   0  0  0  0  0  0
  -21.5629   -3.4547   25.7749 F   0  0  0  0  0  0
  -29.9669  -13.6361   20.3964 N   0  0  0  0  0  0
  -26.2923  -12.9406   20.3242 N   0  0  0  0  0  0
  -25.9340  -11.6547   20.5752 N   0  0  0  0  0  0
  -22.0487  -12.8183   22.0459 N   0  0  0  0  0  0
  -25.4135  -15.1912   20.4053 N   0  0  0  0  0  0
  -31.7154  -15.0394   20.1359 O   0  0  0  0  0  0
  -21.6638   -6.8886   21.4246 O   0  0  0  0  0  0
  -22.3504  -14.5497   20.6726 O   0  0  0  0  0  0
  -24.6415  -31.8462   23.1920 C   0  0  0  0  0  0
  -25.9194  -32.4709   23.8300 C   0  0  1  0  0  0
  -27.2211  -27.1562   20.1305 C   0  0  0  0  0  0
  -25.5957  -33.8516   24.2209 N   0  0  0  0  0  0
  -23.4456  -30.4683   21.5362 C   0  0  2  0  0  0
  -24.8968  -28.9051   20.1079 C   0  0  0  0  0  0
  -22.7569  -29.4558   22.4856 C   0  0  0  0  0  0
  -18.0306  -28.1383   22.8473 C   0  0  0  0  0  0
  -24.1494  -36.7277   23.2629 C   0  0  0  0  0  0
  -26.0023  -30.7226   21.3926 C   0  0  0  0  0  0
  -26.0738  -29.3371   20.7315 C   0  0  0  0  0  0
  -27.2351  -28.4762   20.7341 C   0  0  0  0  0  0
  -26.0192  -26.8378   19.4533 C   0  0  0  0  0  0
  -24.8809  -27.6670   19.4559 C   0  0  0  0  0  0
  -23.6726  -29.8034   20.1538 C   0  0  0  0  0  0
  -25.4118  -36.3043   24.0307 C   0  0  1  0  0  0
  -20.5921  -28.3712   23.1224 C   0  0  2  0  0  0
  -20.6799  -26.9416   22.5384 C   0  0  0  0  0  0
  -19.5775  -26.6376   21.5196 C   0  0  0  0  0  0
  -18.1961  -26.7914   22.1626 C   0  0  0  0  0  0
  -19.1559  -28.8868   23.2842 C   0  0  0  0  0  0
  -18.9473  -30.1461   23.8869 C   0  0  0  0  0  0
  -17.6469  -30.6581   24.0558 C   0  0  0  0  0  0
  -25.9069  -34.9416   23.5064 C   0  0  0  0  0  0
  -16.5363  -29.9076   23.6327 C   0  0  0  0  0  0
  -16.7288  -28.6494   23.0352 C   0  0  0  0  0  0
  -26.4509  -31.6582   25.0749 C   0  0  0  0  0  0
  -25.3711  -31.3813   26.1473 C   0  0  0  0  0  0
  -27.0341  -30.2960   24.6342 C   0  0  0  0  0  0
  -27.6049  -32.4337   25.7532 C   0  0  0  0  0  0
  -27.5572  -37.1789   24.8457 C   0  0  0  0  0  0
  -21.4261  -29.3049   22.3607 N   0  0  0  0  0  0
  -26.4282  -37.3753   23.9404 N   0  0  0  0  0  0
  -24.7162  -31.0328   22.0953 N   0  0  0  0  0  0
  -23.4219  -28.8086   23.2989 O   0  0  0  0  0  0
  -28.2595  -26.1546   20.2122 O   0  0  0  0  0  0
  -26.5646  -34.8902   22.4637 O   0  0  0  0  0  0
  -23.5527  -32.1333   23.7136 O   0  0  0  0  0  0
  -29.0138  -22.1483   20.2925 C   0  0  0  0  0  0
  -28.6883  -23.3680   20.1816 C   0  0  0  0  0  0
  -28.3588  -18.2137   20.5375 C   0  0  0  0  0  0
  -30.6952  -18.4732   20.3859 C   0  0  0  0  0  0
  -29.2396  -20.5987   20.3658 C   0  0  0  0  0  0
  -28.1639  -19.6497   20.4613 C   0  0  0  0  0  0
  -29.6182  -17.5291   20.5004 C   0  0  0  0  0  0
  -30.5177  -19.9237   20.3289 C   0  0  0  0  0  0
  -26.7317  -20.1639   20.4678 C   0  0  0  0  0  0
  -27.9201  -24.6963   19.8241 C   0  0  0  0  0  0
  -29.6439  -16.0026   20.6080 N   0  0  0  0  0  0
  -31.6358  -20.6840   20.2339 F   0  0  0  0  0  0
  -31.4879  -12.7283   19.1863 H   0  0  0  0  0  0
  -30.4542  -11.5987   20.0163 H   0  0  0  0  0  0
  -29.8398  -11.7187   17.5821 H   0  0  0  0  0  0
  -29.6157  -13.4467   17.6980 H   0  0  0  0  0  0
  -27.9582  -11.2638   18.9908 H   0  0  0  0  0  0
  -27.3919  -12.4273   17.8237 H   0  0  0  0  0  0
  -27.6113  -14.2406   19.4201 H   0  0  0  0  0  0
  -28.7572  -12.2422   21.4411 H   0  0  0  0  0  0
  -28.3845  -13.9133   21.7787 H   0  0  0  0  0  0
  -25.2797   -9.5642   22.4755 H   0  0  0  0  0  0
  -24.0007   -7.4620   22.7472 H   0  0  0  0  0  0
  -21.0857   -8.8794   19.8963 H   0  0  0  0  0  0
  -22.3745  -10.9674   19.6179 H   0  0  0  0  0  0
  -21.2001   -7.6149   23.9722 H   0  0  0  0  0  0
  -21.1480   -6.0531   25.9085 H   0  0  0  0  0  0
  -22.0593   -2.7618   23.2854 H   0  0  0  0  0  0
  -22.4130  -11.9855   22.4849 H   0  0  0  0  0  0
  -21.1098  -13.1169   22.2682 H   0  0  0  0  0  0
  -24.6291  -15.8278   20.4939 H   0  0  0  0  0  0
  -26.2251  -15.6231   19.9859 H   0  0  0  0  0  0
  -26.7271  -32.5306   23.1037 H   0  0  0  0  0  0
  -25.0103  -33.9631   25.0358 H   0  0  0  0  0  0
  -22.7477  -31.2941   21.3828 H   0  0  0  0  0  0
  -23.3752  -35.9614   23.3271 H   0  0  0  0  0  0
  -24.3585  -36.8924   22.2049 H   0  0  0  0  0  0
  -23.7258  -37.6474   23.6673 H   0  0  0  0  0  0
  -26.1552  -31.4760   20.6194 H   0  0  0  0  0  0
  -26.8748  -30.7745   22.0319 H   0  0  0  0  0  0
  -28.1263  -28.7978   21.2539 H   0  0  0  0  0  0
  -25.9073  -25.9047   18.9233 H   0  0  0  0  0  0
  -23.9853  -27.3351   18.9488 H   0  0  0  0  0  0
  -23.8096  -30.5803   19.4004 H   0  0  0  0  0  0
  -22.7903  -29.2436   19.8385 H   0  0  0  0  0  0
  -25.1304  -36.1873   25.0797 H   0  0  0  0  0  0
  -21.0005  -28.3283   24.1350 H   0  0  0  0  0  0
  -20.5690  -26.2317   23.3597 H   0  0  0  0  0  0
  -21.6664  -26.7425   22.1174 H   0  0  0  0  0  0
  -19.6940  -25.6283   21.1240 H   0  0  0  0  0  0
  -19.6712  -27.3170   20.6715 H   0  0  0  0  0  0
  -17.4215  -26.6614   21.4051 H   0  0  0  0  0  0
  -18.0410  -26.0067   22.9044 H   0  0  0  0  0  0
  -19.7953  -30.7279   24.2226 H   0  0  0  0  0  0
  -17.5026  -31.6255   24.5179 H   0  0  0  0  0  0
  -15.5359  -30.2970   23.7670 H   0  0  0  0  0  0
  -15.8690  -28.0797   22.7088 H   0  0  0  0  0  0
  -24.5768  -30.7315   25.7786 H   0  0  0  0  0  0
  -24.9070  -32.3042   26.4970 H   0  0  0  0  0  0
  -25.7980  -30.8876   27.0217 H   0  0  0  0  0  0
  -26.2942  -29.6714   24.1327 H   0  0  0  0  0  0
  -27.3899  -29.7242   25.4924 H   0  0  0  0  0  0
  -27.8893  -30.4164   23.9692 H   0  0  0  0  0  0
  -27.2638  -33.3645   26.2077 H   0  0  0  0  0  0
  -28.3889  -32.6883   25.0390 H   0  0  0  0  0  0
  -28.0693  -31.8492   26.5487 H   0  0  0  0  0  0
  -28.2566  -38.0103   24.7501 H   0  0  0  0  0  0
  -28.1096  -36.2631   24.6295 H   0  0  0  0  0  0
  -27.2292  -37.1447   25.8859 H   0  0  0  0  0  0
  -20.9472  -29.8776   21.6796 H   0  0  0  0  0  0
  -26.0152  -38.2820   24.1423 H   0  0  0  0  0  0
  -27.4716  -17.6025   20.6208 H   0  0  0  0  0  0
  -31.7039  -18.0918   20.3483 H   0  0  0  0  0  0
  -26.0037  -19.3528   20.4857 H   0  0  0  0  0  0
  -26.5362  -20.7551   19.5721 H   0  0  0  0  0  0
  -26.5527  -20.7944   21.3393 H   0  0  0  0  0  0
  -26.9243  -24.4805   20.2105 H   0  0  0  0  0  0
  -27.8387  -24.6775   18.7364 H   0  0  0  0  0  0
  -28.7261  -15.6330   20.8019 H   0  0  0  0  0  0
  1 25  1  0  0  0
  1 30  2  0  0  0
  1 81  1  0  0  0
  2  3  1  0  0  0
  2 25  1  0  0  0
  2 83  1  0  0  0
  2 84  1  0  0  0
  3  4  1  0  0  0
  3 85  1  0  0  0
  3 86  1  0  0  0
  4  5  1  0  0  0
  4 87  1  0  0  0
  4 88  1  0  0  0
  5  6  1  0  0  0
  5 26  1  0  0  0
  5 89  1  0  0  0
  6 25  1  0  0  0
  6 90  1  0  0  0
  6 91  1  0  0  0
  7  8  2  0  0  0
  7 26  1  0  0  0
  7 29  1  0  0  0
  8  9  1  0  0  0
  8 22  1  0  0  0
  9 10  1  0  0  0
  9 27  2  0  0  0
 10 11  2  0  0  0
 10 15  1  0  0  0
 11 12  1  0  0  0
 11 92  1  0  0  0
 12 13  2  0  0  0
 12 93  1  0  0  0
 13 14  1  0  0  0
 13 31  1  0  0  0
 14 15  2  0  0  0
 14 94  1  0  0  0
 15 95  1  0  0  0
 16 17  2  0  0  0
 16 21  1  0  0  0
 16 31  1  0  0  0
 17 18  1  0  0  0
 17 96  1  0  0  0
 18 19  2  0  0  0
 18 97  1  0  0  0
 19 20  1  0  0  0
 19 24  1  0  0  0
 20 21  2  0  0  0
 20 98  1  0  0  0
 21 23  1  0  0  0
 22 28  1  0  0  0
 22 32  2  0  0  0
 26 27  1  0  0  0
 28 99  1  0  0  0
 28100  1  0  0  0
 29101  1  0  0  0
 29102  1  0  0  0
 33 34  1  0  0  0
 33 66  1  0  0  0
 33 70  2  0  0  0
 34 36  1  0  0  0
 34 59  1  0  0  0
 34103  1  0  0  0
 35 44  2  0  0  0
 35 45  1  0  0  0
 35 68  1  0  0  0
 36 56  1  0  0  0
 36104  1  0  0  0
 37 39  1  0  0  0
 37 47  1  0  0  0
 37 66  1  0  0  0
 37105  1  0  0  0
 38 43  2  0  0  0
 38 46  1  0  0  0
 38 47  1  0  0  0
 39 64  1  0  0  0
 39 67  2  0  0  0
 40 52  1  0  0  0
 40 53  2  0  0  0
 40 58  1  0  0  0
 41106  1  0  0  0
 41107  1  0  0  0
 41108  1  0  0  0
 41 48  1  0  0  0
 42 43  1  0  0  0
 42 66  1  0  0  0
 42109  1  0  0  0
 42110  1  0  0  0
 43 44  1  0  0  0
 44111  1  0  0  0
 45 46  2  0  0  0
 45112  1  0  0  0
 46113  1  0  0  0
 47114  1  0  0  0
 47115  1  0  0  0
 48 56  1  0  0  0
 48 65  1  0  0  0
 48116  1  0  0  0
 49 50  1  0  0  0
 49 53  1  0  0  0
 49 64  1  0  0  0
 49117  1  0  0  0
 50 51  1  0  0  0
 50118  1  0  0  0
 50119  1  0  0  0
 51 52  1  0  0  0
 51120  1  0  0  0
 51121  1  0  0  0
 52122  1  0  0  0
 52123  1  0  0  0
 53 54  1  0  0  0
 54 55  2  0  0  0
 54124  1  0  0  0
 55 57  1  0  0  0
 55125  1  0  0  0
 56 69  2  0  0  0
 57 58  2  0  0  0
 57126  1  0  0  0
 58127  1  0  0  0
 59 60  1  0  0  0
 59 61  1  0  0  0
 59 62  1  0  0  0
 60128  1  0  0  0
 60129  1  0  0  0
 60130  1  0  0  0
 61131  1  0  0  0
 61132  1  0  0  0
 61133  1  0  0  0
 62134  1  0  0  0
 62135  1  0  0  0
 62136  1  0  0  0
 63 65  1  0  0  0
 63137  1  0  0  0
 63138  1  0  0  0
 63139  1  0  0  0
 64140  1  0  0  0
 65141  1  0  0  0
 68 80  1  0  0  0
 71 72  3  0  0  0
 71 75  1  0  0  0
 72 80  1  0  0  0
 73 76  2  0  0  0
 73 77  1  0  0  0
 73142  1  0  0  0
 74 77  2  0  0  0
 74 78  1  0  0  0
 74143  1  0  0  0
 75 76  1  0  0  0
 75 78  2  0  0  0
 76 79  1  0  0  0
 77 81  1  0  0  0
 78 82  1  0  0  0
 79144  1  0  0  0
 79145  1  0  0  0
 79146  1  0  0  0
 80147  1  0  0  0
 80148  1  0  0  0
 81149  1  0  0  0
M  ISO  4   1 100  68 101  80 101  81 100
M  END
> <chiral flag>
0

> <version>
0

> <s_m_source_file>
/data/baiqing/PycharmProjects/Reinvent-master-3.2/result/LINK_invent/BTK/process_docking_weight1_custom_product_contain_oxygen_bond_distance_aromatic_linkinvent_7_9_3/rearranged_h_0024.sdf

> <i_m_source_file_index>
66

> <r_mmod_Potential_Energy-OPLS-2005>
428.820404052734

> <r_mmod_Stretch_Energy-OPLS-2005>
196.298843383789

> <r_mmod_Bend_Energy-OPLS-2005>
239.966217041016

> <r_mmod_Torsional_Energy-OPLS-2005>
207.143325805664

> <r_mmod_Improper_Torsional_Energy-OPLS-2005>
4.87087869644165

> <r_mmod_Van_der_Waal_Energy-OPLS-2005>
137.956741333008

> <r_mmod_Electrostatic_Energy-OPLS-2005>
-323.195129394531

> <r_mmod_Solvation_Energy-OPLS-2005>
-210.75617980957

> <b_mmod_Minimization_Converged-OPLS-2005>
0

> <r_mmod_RMS_Derivative-OPLS-2005>
1.92976605892181

$$$$
66
                    3D
 Structure written by MMmdl.
159168  0  0  1  0            999 V2000
  -30.5825  -14.6249   20.4890 C   0  0  0  0  0  0
  -30.4441  -12.3783   19.4344 C   0  0  0  0  0  0
  -29.5039  -12.4963   18.2120 C   0  0  0  0  0  0
  -28.0237  -12.3416   18.6242 C   0  0  0  0  0  0
  -27.6511  -13.2027   19.8596 C   0  0  2  0  0  0
  -28.6979  -13.0297   20.9821 C   0  0  0  0  0  0
  -25.2557  -13.8117   20.5670 C   0  0  0  0  0  0
  -24.1808  -13.0401   20.9192 C   0  0  0  0  0  0
  -24.6362  -11.6865   20.8724 C   0  0  0  0  0  0
  -23.9022  -10.4262   21.0405 C   0  0  0  0  0  0
  -24.3580   -9.4181   21.9184 C   0  0  0  0  0  0
  -23.6259   -8.2215   22.0741 C   0  0  0  0  0  0
  -22.4239   -8.0254   21.3539 C   0  0  0  0  0  0
  -21.9873   -9.0226   20.4643 C   0  0  0  0  0  0
  -22.7202  -10.2104   20.3048 C   0  0  0  0  0  0
  -21.6843   -6.0724   22.5288 C   0  0  0  0  0  0
  -21.4028   -6.5632   23.8228 C   0  0  0  0  0  0
  -21.3646   -5.6786   24.9187 C   0  0  0  0  0  0
  -21.6032   -4.3048   24.7239 C   0  0  0  0  0  0
  -21.8817   -3.8138   23.4360 C   0  0  0  0  0  0
  -21.9194   -4.6952   22.3415 C   0  0  0  0  0  0
  -22.7837  -13.5215   21.1861 C   0  0  0  0  0  0
  -22.1662   -4.2140   21.0987 F   0  0  0  0  0  0
  -21.5603   -3.4521   25.7740 F   0  0  0  0  0  0
  -30.0088  -13.3869   20.4179 N   0  0  0  0  0  0
  -26.2961  -12.9273   20.3286 N   0  0  0  0  0  0
  -25.9281  -11.6446   20.5726 N   0  0  0  0  0  0
  -22.0460  -12.8239   22.0423 N   0  0  0  0  0  0
  -25.4282  -15.1837   20.4083 N   0  0  0  0  0  0
  -31.7636  -14.8170   20.1762 O   0  0  0  0  0  0
  -21.6601   -6.8854   21.4242 O   0  0  0  0  0  0
  -22.3544  -14.5518   20.6678 O   0  0  0  0  0  0
  -24.6287  -31.8562   23.2064 C   0  0  0  0  0  0
  -25.9136  -32.4762   23.8392 C   0  0  1  0  0  0
  -27.2168  -27.3123   20.1257 C   0  0  0  0  0  0
  -25.5936  -33.8570   24.2292 N   0  0  0  0  0  0
  -23.4226  -30.4869   21.5451 C   0  0  2  0  0  0
  -24.8688  -28.9472   20.1083 C   0  0  0  0  0  0
  -22.7483  -29.4611   22.4878 C   0  0  0  0  0  0
  -18.0279  -28.1424   22.8451 C   0  0  0  0  0  0
  -24.1483  -36.7284   23.2632 C   0  0  0  0  0  0
  -25.9659  -30.7938   21.3744 C   0  0  0  0  0  0
  -26.0406  -29.4234   20.7112 C   0  0  0  0  0  0
  -27.2214  -28.6206   20.7032 C   0  0  0  0  0  0
  -26.0229  -26.9000   19.4869 C   0  0  0  0  0  0
  -24.8629  -27.6932   19.4858 C   0  0  0  0  0  0
  -23.6405  -29.8317   20.1576 C   0  0  0  0  0  0
  -25.4109  -36.3068   24.0322 C   0  0  1  0  0  0
  -20.5883  -28.3713   23.1257 C   0  0  2  0  0  0
  -20.6768  -26.9437   22.5395 C   0  0  0  0  0  0
  -19.5750  -26.6408   21.5193 C   0  0  0  0  0  0
  -18.1928  -26.7960   22.1603 C   0  0  0  0  0  0
  -19.1539  -28.8886   23.2848 C   0  0  0  0  0  0
  -18.9459  -30.1483   23.8875 C   0  0  0  0  0  0
  -17.6454  -30.6609   24.0572 C   0  0  0  0  0  0
  -25.9041  -34.9426   23.5101 C   0  0  0  0  0  0
  -16.5341  -29.9106   23.6352 C   0  0  0  0  0  0
  -16.7261  -28.6542   23.0338 C   0  0  0  0  0  0
  -26.4520  -31.6584   25.0763 C   0  0  0  0  0  0
  -25.3767  -31.3727   26.1506 C   0  0  0  0  0  0
  -27.0327  -30.2987   24.6230 C   0  0  0  0  0  0
  -27.6086  -32.4318   25.7526 C   0  0  0  0  0  0
  -27.5576  -37.1797   24.8460 C   0  0  0  0  0  0
  -21.4190  -29.3049   22.3635 N   0  0  0  0  0  0
  -26.4278  -37.3770   23.9409 N   0  0  0  0  0  0
  -24.6914  -31.0615   22.0988 N   0  0  0  0  0  0
  -23.4196  -28.8134   23.2954 O   0  0  0  0  0  0
  -28.3163  -26.4387   20.2127 O   0  0  0  0  0  0
  -26.5608  -34.8900   22.4663 O   0  0  0  0  0  0
  -23.5453  -32.1332   23.7402 O   0  0  0  0  0  0
  -28.7204  -19.2827   20.0892 C   0  0  0  0  0  0
  -28.7400  -17.8579   20.0454 C   0  0  0  0  0  0
  -30.8064  -17.8339   21.2645 C   0  0  0  0  0  0
  -30.7873  -19.2626   21.3272 C   0  0  0  0  0  0
  -29.7283  -20.0398   20.7445 C   0  0  0  0  0  0
  -29.7822  -17.0937   20.6327 C   0  0  0  0  0  0
  -29.1403  -23.5271   22.0002 C   0  0  0  0  0  0
  -29.9282  -22.1996   22.0644 C   0  0  0  0  0  0
  -28.8617  -22.3952   19.9670 C   0  0  0  0  0  0
  -29.0867  -23.8646   20.5025 C   0  0  1  0  0  0
  -31.9576  -19.9213   22.0363 C   0  0  0  0  0  0
  -28.0415  -24.9855   20.0653 C   0  0  0  0  0  0
  -29.6681  -21.4830   20.8148 N   0  0  0  0  0  0
  -29.6853  -15.6411   20.6793 N   0  0  0  0  0  0
  -31.4840  -12.5195   19.1351 H   0  0  0  0  0  0
  -30.3878  -11.3772   19.8668 H   0  0  0  0  0  0
  -29.7620  -11.7440   17.4657 H   0  0  0  0  0  0
  -29.6464  -13.4639   17.7278 H   0  0  0  0  0  0
  -27.8458  -11.2874   18.8434 H   0  0  0  0  0  0
  -27.3704  -12.5862   17.7865 H   0  0  0  0  0  0
  -27.6728  -14.2380   19.5218 H   0  0  0  0  0  0
  -28.7110  -11.9956   21.3299 H   0  0  0  0  0  0
  -28.4499  -13.6319   21.8586 H   0  0  0  0  0  0
  -25.2716   -9.5642   22.4769 H   0  0  0  0  0  0
  -23.9936   -7.4594   22.7455 H   0  0  0  0  0  0
  -21.0789   -8.8757   19.8969 H   0  0  0  0  0  0
  -22.3657  -10.9632   19.6139 H   0  0  0  0  0  0
  -21.2050   -7.6148   23.9726 H   0  0  0  0  0  0
  -21.1464   -6.0520   25.9087 H   0  0  0  0  0  0
  -22.0615   -2.7597   23.2855 H   0  0  0  0  0  0
  -22.4033  -11.9880   22.4818 H   0  0  0  0  0  0
  -21.1098  -13.1306   22.2635 H   0  0  0  0  0  0
  -24.6599  -15.8353   20.5223 H   0  0  0  0  0  0
  -26.2689  -15.6220   20.0578 H   0  0  0  0  0  0
  -26.7205  -32.5456   23.1149 H   0  0  0  0  0  0
  -25.0134  -33.9727   25.0477 H   0  0  0  0  0  0
  -22.7173  -31.3096   21.4069 H   0  0  0  0  0  0
  -23.3738  -35.9623   23.3278 H   0  0  0  0  0  0
  -24.3580  -36.8922   22.2048 H   0  0  0  0  0  0
  -23.7238  -37.6479   23.6673 H   0  0  0  0  0  0
  -26.1008  -31.5633   20.6126 H   0  0  0  0  0  0
  -26.8441  -30.8370   22.0073 H   0  0  0  0  0  0
  -28.1220  -28.9830   21.1781 H   0  0  0  0  0  0
  -25.9463  -25.9414   18.9964 H   0  0  0  0  0  0
  -23.9640  -27.3259   19.0083 H   0  0  0  0  0  0
  -23.7734  -30.6132   19.4091 H   0  0  0  0  0  0
  -22.7594  -29.2688   19.8429 H   0  0  0  0  0  0
  -25.1286  -36.1901   25.0811 H   0  0  0  0  0  0
  -20.9981  -28.3299   24.1377 H   0  0  0  0  0  0
  -20.5666  -26.2321   23.3594 H   0  0  0  0  0  0
  -21.6641  -26.7472   22.1205 H   0  0  0  0  0  0
  -19.6908  -25.6304   21.1261 H   0  0  0  0  0  0
  -19.6721  -27.3188   20.6700 H   0  0  0  0  0  0
  -17.4202  -26.6680   21.4005 H   0  0  0  0  0  0
  -18.0346  -26.0129   22.9030 H   0  0  0  0  0  0
  -19.7931  -30.7314   24.2230 H   0  0  0  0  0  0
  -17.5012  -31.6285   24.5181 H   0  0  0  0  0  0
  -15.5345  -30.3007   23.7709 H   0  0  0  0  0  0
  -15.8655  -28.0887   22.7035 H   0  0  0  0  0  0
  -24.5967  -30.7026   25.7868 H   0  0  0  0  0  0
  -24.8940  -32.2885   26.4919 H   0  0  0  0  0  0
  -25.8125  -30.8952   27.0293 H   0  0  0  0  0  0
  -26.2875  -29.6760   24.1262 H   0  0  0  0  0  0
  -27.3966  -29.7238   25.4757 H   0  0  0  0  0  0
  -27.8799  -30.4211   23.9479 H   0  0  0  0  0  0
  -27.2711  -33.3642   26.2073 H   0  0  0  0  0  0
  -28.3931  -32.6831   25.0369 H   0  0  0  0  0  0
  -28.0727  -31.8460   26.5474 H   0  0  0  0  0  0
  -28.2577  -38.0109   24.7516 H   0  0  0  0  0  0
  -28.1085  -36.2636   24.6265 H   0  0  0  0  0  0
  -27.2307  -37.1426   25.8867 H   0  0  0  0  0  0
  -20.9359  -29.8794   21.6873 H   0  0  0  0  0  0
  -26.0139  -38.2828   24.1453 H   0  0  0  0  0  0
  -27.8857  -19.7945   19.6319 H   0  0  0  0  0  0
  -27.9208  -17.3516   19.5533 H   0  0  0  0  0  0
  -31.6086  -17.2917   21.7455 H   0  0  0  0  0  0
  -29.5970  -24.3064   22.6120 H   0  0  0  0  0  0
  -28.1287  -23.3580   22.3806 H   0  0  0  0  0  0
  -29.6527  -21.6090   22.9396 H   0  0  0  0  0  0
  -30.9924  -22.4296   22.1290 H   0  0  0  0  0  0
  -29.1334  -22.3070   18.9137 H   0  0  0  0  0  0
  -27.8074  -22.1282   20.0565 H   0  0  0  0  0  0
  -30.0796  -24.1869   20.1858 H   0  0  0  0  0  0
  -32.7680  -19.2175   22.2320 H   0  0  0  0  0  0
  -31.6369  -20.3202   22.9973 H   0  0  0  0  0  0
  -32.3694  -20.7260   21.4292 H   0  0  0  0  0  0
  -27.1149  -24.7519   20.5926 H   0  0  0  0  0  0
  -27.8462  -24.8131   19.0066 H   0  0  0  0  0  0
  -28.7444  -15.2901   20.7603 H   0  0  0  0  0  0
  1 25  1  0  0  0
  1 30  2  0  0  0
  1 84  1  0  0  0
  2  3  1  0  0  0
  2 25  1  0  0  0
  2 85  1  0  0  0
  2 86  1  0  0  0
  3  4  1  0  0  0
  3 87  1  0  0  0
  3 88  1  0  0  0
  4  5  1  0  0  0
  4 89  1  0  0  0
  4 90  1  0  0  0
  5  6  1  0  0  0
  5 26  1  0  0  0
  5 91  1  0  0  0
  6 25  1  0  0  0
  6 92  1  0  0  0
  6 93  1  0  0  0
  7  8  2  0  0  0
  7 26  1  0  0  0
  7 29  1  0  0  0
  8  9  1  0  0  0
  8 22  1  0  0  0
  9 10  1  0  0  0
  9 27  2  0  0  0
 10 11  2  0  0  0
 10 15  1  0  0  0
 11 12  1  0  0  0
 11 94  1  0  0  0
 12 13  2  0  0  0
 12 95  1  0  0  0
 13 14  1  0  0  0
 13 31  1  0  0  0
 14 15  2  0  0  0
 14 96  1  0  0  0
 15 97  1  0  0  0
 16 17  2  0  0  0
 16 21  1  0  0  0
 16 31  1  0  0  0
 17 18  1  0  0  0
 17 98  1  0  0  0
 18 19  2  0  0  0
 18 99  1  0  0  0
 19 20  1  0  0  0
 19 24  1  0  0  0
 20 21  2  0  0  0
 20100  1  0  0  0
 21 23  1  0  0  0
 22 28  1  0  0  0
 22 32  2  0  0  0
 26 27  1  0  0  0
 28101  1  0  0  0
 28102  1  0  0  0
 29103  1  0  0  0
 29104  1  0  0  0
 33 34  1  0  0  0
 33 66  1  0  0  0
 33 70  2  0  0  0
 34 36  1  0  0  0
 34 59  1  0  0  0
 34105  1  0  0  0
 35 44  2  0  0  0
 35 45  1  0  0  0
 35 68  1  0  0  0
 36 56  1  0  0  0
 36106  1  0  0  0
 37 39  1  0  0  0
 37 47  1  0  0  0
 37 66  1  0  0  0
 37107  1  0  0  0
 38 43  2  0  0  0
 38 46  1  0  0  0
 38 47  1  0  0  0
 39 64  1  0  0  0
 39 67  2  0  0  0
 40 52  1  0  0  0
 40 53  2  0  0  0
 40 58  1  0  0  0
 41108  1  0  0  0
 41109  1  0  0  0
 41110  1  0  0  0
 41 48  1  0  0  0
 42 43  1  0  0  0
 42 66  1  0  0  0
 42111  1  0  0  0
 42112  1  0  0  0
 43 44  1  0  0  0
 44113  1  0  0  0
 45 46  2  0  0  0
 45114  1  0  0  0
 46115  1  0  0  0
 47116  1  0  0  0
 47117  1  0  0  0
 48 56  1  0  0  0
 48 65  1  0  0  0
 48118  1  0  0  0
 49 50  1  0  0  0
 49 53  1  0  0  0
 49 64  1  0  0  0
 49119  1  0  0  0
 50 51  1  0  0  0
 50120  1  0  0  0
 50121  1  0  0  0
 51 52  1  0  0  0
 51122  1  0  0  0
 51123  1  0  0  0
 52124  1  0  0  0
 52125  1  0  0  0
 53 54  1  0  0  0
 54 55  2  0  0  0
 54126  1  0  0  0
 55 57  1  0  0  0
 55127  1  0  0  0
 56 69  2  0  0  0
 57 58  2  0  0  0
 57128  1  0  0  0
 58129  1  0  0  0
 59 60  1  0  0  0
 59 61  1  0  0  0
 59 62  1  0  0  0
 60130  1  0  0  0
 60131  1  0  0  0
 60132  1  0  0  0
 61133  1  0  0  0
 61134  1  0  0  0
 61135  1  0  0  0
 62136  1  0  0  0
 62137  1  0  0  0
 62138  1  0  0  0
 63 65  1  0  0  0
 63139  1  0  0  0
 63140  1  0  0  0
 63141  1  0  0  0
 64142  1  0  0  0
 65143  1  0  0  0
 68 82  1  0  0  0
 71 72  2  0  0  0
 71 75  1  0  0  0
 71144  1  0  0  0
 72 76  1  0  0  0
 72145  1  0  0  0
 73 74  1  0  0  0
 73 76  2  0  0  0
 73146  1  0  0  0
 74 75  2  0  0  0
 74 81  1  0  0  0
 75 83  1  0  0  0
 76 84  1  0  0  0
 77 78  1  0  0  0
 77 80  1  0  0  0
 77147  1  0  0  0
 77148  1  0  0  0
 78 83  1  0  0  0
 78149  1  0  0  0
 78150  1  0  0  0
 79 80  1  0  0  0
 79 83  1  0  0  0
 79151  1  0  0  0
 79152  1  0  0  0
 80 82  1  0  0  0
 80153  1  0  0  0
 81154  1  0  0  0
 81155  1  0  0  0
 81156  1  0  0  0
 82157  1  0  0  0
 82158  1  0  0  0
 84159  1  0  0  0
M  ISO  4   1 100  68 101  82 101  84 100
M  END
> <chiral flag>
0

> <version>
0

> <s_m_source_file>
/data/baiqing/PycharmProjects/Reinvent-master-3.2/result/LINK_invent/BTK/process_docking_weight1_custom_product_contain_oxygen_bond_distance_aromatic_linkinvent_7_9_3/rearranged_h_0024.sdf

> <i_m_source_file_index>
67

> <r_mmod_Potential_Energy-OPLS-2005>
130.726699829102

> <r_mmod_Stretch_Energy-OPLS-2005>
75.7613296508789

> <r_mmod_Bend_Energy-OPLS-2005>
186.302810668945

> <r_mmod_Torsional_Energy-OPLS-2005>
276.644866943359

> <r_mmod_Improper_Torsional_Energy-OPLS-2005>
8.40596294403076

> <r_mmod_Van_der_Waal_Energy-OPLS-2005>
148.533660888672

> <r_mmod_Electrostatic_Energy-OPLS-2005>
-391.758605957031

> <r_mmod_Solvation_Energy-OPLS-2005>
-226.422103881836

> <b_mmod_Minimization_Converged-OPLS-2005>
0

> <r_mmod_RMS_Derivative-OPLS-2005>
3.3151547908783

$$$$
67
                    3D
 Structure written by MMmdl.
165174  0  0  1  0            999 V2000
  -30.7254  -14.6502   20.5472 C   0  0  0  0  0  0
  -30.4190  -12.4122   19.4866 C   0  0  0  0  0  0
  -29.5055  -12.5230   18.2480 C   0  0  0  0  0  0
  -28.0344  -12.3481   18.6640 C   0  0  0  0  0  0
  -27.6572  -13.2305   19.8848 C   0  0  2  0  0  0
  -28.7071  -13.1204   21.0169 C   0  0  0  0  0  0
  -25.2598  -13.8227   20.5771 C   0  0  0  0  0  0
  -24.1832  -13.0442   20.9224 C   0  0  0  0  0  0
  -24.6414  -11.6944   20.8795 C   0  0  0  0  0  0
  -23.9075  -10.4298   21.0386 C   0  0  0  0  0  0
  -24.3626   -9.4200   21.9152 C   0  0  0  0  0  0
  -23.6270   -8.2259   22.0754 C   0  0  0  0  0  0
  -22.4260   -8.0304   21.3560 C   0  0  0  0  0  0
  -21.9898   -9.0269   20.4654 C   0  0  0  0  0  0
  -22.7254  -10.2138   20.3025 C   0  0  0  0  0  0
  -21.6840   -6.0755   22.5288 C   0  0  0  0  0  0
  -21.4013   -6.5648   23.8222 C   0  0  0  0  0  0
  -21.3650   -5.6802   24.9180 C   0  0  0  0  0  0
  -21.6009   -4.3059   24.7238 C   0  0  0  0  0  0
  -21.8806   -3.8175   23.4361 C   0  0  0  0  0  0
  -21.9171   -4.6984   22.3414 C   0  0  0  0  0  0
  -22.7852  -13.5246   21.1813 C   0  0  0  0  0  0
  -22.1638   -4.2166   21.0991 F   0  0  0  0  0  0
  -21.5627   -3.4536   25.7749 F   0  0  0  0  0  0
  -30.0193  -13.4670   20.4574 N   0  0  0  0  0  0
  -26.3027  -12.9408   20.3499 N   0  0  0  0  0  0
  -25.9359  -11.6560   20.5921 N   0  0  0  0  0  0
  -22.0499  -12.8205   22.0366 N   0  0  0  0  0  0
  -25.4305  -15.1931   20.4213 N   0  0  0  0  0  0
  -31.8090  -14.7218   19.9582 O   0  0  0  0  0  0
  -21.6623   -6.8905   21.4265 O   0  0  0  0  0  0
  -22.3512  -14.5527   20.6657 O   0  0  0  0  0  0
  -24.6349  -31.8430   23.2001 C   0  0  0  0  0  0
  -25.9139  -32.4713   23.8313 C   0  0  1  0  0  0
  -27.2108  -27.2387   20.0988 C   0  0  0  0  0  0
  -25.5957  -33.8554   24.2214 N   0  0  0  0  0  0
  -23.4305  -30.4606   21.5508 C   0  0  2  0  0  0
  -24.8697  -28.9154   20.0954 C   0  0  0  0  0  0
  -22.7509  -29.4400   22.4939 C   0  0  0  0  0  0
  -18.0310  -28.1332   22.8400 C   0  0  0  0  0  0
  -24.1511  -36.7266   23.2632 C   0  0  0  0  0  0
  -25.9769  -30.7404   21.3879 C   0  0  0  0  0  0
  -26.0437  -29.3695   20.7090 C   0  0  0  0  0  0
  -27.2137  -28.5427   20.6970 C   0  0  0  0  0  0
  -25.9937  -26.8203   19.5071 C   0  0  0  0  0  0
  -24.8548  -27.6538   19.4778 C   0  0  0  0  0  0
  -23.6380  -29.8060   20.1591 C   0  0  0  0  0  0
  -25.4153  -36.3055   24.0299 C   0  0  1  0  0  0
  -20.5862  -28.3616   23.1330 C   0  0  2  0  0  0
  -20.6864  -26.9368   22.5436 C   0  0  0  0  0  0
  -19.5934  -26.6324   21.5171 C   0  0  0  0  0  0
  -18.2049  -26.7879   22.1462 C   0  0  0  0  0  0
  -19.1510  -28.8828   23.2850 C   0  0  0  0  0  0
  -18.9410  -30.1460   23.8820 C   0  0  0  0  0  0
  -17.6385  -30.6582   24.0450 C   0  0  0  0  0  0
  -25.9091  -34.9427   23.5040 C   0  0  0  0  0  0
  -16.5306  -29.8986   23.6287 C   0  0  0  0  0  0
  -16.7287  -28.6425   23.0275 C   0  0  0  0  0  0
  -26.4518  -31.6633   25.0766 C   0  0  0  0  0  0
  -25.3714  -31.3851   26.1472 C   0  0  0  0  0  0
  -27.0344  -30.3052   24.6306 C   0  0  0  0  0  0
  -27.6070  -32.4346   25.7578 C   0  0  0  0  0  0
  -27.5581  -37.1795   24.8452 C   0  0  0  0  0  0
  -21.4200  -29.2896   22.3722 N   0  0  0  0  0  0
  -26.4294  -37.3782   23.9390 N   0  0  0  0  0  0
  -24.7006  -31.0301   22.1026 N   0  0  0  0  0  0
  -23.4177  -28.7899   23.3017 O   0  0  0  0  0  0
  -28.3540  -26.4092   20.1297 O   0  0  0  0  0  0
  -26.5650  -34.8892   22.4604 O   0  0  0  0  0  0
  -23.5505  -32.1265   23.7297 O   0  0  0  0  0  0
  -29.4791  -19.2634   21.9433 C   0  0  0  0  0  0
  -29.2102  -20.6383   21.6273 C   0  0  0  0  0  0
  -28.8339  -20.0154   19.3526 C   0  0  0  0  0  0
  -29.3690  -18.1999   20.9888 C   0  0  0  0  0  0
  -28.8296  -21.0630   20.3220 C   0  0  0  0  0  0
  -29.1053  -18.6469   19.6596 C   0  0  0  0  0  0
  -26.3623  -23.1653   21.1834 C   0  0  0  0  0  0
  -27.6246  -23.8623   21.7046 C   0  0  0  0  0  0
  -26.8308  -22.2678   20.0259 C   0  0  0  0  0  0
  -28.6044  -23.7372   20.5519 C   0  0  2  0  0  0
  -28.4795  -16.5296   22.7349 C   0  0  0  0  0  0
  -31.5463  -16.2279   22.1650 C   0  0  0  0  0  0
  -28.4360  -25.0170   19.5726 C   0  0  0  0  0  0
  -29.2331  -16.6520   21.3910 C   0  0  2  0  0  0
  -28.2955  -22.3682   19.9758 N   0  0  0  0  0  0
  -30.4011  -15.6811   21.4184 N   0  0  0  0  0  0
  -29.0175  -17.4960   18.3723 Cl  0  0  0  0  0  0
  -31.4689  -12.4684   19.1902 H   0  0  0  0  0  0
  -30.3146  -11.4285   19.9475 H   0  0  0  0  0  0
  -29.7799  -11.7648   17.5141 H   0  0  0  0  0  0
  -29.6429  -13.4897   17.7589 H   0  0  0  0  0  0
  -27.8904  -11.2965   18.9161 H   0  0  0  0  0  0
  -27.3673  -12.5517   17.8271 H   0  0  0  0  0  0
  -27.6668  -14.2638   19.5370 H   0  0  0  0  0  0
  -28.7434  -12.1052   21.4162 H   0  0  0  0  0  0
  -28.4472  -13.7550   21.8554 H   0  0  0  0  0  0
  -25.2791   -9.5615   22.4710 H   0  0  0  0  0  0
  -23.9959   -7.4664   22.7478 H   0  0  0  0  0  0
  -21.0815   -8.8774   19.8984 H   0  0  0  0  0  0
  -22.3711  -10.9652   19.6113 H   0  0  0  0  0  0
  -21.2018   -7.6160   23.9722 H   0  0  0  0  0  0
  -21.1470   -6.0546   25.9065 H   0  0  0  0  0  0
  -22.0582   -2.7631   23.2867 H   0  0  0  0  0  0
  -22.4193  -11.9941   22.4845 H   0  0  0  0  0  0
  -21.1137  -13.1248   22.2611 H   0  0  0  0  0  0
  -24.6737  -15.8537   20.5660 H   0  0  0  0  0  0
  -26.2865  -15.6400   20.1188 H   0  0  0  0  0  0
  -26.7168  -32.5304   23.0996 H   0  0  0  0  0  0
  -25.0068  -33.9808   25.0321 H   0  0  0  0  0  0
  -22.7264  -31.2847   21.4302 H   0  0  0  0  0  0
  -23.3782  -35.9582   23.3293 H   0  0  0  0  0  0
  -24.3567  -36.8902   22.2040 H   0  0  0  0  0  0
  -23.7285  -37.6473   23.6662 H   0  0  0  0  0  0
  -26.1286  -31.5067   20.6280 H   0  0  0  0  0  0
  -26.8518  -30.7704   22.0282 H   0  0  0  0  0  0
  -28.1276  -28.8601   21.1813 H   0  0  0  0  0  0
  -25.8778  -25.8272   19.0953 H   0  0  0  0  0  0
  -23.9511  -27.3161   18.9906 H   0  0  0  0  0  0
  -23.7552  -30.5993   19.4202 H   0  0  0  0  0  0
  -22.7470  -29.2489   19.8587 H   0  0  0  0  0  0
  -25.1370  -36.1859   25.0800 H   0  0  0  0  0  0
  -20.9884  -28.3181   24.1454 H   0  0  0  0  0  0
  -20.5864  -26.2166   23.3555 H   0  0  0  0  0  0
  -21.6768  -26.7534   22.1219 H   0  0  0  0  0  0
  -19.7069  -27.3094   20.6703 H   0  0  0  0  0  0
  -19.7172  -25.6253   21.1211 H   0  0  0  0  0  0
  -18.0463  -25.9981   22.8826 H   0  0  0  0  0  0
  -17.4414  -26.6564   21.3794 H   0  0  0  0  0  0
  -19.7871  -30.7333   24.2166 H   0  0  0  0  0  0
  -17.4876  -31.6267   24.4997 H   0  0  0  0  0  0
  -15.5291  -30.2850   23.7606 H   0  0  0  0  0  0
  -15.8692  -28.0747   22.6987 H   0  0  0  0  0  0
  -24.5856  -30.7240   25.7829 H   0  0  0  0  0  0
  -24.8939  -32.3042   26.4875 H   0  0  0  0  0  0
  -25.8008  -30.9048   27.0265 H   0  0  0  0  0  0
  -26.2941  -29.6839   24.1248 H   0  0  0  0  0  0
  -27.3893  -29.7358   25.4905 H   0  0  0  0  0  0
  -27.8894  -30.4368   23.9660 H   0  0  0  0  0  0
  -27.2689  -33.3614   26.2245 H   0  0  0  0  0  0
  -28.3899  -32.6926   25.0430 H   0  0  0  0  0  0
  -28.0685  -31.8359   26.5435 H   0  0  0  0  0  0
  -28.2605  -38.0089   24.7498 H   0  0  0  0  0  0
  -28.1067  -36.2611   24.6281 H   0  0  0  0  0  0
  -27.2269  -37.1479   25.8851 H   0  0  0  0  0  0
  -20.9340  -29.8511   21.6856 H   0  0  0  0  0  0
  -26.0138  -38.2829   24.1440 H   0  0  0  0  0  0
  -29.6851  -19.0376   22.9825 H   0  0  0  0  0  0
  -29.2011  -21.3601   22.4299 H   0  0  0  0  0  0
  -28.5255  -20.2365   18.3382 H   0  0  0  0  0  0
  -25.6451  -23.8878   20.7874 H   0  0  0  0  0  0
  -25.8613  -22.6204   21.9835 H   0  0  0  0  0  0
  -28.0222  -23.3747   22.5975 H   0  0  0  0  0  0
  -27.4643  -24.9017   21.9768 H   0  0  0  0  0  0
  -26.3999  -22.6210   19.0874 H   0  0  0  0  0  0
  -26.4631  -21.2406   20.1424 H   0  0  0  0  0  0
  -29.6214  -23.8047   20.9484 H   0  0  0  0  0  0
  -27.5441  -17.0883   22.7335 H   0  0  0  0  0  0
  -29.0690  -16.9115   23.5672 H   0  0  0  0  0  0
  -28.2256  -15.5026   22.9785 H   0  0  0  0  0  0
  -31.9605  -17.1046   21.6660 H   0  0  0  0  0  0
  -32.3565  -15.4983   22.2715 H   0  0  0  0  0  0
  -31.2666  -16.4985   23.1817 H   0  0  0  0  0  0
  -27.7485  -24.8309   18.7449 H   0  0  0  0  0  0
  -29.3858  -25.0318   19.0406 H   0  0  0  0  0  0
  -28.5440  -16.2331   20.6622 H   0  0  0  0  0  0
  1 25  1  0  0  0
  1 30  2  0  0  0
  1 86  1  0  0  0
  2  3  1  0  0  0
  2 25  1  0  0  0
  2 88  1  0  0  0
  2 89  1  0  0  0
  3  4  1  0  0  0
  3 90  1  0  0  0
  3 91  1  0  0  0
  4  5  1  0  0  0
  4 92  1  0  0  0
  4 93  1  0  0  0
  5  6  1  0  0  0
  5 26  1  0  0  0
  5 94  1  0  0  0
  6 25  1  0  0  0
  6 95  1  0  0  0
  6 96  1  0  0  0
  7  8  2  0  0  0
  7 26  1  0  0  0
  7 29  1  0  0  0
  8  9  1  0  0  0
  8 22  1  0  0  0
  9 10  1  0  0  0
  9 27  2  0  0  0
 10 11  2  0  0  0
 10 15  1  0  0  0
 11 12  1  0  0  0
 11 97  1  0  0  0
 12 13  2  0  0  0
 12 98  1  0  0  0
 13 14  1  0  0  0
 13 31  1  0  0  0
 14 15  2  0  0  0
 14 99  1  0  0  0
 15100  1  0  0  0
 16 17  2  0  0  0
 16 21  1  0  0  0
 16 31  1  0  0  0
 17 18  1  0  0  0
 17101  1  0  0  0
 18 19  2  0  0  0
 18102  1  0  0  0
 19 20  1  0  0  0
 19 24  1  0  0  0
 20 21  2  0  0  0
 20103  1  0  0  0
 21 23  1  0  0  0
 22 28  1  0  0  0
 22 32  2  0  0  0
 26 27  1  0  0  0
 28104  1  0  0  0
 28105  1  0  0  0
 29106  1  0  0  0
 29107  1  0  0  0
 33 34  1  0  0  0
 33 66  1  0  0  0
 33 70  2  0  0  0
 34 36  1  0  0  0
 34 59  1  0  0  0
 34108  1  0  0  0
 35 44  2  0  0  0
 35 45  1  0  0  0
 35 68  1  0  0  0
 36 56  1  0  0  0
 36109  1  0  0  0
 37 39  1  0  0  0
 37 47  1  0  0  0
 37 66  1  0  0  0
 37110  1  0  0  0
 38 43  2  0  0  0
 38 46  1  0  0  0
 38 47  1  0  0  0
 39 64  1  0  0  0
 39 67  2  0  0  0
 40 52  1  0  0  0
 40 53  2  0  0  0
 40 58  1  0  0  0
 41111  1  0  0  0
 41112  1  0  0  0
 41113  1  0  0  0
 41 48  1  0  0  0
 42 43  1  0  0  0
 42 66  1  0  0  0
 42114  1  0  0  0
 42115  1  0  0  0
 43 44  1  0  0  0
 44116  1  0  0  0
 45 46  2  0  0  0
 45117  1  0  0  0
 46118  1  0  0  0
 47119  1  0  0  0
 47120  1  0  0  0
 48 56  1  0  0  0
 48 65  1  0  0  0
 48121  1  0  0  0
 49 50  1  0  0  0
 49 53  1  0  0  0
 49 64  1  0  0  0
 49122  1  0  0  0
 50 51  1  0  0  0
 50123  1  0  0  0
 50124  1  0  0  0
 51 52  1  0  0  0
 51125  1  0  0  0
 51126  1  0  0  0
 52127  1  0  0  0
 52128  1  0  0  0
 53 54  1  0  0  0
 54 55  2  0  0  0
 54129  1  0  0  0
 55 57  1  0  0  0
 55130  1  0  0  0
 56 69  2  0  0  0
 57 58  2  0  0  0
 57131  1  0  0  0
 58132  1  0  0  0
 59 60  1  0  0  0
 59 61  1  0  0  0
 59 62  1  0  0  0
 60133  1  0  0  0
 60134  1  0  0  0
 60135  1  0  0  0
 61136  1  0  0  0
 61137  1  0  0  0
 61138  1  0  0  0
 62139  1  0  0  0
 62140  1  0  0  0
 62141  1  0  0  0
 63 65  1  0  0  0
 63142  1  0  0  0
 63143  1  0  0  0
 63144  1  0  0  0
 64145  1  0  0  0
 65146  1  0  0  0
 68 83  1  0  0  0
 71 72  2  0  0  0
 71 74  1  0  0  0
 71147  1  0  0  0
 72 75  1  0  0  0
 72148  1  0  0  0
 73 75  2  0  0  0
 73 76  1  0  0  0
 73149  1  0  0  0
 74 76  2  0  0  0
 74 84  1  0  0  0
 75 85  1  0  0  0
 76 87  1  0  0  0
 77 78  1  0  0  0
 77 79  1  0  0  0
 77150  1  0  0  0
 77151  1  0  0  0
 78 80  1  0  0  0
 78152  1  0  0  0
 78153  1  0  0  0
 79 85  1  0  0  0
 79154  1  0  0  0
 79155  1  0  0  0
 80 83  1  0  0  0
 80 85  1  0  0  0
 80156  1  0  0  0
 81157  1  0  0  0
 81158  1  0  0  0
 81159  1  0  0  0
 81 84  1  0  0  0
 82 86  1  0  0  0
 82160  1  0  0  0
 82161  1  0  0  0
 82162  1  0  0  0
 83163  1  0  0  0
 83164  1  0  0  0
 84 86  1  0  0  0
 84165  1  0  0  0
M  ISO  4   1 100  68 101  83 101  86 100
M  END
> <chiral flag>
0

> <version>
0

> <s_m_source_file>
/data/baiqing/PycharmProjects/Reinvent-master-3.2/result/LINK_invent/BTK/process_docking_weight1_custom_product_contain_oxygen_bond_distance_aromatic_linkinvent_7_9_3/rearranged_h_0024.sdf

> <i_m_source_file_index>
68

> <r_mmod_Potential_Energy-OPLS-2005>
457.656402587891

> <r_mmod_Stretch_Energy-OPLS-2005>
116.721481323242

> <r_mmod_Bend_Energy-OPLS-2005>
250.27424621582

> <r_mmod_Torsional_Energy-OPLS-2005>
367.489227294922

> <r_mmod_Improper_Torsional_Energy-OPLS-2005>
14.2197494506836

> <r_mmod_Van_der_Waal_Energy-OPLS-2005>
134.361663818359

> <r_mmod_Electrostatic_Energy-OPLS-2005>
-288.145385742188

> <r_mmod_Solvation_Energy-OPLS-2005>
-203.885620117188

> <b_mmod_Minimization_Converged-OPLS-2005>
0

> <r_mmod_RMS_Derivative-OPLS-2005>
10.1005544662476

$$$$
68
                    3D
 Structure written by MMmdl.
154162  0  0  1  0            999 V2000
  -30.6179  -14.6523   20.4798 C   0  0  0  0  0  0
  -30.4374  -12.3976   19.4499 C   0  0  0  0  0  0
  -29.5158  -12.5283   18.2186 C   0  0  0  0  0  0
  -28.0300  -12.3863   18.6145 C   0  0  0  0  0  0
  -27.6528  -13.2285   19.8652 C   0  0  2  0  0  0
  -28.7006  -13.0787   20.9919 C   0  0  0  0  0  0
  -25.2535  -13.8193   20.5699 C   0  0  0  0  0  0
  -24.1827  -13.0421   20.9222 C   0  0  0  0  0  0
  -24.6411  -11.6908   20.8727 C   0  0  0  0  0  0
  -23.9086  -10.4276   21.0389 C   0  0  0  0  0  0
  -24.3627   -9.4203   21.9184 C   0  0  0  0  0  0
  -23.6292   -8.2244   22.0770 C   0  0  0  0  0  0
  -22.4272   -8.0278   21.3566 C   0  0  0  0  0  0
  -21.9907   -9.0245   20.4670 C   0  0  0  0  0  0
  -22.7238  -10.2122   20.3056 C   0  0  0  0  0  0
  -21.6850   -6.0745   22.5286 C   0  0  0  0  0  0
  -21.4011   -6.5644   23.8219 C   0  0  0  0  0  0
  -21.3661   -5.6791   24.9174 C   0  0  0  0  0  0
  -21.6056   -4.3057   24.7219 C   0  0  0  0  0  0
  -21.8808   -3.8161   23.4327 C   0  0  0  0  0  0
  -21.9187   -4.6979   22.3394 C   0  0  0  0  0  0
  -22.7834  -13.5208   21.1890 C   0  0  0  0  0  0
  -22.1662   -4.2177   21.0964 F   0  0  0  0  0  0
  -21.5636   -3.4525   25.7726 F   0  0  0  0  0  0
  -30.0139  -13.4232   20.4234 N   0  0  0  0  0  0
  -26.2984  -12.9398   20.3290 N   0  0  0  0  0  0
  -25.9343  -11.6542   20.5715 N   0  0  0  0  0  0
  -22.0465  -12.8192   22.0451 N   0  0  0  0  0  0
  -25.4113  -15.1922   20.4097 N   0  0  0  0  0  0
  -31.7922  -14.7992   20.1265 O   0  0  0  0  0  0
  -21.6638   -6.8872   21.4249 O   0  0  0  0  0  0
  -22.3501  -14.5500   20.6730 O   0  0  0  0  0  0
  -24.6262  -31.8587   23.2056 C   0  0  0  0  0  0
  -25.9137  -32.4763   23.8342 C   0  0  1  0  0  0
  -27.2324  -27.3335   20.1167 C   0  0  0  0  0  0
  -25.5983  -33.8567   24.2289 N   0  0  0  0  0  0
  -23.4187  -30.4859   21.5463 C   0  0  2  0  0  0
  -24.8685  -28.9516   20.1097 C   0  0  0  0  0  0
  -22.7465  -29.4626   22.4927 C   0  0  0  0  0  0
  -18.0289  -28.1384   22.8488 C   0  0  0  0  0  0
  -24.1510  -36.7264   23.2636 C   0  0  0  0  0  0
  -25.9583  -30.8032   21.3706 C   0  0  0  0  0  0
  -26.0370  -29.4328   20.7099 C   0  0  0  0  0  0
  -27.2199  -28.6363   20.7037 C   0  0  0  0  0  0
  -26.0378  -26.9122   19.4823 C   0  0  0  0  0  0
  -24.8707  -27.6971   19.4848 C   0  0  0  0  0  0
  -23.6331  -29.8248   20.1602 C   0  0  0  0  0  0
  -25.4128  -36.3064   24.0332 C   0  0  1  0  0  0
  -20.5892  -28.3690   23.1295 C   0  0  2  0  0  0
  -20.6788  -26.9412   22.5436 C   0  0  0  0  0  0
  -19.5751  -26.6386   21.5238 C   0  0  0  0  0  0
  -18.1929  -26.7937   22.1618 C   0  0  0  0  0  0
  -19.1539  -28.8851   23.2889 C   0  0  0  0  0  0
  -18.9459  -30.1458   23.8895 C   0  0  0  0  0  0
  -17.6458  -30.6587   24.0560 C   0  0  0  0  0  0
  -25.9070  -34.9447   23.5099 C   0  0  0  0  0  0
  -16.5347  -29.9075   23.6341 C   0  0  0  0  0  0
  -16.7278  -28.6502   23.0352 C   0  0  0  0  0  0
  -26.4547  -31.6535   25.0678 C   0  0  0  0  0  0
  -25.3788  -31.3631   26.1391 C   0  0  0  0  0  0
  -27.0399  -30.2963   24.6099 C   0  0  0  0  0  0
  -27.6118  -32.4245   25.7444 C   0  0  0  0  0  0
  -27.5579  -37.1778   24.8452 C   0  0  0  0  0  0
  -21.4181  -29.3033   22.3666 N   0  0  0  0  0  0
  -26.4278  -37.3774   23.9425 N   0  0  0  0  0  0
  -24.6857  -31.0643   22.0977 N   0  0  0  0  0  0
  -23.4191  -28.8153   23.3002 O   0  0  0  0  0  0
  -28.3560  -26.4889   20.1862 O   0  0  0  0  0  0
  -26.5589  -34.8912   22.4631 O   0  0  0  0  0  0
  -23.5443  -32.1357   23.7430 O   0  0  0  0  0  0
  -28.9054  -19.4369   20.9429 C   0  0  0  0  0  0
  -28.8459  -18.0099   21.0145 C   0  0  0  0  0  0
  -31.0802  -17.8518   20.1419 C   0  0  0  0  0  0
  -30.0613  -20.1142   20.4796 C   0  0  0  0  0  0
  -29.9339  -17.1721   20.6352 C   0  0  0  0  0  0
  -31.1402  -19.2762   20.0688 C   0  0  0  0  0  0
  -29.2200  -24.0246   20.4449 C   0  0  0  0  0  0
  -28.3645  -22.2489   18.9583 C   0  0  0  0  0  0
  -30.2369  -21.6837   20.5556 C   0  0  0  0  0  0
  -28.1812  -25.0557   19.8406 C   0  0  0  0  0  0
  -29.7922  -15.7133   20.7588 N   0  0  0  0  0  0
  -29.2212  -22.6906   20.0605 N   0  0  0  0  0  0
  -30.0208  -24.4420   21.2866 O   0  0  0  0  0  0
  -32.2815  -19.8422   19.6063 F   0  0  0  0  0  0
  -31.4815  -12.5164   19.1563 H   0  0  0  0  0  0
  -30.3597  -11.4004   19.8859 H   0  0  0  0  0  0
  -29.7824  -11.7852   17.4664 H   0  0  0  0  0  0
  -29.6770  -13.4996   17.7479 H   0  0  0  0  0  0
  -27.8302  -11.3300   18.7945 H   0  0  0  0  0  0
  -27.3963  -12.6738   17.7738 H   0  0  0  0  0  0
  -27.6664  -14.2714   19.5474 H   0  0  0  0  0  0
  -28.7163  -12.0579   21.3786 H   0  0  0  0  0  0
  -28.4545  -13.7161   21.8445 H   0  0  0  0  0  0
  -25.2764   -9.5686   22.4775 H   0  0  0  0  0  0
  -24.0001   -7.4641   22.7487 H   0  0  0  0  0  0
  -21.0836   -8.8731   19.8996 H   0  0  0  0  0  0
  -22.3665  -10.9646   19.6164 H   0  0  0  0  0  0
  -21.2002   -7.6157   23.9709 H   0  0  0  0  0  0
  -21.1514   -6.0544   25.9071 H   0  0  0  0  0  0
  -22.0597   -2.7633   23.2819 H   0  0  0  0  0  0
  -22.4030  -11.9810   22.4798 H   0  0  0  0  0  0
  -21.1096  -13.1257   22.2673 H   0  0  0  0  0  0
  -24.6259  -15.8222   20.5289 H   0  0  0  0  0  0
  -26.2039  -15.6395   19.9669 H   0  0  0  0  0  0
  -26.7184  -32.5453   23.1072 H   0  0  0  0  0  0
  -25.0254  -33.9711   25.0518 H   0  0  0  0  0  0
  -22.7117  -31.3061   21.4046 H   0  0  0  0  0  0
  -23.3812  -35.9557   23.3247 H   0  0  0  0  0  0
  -24.3628  -36.8925   22.2062 H   0  0  0  0  0  0
  -23.7212  -37.6433   23.6675 H   0  0  0  0  0  0
  -26.0868  -31.5770   20.6122 H   0  0  0  0  0  0
  -26.8395  -30.8462   21.9996 H   0  0  0  0  0  0
  -28.1178  -29.0100   21.1763 H   0  0  0  0  0  0
  -25.9648  -25.9595   18.9819 H   0  0  0  0  0  0
  -23.9756  -27.3273   19.0050 H   0  0  0  0  0  0
  -23.7413  -30.6003   19.4002 H   0  0  0  0  0  0
  -22.7555  -29.2462   19.8662 H   0  0  0  0  0  0
  -25.1313  -36.1898   25.0820 H   0  0  0  0  0  0
  -20.9979  -28.3275   24.1421 H   0  0  0  0  0  0
  -20.5751  -26.2278   23.3636 H   0  0  0  0  0  0
  -21.6645  -26.7483   22.1182 H   0  0  0  0  0  0
  -19.6927  -25.6309   21.1239 H   0  0  0  0  0  0
  -19.6698  -27.3226   20.6794 H   0  0  0  0  0  0
  -17.4220  -26.6736   21.3983 H   0  0  0  0  0  0
  -18.0272  -26.0061   22.8987 H   0  0  0  0  0  0
  -19.7936  -30.7285   24.2245 H   0  0  0  0  0  0
  -17.5012  -31.6280   24.5145 H   0  0  0  0  0  0
  -15.5349  -30.2969   23.7686 H   0  0  0  0  0  0
  -15.8676  -28.0834   22.7045 H   0  0  0  0  0  0
  -24.6097  -30.6810   25.7727 H   0  0  0  0  0  0
  -24.8840  -32.2767   26.4681 H   0  0  0  0  0  0
  -25.8165  -30.8947   27.0212 H   0  0  0  0  0  0
  -26.2962  -29.6656   24.1209 H   0  0  0  0  0  0
  -27.4205  -29.7244   25.4569 H   0  0  0  0  0  0
  -27.8770  -30.4242   23.9240 H   0  0  0  0  0  0
  -27.2780  -33.3607   26.1913 H   0  0  0  0  0  0
  -28.3999  -32.6658   25.0302 H   0  0  0  0  0  0
  -28.0675  -31.8392   26.5433 H   0  0  0  0  0  0
  -28.2544  -38.0133   24.7618 H   0  0  0  0  0  0
  -28.1137  -36.2674   24.6156 H   0  0  0  0  0  0
  -27.2299  -37.1256   25.8849 H   0  0  0  0  0  0
  -20.9345  -29.8711   21.6846 H   0  0  0  0  0  0
  -26.0154  -38.2824   24.1506 H   0  0  0  0  0  0
  -28.0601  -20.0243   21.2762 H   0  0  0  0  0  0
  -27.9381  -17.5594   21.3920 H   0  0  0  0  0  0
  -31.9477  -17.2931   19.8260 H   0  0  0  0  0  0
  -28.6768  -22.7186   18.0236 H   0  0  0  0  0  0
  -27.3248  -22.5159   19.1460 H   0  0  0  0  0  0
  -28.3923  -21.1743   18.7926 H   0  0  0  0  0  0
  -31.1658  -21.9349   20.0433 H   0  0  0  0  0  0
  -30.4305  -21.8926   21.6094 H   0  0  0  0  0  0
  -27.2122  -24.6991   20.1891 H   0  0  0  0  0  0
  -28.1966  -24.9777   18.7536 H   0  0  0  0  0  0
  -28.8657  -15.4113   21.0218 H   0  0  0  0  0  0
  1 25  1  0  0  0
  1 30  2  0  0  0
  1 81  1  0  0  0
  2  3  1  0  0  0
  2 25  1  0  0  0
  2 85  1  0  0  0
  2 86  1  0  0  0
  3  4  1  0  0  0
  3 87  1  0  0  0
  3 88  1  0  0  0
  4  5  1  0  0  0
  4 89  1  0  0  0
  4 90  1  0  0  0
  5  6  1  0  0  0
  5 26  1  0  0  0
  5 91  1  0  0  0
  6 25  1  0  0  0
  6 92  1  0  0  0
  6 93  1  0  0  0
  7  8  2  0  0  0
  7 26  1  0  0  0
  7 29  1  0  0  0
  8  9  1  0  0  0
  8 22  1  0  0  0
  9 10  1  0  0  0
  9 27  2  0  0  0
 10 11  2  0  0  0
 10 15  1  0  0  0
 11 12  1  0  0  0
 11 94  1  0  0  0
 12 13  2  0  0  0
 12 95  1  0  0  0
 13 14  1  0  0  0
 13 31  1  0  0  0
 14 15  2  0  0  0
 14 96  1  0  0  0
 15 97  1  0  0  0
 16 17  2  0  0  0
 16 21  1  0  0  0
 16 31  1  0  0  0
 17 18  1  0  0  0
 17 98  1  0  0  0
 18 19  2  0  0  0
 18 99  1  0  0  0
 19 20  1  0  0  0
 19 24  1  0  0  0
 20 21  2  0  0  0
 20100  1  0  0  0
 21 23  1  0  0  0
 22 28  1  0  0  0
 22 32  2  0  0  0
 26 27  1  0  0  0
 28101  1  0  0  0
 28102  1  0  0  0
 29103  1  0  0  0
 29104  1  0  0  0
 33 34  1  0  0  0
 33 66  1  0  0  0
 33 70  2  0  0  0
 34 36  1  0  0  0
 34 59  1  0  0  0
 34105  1  0  0  0
 35 44  2  0  0  0
 35 45  1  0  0  0
 35 68  1  0  0  0
 36 56  1  0  0  0
 36106  1  0  0  0
 37 39  1  0  0  0
 37 47  1  0  0  0
 37 66  1  0  0  0
 37107  1  0  0  0
 38 43  2  0  0  0
 38 46  1  0  0  0
 38 47  1  0  0  0
 39 64  1  0  0  0
 39 67  2  0  0  0
 40 52  1  0  0  0
 40 53  2  0  0  0
 40 58  1  0  0  0
 41108  1  0  0  0
 41109  1  0  0  0
 41110  1  0  0  0
 41 48  1  0  0  0
 42 43  1  0  0  0
 42 66  1  0  0  0
 42111  1  0  0  0
 42112  1  0  0  0
 43 44  1  0  0  0
 44113  1  0  0  0
 45 46  2  0  0  0
 45114  1  0  0  0
 46115  1  0  0  0
 47116  1  0  0  0
 47117  1  0  0  0
 48 56  1  0  0  0
 48 65  1  0  0  0
 48118  1  0  0  0
 49 50  1  0  0  0
 49 53  1  0  0  0
 49 64  1  0  0  0
 49119  1  0  0  0
 50 51  1  0  0  0
 50120  1  0  0  0
 50121  1  0  0  0
 51 52  1  0  0  0
 51122  1  0  0  0
 51123  1  0  0  0
 52124  1  0  0  0
 52125  1  0  0  0
 53 54  1  0  0  0
 54 55  2  0  0  0
 54126  1  0  0  0
 55 57  1  0  0  0
 55127  1  0  0  0
 56 69  2  0  0  0
 57 58  2  0  0  0
 57128  1  0  0  0
 58129  1  0  0  0
 59 60  1  0  0  0
 59 61  1  0  0  0
 59 62  1  0  0  0
 60130  1  0  0  0
 60131  1  0  0  0
 60132  1  0  0  0
 61133  1  0  0  0
 61134  1  0  0  0
 61135  1  0  0  0
 62136  1  0  0  0
 62137  1  0  0  0
 62138  1  0  0  0
 63 65  1  0  0  0
 63139  1  0  0  0
 63140  1  0  0  0
 63141  1  0  0  0
 64142  1  0  0  0
 65143  1  0  0  0
 68 80  1  0  0  0
 71 72  2  0  0  0
 71 74  1  0  0  0
 71144  1  0  0  0
 72 75  1  0  0  0
 72145  1  0  0  0
 73 75  2  0  0  0
 73 76  1  0  0  0
 73146  1  0  0  0
 74 76  2  0  0  0
 74 79  1  0  0  0
 75 81  1  0  0  0
 76 84  1  0  0  0
 77 80  1  0  0  0
 77 82  1  0  0  0
 77 83  2  0  0  0
 78 82  1  0  0  0
 78147  1  0  0  0
 78148  1  0  0  0
 78149  1  0  0  0
 79 82  1  0  0  0
 79150  1  0  0  0
 79151  1  0  0  0
 80152  1  0  0  0
 80153  1  0  0  0
 81154  1  0  0  0
M  ISO  4   1 100  68 101  80 101  81 100
M  END
> <chiral flag>
0

> <version>
0

> <s_m_source_file>
/data/baiqing/PycharmProjects/Reinvent-master-3.2/result/LINK_invent/BTK/process_docking_weight1_custom_product_contain_oxygen_bond_distance_aromatic_linkinvent_7_9_3/rearranged_h_0024.sdf

> <i_m_source_file_index>
69

> <r_mmod_Potential_Energy-OPLS-2005>
91.5552597045898

> <r_mmod_Stretch_Energy-OPLS-2005>
86.0524749755859

> <r_mmod_Bend_Energy-OPLS-2005>
144.418182373047

> <r_mmod_Torsional_Energy-OPLS-2005>
223.218185424805

> <r_mmod_Improper_Torsional_Energy-OPLS-2005>
5.78272294998169

> <r_mmod_Van_der_Waal_Energy-OPLS-2005>
154.181411743164

> <r_mmod_Electrostatic_Energy-OPLS-2005>
-329.850646972656

> <r_mmod_Solvation_Energy-OPLS-2005>
-240.583358764648

> <b_mmod_Minimization_Converged-OPLS-2005>
0

> <r_mmod_RMS_Derivative-OPLS-2005>
3.8045711517334

$$$$
69
                    3D
 Structure written by MMmdl.
162171  0  0  1  0            999 V2000
  -30.6729  -14.6316   20.5091 C   0  0  0  0  0  0
  -30.4283  -12.3987   19.4452 C   0  0  0  0  0  0
  -29.4983  -12.4975   18.2184 C   0  0  0  0  0  0
  -28.0260  -12.3327   18.6409 C   0  0  0  0  0  0
  -27.6490  -13.2232   19.8551 C   0  0  2  0  0  0
  -28.6972  -13.1155   20.9856 C   0  0  0  0  0  0
  -25.2549  -13.8188   20.5687 C   0  0  0  0  0  0
  -24.1826  -13.0445   20.9190 C   0  0  0  0  0  0
  -24.6409  -11.6919   20.8753 C   0  0  0  0  0  0
  -23.9082  -10.4297   21.0411 C   0  0  0  0  0  0
  -24.3629   -9.4210   21.9185 C   0  0  0  0  0  0
  -23.6294   -8.2253   22.0759 C   0  0  0  0  0  0
  -22.4277   -8.0294   21.3554 C   0  0  0  0  0  0
  -21.9919   -9.0266   20.4657 C   0  0  0  0  0  0
  -22.7253  -10.2143   20.3059 C   0  0  0  0  0  0
  -21.6857   -6.0738   22.5270 C   0  0  0  0  0  0
  -21.4026   -6.5634   23.8207 C   0  0  0  0  0  0
  -21.3653   -5.6786   24.9164 C   0  0  0  0  0  0
  -21.6036   -4.3047   24.7216 C   0  0  0  0  0  0
  -21.8824   -3.8143   23.4337 C   0  0  0  0  0  0
  -21.9203   -4.6964   22.3400 C   0  0  0  0  0  0
  -22.7847  -13.5244   21.1828 C   0  0  0  0  0  0
  -22.1667   -4.2145   21.0980 F   0  0  0  0  0  0
  -21.5621   -3.4535   25.7733 F   0  0  0  0  0  0
  -30.0057  -13.4402   20.4040 N   0  0  0  0  0  0
  -26.2983  -12.9383   20.3314 N   0  0  0  0  0  0
  -25.9343  -11.6528   20.5777 N   0  0  0  0  0  0
  -22.0494  -12.8238   22.0384 N   0  0  0  0  0  0
  -25.4246  -15.1912   20.4088 N   0  0  0  0  0  0
  -31.8509  -14.7256   20.1584 O   0  0  0  0  0  0
  -21.6645   -6.8887   21.4236 O   0  0  0  0  0  0
  -22.3527  -14.5547   20.6670 O   0  0  0  0  0  0
  -24.6264  -31.8608   23.2037 C   0  0  0  0  0  0
  -25.9115  -32.4787   23.8372 C   0  0  1  0  0  0
  -27.2150  -27.3117   20.1188 C   0  0  0  0  0  0
  -25.5931  -33.8585   24.2293 N   0  0  0  0  0  0
  -23.4194  -30.4851   21.5489 C   0  0  2  0  0  0
  -24.8636  -28.9462   20.1075 C   0  0  0  0  0  0
  -22.7485  -29.4615   22.4954 C   0  0  0  0  0  0
  -18.0290  -28.1398   22.8502 C   0  0  0  0  0  0
  -24.1487  -36.7292   23.2638 C   0  0  0  0  0  0
  -25.9615  -30.7892   21.3766 C   0  0  0  0  0  0
  -26.0322  -29.4165   20.7191 C   0  0  0  0  0  0
  -27.2096  -28.6094   20.7185 C   0  0  0  0  0  0
  -26.0270  -26.9075   19.4630 C   0  0  0  0  0  0
  -24.8639  -27.6977   19.4698 C   0  0  0  0  0  0
  -23.6319  -29.8255   20.1618 C   0  0  0  0  0  0
  -25.4114  -36.3092   24.0331 C   0  0  1  0  0  0
  -20.5892  -28.3687   23.1306 C   0  0  2  0  0  0
  -20.6772  -26.9410   22.5426 C   0  0  0  0  0  0
  -19.5741  -26.6395   21.5230 C   0  0  0  0  0  0
  -18.1926  -26.7944   22.1643 C   0  0  0  0  0  0
  -19.1544  -28.8862   23.2897 C   0  0  0  0  0  0
  -18.9456  -30.1470   23.8898 C   0  0  0  0  0  0
  -17.6452  -30.6594   24.0571 C   0  0  0  0  0  0
  -25.9053  -34.9458   23.5115 C   0  0  0  0  0  0
  -16.5345  -29.9090   23.6339 C   0  0  0  0  0  0
  -16.7276  -28.6517   23.0352 C   0  0  0  0  0  0
  -26.4501  -31.6597   25.0737 C   0  0  0  0  0  0
  -25.3745  -31.3712   26.1472 C   0  0  0  0  0  0
  -27.0336  -30.3029   24.6168 C   0  0  0  0  0  0
  -27.6074  -32.4328   25.7496 C   0  0  0  0  0  0
  -27.5580  -37.1802   24.8468 C   0  0  0  0  0  0
  -21.4196  -29.3029   22.3698 N   0  0  0  0  0  0
  -26.4292  -37.3787   23.9411 N   0  0  0  0  0  0
  -24.6885  -31.0619   22.0995 N   0  0  0  0  0  0
  -23.4214  -28.8154   23.3030 O   0  0  0  0  0  0
  -28.3225  -26.4491   20.2019 O   0  0  0  0  0  0
  -26.5618  -34.8918   22.4679 O   0  0  0  0  0  0
  -23.5429  -32.1405   23.7363 O   0  0  0  0  0  0
  -29.2559  -18.7813   19.7270 C   0  0  0  0  0  0
  -29.9752  -20.9435   21.3686 C   0  0  0  0  0  0
  -28.9170  -20.1255   19.3651 C   0  0  0  0  0  0
  -29.9889  -18.4863   20.9008 C   0  0  0  0  0  0
  -29.3030  -21.2552   20.1612 C   0  0  0  0  0  0
  -30.3125  -19.6041   21.7214 C   0  0  0  0  0  0
  -31.1269  -23.8249   19.1622 C   0  0  0  0  0  0
  -30.5547  -24.3314   20.4873 C   0  0  0  0  0  0
  -30.0624  -22.8765   18.5942 C   0  0  0  0  0  0
  -29.0947  -23.8747   20.4782 C   0  0  2  0  0  0
  -28.1431  -20.3286   18.0707 C   0  0  0  0  0  0
  -30.5673  -17.0686   21.2742 C   0  0  0  0  0  0
  -28.1427  -25.0124   19.8701 C   0  0  0  0  0  0
  -29.1186  -22.6048   19.6786 N   0  0  0  0  0  0
  -29.9642  -15.7513   20.8628 N   0  0  0  0  0  0
  -31.0101  -19.3991   22.8648 F   0  0  0  0  0  0
  -31.4680  -12.5128   19.1320 H   0  0  0  0  0  0
  -30.3610  -11.4098   19.9042 H   0  0  0  0  0  0
  -29.7612  -11.7389   17.4805 H   0  0  0  0  0  0
  -29.6342  -13.4618   17.7259 H   0  0  0  0  0  0
  -27.8750  -11.2823   18.8939 H   0  0  0  0  0  0
  -27.3644  -12.5401   17.7990 H   0  0  0  0  0  0
  -27.6589  -14.2522   19.4928 H   0  0  0  0  0  0
  -28.7113  -12.1101   21.4107 H   0  0  0  0  0  0
  -28.4494  -13.7879   21.8087 H   0  0  0  0  0  0
  -25.2775   -9.5671   22.4751 H   0  0  0  0  0  0
  -23.9988   -7.4651   22.7488 H   0  0  0  0  0  0
  -21.0842   -8.8805   19.8972 H   0  0  0  0  0  0
  -22.3721  -10.9686   19.6168 H   0  0  0  0  0  0
  -21.2027   -7.6144   23.9706 H   0  0  0  0  0  0
  -21.1461   -6.0517   25.9067 H   0  0  0  0  0  0
  -22.0612   -2.7603   23.2842 H   0  0  0  0  0  0
  -22.4122  -11.9908   22.4774 H   0  0  0  0  0  0
  -21.1126  -13.1281   22.2614 H   0  0  0  0  0  0
  -24.6557  -15.8430   20.5175 H   0  0  0  0  0  0
  -26.2710  -15.6317   20.0701 H   0  0  0  0  0  0
  -26.7178  -32.5452   23.1120 H   0  0  0  0  0  0
  -25.0067  -33.9736   25.0430 H   0  0  0  0  0  0
  -22.7122  -31.3057   21.4105 H   0  0  0  0  0  0
  -23.3749  -35.9627   23.3307 H   0  0  0  0  0  0
  -24.3576  -36.8900   22.2050 H   0  0  0  0  0  0
  -23.7233  -37.6494   23.6658 H   0  0  0  0  0  0
  -26.0923  -31.5502   20.6057 H   0  0  0  0  0  0
  -26.8428  -30.8390   22.0048 H   0  0  0  0  0  0
  -28.1027  -28.9601   21.2163 H   0  0  0  0  0  0
  -25.9583  -25.9629   18.9452 H   0  0  0  0  0  0
  -23.9709  -27.3388   18.9768 H   0  0  0  0  0  0
  -23.7499  -30.6056   19.4084 H   0  0  0  0  0  0
  -22.7499  -29.2572   19.8589 H   0  0  0  0  0  0
  -25.1290  -36.1942   25.0821 H   0  0  0  0  0  0
  -20.9987  -28.3254   24.1428 H   0  0  0  0  0  0
  -20.5692  -26.2284   23.3619 H   0  0  0  0  0  0
  -21.6634  -26.7450   22.1204 H   0  0  0  0  0  0
  -19.6887  -25.6307   21.1251 H   0  0  0  0  0  0
  -19.6678  -27.3215   20.6766 H   0  0  0  0  0  0
  -17.4199  -26.6716   21.4041 H   0  0  0  0  0  0
  -18.0299  -26.0083   22.9027 H   0  0  0  0  0  0
  -19.7920  -30.7305   24.2257 H   0  0  0  0  0  0
  -17.4994  -31.6270   24.5173 H   0  0  0  0  0  0
  -15.5339  -30.2985   23.7664 H   0  0  0  0  0  0
  -15.8679  -28.0837   22.7058 H   0  0  0  0  0  0
  -24.5938  -30.7035   25.7805 H   0  0  0  0  0  0
  -24.8916  -32.2861   26.4915 H   0  0  0  0  0  0
  -25.8089  -30.8890   27.0239 H   0  0  0  0  0  0
  -26.2895  -29.6781   24.1212 H   0  0  0  0  0  0
  -27.4055  -29.7291   25.4663 H   0  0  0  0  0  0
  -27.8765  -30.4319   23.9372 H   0  0  0  0  0  0
  -27.2705  -33.3629   26.2087 H   0  0  0  0  0  0
  -28.3880  -32.6876   25.0313 H   0  0  0  0  0  0
  -28.0764  -31.8442   26.5392 H   0  0  0  0  0  0
  -28.2606  -38.0090   24.7513 H   0  0  0  0  0  0
  -28.1065  -36.2620   24.6306 H   0  0  0  0  0  0
  -27.2301  -37.1472   25.8872 H   0  0  0  0  0  0
  -20.9376  -29.8741   21.6895 H   0  0  0  0  0  0
  -26.0168  -38.2863   24.1415 H   0  0  0  0  0  0
  -28.9879  -17.9688   19.0670 H   0  0  0  0  0  0
  -30.3006  -21.7370   22.0228 H   0  0  0  0  0  0
  -32.0706  -23.3037   19.3344 H   0  0  0  0  0  0
  -31.3210  -24.6434   18.4678 H   0  0  0  0  0  0
  -30.6624  -25.4100   20.6116 H   0  0  0  0  0  0
  -31.0826  -23.8616   21.3186 H   0  0  0  0  0  0
  -30.5412  -21.9778   18.2000 H   0  0  0  0  0  0
  -29.5357  -23.3422   17.7600 H   0  0  0  0  0  0
  -28.7799  -23.6712   21.5024 H   0  0  0  0  0  0
  -27.4024  -21.1217   18.1783 H   0  0  0  0  0  0
  -27.6139  -19.4217   17.7804 H   0  0  0  0  0  0
  -28.8169  -20.5977   17.2582 H   0  0  0  0  0  0
  -30.6251  -17.0270   22.3620 H   0  0  0  0  0  0
  -31.6087  -17.0969   20.9505 H   0  0  0  0  0  0
  -27.1446  -24.6900   20.1671 H   0  0  0  0  0  0
  -28.1678  -24.9551   18.7816 H   0  0  0  0  0  0
  -28.9838  -15.6209   21.0576 H   0  0  0  0  0  0
  1 25  1  0  0  0
  1 30  2  0  0  0
  1 85  1  0  0  0
  2  3  1  0  0  0
  2 25  1  0  0  0
  2 87  1  0  0  0
  2 88  1  0  0  0
  3  4  1  0  0  0
  3 89  1  0  0  0
  3 90  1  0  0  0
  4  5  1  0  0  0
  4 91  1  0  0  0
  4 92  1  0  0  0
  5  6  1  0  0  0
  5 26  1  0  0  0
  5 93  1  0  0  0
  6 25  1  0  0  0
  6 94  1  0  0  0
  6 95  1  0  0  0
  7  8  2  0  0  0
  7 26  1  0  0  0
  7 29  1  0  0  0
  8  9  1  0  0  0
  8 22  1  0  0  0
  9 10  1  0  0  0
  9 27  2  0  0  0
 10 11  2  0  0  0
 10 15  1  0  0  0
 11 12  1  0  0  0
 11 96  1  0  0  0
 12 13  2  0  0  0
 12 97  1  0  0  0
 13 14  1  0  0  0
 13 31  1  0  0  0
 14 15  2  0  0  0
 14 98  1  0  0  0
 15 99  1  0  0  0
 16 17  2  0  0  0
 16 21  1  0  0  0
 16 31  1  0  0  0
 17 18  1  0  0  0
 17100  1  0  0  0
 18 19  2  0  0  0
 18101  1  0  0  0
 19 20  1  0  0  0
 19 24  1  0  0  0
 20 21  2  0  0  0
 20102  1  0  0  0
 21 23  1  0  0  0
 22 28  1  0  0  0
 22 32  2  0  0  0
 26 27  1  0  0  0
 28103  1  0  0  0
 28104  1  0  0  0
 29105  1  0  0  0
 29106  1  0  0  0
 33 34  1  0  0  0
 33 66  1  0  0  0
 33 70  2  0  0  0
 34 36  1  0  0  0
 34 59  1  0  0  0
 34107  1  0  0  0
 35 44  2  0  0  0
 35 45  1  0  0  0
 35 68  1  0  0  0
 36 56  1  0  0  0
 36108  1  0  0  0
 37 39  1  0  0  0
 37 47  1  0  0  0
 37 66  1  0  0  0
 37109  1  0  0  0
 38 43  2  0  0  0
 38 46  1  0  0  0
 38 47  1  0  0  0
 39 64  1  0  0  0
 39 67  2  0  0  0
 40 52  1  0  0  0
 40 53  2  0  0  0
 40 58  1  0  0  0
 41110  1  0  0  0
 41111  1  0  0  0
 41112  1  0  0  0
 41 48  1  0  0  0
 42 43  1  0  0  0
 42 66  1  0  0  0
 42113  1  0  0  0
 42114  1  0  0  0
 43 44  1  0  0  0
 44115  1  0  0  0
 45 46  2  0  0  0
 45116  1  0  0  0
 46117  1  0  0  0
 47118  1  0  0  0
 47119  1  0  0  0
 48 56  1  0  0  0
 48 65  1  0  0  0
 48120  1  0  0  0
 49 50  1  0  0  0
 49 53  1  0  0  0
 49 64  1  0  0  0
 49121  1  0  0  0
 50 51  1  0  0  0
 50122  1  0  0  0
 50123  1  0  0  0
 51 52  1  0  0  0
 51124  1  0  0  0
 51125  1  0  0  0
 52126  1  0  0  0
 52127  1  0  0  0
 53 54  1  0  0  0
 54 55  2  0  0  0
 54128  1  0  0  0
 55 57  1  0  0  0
 55129  1  0  0  0
 56 69  2  0  0  0
 57 58  2  0  0  0
 57130  1  0  0  0
 58131  1  0  0  0
 59 60  1  0  0  0
 59 61  1  0  0  0
 59 62  1  0  0  0
 60132  1  0  0  0
 60133  1  0  0  0
 60134  1  0  0  0
 61135  1  0  0  0
 61136  1  0  0  0
 61137  1  0  0  0
 62138  1  0  0  0
 62139  1  0  0  0
 62140  1  0  0  0
 63 65  1  0  0  0
 63141  1  0  0  0
 63142  1  0  0  0
 63143  1  0  0  0
 64144  1  0  0  0
 65145  1  0  0  0
 68 83  1  0  0  0
 71 73  2  0  0  0
 71 74  1  0  0  0
 71146  1  0  0  0
 72 75  2  0  0  0
 72 76  1  0  0  0
 72147  1  0  0  0
 73 75  1  0  0  0
 73 81  1  0  0  0
 74 76  2  0  0  0
 74 82  1  0  0  0
 75 84  1  0  0  0
 76 86  1  0  0  0
 77 78  1  0  0  0
 77 79  1  0  0  0
 77148  1  0  0  0
 77149  1  0  0  0
 78 80  1  0  0  0
 78150  1  0  0  0
 78151  1  0  0  0
 79 84  1  0  0  0
 79152  1  0  0  0
 79153  1  0  0  0
 80 83  1  0  0  0
 80 84  1  0  0  0
 80154  1  0  0  0
 81155  1  0  0  0
 81156  1  0  0  0
 81157  1  0  0  0
 82 85  1  0  0  0
 82158  1  0  0  0
 82159  1  0  0  0
 83160  1  0  0  0
 83161  1  0  0  0
 85162  1  0  0  0
M  ISO  4   1 100  68 101  83 101  85 100
M  END
> <chiral flag>
0

> <version>
0

> <s_m_source_file>
/data/baiqing/PycharmProjects/Reinvent-master-3.2/result/LINK_invent/BTK/process_docking_weight1_custom_product_contain_oxygen_bond_distance_aromatic_linkinvent_7_9_3/rearranged_h_0024.sdf

> <i_m_source_file_index>
70

> <r_mmod_Potential_Energy-OPLS-2005>
146.369003295898

> <r_mmod_Stretch_Energy-OPLS-2005>
82.6320343017578

> <r_mmod_Bend_Energy-OPLS-2005>
181.584609985352

> <r_mmod_Torsional_Energy-OPLS-2005>
287.382476806641

> <r_mmod_Improper_Torsional_Energy-OPLS-2005>
9.7637825012207

> <r_mmod_Van_der_Waal_Energy-OPLS-2005>
150.755035400391

> <r_mmod_Electrostatic_Energy-OPLS-2005>
-407.624542236328

> <r_mmod_Solvation_Energy-OPLS-2005>
-210.940994262695

> <b_mmod_Minimization_Converged-OPLS-2005>
0

> <r_mmod_RMS_Derivative-OPLS-2005>
1.7002717256546

$$$$
70
                    3D
 Structure written by MMmdl.
174183  0  0  1  0            999 V2000
  -30.7065  -14.4578   20.5618 C   0  0  0  0  0  0
  -30.4208  -12.2931   19.4255 C   0  0  0  0  0  0
  -29.4963  -12.4979   18.2077 C   0  0  0  0  0  0
  -28.0173  -12.3616   18.6191 C   0  0  0  0  0  0
  -27.6626  -13.2056   19.8730 C   0  0  2  0  0  0
  -28.7018  -12.9875   20.9970 C   0  0  0  0  0  0
  -25.2590  -13.8159   20.5673 C   0  0  0  0  0  0
  -24.1837  -13.0444   20.9175 C   0  0  0  0  0  0
  -24.6382  -11.6910   20.8730 C   0  0  0  0  0  0
  -23.9045  -10.4299   21.0406 C   0  0  0  0  0  0
  -24.3600   -9.4216   21.9182 C   0  0  0  0  0  0
  -23.6280   -8.2244   22.0750 C   0  0  0  0  0  0
  -22.4264   -8.0277   21.3547 C   0  0  0  0  0  0
  -21.9897   -9.0250   20.4651 C   0  0  0  0  0  0
  -22.7216  -10.2133   20.3058 C   0  0  0  0  0  0
  -21.6852   -6.0733   22.5281 C   0  0  0  0  0  0
  -21.4011   -6.5635   23.8213 C   0  0  0  0  0  0
  -21.3661   -5.6785   24.9175 C   0  0  0  0  0  0
  -21.6044   -4.3047   24.7224 C   0  0  0  0  0  0
  -21.8819   -3.8142   23.4344 C   0  0  0  0  0  0
  -21.9193   -4.6962   22.3403 C   0  0  0  0  0  0
  -22.7859  -13.5249   21.1833 C   0  0  0  0  0  0
  -22.1664   -4.2152   21.0979 F   0  0  0  0  0  0
  -21.5631   -3.4526   25.7735 F   0  0  0  0  0  0
  -30.0363  -13.2801   20.4474 N   0  0  0  0  0  0
  -26.3018  -12.9329   20.3337 N   0  0  0  0  0  0
  -25.9305  -11.6494   20.5734 N   0  0  0  0  0  0
  -22.0488  -12.8257   22.0396 N   0  0  0  0  0  0
  -25.4314  -15.1869   20.4059 N   0  0  0  0  0  0
  -31.8397  -14.6206   20.0999 O   0  0  0  0  0  0
  -21.6634   -6.8871   21.4241 O   0  0  0  0  0  0
  -22.3558  -14.5558   20.6676 O   0  0  0  0  0  0
  -24.6124  -31.8692   23.2104 C   0  0  0  0  0  0
  -25.9022  -32.4831   23.8399 C   0  0  1  0  0  0
  -27.2355  -27.4475   20.1003 C   0  0  0  0  0  0
  -25.5885  -33.8630   24.2326 N   0  0  0  0  0  0
  -23.4007  -30.4906   21.5506 C   0  0  2  0  0  0
  -24.8516  -28.9584   20.1150 C   0  0  0  0  0  0
  -22.7402  -29.4648   22.4994 C   0  0  0  0  0  0
  -18.0269  -28.1377   22.8498 C   0  0  0  0  0  0
  -24.1490  -36.7318   23.2634 C   0  0  0  0  0  0
  -25.9267  -30.8382   21.3632 C   0  0  0  0  0  0
  -26.0076  -29.4707   20.7181 C   0  0  0  0  0  0
  -27.2042  -28.7194   20.7181 C   0  0  0  0  0  0
  -26.0720  -26.9521   19.4810 C   0  0  0  0  0  0
  -24.8771  -27.6961   19.4956 C   0  0  0  0  0  0
  -23.6103  -29.8216   20.1651 C   0  0  0  0  0  0
  -25.4105  -36.3114   24.0341 C   0  0  1  0  0  0
  -20.5861  -28.3651   23.1330 C   0  0  2  0  0  0
  -20.6754  -26.9388   22.5428 C   0  0  0  0  0  0
  -19.5732  -26.6385   21.5220 C   0  0  0  0  0  0
  -18.1912  -26.7924   22.1630 C   0  0  0  0  0  0
  -19.1521  -28.8832   23.2909 C   0  0  0  0  0  0
  -18.9450  -30.1442   23.8910 C   0  0  0  0  0  0
  -17.6452  -30.6583   24.0569 C   0  0  0  0  0  0
  -25.9032  -34.9482   23.5132 C   0  0  0  0  0  0
  -16.5339  -29.9084   23.6334 C   0  0  0  0  0  0
  -16.7260  -28.6505   23.0346 C   0  0  0  0  0  0
  -26.4466  -31.6600   25.0711 C   0  0  0  0  0  0
  -25.3739  -31.3710   26.1468 C   0  0  0  0  0  0
  -27.0295  -30.3044   24.6065 C   0  0  0  0  0  0
  -27.6047  -32.4316   25.7468 C   0  0  0  0  0  0
  -27.5592  -37.1797   24.8455 C   0  0  0  0  0  0
  -21.4132  -29.3018   22.3736 N   0  0  0  0  0  0
  -26.4284  -37.3802   23.9427 N   0  0  0  0  0  0
  -24.6645  -31.0802   22.1002 N   0  0  0  0  0  0
  -23.4184  -28.8185   23.3026 O   0  0  0  0  0  0
  -28.3649  -26.6639   20.0827 O   0  0  0  0  0  0
  -26.5593  -34.8926   22.4692 O   0  0  0  0  0  0
  -23.5321  -32.1436   23.7503 O   0  0  0  0  0  0
  -29.1169  -18.9801   20.0628 C   0  0  0  0  0  0
  -29.0020  -17.6414   20.5035 C   0  0  0  0  0  0
  -31.4188  -17.4896   20.6726 C   0  0  0  0  0  0
  -30.3861  -19.5689   19.8632 C   0  0  0  0  0  0
  -30.1531  -16.8629   20.7600 C   0  0  0  0  0  0
  -31.5348  -18.8199   20.2228 C   0  0  0  0  0  0
  -29.1978  -21.1759   16.3689 C   0  0  0  0  0  0
  -28.2878  -21.6795   17.5033 C   0  0  0  0  0  0
  -30.3110  -20.2131   16.8127 C   0  0  0  0  0  0
  -29.0017  -22.6617   18.4504 C   0  0  0  0  0  0
  -31.2224  -20.7668   17.9223 C   0  0  0  0  0  0
  -29.7994  -22.0316   19.6260 C   0  0  2  0  0  0
  -31.5523  -25.3452   20.6056 C   0  0  0  0  0  0
  -30.8071  -23.0395   20.2609 C   0  0  0  0  0  0
  -29.2554  -24.7222   21.3073 C   0  0  0  0  0  0
  -28.7770  -26.1982   21.3716 C   0  0  0  0  0  0
  -30.5254  -20.8178   19.2108 N   0  0  0  0  0  0
  -29.9960  -15.4784   21.0859 N   0  0  0  0  0  0
  -30.3776  -24.4705   20.3548 N   0  3  1  0  0  0
  -32.7712  -19.3689   20.1154 F   0  0  0  0  0  0
  -31.4664  -12.3818   19.1242 H   0  0  0  0  0  0
  -30.3126  -11.2830   19.8224 H   0  0  0  0  0  0
  -29.7333  -11.7732   17.4278 H   0  0  0  0  0  0
  -29.6709  -13.4826   17.7709 H   0  0  0  0  0  0
  -27.8264  -11.3063   18.8184 H   0  0  0  0  0  0
  -27.3691  -12.6342   17.7856 H   0  0  0  0  0  0
  -27.7087  -14.2528   19.5721 H   0  0  0  0  0  0
  -28.6715  -11.9532   21.3440 H   0  0  0  0  0  0
  -28.4645  -13.5952   21.8714 H   0  0  0  0  0  0
  -25.2754   -9.5689   22.4747 H   0  0  0  0  0  0
  -24.0001   -7.4635   22.7459 H   0  0  0  0  0  0
  -21.0833   -8.8758   19.8954 H   0  0  0  0  0  0
  -22.3674  -10.9664   19.6156 H   0  0  0  0  0  0
  -21.1999   -7.6144   23.9717 H   0  0  0  0  0  0
  -21.1482   -6.0515   25.9078 H   0  0  0  0  0  0
  -22.0597   -2.7606   23.2840 H   0  0  0  0  0  0
  -22.4081  -11.9923   22.4818 H   0  0  0  0  0  0
  -21.1105  -13.1294   22.2574 H   0  0  0  0  0  0
  -24.6598  -15.8387   20.4976 H   0  0  0  0  0  0
  -26.2705  -15.6171   20.0401 H   0  0  0  0  0  0
  -26.7093  -32.5560   23.1170 H   0  0  0  0  0  0
  -25.0046  -33.9799   25.0477 H   0  0  0  0  0  0
  -22.6879  -31.3062   21.4116 H   0  0  0  0  0  0
  -23.3757  -35.9645   23.3284 H   0  0  0  0  0  0
  -24.3596  -36.8941   22.2053 H   0  0  0  0  0  0
  -23.7231  -37.6514   23.6658 H   0  0  0  0  0  0
  -26.0340  -31.6013   20.5908 H   0  0  0  0  0  0
  -26.8162  -30.8976   21.9777 H   0  0  0  0  0  0
  -28.0955  -29.1143   21.1846 H   0  0  0  0  0  0
  -26.0884  -25.9834   19.0012 H   0  0  0  0  0  0
  -23.9887  -27.2964   19.0255 H   0  0  0  0  0  0
  -23.7141  -30.5961   19.4040 H   0  0  0  0  0  0
  -22.7356  -29.2381   19.8724 H   0  0  0  0  0  0
  -25.1275  -36.1981   25.0831 H   0  0  0  0  0  0
  -20.9953  -28.3218   24.1450 H   0  0  0  0  0  0
  -20.5665  -26.2250   23.3608 H   0  0  0  0  0  0
  -21.6624  -26.7434   22.1218 H   0  0  0  0  0  0
  -19.6886  -25.6303   21.1235 H   0  0  0  0  0  0
  -19.6677  -27.3208   20.6760 H   0  0  0  0  0  0
  -17.4185  -26.6685   21.4027 H   0  0  0  0  0  0
  -18.0296  -26.0060   22.9020 H   0  0  0  0  0  0
  -19.7926  -30.7260   24.2276 H   0  0  0  0  0  0
  -17.5009  -31.6265   24.5164 H   0  0  0  0  0  0
  -15.5341  -30.2987   23.7654 H   0  0  0  0  0  0
  -15.8659  -28.0832   22.7044 H   0  0  0  0  0  0
  -24.5896  -30.7072   25.7810 H   0  0  0  0  0  0
  -24.8950  -32.2873   26.4932 H   0  0  0  0  0  0
  -25.8095  -30.8870   27.0216 H   0  0  0  0  0  0
  -26.2828  -29.6805   24.1135 H   0  0  0  0  0  0
  -27.4092  -29.7278   25.4510 H   0  0  0  0  0  0
  -27.8655  -30.4373   23.9190 H   0  0  0  0  0  0
  -27.2670  -33.3601   26.2084 H   0  0  0  0  0  0
  -28.3835  -32.6899   25.0280 H   0  0  0  0  0  0
  -28.0742  -31.8418   26.5349 H   0  0  0  0  0  0
  -28.2575  -38.0128   24.7566 H   0  0  0  0  0  0
  -28.1118  -36.2667   24.6197 H   0  0  0  0  0  0
  -27.2325  -37.1351   25.8855 H   0  0  0  0  0  0
  -20.9274  -29.8754   21.6981 H   0  0  0  0  0  0
  -26.0177  -38.2873   24.1456 H   0  0  0  0  0  0
  -28.2184  -19.5212   19.8108 H   0  0  0  0  0  0
  -28.0179  -17.2036   20.5892 H   0  0  0  0  0  0
  -32.3230  -16.9503   20.9104 H   0  0  0  0  0  0
  -29.6409  -22.0285   15.8530 H   0  0  0  0  0  0
  -28.5831  -20.6698   15.6237 H   0  0  0  0  0  0
  -27.8460  -20.8508   18.0541 H   0  0  0  0  0  0
  -27.4490  -22.2039   17.0432 H   0  0  0  0  0  0
  -30.9249  -19.9843   15.9405 H   0  0  0  0  0  0
  -29.8781  -19.2599   17.1182 H   0  0  0  0  0  0
  -28.2417  -23.3235   18.8669 H   0  0  0  0  0  0
  -29.6494  -23.3069   17.8550 H   0  0  0  0  0  0
  -31.5836  -21.7581   17.6469 H   0  0  0  0  0  0
  -32.1159  -20.1465   17.9903 H   0  0  0  0  0  0
  -29.0777  -21.7471   20.3936 H   0  0  0  0  0  0
  -32.3764  -25.1178   19.9282 H   0  0  0  0  0  0
  -31.9193  -25.2231   21.6256 H   0  0  0  0  0  0
  -31.3197  -26.3974   20.4488 H   0  0  0  0  0  0
  -31.7133  -23.0155   19.6537 H   0  0  0  0  0  0
  -31.1122  -22.6839   21.2462 H   0  0  0  0  0  0
  -28.4050  -24.0939   21.0476 H   0  0  0  0  0  0
  -29.5638  -24.4117   22.3062 H   0  0  0  0  0  0
  -29.5502  -26.8574   21.7659 H   0  0  0  0  0  0
  -27.9534  -26.2516   22.0870 H   0  0  0  0  0  0
  -29.0895  -15.2044   21.4339 H   0  0  0  0  0  0
  -30.0452  -24.7239   19.4346 H   0  0  0  0  0  0
  1 25  1  0  0  0
  1 30  2  0  0  0
  1 88  1  0  0  0
  2  3  1  0  0  0
  2 25  1  0  0  0
  2 91  1  0  0  0
  2 92  1  0  0  0
  3  4  1  0  0  0
  3 93  1  0  0  0
  3 94  1  0  0  0
  4  5  1  0  0  0
  4 95  1  0  0  0
  4 96  1  0  0  0
  5  6  1  0  0  0
  5 26  1  0  0  0
  5 97  1  0  0  0
  6 25  1  0  0  0
  6 98  1  0  0  0
  6 99  1  0  0  0
  7  8  2  0  0  0
  7 26  1  0  0  0
  7 29  1  0  0  0
  8  9  1  0  0  0
  8 22  1  0  0  0
  9 10  1  0  0  0
  9 27  2  0  0  0
 10 11  2  0  0  0
 10 15  1  0  0  0
 11 12  1  0  0  0
 11100  1  0  0  0
 12 13  2  0  0  0
 12101  1  0  0  0
 13 14  1  0  0  0
 13 31  1  0  0  0
 14 15  2  0  0  0
 14102  1  0  0  0
 15103  1  0  0  0
 16 17  2  0  0  0
 16 21  1  0  0  0
 16 31  1  0  0  0
 17 18  1  0  0  0
 17104  1  0  0  0
 18 19  2  0  0  0
 18105  1  0  0  0
 19 20  1  0  0  0
 19 24  1  0  0  0
 20 21  2  0  0  0
 20106  1  0  0  0
 21 23  1  0  0  0
 22 28  1  0  0  0
 22 32  2  0  0  0
 26 27  1  0  0  0
 28107  1  0  0  0
 28108  1  0  0  0
 29109  1  0  0  0
 29110  1  0  0  0
 33 34  1  0  0  0
 33 66  1  0  0  0
 33 70  2  0  0  0
 34 36  1  0  0  0
 34 59  1  0  0  0
 34111  1  0  0  0
 35 44  2  0  0  0
 35 45  1  0  0  0
 35 68  1  0  0  0
 36 56  1  0  0  0
 36112  1  0  0  0
 37 39  1  0  0  0
 37 47  1  0  0  0
 37 66  1  0  0  0
 37113  1  0  0  0
 38 43  2  0  0  0
 38 46  1  0  0  0
 38 47  1  0  0  0
 39 64  1  0  0  0
 39 67  2  0  0  0
 40 52  1  0  0  0
 40 53  2  0  0  0
 40 58  1  0  0  0
 41114  1  0  0  0
 41115  1  0  0  0
 41116  1  0  0  0
 41 48  1  0  0  0
 42 43  1  0  0  0
 42 66  1  0  0  0
 42117  1  0  0  0
 42118  1  0  0  0
 43 44  1  0  0  0
 44119  1  0  0  0
 45 46  2  0  0  0
 45120  1  0  0  0
 46121  1  0  0  0
 47122  1  0  0  0
 47123  1  0  0  0
 48 56  1  0  0  0
 48 65  1  0  0  0
 48124  1  0  0  0
 49 50  1  0  0  0
 49 53  1  0  0  0
 49 64  1  0  0  0
 49125  1  0  0  0
 50 51  1  0  0  0
 50126  1  0  0  0
 50127  1  0  0  0
 51 52  1  0  0  0
 51128  1  0  0  0
 51129  1  0  0  0
 52130  1  0  0  0
 52131  1  0  0  0
 53 54  1  0  0  0
 54 55  2  0  0  0
 54132  1  0  0  0
 55 57  1  0  0  0
 55133  1  0  0  0
 56 69  2  0  0  0
 57 58  2  0  0  0
 57134  1  0  0  0
 58135  1  0  0  0
 59 60  1  0  0  0
 59 61  1  0  0  0
 59 62  1  0  0  0
 60136  1  0  0  0
 60137  1  0  0  0
 60138  1  0  0  0
 61139  1  0  0  0
 61140  1  0  0  0
 61141  1  0  0  0
 62142  1  0  0  0
 62143  1  0  0  0
 62144  1  0  0  0
 63 65  1  0  0  0
 63145  1  0  0  0
 63146  1  0  0  0
 63147  1  0  0  0
 64148  1  0  0  0
 65149  1  0  0  0
 68 86  1  0  0  0
 71 72  2  0  0  0
 71 74  1  0  0  0
 71150  1  0  0  0
 72 75  1  0  0  0
 72151  1  0  0  0
 73 75  2  0  0  0
 73 76  1  0  0  0
 73152  1  0  0  0
 74 76  2  0  0  0
 74 87  1  0  0  0
 75 88  1  0  0  0
 76 90  1  0  0  0
 77 78  1  0  0  0
 77 79  1  0  0  0
 77153  1  0  0  0
 77154  1  0  0  0
 78 80  1  0  0  0
 78155  1  0  0  0
 78156  1  0  0  0
 79 81  1  0  0  0
 79157  1  0  0  0
 79158  1  0  0  0
 80 82  1  0  0  0
 80159  1  0  0  0
 80160  1  0  0  0
 81 87  1  0  0  0
 81161  1  0  0  0
 81162  1  0  0  0
 82 84  1  0  0  0
 82 87  1  0  0  0
 82163  1  0  0  0
 83164  1  0  0  0
 83165  1  0  0  0
 83166  1  0  0  0
 83 89  1  0  0  0
 84 89  1  0  0  0
 84167  1  0  0  0
 84168  1  0  0  0
 85 86  1  0  0  0
 85 89  1  0  0  0
 85169  1  0  0  0
 85170  1  0  0  0
 86171  1  0  0  0
 86172  1  0  0  0
 88173  1  0  0  0
 89174  1  0  0  0
M  CHG  1  89   1
M  ISO  4   1 100  68 101  86 101  88 100
M  END
> <chiral flag>
0

> <version>
0

> <s_m_source_file>
/data/baiqing/PycharmProjects/Reinvent-master-3.2/result/LINK_invent/BTK/process_docking_weight1_custom_product_contain_oxygen_bond_distance_aromatic_linkinvent_7_9_3/rearranged_h_0024.sdf

> <i_m_source_file_index>
71

> <r_mmod_Potential_Energy-OPLS-2005>
16.4761447906494

> <r_mmod_Stretch_Energy-OPLS-2005>
41.0588264465332

> <r_mmod_Bend_Energy-OPLS-2005>
116.473327636719

> <r_mmod_Torsional_Energy-OPLS-2005>
336.267211914062

> <r_mmod_Improper_Torsional_Energy-OPLS-2005>
5.71110963821411

> <r_mmod_Van_der_Waal_Energy-OPLS-2005>
157.121704101562

> <r_mmod_Electrostatic_Energy-OPLS-2005>
-251.872604370117

> <r_mmod_Solvation_Energy-OPLS-2005>
-400.202606201172

> <b_mmod_Minimization_Converged-OPLS-2005>
0

> <r_mmod_RMS_Derivative-OPLS-2005>
1.35419154167175

$$$$
71
                    3D
 Structure written by MMmdl.
162171  0  0  1  0            999 V2000
  -30.5798  -14.6077   20.5331 C   0  0  0  0  0  0
  -30.4455  -12.3914   19.4190 C   0  0  0  0  0  0
  -29.4951  -12.5293   18.2072 C   0  0  0  0  0  0
  -28.0127  -12.3823   18.6165 C   0  0  0  0  0  0
  -27.6538  -13.2078   19.8798 C   0  0  2  0  0  0
  -28.7013  -12.9895   20.9929 C   0  0  0  0  0  0
  -25.2532  -13.8141   20.5688 C   0  0  0  0  0  0
  -24.1812  -13.0438   20.9224 C   0  0  0  0  0  0
  -24.6356  -11.6892   20.8760 C   0  0  0  0  0  0
  -23.9010  -10.4289   21.0415 C   0  0  0  0  0  0
  -24.3571   -9.4211   21.9194 C   0  0  0  0  0  0
  -23.6271   -8.2227   22.0748 C   0  0  0  0  0  0
  -22.4254   -8.0253   21.3528 C   0  0  0  0  0  0
  -21.9883   -9.0220   20.4623 C   0  0  0  0  0  0
  -22.7191  -10.2120   20.3050 C   0  0  0  0  0  0
  -21.6847   -6.0706   22.5270 C   0  0  0  0  0  0
  -21.3995   -6.5605   23.8211 C   0  0  0  0  0  0
  -21.3667   -5.6753   24.9164 C   0  0  0  0  0  0
  -21.6051   -4.3011   24.7202 C   0  0  0  0  0  0
  -21.8830   -3.8113   23.4328 C   0  0  0  0  0  0
  -21.9190   -4.6937   22.3391 C   0  0  0  0  0  0
  -22.7835  -13.5233   21.1884 C   0  0  0  0  0  0
  -22.1660   -4.2138   21.0964 F   0  0  0  0  0  0
  -21.5646   -3.4485   25.7714 F   0  0  0  0  0  0
  -30.0120  -13.3650   20.4398 N   0  0  0  0  0  0
  -26.2965  -12.9316   20.3381 N   0  0  0  0  0  0
  -25.9283  -11.6473   20.5797 N   0  0  0  0  0  0
  -22.0424  -12.8231   22.0386 N   0  0  0  0  0  0
  -25.4248  -15.1864   20.4034 N   0  0  0  0  0  0
  -31.7389  -14.8191   20.1604 O   0  0  0  0  0  0
  -21.6624   -6.8851   21.4234 O   0  0  0  0  0  0
  -22.3558  -14.5572   20.6757 O   0  0  0  0  0  0
  -24.6235  -31.8608   23.2053 C   0  0  0  0  0  0
  -25.9070  -32.4805   23.8382 C   0  0  1  0  0  0
  -27.2111  -27.3188   20.1266 C   0  0  0  0  0  0
  -25.5902  -33.8600   24.2304 N   0  0  0  0  0  0
  -23.4164  -30.4891   21.5454 C   0  0  2  0  0  0
  -24.8587  -28.9465   20.1050 C   0  0  0  0  0  0
  -22.7469  -29.4659   22.4928 C   0  0  0  0  0  0
  -18.0293  -28.1442   22.8525 C   0  0  0  0  0  0
  -24.1446  -36.7233   23.2653 C   0  0  0  0  0  0
  -25.9566  -30.7944   21.3701 C   0  0  0  0  0  0
  -26.0265  -29.4208   20.7152 C   0  0  0  0  0  0
  -27.2059  -28.6188   20.7164 C   0  0  0  0  0  0
  -26.0196  -26.8967   19.4885 C   0  0  0  0  0  0
  -24.8573  -27.6907   19.4792 C   0  0  0  0  0  0
  -23.6274  -29.8275   20.1577 C   0  0  0  0  0  0
  -25.4085  -36.3094   24.0363 C   0  0  1  0  0  0
  -20.5897  -28.3722   23.1299 C   0  0  2  0  0  0
  -20.6789  -26.9453   22.5415 C   0  0  0  0  0  0
  -19.5758  -26.6436   21.5230 C   0  0  0  0  0  0
  -18.1934  -26.7997   22.1636 C   0  0  0  0  0  0
  -19.1551  -28.8897   23.2911 C   0  0  0  0  0  0
  -18.9472  -30.1504   23.8931 C   0  0  0  0  0  0
  -17.6482  -30.6634   24.0599 C   0  0  0  0  0  0
  -25.9053  -34.9469   23.5138 C   0  0  0  0  0  0
  -16.5362  -29.9154   23.6367 C   0  0  0  0  0  0
  -16.7286  -28.6561   23.0392 C   0  0  0  0  0  0
  -26.4487  -31.6617   25.0730 C   0  0  0  0  0  0
  -25.3771  -31.3648   26.1479 C   0  0  0  0  0  0
  -27.0317  -30.3095   24.6060 C   0  0  0  0  0  0
  -27.6023  -32.4386   25.7517 C   0  0  0  0  0  0
  -27.5558  -37.1774   24.8489 C   0  0  0  0  0  0
  -21.4185  -29.3048   22.3656 N   0  0  0  0  0  0
  -26.4238  -37.3812   23.9486 N   0  0  0  0  0  0
  -24.6848  -31.0661   22.0967 N   0  0  0  0  0  0
  -23.4211  -28.8234   23.3010 O   0  0  0  0  0  0
  -28.3256  -26.4674   20.1974 O   0  0  0  0  0  0
  -26.5615  -34.8932   22.4704 O   0  0  0  0  0  0
  -23.5409  -32.1356   23.7414 O   0  0  0  0  0  0
  -30.8885  -17.8341   20.5351 C   0  0  0  0  0  0
  -28.5741  -17.8078   21.1643 C   0  0  0  0  0  0
  -29.6877  -20.0100   20.8684 C   0  0  0  0  0  0
  -29.7456  -17.0632   20.8507 C   0  0  0  0  0  0
  -30.8619  -19.2596   20.5454 C   0  0  0  0  0  0
  -28.5360  -19.2308   21.1832 C   0  0  0  0  0  0
  -29.9945  -23.0281   22.8793 C   0  0  0  0  0  0
  -29.7187  -24.2860   22.0216 C   0  0  0  0  0  0
  -30.6431  -21.8921   22.0676 C   0  0  0  0  0  0
  -28.7482  -22.4464   20.5067 C   0  0  0  0  0  0
  -29.2157  -23.9786   20.5760 C   0  0  2  0  0  0
  -30.3639  -24.1863   19.5649 C   0  0  0  0  0  0
  -28.0670  -25.0109   20.1779 C   0  0  0  0  0  0
  -29.7596  -21.4487   20.9882 N   0  0  0  0  0  0
  -29.7023  -15.6009   20.8900 N   0  0  0  0  0  0
  -32.0141  -19.9140   20.2563 F   0  0  0  0  0  0
  -27.0587  -19.9655   21.7027 Cl  0  0  0  0  0  0
  -31.4730  -12.5717   19.0973 H   0  0  0  0  0  0
  -30.4297  -11.3754   19.8159 H   0  0  0  0  0  0
  -29.7437  -11.7914   17.4431 H   0  0  0  0  0  0
  -29.6458  -13.5050   17.7425 H   0  0  0  0  0  0
  -27.8143  -11.3264   18.7965 H   0  0  0  0  0  0
  -27.3656  -12.6783   17.7898 H   0  0  0  0  0  0
  -27.6873  -14.2574   19.5888 H   0  0  0  0  0  0
  -28.7138  -11.9411   21.2991 H   0  0  0  0  0  0
  -28.4561  -13.5574   21.8922 H   0  0  0  0  0  0
  -25.2718   -9.5699   22.4761 H   0  0  0  0  0  0
  -23.9984   -7.4611   22.7458 H   0  0  0  0  0  0
  -21.0821   -8.8720   19.8915 H   0  0  0  0  0  0
  -22.3642  -10.9643   19.6139 H   0  0  0  0  0  0
  -21.1959   -7.6108   23.9710 H   0  0  0  0  0  0
  -21.1484   -6.0462   25.9078 H   0  0  0  0  0  0
  -22.0599   -2.7571   23.2800 H   0  0  0  0  0  0
  -22.3942  -11.9815   22.4714 H   0  0  0  0  0  0
  -21.1069  -13.1328   22.2613 H   0  0  0  0  0  0
  -24.6448  -15.8299   20.4898 H   0  0  0  0  0  0
  -26.2365  -15.6022   19.9672 H   0  0  0  0  0  0
  -26.7135  -32.5486   23.1133 H   0  0  0  0  0  0
  -25.0098  -33.9775   25.0490 H   0  0  0  0  0  0
  -22.7100  -31.3110   21.4100 H   0  0  0  0  0  0
  -23.3783  -35.9485   23.3292 H   0  0  0  0  0  0
  -24.3553  -36.8870   22.2070 H   0  0  0  0  0  0
  -23.7067  -37.6375   23.6679 H   0  0  0  0  0  0
  -26.0848  -31.5519   20.5952 H   0  0  0  0  0  0
  -26.8404  -30.8480   21.9927 H   0  0  0  0  0  0
  -28.0962  -28.9722   21.2151 H   0  0  0  0  0  0
  -25.9482  -25.9343   19.0026 H   0  0  0  0  0  0
  -23.9644  -27.3266   18.9871 H   0  0  0  0  0  0
  -23.7384  -30.6043   19.4006 H   0  0  0  0  0  0
  -22.7465  -29.2537   19.8644 H   0  0  0  0  0  0
  -25.1248  -36.1933   25.0850 H   0  0  0  0  0  0
  -21.0023  -28.3286   24.1405 H   0  0  0  0  0  0
  -20.5735  -26.2329   23.3603 H   0  0  0  0  0  0
  -21.6649  -26.7536   22.1158 H   0  0  0  0  0  0
  -19.6927  -25.6355   21.1233 H   0  0  0  0  0  0
  -19.6705  -27.3260   20.6768 H   0  0  0  0  0  0
  -17.4217  -26.6802   21.4018 H   0  0  0  0  0  0
  -18.0314  -26.0132   22.9014 H   0  0  0  0  0  0
  -19.7948  -30.7319   24.2302 H   0  0  0  0  0  0
  -17.5047  -31.6316   24.5204 H   0  0  0  0  0  0
  -15.5370  -30.3078   23.7696 H   0  0  0  0  0  0
  -15.8674  -28.0897   22.7114 H   0  0  0  0  0  0
  -24.5970  -30.6977   25.7817 H   0  0  0  0  0  0
  -24.8916  -32.2728   26.5044 H   0  0  0  0  0  0
  -25.8161  -30.8753   27.0178 H   0  0  0  0  0  0
  -26.2805  -29.6890   24.1144 H   0  0  0  0  0  0
  -27.4169  -29.7319   25.4470 H   0  0  0  0  0  0
  -27.8644  -30.4506   23.9166 H   0  0  0  0  0  0
  -27.2625  -33.3765   26.1941 H   0  0  0  0  0  0
  -28.3899  -32.6809   25.0373 H   0  0  0  0  0  0
  -28.0590  -31.8590   26.5548 H   0  0  0  0  0  0
  -28.2532  -38.0116   24.7640 H   0  0  0  0  0  0
  -28.1077  -36.2653   24.6171 H   0  0  0  0  0  0
  -27.2314  -37.1255   25.8896 H   0  0  0  0  0  0
  -20.9364  -29.8684   21.6793 H   0  0  0  0  0  0
  -26.0106  -38.2867   24.1576 H   0  0  0  0  0  0
  -31.8166  -17.3381   20.3019 H   0  0  0  0  0  0
  -27.6601  -17.3002   21.4370 H   0  0  0  0  0  0
  -29.0576  -22.6753   23.3163 H   0  0  0  0  0  0
  -30.6259  -23.2906   23.7284 H   0  0  0  0  0  0
  -30.6223  -24.8994   21.9770 H   0  0  0  0  0  0
  -28.9901  -24.8971   22.5572 H   0  0  0  0  0  0
  -30.8761  -21.0607   22.7391 H   0  0  0  0  0  0
  -31.5952  -22.2195   21.6440 H   0  0  0  0  0  0
  -28.4627  -22.1946   19.4842 H   0  0  0  0  0  0
  -27.8432  -22.3531   21.1094 H   0  0  0  0  0  0
  -31.2258  -23.5520   19.7691 H   0  0  0  0  0  0
  -30.7108  -25.2199   19.5818 H   0  0  0  0  0  0
  -30.0436  -23.9731   18.5445 H   0  0  0  0  0  0
  -27.2147  -24.8138   20.8306 H   0  0  0  0  0  0
  -27.7425  -24.7402   19.1725 H   0  0  0  0  0  0
  -28.8020  -15.2168   21.1360 H   0  0  0  0  0  0
  1 25  1  0  0  0
  1 30  2  0  0  0
  1 85  1  0  0  0
  2  3  1  0  0  0
  2 25  1  0  0  0
  2 88  1  0  0  0
  2 89  1  0  0  0
  3  4  1  0  0  0
  3 90  1  0  0  0
  3 91  1  0  0  0
  4  5  1  0  0  0
  4 92  1  0  0  0
  4 93  1  0  0  0
  5  6  1  0  0  0
  5 26  1  0  0  0
  5 94  1  0  0  0
  6 25  1  0  0  0
  6 95  1  0  0  0
  6 96  1  0  0  0
  7  8  2  0  0  0
  7 26  1  0  0  0
  7 29  1  0  0  0
  8  9  1  0  0  0
  8 22  1  0  0  0
  9 10  1  0  0  0
  9 27  2  0  0  0
 10 11  2  0  0  0
 10 15  1  0  0  0
 11 12  1  0  0  0
 11 97  1  0  0  0
 12 13  2  0  0  0
 12 98  1  0  0  0
 13 14  1  0  0  0
 13 31  1  0  0  0
 14 15  2  0  0  0
 14 99  1  0  0  0
 15100  1  0  0  0
 16 17  2  0  0  0
 16 21  1  0  0  0
 16 31  1  0  0  0
 17 18  1  0  0  0
 17101  1  0  0  0
 18 19  2  0  0  0
 18102  1  0  0  0
 19 20  1  0  0  0
 19 24  1  0  0  0
 20 21  2  0  0  0
 20103  1  0  0  0
 21 23  1  0  0  0
 22 28  1  0  0  0
 22 32  2  0  0  0
 26 27  1  0  0  0
 28104  1  0  0  0
 28105  1  0  0  0
 29106  1  0  0  0
 29107  1  0  0  0
 33 34  1  0  0  0
 33 66  1  0  0  0
 33 70  2  0  0  0
 34 36  1  0  0  0
 34 59  1  0  0  0
 34108  1  0  0  0
 35 44  2  0  0  0
 35 45  1  0  0  0
 35 68  1  0  0  0
 36 56  1  0  0  0
 36109  1  0  0  0
 37 39  1  0  0  0
 37 47  1  0  0  0
 37 66  1  0  0  0
 37110  1  0  0  0
 38 43  2  0  0  0
 38 46  1  0  0  0
 38 47  1  0  0  0
 39 64  1  0  0  0
 39 67  2  0  0  0
 40 52  1  0  0  0
 40 53  2  0  0  0
 40 58  1  0  0  0
 41111  1  0  0  0
 41112  1  0  0  0
 41113  1  0  0  0
 41 48  1  0  0  0
 42 43  1  0  0  0
 42 66  1  0  0  0
 42114  1  0  0  0
 42115  1  0  0  0
 43 44  1  0  0  0
 44116  1  0  0  0
 45 46  2  0  0  0
 45117  1  0  0  0
 46118  1  0  0  0
 47119  1  0  0  0
 47120  1  0  0  0
 48 56  1  0  0  0
 48 65  1  0  0  0
 48121  1  0  0  0
 49 50  1  0  0  0
 49 53  1  0  0  0
 49 64  1  0  0  0
 49122  1  0  0  0
 50 51  1  0  0  0
 50123  1  0  0  0
 50124  1  0  0  0
 51 52  1  0  0  0
 51125  1  0  0  0
 51126  1  0  0  0
 52127  1  0  0  0
 52128  1  0  0  0
 53 54  1  0  0  0
 54 55  2  0  0  0
 54129  1  0  0  0
 55 57  1  0  0  0
 55130  1  0  0  0
 56 69  2  0  0  0
 57 58  2  0  0  0
 57131  1  0  0  0
 58132  1  0  0  0
 59 60  1  0  0  0
 59 61  1  0  0  0
 59 62  1  0  0  0
 60133  1  0  0  0
 60134  1  0  0  0
 60135  1  0  0  0
 61136  1  0  0  0
 61137  1  0  0  0
 61138  1  0  0  0
 62139  1  0  0  0
 62140  1  0  0  0
 62141  1  0  0  0
 63 65  1  0  0  0
 63142  1  0  0  0
 63143  1  0  0  0
 63144  1  0  0  0
 64145  1  0  0  0
 65146  1  0  0  0
 68 83  1  0  0  0
 71 74  2  0  0  0
 71 75  1  0  0  0
 71147  1  0  0  0
 72 74  1  0  0  0
 72 76  2  0  0  0
 72148  1  0  0  0
 73 75  2  0  0  0
 73 76  1  0  0  0
 73 84  1  0  0  0
 74 85  1  0  0  0
 75 86  1  0  0  0
 76 87  1  0  0  0
 77 78  1  0  0  0
 77 79  1  0  0  0
 77149  1  0  0  0
 77150  1  0  0  0
 78 81  1  0  0  0
 78151  1  0  0  0
 78152  1  0  0  0
 79 84  1  0  0  0
 79153  1  0  0  0
 79154  1  0  0  0
 80 81  1  0  0  0
 80 84  1  0  0  0
 80155  1  0  0  0
 80156  1  0  0  0
 81 82  1  0  0  0
 81 83  1  0  0  0
 82157  1  0  0  0
 82158  1  0  0  0
 82159  1  0  0  0
 83160  1  0  0  0
 83161  1  0  0  0
 85162  1  0  0  0
M  ISO  4   1 100  68 101  83 101  85 100
M  END
> <chiral flag>
0

> <version>
0

> <s_m_source_file>
/data/baiqing/PycharmProjects/Reinvent-master-3.2/result/LINK_invent/BTK/process_docking_weight1_custom_product_contain_oxygen_bond_distance_aromatic_linkinvent_7_9_3/rearranged_h_0024.sdf

> <i_m_source_file_index>
72

> <r_mmod_Potential_Energy-OPLS-2005>
224.362808227539

> <r_mmod_Stretch_Energy-OPLS-2005>
81.9469528198242

> <r_mmod_Bend_Energy-OPLS-2005>
149.235412597656

> <r_mmod_Torsional_Energy-OPLS-2005>
290.459442138672

> <r_mmod_Improper_Torsional_Energy-OPLS-2005>
6.84910488128662

> <r_mmod_Van_der_Waal_Energy-OPLS-2005>
159.284484863281

> <r_mmod_Electrostatic_Energy-OPLS-2005>
-302.706329345703

> <r_mmod_Solvation_Energy-OPLS-2005>
-206.792266845703

> <b_mmod_Minimization_Converged-OPLS-2005>
0

> <r_mmod_RMS_Derivative-OPLS-2005>
4.43245553970337

$$$$
72
                    3D
 Structure written by MMmdl.
150158  0  0  1  0            999 V2000
  -30.3083  -15.7125   20.3268 C   0  0  0  0  0  0
  -30.4075  -13.1434   19.5372 C   0  0  0  0  0  0
  -29.5464  -12.6750   18.3291 C   0  0  0  0  0  0
  -28.1265  -12.3063   18.7780 C   0  0  0  0  0  0
  -27.5886  -13.3212   19.8111 C   0  0  2  0  0  0
  -28.6002  -13.6995   20.9218 C   0  0  0  0  0  0
  -25.2286  -13.8315   20.5828 C   0  0  0  0  0  0
  -24.1687  -13.0440   20.9301 C   0  0  0  0  0  0
  -24.6410  -11.6958   20.8768 C   0  0  0  0  0  0
  -23.9124  -10.4296   21.0394 C   0  0  0  0  0  0
  -24.3658   -9.4207   21.9175 C   0  0  0  0  0  0
  -23.6315   -8.2251   22.0757 C   0  0  0  0  0  0
  -22.4291   -8.0296   21.3551 C   0  0  0  0  0  0
  -21.9939   -9.0273   20.4649 C   0  0  0  0  0  0
  -22.7289  -10.2141   20.3047 C   0  0  0  0  0  0
  -21.6860   -6.0742   22.5278 C   0  0  0  0  0  0
  -21.4029   -6.5646   23.8214 C   0  0  0  0  0  0
  -21.3663   -5.6795   24.9172 C   0  0  0  0  0  0
  -21.6040   -4.3059   24.7221 C   0  0  0  0  0  0
  -21.8817   -3.8148   23.4341 C   0  0  0  0  0  0
  -21.9193   -4.6971   22.3401 C   0  0  0  0  0  0
  -22.7697  -13.5156   21.1928 C   0  0  0  0  0  0
  -22.1656   -4.2156   21.0978 F   0  0  0  0  0  0
  -21.5623   -3.4539   25.7730 F   0  0  0  0  0  0
  -29.7564  -14.3461   20.2507 N   0  0  0  0  0  0
  -26.2747  -12.9673   20.3263 N   0  0  0  0  0  0
  -25.9360  -11.6727   20.5704 N   0  0  0  0  0  0
  -22.0368  -12.8136   22.0484 N   0  0  0  0  0  0
  -25.3856  -15.2060   20.4288 N   0  0  0  0  0  0
  -31.5413  -15.5810   20.1663 O   0  0  0  0  0  0
  -21.6652   -6.8890   21.4244 O   0  0  0  0  0  0
  -22.3366  -14.5449   20.6758 O   0  0  0  0  0  0
  -24.6902  -31.7914   23.1460 C   0  0  0  0  0  0
  -25.9450  -32.4421   23.8033 C   0  0  1  0  0  0
  -27.2252  -26.6365   20.2171 C   0  0  0  0  0  0
  -25.5998  -33.8252   24.1909 N   0  0  0  0  0  0
  -23.5187  -30.3919   21.5000 C   0  0  2  0  0  0
  -24.9762  -28.7195   20.1147 C   0  0  0  0  0  0
  -22.7796  -29.4272   22.4675 C   0  0  0  0  0  0
  -18.0344  -28.1425   22.8447 C   0  0  0  0  0  0
  -24.1499  -36.7140   23.2656 C   0  0  0  0  0  0
  -26.1019  -30.5020   21.4206 C   0  0  0  0  0  0
  -26.1653  -29.0603   20.7698 C   0  0  0  0  0  0
  -27.2694  -28.0476   20.7887 C   0  0  0  0  0  0
  -26.0058  -26.5229   19.4977 C   0  0  0  0  0  0
  -24.9397  -27.4776   19.4547 C   0  0  0  0  0  0
  -23.7766  -29.6846   20.1365 C   0  0  0  0  0  0
  -25.4150  -36.2870   24.0275 C   0  0  1  0  0  0
  -20.5984  -28.3789   23.1125 C   0  0  2  0  0  0
  -20.6808  -26.9442   22.5402 C   0  0  0  0  0  0
  -19.5786  -26.6366   21.5216 C   0  0  0  0  0  0
  -18.1969  -26.7947   22.1619 C   0  0  0  0  0  0
  -19.1613  -28.8933   23.2767 C   0  0  0  0  0  0
  -18.9515  -30.1512   23.8817 C   0  0  0  0  0  0
  -17.6505  -30.6606   24.0550 C   0  0  0  0  0  0
  -25.9133  -34.9261   23.4933 C   0  0  0  0  0  0
  -16.5395  -29.9086   23.6350 C   0  0  0  0  0  0
  -16.7323  -28.6510   23.0364 C   0  0  0  0  0  0
  -26.4601  -31.6486   25.0688 C   0  0  0  0  0  0
  -25.3647  -31.3835   26.1293 C   0  0  0  0  0  0
  -27.0536  -30.2808   24.6645 C   0  0  0  0  0  0
  -27.6028  -32.4369   25.7517 C   0  0  0  0  0  0
  -27.5563  -37.1729   24.8466 C   0  0  0  0  0  0
  -21.4434  -29.3024   22.3433 N   0  0  0  0  0  0
  -26.4271  -37.3637   23.9405 N   0  0  0  0  0  0
  -24.7945  -30.9300   22.0744 N   0  0  0  0  0  0
  -23.4210  -28.7880   23.3049 O   0  0  0  0  0  0
  -28.1757  -25.3885   20.3237 O   0  0  0  0  0  0
  -26.5784  -34.8852   22.4561 O   0  0  0  0  0  0
  -23.5908  -32.1023   23.6374 O   0  0  0  0  0  0
  -29.4812  -20.3797   19.6130 C   0  0  0  0  0  0
  -28.1316  -19.1554   21.6139 C   0  0  0  0  0  0
  -30.2238  -18.7285   20.0332 C   0  0  0  0  0  0
  -28.3005  -17.7051   20.7842 C   0  0  0  0  0  0
  -28.7415  -21.7949   20.4807 C   0  0  2  0  0  0
  -27.7036  -20.6894   21.0869 C   0  0  0  0  0  0
  -28.0671  -23.6190   20.0315 C   0  0  0  0  0  0
  -29.6631  -17.1695   20.3240 N   0  0  0  0  0  0
  -26.7093  -20.5312   20.2125 F   0  0  0  0  0  0
  -27.1845  -21.2928   22.1563 F   0  0  0  0  0  0
  -31.3966  -13.4017   19.1580 H   0  0  0  0  0  0
  -30.5844  -12.3203   20.2316 H   0  0  0  0  0  0
  -30.0166  -11.8290   17.8258 H   0  0  0  0  0  0
  -29.4953  -13.4802   17.5941 H   0  0  0  0  0  0
  -28.1652  -11.3141   19.2296 H   0  0  0  0  0  0
  -27.4569  -12.2304   17.9206 H   0  0  0  0  0  0
  -27.4349  -14.2292   19.2254 H   0  0  0  0  0  0
  -28.8825  -12.8371   21.5278 H   0  0  0  0  0  0
  -28.1505  -14.4202   21.6064 H   0  0  0  0  0  0
  -25.2797   -9.5681   22.4760 H   0  0  0  0  0  0
  -24.0016   -7.4642   22.7482 H   0  0  0  0  0  0
  -21.0866   -8.8807   19.8954 H   0  0  0  0  0  0
  -22.3747  -10.9688   19.6162 H   0  0  0  0  0  0
  -21.2038   -7.6155   23.9718 H   0  0  0  0  0  0
  -21.1483   -6.0525   25.9075 H   0  0  0  0  0  0
  -22.0589   -2.7611   23.2836 H   0  0  0  0  0  0
  -22.4018  -11.9828   22.4903 H   0  0  0  0  0  0
  -21.0972  -13.1130   22.2674 H   0  0  0  0  0  0
  -24.6110  -15.8498   20.5470 H   0  0  0  0  0  0
  -26.2266  -15.6545   20.0916 H   0  0  0  0  0  0
  -26.7540  -32.4869   23.0749 H   0  0  0  0  0  0
  -25.0038  -33.9272   24.9990 H   0  0  0  0  0  0
  -22.8481  -31.2314   21.3059 H   0  0  0  0  0  0
  -23.3770  -35.9460   23.3266 H   0  0  0  0  0  0
  -24.3564  -36.8858   22.2081 H   0  0  0  0  0  0
  -23.7254  -37.6302   23.6770 H   0  0  0  0  0  0
  -26.3139  -31.2230   20.6301 H   0  0  0  0  0  0
  -26.9492  -30.5695   22.0896 H   0  0  0  0  0  0
  -28.1591  -28.3140   21.3417 H   0  0  0  0  0  0
  -25.8281  -25.5852   18.9898 H   0  0  0  0  0  0
  -24.0440  -27.2078   18.9117 H   0  0  0  0  0  0
  -23.9602  -30.4440   19.3758 H   0  0  0  0  0  0
  -22.8787  -29.1583   19.8079 H   0  0  0  0  0  0
  -25.1364  -36.1622   25.0763 H   0  0  0  0  0  0
  -21.0066  -28.3426   24.1253 H   0  0  0  0  0  0
  -20.5671  -26.2417   23.3673 H   0  0  0  0  0  0
  -21.6670  -26.7377   22.1227 H   0  0  0  0  0  0
  -19.6945  -25.6254   21.1304 H   0  0  0  0  0  0
  -19.6731  -27.3127   20.6708 H   0  0  0  0  0  0
  -17.4238  -26.6681   21.4026 H   0  0  0  0  0  0
  -18.0363  -26.0113   22.9040 H   0  0  0  0  0  0
  -19.7992  -30.7346   24.2157 H   0  0  0  0  0  0
  -17.5056  -31.6275   24.5171 H   0  0  0  0  0  0
  -15.5393  -30.2965   23.7715 H   0  0  0  0  0  0
  -15.8723  -28.0802   22.7122 H   0  0  0  0  0  0
  -24.5830  -30.7191   25.7592 H   0  0  0  0  0  0
  -24.8845  -32.3073   26.4528 H   0  0  0  0  0  0
  -25.7803  -30.9110   27.0201 H   0  0  0  0  0  0
  -26.3254  -29.6393   24.1670 H   0  0  0  0  0  0
  -27.3957  -29.7299   25.5416 H   0  0  0  0  0  0
  -27.9246  -30.3904   24.0182 H   0  0  0  0  0  0
  -27.2534  -33.3728   26.1892 H   0  0  0  0  0  0
  -28.3945  -32.6842   25.0432 H   0  0  0  0  0  0
  -28.0580  -31.8643   26.5607 H   0  0  0  0  0  0
  -28.2545  -38.0056   24.7500 H   0  0  0  0  0  0
  -28.1090  -36.2571   24.6302 H   0  0  0  0  0  0
  -27.2274  -37.1383   25.8868 H   0  0  0  0  0  0
  -20.9752  -29.8672   21.6482 H   0  0  0  0  0  0
  -26.0088  -38.2684   24.1403 H   0  0  0  0  0  0
  -28.7866  -20.1559   18.8028 H   0  0  0  0  0  0
  -30.3057  -20.8641   19.0902 H   0  0  0  0  0  0
  -28.9653  -19.2591   22.3090 H   0  0  0  0  0  0
  -27.3055  -18.9155   22.2848 H   0  0  0  0  0  0
  -30.9101  -18.9213   20.8589 H   0  0  0  0  0  0
  -30.8983  -18.5455   19.1957 H   0  0  0  0  0  0
  -27.6397  -17.7209   19.9169 H   0  0  0  0  0  0
  -27.8954  -16.9226   21.4269 H   0  0  0  0  0  0
  -29.4622  -22.0090   21.2699 H   0  0  0  0  0  0
  -27.0015  -23.4844   20.2177 H   0  0  0  0  0  0
  -28.1183  -23.6037   18.9427 H   0  0  0  0  0  0
  1 25  1  0  0  0
  1 30  2  0  0  0
  1 78  1  0  0  0
  2  3  1  0  0  0
  2 25  1  0  0  0
  2 81  1  0  0  0
  2 82  1  0  0  0
  3  4  1  0  0  0
  3 83  1  0  0  0
  3 84  1  0  0  0
  4  5  1  0  0  0
  4 85  1  0  0  0
  4 86  1  0  0  0
  5  6  1  0  0  0
  5 26  1  0  0  0
  5 87  1  0  0  0
  6 25  1  0  0  0
  6 88  1  0  0  0
  6 89  1  0  0  0
  7  8  2  0  0  0
  7 26  1  0  0  0
  7 29  1  0  0  0
  8  9  1  0  0  0
  8 22  1  0  0  0
  9 10  1  0  0  0
  9 27  2  0  0  0
 10 11  2  0  0  0
 10 15  1  0  0  0
 11 12  1  0  0  0
 11 90  1  0  0  0
 12 13  2  0  0  0
 12 91  1  0  0  0
 13 14  1  0  0  0
 13 31  1  0  0  0
 14 15  2  0  0  0
 14 92  1  0  0  0
 15 93  1  0  0  0
 16 17  2  0  0  0
 16 21  1  0  0  0
 16 31  1  0  0  0
 17 18  1  0  0  0
 17 94  1  0  0  0
 18 19  2  0  0  0
 18 95  1  0  0  0
 19 20  1  0  0  0
 19 24  1  0  0  0
 20 21  2  0  0  0
 20 96  1  0  0  0
 21 23  1  0  0  0
 22 28  1  0  0  0
 22 32  2  0  0  0
 26 27  1  0  0  0
 28 97  1  0  0  0
 28 98  1  0  0  0
 29 99  1  0  0  0
 29100  1  0  0  0
 33 34  1  0  0  0
 33 66  1  0  0  0
 33 70  2  0  0  0
 34 36  1  0  0  0
 34 59  1  0  0  0
 34101  1  0  0  0
 35 44  2  0  0  0
 35 45  1  0  0  0
 35 68  1  0  0  0
 36 56  1  0  0  0
 36102  1  0  0  0
 37 39  1  0  0  0
 37 47  1  0  0  0
 37 66  1  0  0  0
 37103  1  0  0  0
 38 43  2  0  0  0
 38 46  1  0  0  0
 38 47  1  0  0  0
 39 64  1  0  0  0
 39 67  2  0  0  0
 40 52  1  0  0  0
 40 53  2  0  0  0
 40 58  1  0  0  0
 41104  1  0  0  0
 41105  1  0  0  0
 41106  1  0  0  0
 41 48  1  0  0  0
 42 43  1  0  0  0
 42 66  1  0  0  0
 42107  1  0  0  0
 42108  1  0  0  0
 43 44  1  0  0  0
 44109  1  0  0  0
 45 46  2  0  0  0
 45110  1  0  0  0
 46111  1  0  0  0
 47112  1  0  0  0
 47113  1  0  0  0
 48 56  1  0  0  0
 48 65  1  0  0  0
 48114  1  0  0  0
 49 50  1  0  0  0
 49 53  1  0  0  0
 49 64  1  0  0  0
 49115  1  0  0  0
 50 51  1  0  0  0
 50116  1  0  0  0
 50117  1  0  0  0
 51 52  1  0  0  0
 51118  1  0  0  0
 51119  1  0  0  0
 52120  1  0  0  0
 52121  1  0  0  0
 53 54  1  0  0  0
 54 55  2  0  0  0
 54122  1  0  0  0
 55 57  1  0  0  0
 55123  1  0  0  0
 56 69  2  0  0  0
 57 58  2  0  0  0
 57124  1  0  0  0
 58125  1  0  0  0
 59 60  1  0  0  0
 59 61  1  0  0  0
 59 62  1  0  0  0
 60126  1  0  0  0
 60127  1  0  0  0
 60128  1  0  0  0
 61129  1  0  0  0
 61130  1  0  0  0
 61131  1  0  0  0
 62132  1  0  0  0
 62133  1  0  0  0
 62134  1  0  0  0
 63 65  1  0  0  0
 63135  1  0  0  0
 63136  1  0  0  0
 63137  1  0  0  0
 64138  1  0  0  0
 65139  1  0  0  0
 68 77  1  0  0  0
 71 73  1  0  0  0
 71 75  1  0  0  0
 71140  1  0  0  0
 71141  1  0  0  0
 72 74  1  0  0  0
 72 76  1  0  0  0
 72142  1  0  0  0
 72143  1  0  0  0
 73 78  1  0  0  0
 73144  1  0  0  0
 73145  1  0  0  0
 74 78  1  0  0  0
 74146  1  0  0  0
 74147  1  0  0  0
 75 76  1  0  0  0
 75 77  1  0  0  0
 75148  1  0  0  0
 76 79  1  0  0  0
 76 80  1  0  0  0
 77149  1  0  0  0
 77150  1  0  0  0
M  ISO  4   1 100  68 101  77 101  78 100
M  END
> <chiral flag>
0

> <version>
0

> <s_m_source_file>
/data/baiqing/PycharmProjects/Reinvent-master-3.2/result/LINK_invent/BTK/process_docking_weight1_custom_product_contain_oxygen_bond_distance_aromatic_linkinvent_7_9_3/rearranged_h_0024.sdf

> <i_m_source_file_index>
73

> <r_mmod_Potential_Energy-OPLS-2005>
2988.52954101562

> <r_mmod_Stretch_Energy-OPLS-2005>
1179.83666992188

> <r_mmod_Bend_Energy-OPLS-2005>
804.752075195312

> <r_mmod_Torsional_Energy-OPLS-2005>
332.972564697266

> <r_mmod_Improper_Torsional_Energy-OPLS-2005>
6.26486301422119

> <r_mmod_Van_der_Waal_Energy-OPLS-2005>
127.629791259766

> <r_mmod_Electrostatic_Energy-OPLS-2005>
-279.060729980469

> <r_mmod_Solvation_Energy-OPLS-2005>
-208.675506591797

> <b_mmod_Minimization_Converged-OPLS-2005>
0

> <r_mmod_RMS_Derivative-OPLS-2005>
1.10839784145355

$$$$
73
                    3D
 Structure written by MMmdl.
156165  0  0  1  0            999 V2000
  -30.5364  -15.0155   20.4105 C   0  0  0  0  0  0
  -30.4351  -12.6321   19.5070 C   0  0  0  0  0  0
  -29.5219  -12.5370   18.2631 C   0  0  0  0  0  0
  -28.0579  -12.3136   18.6830 C   0  0  0  0  0  0
  -27.6243  -13.2574   19.8348 C   0  0  2  0  0  0
  -28.6662  -13.3249   20.9721 C   0  0  0  0  0  0
  -25.2435  -13.8233   20.5724 C   0  0  0  0  0  0
  -24.1766  -13.0441   20.9239 C   0  0  0  0  0  0
  -24.6397  -11.6932   20.8761 C   0  0  0  0  0  0
  -23.9086  -10.4295   21.0409 C   0  0  0  0  0  0
  -24.3632   -9.4207   21.9185 C   0  0  0  0  0  0
  -23.6302   -8.2244   22.0755 C   0  0  0  0  0  0
  -22.4283   -8.0284   21.3545 C   0  0  0  0  0  0
  -21.9924   -9.0259   20.4646 C   0  0  0  0  0  0
  -22.7258  -10.2135   20.3056 C   0  0  0  0  0  0
  -21.6856   -6.0738   22.5278 C   0  0  0  0  0  0
  -21.4016   -6.5641   23.8212 C   0  0  0  0  0  0
  -21.3660   -5.6793   24.9174 C   0  0  0  0  0  0
  -21.6044   -4.3056   24.7224 C   0  0  0  0  0  0
  -21.8819   -3.8148   23.4345 C   0  0  0  0  0  0
  -21.9193   -4.6965   22.3402 C   0  0  0  0  0  0
  -22.7783  -13.5202   21.1890 C   0  0  0  0  0  0
  -22.1661   -4.2150   21.0979 F   0  0  0  0  0  0
  -21.5628   -3.4539   25.7736 F   0  0  0  0  0  0
  -29.9329  -13.7516   20.3637 N   0  0  0  0  0  0
  -26.2865  -12.9483   20.3246 N   0  0  0  0  0  0
  -25.9332  -11.6603   20.5745 N   0  0  0  0  0  0
  -22.0439  -12.8184   22.0445 N   0  0  0  0  0  0
  -25.4069  -15.1965   20.4147 N   0  0  0  0  0  0
  -31.7397  -15.0258   20.1340 O   0  0  0  0  0  0
  -21.6645   -6.8882   21.4241 O   0  0  0  0  0  0
  -22.3460  -14.5503   20.6731 O   0  0  0  0  0  0
  -24.6477  -31.8388   23.1834 C   0  0  0  0  0  0
  -25.9228  -32.4667   23.8241 C   0  0  1  0  0  0
  -27.2162  -27.0868   20.1600 C   0  0  0  0  0  0
  -25.5957  -33.8475   24.2156 N   0  0  0  0  0  0
  -23.4540  -30.4561   21.5296 C   0  0  2  0  0  0
  -24.9045  -28.8730   20.1088 C   0  0  0  0  0  0
  -22.7590  -29.4518   22.4837 C   0  0  0  0  0  0
  -18.0308  -28.1401   22.8474 C   0  0  0  0  0  0
  -24.1491  -36.7241   23.2645 C   0  0  0  0  0  0
  -26.0129  -30.6967   21.3895 C   0  0  0  0  0  0
  -26.0828  -29.3031   20.7316 C   0  0  0  0  0  0
  -27.2380  -28.4267   20.7381 C   0  0  0  0  0  0
  -26.0132  -26.7705   19.4921 C   0  0  0  0  0  0
  -24.8856  -27.6225   19.4718 C   0  0  0  0  0  0
  -23.6833  -29.7812   20.1505 C   0  0  0  0  0  0
  -25.4125  -36.3014   24.0311 C   0  0  1  0  0  0
  -20.5924  -28.3728   23.1225 C   0  0  2  0  0  0
  -20.6790  -26.9426   22.5405 C   0  0  0  0  0  0
  -19.5763  -26.6381   21.5214 C   0  0  0  0  0  0
  -18.1945  -26.7938   22.1624 C   0  0  0  0  0  0
  -19.1567  -28.8883   23.2840 C   0  0  0  0  0  0
  -18.9483  -30.1478   23.8868 C   0  0  0  0  0  0
  -17.6479  -30.6595   24.0558 C   0  0  0  0  0  0
  -25.9080  -34.9392   23.5046 C   0  0  0  0  0  0
  -16.5369  -29.9087   23.6340 C   0  0  0  0  0  0
  -16.7293  -28.6507   23.0358 C   0  0  0  0  0  0
  -26.4534  -31.6556   25.0706 C   0  0  0  0  0  0
  -25.3704  -31.3762   26.1390 C   0  0  0  0  0  0
  -27.0411  -30.2946   24.6324 C   0  0  0  0  0  0
  -27.6050  -32.4338   25.7498 C   0  0  0  0  0  0
  -27.5572  -37.1777   24.8467 C   0  0  0  0  0  0
  -21.4277  -29.3044   22.3589 N   0  0  0  0  0  0
  -26.4283  -37.3734   23.9409 N   0  0  0  0  0  0
  -24.7251  -31.0199   22.0891 N   0  0  0  0  0  0
  -23.4210  -28.8074   23.3012 O   0  0  0  0  0  0
  -28.2551  -26.0738   20.2459 O   0  0  0  0  0  0
  -26.5674  -34.8901   22.4631 O   0  0  0  0  0  0
  -23.5585  -32.1288   23.7025 O   0  0  0  0  0  0
  -31.7710  -19.5228   20.9765 C   0  0  0  0  0  0
  -29.5096  -20.4133   20.4738 C   0  0  0  0  0  0
  -30.0847  -17.7611   20.5752 C   0  0  0  0  0  0
  -30.8895  -20.5996   20.7523 C   0  0  0  0  0  0
  -31.3953  -18.1661   20.9252 C   0  0  0  0  0  0
  -29.1624  -18.9366   20.3669 C   0  0  0  0  0  0
  -27.8876  -22.3564   22.5391 C   0  0  0  0  0  0
  -29.0060  -23.3027   22.0832 C   0  0  0  0  0  0
  -27.5155  -21.5234   21.3013 C   0  0  0  0  0  0
  -28.9741  -23.1989   20.5562 C   0  0  2  0  0  0
  -28.0064  -24.5252   20.0417 C   0  0  0  0  0  0
  -28.6315  -21.6550   20.3691 N   0  0  0  0  0  0
  -29.7679  -16.2305   20.5184 N   0  0  0  0  0  0
  -31.4201  -21.8422   20.8432 F   0  0  0  0  0  0
  -32.3392  -17.2595   21.2643 F   0  0  0  0  0  0
  -27.5433  -18.5111   19.9267 Cl  0  0  0  0  0  0
  -31.4680  -12.7857   19.1911 H   0  0  0  0  0  0
  -30.4348  -11.6923   20.0615 H   0  0  0  0  0  0
  -29.8523  -11.7287   17.6094 H   0  0  0  0  0  0
  -29.6008  -13.4560   17.6801 H   0  0  0  0  0  0
  -27.9646  -11.2757   19.0043 H   0  0  0  0  0  0
  -27.3937  -12.4278   17.8254 H   0  0  0  0  0  0
  -27.5745  -14.2509   19.3883 H   0  0  0  0  0  0
  -28.7701  -12.3614   21.4732 H   0  0  0  0  0  0
  -28.3544  -14.0401   21.7351 H   0  0  0  0  0  0
  -25.2774   -9.5682   22.4764 H   0  0  0  0  0  0
  -24.0008   -7.4636   22.7476 H   0  0  0  0  0  0
  -21.0854   -8.8782   19.8952 H   0  0  0  0  0  0
  -22.3717  -10.9676   19.6167 H   0  0  0  0  0  0
  -21.2010   -7.6149   23.9715 H   0  0  0  0  0  0
  -21.1481   -6.0523   25.9076 H   0  0  0  0  0  0
  -22.0598   -2.7610   23.2845 H   0  0  0  0  0  0
  -22.4069  -11.9852   22.4832 H   0  0  0  0  0  0
  -21.1052  -13.1195   22.2650 H   0  0  0  0  0  0
  -24.6327  -15.8416   20.5275 H   0  0  0  0  0  0
  -26.2402  -15.6439   20.0577 H   0  0  0  0  0  0
  -26.7292  -32.5255   23.0963 H   0  0  0  0  0  0
  -25.0074  -33.9581   25.0283 H   0  0  0  0  0  0
  -22.7591  -31.2834   21.3710 H   0  0  0  0  0  0
  -23.3760  -35.9565   23.3291 H   0  0  0  0  0  0
  -24.3573  -36.8893   22.2063 H   0  0  0  0  0  0
  -23.7240  -37.6427   23.6698 H   0  0  0  0  0  0
  -26.1748  -31.4481   20.6154 H   0  0  0  0  0  0
  -26.8809  -30.7481   22.0352 H   0  0  0  0  0  0
  -28.1331  -28.7496   21.2508 H   0  0  0  0  0  0
  -25.9127  -25.8141   19.0009 H   0  0  0  0  0  0
  -23.9874  -27.2891   18.9703 H   0  0  0  0  0  0
  -23.8238  -30.5539   19.3938 H   0  0  0  0  0  0
  -22.7969  -29.2259   19.8387 H   0  0  0  0  0  0
  -25.1318  -36.1832   25.0803 H   0  0  0  0  0  0
  -21.0017  -28.3323   24.1347 H   0  0  0  0  0  0
  -20.5680  -26.2342   23.3629 H   0  0  0  0  0  0
  -21.6654  -26.7423   22.1205 H   0  0  0  0  0  0
  -19.6923  -25.6285   21.1261 H   0  0  0  0  0  0
  -19.6702  -27.3176   20.6732 H   0  0  0  0  0  0
  -17.4214  -26.6683   21.4028 H   0  0  0  0  0  0
  -18.0341  -26.0088   22.9029 H   0  0  0  0  0  0
  -19.7959  -30.7302   24.2223 H   0  0  0  0  0  0
  -17.5032  -31.6272   24.5165 H   0  0  0  0  0  0
  -15.5368  -30.2979   23.7682 H   0  0  0  0  0  0
  -15.8693  -28.0816   22.7090 H   0  0  0  0  0  0
  -24.5896  -30.7095   25.7710 H   0  0  0  0  0  0
  -24.8877  -32.2948   26.4735 H   0  0  0  0  0  0
  -25.7974  -30.8990   27.0219 H   0  0  0  0  0  0
  -26.3042  -29.6654   24.1318 H   0  0  0  0  0  0
  -27.3994  -29.7265   25.4919 H   0  0  0  0  0  0
  -27.8960  -30.4172   23.9672 H   0  0  0  0  0  0
  -27.2633  -33.3666   26.1995 H   0  0  0  0  0  0
  -28.3902  -32.6855   25.0357 H   0  0  0  0  0  0
  -28.0670  -31.8517   26.5481 H   0  0  0  0  0  0
  -28.2580  -38.0082   24.7511 H   0  0  0  0  0  0
  -28.1078  -36.2610   24.6297 H   0  0  0  0  0  0
  -27.2289  -37.1426   25.8870 H   0  0  0  0  0  0
  -20.9498  -29.8748   21.6752 H   0  0  0  0  0  0
  -26.0144  -38.2798   24.1416 H   0  0  0  0  0  0
  -32.7950  -19.7538   21.2270 H   0  0  0  0  0  0
  -27.0184  -22.9038   22.9062 H   0  0  0  0  0  0
  -28.2396  -21.7203   23.3525 H   0  0  0  0  0  0
  -29.9631  -22.9538   22.4707 H   0  0  0  0  0  0
  -28.8700  -24.3224   22.4467 H   0  0  0  0  0  0
  -26.6145  -21.9207   20.8305 H   0  0  0  0  0  0
  -27.2866  -20.5014   21.6003 H   0  0  0  0  0  0
  -29.9634  -23.3930   20.1445 H   0  0  0  0  0  0
  -27.8811  -24.4029   18.9657 H   0  0  0  0  0  0
  -27.0148  -24.3414   20.4560 H   0  0  0  0  0  0
  -28.7794  -16.0408   20.5618 H   0  0  0  0  0  0
  1 25  1  0  0  0
  1 30  2  0  0  0
  1 83  1  0  0  0
  2  3  1  0  0  0
  2 25  1  0  0  0
  2 87  1  0  0  0
  2 88  1  0  0  0
  3  4  1  0  0  0
  3 89  1  0  0  0
  3 90  1  0  0  0
  4  5  1  0  0  0
  4 91  1  0  0  0
  4 92  1  0  0  0
  5  6  1  0  0  0
  5 26  1  0  0  0
  5 93  1  0  0  0
  6 25  1  0  0  0
  6 94  1  0  0  0
  6 95  1  0  0  0
  7  8  2  0  0  0
  7 26  1  0  0  0
  7 29  1  0  0  0
  8  9  1  0  0  0
  8 22  1  0  0  0
  9 10  1  0  0  0
  9 27  2  0  0  0
 10 11  2  0  0  0
 10 15  1  0  0  0
 11 12  1  0  0  0
 11 96  1  0  0  0
 12 13  2  0  0  0
 12 97  1  0  0  0
 13 14  1  0  0  0
 13 31  1  0  0  0
 14 15  2  0  0  0
 14 98  1  0  0  0
 15 99  1  0  0  0
 16 17  2  0  0  0
 16 21  1  0  0  0
 16 31  1  0  0  0
 17 18  1  0  0  0
 17100  1  0  0  0
 18 19  2  0  0  0
 18101  1  0  0  0
 19 20  1  0  0  0
 19 24  1  0  0  0
 20 21  2  0  0  0
 20102  1  0  0  0
 21 23  1  0  0  0
 22 28  1  0  0  0
 22 32  2  0  0  0
 26 27  1  0  0  0
 28103  1  0  0  0
 28104  1  0  0  0
 29105  1  0  0  0
 29106  1  0  0  0
 33 34  1  0  0  0
 33 66  1  0  0  0
 33 70  2  0  0  0
 34 36  1  0  0  0
 34 59  1  0  0  0
 34107  1  0  0  0
 35 44  2  0  0  0
 35 45  1  0  0  0
 35 68  1  0  0  0
 36 56  1  0  0  0
 36108  1  0  0  0
 37 39  1  0  0  0
 37 47  1  0  0  0
 37 66  1  0  0  0
 37109  1  0  0  0
 38 43  2  0  0  0
 38 46  1  0  0  0
 38 47  1  0  0  0
 39 64  1  0  0  0
 39 67  2  0  0  0
 40 52  1  0  0  0
 40 53  2  0  0  0
 40 58  1  0  0  0
 41110  1  0  0  0
 41111  1  0  0  0
 41112  1  0  0  0
 41 48  1  0  0  0
 42 43  1  0  0  0
 42 66  1  0  0  0
 42113  1  0  0  0
 42114  1  0  0  0
 43 44  1  0  0  0
 44115  1  0  0  0
 45 46  2  0  0  0
 45116  1  0  0  0
 46117  1  0  0  0
 47118  1  0  0  0
 47119  1  0  0  0
 48 56  1  0  0  0
 48 65  1  0  0  0
 48120  1  0  0  0
 49 50  1  0  0  0
 49 53  1  0  0  0
 49 64  1  0  0  0
 49121  1  0  0  0
 50 51  1  0  0  0
 50122  1  0  0  0
 50123  1  0  0  0
 51 52  1  0  0  0
 51124  1  0  0  0
 51125  1  0  0  0
 52126  1  0  0  0
 52127  1  0  0  0
 53 54  1  0  0  0
 54 55  2  0  0  0
 54128  1  0  0  0
 55 57  1  0  0  0
 55129  1  0  0  0
 56 69  2  0  0  0
 57 58  2  0  0  0
 57130  1  0  0  0
 58131  1  0  0  0
 59 60  1  0  0  0
 59 61  1  0  0  0
 59 62  1  0  0  0
 60132  1  0  0  0
 60133  1  0  0  0
 60134  1  0  0  0
 61135  1  0  0  0
 61136  1  0  0  0
 61137  1  0  0  0
 62138  1  0  0  0
 62139  1  0  0  0
 62140  1  0  0  0
 63 65  1  0  0  0
 63141  1  0  0  0
 63142  1  0  0  0
 63143  1  0  0  0
 64144  1  0  0  0
 65145  1  0  0  0
 68 81  1  0  0  0
 71 74  2  0  0  0
 71 75  1  0  0  0
 71146  1  0  0  0
 72 74  1  0  0  0
 72 76  2  0  0  0
 72 82  1  0  0  0
 73 75  2  0  0  0
 73 76  1  0  0  0
 73 83  1  0  0  0
 74 84  1  0  0  0
 75 85  1  0  0  0
 76 86  1  0  0  0
 77 78  1  0  0  0
 77 79  1  0  0  0
 77147  1  0  0  0
 77148  1  0  0  0
 78 80  1  0  0  0
 78149  1  0  0  0
 78150  1  0  0  0
 79 82  1  0  0  0
 79151  1  0  0  0
 79152  1  0  0  0
 80 81  1  0  0  0
 80 82  1  0  0  0
 80153  1  0  0  0
 81154  1  0  0  0
 81155  1  0  0  0
 83156  1  0  0  0
M  ISO  4   1 100  68 101  81 101  83 100
M  END
> <chiral flag>
0

> <version>
0

> <s_m_source_file>
/data/baiqing/PycharmProjects/Reinvent-master-3.2/result/LINK_invent/BTK/process_docking_weight1_custom_product_contain_oxygen_bond_distance_aromatic_linkinvent_7_9_3/rearranged_h_0024.sdf

> <i_m_source_file_index>
74

> <r_mmod_Potential_Energy-OPLS-2005>
722.06640625

> <r_mmod_Stretch_Energy-OPLS-2005>
334.994293212891

> <r_mmod_Bend_Energy-OPLS-2005>
319.920104980469

> <r_mmod_Torsional_Energy-OPLS-2005>
277.814727783203

> <r_mmod_Improper_Torsional_Energy-OPLS-2005>
11.5646924972534

> <r_mmod_Van_der_Waal_Energy-OPLS-2005>
137.932754516602

> <r_mmod_Electrostatic_Energy-OPLS-2005>
-374.818481445312

> <r_mmod_Solvation_Energy-OPLS-2005>
-224.657363891602

> <b_mmod_Minimization_Converged-OPLS-2005>
0

> <r_mmod_RMS_Derivative-OPLS-2005>
0.213460311293602

$$$$
74
                    3D
 Structure written by MMmdl.
167175  0  0  1  0            999 V2000
  -30.7480  -14.3995   20.6372 C   0  0  0  0  0  0
  -30.4147  -12.2878   19.4040 C   0  0  0  0  0  0
  -29.4864  -12.5204   18.1965 C   0  0  0  0  0  0
  -28.0087  -12.3833   18.6111 C   0  0  0  0  0  0
  -27.6648  -13.2065   19.8814 C   0  0  2  0  0  0
  -28.7047  -12.9551   20.9961 C   0  0  0  0  0  0
  -25.2591  -13.8163   20.5674 C   0  0  0  0  0  0
  -24.1838  -13.0439   20.9158 C   0  0  0  0  0  0
  -24.6393  -11.6907   20.8725 C   0  0  0  0  0  0
  -23.9060  -10.4296   21.0397 C   0  0  0  0  0  0
  -24.3616   -9.4210   21.9178 C   0  0  0  0  0  0
  -23.6290   -8.2245   22.0751 C   0  0  0  0  0  0
  -22.4272   -8.0284   21.3544 C   0  0  0  0  0  0
  -21.9906   -9.0255   20.4648 C   0  0  0  0  0  0
  -22.7232  -10.2133   20.3049 C   0  0  0  0  0  0
  -21.6854   -6.0733   22.5279 C   0  0  0  0  0  0
  -21.4014   -6.5639   23.8213 C   0  0  0  0  0  0
  -21.3660   -5.6790   24.9175 C   0  0  0  0  0  0
  -21.6043   -4.3053   24.7225 C   0  0  0  0  0  0
  -21.8819   -3.8146   23.4346 C   0  0  0  0  0  0
  -21.9194   -4.6961   22.3401 C   0  0  0  0  0  0
  -22.7863  -13.5239   21.1831 C   0  0  0  0  0  0
  -22.1660   -4.2149   21.0980 F   0  0  0  0  0  0
  -21.5629   -3.4537   25.7734 F   0  0  0  0  0  0
  -30.0437  -13.2512   20.4520 N   0  0  0  0  0  0
  -26.3038  -12.9337   20.3395 N   0  0  0  0  0  0
  -25.9323  -11.6492   20.5770 N   0  0  0  0  0  0
  -22.0508  -12.8234   22.0396 N   0  0  0  0  0  0
  -25.4314  -15.1874   20.4086 N   0  0  0  0  0  0
  -31.8098  -14.6229   20.0499 O   0  0  0  0  0  0
  -21.6640   -6.8878   21.4243 O   0  0  0  0  0  0
  -22.3544  -14.5547   20.6689 O   0  0  0  0  0  0
  -24.6132  -31.8698   23.2104 C   0  0  0  0  0  0
  -25.9033  -32.4838   23.8396 C   0  0  1  0  0  0
  -27.2388  -27.4491   20.0827 C   0  0  0  0  0  0
  -25.5911  -33.8640   24.2325 N   0  0  0  0  0  0
  -23.3992  -30.4934   21.5515 C   0  0  2  0  0  0
  -24.8426  -28.9583   20.1156 C   0  0  0  0  0  0
  -22.7397  -29.4675   22.5005 C   0  0  0  0  0  0
  -18.0267  -28.1379   22.8502 C   0  0  0  0  0  0
  -24.1494  -36.7307   23.2640 C   0  0  0  0  0  0
  -25.9258  -30.8391   21.3589 C   0  0  0  0  0  0
  -26.0017  -29.4735   20.7070 C   0  0  0  0  0  0
  -27.1983  -28.7257   20.6876 C   0  0  0  0  0  0
  -26.0542  -26.9382   19.5007 C   0  0  0  0  0  0
  -24.8631  -27.6886   19.5138 C   0  0  0  0  0  0
  -23.6050  -29.8243   20.1660 C   0  0  0  0  0  0
  -25.4115  -36.3118   24.0341 C   0  0  1  0  0  0
  -20.5857  -28.3664   23.1327 C   0  0  2  0  0  0
  -20.6766  -26.9408   22.5418 C   0  0  0  0  0  0
  -19.5745  -26.6384   21.5223 C   0  0  0  0  0  0
  -18.1919  -26.7924   22.1625 C   0  0  0  0  0  0
  -19.1518  -28.8836   23.2914 C   0  0  0  0  0  0
  -18.9452  -30.1447   23.8913 C   0  0  0  0  0  0
  -17.6461  -30.6590   24.0572 C   0  0  0  0  0  0
  -25.9046  -34.9489   23.5124 C   0  0  0  0  0  0
  -16.5349  -29.9100   23.6328 C   0  0  0  0  0  0
  -16.7257  -28.6514   23.0343 C   0  0  0  0  0  0
  -26.4461  -31.6619   25.0719 C   0  0  0  0  0  0
  -25.3739  -31.3734   26.1483 C   0  0  0  0  0  0
  -27.0273  -30.3064   24.6065 C   0  0  0  0  0  0
  -27.6064  -32.4320   25.7455 C   0  0  0  0  0  0
  -27.5583  -37.1807   24.8469 C   0  0  0  0  0  0
  -21.4127  -29.3037   22.3739 N   0  0  0  0  0  0
  -26.4296  -37.3807   23.9416 N   0  0  0  0  0  0
  -24.6648  -31.0818   22.0989 N   0  0  0  0  0  0
  -23.4180  -28.8218   23.3037 O   0  0  0  0  0  0
  -28.4457  -26.7767   20.0858 O   0  0  0  0  0  0
  -26.5606  -34.8941   22.4684 O   0  0  0  0  0  0
  -23.5333  -32.1435   23.7515 O   0  0  0  0  0  0
  -32.2902  -18.3312   22.1866 C   0  0  0  0  0  0
  -31.3535  -19.1237   22.8695 C   0  0  0  0  0  0
  -31.9200  -17.0680   21.6990 C   0  0  0  0  0  0
  -30.0226  -18.6836   23.0423 C   0  0  0  0  0  0
  -30.5990  -16.5883   21.8752 C   0  0  0  0  0  0
  -29.6484  -17.4060   22.5382 C   0  0  0  0  0  0
  -29.0796  -19.5065   23.8856 C   0  0  0  0  0  0
  -28.1703  -24.4230   20.7952 C   0  0  0  0  0  0
  -30.3208  -22.5963   22.6326 C   0  0  0  0  0  0
  -28.1472  -21.6273   24.5983 C   0  0  0  0  0  0
  -28.6300  -22.5346   19.2583 C   0  0  0  0  0  0
  -28.5319  -25.4081   19.6575 C   0  0  0  0  0  0
  -27.9688  -22.0798   21.6060 C   0  0  0  0  0  0
  -29.2286  -21.5388   22.3514 C   0  0  2  0  0  0
  -30.1731  -15.2881   21.4647 N   0  0  0  0  0  0
  -28.8622  -20.8211   23.5969 N   0  0  0  0  0  0
  -28.2735  -23.0862   20.5692 N   0  0  0  0  0  0
  -28.5734  -18.9694   24.8778 O   0  0  0  0  0  0
  -27.8192  -24.8754   21.8909 O   0  0  0  0  0  0
  -28.0288  -16.8036   22.7160 Cl  0  0  0  0  0  0
  -31.4597  -12.3754   19.1009 H   0  0  0  0  0  0
  -30.3034  -11.2691   19.7786 H   0  0  0  0  0  0
  -29.7182  -11.8125   17.3993 H   0  0  0  0  0  0
  -29.6620  -13.5150   17.7835 H   0  0  0  0  0  0
  -27.8103  -11.3258   18.7886 H   0  0  0  0  0  0
  -27.3593  -12.6778   17.7856 H   0  0  0  0  0  0
  -27.7195  -14.2601   19.6058 H   0  0  0  0  0  0
  -28.6700  -11.9119   21.3136 H   0  0  0  0  0  0
  -28.4574  -13.5304   21.8884 H   0  0  0  0  0  0
  -25.2762   -9.5687   22.4746 H   0  0  0  0  0  0
  -24.0003   -7.4638   22.7467 H   0  0  0  0  0  0
  -21.0834   -8.8771   19.8956 H   0  0  0  0  0  0
  -22.3692  -10.9667   19.6154 H   0  0  0  0  0  0
  -21.2005   -7.6146   23.9719 H   0  0  0  0  0  0
  -21.1481   -6.0518   25.9079 H   0  0  0  0  0  0
  -22.0596   -2.7605   23.2843 H   0  0  0  0  0  0
  -22.4120  -11.9891   22.4778 H   0  0  0  0  0  0
  -21.1131  -13.1274   22.2613 H   0  0  0  0  0  0
  -24.6735  -15.8479   20.5397 H   0  0  0  0  0  0
  -26.3029  -15.6320   20.1504 H   0  0  0  0  0  0
  -26.7107  -32.5545   23.1165 H   0  0  0  0  0  0
  -25.0115  -33.9822   25.0506 H   0  0  0  0  0  0
  -22.6874  -31.3097   21.4125 H   0  0  0  0  0  0
  -23.3776  -35.9620   23.3302 H   0  0  0  0  0  0
  -24.3597  -36.8912   22.2056 H   0  0  0  0  0  0
  -23.7218  -37.6501   23.6653 H   0  0  0  0  0  0
  -26.0347  -31.6046   20.5893 H   0  0  0  0  0  0
  -26.8161  -30.8932   21.9737 H   0  0  0  0  0  0
  -28.0954  -29.1268   21.1385 H   0  0  0  0  0  0
  -26.0191  -25.9691   19.0281 H   0  0  0  0  0  0
  -23.9698  -27.2821   19.0590 H   0  0  0  0  0  0
  -23.7136  -30.5990   19.4063 H   0  0  0  0  0  0
  -22.7285  -29.2447   19.8707 H   0  0  0  0  0  0
  -25.1291  -36.1983   25.0831 H   0  0  0  0  0  0
  -20.9950  -28.3223   24.1446 H   0  0  0  0  0  0
  -20.5684  -26.2273   23.3601 H   0  0  0  0  0  0
  -21.6637  -26.7469   22.1199 H   0  0  0  0  0  0
  -19.6922  -25.6301   21.1237 H   0  0  0  0  0  0
  -19.6686  -27.3210   20.6767 H   0  0  0  0  0  0
  -17.4199  -26.6685   21.4018 H   0  0  0  0  0  0
  -18.0312  -26.0053   22.9004 H   0  0  0  0  0  0
  -19.7937  -30.7257   24.2274 H   0  0  0  0  0  0
  -17.5026  -31.6273   24.5175 H   0  0  0  0  0  0
  -15.5354  -30.3016   23.7649 H   0  0  0  0  0  0
  -15.8650  -28.0855   22.7036 H   0  0  0  0  0  0
  -24.5884  -30.7111   25.7829 H   0  0  0  0  0  0
  -24.8973  -32.2903   26.4971 H   0  0  0  0  0  0
  -25.8094  -30.8872   27.0218 H   0  0  0  0  0  0
  -26.2789  -29.6832   24.1161 H   0  0  0  0  0  0
  -27.4100  -29.7300   25.4494 H   0  0  0  0  0  0
  -27.8600  -30.4398   23.9155 H   0  0  0  0  0  0
  -27.2728  -33.3648   26.2016 H   0  0  0  0  0  0
  -28.3873  -32.6824   25.0265 H   0  0  0  0  0  0
  -28.0719  -31.8443   26.5371 H   0  0  0  0  0  0
  -28.2614  -38.0096   24.7533 H   0  0  0  0  0  0
  -28.1059  -36.2632   24.6269 H   0  0  0  0  0  0
  -27.2308  -37.1425   25.8874 H   0  0  0  0  0  0
  -20.9280  -29.8761   21.6970 H   0  0  0  0  0  0
  -26.0184  -38.2880   24.1433 H   0  0  0  0  0  0
  -33.3070  -18.6792   22.0632 H   0  0  0  0  0  0
  -31.6765  -20.0642   23.2886 H   0  0  0  0  0  0
  -32.6847  -16.4821   21.2144 H   0  0  0  0  0  0
  -30.7549  -22.9700   21.7051 H   0  0  0  0  0  0
  -31.1415  -22.1909   23.2218 H   0  0  0  0  0  0
  -29.9301  -23.4556   23.1771 H   0  0  0  0  0  0
  -28.5791  -21.4909   25.5914 H   0  0  0  0  0  0
  -27.0981  -21.3328   24.6438 H   0  0  0  0  0  0
  -28.1808  -22.6954   24.3900 H   0  0  0  0  0  0
  -27.9047  -22.8338   18.5011 H   0  0  0  0  0  0
  -28.6600  -21.4446   19.2644 H   0  0  0  0  0  0
  -29.6178  -22.8759   18.9460 H   0  0  0  0  0  0
  -27.9643  -25.2113   18.7491 H   0  0  0  0  0  0
  -29.5752  -25.2354   19.3923 H   0  0  0  0  0  0
  -27.2500  -22.5044   22.3070 H   0  0  0  0  0  0
  -27.4256  -21.2450   21.1606 H   0  0  0  0  0  0
  -29.6790  -20.8344   21.6525 H   0  0  0  0  0  0
  -29.2695  -15.0112   21.8186 H   0  0  0  0  0  0
  1 25  1  0  0  0
  1 30  2  0  0  0
  1 85  1  0  0  0
  2  3  1  0  0  0
  2 25  1  0  0  0
  2 91  1  0  0  0
  2 92  1  0  0  0
  3  4  1  0  0  0
  3 93  1  0  0  0
  3 94  1  0  0  0
  4  5  1  0  0  0
  4 95  1  0  0  0
  4 96  1  0  0  0
  5  6  1  0  0  0
  5 26  1  0  0  0
  5 97  1  0  0  0
  6 25  1  0  0  0
  6 98  1  0  0  0
  6 99  1  0  0  0
  7  8  2  0  0  0
  7 26  1  0  0  0
  7 29  1  0  0  0
  8  9  1  0  0  0
  8 22  1  0  0  0
  9 10  1  0  0  0
  9 27  2  0  0  0
 10 11  2  0  0  0
 10 15  1  0  0  0
 11 12  1  0  0  0
 11100  1  0  0  0
 12 13  2  0  0  0
 12101  1  0  0  0
 13 14  1  0  0  0
 13 31  1  0  0  0
 14 15  2  0  0  0
 14102  1  0  0  0
 15103  1  0  0  0
 16 17  2  0  0  0
 16 21  1  0  0  0
 16 31  1  0  0  0
 17 18  1  0  0  0
 17104  1  0  0  0
 18 19  2  0  0  0
 18105  1  0  0  0
 19 20  1  0  0  0
 19 24  1  0  0  0
 20 21  2  0  0  0
 20106  1  0  0  0
 21 23  1  0  0  0
 22 28  1  0  0  0
 22 32  2  0  0  0
 26 27  1  0  0  0
 28107  1  0  0  0
 28108  1  0  0  0
 29109  1  0  0  0
 29110  1  0  0  0
 33 34  1  0  0  0
 33 66  1  0  0  0
 33 70  2  0  0  0
 34 36  1  0  0  0
 34 59  1  0  0  0
 34111  1  0  0  0
 35 44  2  0  0  0
 35 45  1  0  0  0
 35 68  1  0  0  0
 36 56  1  0  0  0
 36112  1  0  0  0
 37 39  1  0  0  0
 37 47  1  0  0  0
 37 66  1  0  0  0
 37113  1  0  0  0
 38 43  2  0  0  0
 38 46  1  0  0  0
 38 47  1  0  0  0
 39 64  1  0  0  0
 39 67  2  0  0  0
 40 52  1  0  0  0
 40 53  2  0  0  0
 40 58  1  0  0  0
 41114  1  0  0  0
 41115  1  0  0  0
 41116  1  0  0  0
 41 48  1  0  0  0
 42 43  1  0  0  0
 42 66  1  0  0  0
 42117  1  0  0  0
 42118  1  0  0  0
 43 44  1  0  0  0
 44119  1  0  0  0
 45 46  2  0  0  0
 45120  1  0  0  0
 46121  1  0  0  0
 47122  1  0  0  0
 47123  1  0  0  0
 48 56  1  0  0  0
 48 65  1  0  0  0
 48124  1  0  0  0
 49 50  1  0  0  0
 49 53  1  0  0  0
 49 64  1  0  0  0
 49125  1  0  0  0
 50 51  1  0  0  0
 50126  1  0  0  0
 50127  1  0  0  0
 51 52  1  0  0  0
 51128  1  0  0  0
 51129  1  0  0  0
 52130  1  0  0  0
 52131  1  0  0  0
 53 54  1  0  0  0
 54 55  2  0  0  0
 54132  1  0  0  0
 55 57  1  0  0  0
 55133  1  0  0  0
 56 69  2  0  0  0
 57 58  2  0  0  0
 57134  1  0  0  0
 58135  1  0  0  0
 59 60  1  0  0  0
 59 61  1  0  0  0
 59 62  1  0  0  0
 60136  1  0  0  0
 60137  1  0  0  0
 60138  1  0  0  0
 61139  1  0  0  0
 61140  1  0  0  0
 61141  1  0  0  0
 62142  1  0  0  0
 62143  1  0  0  0
 62144  1  0  0  0
 63 65  1  0  0  0
 63145  1  0  0  0
 63146  1  0  0  0
 63147  1  0  0  0
 64148  1  0  0  0
 65149  1  0  0  0
 68 82  1  0  0  0
 71 72  2  0  0  0
 71 73  1  0  0  0
 71150  1  0  0  0
 72 74  1  0  0  0
 72151  1  0  0  0
 73 75  2  0  0  0
 73152  1  0  0  0
 74 76  2  0  0  0
 74 77  1  0  0  0
 75 76  1  0  0  0
 75 85  1  0  0  0
 76 90  1  0  0  0
 77 86  1  0  0  0
 77 88  2  0  0  0
 78 82  1  0  0  0
 78 87  1  0  0  0
 78 89  2  0  0  0
 79153  1  0  0  0
 79154  1  0  0  0
 79155  1  0  0  0
 79 84  1  0  0  0
 80 86  1  0  0  0
 80156  1  0  0  0
 80157  1  0  0  0
 80158  1  0  0  0
 81 87  1  0  0  0
 81159  1  0  0  0
 81160  1  0  0  0
 81161  1  0  0  0
 82162  1  0  0  0
 82163  1  0  0  0
 83 84  1  0  0  0
 83 87  1  0  0  0
 83164  1  0  0  0
 83165  1  0  0  0
 84 86  1  0  0  0
 84166  1  0  0  0
 85167  1  0  0  0
M  ISO  4   1 100  68 101  82 101  85 100
M  END
> <chiral flag>
0

> <version>
0

> <s_m_source_file>
/data/baiqing/PycharmProjects/Reinvent-master-3.2/result/LINK_invent/BTK/process_docking_weight1_custom_product_contain_oxygen_bond_distance_aromatic_linkinvent_7_9_3/rearranged_h_0024.sdf

> <i_m_source_file_index>
75

> <r_mmod_Potential_Energy-OPLS-2005>
43.3164520263672

> <r_mmod_Stretch_Energy-OPLS-2005>
44.3185043334961

> <r_mmod_Bend_Energy-OPLS-2005>
119.514419555664

> <r_mmod_Torsional_Energy-OPLS-2005>
280.089874267578

> <r_mmod_Improper_Torsional_Energy-OPLS-2005>
2.88811135292053

> <r_mmod_Van_der_Waal_Energy-OPLS-2005>
182.282791137695

> <r_mmod_Electrostatic_Energy-OPLS-2005>
-353.826721191406

> <r_mmod_Solvation_Energy-OPLS-2005>
-240.562866210938

> <b_mmod_Minimization_Converged-OPLS-2005>
0

> <r_mmod_RMS_Derivative-OPLS-2005>
1.0991302728653

$$$$
75
                    3D
 Structure written by MMmdl.
162170  0  0  1  0            999 V2000
  -30.7137  -14.4208   20.5780 C   0  0  0  0  0  0
  -30.4184  -12.2714   19.4246 C   0  0  0  0  0  0
  -29.4954  -12.5006   18.2096 C   0  0  0  0  0  0
  -28.0136  -12.3743   18.6153 C   0  0  0  0  0  0
  -27.6663  -13.1981   19.8835 C   0  0  2  0  0  0
  -28.7053  -12.9561   21.0036 C   0  0  0  0  0  0
  -25.2609  -13.8148   20.5655 C   0  0  0  0  0  0
  -24.1843  -13.0431   20.9138 C   0  0  0  0  0  0
  -24.6383  -11.6899   20.8708 C   0  0  0  0  0  0
  -23.9035  -10.4289   21.0396 C   0  0  0  0  0  0
  -24.3580   -9.4207   21.9184 C   0  0  0  0  0  0
  -23.6253   -8.2243   22.0753 C   0  0  0  0  0  0
  -22.4242   -8.0279   21.3535 C   0  0  0  0  0  0
  -21.9881   -9.0245   20.4628 C   0  0  0  0  0  0
  -22.7211  -10.2126   20.3039 C   0  0  0  0  0  0
  -21.6836   -6.0734   22.5268 C   0  0  0  0  0  0
  -21.4014   -6.5644   23.8201 C   0  0  0  0  0  0
  -21.3654   -5.6800   24.9166 C   0  0  0  0  0  0
  -21.6043   -4.3058   24.7226 C   0  0  0  0  0  0
  -21.8817   -3.8144   23.4345 C   0  0  0  0  0  0
  -21.9185   -4.6960   22.3395 C   0  0  0  0  0  0
  -22.7879  -13.5248   21.1828 C   0  0  0  0  0  0
  -22.1649   -4.2153   21.0968 F   0  0  0  0  0  0
  -21.5631   -3.4542   25.7737 F   0  0  0  0  0  0
  -30.0460  -13.2432   20.4614 N   0  0  0  0  0  0
  -26.3042  -12.9293   20.3389 N   0  0  0  0  0  0
  -25.9308  -11.6457   20.5745 N   0  0  0  0  0  0
  -22.0529  -12.8219   22.0367 N   0  0  0  0  0  0
  -25.4387  -15.1857   20.4063 N   0  0  0  0  0  0
  -31.8225  -14.6305   20.0756 O   0  0  0  0  0  0
  -21.6612   -6.8875   21.4228 O   0  0  0  0  0  0
  -22.3573  -14.5577   20.6720 O   0  0  0  0  0  0
  -24.6116  -31.8690   23.2124 C   0  0  0  0  0  0
  -25.9022  -32.4827   23.8410 C   0  0  1  0  0  0
  -27.2429  -27.4600   20.0850 C   0  0  0  0  0  0
  -25.5897  -33.8636   24.2342 N   0  0  0  0  0  0
  -23.3981  -30.4911   21.5518 C   0  0  2  0  0  0
  -24.8444  -28.9570   20.1181 C   0  0  0  0  0  0
  -22.7379  -29.4664   22.5009 C   0  0  0  0  0  0
  -18.0256  -28.1367   22.8497 C   0  0  0  0  0  0
  -24.1479  -36.7321   23.2635 C   0  0  0  0  0  0
  -25.9231  -30.8407   21.3613 C   0  0  0  0  0  0
  -26.0014  -29.4759   20.7112 C   0  0  0  0  0  0
  -27.2004  -28.7332   20.6923 C   0  0  0  0  0  0
  -26.0661  -26.9481   19.4890 C   0  0  0  0  0  0
  -24.8699  -27.6912   19.5076 C   0  0  0  0  0  0
  -23.6049  -29.8202   20.1673 C   0  0  0  0  0  0
  -25.4106  -36.3127   24.0329 C   0  0  1  0  0  0
  -20.5846  -28.3657   23.1323 C   0  0  2  0  0  0
  -20.6748  -26.9391   22.5432 C   0  0  0  0  0  0
  -19.5737  -26.6379   21.5207 C   0  0  0  0  0  0
  -18.1902  -26.7920   22.1604 C   0  0  0  0  0  0
  -19.1507  -28.8825   23.2905 C   0  0  0  0  0  0
  -18.9447  -30.1432   23.8919 C   0  0  0  0  0  0
  -17.6455  -30.6580   24.0578 C   0  0  0  0  0  0
  -25.9039  -34.9487   23.5135 C   0  0  0  0  0  0
  -16.5344  -29.9090   23.6333 C   0  0  0  0  0  0
  -16.7251  -28.6506   23.0352 C   0  0  0  0  0  0
  -26.4466  -31.6596   25.0724 C   0  0  0  0  0  0
  -25.3747  -31.3659   26.1476 C   0  0  0  0  0  0
  -27.0314  -30.3054   24.6080 C   0  0  0  0  0  0
  -27.6045  -32.4303   25.7497 C   0  0  0  0  0  0
  -27.5579  -37.1815   24.8457 C   0  0  0  0  0  0
  -21.4114  -29.3034   22.3736 N   0  0  0  0  0  0
  -26.4286  -37.3810   23.9414 N   0  0  0  0  0  0
  -24.6623  -31.0806   22.1014 N   0  0  0  0  0  0
  -23.4149  -28.8199   23.3045 O   0  0  0  0  0  0
  -28.4431  -26.7839   20.0939 O   0  0  0  0  0  0
  -26.5608  -34.8921   22.4700 O   0  0  0  0  0  0
  -23.5314  -32.1434   23.7535 O   0  0  0  0  0  0
  -29.0636  -18.0797   18.7568 C   0  0  0  0  0  0
  -29.4043  -19.2361   19.4786 C   0  0  0  0  0  0
  -29.2979  -16.8107   19.3134 C   0  0  0  0  0  0
  -30.2279  -17.8517   21.3178 C   0  0  0  0  0  0
  -30.0026  -19.1300   20.7535 C   0  0  0  0  0  0
  -29.8761  -16.6879   20.5976 C   0  0  0  0  0  0
  -32.7090  -20.8058   20.8127 C   0  0  0  0  0  0
  -30.3797  -20.4001   21.5033 C   0  0  0  0  0  0
  -29.8596  -23.2747   20.2358 C   0  0  0  0  0  0
  -29.7469  -24.8001   20.4048 C   0  0  0  0  0  0
  -31.1315  -22.6999   20.9024 C   0  0  0  0  0  0
  -28.4441  -25.3839   19.8352 C   0  0  0  0  0  0
  -30.0318  -15.4051   21.1805 N   0  0  0  0  0  0
  -31.2972  -21.2379   20.6901 N   0  3  1  0  0  0
  -31.4662  -12.3533   19.1306 H   0  0  0  0  0  0
  -30.2977  -11.2569   19.8070 H   0  0  0  0  0  0
  -29.7278  -11.7832   17.4210 H   0  0  0  0  0  0
  -29.6794  -13.4893   17.7858 H   0  0  0  0  0  0
  -27.8052  -11.3181   18.7890 H   0  0  0  0  0  0
  -27.3726  -12.6754   17.7864 H   0  0  0  0  0  0
  -27.7153  -14.2484   19.6029 H   0  0  0  0  0  0
  -28.6647  -11.9173   21.3348 H   0  0  0  0  0  0
  -28.4678  -13.5472   21.8891 H   0  0  0  0  0  0
  -25.2722   -9.5669   22.4764 H   0  0  0  0  0  0
  -23.9948   -7.4632   22.7483 H   0  0  0  0  0  0
  -21.0818   -8.8742   19.8933 H   0  0  0  0  0  0
  -22.3666  -10.9647   19.6130 H   0  0  0  0  0  0
  -21.2016   -7.6153   23.9692 H   0  0  0  0  0  0
  -21.1485   -6.0547   25.9067 H   0  0  0  0  0  0
  -22.0612   -2.7612   23.2847 H   0  0  0  0  0  0
  -22.4133  -11.9832   22.4670 H   0  0  0  0  0  0
  -21.1156  -13.1241   22.2606 H   0  0  0  0  0  0
  -24.6796  -15.8495   20.5126 H   0  0  0  0  0  0
  -26.3033  -15.6187   20.1056 H   0  0  0  0  0  0
  -26.7090  -32.5552   23.1181 H   0  0  0  0  0  0
  -25.0056  -33.9823   25.0492 H   0  0  0  0  0  0
  -22.6868  -31.3075   21.4099 H   0  0  0  0  0  0
  -23.3759  -35.9634   23.3275 H   0  0  0  0  0  0
  -24.3569  -36.8980   22.2058 H   0  0  0  0  0  0
  -23.7198  -37.6495   23.6683 H   0  0  0  0  0  0
  -26.0259  -31.6034   20.5884 H   0  0  0  0  0  0
  -26.8149  -30.9006   21.9733 H   0  0  0  0  0  0
  -28.0975  -29.1341   21.1443 H   0  0  0  0  0  0
  -26.0578  -25.9865   18.9972 H   0  0  0  0  0  0
  -23.9793  -27.2870   19.0457 H   0  0  0  0  0  0
  -23.7100  -30.5925   19.4047 H   0  0  0  0  0  0
  -22.7300  -29.2370   19.8742 H   0  0  0  0  0  0
  -25.1277  -36.2004   25.0822 H   0  0  0  0  0  0
  -20.9937  -28.3229   24.1446 H   0  0  0  0  0  0
  -20.5641  -26.2267   23.3617 H   0  0  0  0  0  0
  -21.6624  -26.7423   22.1238 H   0  0  0  0  0  0
  -19.6910  -25.6295   21.1225 H   0  0  0  0  0  0
  -19.6686  -27.3213   20.6756 H   0  0  0  0  0  0
  -17.4188  -26.6705   21.3980 H   0  0  0  0  0  0
  -18.0274  -26.0029   22.8961 H   0  0  0  0  0  0
  -19.7925  -30.7244   24.2292 H   0  0  0  0  0  0
  -17.5009  -31.6257   24.5181 H   0  0  0  0  0  0
  -15.5352  -30.3013   23.7626 H   0  0  0  0  0  0
  -15.8647  -28.0841   22.7058 H   0  0  0  0  0  0
  -24.5986  -30.6919   25.7828 H   0  0  0  0  0  0
  -24.8858  -32.2782   26.4905 H   0  0  0  0  0  0
  -25.8137  -30.8879   27.0245 H   0  0  0  0  0  0
  -26.2857  -29.6786   24.1171 H   0  0  0  0  0  0
  -27.4143  -29.7307   25.4528 H   0  0  0  0  0  0
  -27.8654  -30.4398   23.9187 H   0  0  0  0  0  0
  -27.2698  -33.3625   26.2063 H   0  0  0  0  0  0
  -28.3885  -32.6813   25.0339 H   0  0  0  0  0  0
  -28.0668  -31.8410   26.5431 H   0  0  0  0  0  0
  -28.2586  -38.0127   24.7553 H   0  0  0  0  0  0
  -28.1090  -36.2663   24.6236 H   0  0  0  0  0  0
  -27.2293  -37.1423   25.8856 H   0  0  0  0  0  0
  -20.9264  -29.8782   21.6987 H   0  0  0  0  0  0
  -26.0175  -38.2873   24.1469 H   0  0  0  0  0  0
  -28.6153  -18.1646   17.7766 H   0  0  0  0  0  0
  -29.2002  -20.2045   19.0414 H   0  0  0  0  0  0
  -29.0197  -15.9356   18.7437 H   0  0  0  0  0  0
  -30.6648  -17.7631   22.3038 H   0  0  0  0  0  0
  -32.8100  -19.7329   20.6469 H   0  0  0  0  0  0
  -33.1055  -21.0333   21.8028 H   0  0  0  0  0  0
  -33.3358  -21.3072   20.0747 H   0  0  0  0  0  0
  -30.8343  -20.1694   22.4679 H   0  0  0  0  0  0
  -29.4551  -20.9285   21.7297 H   0  0  0  0  0  0
  -29.8548  -23.0339   19.1715 H   0  0  0  0  0  0
  -28.9667  -22.8132   20.6565 H   0  0  0  0  0  0
  -30.6010  -25.2868   19.9315 H   0  0  0  0  0  0
  -29.8050  -25.0471   21.4657 H   0  0  0  0  0  0
  -31.1415  -22.9177   21.9716 H   0  0  0  0  0  0
  -31.9931  -23.2184   20.4787 H   0  0  0  0  0  0
  -27.5957  -24.8940   20.3162 H   0  0  0  0  0  0
  -28.3767  -25.2032   18.7613 H   0  0  0  0  0  0
  -29.2376  -15.0844   21.7133 H   0  0  0  0  0  0
  -31.0457  -21.0632   19.7290 H   0  0  0  0  0  0
  1 25  1  0  0  0
  1 30  2  0  0  0
  1 83  1  0  0  0
  2  3  1  0  0  0
  2 25  1  0  0  0
  2 85  1  0  0  0
  2 86  1  0  0  0
  3  4  1  0  0  0
  3 87  1  0  0  0
  3 88  1  0  0  0
  4  5  1  0  0  0
  4 89  1  0  0  0
  4 90  1  0  0  0
  5  6  1  0  0  0
  5 26  1  0  0  0
  5 91  1  0  0  0
  6 25  1  0  0  0
  6 92  1  0  0  0
  6 93  1  0  0  0
  7  8  2  0  0  0
  7 26  1  0  0  0
  7 29  1  0  0  0
  8  9  1  0  0  0
  8 22  1  0  0  0
  9 10  1  0  0  0
  9 27  2  0  0  0
 10 11  2  0  0  0
 10 15  1  0  0  0
 11 12  1  0  0  0
 11 94  1  0  0  0
 12 13  2  0  0  0
 12 95  1  0  0  0
 13 14  1  0  0  0
 13 31  1  0  0  0
 14 15  2  0  0  0
 14 96  1  0  0  0
 15 97  1  0  0  0
 16 17  2  0  0  0
 16 21  1  0  0  0
 16 31  1  0  0  0
 17 18  1  0  0  0
 17 98  1  0  0  0
 18 19  2  0  0  0
 18 99  1  0  0  0
 19 20  1  0  0  0
 19 24  1  0  0  0
 20 21  2  0  0  0
 20100  1  0  0  0
 21 23  1  0  0  0
 22 28  1  0  0  0
 22 32  2  0  0  0
 26 27  1  0  0  0
 28101  1  0  0  0
 28102  1  0  0  0
 29103  1  0  0  0
 29104  1  0  0  0
 33 34  1  0  0  0
 33 66  1  0  0  0
 33 70  2  0  0  0
 34 36  1  0  0  0
 34 59  1  0  0  0
 34105  1  0  0  0
 35 44  2  0  0  0
 35 45  1  0  0  0
 35 68  1  0  0  0
 36 56  1  0  0  0
 36106  1  0  0  0
 37 39  1  0  0  0
 37 47  1  0  0  0
 37 66  1  0  0  0
 37107  1  0  0  0
 38 43  2  0  0  0
 38 46  1  0  0  0
 38 47  1  0  0  0
 39 64  1  0  0  0
 39 67  2  0  0  0
 40 52  1  0  0  0
 40 53  2  0  0  0
 40 58  1  0  0  0
 41108  1  0  0  0
 41109  1  0  0  0
 41110  1  0  0  0
 41 48  1  0  0  0
 42 43  1  0  0  0
 42 66  1  0  0  0
 42111  1  0  0  0
 42112  1  0  0  0
 43 44  1  0  0  0
 44113  1  0  0  0
 45 46  2  0  0  0
 45114  1  0  0  0
 46115  1  0  0  0
 47116  1  0  0  0
 47117  1  0  0  0
 48 56  1  0  0  0
 48 65  1  0  0  0
 48118  1  0  0  0
 49 50  1  0  0  0
 49 53  1  0  0  0
 49 64  1  0  0  0
 49119  1  0  0  0
 50 51  1  0  0  0
 50120  1  0  0  0
 50121  1  0  0  0
 51 52  1  0  0  0
 51122  1  0  0  0
 51123  1  0  0  0
 52124  1  0  0  0
 52125  1  0  0  0
 53 54  1  0  0  0
 54 55  2  0  0  0
 54126  1  0  0  0
 55 57  1  0  0  0
 55127  1  0  0  0
 56 69  2  0  0  0
 57 58  2  0  0  0
 57128  1  0  0  0
 58129  1  0  0  0
 59 60  1  0  0  0
 59 61  1  0  0  0
 59 62  1  0  0  0
 60130  1  0  0  0
 60131  1  0  0  0
 60132  1  0  0  0
 61133  1  0  0  0
 61134  1  0  0  0
 61135  1  0  0  0
 62136  1  0  0  0
 62137  1  0  0  0
 62138  1  0  0  0
 63 65  1  0  0  0
 63139  1  0  0  0
 63140  1  0  0  0
 63141  1  0  0  0
 64142  1  0  0  0
 65143  1  0  0  0
 68 82  1  0  0  0
 71 72  2  0  0  0
 71 73  1  0  0  0
 71144  1  0  0  0
 72 75  1  0  0  0
 72145  1  0  0  0
 73 76  2  0  0  0
 73146  1  0  0  0
 74 75  2  0  0  0
 74 76  1  0  0  0
 74147  1  0  0  0
 75 78  1  0  0  0
 76 83  1  0  0  0
 77148  1  0  0  0
 77149  1  0  0  0
 77150  1  0  0  0
 77 84  1  0  0  0
 78 84  1  0  0  0
 78151  1  0  0  0
 78152  1  0  0  0
 79 80  1  0  0  0
 79 81  1  0  0  0
 79153  1  0  0  0
 79154  1  0  0  0
 80 82  1  0  0  0
 80155  1  0  0  0
 80156  1  0  0  0
 81 84  1  0  0  0
 81157  1  0  0  0
 81158  1  0  0  0
 82159  1  0  0  0
 82160  1  0  0  0
 83161  1  0  0  0
 84162  1  0  0  0
M  CHG  1  84   1
M  ISO  4   1 100  68 101  82 101  83 100
M  END
> <chiral flag>
0

> <version>
0

> <s_m_source_file>
/data/baiqing/PycharmProjects/Reinvent-master-3.2/result/LINK_invent/BTK/process_docking_weight1_custom_product_contain_oxygen_bond_distance_aromatic_linkinvent_7_9_3/rearranged_h_0024.sdf

> <i_m_source_file_index>
76

> <r_mmod_Potential_Energy-OPLS-2005>
-182.149612426758

> <r_mmod_Stretch_Energy-OPLS-2005>
32.8370094299316

> <r_mmod_Bend_Energy-OPLS-2005>
92.047233581543

> <r_mmod_Torsional_Energy-OPLS-2005>
240.252197265625

> <r_mmod_Improper_Torsional_Energy-OPLS-2005>
5.76376819610596

> <r_mmod_Van_der_Waal_Energy-OPLS-2005>
150.717590332031

> <r_mmod_Electrostatic_Energy-OPLS-2005>
-267.044006347656

> <r_mmod_Solvation_Energy-OPLS-2005>
-446.228210449219

> <b_mmod_Minimization_Converged-OPLS-2005>
0

> <r_mmod_RMS_Derivative-OPLS-2005>
1.61608195304871

$$$$
76
                    3D
 Structure written by MMmdl.
155163  0  0  1  0            999 V2000
  -30.6141  -14.6533   20.5046 C   0  0  0  0  0  0
  -30.4243  -12.4051   19.4551 C   0  0  0  0  0  0
  -29.5033  -12.5522   18.2240 C   0  0  0  0  0  0
  -28.0273  -12.3582   18.6232 C   0  0  0  0  0  0
  -27.6425  -13.2197   19.8567 C   0  0  2  0  0  0
  -28.6824  -13.0911   20.9928 C   0  0  0  0  0  0
  -25.2538  -13.8162   20.5708 C   0  0  0  0  0  0
  -24.1797  -13.0451   20.9194 C   0  0  0  0  0  0
  -24.6364  -11.6900   20.8723 C   0  0  0  0  0  0
  -23.9030  -10.4296   21.0381 C   0  0  0  0  0  0
  -24.3595   -9.4220   21.9168 C   0  0  0  0  0  0
  -23.6309   -8.2247   22.0720 C   0  0  0  0  0  0
  -22.4295   -8.0269   21.3521 C   0  0  0  0  0  0
  -21.9927   -9.0220   20.4614 C   0  0  0  0  0  0
  -22.7208  -10.2116   20.3029 C   0  0  0  0  0  0
  -21.6873   -6.0728   22.5266 C   0  0  0  0  0  0
  -21.4036   -6.5639   23.8205 C   0  0  0  0  0  0
  -21.3678   -5.6803   24.9181 C   0  0  0  0  0  0
  -21.6048   -4.3065   24.7247 C   0  0  0  0  0  0
  -21.8822   -3.8137   23.4375 C   0  0  0  0  0  0
  -21.9229   -4.6951   22.3415 C   0  0  0  0  0  0
  -22.7824  -13.5207   21.1899 C   0  0  0  0  0  0
  -22.1676   -4.2130   21.0994 F   0  0  0  0  0  0
  -21.5640   -3.4551   25.7760 F   0  0  0  0  0  0
  -30.0051  -13.4257   20.4351 N   0  0  0  0  0  0
  -26.2915  -12.9339   20.3282 N   0  0  0  0  0  0
  -25.9287  -11.6479   20.5689 N   0  0  0  0  0  0
  -22.0505  -12.8153   22.0429 N   0  0  0  0  0  0
  -25.4373  -15.1883   20.4108 N   0  0  0  0  0  0
  -31.7812  -14.8119   20.1361 O   0  0  0  0  0  0
  -21.6665   -6.8848   21.4218 O   0  0  0  0  0  0
  -22.3503  -14.5537   20.6795 O   0  0  0  0  0  0
  -24.6199  -31.8645   23.2017 C   0  0  0  0  0  0
  -25.9023  -32.4841   23.8379 C   0  0  1  0  0  0
  -27.2432  -27.3444   20.1332 C   0  0  0  0  0  0
  -25.5819  -33.8635   24.2296 N   0  0  0  0  0  0
  -23.4152  -30.4798   21.5527 C   0  0  2  0  0  0
  -24.8701  -28.9392   20.1153 C   0  0  0  0  0  0
  -22.7448  -29.4625   22.5046 C   0  0  0  0  0  0
  -18.0273  -28.1369   22.8523 C   0  0  0  0  0  0
  -24.1482  -36.7300   23.2650 C   0  0  0  0  0  0
  -25.9513  -30.8084   21.3698 C   0  0  0  0  0  0
  -26.0343  -29.4351   20.7133 C   0  0  0  0  0  0
  -27.2255  -28.6500   20.7111 C   0  0  0  0  0  0
  -26.0538  -26.8979   19.5112 C   0  0  0  0  0  0
  -24.8810  -27.6759   19.5067 C   0  0  0  0  0  0
  -23.6245  -29.8014   20.1713 C   0  0  0  0  0  0
  -25.4123  -36.3136   24.0346 C   0  0  1  0  0  0
  -20.5879  -28.3646   23.1348 C   0  0  2  0  0  0
  -20.6765  -26.9376   22.5457 C   0  0  0  0  0  0
  -19.5724  -26.6386   21.5258 C   0  0  0  0  0  0
  -18.1908  -26.7924   22.1657 C   0  0  0  0  0  0
  -19.1526  -28.8836   23.2921 C   0  0  0  0  0  0
  -18.9447  -30.1465   23.8891 C   0  0  0  0  0  0
  -17.6446  -30.6585   24.0563 C   0  0  0  0  0  0
  -25.9043  -34.9489   23.5149 C   0  0  0  0  0  0
  -16.5337  -29.9072   23.6347 C   0  0  0  0  0  0
  -16.7268  -28.6495   23.0357 C   0  0  0  0  0  0
  -26.4383  -31.6619   25.0725 C   0  0  0  0  0  0
  -25.3598  -31.3712   26.1428 C   0  0  0  0  0  0
  -27.0218  -30.3073   24.6134 C   0  0  0  0  0  0
  -27.5989  -32.4322   25.7473 C   0  0  0  0  0  0
  -27.5604  -37.1803   24.8467 C   0  0  0  0  0  0
  -21.4179  -29.2992   22.3748 N   0  0  0  0  0  0
  -26.4300  -37.3829   23.9418 N   0  0  0  0  0  0
  -24.6809  -31.0650   22.0983 N   0  0  0  0  0  0
  -23.4169  -28.8220   23.3153 O   0  0  0  0  0  0
  -28.3735  -26.5136   20.2020 O   0  0  0  0  0  0
  -26.5672  -34.8955   22.4756 O   0  0  0  0  0  0
  -23.5373  -32.1425   23.7360 O   0  0  0  0  0  0
  -28.7069  -17.9452   20.6341 C   0  0  0  0  0  0
  -28.7279  -19.3656   20.4939 C   0  0  0  0  0  0
  -31.1115  -17.8837   20.6166 C   0  0  0  0  0  0
  -29.8948  -17.1565   20.6812 C   0  0  0  0  0  0
  -29.9433  -20.0904   20.3880 C   0  0  0  0  0  0
  -31.1358  -19.3028   20.4687 C   0  0  0  0  0  0
  -30.6273  -21.7775   18.8312 C   0  0  0  0  0  0
  -29.3214  -24.0359   20.4808 C   0  0  0  0  0  0
  -28.9219  -22.4856   20.4889 C   0  0  0  0  0  0
  -28.1462  -25.0540   20.1731 C   0  0  0  0  0  0
  -29.7887  -15.6998   20.8330 N   0  0  0  0  0  0
  -29.9984  -21.5119   20.1287 N   0  0  0  0  0  0
  -32.3458  -19.9117   20.3923 F   0  0  0  0  0  0
  -31.4661  -12.5197   19.1585 H   0  0  0  0  0  0
  -30.3329  -11.4099   19.8881 H   0  0  0  0  0  0
  -29.7796  -11.8474   17.4351 H   0  0  0  0  0  0
  -29.6315  -13.5476   17.7941 H   0  0  0  0  0  0
  -27.8739  -11.2993   18.8373 H   0  0  0  0  0  0
  -27.3769  -12.5970   17.7804 H   0  0  0  0  0  0
  -27.6524  -14.2535   19.5159 H   0  0  0  0  0  0
  -28.6891  -12.0771   21.3952 H   0  0  0  0  0  0
  -28.4054  -13.7426   21.8254 H   0  0  0  0  0  0
  -25.2722   -9.5751   22.4731 H   0  0  0  0  0  0
  -24.0057   -7.4653   22.7421 H   0  0  0  0  0  0
  -21.0872   -8.8682   19.8904 H   0  0  0  0  0  0
  -22.3617  -10.9650   19.6129 H   0  0  0  0  0  0
  -21.1989   -7.6153   23.9681 H   0  0  0  0  0  0
  -21.1514   -6.0552   25.9070 H   0  0  0  0  0  0
  -22.0593   -2.7599   23.2884 H   0  0  0  0  0  0
  -22.4195  -11.9796   22.4748 H   0  0  0  0  0  0
  -21.1105  -13.1052   22.2635 H   0  0  0  0  0  0
  -24.6808  -15.8586   20.4721 H   0  0  0  0  0  0
  -26.2977  -15.5995   20.0724 H   0  0  0  0  0  0
  -26.7110  -32.5540   23.1167 H   0  0  0  0  0  0
  -24.9771  -33.9780   25.0306 H   0  0  0  0  0  0
  -22.7096  -31.3004   21.4085 H   0  0  0  0  0  0
  -23.3782  -35.9584   23.3293 H   0  0  0  0  0  0
  -24.3561  -36.8935   22.2059 H   0  0  0  0  0  0
  -23.7164  -37.6476   23.6677 H   0  0  0  0  0  0
  -26.0725  -31.5744   20.6029 H   0  0  0  0  0  0
  -26.8306  -30.8647   21.9969 H   0  0  0  0  0  0
  -28.1173  -29.0280   21.1920 H   0  0  0  0  0  0
  -25.9969  -25.9289   19.0387 H   0  0  0  0  0  0
  -23.9836  -27.2867   19.0452 H   0  0  0  0  0  0
  -23.7053  -30.5668   19.3990 H   0  0  0  0  0  0
  -22.7554  -29.2015   19.8976 H   0  0  0  0  0  0
  -25.1314  -36.2017   25.0842 H   0  0  0  0  0  0
  -20.9951  -28.3191   24.1470 H   0  0  0  0  0  0
  -20.5694  -26.2235   23.3628 H   0  0  0  0  0  0
  -21.6621  -26.7435   22.1222 H   0  0  0  0  0  0
  -19.6869  -25.6306   21.1243 H   0  0  0  0  0  0
  -19.6663  -27.3244   20.6813 H   0  0  0  0  0  0
  -17.4195  -26.6715   21.4037 H   0  0  0  0  0  0
  -18.0267  -26.0058   22.9033 H   0  0  0  0  0  0
  -19.7919  -30.7315   24.2215 H   0  0  0  0  0  0
  -17.4981  -31.6259   24.5151 H   0  0  0  0  0  0
  -15.5331  -30.2947   23.7676 H   0  0  0  0  0  0
  -15.8675  -28.0812   22.7042 H   0  0  0  0  0  0
  -24.5794  -30.7069   25.7686 H   0  0  0  0  0  0
  -24.8725  -32.2835   26.4883 H   0  0  0  0  0  0
  -25.7859  -30.8835   27.0193 H   0  0  0  0  0  0
  -26.2773  -29.6878   24.1115 H   0  0  0  0  0  0
  -27.3879  -29.7301   25.4626 H   0  0  0  0  0  0
  -27.8658  -30.4409   23.9368 H   0  0  0  0  0  0
  -27.2650  -33.3625   26.2086 H   0  0  0  0  0  0
  -28.3735  -32.6861   25.0223 H   0  0  0  0  0  0
  -28.0699  -31.8392   26.5323 H   0  0  0  0  0  0
  -28.2631  -38.0104   24.7601 H   0  0  0  0  0  0
  -28.1095  -36.2649   24.6211 H   0  0  0  0  0  0
  -27.2314  -37.1355   25.8864 H   0  0  0  0  0  0
  -20.9362  -29.8600   21.6851 H   0  0  0  0  0  0
  -26.0210  -38.2916   24.1414 H   0  0  0  0  0  0
  -27.7365  -17.4653   20.6830 H   0  0  0  0  0  0
  -27.7836  -19.8880   20.4303 H   0  0  0  0  0  0
  -32.0567  -17.3663   20.6755 H   0  0  0  0  0  0
  -31.5669  -22.3207   18.9593 H   0  0  0  0  0  0
  -29.9708  -22.3899   18.2088 H   0  0  0  0  0  0
  -30.8348  -20.8726   18.2571 H   0  0  0  0  0  0
  -30.1073  -24.2196   19.7482 H   0  0  0  0  0  0
  -29.7856  -24.2779   21.4409 H   0  0  0  0  0  0
  -28.1002  -22.3461   19.7854 H   0  0  0  0  0  0
  -28.5117  -22.2241   21.4688 H   0  0  0  0  0  0
  -27.3195  -24.8268   20.8513 H   0  0  0  0  0  0
  -27.8007  -24.7981   19.1718 H   0  0  0  0  0  0
  -28.8666  -15.3751   21.0809 H   0  0  0  0  0  0
  1 25  1  0  0  0
  1 30  2  0  0  0
  1 81  1  0  0  0
  2  3  1  0  0  0
  2 25  1  0  0  0
  2 84  1  0  0  0
  2 85  1  0  0  0
  3  4  1  0  0  0
  3 86  1  0  0  0
  3 87  1  0  0  0
  4  5  1  0  0  0
  4 88  1  0  0  0
  4 89  1  0  0  0
  5  6  1  0  0  0
  5 26  1  0  0  0
  5 90  1  0  0  0
  6 25  1  0  0  0
  6 91  1  0  0  0
  6 92  1  0  0  0
  7  8  2  0  0  0
  7 26  1  0  0  0
  7 29  1  0  0  0
  8  9  1  0  0  0
  8 22  1  0  0  0
  9 10  1  0  0  0
  9 27  2  0  0  0
 10 11  2  0  0  0
 10 15  1  0  0  0
 11 12  1  0  0  0
 11 93  1  0  0  0
 12 13  2  0  0  0
 12 94  1  0  0  0
 13 14  1  0  0  0
 13 31  1  0  0  0
 14 15  2  0  0  0
 14 95  1  0  0  0
 15 96  1  0  0  0
 16 17  2  0  0  0
 16 21  1  0  0  0
 16 31  1  0  0  0
 17 18  1  0  0  0
 17 97  1  0  0  0
 18 19  2  0  0  0
 18 98  1  0  0  0
 19 20  1  0  0  0
 19 24  1  0  0  0
 20 21  2  0  0  0
 20 99  1  0  0  0
 21 23  1  0  0  0
 22 28  1  0  0  0
 22 32  2  0  0  0
 26 27  1  0  0  0
 28100  1  0  0  0
 28101  1  0  0  0
 29102  1  0  0  0
 29103  1  0  0  0
 33 34  1  0  0  0
 33 66  1  0  0  0
 33 70  2  0  0  0
 34 36  1  0  0  0
 34 59  1  0  0  0
 34104  1  0  0  0
 35 44  2  0  0  0
 35 45  1  0  0  0
 35 68  1  0  0  0
 36 56  1  0  0  0
 36105  1  0  0  0
 37 39  1  0  0  0
 37 47  1  0  0  0
 37 66  1  0  0  0
 37106  1  0  0  0
 38 43  2  0  0  0
 38 46  1  0  0  0
 38 47  1  0  0  0
 39 64  1  0  0  0
 39 67  2  0  0  0
 40 52  1  0  0  0
 40 53  2  0  0  0
 40 58  1  0  0  0
 41107  1  0  0  0
 41108  1  0  0  0
 41109  1  0  0  0
 41 48  1  0  0  0
 42 43  1  0  0  0
 42 66  1  0  0  0
 42110  1  0  0  0
 42111  1  0  0  0
 43 44  1  0  0  0
 44112  1  0  0  0
 45 46  2  0  0  0
 45113  1  0  0  0
 46114  1  0  0  0
 47115  1  0  0  0
 47116  1  0  0  0
 48 56  1  0  0  0
 48 65  1  0  0  0
 48117  1  0  0  0
 49 50  1  0  0  0
 49 53  1  0  0  0
 49 64  1  0  0  0
 49118  1  0  0  0
 50 51  1  0  0  0
 50119  1  0  0  0
 50120  1  0  0  0
 51 52  1  0  0  0
 51121  1  0  0  0
 51122  1  0  0  0
 52123  1  0  0  0
 52124  1  0  0  0
 53 54  1  0  0  0
 54 55  2  0  0  0
 54125  1  0  0  0
 55 57  1  0  0  0
 55126  1  0  0  0
 56 69  2  0  0  0
 57 58  2  0  0  0
 57127  1  0  0  0
 58128  1  0  0  0
 59 60  1  0  0  0
 59 61  1  0  0  0
 59 62  1  0  0  0
 60129  1  0  0  0
 60130  1  0  0  0
 60131  1  0  0  0
 61132  1  0  0  0
 61133  1  0  0  0
 61134  1  0  0  0
 62135  1  0  0  0
 62136  1  0  0  0
 62137  1  0  0  0
 63 65  1  0  0  0
 63138  1  0  0  0
 63139  1  0  0  0
 63140  1  0  0  0
 64141  1  0  0  0
 65142  1  0  0  0
 68 80  1  0  0  0
 71 72  2  0  0  0
 71 74  1  0  0  0
 71143  1  0  0  0
 72 75  1  0  0  0
 72144  1  0  0  0
 73 74  2  0  0  0
 73 76  1  0  0  0
 73145  1  0  0  0
 74 81  1  0  0  0
 75 76  2  0  0  0
 75 82  1  0  0  0
 76 83  1  0  0  0
 77 82  1  0  0  0
 77146  1  0  0  0
 77147  1  0  0  0
 77148  1  0  0  0
 78 79  1  0  0  0
 78 80  1  0  0  0
 78149  1  0  0  0
 78150  1  0  0  0
 79 82  1  0  0  0
 79151  1  0  0  0
 79152  1  0  0  0
 80153  1  0  0  0
 80154  1  0  0  0
 81155  1  0  0  0
M  ISO  4   1 100  68 101  80 101  81 100
M  END
> <chiral flag>
0

> <version>
0

> <s_m_source_file>
/data/baiqing/PycharmProjects/Reinvent-master-3.2/result/LINK_invent/BTK/process_docking_weight1_custom_product_contain_oxygen_bond_distance_aromatic_linkinvent_7_9_3/rearranged_h_0024.sdf

> <i_m_source_file_index>
77

> <r_mmod_Potential_Energy-OPLS-2005>
110.158790588379

> <r_mmod_Stretch_Energy-OPLS-2005>
79.1269607543945

> <r_mmod_Bend_Energy-OPLS-2005>
138.864608764648

> <r_mmod_Torsional_Energy-OPLS-2005>
226.121536254883

> <r_mmod_Improper_Torsional_Energy-OPLS-2005>
8.08203792572021

> <r_mmod_Van_der_Waal_Energy-OPLS-2005>
151.491958618164

> <r_mmod_Electrostatic_Energy-OPLS-2005>
-315.649169921875

> <r_mmod_Solvation_Energy-OPLS-2005>
-225.186111450195

> <b_mmod_Minimization_Converged-OPLS-2005>
0

> <r_mmod_RMS_Derivative-OPLS-2005>
6.46886205673218

$$$$
77
                    3D
 Structure written by MMmdl.
155164  0  0  1  0            999 V2000
  -30.6620  -14.5909   20.4568 C   0  0  0  0  0  0
  -30.4272  -12.3494   19.4252 C   0  0  0  0  0  0
  -29.4893  -12.4505   18.2029 C   0  0  0  0  0  0
  -28.0113  -12.3075   18.6297 C   0  0  0  0  0  0
  -27.6341  -13.1859   19.8533 C   0  0  2  0  0  0
  -28.6999  -13.0886   20.9674 C   0  0  0  0  0  0
  -25.2536  -13.8073   20.5745 C   0  0  0  0  0  0
  -24.1756  -13.0397   20.9224 C   0  0  0  0  0  0
  -24.6282  -11.6849   20.8816 C   0  0  0  0  0  0
  -23.8957  -10.4256   21.0476 C   0  0  0  0  0  0
  -24.3528   -9.4167   21.9228 C   0  0  0  0  0  0
  -23.6228   -8.2192   22.0785 C   0  0  0  0  0  0
  -22.4222   -8.0233   21.3545 C   0  0  0  0  0  0
  -21.9840   -9.0211   20.4653 C   0  0  0  0  0  0
  -22.7161  -10.2094   20.3097 C   0  0  0  0  0  0
  -21.6819   -6.0695   22.5275 C   0  0  0  0  0  0
  -21.3986   -6.5604   23.8208 C   0  0  0  0  0  0
  -21.3664   -5.6764   24.9177 C   0  0  0  0  0  0
  -21.6064   -4.3029   24.7231 C   0  0  0  0  0  0
  -21.8810   -3.8113   23.4350 C   0  0  0  0  0  0
  -21.9179   -4.6928   22.3405 C   0  0  0  0  0  0
  -22.7794  -13.5255   21.1833 C   0  0  0  0  0  0
  -22.1650   -4.2115   21.0987 F   0  0  0  0  0  0
  -21.5650   -3.4522   25.7749 F   0  0  0  0  0  0
  -30.0059  -13.3954   20.3667 N   0  0  0  0  0  0
  -26.2891  -12.9146   20.3383 N   0  0  0  0  0  0
  -25.9196  -11.6350   20.5845 N   0  0  0  0  0  0
  -22.0369  -12.8315   22.0378 N   0  0  0  0  0  0
  -25.4363  -15.1795   20.4139 N   0  0  0  0  0  0
  -31.8840  -14.6739   20.2939 O   0  0  0  0  0  0
  -21.6604   -6.8818   21.4227 O   0  0  0  0  0  0
  -22.3531  -14.5563   20.6646 O   0  0  0  0  0  0
  -24.6186  -31.8640   23.2070 C   0  0  0  0  0  0
  -25.9059  -32.4805   23.8385 C   0  0  1  0  0  0
  -27.2392  -27.3940   20.1208 C   0  0  0  0  0  0
  -25.5904  -33.8608   24.2301 N   0  0  0  0  0  0
  -23.4101  -30.4849   21.5474 C   0  0  2  0  0  0
  -24.8618  -28.9411   20.1204 C   0  0  0  0  0  0
  -22.7433  -29.4626   22.4965 C   0  0  0  0  0  0
  -18.0286  -28.1385   22.8474 C   0  0  0  0  0  0
  -24.1480  -36.7290   23.2643 C   0  0  0  0  0  0
  -25.9439  -30.8181   21.3651 C   0  0  0  0  0  0
  -26.0243  -29.4493   20.7134 C   0  0  0  0  0  0
  -27.2194  -28.6873   20.7024 C   0  0  0  0  0  0
  -26.0618  -26.9052   19.5195 C   0  0  0  0  0  0
  -24.8772  -27.6692   19.5176 C   0  0  0  0  0  0
  -23.6250  -29.8123   20.1656 C   0  0  0  0  0  0
  -25.4105  -36.3099   24.0341 C   0  0  1  0  0  0
  -20.5880  -28.3666   23.1283 C   0  0  2  0  0  0
  -20.6758  -26.9413   22.5342 C   0  0  0  0  0  0
  -19.5743  -26.6421   21.5141 C   0  0  0  0  0  0
  -18.1926  -26.7962   22.1549 C   0  0  0  0  0  0
  -19.1538  -28.8835   23.2881 C   0  0  0  0  0  0
  -18.9471  -30.1438   23.8891 C   0  0  0  0  0  0
  -17.6473  -30.6597   24.0529 C   0  0  0  0  0  0
  -25.9036  -34.9474   23.5106 C   0  0  0  0  0  0
  -16.5360  -29.9090   23.6331 C   0  0  0  0  0  0
  -16.7280  -28.6495   23.0367 C   0  0  0  0  0  0
  -26.4478  -31.6600   25.0728 C   0  0  0  0  0  0
  -25.3731  -31.3711   26.1457 C   0  0  0  0  0  0
  -27.0324  -30.3053   24.6107 C   0  0  0  0  0  0
  -27.6040  -32.4337   25.7492 C   0  0  0  0  0  0
  -27.5575  -37.1807   24.8478 C   0  0  0  0  0  0
  -21.4157  -29.3065   22.3742 N   0  0  0  0  0  0
  -26.4291  -37.3791   23.9422 N   0  0  0  0  0  0
  -24.6764  -31.0708   22.0992 N   0  0  0  0  0  0
  -23.4188  -28.8136   23.2991 O   0  0  0  0  0  0
  -28.3856  -26.6144   20.1225 O   0  0  0  0  0  0
  -26.5589  -34.8939   22.4662 O   0  0  0  0  0  0
  -23.5355  -32.1399   23.7432 O   0  0  0  0  0  0
  -30.4569  -18.5701   22.6103 C   0  0  0  0  0  0
  -29.9416  -19.6606   21.8743 C   0  0  0  0  0  0
  -30.4785  -17.2599   22.0740 C   0  0  0  0  0  0
  -29.4559  -18.1299   20.0545 C   0  0  0  0  0  0
  -29.4327  -19.4522   20.5771 C   0  0  0  0  0  0
  -29.9728  -17.0146   20.7777 C   0  0  0  0  0  0
  -27.8083  -22.7620   20.6935 C   0  0  0  0  0  0
  -29.5816  -23.1895   19.7332 C   0  0  0  0  0  0
  -28.3267  -24.0495   19.9885 C   0  0  2  0  0  0
  -28.8311  -20.5739   19.7028 C   0  0  0  0  0  0
  -28.3188  -25.3512   20.8458 C   0  0  0  0  0  0
  -28.8134  -21.9901   20.1408 N   0  0  0  0  0  0
  -29.8895  -15.6934   20.1956 N   0  0  0  0  0  0
  -26.8431  -22.4425   21.3542 O   0  0  0  0  0  0
  -29.1751  -15.6582   19.0141 F   0  0  0  0  0  0
  -31.4678  -12.4681   19.1164 H   0  0  0  0  0  0
  -30.3515  -11.3675   19.8950 H   0  0  0  0  0  0
  -29.7404  -11.6795   17.4713 H   0  0  0  0  0  0
  -29.6359  -13.4041   17.6944 H   0  0  0  0  0  0
  -27.8441  -11.2575   18.8684 H   0  0  0  0  0  0
  -27.3547  -12.5353   17.7899 H   0  0  0  0  0  0
  -27.5918  -14.2031   19.4932 H   0  0  0  0  0  0
  -28.7101  -12.0856   21.3944 H   0  0  0  0  0  0
  -28.4711  -13.7718   21.7866 H   0  0  0  0  0  0
  -25.2662   -9.5648   22.4806 H   0  0  0  0  0  0
  -23.9932   -7.4583   22.7516 H   0  0  0  0  0  0
  -21.0769   -8.8722   19.8955 H   0  0  0  0  0  0
  -22.3628  -10.9638   19.6211 H   0  0  0  0  0  0
  -21.1951   -7.6109   23.9698 H   0  0  0  0  0  0
  -21.1522   -6.0503   25.9081 H   0  0  0  0  0  0
  -22.0590   -2.7579   23.2870 H   0  0  0  0  0  0
  -22.3909  -11.9978   22.4820 H   0  0  0  0  0  0
  -21.1010  -13.1448   22.2530 H   0  0  0  0  0  0
  -24.6866  -15.8528   20.5323 H   0  0  0  0  0  0
  -26.3042  -15.6025   20.1067 H   0  0  0  0  0  0
  -26.7131  -32.5502   23.1153 H   0  0  0  0  0  0
  -25.0129  -33.9777   25.0491 H   0  0  0  0  0  0
  -22.7003  -31.3007   21.4040 H   0  0  0  0  0  0
  -23.3752  -35.9609   23.3322 H   0  0  0  0  0  0
  -24.3557  -36.8893   22.2051 H   0  0  0  0  0  0
  -23.7232  -37.6506   23.6642 H   0  0  0  0  0  0
  -26.0550  -31.5803   20.5927 H   0  0  0  0  0  0
  -26.8301  -30.8737   21.9872 H   0  0  0  0  0  0
  -28.1183  -29.0781   21.1602 H   0  0  0  0  0  0
  -26.0577  -25.9278   19.0565 H   0  0  0  0  0  0
  -23.9836  -27.2691   19.0608 H   0  0  0  0  0  0
  -23.7375  -30.5850   19.4040 H   0  0  0  0  0  0
  -22.7507  -29.2336   19.8665 H   0  0  0  0  0  0
  -25.1295  -36.1951   25.0840 H   0  0  0  0  0  0
  -20.9984  -28.3170   24.1376 H   0  0  0  0  0  0
  -20.5575  -26.2247   23.3482 H   0  0  0  0  0  0
  -21.6655  -26.7426   22.1172 H   0  0  0  0  0  0
  -19.6960  -25.6357   21.1152 H   0  0  0  0  0  0
  -19.6726  -27.3250   20.6703 H   0  0  0  0  0  0
  -17.4188  -26.6745   21.3959 H   0  0  0  0  0  0
  -18.0298  -26.0116   22.8937 H   0  0  0  0  0  0
  -19.7951  -30.7256   24.2252 H   0  0  0  0  0  0
  -17.5055  -31.6289   24.5105 H   0  0  0  0  0  0
  -15.5364  -30.2993   23.7662 H   0  0  0  0  0  0
  -15.8674  -28.0803   22.7148 H   0  0  0  0  0  0
  -24.5883  -30.7096   25.7779 H   0  0  0  0  0  0
  -24.8930  -32.2875   26.4919 H   0  0  0  0  0  0
  -25.8046  -30.8855   27.0215 H   0  0  0  0  0  0
  -26.2884  -29.6807   24.1152 H   0  0  0  0  0  0
  -27.4125  -29.7309   25.4568 H   0  0  0  0  0  0
  -27.8699  -30.4416   23.9246 H   0  0  0  0  0  0
  -27.2652  -33.3633   26.2081 H   0  0  0  0  0  0
  -28.3826  -32.6913   25.0297 H   0  0  0  0  0  0
  -28.0717  -31.8453   26.5398 H   0  0  0  0  0  0
  -28.2626  -38.0079   24.7520 H   0  0  0  0  0  0
  -28.1046  -36.2623   24.6314 H   0  0  0  0  0  0
  -27.2290  -37.1475   25.8882 H   0  0  0  0  0  0
  -20.9332  -29.8884   21.7056 H   0  0  0  0  0  0
  -26.0170  -38.2872   24.1414 H   0  0  0  0  0  0
  -30.8322  -18.7386   23.6103 H   0  0  0  0  0  0
  -29.9318  -20.6499   22.3144 H   0  0  0  0  0  0
  -30.8699  -16.4508   22.6761 H   0  0  0  0  0  0
  -29.0562  -17.9777   19.0640 H   0  0  0  0  0  0
  -30.4190  -23.4192   20.3949 H   0  0  0  0  0  0
  -29.9038  -23.1873   18.6907 H   0  0  0  0  0  0
  -27.7905  -24.2007   19.0525 H   0  0  0  0  0  0
  -27.8031  -20.2857   19.4729 H   0  0  0  0  0  0
  -29.3498  -20.5420   18.7433 H   0  0  0  0  0  0
  -29.1755  -25.3398   21.5205 H   0  0  0  0  0  0
  -27.4468  -25.3535   21.5012 H   0  0  0  0  0  0
  1 25  1  0  0  0
  1 30  2  0  0  0
  1 83  1  0  0  0
  2  3  1  0  0  0
  2 25  1  0  0  0
  2 86  1  0  0  0
  2 87  1  0  0  0
  3  4  1  0  0  0
  3 88  1  0  0  0
  3 89  1  0  0  0
  4  5  1  0  0  0
  4 90  1  0  0  0
  4 91  1  0  0  0
  5  6  1  0  0  0
  5 26  1  0  0  0
  5 92  1  0  0  0
  6 25  1  0  0  0
  6 93  1  0  0  0
  6 94  1  0  0  0
  7  8  2  0  0  0
  7 26  1  0  0  0
  7 29  1  0  0  0
  8  9  1  0  0  0
  8 22  1  0  0  0
  9 10  1  0  0  0
  9 27  2  0  0  0
 10 11  2  0  0  0
 10 15  1  0  0  0
 11 12  1  0  0  0
 11 95  1  0  0  0
 12 13  2  0  0  0
 12 96  1  0  0  0
 13 14  1  0  0  0
 13 31  1  0  0  0
 14 15  2  0  0  0
 14 97  1  0  0  0
 15 98  1  0  0  0
 16 17  2  0  0  0
 16 21  1  0  0  0
 16 31  1  0  0  0
 17 18  1  0  0  0
 17 99  1  0  0  0
 18 19  2  0  0  0
 18100  1  0  0  0
 19 20  1  0  0  0
 19 24  1  0  0  0
 20 21  2  0  0  0
 20101  1  0  0  0
 21 23  1  0  0  0
 22 28  1  0  0  0
 22 32  2  0  0  0
 26 27  1  0  0  0
 28102  1  0  0  0
 28103  1  0  0  0
 29104  1  0  0  0
 29105  1  0  0  0
 33 34  1  0  0  0
 33 66  1  0  0  0
 33 70  2  0  0  0
 34 36  1  0  0  0
 34 59  1  0  0  0
 34106  1  0  0  0
 35 44  2  0  0  0
 35 45  1  0  0  0
 35 68  1  0  0  0
 36 56  1  0  0  0
 36107  1  0  0  0
 37 39  1  0  0  0
 37 47  1  0  0  0
 37 66  1  0  0  0
 37108  1  0  0  0
 38 43  2  0  0  0
 38 46  1  0  0  0
 38 47  1  0  0  0
 39 64  1  0  0  0
 39 67  2  0  0  0
 40 52  1  0  0  0
 40 53  2  0  0  0
 40 58  1  0  0  0
 41109  1  0  0  0
 41110  1  0  0  0
 41111  1  0  0  0
 41 48  1  0  0  0
 42 43  1  0  0  0
 42 66  1  0  0  0
 42112  1  0  0  0
 42113  1  0  0  0
 43 44  1  0  0  0
 44114  1  0  0  0
 45 46  2  0  0  0
 45115  1  0  0  0
 46116  1  0  0  0
 47117  1  0  0  0
 47118  1  0  0  0
 48 56  1  0  0  0
 48 65  1  0  0  0
 48119  1  0  0  0
 49 50  1  0  0  0
 49 53  1  0  0  0
 49 64  1  0  0  0
 49120  1  0  0  0
 50 51  1  0  0  0
 50121  1  0  0  0
 50122  1  0  0  0
 51 52  1  0  0  0
 51123  1  0  0  0
 51124  1  0  0  0
 52125  1  0  0  0
 52126  1  0  0  0
 53 54  1  0  0  0
 54 55  2  0  0  0
 54127  1  0  0  0
 55 57  1  0  0  0
 55128  1  0  0  0
 56 69  2  0  0  0
 57 58  2  0  0  0
 57129  1  0  0  0
 58130  1  0  0  0
 59 60  1  0  0  0
 59 61  1  0  0  0
 59 62  1  0  0  0
 60131  1  0  0  0
 60132  1  0  0  0
 60133  1  0  0  0
 61134  1  0  0  0
 61135  1  0  0  0
 61136  1  0  0  0
 62137  1  0  0  0
 62138  1  0  0  0
 62139  1  0  0  0
 63 65  1  0  0  0
 63140  1  0  0  0
 63141  1  0  0  0
 63142  1  0  0  0
 64143  1  0  0  0
 65144  1  0  0  0
 68 81  1  0  0  0
 71 72  2  0  0  0
 71 73  1  0  0  0
 71145  1  0  0  0
 72 75  1  0  0  0
 72146  1  0  0  0
 73 76  2  0  0  0
 73147  1  0  0  0
 74 75  2  0  0  0
 74 76  1  0  0  0
 74148  1  0  0  0
 75 80  1  0  0  0
 76 83  1  0  0  0
 77 79  1  0  0  0
 77 82  1  0  0  0
 77 84  2  0  0  0
 78 79  1  0  0  0
 78 82  1  0  0  0
 78149  1  0  0  0
 78150  1  0  0  0
 79 81  1  0  0  0
 79151  1  0  0  0
 80 82  1  0  0  0
 80152  1  0  0  0
 80153  1  0  0  0
 81154  1  0  0  0
 81155  1  0  0  0
 83 85  1  0  0  0
M  ISO  4   1 100  68 101  81 101  83 100
M  END
> <chiral flag>
0

> <version>
0

> <s_m_source_file>
/data/baiqing/PycharmProjects/Reinvent-master-3.2/result/LINK_invent/BTK/process_docking_weight1_custom_product_contain_oxygen_bond_distance_aromatic_linkinvent_7_9_3/rearranged_h_0024.sdf

> <i_m_source_file_index>
78

> <r_mmod_Potential_Energy-OPLS-2005>
208.334671020508

> <r_mmod_Stretch_Energy-OPLS-2005>
49.9598388671875

> <r_mmod_Bend_Energy-OPLS-2005>
119.581382751465

> <r_mmod_Torsional_Energy-OPLS-2005>
306.194274902344

> <r_mmod_Improper_Torsional_Energy-OPLS-2005>
19.525297164917

> <r_mmod_Van_der_Waal_Energy-OPLS-2005>
141.841445922852

> <r_mmod_Electrostatic_Energy-OPLS-2005>
-254.21240234375

> <r_mmod_Solvation_Energy-OPLS-2005>
-213.533447265625

> <b_mmod_Minimization_Converged-OPLS-2005>
0

> <r_mmod_RMS_Derivative-OPLS-2005>
3.89725232124329

$$$$
78
                    3D
 Structure written by MMmdl.
169178  0  0  1  0            999 V2000
  -30.6241  -14.8628   20.3649 C   0  0  0  0  0  0
  -30.4335  -12.5178   19.4993 C   0  0  0  0  0  0
  -29.5156  -12.5156   18.2580 C   0  0  0  0  0  0
  -28.0489  -12.3212   18.6781 C   0  0  0  0  0  0
  -27.6399  -13.2519   19.8520 C   0  0  2  0  0  0
  -28.6940  -13.2692   20.9837 C   0  0  0  0  0  0
  -25.2491  -13.8238   20.5751 C   0  0  0  0  0  0
  -24.1789  -13.0457   20.9228 C   0  0  0  0  0  0
  -24.6418  -11.6953   20.8771 C   0  0  0  0  0  0
  -23.9113  -10.4311   21.0416 C   0  0  0  0  0  0
  -24.3632   -9.4219   21.9206 C   0  0  0  0  0  0
  -23.6293   -8.2245   22.0764 C   0  0  0  0  0  0
  -22.4279   -8.0279   21.3537 C   0  0  0  0  0  0
  -21.9937   -9.0276   20.4644 C   0  0  0  0  0  0
  -22.7284  -10.2152   20.3075 C   0  0  0  0  0  0
  -21.6866   -6.0740   22.5274 C   0  0  0  0  0  0
  -21.4016   -6.5648   23.8210 C   0  0  0  0  0  0
  -21.3659   -5.6796   24.9179 C   0  0  0  0  0  0
  -21.6033   -4.3055   24.7226 C   0  0  0  0  0  0
  -21.8822   -3.8147   23.4349 C   0  0  0  0  0  0
  -21.9186   -4.6961   22.3403 C   0  0  0  0  0  0
  -22.7809  -13.5218   21.1873 C   0  0  0  0  0  0
  -22.1658   -4.2150   21.0979 F   0  0  0  0  0  0
  -21.5634   -3.4543   25.7746 F   0  0  0  0  0  0
  -29.9879  -13.6270   20.3837 N   0  0  0  0  0  0
  -26.2965  -12.9497   20.3386 N   0  0  0  0  0  0
  -25.9369  -11.6617   20.5820 N   0  0  0  0  0  0
  -22.0452  -12.8194   22.0416 N   0  0  0  0  0  0
  -25.4202  -15.1958   20.4198 N   0  0  0  0  0  0
  -31.8161  -14.8941   20.0480 O   0  0  0  0  0  0
  -21.6633   -6.8881   21.4240 O   0  0  0  0  0  0
  -22.3503  -14.5540   20.6758 O   0  0  0  0  0  0
  -24.6351  -31.8456   23.2008 C   0  0  0  0  0  0
  -25.9163  -32.4699   23.8328 C   0  0  1  0  0  0
  -27.2151  -27.1973   20.1382 C   0  0  0  0  0  0
  -25.5950  -33.8512   24.2225 N   0  0  0  0  0  0
  -23.4332  -30.4692   21.5428 C   0  0  2  0  0  0
  -24.8908  -28.9176   20.1049 C   0  0  0  0  0  0
  -22.7536  -29.4496   22.4911 C   0  0  0  0  0  0
  -18.0271  -28.1375   22.8458 C   0  0  0  0  0  0
  -24.1514  -36.7236   23.2644 C   0  0  0  0  0  0
  -25.9878  -30.7401   21.3921 C   0  0  0  0  0  0
  -26.0606  -29.3552   20.7379 C   0  0  0  0  0  0
  -27.2217  -28.5025   20.7561 C   0  0  0  0  0  0
  -26.0536  -26.8960   19.3917 C   0  0  0  0  0  0
  -24.8960  -27.6964   19.4194 C   0  0  0  0  0  0
  -23.6566  -29.8055   20.1598 C   0  0  0  0  0  0
  -25.4136  -36.2991   24.0316 C   0  0  1  0  0  0
  -20.5880  -28.3662   23.1295 C   0  0  2  0  0  0
  -20.6753  -26.9391   22.5422 C   0  0  0  0  0  0
  -19.5751  -26.6358   21.5208 C   0  0  0  0  0  0
  -18.1894  -26.7907   22.1591 C   0  0  0  0  0  0
  -19.1543  -28.8827   23.2846 C   0  0  0  0  0  0
  -18.9490  -30.1431   23.8848 C   0  0  0  0  0  0
  -17.6506  -30.6579   24.0517 C   0  0  0  0  0  0
  -25.9094  -34.9376   23.5076 C   0  0  0  0  0  0
  -16.5371  -29.9073   23.6386 C   0  0  0  0  0  0
  -16.7274  -28.6501   23.0384 C   0  0  0  0  0  0
  -26.4543  -31.6561   25.0745 C   0  0  0  0  0  0
  -25.3752  -31.3824   26.1504 C   0  0  0  0  0  0
  -27.0370  -30.2937   24.6310 C   0  0  0  0  0  0
  -27.6148  -32.4290   25.7441 C   0  0  0  0  0  0
  -27.5549  -37.1749   24.8501 C   0  0  0  0  0  0
  -21.4221  -29.2993   22.3698 N   0  0  0  0  0  0
  -26.4269  -37.3704   23.9431 N   0  0  0  0  0  0
  -24.7032  -31.0421   22.0977 N   0  0  0  0  0  0
  -23.4217  -28.7988   23.2969 O   0  0  0  0  0  0
  -28.2588  -26.2157   20.2455 O   0  0  0  0  0  0
  -26.5657  -34.8829   22.4635 O   0  0  0  0  0  0
  -23.5516  -32.1267   23.7333 O   0  0  0  0  0  0
  -30.4014  -20.0029   18.5965 C   0  0  0  0  0  0
  -29.7788  -18.7390   20.5781 C   0  0  0  0  0  0
  -30.6088  -17.5528   18.6217 C   0  0  0  0  0  0
  -29.9237  -20.0522   19.9249 C   0  0  0  0  0  0
  -30.7707  -18.7978   17.9448 C   0  0  0  0  0  0
  -30.1127  -17.4497   19.9489 C   0  0  0  0  0  0
  -28.7040  -23.6744   19.3883 C   0  0  0  0  0  0
  -28.9936  -23.8801   21.3234 C   0  0  0  0  0  0
  -28.0062  -24.6870   20.4023 C   0  0  1  0  0  0
  -26.5371  -24.3752   20.7911 C   0  0  0  0  0  0
  -32.6470  -19.7987   16.5643 C   0  0  0  0  0  0
  -30.3591  -19.4939   15.5413 C   0  0  0  0  0  0
  -31.8333  -17.5365   15.9482 C   0  0  0  0  0  0
  -29.8959  -21.5297   20.6108 C   0  0  0  0  0  0
  -31.3881  -18.8967   16.5254 C   0  0  0  0  0  0
  -29.9118  -16.0633   20.5394 N   0  0  0  0  0  0
  -28.8187  -22.6479   20.4797 N   0  3  2  0  0  0
  -31.4743  -12.6244   19.1961 H   0  0  0  0  0  0
  -30.3803  -11.5659   20.0316 H   0  0  0  0  0  0
  -29.8165  -11.7245   17.5670 H   0  0  0  0  0  0
  -29.6178  -13.4570   17.7172 H   0  0  0  0  0  0
  -27.9354  -11.2810   18.9770 H   0  0  0  0  0  0
  -27.3821  -12.4729   17.8270 H   0  0  0  0  0  0
  -27.6096  -14.2575   19.4331 H   0  0  0  0  0  0
  -28.7502  -12.3012   21.4803 H   0  0  0  0  0  0
  -28.4173  -13.9924   21.7529 H   0  0  0  0  0  0
  -25.2767   -9.5699   22.4814 H   0  0  0  0  0  0
  -23.9997   -7.4646   22.7507 H   0  0  0  0  0  0
  -21.0868   -8.8812   19.8951 H   0  0  0  0  0  0
  -22.3742  -10.9709   19.6184 H   0  0  0  0  0  0
  -21.2011   -7.6153   23.9721 H   0  0  0  0  0  0
  -21.1480   -6.0524   25.9075 H   0  0  0  0  0  0
  -22.0589   -2.7608   23.2853 H   0  0  0  0  0  0
  -22.4040  -11.9788   22.4720 H   0  0  0  0  0  0
  -21.1094  -13.1264   22.2694 H   0  0  0  0  0  0
  -24.6612  -15.8587   20.5315 H   0  0  0  0  0  0
  -26.2840  -15.6343   20.1273 H   0  0  0  0  0  0
  -26.7177  -32.5370   23.0993 H   0  0  0  0  0  0
  -25.0177  -33.9680   25.0416 H   0  0  0  0  0  0
  -22.7265  -31.2884   21.3954 H   0  0  0  0  0  0
  -23.3778  -35.9554   23.3265 H   0  0  0  0  0  0
  -24.3618  -36.8970   22.2077 H   0  0  0  0  0  0
  -23.7261  -37.6389   23.6778 H   0  0  0  0  0  0
  -26.1369  -31.4926   20.6164 H   0  0  0  0  0  0
  -26.8600  -30.7927   22.0327 H   0  0  0  0  0  0
  -28.0985  -28.8200   21.3039 H   0  0  0  0  0  0
  -26.0207  -25.9987   18.7969 H   0  0  0  0  0  0
  -24.0164  -27.3770   18.8789 H   0  0  0  0  0  0
  -23.7670  -30.5857   19.4049 H   0  0  0  0  0  0
  -22.7759  -29.2379   19.8564 H   0  0  0  0  0  0
  -25.1284  -36.1772   25.0779 H   0  0  0  0  0  0
  -20.9931  -28.3269   24.1461 H   0  0  0  0  0  0
  -20.5743  -26.2236   23.3593 H   0  0  0  0  0  0
  -21.6600  -26.7459   22.1129 H   0  0  0  0  0  0
  -19.6933  -25.6282   21.1216 H   0  0  0  0  0  0
  -19.6716  -27.3187   20.6737 H   0  0  0  0  0  0
  -17.4175  -26.6694   21.3980 H   0  0  0  0  0  0
  -18.0243  -26.0066   22.8978 H   0  0  0  0  0  0
  -19.8005  -30.7214   24.2198 H   0  0  0  0  0  0
  -17.5096  -31.6288   24.5076 H   0  0  0  0  0  0
  -15.5379  -30.2927   23.7822 H   0  0  0  0  0  0
  -15.8654  -28.0803   22.7140 H   0  0  0  0  0  0
  -24.5932  -30.7117   25.7936 H   0  0  0  0  0  0
  -24.8888  -32.3018   26.4794 H   0  0  0  0  0  0
  -25.8006  -30.9161   27.0401 H   0  0  0  0  0  0
  -26.2959  -29.6640   24.1374 H   0  0  0  0  0  0
  -27.4058  -29.7268   25.4872 H   0  0  0  0  0  0
  -27.8837  -30.4145   23.9539 H   0  0  0  0  0  0
  -27.3038  -33.3986   26.1337 H   0  0  0  0  0  0
  -28.4274  -32.6114   25.0389 H   0  0  0  0  0  0
  -28.0312  -31.8729   26.5852 H   0  0  0  0  0  0
  -28.2544  -38.0046   24.7478 H   0  0  0  0  0  0
  -28.1037  -36.2553   24.6389 H   0  0  0  0  0  0
  -27.2260  -37.1493   25.8901 H   0  0  0  0  0  0
  -20.9416  -29.8760   21.6941 H   0  0  0  0  0  0
  -26.0140  -38.2766   24.1412 H   0  0  0  0  0  0
  -30.5595  -20.9412   18.0827 H   0  0  0  0  0  0
  -29.4469  -18.7231   21.6061 H   0  0  0  0  0  0
  -30.8693  -16.6376   18.1139 H   0  0  0  0  0  0
  -29.6736  -24.0198   19.0145 H   0  0  0  0  0  0
  -28.0672  -23.3605   18.5611 H   0  0  0  0  0  0
  -28.6414  -23.7490   22.3481 H   0  0  0  0  0  0
  -30.0228  -24.2561   21.3296 H   0  0  0  0  0  0
  -26.4360  -23.4271   21.3215 H   0  0  0  0  0  0
  -25.8898  -24.2550   19.9247 H   0  0  0  0  0  0
  -26.1078  -25.1297   21.4540 H   0  0  0  0  0  0
  -32.4330  -20.8131   16.8997 H   0  0  0  0  0  0
  -33.1111  -19.8928   15.5807 H   0  0  0  0  0  0
  -33.4038  -19.3888   17.2352 H   0  0  0  0  0  0
  -30.0578  -20.5026   15.8193 H   0  0  0  0  0  0
  -29.4568  -18.8825   15.4918 H   0  0  0  0  0  0
  -30.7584  -19.5490   14.5273 H   0  0  0  0  0  0
  -32.5700  -17.0439   16.5839 H   0  0  0  0  0  0
  -32.3013  -17.6584   14.9677 H   0  0  0  0  0  0
  -30.9899  -16.8594   15.8081 H   0  0  0  0  0  0
  -30.8444  -22.0022   20.3499 H   0  0  0  0  0  0
  -29.9895  -21.3525   21.6795 H   0  0  0  0  0  0
  -29.0302  -15.9448   21.0160 H   0  0  0  0  0  0
  -27.9100  -22.2589   20.6754 H   0  0  0  0  0  0
  1 25  1  0  0  0
  1 30  2  0  0  0
  1 86  1  0  0  0
  2  3  1  0  0  0
  2 25  1  0  0  0
  2 88  1  0  0  0
  2 89  1  0  0  0
  3  4  1  0  0  0
  3 90  1  0  0  0
  3 91  1  0  0  0
  4  5  1  0  0  0
  4 92  1  0  0  0
  4 93  1  0  0  0
  5  6  1  0  0  0
  5 26  1  0  0  0
  5 94  1  0  0  0
  6 25  1  0  0  0
  6 95  1  0  0  0
  6 96  1  0  0  0
  7  8  2  0  0  0
  7 26  1  0  0  0
  7 29  1  0  0  0
  8  9  1  0  0  0
  8 22  1  0  0  0
  9 10  1  0  0  0
  9 27  2  0  0  0
 10 11  2  0  0  0
 10 15  1  0  0  0
 11 12  1  0  0  0
 11 97  1  0  0  0
 12 13  2  0  0  0
 12 98  1  0  0  0
 13 14  1  0  0  0
 13 31  1  0  0  0
 14 15  2  0  0  0
 14 99  1  0  0  0
 15100  1  0  0  0
 16 17  2  0  0  0
 16 21  1  0  0  0
 16 31  1  0  0  0
 17 18  1  0  0  0
 17101  1  0  0  0
 18 19  2  0  0  0
 18102  1  0  0  0
 19 20  1  0  0  0
 19 24  1  0  0  0
 20 21  2  0  0  0
 20103  1  0  0  0
 21 23  1  0  0  0
 22 28  1  0  0  0
 22 32  2  0  0  0
 26 27  1  0  0  0
 28104  1  0  0  0
 28105  1  0  0  0
 29106  1  0  0  0
 29107  1  0  0  0
 33 34  1  0  0  0
 33 66  1  0  0  0
 33 70  2  0  0  0
 34 36  1  0  0  0
 34 59  1  0  0  0
 34108  1  0  0  0
 35 44  2  0  0  0
 35 45  1  0  0  0
 35 68  1  0  0  0
 36 56  1  0  0  0
 36109  1  0  0  0
 37 39  1  0  0  0
 37 47  1  0  0  0
 37 66  1  0  0  0
 37110  1  0  0  0
 38 43  2  0  0  0
 38 46  1  0  0  0
 38 47  1  0  0  0
 39 64  1  0  0  0
 39 67  2  0  0  0
 40 52  1  0  0  0
 40 53  2  0  0  0
 40 58  1  0  0  0
 41111  1  0  0  0
 41112  1  0  0  0
 41113  1  0  0  0
 41 48  1  0  0  0
 42 43  1  0  0  0
 42 66  1  0  0  0
 42114  1  0  0  0
 42115  1  0  0  0
 43 44  1  0  0  0
 44116  1  0  0  0
 45 46  2  0  0  0
 45117  1  0  0  0
 46118  1  0  0  0
 47119  1  0  0  0
 47120  1  0  0  0
 48 56  1  0  0  0
 48 65  1  0  0  0
 48121  1  0  0  0
 49 50  1  0  0  0
 49 53  1  0  0  0
 49 64  1  0  0  0
 49122  1  0  0  0
 50 51  1  0  0  0
 50123  1  0  0  0
 50124  1  0  0  0
 51 52  1  0  0  0
 51125  1  0  0  0
 51126  1  0  0  0
 52127  1  0  0  0
 52128  1  0  0  0
 53 54  1  0  0  0
 54 55  2  0  0  0
 54129  1  0  0  0
 55 57  1  0  0  0
 55130  1  0  0  0
 56 69  2  0  0  0
 57 58  2  0  0  0
 57131  1  0  0  0
 58132  1  0  0  0
 59 60  1  0  0  0
 59 61  1  0  0  0
 59 62  1  0  0  0
 60133  1  0  0  0
 60134  1  0  0  0
 60135  1  0  0  0
 61136  1  0  0  0
 61137  1  0  0  0
 61138  1  0  0  0
 62139  1  0  0  0
 62140  1  0  0  0
 62141  1  0  0  0
 63 65  1  0  0  0
 63142  1  0  0  0
 63143  1  0  0  0
 63144  1  0  0  0
 64145  1  0  0  0
 65146  1  0  0  0
 68 79  1  0  0  0
 71 74  2  0  0  0
 71 75  1  0  0  0
 71147  1  0  0  0
 72 74  1  0  0  0
 72 76  2  0  0  0
 72148  1  0  0  0
 73 75  2  0  0  0
 73 76  1  0  0  0
 73149  1  0  0  0
 74 84  1  0  0  0
 75 85  1  0  0  0
 76 86  1  0  0  0
 77 79  1  0  0  0
 77 87  1  0  0  0
 77150  1  0  0  0
 77151  1  0  0  0
 78 79  1  0  0  0
 78 87  1  0  0  0
 78152  1  0  0  0
 78153  1  0  0  0
 79 80  1  0  0  0
 80154  1  0  0  0
 80155  1  0  0  0
 80156  1  0  0  0
 81157  1  0  0  0
 81158  1  0  0  0
 81159  1  0  0  0
 81 85  1  0  0  0
 82 85  1  0  0  0
 82160  1  0  0  0
 82161  1  0  0  0
 82162  1  0  0  0
 83 85  1  0  0  0
 83163  1  0  0  0
 83164  1  0  0  0
 83165  1  0  0  0
 84166  1  0  0  0
 84167  1  0  0  0
 84 87  1  0  0  0
 86168  1  0  0  0
 87169  1  0  0  0
M  CHG  1  87   1
M  ISO  4   1 100  68 101  79 101  86 100
M  END
> <chiral flag>
0

> <version>
0

> <s_m_source_file>
/data/baiqing/PycharmProjects/Reinvent-master-3.2/result/LINK_invent/BTK/process_docking_weight1_custom_product_contain_oxygen_bond_distance_aromatic_linkinvent_7_9_3/rearranged_h_0024.sdf

> <i_m_source_file_index>
79

> <r_mmod_Potential_Energy-OPLS-2005>
213.560577392578

> <r_mmod_Stretch_Energy-OPLS-2005>
188.969253540039

> <r_mmod_Bend_Energy-OPLS-2005>
263.776550292969

> <r_mmod_Torsional_Energy-OPLS-2005>
269.646423339844

> <r_mmod_Improper_Torsional_Energy-OPLS-2005>
5.73554563522339

> <r_mmod_Van_der_Waal_Energy-OPLS-2005>
155.751205444336

> <r_mmod_Electrostatic_Energy-OPLS-2005>
-353.030944824219

> <r_mmod_Solvation_Energy-OPLS-2005>
-465.625946044922

> <b_mmod_Minimization_Converged-OPLS-2005>
0

> <r_mmod_RMS_Derivative-OPLS-2005>
5.4658260345459

$$$$
79
                    3D
 Structure written by MMmdl.
158167  0  0  1  0            999 V2000
  -30.6451  -14.5592   20.5572 C   0  0  0  0  0  0
  -30.4376  -12.3525   19.4448 C   0  0  0  0  0  0
  -29.5071  -12.5079   18.2221 C   0  0  0  0  0  0
  -28.0289  -12.3569   18.6309 C   0  0  0  0  0  0
  -27.6597  -13.2097   19.8744 C   0  0  2  0  0  0
  -28.6989  -13.0116   21.0012 C   0  0  0  0  0  0
  -25.2589  -13.8187   20.5714 C   0  0  0  0  0  0
  -24.1833  -13.0455   20.9181 C   0  0  0  0  0  0
  -24.6379  -11.6912   20.8711 C   0  0  0  0  0  0
  -23.9045  -10.4301   21.0392 C   0  0  0  0  0  0
  -24.3608   -9.4219   21.9166 C   0  0  0  0  0  0
  -23.6290   -8.2253   22.0736 C   0  0  0  0  0  0
  -22.4263   -8.0280   21.3537 C   0  0  0  0  0  0
  -21.9890   -9.0256   20.4645 C   0  0  0  0  0  0
  -22.7214  -10.2142   20.3057 C   0  0  0  0  0  0
  -21.6864   -6.0729   22.5272 C   0  0  0  0  0  0
  -21.4017   -6.5628   23.8201 C   0  0  0  0  0  0
  -21.3648   -5.6777   24.9159 C   0  0  0  0  0  0
  -21.6036   -4.3043   24.7217 C   0  0  0  0  0  0
  -21.8827   -3.8136   23.4337 C   0  0  0  0  0  0
  -21.9203   -4.6952   22.3393 C   0  0  0  0  0  0
  -22.7853  -13.5259   21.1852 C   0  0  0  0  0  0
  -22.1671   -4.2141   21.0969 F   0  0  0  0  0  0
  -21.5613   -3.4527   25.7735 F   0  0  0  0  0  0
  -30.0272  -13.3452   20.4550 N   0  0  0  0  0  0
  -26.3002  -12.9352   20.3334 N   0  0  0  0  0  0
  -25.9309  -11.6510   20.5737 N   0  0  0  0  0  0
  -22.0493  -12.8260   22.0417 N   0  0  0  0  0  0
  -25.4361  -15.1912   20.4221 N   0  0  0  0  0  0
  -31.7711  -14.7480   20.0921 O   0  0  0  0  0  0
  -21.6647   -6.8866   21.4230 O   0  0  0  0  0  0
  -22.3534  -14.5559   20.6693 O   0  0  0  0  0  0
  -24.6176  -31.8636   23.2056 C   0  0  0  0  0  0
  -25.9051  -32.4789   23.8363 C   0  0  1  0  0  0
  -27.2309  -27.3779   20.0900 C   0  0  0  0  0  0
  -25.5902  -33.8592   24.2286 N   0  0  0  0  0  0
  -23.4088  -30.4859   21.5457 C   0  0  2  0  0  0
  -24.8551  -28.9496   20.1065 C   0  0  0  0  0  0
  -22.7426  -29.4616   22.4929 C   0  0  0  0  0  0
  -18.0289  -28.1375   22.8455 C   0  0  0  0  0  0
  -24.1470  -36.7277   23.2620 C   0  0  0  0  0  0
  -25.9443  -30.8069   21.3724 C   0  0  0  0  0  0
  -26.0173  -29.4384   20.7154 C   0  0  0  0  0  0
  -27.2026  -28.6565   20.7119 C   0  0  0  0  0  0
  -26.0410  -26.9145   19.4847 C   0  0  0  0  0  0
  -24.8652  -27.6884   19.4881 C   0  0  0  0  0  0
  -23.6192  -29.8215   20.1588 C   0  0  0  0  0  0
  -25.4079  -36.3073   24.0335 C   0  0  1  0  0  0
  -20.5874  -28.3649   23.1293 C   0  0  2  0  0  0
  -20.6767  -26.9371   22.5432 C   0  0  0  0  0  0
  -19.5768  -26.6363   21.5199 C   0  0  0  0  0  0
  -18.1934  -26.7918   22.1586 C   0  0  0  0  0  0
  -19.1535  -28.8825   23.2880 C   0  0  0  0  0  0
  -18.9464  -30.1418   23.8914 C   0  0  0  0  0  0
  -17.6469  -30.6557   24.0576 C   0  0  0  0  0  0
  -25.9039  -34.9457   23.5107 C   0  0  0  0  0  0
  -16.5360  -29.9068   23.6323 C   0  0  0  0  0  0
  -16.7279  -28.6497   23.0313 C   0  0  0  0  0  0
  -26.4439  -31.6594   25.0718 C   0  0  0  0  0  0
  -25.3702  -31.3822   26.1486 C   0  0  0  0  0  0
  -27.0220  -30.2990   24.6166 C   0  0  0  0  0  0
  -27.6056  -32.4294   25.7434 C   0  0  0  0  0  0
  -27.5611  -37.1710   24.8395 C   0  0  0  0  0  0
  -21.4151  -29.2996   22.3673 N   0  0  0  0  0  0
  -26.4223  -37.3805   23.9489 N   0  0  0  0  0  0
  -24.6745  -31.0688   22.0980 N   0  0  0  0  0  0
  -23.4176  -28.8163   23.2996 O   0  0  0  0  0  0
  -28.3851  -26.6009   20.1373 O   0  0  0  0  0  0
  -26.5613  -34.8923   22.4674 O   0  0  0  0  0  0
  -23.5357  -32.1409   23.7422 O   0  0  0  0  0  0
  -28.3366  -18.9591   21.1947 C   0  0  0  0  0  0
  -28.5833  -17.5745   21.3652 C   0  0  0  0  0  0
  -30.5053  -19.2083   20.1849 C   0  0  0  0  0  0
  -29.2815  -19.8220   20.5788 C   0  0  0  0  0  0
  -29.7842  -16.9596   20.9338 C   0  0  0  0  0  0
  -30.7576  -17.8171   20.3482 C   0  0  0  0  0  0
  -27.8040  -21.7601   20.0256 C   0  0  0  0  0  0
  -27.5675  -23.2931   19.8998 C   0  0  0  0  0  0
  -29.9274  -23.6999   20.4645 C   0  0  0  0  0  0
  -30.2096  -22.1677   20.4124 C   0  0  0  0  0  0
  -28.8190  -24.0789   19.4749 C   0  0  2  0  0  0
  -28.6488  -25.6056   19.1152 C   0  0  0  0  0  0
  -29.0318  -21.2580   20.3844 N   0  0  0  0  0  0
  -29.8966  -15.5281   21.1470 N   0  0  0  0  0  0
  -26.8282  -21.0392   19.7868 O   0  0  0  0  0  0
  -31.9559  -17.3423   19.9394 F   0  0  0  0  0  0
  -31.4805  -12.4738   19.1436 H   0  0  0  0  0  0
  -30.3627  -11.3467   19.8592 H   0  0  0  0  0  0
  -29.7611  -11.7672   17.4622 H   0  0  0  0  0  0
  -29.6626  -13.4868   17.7638 H   0  0  0  0  0  0
  -27.8513  -11.3019   18.8426 H   0  0  0  0  0  0
  -27.3800  -12.6107   17.7926 H   0  0  0  0  0  0
  -27.6965  -14.2535   19.5616 H   0  0  0  0  0  0
  -28.6913  -11.9772   21.3473 H   0  0  0  0  0  0
  -28.4422  -13.6054   21.8805 H   0  0  0  0  0  0
  -25.2767   -9.5683   22.4726 H   0  0  0  0  0  0
  -24.0004   -7.4642   22.7451 H   0  0  0  0  0  0
  -21.0809   -8.8775   19.8965 H   0  0  0  0  0  0
  -22.3668  -10.9677   19.6163 H   0  0  0  0  0  0
  -21.2009   -7.6135   23.9702 H   0  0  0  0  0  0
  -21.1454   -6.0505   25.9060 H   0  0  0  0  0  0
  -22.0622   -2.7594   23.2854 H   0  0  0  0  0  0
  -22.4122  -11.9938   22.4831 H   0  0  0  0  0  0
  -21.1102  -13.1271   22.2615 H   0  0  0  0  0  0
  -24.6758  -15.8527   20.5430 H   0  0  0  0  0  0
  -26.2939  -15.6288   20.1107 H   0  0  0  0  0  0
  -26.7112  -32.5473   23.1122 H   0  0  0  0  0  0
  -25.0025  -33.9742   25.0408 H   0  0  0  0  0  0
  -22.7006  -31.3056   21.4056 H   0  0  0  0  0  0
  -23.3798  -35.9529   23.3114 H   0  0  0  0  0  0
  -24.3636  -36.9080   22.2080 H   0  0  0  0  0  0
  -23.7106  -37.6372   23.6758 H   0  0  0  0  0  0
  -26.0741  -31.5711   20.6049 H   0  0  0  0  0  0
  -26.8260  -30.8533   22.0001 H   0  0  0  0  0  0
  -28.0960  -29.0261   21.1952 H   0  0  0  0  0  0
  -25.9894  -25.9396   19.0233 H   0  0  0  0  0  0
  -23.9712  -27.3040   19.0154 H   0  0  0  0  0  0
  -23.7271  -30.5980   19.4008 H   0  0  0  0  0  0
  -22.7407  -29.2450   19.8618 H   0  0  0  0  0  0
  -25.1208  -36.1908   25.0812 H   0  0  0  0  0  0
  -20.9964  -28.3249   24.1419 H   0  0  0  0  0  0
  -20.5592  -26.2264   23.3628 H   0  0  0  0  0  0
  -21.6652  -26.7360   22.1292 H   0  0  0  0  0  0
  -19.6936  -25.6283   21.1202 H   0  0  0  0  0  0
  -19.6731  -27.3186   20.6745 H   0  0  0  0  0  0
  -17.4206  -26.6647   21.3997 H   0  0  0  0  0  0
  -18.0340  -26.0068   22.8984 H   0  0  0  0  0  0
  -19.7944  -30.7214   24.2301 H   0  0  0  0  0  0
  -17.5025  -31.6225   24.5201 H   0  0  0  0  0  0
  -15.5360  -30.2965   23.7653 H   0  0  0  0  0  0
  -15.8686  -28.0827   22.6998 H   0  0  0  0  0  0
  -24.5880  -30.7118   25.7900 H   0  0  0  0  0  0
  -24.8887  -32.3030   26.4802 H   0  0  0  0  0  0
  -25.8047  -30.9125   27.0314 H   0  0  0  0  0  0
  -26.2763  -29.6797   24.1159 H   0  0  0  0  0  0
  -27.3847  -29.7211   25.4670 H   0  0  0  0  0  0
  -27.8675  -30.4230   23.9404 H   0  0  0  0  0  0
  -27.2700  -33.3584   26.2050 H   0  0  0  0  0  0
  -28.3820  -32.6850   25.0217 H   0  0  0  0  0  0
  -28.0745  -31.8385   26.5304 H   0  0  0  0  0  0
  -28.2424  -38.0202   24.7769 H   0  0  0  0  0  0
  -28.1301  -36.2790   24.5741 H   0  0  0  0  0  0
  -27.2436  -37.0795   25.8795 H   0  0  0  0  0  0
  -20.9320  -29.8699   21.6876 H   0  0  0  0  0  0
  -26.0089  -38.2806   24.1763 H   0  0  0  0  0  0
  -27.3938  -19.3504   21.5525 H   0  0  0  0  0  0
  -27.8136  -16.9785   21.8350 H   0  0  0  0  0  0
  -31.2855  -19.7973   19.7276 H   0  0  0  0  0  0
  -27.1954  -23.6658   20.8547 H   0  0  0  0  0  0
  -26.7694  -23.4661   19.1773 H   0  0  0  0  0  0
  -30.8439  -24.2455   20.2330 H   0  0  0  0  0  0
  -29.6418  -23.9990   21.4746 H   0  0  0  0  0  0
  -30.8490  -21.8957   21.2530 H   0  0  0  0  0  0
  -30.7887  -21.9718   19.5094 H   0  0  0  0  0  0
  -29.1202  -23.6401   18.5205 H   0  0  0  0  0  0
  -27.9697  -25.6962   18.2688 H   0  0  0  0  0  0
  -29.6010  -25.9209   18.6868 H   0  0  0  0  0  0
  -29.0949  -15.1297   21.6095 H   0  0  0  0  0  0
  1 25  1  0  0  0
  1 30  2  0  0  0
  1 84  1  0  0  0
  2  3  1  0  0  0
  2 25  1  0  0  0
  2 87  1  0  0  0
  2 88  1  0  0  0
  3  4  1  0  0  0
  3 89  1  0  0  0
  3 90  1  0  0  0
  4  5  1  0  0  0
  4 91  1  0  0  0
  4 92  1  0  0  0
  5  6  1  0  0  0
  5 26  1  0  0  0
  5 93  1  0  0  0
  6 25  1  0  0  0
  6 94  1  0  0  0
  6 95  1  0  0  0
  7  8  2  0  0  0
  7 26  1  0  0  0
  7 29  1  0  0  0
  8  9  1  0  0  0
  8 22  1  0  0  0
  9 10  1  0  0  0
  9 27  2  0  0  0
 10 11  2  0  0  0
 10 15  1  0  0  0
 11 12  1  0  0  0
 11 96  1  0  0  0
 12 13  2  0  0  0
 12 97  1  0  0  0
 13 14  1  0  0  0
 13 31  1  0  0  0
 14 15  2  0  0  0
 14 98  1  0  0  0
 15 99  1  0  0  0
 16 17  2  0  0  0
 16 21  1  0  0  0
 16 31  1  0  0  0
 17 18  1  0  0  0
 17100  1  0  0  0
 18 19  2  0  0  0
 18101  1  0  0  0
 19 20  1  0  0  0
 19 24  1  0  0  0
 20 21  2  0  0  0
 20102  1  0  0  0
 21 23  1  0  0  0
 22 28  1  0  0  0
 22 32  2  0  0  0
 26 27  1  0  0  0
 28103  1  0  0  0
 28104  1  0  0  0
 29105  1  0  0  0
 29106  1  0  0  0
 33 34  1  0  0  0
 33 66  1  0  0  0
 33 70  2  0  0  0
 34 36  1  0  0  0
 34 59  1  0  0  0
 34107  1  0  0  0
 35 44  2  0  0  0
 35 45  1  0  0  0
 35 68  1  0  0  0
 36 56  1  0  0  0
 36108  1  0  0  0
 37 39  1  0  0  0
 37 47  1  0  0  0
 37 66  1  0  0  0
 37109  1  0  0  0
 38 43  2  0  0  0
 38 46  1  0  0  0
 38 47  1  0  0  0
 39 64  1  0  0  0
 39 67  2  0  0  0
 40 52  1  0  0  0
 40 53  2  0  0  0
 40 58  1  0  0  0
 41110  1  0  0  0
 41111  1  0  0  0
 41112  1  0  0  0
 41 48  1  0  0  0
 42 43  1  0  0  0
 42 66  1  0  0  0
 42113  1  0  0  0
 42114  1  0  0  0
 43 44  1  0  0  0
 44115  1  0  0  0
 45 46  2  0  0  0
 45116  1  0  0  0
 46117  1  0  0  0
 47118  1  0  0  0
 47119  1  0  0  0
 48 56  1  0  0  0
 48 65  1  0  0  0
 48120  1  0  0  0
 49 50  1  0  0  0
 49 53  1  0  0  0
 49 64  1  0  0  0
 49121  1  0  0  0
 50 51  1  0  0  0
 50122  1  0  0  0
 50123  1  0  0  0
 51 52  1  0  0  0
 51124  1  0  0  0
 51125  1  0  0  0
 52126  1  0  0  0
 52127  1  0  0  0
 53 54  1  0  0  0
 54 55  2  0  0  0
 54128  1  0  0  0
 55 57  1  0  0  0
 55129  1  0  0  0
 56 69  2  0  0  0
 57 58  2  0  0  0
 57130  1  0  0  0
 58131  1  0  0  0
 59 60  1  0  0  0
 59 61  1  0  0  0
 59 62  1  0  0  0
 60132  1  0  0  0
 60133  1  0  0  0
 60134  1  0  0  0
 61135  1  0  0  0
 61136  1  0  0  0
 61137  1  0  0  0
 62138  1  0  0  0
 62139  1  0  0  0
 62140  1  0  0  0
 63 65  1  0  0  0
 63141  1  0  0  0
 63142  1  0  0  0
 63143  1  0  0  0
 64144  1  0  0  0
 65145  1  0  0  0
 68 82  1  0  0  0
 71 72  2  0  0  0
 71 74  1  0  0  0
 71146  1  0  0  0
 72 75  1  0  0  0
 72147  1  0  0  0
 73 74  2  0  0  0
 73 76  1  0  0  0
 73148  1  0  0  0
 74 83  1  0  0  0
 75 76  2  0  0  0
 75 84  1  0  0  0
 76 86  1  0  0  0
 77 78  1  0  0  0
 77 83  1  0  0  0
 77 85  2  0  0  0
 78 81  1  0  0  0
 78149  1  0  0  0
 78150  1  0  0  0
 79 80  1  0  0  0
 79 81  1  0  0  0
 79151  1  0  0  0
 79152  1  0  0  0
 80 83  1  0  0  0
 80153  1  0  0  0
 80154  1  0  0  0
 81 82  1  0  0  0
 81155  1  0  0  0
 82156  1  0  0  0
 82157  1  0  0  0
 84158  1  0  0  0
M  ISO  4   1 100  68 101  82 101  84 100
M  END
> <chiral flag>
0

> <version>
0

> <s_m_source_file>
/data/baiqing/PycharmProjects/Reinvent-master-3.2/result/LINK_invent/BTK/process_docking_weight1_custom_product_contain_oxygen_bond_distance_aromatic_linkinvent_7_9_3/rearranged_h_0024.sdf

> <i_m_source_file_index>
80

> <r_mmod_Potential_Energy-OPLS-2005>
73.5588760375977

> <r_mmod_Stretch_Energy-OPLS-2005>
62.5016098022461

> <r_mmod_Bend_Energy-OPLS-2005>
152.615753173828

> <r_mmod_Torsional_Energy-OPLS-2005>
266.569122314453

> <r_mmod_Improper_Torsional_Energy-OPLS-2005>
3.57981872558594

> <r_mmod_Van_der_Waal_Energy-OPLS-2005>
164.783340454102

> <r_mmod_Electrostatic_Energy-OPLS-2005>
-377.696594238281

> <r_mmod_Solvation_Energy-OPLS-2005>
-224.956893920898

> <b_mmod_Minimization_Converged-OPLS-2005>
0

> <r_mmod_RMS_Derivative-OPLS-2005>
2.66132879257202

$$$$
80
                    3D
 Structure written by MMmdl.
171180  0  0  1  0            999 V2000
  -30.6822  -14.6416   20.4624 C   0  0  0  0  0  0
  -30.4265  -12.3868   19.4758 C   0  0  0  0  0  0
  -29.5092  -12.4812   18.2378 C   0  0  0  0  0  0
  -28.0298  -12.3348   18.6429 C   0  0  0  0  0  0
  -27.6448  -13.2335   19.8493 C   0  0  2  0  0  0
  -28.6902  -13.1456   20.9855 C   0  0  0  0  0  0
  -25.2498  -13.8223   20.5687 C   0  0  0  0  0  0
  -24.1776  -13.0438   20.9211 C   0  0  0  0  0  0
  -24.6394  -11.6930   20.8741 C   0  0  0  0  0  0
  -23.9072  -10.4287   21.0395 C   0  0  0  0  0  0
  -24.3625   -9.4198   21.9170 C   0  0  0  0  0  0
  -23.6293   -8.2237   22.0746 C   0  0  0  0  0  0
  -22.4280   -8.0279   21.3536 C   0  0  0  0  0  0
  -21.9918   -9.0245   20.4637 C   0  0  0  0  0  0
  -22.7252  -10.2121   20.3038 C   0  0  0  0  0  0
  -21.6846   -6.0736   22.5281 C   0  0  0  0  0  0
  -21.4013   -6.5633   23.8220 C   0  0  0  0  0  0
  -21.3665   -5.6785   24.9177 C   0  0  0  0  0  0
  -21.6038   -4.3046   24.7229 C   0  0  0  0  0  0
  -21.8821   -3.8148   23.4348 C   0  0  0  0  0  0
  -21.9189   -4.6961   22.3408 C   0  0  0  0  0  0
  -22.7800  -13.5201   21.1879 C   0  0  0  0  0  0
  -22.1654   -4.2152   21.0982 F   0  0  0  0  0  0
  -21.5634   -3.4534   25.7738 F   0  0  0  0  0  0
  -30.0061  -13.4510   20.4109 N   0  0  0  0  0  0
  -26.2939  -12.9443   20.3274 N   0  0  0  0  0  0
  -25.9323  -11.6584   20.5757 N   0  0  0  0  0  0
  -22.0449  -12.8168   22.0444 N   0  0  0  0  0  0
  -25.4124  -15.1952   20.4120 N   0  0  0  0  0  0
  -31.8650  -14.7000   20.1179 O   0  0  0  0  0  0
  -21.6632   -6.8882   21.4249 O   0  0  0  0  0  0
  -22.3454  -14.5492   20.6721 O   0  0  0  0  0  0
  -24.6299  -31.8601   23.2054 C   0  0  0  0  0  0
  -25.9160  -32.4749   23.8390 C   0  0  1  0  0  0
  -27.2128  -27.3151   20.1081 C   0  0  0  0  0  0
  -25.6007  -33.8548   24.2339 N   0  0  0  0  0  0
  -23.4230  -30.4901   21.5434 C   0  0  2  0  0  0
  -24.8677  -28.9568   20.0991 C   0  0  0  0  0  0
  -22.7506  -29.4617   22.4872 C   0  0  0  0  0  0
  -18.0285  -28.1367   22.8438 C   0  0  0  0  0  0
  -24.1497  -36.7261   23.2651 C   0  0  0  0  0  0
  -25.9682  -30.7889   21.3840 C   0  0  0  0  0  0
  -26.0380  -29.4229   20.7128 C   0  0  0  0  0  0
  -27.2125  -28.6127   20.7072 C   0  0  0  0  0  0
  -26.0245  -26.9208   19.4469 C   0  0  0  0  0  0
  -24.8637  -27.7115   19.4579 C   0  0  0  0  0  0
  -23.6426  -29.8440   20.1522 C   0  0  0  0  0  0
  -25.4100  -36.3041   24.0360 C   0  0  1  0  0  0
  -20.5903  -28.3685   23.1240 C   0  0  2  0  0  0
  -20.6778  -26.9411   22.5389 C   0  0  0  0  0  0
  -19.5752  -26.6362   21.5199 C   0  0  0  0  0  0
  -18.1919  -26.7908   22.1582 C   0  0  0  0  0  0
  -19.1548  -28.8830   23.2824 C   0  0  0  0  0  0
  -18.9480  -30.1420   23.8855 C   0  0  0  0  0  0
  -17.6493  -30.6565   24.0539 C   0  0  0  0  0  0
  -25.9051  -34.9425   23.5132 C   0  0  0  0  0  0
  -16.5369  -29.9078   23.6324 C   0  0  0  0  0  0
  -16.7280  -28.6501   23.0323 C   0  0  0  0  0  0
  -26.4577  -31.6554   25.0761 C   0  0  0  0  0  0
  -25.3868  -31.3690   26.1536 C   0  0  0  0  0  0
  -27.0474  -30.2979   24.6251 C   0  0  0  0  0  0
  -27.6088  -32.4366   25.7544 C   0  0  0  0  0  0
  -27.5560  -37.1779   24.8473 C   0  0  0  0  0  0
  -21.4221  -29.3046   22.3628 N   0  0  0  0  0  0
  -26.4252  -37.3755   23.9441 N   0  0  0  0  0  0
  -24.6913  -31.0618   22.1009 N   0  0  0  0  0  0
  -23.4234  -28.8158   23.2938 O   0  0  0  0  0  0
  -28.3130  -26.4407   20.1939 O   0  0  0  0  0  0
  -26.5564  -34.8878   22.4664 O   0  0  0  0  0  0
  -23.5464  -32.1430   23.7354 O   0  0  0  0  0  0
  -30.0700  -19.6212   19.5915 C   0  0  0  0  0  0
  -29.5706  -20.9227   19.8706 C   0  0  0  0  0  0
  -29.2660  -18.8426   21.6999 C   0  0  0  0  0  0
  -29.8900  -18.5291   20.4757 C   0  0  0  0  0  0
  -28.8159  -20.1662   22.0387 C   0  0  0  0  0  0
  -28.8829  -21.2521   21.0678 C   0  0  0  0  0  0
  -27.9376  -23.9857   23.0296 C   0  0  0  0  0  0
  -29.2081  -24.3842   22.2541 C   0  0  0  0  0  0
  -27.2652  -22.9178   22.1438 C   0  0  0  0  0  0
  -28.9410  -23.8827   20.8368 C   0  0  2  0  0  0
  -30.2054  -19.7694   24.9170 C   0  0  0  0  0  0
  -27.9402  -19.1625   25.6351 C   0  0  0  0  0  0
  -30.4856  -17.1228   20.1064 C   0  0  0  0  0  0
  -28.2635  -20.3171   23.4699 C   0  0  0  0  0  0
  -28.0486  -24.9827   20.0650 C   0  0  0  0  0  0
  -28.2677  -22.5711   21.1380 N   0  0  0  0  0  0
  -29.9786  -15.8057   20.6361 N   0  0  0  0  0  0
  -28.8428  -19.3885   24.4815 N   0  3  0  0  0  0
  -31.4714  -12.4775   19.1711 H   0  0  0  0  0  0
  -30.3466  -11.4100   19.9562 H   0  0  0  0  0  0
  -29.7773  -11.7123   17.5121 H   0  0  0  0  0  0
  -29.6596  -13.4408   17.7404 H   0  0  0  0  0  0
  -27.8601  -11.2872   18.8948 H   0  0  0  0  0  0
  -27.3837  -12.5459   17.7910 H   0  0  0  0  0  0
  -27.6446  -14.2578   19.4746 H   0  0  0  0  0  0
  -28.6979  -12.1454   21.4187 H   0  0  0  0  0  0
  -28.4480  -13.8332   21.7968 H   0  0  0  0  0  0
  -25.2776   -9.5664   22.4738 H   0  0  0  0  0  0
  -24.0000   -7.4624   22.7456 H   0  0  0  0  0  0
  -21.0857   -8.8760   19.8939 H   0  0  0  0  0  0
  -22.3717  -10.9646   19.6133 H   0  0  0  0  0  0
  -21.1999   -7.6142   23.9729 H   0  0  0  0  0  0
  -21.1489   -6.0509   25.9080 H   0  0  0  0  0  0
  -22.0597   -2.7613   23.2847 H   0  0  0  0  0  0
  -22.4075  -11.9820   22.4816 H   0  0  0  0  0  0
  -21.1061  -13.1174   22.2669 H   0  0  0  0  0  0
  -24.6401  -15.8433   20.5228 H   0  0  0  0  0  0
  -26.2519  -15.6418   20.0673 H   0  0  0  0  0  0
  -26.7222  -32.5421   23.1127 H   0  0  0  0  0  0
  -25.0330  -33.9711   25.0602 H   0  0  0  0  0  0
  -22.7160  -31.3096   21.4033 H   0  0  0  0  0  0
  -23.3765  -35.9596   23.3316 H   0  0  0  0  0  0
  -24.3624  -36.8869   22.2070 H   0  0  0  0  0  0
  -23.7256  -37.6463   23.6669 H   0  0  0  0  0  0
  -26.1278  -31.5687   20.6384 H   0  0  0  0  0  0
  -26.8385  -30.8158   22.0258 H   0  0  0  0  0  0
  -28.1091  -28.9588   21.1978 H   0  0  0  0  0  0
  -25.9607  -25.9815   18.9183 H   0  0  0  0  0  0
  -23.9722  -27.3554   18.9594 H   0  0  0  0  0  0
  -23.7727  -30.6356   19.4107 H   0  0  0  0  0  0
  -22.7624  -29.2873   19.8279 H   0  0  0  0  0  0
  -25.1279  -36.1889   25.0851 H   0  0  0  0  0  0
  -20.9953  -28.3275   24.1384 H   0  0  0  0  0  0
  -20.5685  -26.2331   23.3617 H   0  0  0  0  0  0
  -21.6645  -26.7439   22.1182 H   0  0  0  0  0  0
  -19.6934  -25.6280   21.1237 H   0  0  0  0  0  0
  -19.6669  -27.3142   20.6709 H   0  0  0  0  0  0
  -17.4217  -26.6665   21.3954 H   0  0  0  0  0  0
  -18.0255  -26.0044   22.8959 H   0  0  0  0  0  0
  -19.7973  -30.7203   24.2217 H   0  0  0  0  0  0
  -17.5071  -31.6237   24.5165 H   0  0  0  0  0  0
  -15.5368  -30.2981   23.7645 H   0  0  0  0  0  0
  -15.8674  -28.0807   22.7063 H   0  0  0  0  0  0
  -24.6028  -30.7024   25.7939 H   0  0  0  0  0  0
  -24.9094  -32.2847   26.5009 H   0  0  0  0  0  0
  -25.8280  -30.8884   27.0283 H   0  0  0  0  0  0
  -26.3060  -29.6651   24.1343 H   0  0  0  0  0  0
  -27.4260  -29.7297   25.4765 H   0  0  0  0  0  0
  -27.8904  -30.4288   23.9473 H   0  0  0  0  0  0
  -27.2623  -33.3657   26.2094 H   0  0  0  0  0  0
  -28.3900  -32.6961   25.0390 H   0  0  0  0  0  0
  -28.0783  -31.8567   26.5502 H   0  0  0  0  0  0
  -28.2554  -38.0084   24.7506 H   0  0  0  0  0  0
  -28.1075  -36.2622   24.6304 H   0  0  0  0  0  0
  -27.2319  -37.1425   25.8883 H   0  0  0  0  0  0
  -20.9396  -29.8918   21.6954 H   0  0  0  0  0  0
  -26.0142  -38.2837   24.1423 H   0  0  0  0  0  0
  -30.5853  -19.4571   18.6556 H   0  0  0  0  0  0
  -29.7015  -21.6787   19.1091 H   0  0  0  0  0  0
  -29.1618  -18.0290   22.3994 H   0  0  0  0  0  0
  -27.2780  -24.8424   23.1902 H   0  0  0  0  0  0
  -28.1934  -23.5816   24.0083 H   0  0  0  0  0  0
  -30.0618  -23.8518   22.6759 H   0  0  0  0  0  0
  -29.4410  -25.4487   22.2868 H   0  0  0  0  0  0
  -26.3927  -23.3369   21.6431 H   0  0  0  0  0  0
  -26.8324  -22.0981   22.6990 H   0  0  0  0  0  0
  -29.8802  -23.7310   20.3015 H   0  0  0  0  0  0
  -30.6142  -19.0302   25.6071 H   0  0  0  0  0  0
  -30.1893  -20.7328   25.4260 H   0  0  0  0  0  0
  -30.8869  -19.8339   24.0692 H   0  0  0  0  0  0
  -28.3721  -18.4475   26.3368 H   0  0  0  0  0  0
  -26.9839  -18.7551   25.3050 H   0  0  0  0  0  0
  -27.7478  -20.0875   26.1815 H   0  0  0  0  0  0
  -31.5503  -17.1938   20.3309 H   0  0  0  0  0  0
  -30.4324  -17.0457   19.0182 H   0  0  0  0  0  0
  -27.1875  -20.1511   23.4145 H   0  0  0  0  0  0
  -28.4392  -21.3189   23.8530 H   0  0  0  0  0  0
  -27.0252  -24.8348   20.3962 H   0  0  0  0  0  0
  -28.0384  -24.7381   19.0030 H   0  0  0  0  0  0
  -29.0021  -15.7342   20.8777 H   0  0  0  0  0  0
  -28.9254  -18.4974   24.0176 H   0  0  0  0  0  0
  1 25  1  0  0  0
  1 30  2  0  0  0
  1 87  1  0  0  0
  2  3  1  0  0  0
  2 25  1  0  0  0
  2 89  1  0  0  0
  2 90  1  0  0  0
  3  4  1  0  0  0
  3 91  1  0  0  0
  3 92  1  0  0  0
  4  5  1  0  0  0
  4 93  1  0  0  0
  4 94  1  0  0  0
  5  6  1  0  0  0
  5 26  1  0  0  0
  5 95  1  0  0  0
  6 25  1  0  0  0
  6 96  1  0  0  0
  6 97  1  0  0  0
  7  8  2  0  0  0
  7 26  1  0  0  0
  7 29  1  0  0  0
  8  9  1  0  0  0
  8 22  1  0  0  0
  9 10  1  0  0  0
  9 27  2  0  0  0
 10 11  2  0  0  0
 10 15  1  0  0  0
 11 12  1  0  0  0
 11 98  1  0  0  0
 12 13  2  0  0  0
 12 99  1  0  0  0
 13 14  1  0  0  0
 13 31  1  0  0  0
 14 15  2  0  0  0
 14100  1  0  0  0
 15101  1  0  0  0
 16 17  2  0  0  0
 16 21  1  0  0  0
 16 31  1  0  0  0
 17 18  1  0  0  0
 17102  1  0  0  0
 18 19  2  0  0  0
 18103  1  0  0  0
 19 20  1  0  0  0
 19 24  1  0  0  0
 20 21  2  0  0  0
 20104  1  0  0  0
 21 23  1  0  0  0
 22 28  1  0  0  0
 22 32  2  0  0  0
 26 27  1  0  0  0
 28105  1  0  0  0
 28106  1  0  0  0
 29107  1  0  0  0
 29108  1  0  0  0
 33 34  1  0  0  0
 33 66  1  0  0  0
 33 70  2  0  0  0
 34 36  1  0  0  0
 34 59  1  0  0  0
 34109  1  0  0  0
 35 44  2  0  0  0
 35 45  1  0  0  0
 35 68  1  0  0  0
 36 56  1  0  0  0
 36110  1  0  0  0
 37 39  1  0  0  0
 37 47  1  0  0  0
 37 66  1  0  0  0
 37111  1  0  0  0
 38 43  2  0  0  0
 38 46  1  0  0  0
 38 47  1  0  0  0
 39 64  1  0  0  0
 39 67  2  0  0  0
 40 52  1  0  0  0
 40 53  2  0  0  0
 40 58  1  0  0  0
 41112  1  0  0  0
 41113  1  0  0  0
 41114  1  0  0  0
 41 48  1  0  0  0
 42 43  1  0  0  0
 42 66  1  0  0  0
 42115  1  0  0  0
 42116  1  0  0  0
 43 44  1  0  0  0
 44117  1  0  0  0
 45 46  2  0  0  0
 45118  1  0  0  0
 46119  1  0  0  0
 47120  1  0  0  0
 47121  1  0  0  0
 48 56  1  0  0  0
 48 65  1  0  0  0
 48122  1  0  0  0
 49 50  1  0  0  0
 49 53  1  0  0  0
 49 64  1  0  0  0
 49123  1  0  0  0
 50 51  1  0  0  0
 50124  1  0  0  0
 50125  1  0  0  0
 51 52  1  0  0  0
 51126  1  0  0  0
 51127  1  0  0  0
 52128  1  0  0  0
 52129  1  0  0  0
 53 54  1  0  0  0
 54 55  2  0  0  0
 54130  1  0  0  0
 55 57  1  0  0  0
 55131  1  0  0  0
 56 69  2  0  0  0
 57 58  2  0  0  0
 57132  1  0  0  0
 58133  1  0  0  0
 59 60  1  0  0  0
 59 61  1  0  0  0
 59 62  1  0  0  0
 60134  1  0  0  0
 60135  1  0  0  0
 60136  1  0  0  0
 61137  1  0  0  0
 61138  1  0  0  0
 61139  1  0  0  0
 62140  1  0  0  0
 62141  1  0  0  0
 62142  1  0  0  0
 63 65  1  0  0  0
 63143  1  0  0  0
 63144  1  0  0  0
 63145  1  0  0  0
 64146  1  0  0  0
 65147  1  0  0  0
 68 85  1  0  0  0
 71 72  2  0  0  0
 71 74  1  0  0  0
 71148  1  0  0  0
 72 76  1  0  0  0
 72149  1  0  0  0
 73 74  2  0  0  0
 73 75  1  0  0  0
 73150  1  0  0  0
 74 83  1  0  0  0
 75 76  2  0  0  0
 75 84  1  0  0  0
 76 86  1  0  0  0
 77 78  1  0  0  0
 77 79  1  0  0  0
 77151  1  0  0  0
 77152  1  0  0  0
 78 80  1  0  0  0
 78153  1  0  0  0
 78154  1  0  0  0
 79 86  1  0  0  0
 79155  1  0  0  0
 79156  1  0  0  0
 80 85  1  0  0  0
 80 86  1  0  0  0
 80157  1  0  0  0
 81158  1  0  0  0
 81159  1  0  0  0
 81160  1  0  0  0
 81 88  1  0  0  0
 82 88  1  0  0  0
 82161  1  0  0  0
 82162  1  0  0  0
 82163  1  0  0  0
 83 87  1  0  0  0
 83164  1  0  0  0
 83165  1  0  0  0
 84 88  1  0  0  0
 84166  1  0  0  0
 84167  1  0  0  0
 85168  1  0  0  0
 85169  1  0  0  0
 87170  1  0  0  0
 88171  1  0  0  0
M  CHG  1  88   1
M  ISO  4   1 100  68 101  85 101  87 100
M  END
> <chiral flag>
0

> <version>
0

> <s_m_source_file>
/data/baiqing/PycharmProjects/Reinvent-master-3.2/result/LINK_invent/BTK/process_docking_weight1_custom_product_contain_oxygen_bond_distance_aromatic_linkinvent_7_9_3/rearranged_h_0024.sdf

> <i_m_source_file_index>
81

> <r_mmod_Potential_Energy-OPLS-2005>
50.7546882629395

> <r_mmod_Stretch_Energy-OPLS-2005>
94.8068618774414

> <r_mmod_Bend_Energy-OPLS-2005>
220.933486938477

> <r_mmod_Torsional_Energy-OPLS-2005>
282.730804443359

> <r_mmod_Improper_Torsional_Energy-OPLS-2005>
10.3044157028198

> <r_mmod_Van_der_Waal_Energy-OPLS-2005>
164.803131103516

> <r_mmod_Electrostatic_Energy-OPLS-2005>
-316.449188232422

> <r_mmod_Solvation_Energy-OPLS-2005>
-463.942779541016

> <b_mmod_Minimization_Converged-OPLS-2005>
0

> <r_mmod_RMS_Derivative-OPLS-2005>
4.27310228347778

$$$$
81
                    3D
 Structure written by MMmdl.
184194  0  0  1  0            999 V2000
  -30.8812  -14.1644   21.0217 C   0  0  0  0  0  0
  -30.6816  -12.3151   19.2694 C   0  0  0  0  0  0
  -29.7257  -12.5916   18.0654 C   0  0  0  0  0  0
  -28.2407  -12.6536   18.4465 C   0  0  0  0  0  0
  -28.1299  -13.5775   19.6879 C   0  0  2  0  0  0
  -28.9309  -12.8645   20.6640 C   0  0  0  0  0  0
  -25.5259  -14.7758   21.3874 C   0  0  0  0  0  0
  -24.0201  -13.6767   21.3969 C   0  0  0  0  0  0
  -24.3760  -12.0854   20.5412 C   0  0  0  0  0  0
  -23.7657  -10.6744   20.8157 C   0  0  0  0  0  0
  -24.3504   -9.5762   21.5500 C   0  0  0  0  0  0
  -23.6855   -8.3502   21.8565 C   0  0  0  0  0  0
  -22.4039   -8.1148   21.3228 C   0  0  0  0  0  0
  -21.8542   -9.1238   20.5129 C   0  0  0  0  0  0
  -22.4988  -10.3649   20.2908 C   0  0  0  0  0  0
  -21.7310   -6.1001   22.5190 C   0  0  0  0  0  0
  -21.4368   -6.5870   23.8070 C   0  0  0  0  0  0
  -21.3826   -5.7010   24.9032 C   0  0  0  0  0  0
  -21.6115   -4.3247   24.7125 C   0  0  0  0  0  0
  -21.8793   -3.8336   23.4240 C   0  0  0  0  0  0
  -21.9344   -4.7152   22.3307 C   0  0  0  0  0  0
  -22.5980  -13.9317   21.4949 C   0  0  0  0  0  0
  -22.1772   -4.2254   21.0912 F   0  0  0  0  0  0
  -21.5528   -3.4722   25.7618 F   0  0  0  0  0  0
  -30.2985  -13.0829   20.4631 N   0  0  0  0  0  0
  -26.8868  -13.6178   20.3060 N   0  0  0  0  0  0
  -25.9700  -12.0640   19.8993 N   0  0  0  0  0  0
  -21.8976  -13.0218   22.1534 N   0  0  0  0  0  0
  -25.8483  -16.0032   21.7072 N   0  0  0  0  0  0
  -31.7378  -14.7811   20.3615 O   0  0  0  0  0  0
  -21.7181   -6.9169   21.4088 O   0  0  0  0  0  0
  -22.0914  -14.8256   20.8373 O   0  0  0  0  0  0
  -24.7056  -31.7806   23.1495 C   0  0  0  0  0  0
  -25.9623  -32.4278   23.8036 C   0  0  1  0  0  0
  -26.7681  -26.4283   20.1022 C   0  0  0  0  0  0
  -25.6146  -33.8151   24.1852 N   0  0  0  0  0  0
  -23.5021  -30.4178   21.5194 C   0  0  2  0  0  0
  -24.8635  -28.7604   20.0621 C   0  0  0  0  0  0
  -22.7708  -29.4259   22.4669 C   0  0  0  0  0  0
  -18.0303  -28.1431   22.8423 C   0  0  0  0  0  0
  -24.1510  -36.7071   23.2661 C   0  0  0  0  0  0
  -26.0914  -30.3937   21.4532 C   0  0  0  0  0  0
  -26.0618  -28.9609   20.7530 C   0  0  0  0  0  0
  -27.0219  -27.8072   20.7602 C   0  0  0  0  0  0
  -25.6490  -26.5445   19.2897 C   0  0  0  0  0  0
  -24.7210  -27.6013   19.2949 C   0  0  0  0  0  0
  -23.7299  -29.7806   20.1275 C   0  0  0  0  0  0
  -25.4177  -36.2795   24.0266 C   0  0  1  0  0  0
  -20.5932  -28.3791   23.1122 C   0  0  2  0  0  0
  -20.6791  -26.9458   22.5384 C   0  0  0  0  0  0
  -19.5784  -26.6370   21.5191 C   0  0  0  0  0  0
  -18.1950  -26.7948   22.1578 C   0  0  0  0  0  0
  -19.1571  -28.8931   23.2748 C   0  0  0  0  0  0
  -18.9494  -30.1507   23.8804 C   0  0  0  0  0  0
  -17.6494  -30.6629   24.0533 C   0  0  0  0  0  0
  -25.9198  -34.9185   23.4889 C   0  0  0  0  0  0
  -16.5375  -29.9129   23.6343 C   0  0  0  0  0  0
  -16.7282  -28.6547   23.0359 C   0  0  0  0  0  0
  -26.4696  -31.6451   25.0807 C   0  0  0  0  0  0
  -25.3692  -31.3870   26.1377 C   0  0  0  0  0  0
  -27.0715  -30.2736   24.7066 C   0  0  0  0  0  0
  -27.6102  -32.4421   25.7563 C   0  0  0  0  0  0
  -27.5561  -37.1692   24.8467 C   0  0  0  0  0  0
  -21.4353  -29.3023   22.3418 N   0  0  0  0  0  0
  -26.4261  -37.3604   23.9429 N   0  0  0  0  0  0
  -24.7980  -30.9084   22.0858 N   0  0  0  0  0  0
  -23.4133  -28.7799   23.2977 O   0  0  0  0  0  0
  -27.3110  -24.9451   20.1452 O   0  0  0  0  0  0
  -26.5816  -34.8792   22.4490 O   0  0  0  0  0  0
  -23.6074  -32.1092   23.6374 O   0  0  0  0  0  0
  -27.2289  -13.8240   23.9240 C   0  0  0  0  0  0
  -25.9676  -13.3544   23.4129 C   0  0  0  0  0  0
  -28.0835  -11.8367   23.0822 C   0  0  0  0  0  0
  -28.4125  -13.1261   23.5803 C   0  0  0  0  0  0
  -25.9337  -12.7370   22.0482 C   0  0  0  0  0  0
  -26.8097  -11.6153   22.4454 C   0  0  0  0  0  0
  -30.1346  -17.8432   23.4062 C   0  0  0  0  0  0
  -23.7538  -14.6090   17.4070 C   0  0  0  0  0  0
  -31.2448  -16.8718   22.9695 C   0  0  0  0  0  0
  -29.1834  -16.6354   23.3912 C   0  0  0  0  0  0
  -24.1535  -16.0094   17.9097 C   0  0  0  0  0  0
  -24.5665  -13.5344   18.1187 C   0  0  0  0  0  0
  -30.1256  -16.0371   22.3318 C   0  0  0  0  0  0
  -25.2814  -15.9239   18.9690 C   0  0  1  0  0  0
  -26.6018  -15.9824   18.1760 C   0  0  0  0  0  0
  -23.9310  -18.3115   19.9451 C   0  0  0  0  0  0
  -29.8925  -13.7278   23.4737 C   0  0  0  0  0  0
  -26.3312  -21.2817   20.0203 C   0  0  0  0  0  0
  -26.7490  -23.2455   19.5818 C   0  0  0  0  0  0
  -25.4002  -17.9385   19.6653 C   0  0  2  0  0  0
  -24.9712  -14.0841   19.4271 N   0  0  0  0  0  0
  -30.3684  -14.5764   22.2564 N   0  0  0  0  0  0
  -26.0974  -19.6069   19.2496 N   0  3  0  0  0  0
  -26.2139  -10.6898   23.2357 F   0  0  0  0  0  0
  -31.7124  -12.5430   18.9854 H   0  0  0  0  0  0
  -30.6891  -11.2509   19.5217 H   0  0  0  0  0  0
  -29.8819  -11.8512   17.2821 H   0  0  0  0  0  0
  -30.0110  -13.5504   17.6333 H   0  0  0  0  0  0
  -27.9328  -11.6234   18.6190 H   0  0  0  0  0  0
  -27.6470  -13.0349   17.6207 H   0  0  0  0  0  0
  -28.4920  -14.5863   19.5253 H   0  0  0  0  0  0
  -28.7085  -11.8015   20.7298 H   0  0  0  0  0  0
  -28.6158  -13.4443   21.4503 H   0  0  0  0  0  0
  -25.3900   -9.5715   21.7605 H   0  0  0  0  0  0
  -24.2027   -7.5678   22.3927 H   0  0  0  0  0  0
  -20.8814   -8.9628   20.0709 H   0  0  0  0  0  0
  -21.9857  -11.1170   19.7099 H   0  0  0  0  0  0
  -21.2511   -7.6406   23.9562 H   0  0  0  0  0  0
  -21.1666   -6.0769   25.8903 H   0  0  0  0  0  0
  -22.0384   -2.7792   23.2735 H   0  0  0  0  0  0
  -22.3579  -12.2800   22.6585 H   0  0  0  0  0  0
  -20.8929  -13.1035   22.1946 H   0  0  0  0  0  0
  -25.3082  -16.5728   22.3493 H   0  0  0  0  0  0
  -26.8237  -16.2656   21.6344 H   0  0  0  0  0  0
  -26.7719  -32.4562   23.0714 H   0  0  0  0  0  0
  -25.0210  -33.9177   24.9955 H   0  0  0  0  0  0
  -22.8444  -31.2727   21.3667 H   0  0  0  0  0  0
  -23.3784  -35.9383   23.3244 H   0  0  0  0  0  0
  -24.3546  -36.8845   22.2088 H   0  0  0  0  0  0
  -23.7235  -37.6197   23.6820 H   0  0  0  0  0  0
  -26.3884  -31.1214   20.6990 H   0  0  0  0  0  0
  -26.9174  -30.3771   22.1488 H   0  0  0  0  0  0
  -27.8958  -27.9115   21.3879 H   0  0  0  0  0  0
  -25.3742  -25.6884   18.6913 H   0  0  0  0  0  0
  -23.8282  -27.4871   18.6997 H   0  0  0  0  0  0
  -23.9450  -30.5657   19.4019 H   0  0  0  0  0  0
  -22.8116  -29.3134   19.7746 H   0  0  0  0  0  0
  -25.1371  -36.1502   25.0754 H   0  0  0  0  0  0
  -20.9992  -28.3445   24.1251 H   0  0  0  0  0  0
  -20.5660  -26.2433   23.3657 H   0  0  0  0  0  0
  -21.6663  -26.7417   22.1185 H   0  0  0  0  0  0
  -19.6992  -25.6255   21.1310 H   0  0  0  0  0  0
  -19.6757  -27.3099   20.6668 H   0  0  0  0  0  0
  -17.4207  -26.6615   21.3992 H   0  0  0  0  0  0
  -18.0385  -26.0116   22.9013 H   0  0  0  0  0  0
  -19.7984  -30.7322   24.2151 H   0  0  0  0  0  0
  -17.5080  -31.6305   24.5166 H   0  0  0  0  0  0
  -15.5397  -30.3026   23.7794 H   0  0  0  0  0  0
  -15.8641  -28.0870   22.7177 H   0  0  0  0  0  0
  -24.5860  -30.7269   25.7599 H   0  0  0  0  0  0
  -24.8938  -32.3168   26.4547 H   0  0  0  0  0  0
  -25.7802  -30.9100   27.0304 H   0  0  0  0  0  0
  -26.3475  -29.6034   24.2427 H   0  0  0  0  0  0
  -27.4295  -29.7572   25.5993 H   0  0  0  0  0  0
  -27.9396  -30.3671   24.0540 H   0  0  0  0  0  0
  -27.2588  -33.3787   26.1900 H   0  0  0  0  0  0
  -28.3964  -32.6908   25.0419 H   0  0  0  0  0  0
  -28.0768  -31.8784   26.5657 H   0  0  0  0  0  0
  -28.2491  -38.0057   24.7538 H   0  0  0  0  0  0
  -28.1138  -36.2573   24.6254 H   0  0  0  0  0  0
  -27.2294  -37.1280   25.8871 H   0  0  0  0  0  0
  -20.9685  -29.8728   21.6502 H   0  0  0  0  0  0
  -26.0031  -38.2629   24.1452 H   0  0  0  0  0  0
  -27.2626  -14.7508   24.4749 H   0  0  0  0  0  0
  -25.1546  -14.0067   23.7084 H   0  0  0  0  0  0
  -28.8263  -11.0532   23.0554 H   0  0  0  0  0  0
  -29.8890  -18.5861   22.6439 H   0  0  0  0  0  0
  -30.2800  -18.3162   24.3792 H   0  0  0  0  0  0
  -23.8662  -14.5161   16.3292 H   0  0  0  0  0  0
  -22.6941  -14.4552   17.6142 H   0  0  0  0  0  0
  -31.7480  -16.3967   23.8120 H   0  0  0  0  0  0
  -31.9591  -17.2883   22.2616 H   0  0  0  0  0  0
  -28.1802  -16.8637   23.0362 H   0  0  0  0  0  0
  -29.1523  -16.1666   24.3687 H   0  0  0  0  0  0
  -23.2477  -16.4213   18.3466 H   0  0  0  0  0  0
  -24.4070  -16.6722   17.0819 H   0  0  0  0  0  0
  -25.4466  -13.2756   17.5353 H   0  0  0  0  0  0
  -23.9550  -12.6351   18.1823 H   0  0  0  0  0  0
  -29.8456  -16.4542   21.3585 H   0  0  0  0  0  0
  -26.5972  -16.8238   17.4851 H   0  0  0  0  0  0
  -26.8026  -15.0924   17.5857 H   0  0  0  0  0  0
  -27.4468  -16.1898   18.8242 H   0  0  0  0  0  0
  -23.3919  -17.5050   20.4423 H   0  0  0  0  0  0
  -23.4200  -18.5278   19.0073 H   0  0  0  0  0  0
  -23.8258  -19.2213   20.5430 H   0  0  0  0  0  0
  -30.5598  -12.8634   23.5114 H   0  0  0  0  0  0
  -30.1288  -14.2585   24.3943 H   0  0  0  0  0  0
  -25.4496  -21.3651   20.6594 H   0  0  0  0  0  0
  -27.1290  -21.0557   20.7291 H   0  0  0  0  0  0
  -25.9245  -23.4959   18.9128 H   0  0  0  0  0  0
  -27.5716  -23.0593   18.8885 H   0  0  0  0  0  0
  -25.9358  -17.9755   20.5994 H   0  0  0  0  0  0
  -25.7130  -19.8282   18.3452 H   0  0  0  0  0  0
  -27.0530  -19.3587   19.0372 H   0  0  0  0  0  0
  1 25  1  0  0  0
  1 30  2  0  0  0
  1 92  1  0  0  0
  2  3  1  0  0  0
  2 25  1  0  0  0
  2 95  1  0  0  0
  2 96  1  0  0  0
  3  4  1  0  0  0
  3 97  1  0  0  0
  3 98  1  0  0  0
  4  5  1  0  0  0
  4 99  1  0  0  0
  4100  1  0  0  0
  5  6  1  0  0  0
  5 26  1  0  0  0
  5101  1  0  0  0
  6 25  1  0  0  0
  6102  1  0  0  0
  6103  1  0  0  0
  7  8  2  0  0  0
  7 26  1  0  0  0
  7 29  1  0  0  0
  8  9  1  0  0  0
  8 22  1  0  0  0
  9 10  1  0  0  0
  9 27  2  0  0  0
 10 11  2  0  0  0
 10 15  1  0  0  0
 11 12  1  0  0  0
 11104  1  0  0  0
 12 13  2  0  0  0
 12105  1  0  0  0
 13 14  1  0  0  0
 13 31  1  0  0  0
 14 15  2  0  0  0
 14106  1  0  0  0
 15107  1  0  0  0
 16 17  2  0  0  0
 16 21  1  0  0  0
 16 31  1  0  0  0
 17 18  1  0  0  0
 17108  1  0  0  0
 18 19  2  0  0  0
 18109  1  0  0  0
 19 20  1  0  0  0
 19 24  1  0  0  0
 20 21  2  0  0  0
 20110  1  0  0  0
 21 23  1  0  0  0
 22 28  1  0  0  0
 22 32  2  0  0  0
 26 27  1  0  0  0
 28111  1  0  0  0
 28112  1  0  0  0
 29113  1  0  0  0
 29114  1  0  0  0
 33 34  1  0  0  0
 33 66  1  0  0  0
 33 70  2  0  0  0
 34 36  1  0  0  0
 34 59  1  0  0  0
 34115  1  0  0  0
 35 44  2  0  0  0
 35 45  1  0  0  0
 35 68  1  0  0  0
 36 56  1  0  0  0
 36116  1  0  0  0
 37 39  1  0  0  0
 37 47  1  0  0  0
 37 66  1  0  0  0
 37117  1  0  0  0
 38 43  2  0  0  0
 38 46  1  0  0  0
 38 47  1  0  0  0
 39 64  1  0  0  0
 39 67  2  0  0  0
 40 52  1  0  0  0
 40 53  2  0  0  0
 40 58  1  0  0  0
 41118  1  0  0  0
 41119  1  0  0  0
 41120  1  0  0  0
 41 48  1  0  0  0
 42 43  1  0  0  0
 42 66  1  0  0  0
 42121  1  0  0  0
 42122  1  0  0  0
 43 44  1  0  0  0
 44123  1  0  0  0
 45 46  2  0  0  0
 45124  1  0  0  0
 46125  1  0  0  0
 47126  1  0  0  0
 47127  1  0  0  0
 48 56  1  0  0  0
 48 65  1  0  0  0
 48128  1  0  0  0
 49 50  1  0  0  0
 49 53  1  0  0  0
 49 64  1  0  0  0
 49129  1  0  0  0
 50 51  1  0  0  0
 50130  1  0  0  0
 50131  1  0  0  0
 51 52  1  0  0  0
 51132  1  0  0  0
 51133  1  0  0  0
 52134  1  0  0  0
 52135  1  0  0  0
 53 54  1  0  0  0
 54 55  2  0  0  0
 54136  1  0  0  0
 55 57  1  0  0  0
 55137  1  0  0  0
 56 69  2  0  0  0
 57 58  2  0  0  0
 57138  1  0  0  0
 58139  1  0  0  0
 59 60  1  0  0  0
 59 61  1  0  0  0
 59 62  1  0  0  0
 60140  1  0  0  0
 60141  1  0  0  0
 60142  1  0  0  0
 61143  1  0  0  0
 61144  1  0  0  0
 61145  1  0  0  0
 62146  1  0  0  0
 62147  1  0  0  0
 62148  1  0  0  0
 63 65  1  0  0  0
 63149  1  0  0  0
 63150  1  0  0  0
 63151  1  0  0  0
 64152  1  0  0  0
 65153  1  0  0  0
 68 89  1  0  0  0
 71 72  2  0  0  0
 71 74  1  0  0  0
 71154  1  0  0  0
 72 75  1  0  0  0
 72155  1  0  0  0
 73 74  2  0  0  0
 73 76  1  0  0  0
 73156  1  0  0  0
 74 87  1  0  0  0
 75 76  2  0  0  0
 75 91  1  0  0  0
 76 94  1  0  0  0
 77 79  1  0  0  0
 77 80  1  0  0  0
 77157  1  0  0  0
 77158  1  0  0  0
 78 81  1  0  0  0
 78 82  1  0  0  0
 78159  1  0  0  0
 78160  1  0  0  0
 79 83  1  0  0  0
 79161  1  0  0  0
 79162  1  0  0  0
 80 83  1  0  0  0
 80163  1  0  0  0
 80164  1  0  0  0
 81 84  1  0  0  0
 81165  1  0  0  0
 81166  1  0  0  0
 82 91  1  0  0  0
 82167  1  0  0  0
 82168  1  0  0  0
 83 92  1  0  0  0
 83169  1  0  0  0
 84 85  1  0  0  0
 84 90  1  0  0  0
 84 91  1  0  0  0
 85170  1  0  0  0
 85171  1  0  0  0
 85172  1  0  0  0
 86173  1  0  0  0
 86174  1  0  0  0
 86175  1  0  0  0
 86 90  1  0  0  0
 87 92  1  0  0  0
 87176  1  0  0  0
 87177  1  0  0  0
 88 89  1  0  0  0
 88 93  1  0  0  0
 88178  1  0  0  0
 88179  1  0  0  0
 89180  1  0  0  0
 89181  1  0  0  0
 90 93  1  0  0  0
 90182  1  0  0  0
 93183  1  0  0  0
 93184  1  0  0  0
M  CHG  1  93   1
M  ISO  4   1 100  68 101  89 101  92 100
M  END
> <chiral flag>
0

> <version>
0

> <s_m_source_file>
/data/baiqing/PycharmProjects/Reinvent-master-3.2/result/LINK_invent/BTK/process_docking_weight1_custom_product_contain_oxygen_bond_distance_aromatic_linkinvent_7_9_3/rearranged_h_0024.sdf

> <i_m_source_file_index>
82

> <r_mmod_Potential_Energy-OPLS-2005>
17122.689453125

> <r_mmod_Stretch_Energy-OPLS-2005>
10527.3173828125

> <r_mmod_Bend_Energy-OPLS-2005>
1292.79650878906

> <r_mmod_Torsional_Energy-OPLS-2005>
797.653015136719

> <r_mmod_Improper_Torsional_Energy-OPLS-2005>
50.4096527099609

> <r_mmod_Van_der_Waal_Energy-OPLS-2005>
3438.66040039062

> <r_mmod_Electrostatic_Energy-OPLS-2005>
-244.040573120117

> <r_mmod_Solvation_Energy-OPLS-2005>
-450.997711181641

> <b_mmod_Minimization_Converged-OPLS-2005>
0

> <r_mmod_RMS_Derivative-OPLS-2005>
19.1179447174072

$$$$
82
                    3D
 Structure written by MMmdl.
159168  0  0  1  0            999 V2000
  -30.5465  -14.9262   20.4037 C   0  0  0  0  0  0
  -30.4548  -12.5654   19.4925 C   0  0  0  0  0  0
  -29.5275  -12.5119   18.2563 C   0  0  0  0  0  0
  -28.0602  -12.2976   18.6764 C   0  0  0  0  0  0
  -27.6359  -13.2397   19.8336 C   0  0  2  0  0  0
  -28.6842  -13.2653   20.9686 C   0  0  0  0  0  0
  -25.2487  -13.8191   20.5649 C   0  0  0  0  0  0
  -24.1820  -13.0434   20.9263 C   0  0  0  0  0  0
  -24.6428  -11.6929   20.8799 C   0  0  0  0  0  0
  -23.9090  -10.4311   21.0427 C   0  0  0  0  0  0
  -24.3643   -9.4208   21.9184 C   0  0  0  0  0  0
  -23.6326   -8.2238   22.0731 C   0  0  0  0  0  0
  -22.4300   -8.0287   21.3547 C   0  0  0  0  0  0
  -21.9937   -9.0262   20.4643 C   0  0  0  0  0  0
  -22.7263  -10.2150   20.3068 C   0  0  0  0  0  0
  -21.6849   -6.0756   22.5303 C   0  0  0  0  0  0
  -21.4006   -6.5655   23.8235 C   0  0  0  0  0  0
  -21.3667   -5.6790   24.9193 C   0  0  0  0  0  0
  -21.6056   -4.3058   24.7224 C   0  0  0  0  0  0
  -21.8814   -3.8170   23.4335 C   0  0  0  0  0  0
  -21.9191   -4.7000   22.3406 C   0  0  0  0  0  0
  -22.7834  -13.5192   21.1935 C   0  0  0  0  0  0
  -22.1647   -4.2186   21.0982 F   0  0  0  0  0  0
  -21.5642   -3.4536   25.7728 F   0  0  0  0  0  0
  -29.9700  -13.6601   20.3723 N   0  0  0  0  0  0
  -26.2930  -12.9411   20.3223 N   0  0  0  0  0  0
  -25.9360  -11.6563   20.5779 N   0  0  0  0  0  0
  -22.0475  -12.8199   22.0503 N   0  0  0  0  0  0
  -25.4104  -15.1911   20.3926 N   0  0  0  0  0  0
  -31.7567  -15.0222   20.1659 O   0  0  0  0  0  0
  -21.6651   -6.8901   21.4248 O   0  0  0  0  0  0
  -22.3517  -14.5480   20.6771 O   0  0  0  0  0  0
  -24.6375  -31.8444   23.1911 C   0  0  0  0  0  0
  -25.9166  -32.4693   23.8266 C   0  0  1  0  0  0
  -27.2316  -27.1722   20.1641 C   0  0  0  0  0  0
  -25.5945  -33.8503   24.2181 N   0  0  0  0  0  0
  -23.4410  -30.4661   21.5290 C   0  0  2  0  0  0
  -24.8984  -28.8983   20.1066 C   0  0  0  0  0  0
  -22.7539  -29.4567   22.4811 C   0  0  0  0  0  0
  -18.0307  -28.1395   22.8473 C   0  0  0  0  0  0
  -24.1489  -36.7277   23.2631 C   0  0  0  0  0  0
  -25.9925  -30.7339   21.3851 C   0  0  0  0  0  0
  -26.0687  -29.3469   20.7312 C   0  0  0  0  0  0
  -27.2339  -28.4991   20.7457 C   0  0  0  0  0  0
  -26.0406  -26.8198   19.4883 C   0  0  0  0  0  0
  -24.8970  -27.6478   19.4690 C   0  0  0  0  0  0
  -23.6691  -29.7933   20.1470 C   0  0  0  0  0  0
  -25.4122  -36.3039   24.0304 C   0  0  1  0  0  0
  -20.5922  -28.3723   23.1222 C   0  0  2  0  0  0
  -20.6790  -26.9423   22.5392 C   0  0  0  0  0  0
  -19.5762  -26.6374   21.5201 C   0  0  0  0  0  0
  -18.1946  -26.7927   22.1619 C   0  0  0  0  0  0
  -19.1565  -28.8871   23.2852 C   0  0  0  0  0  0
  -18.9482  -30.1470   23.8877 C   0  0  0  0  0  0
  -17.6478  -30.6593   24.0563 C   0  0  0  0  0  0
  -25.9064  -34.9412   23.5047 C   0  0  0  0  0  0
  -16.5368  -29.9089   23.6334 C   0  0  0  0  0  0
  -16.7294  -28.6513   23.0338 C   0  0  0  0  0  0
  -26.4527  -31.6557   25.0689 C   0  0  0  0  0  0
  -25.3741  -31.3787   26.1409 C   0  0  0  0  0  0
  -27.0359  -30.2931   24.6272 C   0  0  0  0  0  0
  -27.6052  -32.4333   25.7466 C   0  0  0  0  0  0
  -27.5587  -37.1781   24.8456 C   0  0  0  0  0  0
  -21.4231  -29.3069   22.3590 N   0  0  0  0  0  0
  -26.4282  -37.3758   23.9419 N   0  0  0  0  0  0
  -24.7091  -31.0356   22.0907 N   0  0  0  0  0  0
  -23.4196  -28.8091   23.2933 O   0  0  0  0  0  0
  -28.3056  -26.2243   20.2804 O   0  0  0  0  0  0
  -26.5648  -34.8911   22.4623 O   0  0  0  0  0  0
  -23.5508  -32.1288   23.7160 O   0  0  0  0  0  0
  -28.7458  -19.7119   19.3522 C   0  0  0  0  0  0
  -28.8969  -18.2738   19.4155 C   0  0  0  0  0  0
  -29.3981  -20.6597   20.2072 C   0  0  0  0  0  0
  -29.7456  -17.5727   20.3322 C   0  0  0  0  0  0
  -30.4303  -18.5014   21.1914 C   0  0  0  0  0  0
  -30.2714  -19.9615   21.1357 C   0  0  0  0  0  0
  -31.1798  -23.5400   19.6813 C   0  0  0  0  0  0
  -30.4157  -23.9673   20.9362 C   0  0  0  0  0  0
  -30.2695  -22.5288   18.9617 C   0  0  0  0  0  0
  -28.9928  -23.4433   20.7083 C   0  0  1  0  0  0
  -28.2767  -23.1365   22.0352 C   0  0  0  0  0  0
  -28.1692  -24.7145   19.9668 C   0  0  0  0  0  0
  -29.2400  -22.1238   19.9154 N   0  0  0  0  0  0
  -29.6860  -16.0448   20.4536 N   0  0  0  0  0  0
  -31.2588  -17.9808   22.1307 F   0  0  0  0  0  0
  -31.2275  -20.8756   22.2506 Cl  0  0  0  0  0  0
  -31.4862  -12.7261   19.1760 H   0  0  0  0  0  0
  -30.4531  -11.6154   20.0289 H   0  0  0  0  0  0
  -29.8467  -11.7173   17.5801 H   0  0  0  0  0  0
  -29.6128  -13.4456   17.7007 H   0  0  0  0  0  0
  -27.9667  -11.2597   18.9983 H   0  0  0  0  0  0
  -27.3948  -12.4123   17.8186 H   0  0  0  0  0  0
  -27.5970  -14.2404   19.4012 H   0  0  0  0  0  0
  -28.7633  -12.2921   21.4562 H   0  0  0  0  0  0
  -28.3884  -13.9753   21.7439 H   0  0  0  0  0  0
  -25.2776   -9.5696   22.4764 H   0  0  0  0  0  0
  -24.0073   -7.4604   22.7411 H   0  0  0  0  0  0
  -21.0878   -8.8771   19.8924 H   0  0  0  0  0  0
  -22.3703  -10.9700   19.6202 H   0  0  0  0  0  0
  -21.1974   -7.6154   23.9755 H   0  0  0  0  0  0
  -21.1497   -6.0515   25.9097 H   0  0  0  0  0  0
  -22.0588   -2.7637   23.2823 H   0  0  0  0  0  0
  -22.4050  -11.9851   22.4930 H   0  0  0  0  0  0
  -21.1082  -13.1218   22.2659 H   0  0  0  0  0  0
  -24.6275  -15.8293   20.4717 H   0  0  0  0  0  0
  -26.2243  -15.6251   19.9778 H   0  0  0  0  0  0
  -26.7212  -32.5318   23.0980 H   0  0  0  0  0  0
  -25.0080  -33.9617   25.0315 H   0  0  0  0  0  0
  -22.7453  -31.2933   21.3732 H   0  0  0  0  0  0
  -23.3754  -35.9603   23.3252 H   0  0  0  0  0  0
  -24.3583  -36.8954   22.2058 H   0  0  0  0  0  0
  -23.7221  -37.6450   23.6694 H   0  0  0  0  0  0
  -26.1388  -31.4906   20.6129 H   0  0  0  0  0  0
  -26.8644  -30.7891   22.0250 H   0  0  0  0  0  0
  -28.1218  -28.8362   21.2623 H   0  0  0  0  0  0
  -25.9572  -25.8679   18.9867 H   0  0  0  0  0  0
  -24.0075  -27.3024   18.9608 H   0  0  0  0  0  0
  -23.7992  -30.5642   19.3866 H   0  0  0  0  0  0
  -22.7886  -29.2273   19.8363 H   0  0  0  0  0  0
  -25.1301  -36.1866   25.0791 H   0  0  0  0  0  0
  -21.0051  -28.3311   24.1324 H   0  0  0  0  0  0
  -20.5656  -26.2344   23.3611 H   0  0  0  0  0  0
  -21.6653  -26.7395   22.1201 H   0  0  0  0  0  0
  -19.6922  -25.6273   21.1248 H   0  0  0  0  0  0
  -19.6700  -27.3166   20.6718 H   0  0  0  0  0  0
  -17.4209  -26.6659   21.4033 H   0  0  0  0  0  0
  -18.0380  -26.0067   22.9021 H   0  0  0  0  0  0
  -19.7961  -30.7299   24.2224 H   0  0  0  0  0  0
  -17.5032  -31.6268   24.5166 H   0  0  0  0  0  0
  -15.5369  -30.2983   23.7671 H   0  0  0  0  0  0
  -15.8694  -28.0833   22.7041 H   0  0  0  0  0  0
  -24.5848  -30.7222   25.7737 H   0  0  0  0  0  0
  -24.9033  -32.3007   26.4825 H   0  0  0  0  0  0
  -25.8022  -30.8925   27.0177 H   0  0  0  0  0  0
  -26.2951  -29.6674   24.1281 H   0  0  0  0  0  0
  -27.3947  -29.7230   25.4849 H   0  0  0  0  0  0
  -27.8882  -30.4123   23.9583 H   0  0  0  0  0  0
  -27.2589  -33.3584   26.2085 H   0  0  0  0  0  0
  -28.3830  -32.6983   25.0295 H   0  0  0  0  0  0
  -28.0765  -31.8455   26.5351 H   0  0  0  0  0  0
  -28.2569  -38.0113   24.7532 H   0  0  0  0  0  0
  -28.1113  -36.2642   24.6224 H   0  0  0  0  0  0
  -27.2322  -37.1369   25.8860 H   0  0  0  0  0  0
  -20.9428  -29.8826   21.6814 H   0  0  0  0  0  0
  -26.0151  -38.2813   24.1468 H   0  0  0  0  0  0
  -28.0902  -20.1049   18.5876 H   0  0  0  0  0  0
  -28.3228  -17.6925   18.7078 H   0  0  0  0  0  0
  -32.1446  -23.1051   19.9469 H   0  0  0  0  0  0
  -31.3761  -24.4006   19.0404 H   0  0  0  0  0  0
  -30.4604  -25.0462   21.0915 H   0  0  0  0  0  0
  -30.8615  -23.5217   21.8241 H   0  0  0  0  0  0
  -30.8494  -21.6921   18.5656 H   0  0  0  0  0  0
  -29.7859  -23.0071   18.1098 H   0  0  0  0  0  0
  -28.2402  -24.0114   22.6862 H   0  0  0  0  0  0
  -28.7748  -22.3488   22.5969 H   0  0  0  0  0  0
  -27.2497  -22.8142   21.8623 H   0  0  0  0  0  0
  -27.1162  -24.4501   20.0627 H   0  0  0  0  0  0
  -28.3733  -24.6526   18.8978 H   0  0  0  0  0  0
  -28.7362  -15.7107   20.4622 H   0  0  0  0  0  0
  1 25  1  0  0  0
  1 30  2  0  0  0
  1 84  1  0  0  0
  2  3  1  0  0  0
  2 25  1  0  0  0
  2 87  1  0  0  0
  2 88  1  0  0  0
  3  4  1  0  0  0
  3 89  1  0  0  0
  3 90  1  0  0  0
  4  5  1  0  0  0
  4 91  1  0  0  0
  4 92  1  0  0  0
  5  6  1  0  0  0
  5 26  1  0  0  0
  5 93  1  0  0  0
  6 25  1  0  0  0
  6 94  1  0  0  0
  6 95  1  0  0  0
  7  8  2  0  0  0
  7 26  1  0  0  0
  7 29  1  0  0  0
  8  9  1  0  0  0
  8 22  1  0  0  0
  9 10  1  0  0  0
  9 27  2  0  0  0
 10 11  2  0  0  0
 10 15  1  0  0  0
 11 12  1  0  0  0
 11 96  1  0  0  0
 12 13  2  0  0  0
 12 97  1  0  0  0
 13 14  1  0  0  0
 13 31  1  0  0  0
 14 15  2  0  0  0
 14 98  1  0  0  0
 15 99  1  0  0  0
 16 17  2  0  0  0
 16 21  1  0  0  0
 16 31  1  0  0  0
 17 18  1  0  0  0
 17100  1  0  0  0
 18 19  2  0  0  0
 18101  1  0  0  0
 19 20  1  0  0  0
 19 24  1  0  0  0
 20 21  2  0  0  0
 20102  1  0  0  0
 21 23  1  0  0  0
 22 28  1  0  0  0
 22 32  2  0  0  0
 26 27  1  0  0  0
 28103  1  0  0  0
 28104  1  0  0  0
 29105  1  0  0  0
 29106  1  0  0  0
 33 34  1  0  0  0
 33 66  1  0  0  0
 33 70  2  0  0  0
 34 36  1  0  0  0
 34 59  1  0  0  0
 34107  1  0  0  0
 35 44  2  0  0  0
 35 45  1  0  0  0
 35 68  1  0  0  0
 36 56  1  0  0  0
 36108  1  0  0  0
 37 39  1  0  0  0
 37 47  1  0  0  0
 37 66  1  0  0  0
 37109  1  0  0  0
 38 43  2  0  0  0
 38 46  1  0  0  0
 38 47  1  0  0  0
 39 64  1  0  0  0
 39 67  2  0  0  0
 40 52  1  0  0  0
 40 53  2  0  0  0
 40 58  1  0  0  0
 41110  1  0  0  0
 41111  1  0  0  0
 41112  1  0  0  0
 41 48  1  0  0  0
 42 43  1  0  0  0
 42 66  1  0  0  0
 42113  1  0  0  0
 42114  1  0  0  0
 43 44  1  0  0  0
 44115  1  0  0  0
 45 46  2  0  0  0
 45116  1  0  0  0
 46117  1  0  0  0
 47118  1  0  0  0
 47119  1  0  0  0
 48 56  1  0  0  0
 48 65  1  0  0  0
 48120  1  0  0  0
 49 50  1  0  0  0
 49 53  1  0  0  0
 49 64  1  0  0  0
 49121  1  0  0  0
 50 51  1  0  0  0
 50122  1  0  0  0
 50123  1  0  0  0
 51 52  1  0  0  0
 51124  1  0  0  0
 51125  1  0  0  0
 52126  1  0  0  0
 52127  1  0  0  0
 53 54  1  0  0  0
 54 55  2  0  0  0
 54128  1  0  0  0
 55 57  1  0  0  0
 55129  1  0  0  0
 56 69  2  0  0  0
 57 58  2  0  0  0
 57130  1  0  0  0
 58131  1  0  0  0
 59 60  1  0  0  0
 59 61  1  0  0  0
 59 62  1  0  0  0
 60132  1  0  0  0
 60133  1  0  0  0
 60134  1  0  0  0
 61135  1  0  0  0
 61136  1  0  0  0
 61137  1  0  0  0
 62138  1  0  0  0
 62139  1  0  0  0
 62140  1  0  0  0
 63 65  1  0  0  0
 63141  1  0  0  0
 63142  1  0  0  0
 63143  1  0  0  0
 64144  1  0  0  0
 65145  1  0  0  0
 68 82  1  0  0  0
 71 72  2  0  0  0
 71 73  1  0  0  0
 71146  1  0  0  0
 72 74  1  0  0  0
 72147  1  0  0  0
 73 76  2  0  0  0
 73 83  1  0  0  0
 74 75  2  0  0  0
 74 84  1  0  0  0
 75 76  1  0  0  0
 75 85  1  0  0  0
 76 86  1  0  0  0
 77 78  1  0  0  0
 77 79  1  0  0  0
 77148  1  0  0  0
 77149  1  0  0  0
 78 80  1  0  0  0
 78150  1  0  0  0
 78151  1  0  0  0
 79 83  1  0  0  0
 79152  1  0  0  0
 79153  1  0  0  0
 80 81  1  0  0  0
 80 82  1  0  0  0
 80 83  1  0  0  0
 81154  1  0  0  0
 81155  1  0  0  0
 81156  1  0  0  0
 82157  1  0  0  0
 82158  1  0  0  0
 84159  1  0  0  0
M  ISO  4   1 100  68 101  82 101  84 100
M  END
> <chiral flag>
0

> <version>
0

> <s_m_source_file>
/data/baiqing/PycharmProjects/Reinvent-master-3.2/result/LINK_invent/BTK/process_docking_weight1_custom_product_contain_oxygen_bond_distance_aromatic_linkinvent_7_9_3/rearranged_h_0024.sdf

> <i_m_source_file_index>
83

> <r_mmod_Potential_Energy-OPLS-2005>
594.996826171875

> <r_mmod_Stretch_Energy-OPLS-2005>
218.208709716797

> <r_mmod_Bend_Energy-OPLS-2005>
306.592987060547

> <r_mmod_Torsional_Energy-OPLS-2005>
331.519226074219

> <r_mmod_Improper_Torsional_Energy-OPLS-2005>
12.7146425247192

> <r_mmod_Van_der_Waal_Energy-OPLS-2005>
125.562599182129

> <r_mmod_Electrostatic_Energy-OPLS-2005>
-350.556488037109

> <r_mmod_Solvation_Energy-OPLS-2005>
-222.955184936523

> <b_mmod_Minimization_Converged-OPLS-2005>
0

> <r_mmod_RMS_Derivative-OPLS-2005>
3.59204721450806

$$$$
83
                    3D
 Structure written by MMmdl.
158167  0  0  1  0            999 V2000
  -30.6486  -14.5564   20.5564 C   0  0  0  0  0  0
  -30.4474  -12.3630   19.4245 C   0  0  0  0  0  0
  -29.5049  -12.5080   18.2088 C   0  0  0  0  0  0
  -28.0262  -12.3460   18.6186 C   0  0  0  0  0  0
  -27.6603  -13.1990   19.8616 C   0  0  2  0  0  0
  -28.7025  -13.0083   20.9851 C   0  0  0  0  0  0
  -25.2628  -13.8143   20.5633 C   0  0  0  0  0  0
  -24.1874  -13.0444   20.9158 C   0  0  0  0  0  0
  -24.6405  -11.6910   20.8745 C   0  0  0  0  0  0
  -23.9038  -10.4310   21.0420 C   0  0  0  0  0  0
  -24.3602   -9.4217   21.9191 C   0  0  0  0  0  0
  -23.6283   -8.2255   22.0773 C   0  0  0  0  0  0
  -22.4278   -8.0283   21.3556 C   0  0  0  0  0  0
  -21.9915   -9.0242   20.4654 C   0  0  0  0  0  0
  -22.7223  -10.2124   20.3049 C   0  0  0  0  0  0
  -21.6848   -6.0762   22.5278 C   0  0  0  0  0  0
  -21.4001   -6.5644   23.8211 C   0  0  0  0  0  0
  -21.3651   -5.6786   24.9164 C   0  0  0  0  0  0
  -21.6051   -4.3048   24.7214 C   0  0  0  0  0  0
  -21.8805   -3.8155   23.4321 C   0  0  0  0  0  0
  -21.9193   -4.6995   22.3388 C   0  0  0  0  0  0
  -22.7868  -13.5275   21.1782 C   0  0  0  0  0  0
  -22.1664   -4.2174   21.0968 F   0  0  0  0  0  0
  -21.5637   -3.4523   25.7721 F   0  0  0  0  0  0
  -30.0267  -13.3476   20.4360 N   0  0  0  0  0  0
  -26.3027  -12.9275   20.3271 N   0  0  0  0  0  0
  -25.9334  -11.6451   20.5751 N   0  0  0  0  0  0
  -22.0451  -12.8318   22.0330 N   0  0  0  0  0  0
  -25.4344  -15.1851   20.4040 N   0  0  0  0  0  0
  -31.7832  -14.7713   20.1202 O   0  0  0  0  0  0
  -21.6624   -6.8892   21.4251 O   0  0  0  0  0  0
  -22.3565  -14.5578   20.6583 O   0  0  0  0  0  0
  -24.6213  -31.8647   23.2022 C   0  0  0  0  0  0
  -25.9111  -32.4770   23.8347 C   0  0  1  0  0  0
  -27.2598  -27.3931   20.0795 C   0  0  0  0  0  0
  -25.5980  -33.8568   24.2274 N   0  0  0  0  0  0
  -23.4114  -30.4825   21.5402 C   0  0  2  0  0  0
  -24.8614  -28.9317   20.1131 C   0  0  0  0  0  0
  -22.7396  -29.4674   22.4944 C   0  0  0  0  0  0
  -18.0262  -28.1324   22.8593 C   0  0  0  0  0  0
  -24.1505  -36.7243   23.2637 C   0  0  0  0  0  0
  -25.9486  -30.8046   21.3687 C   0  0  0  0  0  0
  -26.0232  -29.4378   20.7098 C   0  0  0  0  0  0
  -27.2164  -28.6731   20.6971 C   0  0  0  0  0  0
  -26.0750  -26.9089   19.4843 C   0  0  0  0  0  0
  -24.8852  -27.6616   19.5031 C   0  0  0  0  0  0
  -23.6224  -29.8045   20.1615 C   0  0  0  0  0  0
  -25.4127  -36.3042   24.0326 C   0  0  1  0  0  0
  -20.5851  -28.3696   23.1171 C   0  0  2  0  0  0
  -20.6862  -26.9476   22.5110 C   0  0  0  0  0  0
  -19.5590  -26.6152   21.5293 C   0  0  0  0  0  0
  -18.1840  -26.7823   22.1800 C   0  0  0  0  0  0
  -19.1501  -28.8833   23.2880 C   0  0  0  0  0  0
  -18.9395  -30.1409   23.8962 C   0  0  0  0  0  0
  -17.6394  -30.6567   24.0573 C   0  0  0  0  0  0
  -25.9071  -34.9425   23.5073 C   0  0  0  0  0  0
  -16.5308  -29.9019   23.6318 C   0  0  0  0  0  0
  -16.7261  -28.6431   23.0435 C   0  0  0  0  0  0
  -26.4518  -31.6586   25.0715 C   0  0  0  0  0  0
  -25.3754  -31.3743   26.1444 C   0  0  0  0  0  0
  -27.0442  -30.3022   24.6202 C   0  0  0  0  0  0
  -27.6070  -32.4346   25.7501 C   0  0  0  0  0  0
  -27.5566  -37.1771   24.8475 C   0  0  0  0  0  0
  -21.4107  -29.3169   22.3699 N   0  0  0  0  0  0
  -26.4288  -37.3731   23.9404 N   0  0  0  0  0  0
  -24.6761  -31.0704   22.0903 N   0  0  0  0  0  0
  -23.4148  -28.8128   23.2920 O   0  0  0  0  0  0
  -28.4298  -26.6417   20.1142 O   0  0  0  0  0  0
  -26.5617  -34.8919   22.4626 O   0  0  0  0  0  0
  -23.5391  -32.1448   23.7384 O   0  0  0  0  0  0
  -29.5979  -17.9534   20.3619 C   0  0  0  0  0  0
  -30.3919  -19.7063   21.8538 C   0  0  0  0  0  0
  -30.8080  -17.3501   22.3942 C   0  0  0  0  0  0
  -29.7293  -19.3452   20.6576 C   0  0  0  0  0  0
  -30.1333  -16.9440   21.2231 C   0  0  0  0  0  0
  -30.9267  -18.7182   22.7076 C   0  0  0  0  0  0
  -28.0404  -22.2579   20.9849 C   0  0  0  0  0  0
  -27.7219  -23.7461   20.8189 C   0  0  0  0  0  0
  -29.4522  -22.9924   19.3221 C   0  0  0  0  0  0
  -28.3423  -24.0854   19.4626 C   0  0  2  0  0  0
  -29.1866  -20.4205   19.6720 C   0  0  0  0  0  0
  -28.6963  -25.5952   19.1402 C   0  0  0  0  0  0
  -28.9741  -21.8371   20.1118 N   0  0  0  0  0  0
  -29.8537  -15.5498   21.0288 N   0  0  0  0  0  0
  -27.4394  -21.5437   21.7934 O   0  0  0  0  0  0
  -31.5502  -19.0861   23.8551 F   0  0  0  0  0  0
  -31.4857  -12.5063   19.1203 H   0  0  0  0  0  0
  -30.3991  -11.3570   19.8448 H   0  0  0  0  0  0
  -29.7648  -11.7729   17.4463 H   0  0  0  0  0  0
  -29.6447  -13.4878   17.7495 H   0  0  0  0  0  0
  -27.8586  -11.2895   18.8256 H   0  0  0  0  0  0
  -27.3689  -12.5933   17.7821 H   0  0  0  0  0  0
  -27.6919  -14.2418   19.5410 H   0  0  0  0  0  0
  -28.7035  -11.9754   21.3327 H   0  0  0  0  0  0
  -28.4405  -13.6099   21.8568 H   0  0  0  0  0  0
  -25.2756   -9.5694   22.4747 H   0  0  0  0  0  0
  -24.0005   -7.4651   22.7484 H   0  0  0  0  0  0
  -21.0850   -8.8714   19.8952 H   0  0  0  0  0  0
  -22.3678  -10.9641   19.6134 H   0  0  0  0  0  0
  -21.1962   -7.6138   23.9708 H   0  0  0  0  0  0
  -21.1503   -6.0517   25.9067 H   0  0  0  0  0  0
  -22.0605   -2.7626   23.2786 H   0  0  0  0  0  0
  -22.4061  -12.0053   22.4828 H   0  0  0  0  0  0
  -21.1031  -13.1332   22.2415 H   0  0  0  0  0  0
  -24.6519  -15.8271   20.4669 H   0  0  0  0  0  0
  -26.2800  -15.6279   20.0732 H   0  0  0  0  0  0
  -26.7177  -32.5434   23.1099 H   0  0  0  0  0  0
  -25.0255  -33.9738   25.0505 H   0  0  0  0  0  0
  -22.7034  -31.2987   21.3948 H   0  0  0  0  0  0
  -23.3768  -35.9574   23.3326 H   0  0  0  0  0  0
  -24.3576  -36.8837   22.2043 H   0  0  0  0  0  0
  -23.7311  -37.6456   23.6668 H   0  0  0  0  0  0
  -26.1076  -31.5727   20.6119 H   0  0  0  0  0  0
  -26.8166  -30.8287   22.0129 H   0  0  0  0  0  0
  -28.1087  -29.0724   21.1584 H   0  0  0  0  0  0
  -26.0588  -25.9295   19.0299 H   0  0  0  0  0  0
  -23.9932  -27.2490   19.0503 H   0  0  0  0  0  0
  -23.7352  -30.5750   19.3981 H   0  0  0  0  0  0
  -22.7442  -29.2227   19.8713 H   0  0  0  0  0  0
  -25.1329  -36.1832   25.0818 H   0  0  0  0  0  0
  -20.9955  -28.3166   24.1281 H   0  0  0  0  0  0
  -20.6413  -26.2210   23.3217 H   0  0  0  0  0  0
  -21.6550  -26.7856   22.0360 H   0  0  0  0  0  0
  -19.6357  -27.2728   20.6638 H   0  0  0  0  0  0
  -19.6717  -25.5898   21.1631 H   0  0  0  0  0  0
  -17.4067  -26.6614   21.4233 H   0  0  0  0  0  0
  -18.0180  -26.0052   22.9252 H   0  0  0  0  0  0
  -19.7833  -30.7203   24.2437 H   0  0  0  0  0  0
  -17.4849  -31.6251   24.5182 H   0  0  0  0  0  0
  -15.5294  -30.2935   23.7570 H   0  0  0  0  0  0
  -15.8691  -28.0641   22.7223 H   0  0  0  0  0  0
  -24.5874  -30.7165   25.7754 H   0  0  0  0  0  0
  -24.9042  -32.2956   26.4875 H   0  0  0  0  0  0
  -25.8063  -30.8876   27.0204 H   0  0  0  0  0  0
  -26.3083  -29.6670   24.1265 H   0  0  0  0  0  0
  -27.4216  -29.7345   25.4718 H   0  0  0  0  0  0
  -27.8879  -30.4346   23.9429 H   0  0  0  0  0  0
  -27.2659  -33.3622   26.2099 H   0  0  0  0  0  0
  -28.3875  -32.6942   25.0341 H   0  0  0  0  0  0
  -28.0764  -31.8483   26.5408 H   0  0  0  0  0  0
  -28.2586  -38.0049   24.7470 H   0  0  0  0  0  0
  -28.1067  -36.2585   24.6378 H   0  0  0  0  0  0
  -27.2277  -37.1489   25.8872 H   0  0  0  0  0  0
  -20.9261  -29.8911   21.6943 H   0  0  0  0  0  0
  -26.0142  -38.2786   24.1384 H   0  0  0  0  0  0
  -29.0665  -17.6502   19.4695 H   0  0  0  0  0  0
  -30.4884  -20.7475   22.1220 H   0  0  0  0  0  0
  -31.2070  -16.6121   23.0800 H   0  0  0  0  0  0
  -28.1621  -24.3240   21.6334 H   0  0  0  0  0  0
  -26.6407  -23.9019   20.8090 H   0  0  0  0  0  0
  -29.6302  -22.7214   18.2798 H   0  0  0  0  0  0
  -30.4022  -23.3307   19.7470 H   0  0  0  0  0  0
  -27.5885  -23.8132   18.7225 H   0  0  0  0  0  0
  -28.2369  -20.0620   19.2738 H   0  0  0  0  0  0
  -29.8583  -20.4202   18.8153 H   0  0  0  0  0  0
  -28.2439  -25.8717   18.1860 H   0  0  0  0  0  0
  -29.7655  -25.6577   18.9385 H   0  0  0  0  0  0
  -28.9542  -15.2302   21.3519 H   0  0  0  0  0  0
  1 25  1  0  0  0
  1 30  2  0  0  0
  1 84  1  0  0  0
  2  3  1  0  0  0
  2 25  1  0  0  0
  2 87  1  0  0  0
  2 88  1  0  0  0
  3  4  1  0  0  0
  3 89  1  0  0  0
  3 90  1  0  0  0
  4  5  1  0  0  0
  4 91  1  0  0  0
  4 92  1  0  0  0
  5  6  1  0  0  0
  5 26  1  0  0  0
  5 93  1  0  0  0
  6 25  1  0  0  0
  6 94  1  0  0  0
  6 95  1  0  0  0
  7  8  2  0  0  0
  7 26  1  0  0  0
  7 29  1  0  0  0
  8  9  1  0  0  0
  8 22  1  0  0  0
  9 10  1  0  0  0
  9 27  2  0  0  0
 10 11  2  0  0  0
 10 15  1  0  0  0
 11 12  1  0  0  0
 11 96  1  0  0  0
 12 13  2  0  0  0
 12 97  1  0  0  0
 13 14  1  0  0  0
 13 31  1  0  0  0
 14 15  2  0  0  0
 14 98  1  0  0  0
 15 99  1  0  0  0
 16 17  2  0  0  0
 16 21  1  0  0  0
 16 31  1  0  0  0
 17 18  1  0  0  0
 17100  1  0  0  0
 18 19  2  0  0  0
 18101  1  0  0  0
 19 20  1  0  0  0
 19 24  1  0  0  0
 20 21  2  0  0  0
 20102  1  0  0  0
 21 23  1  0  0  0
 22 28  1  0  0  0
 22 32  2  0  0  0
 26 27  1  0  0  0
 28103  1  0  0  0
 28104  1  0  0  0
 29105  1  0  0  0
 29106  1  0  0  0
 33 34  1  0  0  0
 33 66  1  0  0  0
 33 70  2  0  0  0
 34 36  1  0  0  0
 34 59  1  0  0  0
 34107  1  0  0  0
 35 44  2  0  0  0
 35 45  1  0  0  0
 35 68  1  0  0  0
 36 56  1  0  0  0
 36108  1  0  0  0
 37 39  1  0  0  0
 37 47  1  0  0  0
 37 66  1  0  0  0
 37109  1  0  0  0
 38 43  2  0  0  0
 38 46  1  0  0  0
 38 47  1  0  0  0
 39 64  1  0  0  0
 39 67  2  0  0  0
 40 52  1  0  0  0
 40 53  2  0  0  0
 40 58  1  0  0  0
 41110  1  0  0  0
 41111  1  0  0  0
 41112  1  0  0  0
 41 48  1  0  0  0
 42 43  1  0  0  0
 42 66  1  0  0  0
 42113  1  0  0  0
 42114  1  0  0  0
 43 44  1  0  0  0
 44115  1  0  0  0
 45 46  2  0  0  0
 45116  1  0  0  0
 46117  1  0  0  0
 47118  1  0  0  0
 47119  1  0  0  0
 48 56  1  0  0  0
 48 65  1  0  0  0
 48120  1  0  0  0
 49 50  1  0  0  0
 49 53  1  0  0  0
 49 64  1  0  0  0
 49121  1  0  0  0
 50 51  1  0  0  0
 50122  1  0  0  0
 50123  1  0  0  0
 51 52  1  0  0  0
 51124  1  0  0  0
 51125  1  0  0  0
 52126  1  0  0  0
 52127  1  0  0  0
 53 54  1  0  0  0
 54 55  2  0  0  0
 54128  1  0  0  0
 55 57  1  0  0  0
 55129  1  0  0  0
 56 69  2  0  0  0
 57 58  2  0  0  0
 57130  1  0  0  0
 58131  1  0  0  0
 59 60  1  0  0  0
 59 61  1  0  0  0
 59 62  1  0  0  0
 60132  1  0  0  0
 60133  1  0  0  0
 60134  1  0  0  0
 61135  1  0  0  0
 61136  1  0  0  0
 61137  1  0  0  0
 62138  1  0  0  0
 62139  1  0  0  0
 62140  1  0  0  0
 63 65  1  0  0  0
 63141  1  0  0  0
 63142  1  0  0  0
 63143  1  0  0  0
 64144  1  0  0  0
 65145  1  0  0  0
 68 82  1  0  0  0
 71 74  2  0  0  0
 71 75  1  0  0  0
 71146  1  0  0  0
 72 74  1  0  0  0
 72 76  2  0  0  0
 72147  1  0  0  0
 73 75  2  0  0  0
 73 76  1  0  0  0
 73148  1  0  0  0
 74 81  1  0  0  0
 75 84  1  0  0  0
 76 86  1  0  0  0
 77 78  1  0  0  0
 77 83  1  0  0  0
 77 85  2  0  0  0
 78 80  1  0  0  0
 78149  1  0  0  0
 78150  1  0  0  0
 79 80  1  0  0  0
 79 83  1  0  0  0
 79151  1  0  0  0
 79152  1  0  0  0
 80 82  1  0  0  0
 80153  1  0  0  0
 81 83  1  0  0  0
 81154  1  0  0  0
 81155  1  0  0  0
 82156  1  0  0  0
 82157  1  0  0  0
 84158  1  0  0  0
M  ISO  4   1 100  68 101  82 101  84 100
M  END
> <chiral flag>
0

> <version>
0

> <s_m_source_file>
/data/baiqing/PycharmProjects/Reinvent-master-3.2/result/LINK_invent/BTK/process_docking_weight1_custom_product_contain_oxygen_bond_distance_aromatic_linkinvent_7_9_3/rearranged_h_0024.sdf

> <i_m_source_file_index>
84

> <r_mmod_Potential_Energy-OPLS-2005>
42.3193740844727

> <r_mmod_Stretch_Energy-OPLS-2005>
55.679744720459

> <r_mmod_Bend_Energy-OPLS-2005>
158.519226074219

> <r_mmod_Torsional_Energy-OPLS-2005>
274.770782470703

> <r_mmod_Improper_Torsional_Energy-OPLS-2005>
6.17490100860596

> <r_mmod_Van_der_Waal_Energy-OPLS-2005>
133.483016967773

> <r_mmod_Electrostatic_Energy-OPLS-2005>
-375.837738037109

> <r_mmod_Solvation_Energy-OPLS-2005>
-234.908752441406

> <b_mmod_Minimization_Converged-OPLS-2005>
0

> <r_mmod_RMS_Derivative-OPLS-2005>
6.67081308364868

$$$$
84
                    3D
 Structure written by MMmdl.
152160  0  0  1  0            999 V2000
  -30.6092  -14.7086   20.4522 C   0  0  0  0  0  0
  -30.4278  -12.4202   19.4983 C   0  0  0  0  0  0
  -29.5196  -12.5109   18.2515 C   0  0  0  0  0  0
  -28.0438  -12.3317   18.6551 C   0  0  0  0  0  0
  -27.6450  -13.2308   19.8583 C   0  0  2  0  0  0
  -28.6802  -13.1464   21.0050 C   0  0  0  0  0  0
  -25.2513  -13.8187   20.5710 C   0  0  0  0  0  0
  -24.1815  -13.0418   20.9215 C   0  0  0  0  0  0
  -24.6409  -11.6900   20.8739 C   0  0  0  0  0  0
  -23.9081  -10.4272   21.0407 C   0  0  0  0  0  0
  -24.3632   -9.4175   21.9169 C   0  0  0  0  0  0
  -23.6301   -8.2215   22.0741 C   0  0  0  0  0  0
  -22.4273   -8.0266   21.3544 C   0  0  0  0  0  0
  -21.9918   -9.0235   20.4636 C   0  0  0  0  0  0
  -22.7256  -10.2110   20.3047 C   0  0  0  0  0  0
  -21.6841   -6.0742   22.5277 C   0  0  0  0  0  0
  -21.4015   -6.5647   23.8211 C   0  0  0  0  0  0
  -21.3663   -5.6797   24.9166 C   0  0  0  0  0  0
  -21.6038   -4.3060   24.7222 C   0  0  0  0  0  0
  -21.8811   -3.8149   23.4343 C   0  0  0  0  0  0
  -21.9184   -4.6969   22.3395 C   0  0  0  0  0  0
  -22.7839  -13.5189   21.1904 C   0  0  0  0  0  0
  -22.1666   -4.2148   21.0977 F   0  0  0  0  0  0
  -21.5610   -3.4540   25.7734 F   0  0  0  0  0  0
  -29.9955  -13.4785   20.4409 N   0  0  0  0  0  0
  -26.2943  -12.9399   20.3266 N   0  0  0  0  0  0
  -25.9340  -11.6533   20.5731 N   0  0  0  0  0  0
  -22.0521  -12.8141   22.0464 N   0  0  0  0  0  0
  -25.4163  -15.1917   20.4178 N   0  0  0  0  0  0
  -31.7810  -14.8163   20.0774 O   0  0  0  0  0  0
  -21.6621   -6.8875   21.4244 O   0  0  0  0  0  0
  -22.3496  -14.5490   20.6751 O   0  0  0  0  0  0
  -24.6316  -31.8530   23.2029 C   0  0  0  0  0  0
  -25.9162  -32.4737   23.8307 C   0  0  1  0  0  0
  -27.2108  -27.2692   20.1151 C   0  0  0  0  0  0
  -25.5950  -33.8539   24.2244 N   0  0  0  0  0  0
  -23.4242  -30.4845   21.5432 C   0  0  2  0  0  0
  -24.8697  -28.9389   20.1047 C   0  0  0  0  0  0
  -22.7461  -29.4615   22.4875 C   0  0  0  0  0  0
  -18.0299  -28.1393   22.8487 C   0  0  0  0  0  0
  -24.1494  -36.7289   23.2639 C   0  0  0  0  0  0
  -25.9702  -30.7719   21.3768 C   0  0  0  0  0  0
  -26.0409  -29.3937   20.7227 C   0  0  0  0  0  0
  -27.2117  -28.5688   20.7249 C   0  0  0  0  0  0
  -26.0205  -26.8963   19.4452 C   0  0  0  0  0  0
  -24.8636  -27.6980   19.4549 C   0  0  0  0  0  0
  -23.6405  -29.8260   20.1561 C   0  0  0  0  0  0
  -25.4111  -36.3051   24.0322 C   0  0  1  0  0  0
  -20.5896  -28.3736   23.1273 C   0  0  2  0  0  0
  -20.6833  -26.9419   22.5497 C   0  0  0  0  0  0
  -19.5825  -26.6330   21.5325 C   0  0  0  0  0  0
  -18.1999  -26.7898   22.1705 C   0  0  0  0  0  0
  -19.1536  -28.8884   23.2861 C   0  0  0  0  0  0
  -18.9442  -30.1490   23.8861 C   0  0  0  0  0  0
  -17.6437  -30.6592   24.0536 C   0  0  0  0  0  0
  -25.9056  -34.9429   23.5081 C   0  0  0  0  0  0
  -16.5333  -29.9081   23.6309 C   0  0  0  0  0  0
  -16.7279  -28.6500   23.0325 C   0  0  0  0  0  0
  -26.4540  -31.6559   25.0684 C   0  0  0  0  0  0
  -25.3780  -31.3697   26.1418 C   0  0  0  0  0  0
  -27.0373  -30.2978   24.6136 C   0  0  0  0  0  0
  -27.6086  -32.4278   25.7464 C   0  0  0  0  0  0
  -27.5568  -37.1799   24.8462 C   0  0  0  0  0  0
  -21.4173  -29.3053   22.3610 N   0  0  0  0  0  0
  -26.4274  -37.3764   23.9416 N   0  0  0  0  0  0
  -24.6958  -31.0528   22.0976 N   0  0  0  0  0  0
  -23.4159  -28.8143   23.2966 O   0  0  0  0  0  0
  -28.2964  -26.3623   20.1903 O   0  0  0  0  0  0
  -26.5630  -34.8914   22.4644 O   0  0  0  0  0  0
  -23.5477  -32.1300   23.7382 O   0  0  0  0  0  0
  -30.1603  -17.2087   18.6721 C   0  0  0  0  0  0
  -29.7963  -19.6365   18.5928 C   0  0  0  0  0  0
  -29.8845  -17.1567   20.0601 C   0  0  0  0  0  0
  -29.5173  -19.6984   19.9777 C   0  0  0  0  0  0
  -30.1057  -18.4192   17.9551 C   0  0  0  0  0  0
  -29.5523  -18.4266   20.6922 C   0  0  0  0  0  0
  -28.9667  -23.6922   20.4357 C   0  0  0  0  0  0
  -28.6555  -22.1963   19.8976 C   0  0  0  0  0  0
  -28.0564  -24.9102   19.8824 C   0  0  0  0  0  0
  -29.8505  -15.8304   20.7270 N   0  0  0  0  0  0
  -29.2512  -20.9859   20.5966 N   0  0  0  0  0  0
  -30.3516  -18.4134   16.6227 F   0  0  0  0  0  0
  -29.2608  -18.4283   22.0168 F   0  0  0  0  0  0
  -31.4783  -12.5146   19.2145 H   0  0  0  0  0  0
  -30.3319  -11.4416   19.9701 H   0  0  0  0  0  0
  -29.8089  -11.7570   17.5178 H   0  0  0  0  0  0
  -29.6541  -13.4771   17.7641 H   0  0  0  0  0  0
  -27.9098  -11.2826   18.9266 H   0  0  0  0  0  0
  -27.3896  -12.5163   17.8030 H   0  0  0  0  0  0
  -27.6475  -14.2563   19.4879 H   0  0  0  0  0  0
  -28.6948  -12.1475   21.4436 H   0  0  0  0  0  0
  -28.4169  -13.8279   21.8163 H   0  0  0  0  0  0
  -25.2797   -9.5613   22.4738 H   0  0  0  0  0  0
  -23.9979   -7.4601   22.7476 H   0  0  0  0  0  0
  -21.0827   -8.8772   19.8972 H   0  0  0  0  0  0
  -22.3721  -10.9651   19.6145 H   0  0  0  0  0  0
  -21.2033   -7.6158   23.9707 H   0  0  0  0  0  0
  -21.1503   -6.0534   25.9062 H   0  0  0  0  0  0
  -22.0596   -2.7615   23.2835 H   0  0  0  0  0  0
  -22.4169  -11.9787   22.4799 H   0  0  0  0  0  0
  -21.1161  -13.1154   22.2771 H   0  0  0  0  0  0
  -24.6366  -15.8355   20.4991 H   0  0  0  0  0  0
  -26.2564  -15.6371   20.0732 H   0  0  0  0  0  0
  -26.7212  -32.5400   23.1030 H   0  0  0  0  0  0
  -25.0081  -33.9646   25.0378 H   0  0  0  0  0  0
  -22.7210  -31.3083   21.4053 H   0  0  0  0  0  0
  -23.3731  -35.9649   23.3286 H   0  0  0  0  0  0
  -24.3589  -36.8923   22.2057 H   0  0  0  0  0  0
  -23.7279  -37.6499   23.6673 H   0  0  0  0  0  0
  -26.0954  -31.5284   20.5998 H   0  0  0  0  0  0
  -26.8561  -30.8289   21.9972 H   0  0  0  0  0  0
  -28.1071  -28.9047   21.2318 H   0  0  0  0  0  0
  -25.9461  -25.9625   18.9075 H   0  0  0  0  0  0
  -23.9697  -27.3550   18.9528 H   0  0  0  0  0  0
  -23.7595  -30.6060   19.4015 H   0  0  0  0  0  0
  -22.7597  -29.2576   19.8534 H   0  0  0  0  0  0
  -25.1304  -36.1862   25.0812 H   0  0  0  0  0  0
  -20.9967  -28.3363   24.1402 H   0  0  0  0  0  0
  -20.5761  -26.2315   23.3725 H   0  0  0  0  0  0
  -21.6717  -26.7478   22.1334 H   0  0  0  0  0  0
  -19.7007  -25.6202   21.1455 H   0  0  0  0  0  0
  -19.6842  -27.3089   20.6816 H   0  0  0  0  0  0
  -17.4281  -26.6544   21.4101 H   0  0  0  0  0  0
  -18.0430  -26.0105   22.9187 H   0  0  0  0  0  0
  -19.7896  -30.7361   24.2224 H   0  0  0  0  0  0
  -17.4981  -31.6274   24.5135 H   0  0  0  0  0  0
  -15.5334  -30.2986   23.7643 H   0  0  0  0  0  0
  -15.8681  -28.0827   22.7017 H   0  0  0  0  0  0
  -24.5989  -30.7002   25.7768 H   0  0  0  0  0  0
  -24.8937  -32.2857   26.4796 H   0  0  0  0  0  0
  -25.8114  -30.8923   27.0211 H   0  0  0  0  0  0
  -26.2935  -29.6706   24.1210 H   0  0  0  0  0  0
  -27.4130  -29.7254   25.4626 H   0  0  0  0  0  0
  -27.8781  -30.4259   23.9317 H   0  0  0  0  0  0
  -27.2709  -33.3587   26.2025 H   0  0  0  0  0  0
  -28.3927  -32.6795   25.0316 H   0  0  0  0  0  0
  -28.0716  -31.8384   26.5391 H   0  0  0  0  0  0
  -28.2593  -38.0088   24.7506 H   0  0  0  0  0  0
  -28.1048  -36.2620   24.6276 H   0  0  0  0  0  0
  -27.2296  -37.1457   25.8868 H   0  0  0  0  0  0
  -20.9350  -29.8612   21.6688 H   0  0  0  0  0  0
  -26.0127  -38.2832   24.1386 H   0  0  0  0  0  0
  -30.3894  -16.3080   18.1223 H   0  0  0  0  0  0
  -29.7978  -20.5245   17.9821 H   0  0  0  0  0  0
  -30.0081  -23.9179   20.2053 H   0  0  0  0  0  0
  -28.8985  -23.6990   21.5236 H   0  0  0  0  0  0
  -27.5746  -22.0486   19.9207 H   0  0  0  0  0  0
  -28.9168  -22.1846   18.8402 H   0  0  0  0  0  0
  -27.0557  -24.6525   20.2269 H   0  0  0  0  0  0
  -28.0240  -24.8290   18.7937 H   0  0  0  0  0  0
  -29.0225  -15.6593   21.2795 H   0  0  0  0  0  0
  -29.0528  -20.9227   21.5944 H   0  0  0  0  0  0
  1 25  1  0  0  0
  1 30  2  0  0  0
  1 80  1  0  0  0
  2  3  1  0  0  0
  2 25  1  0  0  0
  2 84  1  0  0  0
  2 85  1  0  0  0
  3  4  1  0  0  0
  3 86  1  0  0  0
  3 87  1  0  0  0
  4  5  1  0  0  0
  4 88  1  0  0  0
  4 89  1  0  0  0
  5  6  1  0  0  0
  5 26  1  0  0  0
  5 90  1  0  0  0
  6 25  1  0  0  0
  6 91  1  0  0  0
  6 92  1  0  0  0
  7  8  2  0  0  0
  7 26  1  0  0  0
  7 29  1  0  0  0
  8  9  1  0  0  0
  8 22  1  0  0  0
  9 10  1  0  0  0
  9 27  2  0  0  0
 10 11  2  0  0  0
 10 15  1  0  0  0
 11 12  1  0  0  0
 11 93  1  0  0  0
 12 13  2  0  0  0
 12 94  1  0  0  0
 13 14  1  0  0  0
 13 31  1  0  0  0
 14 15  2  0  0  0
 14 95  1  0  0  0
 15 96  1  0  0  0
 16 17  2  0  0  0
 16 21  1  0  0  0
 16 31  1  0  0  0
 17 18  1  0  0  0
 17 97  1  0  0  0
 18 19  2  0  0  0
 18 98  1  0  0  0
 19 20  1  0  0  0
 19 24  1  0  0  0
 20 21  2  0  0  0
 20 99  1  0  0  0
 21 23  1  0  0  0
 22 28  1  0  0  0
 22 32  2  0  0  0
 26 27  1  0  0  0
 28100  1  0  0  0
 28101  1  0  0  0
 29102  1  0  0  0
 29103  1  0  0  0
 33 34  1  0  0  0
 33 66  1  0  0  0
 33 70  2  0  0  0
 34 36  1  0  0  0
 34 59  1  0  0  0
 34104  1  0  0  0
 35 44  2  0  0  0
 35 45  1  0  0  0
 35 68  1  0  0  0
 36 56  1  0  0  0
 36105  1  0  0  0
 37 39  1  0  0  0
 37 47  1  0  0  0
 37 66  1  0  0  0
 37106  1  0  0  0
 38 43  2  0  0  0
 38 46  1  0  0  0
 38 47  1  0  0  0
 39 64  1  0  0  0
 39 67  2  0  0  0
 40 52  1  0  0  0
 40 53  2  0  0  0
 40 58  1  0  0  0
 41107  1  0  0  0
 41108  1  0  0  0
 41109  1  0  0  0
 41 48  1  0  0  0
 42 43  1  0  0  0
 42 66  1  0  0  0
 42110  1  0  0  0
 42111  1  0  0  0
 43 44  1  0  0  0
 44112  1  0  0  0
 45 46  2  0  0  0
 45113  1  0  0  0
 46114  1  0  0  0
 47115  1  0  0  0
 47116  1  0  0  0
 48 56  1  0  0  0
 48 65  1  0  0  0
 48117  1  0  0  0
 49 50  1  0  0  0
 49 53  1  0  0  0
 49 64  1  0  0  0
 49118  1  0  0  0
 50 51  1  0  0  0
 50119  1  0  0  0
 50120  1  0  0  0
 51 52  1  0  0  0
 51121  1  0  0  0
 51122  1  0  0  0
 52123  1  0  0  0
 52124  1  0  0  0
 53 54  1  0  0  0
 54 55  2  0  0  0
 54125  1  0  0  0
 55 57  1  0  0  0
 55126  1  0  0  0
 56 69  2  0  0  0
 57 58  2  0  0  0
 57127  1  0  0  0
 58128  1  0  0  0
 59 60  1  0  0  0
 59 61  1  0  0  0
 59 62  1  0  0  0
 60129  1  0  0  0
 60130  1  0  0  0
 60131  1  0  0  0
 61132  1  0  0  0
 61133  1  0  0  0
 61134  1  0  0  0
 62135  1  0  0  0
 62136  1  0  0  0
 62137  1  0  0  0
 63 65  1  0  0  0
 63138  1  0  0  0
 63139  1  0  0  0
 63140  1  0  0  0
 64141  1  0  0  0
 65142  1  0  0  0
 68 79  1  0  0  0
 71 73  2  0  0  0
 71 75  1  0  0  0
 71143  1  0  0  0
 72 74  1  0  0  0
 72 75  2  0  0  0
 72144  1  0  0  0
 73 76  1  0  0  0
 73 80  1  0  0  0
 74 76  2  0  0  0
 74 81  1  0  0  0
 75 82  1  0  0  0
 76 83  1  0  0  0
 77 78  1  0  0  0
 77 79  1  0  0  0
 77145  1  0  0  0
 77146  1  0  0  0
 78 81  1  0  0  0
 78147  1  0  0  0
 78148  1  0  0  0
 79149  1  0  0  0
 79150  1  0  0  0
 80151  1  0  0  0
 81152  1  0  0  0
M  ISO  4   1 100  68 101  79 101  80 100
M  END
> <chiral flag>
0

> <version>
0

> <s_m_source_file>
/data/baiqing/PycharmProjects/Reinvent-master-3.2/result/LINK_invent/BTK/process_docking_weight1_custom_product_contain_oxygen_bond_distance_aromatic_linkinvent_7_9_3/rearranged_h_0024.sdf

> <i_m_source_file_index>
85

> <r_mmod_Potential_Energy-OPLS-2005>
201.890594482422

> <r_mmod_Stretch_Energy-OPLS-2005>
116.858673095703

> <r_mmod_Bend_Energy-OPLS-2005>
157.572952270508

> <r_mmod_Torsional_Energy-OPLS-2005>
228.71467590332

> <r_mmod_Improper_Torsional_Energy-OPLS-2005>
6.8513445854187

> <r_mmod_Van_der_Waal_Energy-OPLS-2005>
145.279556274414

> <r_mmod_Electrostatic_Energy-OPLS-2005>
-315.329956054688

> <r_mmod_Solvation_Energy-OPLS-2005>
-215.915100097656

> <b_mmod_Minimization_Converged-OPLS-2005>
0

> <r_mmod_RMS_Derivative-OPLS-2005>
3.80539059638977

$$$$
85
                    3D
 Structure written by MMmdl.
156165  0  0  1  0            999 V2000
  -30.5640  -14.6657   20.5411 C   0  0  0  0  0  0
  -30.4509  -12.4086   19.4749 C   0  0  0  0  0  0
  -29.5252  -12.5115   18.2406 C   0  0  0  0  0  0
  -28.0457  -12.3348   18.6413 C   0  0  0  0  0  0
  -27.6516  -13.2116   19.8587 C   0  0  2  0  0  0
  -28.6831  -13.0569   20.9994 C   0  0  0  0  0  0
  -25.2522  -13.8195   20.5525 C   0  0  0  0  0  0
  -24.1805  -13.0450   20.9193 C   0  0  0  0  0  0
  -24.6377  -11.6936   20.8744 C   0  0  0  0  0  0
  -23.9032  -10.4310   21.0422 C   0  0  0  0  0  0
  -24.3598   -9.4219   21.9177 C   0  0  0  0  0  0
  -23.6292   -8.2250   22.0735 C   0  0  0  0  0  0
  -22.4264   -8.0286   21.3551 C   0  0  0  0  0  0
  -21.9885   -9.0257   20.4659 C   0  0  0  0  0  0
  -22.7204  -10.2154   20.3072 C   0  0  0  0  0  0
  -21.6850   -6.0728   22.5277 C   0  0  0  0  0  0
  -21.4020   -6.5632   23.8212 C   0  0  0  0  0  0
  -21.3647   -5.6788   24.9171 C   0  0  0  0  0  0
  -21.6045   -4.3046   24.7228 C   0  0  0  0  0  0
  -21.8819   -3.8137   23.4349 C   0  0  0  0  0  0
  -21.9200   -4.6958   22.3405 C   0  0  0  0  0  0
  -22.7834  -13.5270   21.1875 C   0  0  0  0  0  0
  -22.1657   -4.2137   21.0980 F   0  0  0  0  0  0
  -21.5630   -3.4530   25.7735 F   0  0  0  0  0  0
  -30.0031  -13.4141   20.4581 N   0  0  0  0  0  0
  -26.2927  -12.9349   20.3189 N   0  0  0  0  0  0
  -25.9298  -11.6515   20.5725 N   0  0  0  0  0  0
  -22.0457  -12.8272   22.0439 N   0  0  0  0  0  0
  -25.4165  -15.1911   20.3771 N   0  0  0  0  0  0
  -31.7037  -14.8885   20.1245 O   0  0  0  0  0  0
  -21.6643   -6.8870   21.4237 O   0  0  0  0  0  0
  -22.3505  -14.5543   20.6695 O   0  0  0  0  0  0
  -24.6329  -31.8564   23.2019 C   0  0  0  0  0  0
  -25.9147  -32.4736   23.8409 C   0  0  1  0  0  0
  -27.2425  -27.2534   20.1604 C   0  0  0  0  0  0
  -25.5948  -33.8536   24.2308 N   0  0  0  0  0  0
  -23.4359  -30.4825   21.5378 C   0  0  2  0  0  0
  -24.8945  -28.9249   20.1228 C   0  0  0  0  0  0
  -22.7550  -29.4617   22.4832 C   0  0  0  0  0  0
  -18.0289  -28.1476   22.8489 C   0  0  0  0  0  0
  -24.1496  -36.7264   23.2618 C   0  0  0  0  0  0
  -25.9865  -30.7720   21.3944 C   0  0  0  0  0  0
  -26.0643  -29.3908   20.7364 C   0  0  0  0  0  0
  -27.2379  -28.5690   20.7445 C   0  0  0  0  0  0
  -26.0550  -26.8746   19.4937 C   0  0  0  0  0  0
  -24.8958  -27.6707   19.4906 C   0  0  0  0  0  0
  -23.6773  -29.8281   20.1530 C   0  0  0  0  0  0
  -25.4096  -36.3031   24.0331 C   0  0  1  0  0  0
  -20.5911  -28.3771   23.1285 C   0  0  2  0  0  0
  -20.6758  -26.9480   22.5437 C   0  0  0  0  0  0
  -19.5723  -26.6449   21.5244 C   0  0  0  0  0  0
  -18.1900  -26.8016   22.1638 C   0  0  0  0  0  0
  -19.1545  -28.8930   23.2899 C   0  0  0  0  0  0
  -18.9456  -30.1520   23.8945 C   0  0  0  0  0  0
  -17.6455  -30.6643   24.0626 C   0  0  0  0  0  0
  -25.9069  -34.9406   23.5128 C   0  0  0  0  0  0
  -16.5354  -29.9184   23.6337 C   0  0  0  0  0  0
  -16.7276  -28.6618   23.0331 C   0  0  0  0  0  0
  -26.4508  -31.6535   25.0796 C   0  0  0  0  0  0
  -25.3726  -31.3751   26.1538 C   0  0  0  0  0  0
  -27.0327  -30.2900   24.6366 C   0  0  0  0  0  0
  -27.6139  -32.4225   25.7492 C   0  0  0  0  0  0
  -27.5599  -37.1771   24.8429 C   0  0  0  0  0  0
  -21.4223  -29.3128   22.3674 N   0  0  0  0  0  0
  -26.4255  -37.3747   23.9460 N   0  0  0  0  0  0
  -24.7019  -31.0599   22.0955 N   0  0  0  0  0  0
  -23.4255  -28.8077   23.2869 O   0  0  0  0  0  0
  -28.3123  -26.3237   20.2528 O   0  0  0  0  0  0
  -26.5641  -34.8875   22.4696 O   0  0  0  0  0  0
  -23.5471  -32.1342   23.7302 O   0  0  0  0  0  0
  -30.0921  -19.3382   20.0099 C   0  0  0  0  0  0
  -30.2795  -17.9223   20.0341 C   0  0  0  0  0  0
  -28.7619  -17.7940   21.8801 C   0  0  0  0  0  0
  -29.2982  -20.0886   20.9274 C   0  0  0  0  0  0
  -29.6296  -17.1016   20.9800 C   0  0  0  0  0  0
  -28.6280  -19.2336   21.8710 C   0  0  0  0  0  0
  -29.0225  -22.2819   19.5883 C   0  0  0  0  0  0
  -28.5520  -22.5964   21.5432 C   0  0  0  0  0  0
  -28.9783  -23.6141   20.4153 C   0  0  0  0  0  0
  -27.9619  -16.9549   22.8728 C   0  0  0  0  0  0
  -28.0550  -24.8593   19.9603 C   0  0  0  0  0  0
  -29.3481  -21.5737   20.8331 N   0  0  0  0  0  0
  -29.7060  -15.6321   21.0177 N   0  0  0  0  0  0
  -27.8305  -19.8028   22.8100 F   0  0  0  0  0  0
  -31.4943  -12.5566   19.1879 H   0  0  0  0  0  0
  -30.4007  -11.4130   19.9169 H   0  0  0  0  0  0
  -29.8078  -11.7699   17.4939 H   0  0  0  0  0  0
  -29.6605  -13.4863   17.7703 H   0  0  0  0  0  0
  -27.8902  -11.2831   18.8858 H   0  0  0  0  0  0
  -27.3967  -12.5518   17.7915 H   0  0  0  0  0  0
  -27.6715  -14.2452   19.5108 H   0  0  0  0  0  0
  -28.6943  -12.0354   21.3803 H   0  0  0  0  0  0
  -28.3996  -13.6734   21.8537 H   0  0  0  0  0  0
  -25.2753   -9.5702   22.4722 H   0  0  0  0  0  0
  -24.0028   -7.4630   22.7430 H   0  0  0  0  0  0
  -21.0810   -8.8787   19.8956 H   0  0  0  0  0  0
  -22.3656  -10.9692   19.6177 H   0  0  0  0  0  0
  -21.2005   -7.6139   23.9706 H   0  0  0  0  0  0
  -21.1458   -6.0510   25.9070 H   0  0  0  0  0  0
  -22.0605   -2.7597   23.2849 H   0  0  0  0  0  0
  -22.4047  -11.9957   22.4871 H   0  0  0  0  0  0
  -21.1045  -13.1281   22.2577 H   0  0  0  0  0  0
  -24.6412  -15.8373   20.4770 H   0  0  0  0  0  0
  -26.2340  -15.6246   19.9638 H   0  0  0  0  0  0
  -26.7252  -32.5420   23.1194 H   0  0  0  0  0  0
  -25.0049  -33.9675   25.0429 H   0  0  0  0  0  0
  -22.7281  -31.3009   21.3875 H   0  0  0  0  0  0
  -23.3738  -35.9608   23.3187 H   0  0  0  0  0  0
  -24.3632  -36.8972   22.2055 H   0  0  0  0  0  0
  -23.7247  -37.6442   23.6697 H   0  0  0  0  0  0
  -26.1699  -31.5495   20.6496 H   0  0  0  0  0  0
  -26.8387  -30.7954   22.0603 H   0  0  0  0  0  0
  -28.1289  -28.9276   21.2455 H   0  0  0  0  0  0
  -25.9990  -25.9282   18.9808 H   0  0  0  0  0  0
  -24.0124  -27.2983   18.9920 H   0  0  0  0  0  0
  -23.8699  -30.6182   19.4273 H   0  0  0  0  0  0
  -22.7880  -29.3136   19.7905 H   0  0  0  0  0  0
  -25.1254  -36.1844   25.0810 H   0  0  0  0  0  0
  -21.0025  -28.3347   24.1403 H   0  0  0  0  0  0
  -20.5636  -26.2394   23.3656 H   0  0  0  0  0  0
  -21.6632  -26.7491   22.1252 H   0  0  0  0  0  0
  -19.6862  -25.6350   21.1314 H   0  0  0  0  0  0
  -19.6659  -27.3244   20.6759 H   0  0  0  0  0  0
  -17.4186  -26.6805   21.4023 H   0  0  0  0  0  0
  -18.0243  -26.0177   22.9043 H   0  0  0  0  0  0
  -19.7919  -30.7332   24.2342 H   0  0  0  0  0  0
  -17.5014  -31.6295   24.5292 H   0  0  0  0  0  0
  -15.5365  -30.3122   23.7627 H   0  0  0  0  0  0
  -15.8667  -28.0991   22.6986 H   0  0  0  0  0  0
  -24.5916  -30.7043   25.7932 H   0  0  0  0  0  0
  -24.8882  -32.2929   26.4884 H   0  0  0  0  0  0
  -25.8052  -30.9028   27.0366 H   0  0  0  0  0  0
  -26.2947  -29.6614   24.1365 H   0  0  0  0  0  0
  -27.3887  -29.7211   25.4966 H   0  0  0  0  0  0
  -27.8890  -30.4064   23.9716 H   0  0  0  0  0  0
  -27.2847  -33.3522   26.2128 H   0  0  0  0  0  0
  -28.3887  -32.6761   25.0245 H   0  0  0  0  0  0
  -28.0873  -31.8289   26.5321 H   0  0  0  0  0  0
  -28.2540  -38.0151   24.7579 H   0  0  0  0  0  0
  -28.1188  -36.2701   24.6065 H   0  0  0  0  0  0
  -27.2405  -37.1197   25.8854 H   0  0  0  0  0  0
  -20.9372  -29.9028   21.7048 H   0  0  0  0  0  0
  -26.0092  -38.2790   24.1540 H   0  0  0  0  0  0
  -30.6179  -19.8837   19.2434 H   0  0  0  0  0  0
  -30.9217  -17.4708   19.2930 H   0  0  0  0  0  0
  -29.8058  -22.2445   18.8290 H   0  0  0  0  0  0
  -28.0351  -22.0084   19.2049 H   0  0  0  0  0  0
  -27.4687  -22.4356   21.5123 H   0  0  0  0  0  0
  -28.9101  -22.8741   22.5355 H   0  0  0  0  0  0
  -30.0317  -23.9032   20.5026 H   0  0  0  0  0  0
  -27.2948  -16.2790   22.3320 H   0  0  0  0  0  0
  -27.3482  -17.5529   23.5477 H   0  0  0  0  0  0
  -28.6357  -16.3435   23.4778 H   0  0  0  0  0  0
  -27.0549  -24.6070   20.3130 H   0  0  0  0  0  0
  -27.9719  -24.8006   18.8746 H   0  0  0  0  0  0
  -28.8812  -15.2001   21.3991 H   0  0  0  0  0  0
  1 25  1  0  0  0
  1 30  2  0  0  0
  1 83  1  0  0  0
  2  3  1  0  0  0
  2 25  1  0  0  0
  2 85  1  0  0  0
  2 86  1  0  0  0
  3  4  1  0  0  0
  3 87  1  0  0  0
  3 88  1  0  0  0
  4  5  1  0  0  0
  4 89  1  0  0  0
  4 90  1  0  0  0
  5  6  1  0  0  0
  5 26  1  0  0  0
  5 91  1  0  0  0
  6 25  1  0  0  0
  6 92  1  0  0  0
  6 93  1  0  0  0
  7  8  2  0  0  0
  7 26  1  0  0  0
  7 29  1  0  0  0
  8  9  1  0  0  0
  8 22  1  0  0  0
  9 10  1  0  0  0
  9 27  2  0  0  0
 10 11  2  0  0  0
 10 15  1  0  0  0
 11 12  1  0  0  0
 11 94  1  0  0  0
 12 13  2  0  0  0
 12 95  1  0  0  0
 13 14  1  0  0  0
 13 31  1  0  0  0
 14 15  2  0  0  0
 14 96  1  0  0  0
 15 97  1  0  0  0
 16 17  2  0  0  0
 16 21  1  0  0  0
 16 31  1  0  0  0
 17 18  1  0  0  0
 17 98  1  0  0  0
 18 19  2  0  0  0
 18 99  1  0  0  0
 19 20  1  0  0  0
 19 24  1  0  0  0
 20 21  2  0  0  0
 20100  1  0  0  0
 21 23  1  0  0  0
 22 28  1  0  0  0
 22 32  2  0  0  0
 26 27  1  0  0  0
 28101  1  0  0  0
 28102  1  0  0  0
 29103  1  0  0  0
 29104  1  0  0  0
 33 34  1  0  0  0
 33 66  1  0  0  0
 33 70  2  0  0  0
 34 36  1  0  0  0
 34 59  1  0  0  0
 34105  1  0  0  0
 35 44  2  0  0  0
 35 45  1  0  0  0
 35 68  1  0  0  0
 36 56  1  0  0  0
 36106  1  0  0  0
 37 39  1  0  0  0
 37 47  1  0  0  0
 37 66  1  0  0  0
 37107  1  0  0  0
 38 43  2  0  0  0
 38 46  1  0  0  0
 38 47  1  0  0  0
 39 64  1  0  0  0
 39 67  2  0  0  0
 40 52  1  0  0  0
 40 53  2  0  0  0
 40 58  1  0  0  0
 41108  1  0  0  0
 41109  1  0  0  0
 41110  1  0  0  0
 41 48  1  0  0  0
 42 43  1  0  0  0
 42 66  1  0  0  0
 42111  1  0  0  0
 42112  1  0  0  0
 43 44  1  0  0  0
 44113  1  0  0  0
 45 46  2  0  0  0
 45114  1  0  0  0
 46115  1  0  0  0
 47116  1  0  0  0
 47117  1  0  0  0
 48 56  1  0  0  0
 48 65  1  0  0  0
 48118  1  0  0  0
 49 50  1  0  0  0
 49 53  1  0  0  0
 49 64  1  0  0  0
 49119  1  0  0  0
 50 51  1  0  0  0
 50120  1  0  0  0
 50121  1  0  0  0
 51 52  1  0  0  0
 51122  1  0  0  0
 51123  1  0  0  0
 52124  1  0  0  0
 52125  1  0  0  0
 53 54  1  0  0  0
 54 55  2  0  0  0
 54126  1  0  0  0
 55 57  1  0  0  0
 55127  1  0  0  0
 56 69  2  0  0  0
 57 58  2  0  0  0
 57128  1  0  0  0
 58129  1  0  0  0
 59 60  1  0  0  0
 59 61  1  0  0  0
 59 62  1  0  0  0
 60130  1  0  0  0
 60131  1  0  0  0
 60132  1  0  0  0
 61133  1  0  0  0
 61134  1  0  0  0
 61135  1  0  0  0
 62136  1  0  0  0
 62137  1  0  0  0
 62138  1  0  0  0
 63 65  1  0  0  0
 63139  1  0  0  0
 63140  1  0  0  0
 63141  1  0  0  0
 64142  1  0  0  0
 65143  1  0  0  0
 68 81  1  0  0  0
 71 72  2  0  0  0
 71 74  1  0  0  0
 71144  1  0  0  0
 72 75  1  0  0  0
 72145  1  0  0  0
 73 75  2  0  0  0
 73 76  1  0  0  0
 73 80  1  0  0  0
 74 76  2  0  0  0
 74 82  1  0  0  0
 75 83  1  0  0  0
 76 84  1  0  0  0
 77 79  1  0  0  0
 77 82  1  0  0  0
 77146  1  0  0  0
 77147  1  0  0  0
 78 79  1  0  0  0
 78 82  1  0  0  0
 78148  1  0  0  0
 78149  1  0  0  0
 79 81  1  0  0  0
 79150  1  0  0  0
 80151  1  0  0  0
 80152  1  0  0  0
 80153  1  0  0  0
 81154  1  0  0  0
 81155  1  0  0  0
 83156  1  0  0  0
M  ISO  4   1 100  68 101  81 101  83 100
M  END
> <chiral flag>
0

> <version>
0

> <s_m_source_file>
/data/baiqing/PycharmProjects/Reinvent-master-3.2/result/LINK_invent/BTK/process_docking_weight1_custom_product_contain_oxygen_bond_distance_aromatic_linkinvent_7_9_3/rearranged_h_0024.sdf

> <i_m_source_file_index>
86

> <r_mmod_Potential_Energy-OPLS-2005>
247.513549804688

> <r_mmod_Stretch_Energy-OPLS-2005>
109.108688354492

> <r_mmod_Bend_Energy-OPLS-2005>
232.010940551758

> <r_mmod_Torsional_Energy-OPLS-2005>
240.552444458008

> <r_mmod_Improper_Torsional_Energy-OPLS-2005>
10.6548433303833

> <r_mmod_Van_der_Waal_Energy-OPLS-2005>
149.461639404297

> <r_mmod_Electrostatic_Energy-OPLS-2005>
-347.601989746094

> <r_mmod_Solvation_Energy-OPLS-2005>
-225.019485473633

> <b_mmod_Minimization_Converged-OPLS-2005>
0

> <r_mmod_RMS_Derivative-OPLS-2005>
8.41747665405273

$$$$
86
                    3D
 Structure written by MMmdl.
154163  0  0  1  0            999 V2000
  -30.5032  -14.9567   20.4107 C   0  0  0  0  0  0
  -30.4527  -12.5909   19.4854 C   0  0  0  0  0  0
  -29.5226  -12.5192   18.2504 C   0  0  0  0  0  0
  -28.0574  -12.3006   18.6734 C   0  0  0  0  0  0
  -27.6315  -13.2379   19.8327 C   0  0  2  0  0  0
  -28.6768  -13.2590   20.9680 C   0  0  0  0  0  0
  -25.2491  -13.8193   20.5691 C   0  0  0  0  0  0
  -24.1797  -13.0428   20.9226 C   0  0  0  0  0  0
  -24.6399  -11.6910   20.8760 C   0  0  0  0  0  0
  -23.9078  -10.4289   21.0412 C   0  0  0  0  0  0
  -24.3633   -9.4205   21.9179 C   0  0  0  0  0  0
  -23.6301   -8.2245   22.0763 C   0  0  0  0  0  0
  -22.4283   -8.0287   21.3557 C   0  0  0  0  0  0
  -21.9914   -9.0258   20.4657 C   0  0  0  0  0  0
  -22.7249  -10.2127   20.3061 C   0  0  0  0  0  0
  -21.6857   -6.0730   22.5276 C   0  0  0  0  0  0
  -21.4014   -6.5638   23.8206 C   0  0  0  0  0  0
  -21.3659   -5.6798   24.9167 C   0  0  0  0  0  0
  -21.6047   -4.3058   24.7227 C   0  0  0  0  0  0
  -21.8824   -3.8147   23.4349 C   0  0  0  0  0  0
  -21.9197   -4.6958   22.3400 C   0  0  0  0  0  0
  -22.7823  -13.5213   21.1882 C   0  0  0  0  0  0
  -22.1678   -4.2144   21.0978 F   0  0  0  0  0  0
  -21.5621   -3.4543   25.7739 F   0  0  0  0  0  0
  -29.9510  -13.6784   20.3688 N   0  0  0  0  0  0
  -26.2903  -12.9402   20.3212 N   0  0  0  0  0  0
  -25.9322  -11.6542   20.5720 N   0  0  0  0  0  0
  -22.0476  -12.8210   22.0444 N   0  0  0  0  0  0
  -25.4122  -15.1932   20.4120 N   0  0  0  0  0  0
  -31.7134  -15.0679   20.1842 O   0  0  0  0  0  0
  -21.6654   -6.8881   21.4245 O   0  0  0  0  0  0
  -22.3507  -14.5511   20.6715 O   0  0  0  0  0  0
  -24.6431  -31.8433   23.1861 C   0  0  0  0  0  0
  -25.9203  -32.4690   23.8261 C   0  0  1  0  0  0
  -27.2268  -27.1358   20.1681 C   0  0  0  0  0  0
  -25.5945  -33.8492   24.2179 N   0  0  0  0  0  0
  -23.4470  -30.4600   21.5314 C   0  0  2  0  0  0
  -24.8995  -28.8782   20.1162 C   0  0  0  0  0  0
  -22.7558  -29.4536   22.4856 C   0  0  0  0  0  0
  -18.0306  -28.1393   22.8473 C   0  0  0  0  0  0
  -24.1491  -36.7260   23.2636 C   0  0  0  0  0  0
  -26.0014  -30.7190   21.3825 C   0  0  0  0  0  0
  -26.0755  -29.3267   20.7306 C   0  0  0  0  0  0
  -27.2422  -28.4742   20.7312 C   0  0  0  0  0  0
  -26.0232  -26.7784   19.5260 C   0  0  0  0  0  0
  -24.8854  -27.6169   19.4979 C   0  0  0  0  0  0
  -23.6760  -29.7827   20.1532 C   0  0  0  0  0  0
  -25.4121  -36.3034   24.0312 C   0  0  1  0  0  0
  -20.5912  -28.3720   23.1232 C   0  0  2  0  0  0
  -20.6787  -26.9419   22.5407 C   0  0  0  0  0  0
  -19.5769  -26.6385   21.5204 C   0  0  0  0  0  0
  -18.1950  -26.7933   22.1618 C   0  0  0  0  0  0
  -19.1559  -28.8875   23.2848 C   0  0  0  0  0  0
  -18.9477  -30.1468   23.8880 C   0  0  0  0  0  0
  -17.6474  -30.6591   24.0555 C   0  0  0  0  0  0
  -25.9078  -34.9407   23.5065 C   0  0  0  0  0  0
  -16.5369  -29.9083   23.6323 C   0  0  0  0  0  0
  -16.7291  -28.6496   23.0350 C   0  0  0  0  0  0
  -26.4519  -31.6552   25.0695 C   0  0  0  0  0  0
  -25.3713  -31.3774   26.1403 C   0  0  0  0  0  0
  -27.0349  -30.2934   24.6276 C   0  0  0  0  0  0
  -27.6056  -32.4305   25.7476 C   0  0  0  0  0  0
  -27.5579  -37.1783   24.8462 C   0  0  0  0  0  0
  -21.4251  -29.3046   22.3605 N   0  0  0  0  0  0
  -26.4290  -37.3742   23.9408 N   0  0  0  0  0  0
  -24.7168  -31.0284   22.0891 N   0  0  0  0  0  0
  -23.4197  -28.8094   23.3016 O   0  0  0  0  0  0
  -28.3057  -26.1796   20.1733 O   0  0  0  0  0  0
  -26.5665  -34.8904   22.4647 O   0  0  0  0  0  0
  -23.5543  -32.1319   23.7072 O   0  0  0  0  0  0
  -28.3351  -19.7793   19.9101 C   0  0  0  0  0  0
  -30.5693  -18.5253   20.9899 C   0  0  0  0  0  0
  -29.2336  -20.7007   20.5462 C   0  0  0  0  0  0
  -29.6254  -17.6072   20.4194 C   0  0  0  0  0  0
  -28.5055  -18.3311   19.8739 C   0  0  0  0  0  0
  -30.3839  -19.9730   21.0540 C   0  0  0  0  0  0
  -29.1258  -22.8448   21.9856 C   0  0  0  0  0  0
  -29.3509  -22.2674   23.1783 C   0  0  0  0  0  0
  -28.9129  -24.3698   21.8607 C   0  0  0  0  0  0
  -28.5773  -23.2871   19.7934 C   0  0  0  0  0  0
  -28.1347  -24.6796   20.5697 C   0  0  2  0  0  0
  -28.9783  -22.1687   20.7659 N   0  0  0  0  0  0
  -29.6174  -16.0675   20.4534 N   0  0  0  0  0  0
  -27.5189  -17.5944   19.3065 F   0  0  0  0  0  0
  -31.3693  -20.6831   21.6555 F   0  0  0  0  0  0
  -31.4795  -12.7754   19.1654 H   0  0  0  0  0  0
  -30.4702  -11.6388   20.0181 H   0  0  0  0  0  0
  -29.8418  -11.7182   17.5819 H   0  0  0  0  0  0
  -29.6044  -13.4444   17.6787 H   0  0  0  0  0  0
  -27.9591  -11.2610   18.9873 H   0  0  0  0  0  0
  -27.3935  -12.4223   17.8172 H   0  0  0  0  0  0
  -27.5926  -14.2371   19.3984 H   0  0  0  0  0  0
  -28.7641  -12.2811   21.4422 H   0  0  0  0  0  0
  -28.3754  -13.9553   21.7518 H   0  0  0  0  0  0
  -25.2770   -9.5673   22.4755 H   0  0  0  0  0  0
  -23.9995   -7.4647   22.7493 H   0  0  0  0  0  0
  -21.0840   -8.8792   19.8976 H   0  0  0  0  0  0
  -22.3712  -10.9674   19.6186 H   0  0  0  0  0  0
  -21.2015   -7.6151   23.9702 H   0  0  0  0  0  0
  -21.1473   -6.0530   25.9067 H   0  0  0  0  0  0
  -22.0600   -2.7610   23.2856 H   0  0  0  0  0  0
  -22.4100  -11.9883   22.4849 H   0  0  0  0  0  0
  -21.1097  -13.1249   22.2653 H   0  0  0  0  0  0
  -24.6309  -15.8293   20.5222 H   0  0  0  0  0  0
  -26.2297  -15.6468   20.0255 H   0  0  0  0  0  0
  -26.7259  -32.5303   23.0977 H   0  0  0  0  0  0
  -25.0042  -33.9598   25.0296 H   0  0  0  0  0  0
  -22.7489  -31.2843   21.3720 H   0  0  0  0  0  0
  -23.3754  -35.9590   23.3293 H   0  0  0  0  0  0
  -24.3579  -36.8903   22.2052 H   0  0  0  0  0  0
  -23.7248  -37.6454   23.6683 H   0  0  0  0  0  0
  -26.1513  -31.4692   20.6049 H   0  0  0  0  0  0
  -26.8730  -30.7746   22.0225 H   0  0  0  0  0  0
  -28.1453  -28.8190   21.2146 H   0  0  0  0  0  0
  -25.9512  -25.8118   19.0494 H   0  0  0  0  0  0
  -23.9876  -27.2675   19.0066 H   0  0  0  0  0  0
  -23.8154  -30.5552   19.3958 H   0  0  0  0  0  0
  -22.7903  -29.2262   19.8419 H   0  0  0  0  0  0
  -25.1303  -36.1859   25.0801 H   0  0  0  0  0  0
  -21.0005  -28.3324   24.1353 H   0  0  0  0  0  0
  -20.5657  -26.2333   23.3631 H   0  0  0  0  0  0
  -21.6657  -26.7412   22.1219 H   0  0  0  0  0  0
  -19.6935  -25.6293   21.1244 H   0  0  0  0  0  0
  -19.6709  -27.3182   20.6726 H   0  0  0  0  0  0
  -17.4211  -26.6659   21.4037 H   0  0  0  0  0  0
  -18.0367  -26.0080   22.9023 H   0  0  0  0  0  0
  -19.7954  -30.7286   24.2243 H   0  0  0  0  0  0
  -17.5027  -31.6266   24.5172 H   0  0  0  0  0  0
  -15.5367  -30.2978   23.7660 H   0  0  0  0  0  0
  -15.8690  -28.0812   22.7072 H   0  0  0  0  0  0
  -24.5883  -30.7113   25.7755 H   0  0  0  0  0  0
  -24.8908  -32.2968   26.4760 H   0  0  0  0  0  0
  -25.8002  -30.9005   27.0228 H   0  0  0  0  0  0
  -26.2945  -29.6671   24.1277 H   0  0  0  0  0  0
  -27.3933  -29.7216   25.4850 H   0  0  0  0  0  0
  -27.8877  -30.4133   23.9590 H   0  0  0  0  0  0
  -27.2651  -33.3608   26.2034 H   0  0  0  0  0  0
  -28.3883  -32.6863   25.0323 H   0  0  0  0  0  0
  -28.0709  -31.8448   26.5416 H   0  0  0  0  0  0
  -28.2594  -38.0080   24.7483 H   0  0  0  0  0  0
  -28.1074  -36.2605   24.6306 H   0  0  0  0  0  0
  -27.2300  -37.1456   25.8868 H   0  0  0  0  0  0
  -20.9466  -29.8741   21.6766 H   0  0  0  0  0  0
  -26.0158  -38.2812   24.1410 H   0  0  0  0  0  0
  -27.4283  -20.1815   19.4837 H   0  0  0  0  0  0
  -31.4595  -18.1189   21.4457 H   0  0  0  0  0  0
  -29.4267  -22.8672   24.0746 H   0  0  0  0  0  0
  -29.4628  -21.2010   23.3028 H   0  0  0  0  0  0
  -29.8917  -24.8499   21.8405 H   0  0  0  0  0  0
  -28.3829  -24.7609   22.7308 H   0  0  0  0  0  0
  -29.4414  -23.4925   19.1608 H   0  0  0  0  0  0
  -27.7790  -22.9491   19.1325 H   0  0  0  0  0  0
  -27.0802  -24.5480   20.8146 H   0  0  0  0  0  0
  -28.6706  -15.7234   20.4123 H   0  0  0  0  0  0
  1 25  1  0  0  0
  1 30  2  0  0  0
  1 83  1  0  0  0
  2  3  1  0  0  0
  2 25  1  0  0  0
  2 86  1  0  0  0
  2 87  1  0  0  0
  3  4  1  0  0  0
  3 88  1  0  0  0
  3 89  1  0  0  0
  4  5  1  0  0  0
  4 90  1  0  0  0
  4 91  1  0  0  0
  5  6  1  0  0  0
  5 26  1  0  0  0
  5 92  1  0  0  0
  6 25  1  0  0  0
  6 93  1  0  0  0
  6 94  1  0  0  0
  7  8  2  0  0  0
  7 26  1  0  0  0
  7 29  1  0  0  0
  8  9  1  0  0  0
  8 22  1  0  0  0
  9 10  1  0  0  0
  9 27  2  0  0  0
 10 11  2  0  0  0
 10 15  1  0  0  0
 11 12  1  0  0  0
 11 95  1  0  0  0
 12 13  2  0  0  0
 12 96  1  0  0  0
 13 14  1  0  0  0
 13 31  1  0  0  0
 14 15  2  0  0  0
 14 97  1  0  0  0
 15 98  1  0  0  0
 16 17  2  0  0  0
 16 21  1  0  0  0
 16 31  1  0  0  0
 17 18  1  0  0  0
 17 99  1  0  0  0
 18 19  2  0  0  0
 18100  1  0  0  0
 19 20  1  0  0  0
 19 24  1  0  0  0
 20 21  2  0  0  0
 20101  1  0  0  0
 21 23  1  0  0  0
 22 28  1  0  0  0
 22 32  2  0  0  0
 26 27  1  0  0  0
 28102  1  0  0  0
 28103  1  0  0  0
 29104  1  0  0  0
 29105  1  0  0  0
 33 34  1  0  0  0
 33 66  1  0  0  0
 33 70  2  0  0  0
 34 36  1  0  0  0
 34 59  1  0  0  0
 34106  1  0  0  0
 35 44  2  0  0  0
 35 45  1  0  0  0
 35 68  1  0  0  0
 36 56  1  0  0  0
 36107  1  0  0  0
 37 39  1  0  0  0
 37 47  1  0  0  0
 37 66  1  0  0  0
 37108  1  0  0  0
 38 43  2  0  0  0
 38 46  1  0  0  0
 38 47  1  0  0  0
 39 64  1  0  0  0
 39 67  2  0  0  0
 40 52  1  0  0  0
 40 53  2  0  0  0
 40 58  1  0  0  0
 41109  1  0  0  0
 41110  1  0  0  0
 41111  1  0  0  0
 41 48  1  0  0  0
 42 43  1  0  0  0
 42 66  1  0  0  0
 42112  1  0  0  0
 42113  1  0  0  0
 43 44  1  0  0  0
 44114  1  0  0  0
 45 46  2  0  0  0
 45115  1  0  0  0
 46116  1  0  0  0
 47117  1  0  0  0
 47118  1  0  0  0
 48 56  1  0  0  0
 48 65  1  0  0  0
 48119  1  0  0  0
 49 50  1  0  0  0
 49 53  1  0  0  0
 49 64  1  0  0  0
 49120  1  0  0  0
 50 51  1  0  0  0
 50121  1  0  0  0
 50122  1  0  0  0
 51 52  1  0  0  0
 51123  1  0  0  0
 51124  1  0  0  0
 52125  1  0  0  0
 52126  1  0  0  0
 53 54  1  0  0  0
 54 55  2  0  0  0
 54127  1  0  0  0
 55 57  1  0  0  0
 55128  1  0  0  0
 56 69  2  0  0  0
 57 58  2  0  0  0
 57129  1  0  0  0
 58130  1  0  0  0
 59 60  1  0  0  0
 59 61  1  0  0  0
 59 62  1  0  0  0
 60131  1  0  0  0
 60132  1  0  0  0
 60133  1  0  0  0
 61134  1  0  0  0
 61135  1  0  0  0
 61136  1  0  0  0
 62137  1  0  0  0
 62138  1  0  0  0
 62139  1  0  0  0
 63 65  1  0  0  0
 63140  1  0  0  0
 63141  1  0  0  0
 63142  1  0  0  0
 64143  1  0  0  0
 65144  1  0  0  0
 68 81  1  0  0  0
 71 73  2  0  0  0
 71 75  1  0  0  0
 71145  1  0  0  0
 72 74  1  0  0  0
 72 76  2  0  0  0
 72146  1  0  0  0
 73 76  1  0  0  0
 73 82  1  0  0  0
 74 75  2  0  0  0
 74 83  1  0  0  0
 75 84  1  0  0  0
 76 85  1  0  0  0
 77 78  2  0  0  0
 77 79  1  0  0  0
 77 82  1  0  0  0
 78147  1  0  0  0
 78148  1  0  0  0
 79 81  1  0  0  0
 79149  1  0  0  0
 79150  1  0  0  0
 80 81  1  0  0  0
 80 82  1  0  0  0
 80151  1  0  0  0
 80152  1  0  0  0
 81153  1  0  0  0
 83154  1  0  0  0
M  ISO  4   1 100  68 101  81 101  83 100
M  END
> <chiral flag>
0

> <version>
0

> <s_m_source_file>
/data/baiqing/PycharmProjects/Reinvent-master-3.2/result/LINK_invent/BTK/process_docking_weight1_custom_product_contain_oxygen_bond_distance_aromatic_linkinvent_7_9_3/rearranged_h_0024.sdf

> <i_m_source_file_index>
87

> <r_mmod_Potential_Energy-OPLS-2005>
520.771240234375

> <r_mmod_Stretch_Energy-OPLS-2005>
220.114532470703

> <r_mmod_Bend_Energy-OPLS-2005>
306.330810546875

> <r_mmod_Torsional_Energy-OPLS-2005>
270.492126464844

> <r_mmod_Improper_Torsional_Energy-OPLS-2005>
7.10841655731201

> <r_mmod_Van_der_Waal_Energy-OPLS-2005>
124.27596282959

> <r_mmod_Electrostatic_Energy-OPLS-2005>
-398.197143554688

> <r_mmod_Solvation_Energy-OPLS-2005>
-203.909774780273

> <b_mmod_Minimization_Converged-OPLS-2005>
0

> <r_mmod_RMS_Derivative-OPLS-2005>
1.93195462226868

$$$$
87
                    3D
 Structure written by MMmdl.
152160  0  0  1  0            999 V2000
  -30.6393  -14.8626   20.4197 C   0  0  0  0  0  0
  -30.4109  -12.5319   19.5032 C   0  0  0  0  0  0
  -29.5087  -12.5140   18.2508 C   0  0  0  0  0  0
  -28.0385  -12.3235   18.6612 C   0  0  0  0  0  0
  -27.6225  -13.2568   19.8290 C   0  0  2  0  0  0
  -28.6619  -13.2899   20.9667 C   0  0  0  0  0  0
  -25.2422  -13.8236   20.5687 C   0  0  0  0  0  0
  -24.1763  -13.0441   20.9229 C   0  0  0  0  0  0
  -24.6395  -11.6933   20.8754 C   0  0  0  0  0  0
  -23.9081  -10.4294   21.0406 C   0  0  0  0  0  0
  -24.3633   -9.4207   21.9181 C   0  0  0  0  0  0
  -23.6307   -8.2240   22.0750 C   0  0  0  0  0  0
  -22.4289   -8.0278   21.3539 C   0  0  0  0  0  0
  -21.9924   -9.0250   20.4643 C   0  0  0  0  0  0
  -22.7251  -10.2130   20.3057 C   0  0  0  0  0  0
  -21.6855   -6.0737   22.5276 C   0  0  0  0  0  0
  -21.4019   -6.5643   23.8210 C   0  0  0  0  0  0
  -21.3662   -5.6795   24.9172 C   0  0  0  0  0  0
  -21.6044   -4.3058   24.7223 C   0  0  0  0  0  0
  -21.8821   -3.8149   23.4345 C   0  0  0  0  0  0
  -21.9197   -4.6965   22.3401 C   0  0  0  0  0  0
  -22.7784  -13.5199   21.1885 C   0  0  0  0  0  0
  -22.1667   -4.2150   21.0979 F   0  0  0  0  0  0
  -21.5626   -3.4544   25.7736 F   0  0  0  0  0  0
  -29.9507  -13.6544   20.3723 N   0  0  0  0  0  0
  -26.2849  -12.9492   20.3205 N   0  0  0  0  0  0
  -25.9326  -11.6610   20.5726 N   0  0  0  0  0  0
  -22.0456  -12.8174   22.0446 N   0  0  0  0  0  0
  -25.4057  -15.1960   20.4075 N   0  0  0  0  0  0
  -31.8515  -14.7884   20.1992 O   0  0  0  0  0  0
  -21.6647   -6.8878   21.4237 O   0  0  0  0  0  0
  -22.3454  -14.5493   20.6724 O   0  0  0  0  0  0
  -24.6379  -31.8485   23.1917 C   0  0  0  0  0  0
  -25.9176  -32.4717   23.8291 C   0  0  1  0  0  0
  -27.2090  -27.1823   20.1561 C   0  0  0  0  0  0
  -25.5947  -33.8522   24.2211 N   0  0  0  0  0  0
  -23.4396  -30.4672   21.5370 C   0  0  2  0  0  0
  -24.8871  -28.8981   20.1144 C   0  0  0  0  0  0
  -22.7540  -29.4562   22.4887 C   0  0  0  0  0  0
  -18.0294  -28.1398   22.8474 C   0  0  0  0  0  0
  -24.1492  -36.7261   23.2641 C   0  0  0  0  0  0
  -25.9910  -30.7379   21.3825 C   0  0  0  0  0  0
  -26.0627  -29.3520   20.7271 C   0  0  0  0  0  0
  -27.2307  -28.5099   20.7284 C   0  0  0  0  0  0
  -26.0123  -26.8121   19.5116 C   0  0  0  0  0  0
  -24.8709  -27.6403   19.4913 C   0  0  0  0  0  0
  -23.6633  -29.7965   20.1559 C   0  0  0  0  0  0
  -25.4124  -36.3042   24.0315 C   0  0  1  0  0  0
  -20.5902  -28.3715   23.1250 C   0  0  2  0  0  0
  -20.6784  -26.9426   22.5407 C   0  0  0  0  0  0
  -19.5762  -26.6386   21.5212 C   0  0  0  0  0  0
  -18.1939  -26.7936   22.1621 C   0  0  0  0  0  0
  -19.1550  -28.8874   23.2851 C   0  0  0  0  0  0
  -18.9473  -30.1469   23.8876 C   0  0  0  0  0  0
  -17.6473  -30.6595   24.0560 C   0  0  0  0  0  0
  -25.9069  -34.9416   23.5068 C   0  0  0  0  0  0
  -16.5361  -29.9092   23.6336 C   0  0  0  0  0  0
  -16.7280  -28.6512   23.0351 C   0  0  0  0  0  0
  -26.4518  -31.6570   25.0711 C   0  0  0  0  0  0
  -25.3714  -31.3753   26.1416 C   0  0  0  0  0  0
  -27.0379  -30.2973   24.6257 C   0  0  0  0  0  0
  -27.6055  -32.4329   25.7495 C   0  0  0  0  0  0
  -27.5575  -37.1786   24.8462 C   0  0  0  0  0  0
  -21.4238  -29.3046   22.3630 N   0  0  0  0  0  0
  -26.4288  -37.3751   23.9404 N   0  0  0  0  0  0
  -24.7092  -31.0379   22.0931 N   0  0  0  0  0  0
  -23.4202  -28.8109   23.3022 O   0  0  0  0  0  0
  -28.2692  -26.2275   20.1677 O   0  0  0  0  0  0
  -26.5649  -34.8905   22.4644 O   0  0  0  0  0  0
  -23.5511  -32.1349   23.7162 O   0  0  0  0  0  0
  -28.7693  -16.8623   20.7548 C   0  0  0  0  0  0
  -28.3871  -18.2672   20.6395 C   0  0  0  0  0  0
  -30.9469  -17.4460   20.0548 C   0  0  0  0  0  0
  -30.0763  -16.3640   20.4260 C   0  0  0  0  0  0
  -29.2652  -19.3270   20.2089 C   0  0  0  0  0  0
  -30.5772  -18.8340   19.9461 C   0  0  0  0  0  0
  -28.5289  -23.4644   19.9428 C   0  0  0  0  0  0
  -28.4964  -22.0046   21.9619 C   0  0  0  0  0  0
  -28.8012  -20.8275   19.7319 C   0  0  0  0  0  0
  -28.0344  -24.8146   20.7307 C   0  0  0  0  0  0
  -28.6501  -22.1687   20.5189 N   0  0  0  0  0  0
  -28.7509  -23.5984   18.7356 O   0  0  0  0  0  0
  -31.5161  -19.7062   19.5084 F   0  0  0  0  0  0
  -31.4542  -12.6265   19.1991 H   0  0  0  0  0  0
  -30.3476  -11.5818   20.0363 H   0  0  0  0  0  0
  -29.8140  -11.7166   17.5721 H   0  0  0  0  0  0
  -29.6214  -13.4489   17.6996 H   0  0  0  0  0  0
  -27.9164  -11.2816   18.9590 H   0  0  0  0  0  0
  -27.3810  -12.4731   17.8039 H   0  0  0  0  0  0
  -27.5864  -14.2591   19.4016 H   0  0  0  0  0  0
  -28.7245  -12.3216   21.4659 H   0  0  0  0  0  0
  -28.3774  -14.0104   21.7338 H   0  0  0  0  0  0
  -25.2780   -9.5685   22.4752 H   0  0  0  0  0  0
  -24.0018   -7.4634   22.7470 H   0  0  0  0  0  0
  -21.0853   -8.8767   19.8949 H   0  0  0  0  0  0
  -22.3705  -10.9670   19.6168 H   0  0  0  0  0  0
  -21.2015   -7.6152   23.9710 H   0  0  0  0  0  0
  -21.1482   -6.0529   25.9073 H   0  0  0  0  0  0
  -22.0598   -2.7610   23.2843 H   0  0  0  0  0  0
  -22.4115  -11.9863   22.4848 H   0  0  0  0  0  0
  -21.1065  -13.1166   22.2650 H   0  0  0  0  0  0
  -24.6283  -15.8400   20.5048 H   0  0  0  0  0  0
  -26.2349  -15.6321   20.0265 H   0  0  0  0  0  0
  -26.7236  -32.5342   23.1019 H   0  0  0  0  0  0
  -25.0070  -33.9652   25.0340 H   0  0  0  0  0  0
  -22.7397  -31.2912   21.3841 H   0  0  0  0  0  0
  -23.3756  -35.9591   23.3298 H   0  0  0  0  0  0
  -24.3576  -36.8899   22.2057 H   0  0  0  0  0  0
  -23.7247  -37.6455   23.6681 H   0  0  0  0  0  0
  -26.1383  -31.4947   20.6109 H   0  0  0  0  0  0
  -26.8647  -30.7893   22.0208 H   0  0  0  0  0  0
  -28.1320  -28.8536   21.2164 H   0  0  0  0  0  0
  -25.9493  -25.8448   19.0328 H   0  0  0  0  0  0
  -23.9724  -27.2886   19.0031 H   0  0  0  0  0  0
  -23.7984  -30.5714   19.4003 H   0  0  0  0  0  0
  -22.7795  -29.2360   19.8460 H   0  0  0  0  0  0
  -25.1314  -36.1873   25.0807 H   0  0  0  0  0  0
  -20.9980  -28.3303   24.1378 H   0  0  0  0  0  0
  -20.5686  -26.2330   23.3622 H   0  0  0  0  0  0
  -21.6652  -26.7450   22.1203 H   0  0  0  0  0  0
  -19.6932  -25.6293   21.1259 H   0  0  0  0  0  0
  -19.6702  -27.3181   20.6730 H   0  0  0  0  0  0
  -17.4210  -26.6665   21.4025 H   0  0  0  0  0  0
  -18.0341  -26.0091   22.9031 H   0  0  0  0  0  0
  -19.7949  -30.7282   24.2245 H   0  0  0  0  0  0
  -17.5031  -31.6277   24.5163 H   0  0  0  0  0  0
  -15.5360  -30.2990   23.7682 H   0  0  0  0  0  0
  -15.8676  -28.0827   22.7081 H   0  0  0  0  0  0
  -24.5873  -30.7129   25.7732 H   0  0  0  0  0  0
  -24.8926  -32.2940   26.4817 H   0  0  0  0  0  0
  -25.8001  -30.8929   27.0209 H   0  0  0  0  0  0
  -26.2989  -29.6699   24.1259 H   0  0  0  0  0  0
  -27.4008  -29.7264   25.4815 H   0  0  0  0  0  0
  -27.8889  -30.4225   23.9556 H   0  0  0  0  0  0
  -27.2646  -33.3634   26.2048 H   0  0  0  0  0  0
  -28.3879  -32.6886   25.0336 H   0  0  0  0  0  0
  -28.0709  -31.8470   26.5434 H   0  0  0  0  0  0
  -28.2585  -38.0089   24.7510 H   0  0  0  0  0  0
  -28.1077  -36.2617   24.6290 H   0  0  0  0  0  0
  -27.2287  -37.1433   25.8863 H   0  0  0  0  0  0
  -20.9443  -29.8757   21.6808 H   0  0  0  0  0  0
  -26.0155  -38.2816   24.1420 H   0  0  0  0  0  0
  -28.0151  -16.1591   21.0733 H   0  0  0  0  0  0
  -27.3558  -18.5228   20.8391 H   0  0  0  0  0  0
  -31.9682  -17.2109   19.7938 H   0  0  0  0  0  0
  -27.4773  -22.2415   22.2693 H   0  0  0  0  0  0
  -29.1829  -22.6571   22.5030 H   0  0  0  0  0  0
  -28.7069  -20.9843   22.2811 H   0  0  0  0  0  0
  -27.8271  -20.6779   19.2660 H   0  0  0  0  0  0
  -29.4566  -21.0613   18.8917 H   0  0  0  0  0  0
  -28.5144  -24.8067   21.7085 H   0  0  0  0  0  0
  -26.9727  -24.6819   20.9391 H   0  0  0  0  0  0
  1 25  1  0  0  0
  1 30  2  0  0  0
  1 74  1  0  0  0
  2  3  1  0  0  0
  2 25  1  0  0  0
  2 84  1  0  0  0
  2 85  1  0  0  0
  3  4  1  0  0  0
  3 86  1  0  0  0
  3 87  1  0  0  0
  4  5  1  0  0  0
  4 88  1  0  0  0
  4 89  1  0  0  0
  5  6  1  0  0  0
  5 26  1  0  0  0
  5 90  1  0  0  0
  6 25  1  0  0  0
  6 91  1  0  0  0
  6 92  1  0  0  0
  7  8  2  0  0  0
  7 26  1  0  0  0
  7 29  1  0  0  0
  8  9  1  0  0  0
  8 22  1  0  0  0
  9 10  1  0  0  0
  9 27  2  0  0  0
 10 11  2  0  0  0
 10 15  1  0  0  0
 11 12  1  0  0  0
 11 93  1  0  0  0
 12 13  2  0  0  0
 12 94  1  0  0  0
 13 14  1  0  0  0
 13 31  1  0  0  0
 14 15  2  0  0  0
 14 95  1  0  0  0
 15 96  1  0  0  0
 16 17  2  0  0  0
 16 21  1  0  0  0
 16 31  1  0  0  0
 17 18  1  0  0  0
 17 97  1  0  0  0
 18 19  2  0  0  0
 18 98  1  0  0  0
 19 20  1  0  0  0
 19 24  1  0  0  0
 20 21  2  0  0  0
 20 99  1  0  0  0
 21 23  1  0  0  0
 22 28  1  0  0  0
 22 32  2  0  0  0
 26 27  1  0  0  0
 28100  1  0  0  0
 28101  1  0  0  0
 29102  1  0  0  0
 29103  1  0  0  0
 33 34  1  0  0  0
 33 66  1  0  0  0
 33 70  2  0  0  0
 34 36  1  0  0  0
 34 59  1  0  0  0
 34104  1  0  0  0
 35 44  2  0  0  0
 35 45  1  0  0  0
 35 68  1  0  0  0
 36 56  1  0  0  0
 36105  1  0  0  0
 37 39  1  0  0  0
 37 47  1  0  0  0
 37 66  1  0  0  0
 37106  1  0  0  0
 38 43  2  0  0  0
 38 46  1  0  0  0
 38 47  1  0  0  0
 39 64  1  0  0  0
 39 67  2  0  0  0
 40 52  1  0  0  0
 40 53  2  0  0  0
 40 58  1  0  0  0
 41107  1  0  0  0
 41108  1  0  0  0
 41109  1  0  0  0
 41 48  1  0  0  0
 42 43  1  0  0  0
 42 66  1  0  0  0
 42110  1  0  0  0
 42111  1  0  0  0
 43 44  1  0  0  0
 44112  1  0  0  0
 45 46  2  0  0  0
 45113  1  0  0  0
 46114  1  0  0  0
 47115  1  0  0  0
 47116  1  0  0  0
 48 56  1  0  0  0
 48 65  1  0  0  0
 48117  1  0  0  0
 49 50  1  0  0  0
 49 53  1  0  0  0
 49 64  1  0  0  0
 49118  1  0  0  0
 50 51  1  0  0  0
 50119  1  0  0  0
 50120  1  0  0  0
 51 52  1  0  0  0
 51121  1  0  0  0
 51122  1  0  0  0
 52123  1  0  0  0
 52124  1  0  0  0
 53 54  1  0  0  0
 54 55  2  0  0  0
 54125  1  0  0  0
 55 57  1  0  0  0
 55126  1  0  0  0
 56 69  2  0  0  0
 57 58  2  0  0  0
 57127  1  0  0  0
 58128  1  0  0  0
 59 60  1  0  0  0
 59 61  1  0  0  0
 59 62  1  0  0  0
 60129  1  0  0  0
 60130  1  0  0  0
 60131  1  0  0  0
 61132  1  0  0  0
 61133  1  0  0  0
 61134  1  0  0  0
 62135  1  0  0  0
 62136  1  0  0  0
 62137  1  0  0  0
 63 65  1  0  0  0
 63138  1  0  0  0
 63139  1  0  0  0
 63140  1  0  0  0
 64141  1  0  0  0
 65142  1  0  0  0
 68 80  1  0  0  0
 71 72  2  0  0  0
 71 74  1  0  0  0
 71143  1  0  0  0
 72 75  1  0  0  0
 72144  1  0  0  0
 73 74  2  0  0  0
 73 76  1  0  0  0
 73145  1  0  0  0
 75 76  2  0  0  0
 75 79  1  0  0  0
 76 83  1  0  0  0
 77 80  1  0  0  0
 77 81  1  0  0  0
 77 82  2  0  0  0
 78 81  1  0  0  0
 78146  1  0  0  0
 78147  1  0  0  0
 78148  1  0  0  0
 79 81  1  0  0  0
 79149  1  0  0  0
 79150  1  0  0  0
 80151  1  0  0  0
 80152  1  0  0  0
M  ISO  4   1 100  68 101  74 100  80 101
M  END
> <chiral flag>
0

> <version>
0

> <s_m_source_file>
/data/baiqing/PycharmProjects/Reinvent-master-3.2/result/LINK_invent/BTK/process_docking_weight1_custom_product_contain_oxygen_bond_distance_aromatic_linkinvent_7_9_3/rearranged_h_0024.sdf

> <i_m_source_file_index>
88

> <r_mmod_Potential_Energy-OPLS-2005>
455.237426757812

> <r_mmod_Stretch_Energy-OPLS-2005>
192.772308349609

> <r_mmod_Bend_Energy-OPLS-2005>
248.490814208984

> <r_mmod_Torsional_Energy-OPLS-2005>
237.663482666016

> <r_mmod_Improper_Torsional_Energy-OPLS-2005>
9.21861267089844

> <r_mmod_Van_der_Waal_Energy-OPLS-2005>
134.860473632812

> <r_mmod_Electrostatic_Energy-OPLS-2005>
-295.802062988281

> <r_mmod_Solvation_Energy-OPLS-2005>
-218.366607666016

> <b_mmod_Minimization_Converged-OPLS-2005>
0

> <r_mmod_RMS_Derivative-OPLS-2005>
0.847984194755554

$$$$
88
                    3D
 Structure written by MMmdl.
159168  0  0  1  0            999 V2000
  -30.5145  -14.9053   20.4413 C   0  0  0  0  0  0
  -30.4546  -12.5579   19.4909 C   0  0  0  0  0  0
  -29.5259  -12.5312   18.2524 C   0  0  0  0  0  0
  -28.0557  -12.3220   18.6668 C   0  0  0  0  0  0
  -27.6396  -13.2365   19.8481 C   0  0  2  0  0  0
  -28.6837  -13.2097   20.9861 C   0  0  0  0  0  0
  -25.2506  -13.8193   20.5693 C   0  0  0  0  0  0
  -24.1808  -13.0435   20.9224 C   0  0  0  0  0  0
  -24.6405  -11.6914   20.8756 C   0  0  0  0  0  0
  -23.9079  -10.4291   21.0415 C   0  0  0  0  0  0
  -24.3625   -9.4204   21.9191 C   0  0  0  0  0  0
  -23.6295   -8.2243   22.0757 C   0  0  0  0  0  0
  -22.4277   -8.0285   21.3548 C   0  0  0  0  0  0
  -21.9916   -9.0260   20.4651 C   0  0  0  0  0  0
  -22.7250  -10.2136   20.3063 C   0  0  0  0  0  0
  -21.6853   -6.0738   22.5281 C   0  0  0  0  0  0
  -21.4015   -6.5642   23.8216 C   0  0  0  0  0  0
  -21.3657   -5.6794   24.9176 C   0  0  0  0  0  0
  -21.6044   -4.3058   24.7226 C   0  0  0  0  0  0
  -21.8818   -3.8149   23.4347 C   0  0  0  0  0  0
  -21.9190   -4.6966   22.3403 C   0  0  0  0  0  0
  -22.7829  -13.5216   21.1876 C   0  0  0  0  0  0
  -22.1662   -4.2152   21.0980 F   0  0  0  0  0  0
  -21.5627   -3.4539   25.7736 F   0  0  0  0  0  0
  -29.9696  -13.6259   20.4055 N   0  0  0  0  0  0
  -26.2930  -12.9401   20.3258 N   0  0  0  0  0  0
  -25.9335  -11.6543   20.5742 N   0  0  0  0  0  0
  -22.0472  -12.8209   22.0433 N   0  0  0  0  0  0
  -25.4175  -15.1918   20.4075 N   0  0  0  0  0  0
  -31.7001  -15.0481   20.1188 O   0  0  0  0  0  0
  -21.6641   -6.8883   21.4244 O   0  0  0  0  0  0
  -22.3516  -14.5521   20.6718 O   0  0  0  0  0  0
  -24.6417  -31.8459   23.1905 C   0  0  0  0  0  0
  -25.9198  -32.4705   23.8286 C   0  0  1  0  0  0
  -27.2189  -27.1553   20.1490 C   0  0  0  0  0  0
  -25.5952  -33.8509   24.2200 N   0  0  0  0  0  0
  -23.4443  -30.4663   21.5359 C   0  0  2  0  0  0
  -24.8936  -28.8959   20.1137 C   0  0  0  0  0  0
  -22.7557  -29.4559   22.4871 C   0  0  0  0  0  0
  -18.0303  -28.1395   22.8480 C   0  0  0  0  0  0
  -24.1492  -36.7261   23.2643 C   0  0  0  0  0  0
  -25.9996  -30.7253   21.3874 C   0  0  0  0  0  0
  -26.0711  -29.3379   20.7301 C   0  0  0  0  0  0
  -27.2358  -28.4846   20.7297 C   0  0  0  0  0  0
  -26.0168  -26.8144   19.4897 C   0  0  0  0  0  0
  -24.8779  -27.6461   19.4786 C   0  0  0  0  0  0
  -23.6702  -29.7965   20.1552 C   0  0  0  0  0  0
  -25.4123  -36.3036   24.0317 C   0  0  1  0  0  0
  -20.5915  -28.3719   23.1240 C   0  0  2  0  0  0
  -20.6789  -26.9424   22.5403 C   0  0  0  0  0  0
  -19.5761  -26.6383   21.5213 C   0  0  0  0  0  0
  -18.1943  -26.7935   22.1626 C   0  0  0  0  0  0
  -19.1560  -28.8875   23.2854 C   0  0  0  0  0  0
  -18.9477  -30.1471   23.8878 C   0  0  0  0  0  0
  -17.6474  -30.6592   24.0561 C   0  0  0  0  0  0
  -25.9071  -34.9411   23.5067 C   0  0  0  0  0  0
  -16.5364  -29.9085   23.6337 C   0  0  0  0  0  0
  -16.7288  -28.6504   23.0355 C   0  0  0  0  0  0
  -26.4520  -31.6569   25.0723 C   0  0  0  0  0  0
  -25.3710  -31.3757   26.1423 C   0  0  0  0  0  0
  -27.0381  -30.2965   24.6300 C   0  0  0  0  0  0
  -27.6054  -32.4332   25.7507 C   0  0  0  0  0  0
  -27.5575  -37.1788   24.8465 C   0  0  0  0  0  0
  -21.4253  -29.3050   22.3616 N   0  0  0  0  0  0
  -26.4286  -37.3747   23.9406 N   0  0  0  0  0  0
  -24.7149  -31.0331   22.0930 N   0  0  0  0  0  0
  -23.4207  -28.8108   23.3017 O   0  0  0  0  0  0
  -28.2844  -26.1882   20.1837 O   0  0  0  0  0  0
  -26.5655  -34.8906   22.4644 O   0  0  0  0  0  0
  -23.5541  -32.1329   23.7133 O   0  0  0  0  0  0
  -30.2525  -19.9481   20.2342 C   0  0  0  0  0  0
  -30.5135  -18.5049   20.2245 C   0  0  0  0  0  0
  -28.3108  -18.1277   20.9679 C   0  0  0  0  0  0
  -28.0442  -19.5495   20.9809 C   0  0  0  0  0  0
  -29.0054  -20.5594   20.6270 C   0  0  0  0  0  0
  -29.5486  -17.5075   20.6104 C   0  0  0  0  0  0
  -30.1993  -23.1768   22.3269 C   0  0  0  0  0  0
  -30.3646  -23.7089   20.8994 C   0  0  0  0  0  0
  -28.9623  -22.2668   22.2826 C   0  0  0  0  0  0
  -29.0416  -23.3639   20.2192 C   0  0  2  0  0  0
  -26.6564  -19.9836   21.4293 C   0  0  0  0  0  0
  -27.9995  -24.6775   20.4051 C   0  0  0  0  0  0
  -28.6930  -21.9982   20.8709 N   0  0  0  0  0  0
  -29.6336  -15.9816   20.6871 N   0  0  0  0  0  0
  -31.4867  -12.7308   19.1812 H   0  0  0  0  0  0
  -30.4530  -11.5914   19.9974 H   0  0  0  0  0  0
  -29.8355  -11.7449   17.5626 H   0  0  0  0  0  0
  -29.6203  -13.4708   17.7057 H   0  0  0  0  0  0
  -27.9415  -11.2759   18.9545 H   0  0  0  0  0  0
  -27.3931  -12.4767   17.8143 H   0  0  0  0  0  0
  -27.6184  -14.2489   19.4445 H   0  0  0  0  0  0
  -28.7589  -12.2126   21.4225 H   0  0  0  0  0  0
  -28.3873  -13.8740   21.7994 H   0  0  0  0  0  0
  -25.2771   -9.5674   22.4765 H   0  0  0  0  0  0
  -24.0002   -7.4630   22.7473 H   0  0  0  0  0  0
  -21.0849   -8.8784   19.8955 H   0  0  0  0  0  0
  -22.3716  -10.9676   19.6172 H   0  0  0  0  0  0
  -21.2014   -7.6151   23.9719 H   0  0  0  0  0  0
  -21.1479   -6.0526   25.9079 H   0  0  0  0  0  0
  -22.0597   -2.7610   23.2848 H   0  0  0  0  0  0
  -22.4091  -11.9873   22.4822 H   0  0  0  0  0  0
  -21.1089  -13.1234   22.2635 H   0  0  0  0  0  0
  -24.6341  -15.8306   20.4908 H   0  0  0  0  0  0
  -26.2339  -15.6213   19.9926 H   0  0  0  0  0  0
  -26.7265  -32.5317   23.1018 H   0  0  0  0  0  0
  -25.0074  -33.9627   25.0330 H   0  0  0  0  0  0
  -22.7463  -31.2917   21.3825 H   0  0  0  0  0  0
  -23.3755  -35.9591   23.3296 H   0  0  0  0  0  0
  -24.3577  -36.8902   22.2060 H   0  0  0  0  0  0
  -23.7249  -37.6455   23.6686 H   0  0  0  0  0  0
  -26.1539  -31.4802   20.6151 H   0  0  0  0  0  0
  -26.8706  -30.7746   22.0291 H   0  0  0  0  0  0
  -28.1349  -28.8204   21.2270 H   0  0  0  0  0  0
  -25.9268  -25.8728   18.9712 H   0  0  0  0  0  0
  -23.9819  -27.3060   18.9775 H   0  0  0  0  0  0
  -23.8068  -30.5712   19.3997 H   0  0  0  0  0  0
  -22.7854  -29.2382   19.8446 H   0  0  0  0  0  0
  -25.1312  -36.1864   25.0809 H   0  0  0  0  0  0
  -21.0008  -28.3308   24.1360 H   0  0  0  0  0  0
  -20.5684  -26.2333   23.3620 H   0  0  0  0  0  0
  -21.6655  -26.7430   22.1200 H   0  0  0  0  0  0
  -19.6921  -25.6289   21.1255 H   0  0  0  0  0  0
  -19.6696  -27.3183   20.6733 H   0  0  0  0  0  0
  -17.4211  -26.6678   21.4031 H   0  0  0  0  0  0
  -18.0342  -26.0081   22.9026 H   0  0  0  0  0  0
  -19.7951  -30.7294   24.2240 H   0  0  0  0  0  0
  -17.5024  -31.6270   24.5167 H   0  0  0  0  0  0
  -15.5363  -30.2979   23.7671 H   0  0  0  0  0  0
  -15.8689  -28.0815   22.7081 H   0  0  0  0  0  0
  -24.5889  -30.7105   25.7743 H   0  0  0  0  0  0
  -24.8902  -32.2940   26.4804 H   0  0  0  0  0  0
  -25.7998  -30.8956   27.0229 H   0  0  0  0  0  0
  -26.2994  -29.6695   24.1293 H   0  0  0  0  0  0
  -27.3976  -29.7259   25.4875 H   0  0  0  0  0  0
  -27.8913  -30.4199   23.9625 H   0  0  0  0  0  0
  -27.2650  -33.3650   26.2036 H   0  0  0  0  0  0
  -28.3890  -32.6864   25.0353 H   0  0  0  0  0  0
  -28.0693  -31.8489   26.5463 H   0  0  0  0  0  0
  -28.2586  -38.0090   24.7503 H   0  0  0  0  0  0
  -28.1077  -36.2619   24.6299 H   0  0  0  0  0  0
  -27.2292  -37.1443   25.8867 H   0  0  0  0  0  0
  -20.9460  -29.8764   21.6798 H   0  0  0  0  0  0
  -26.0153  -38.2816   24.1406 H   0  0  0  0  0  0
  -31.0698  -20.6024   19.9676 H   0  0  0  0  0  0
  -31.4974  -18.1725   19.9259 H   0  0  0  0  0  0
  -27.5048  -17.4752   21.2723 H   0  0  0  0  0  0
  -30.0517  -23.9861   23.0436 H   0  0  0  0  0  0
  -31.0894  -22.6258   22.6335 H   0  0  0  0  0  0
  -31.1818  -23.1839   20.4027 H   0  0  0  0  0  0
  -30.5958  -24.7744   20.8660 H   0  0  0  0  0  0
  -28.1001  -22.7726   22.7200 H   0  0  0  0  0  0
  -29.1262  -21.3671   22.8805 H   0  0  0  0  0  0
  -29.2174  -23.2165   19.1526 H   0  0  0  0  0  0
  -25.9523  -19.1514   21.4354 H   0  0  0  0  0  0
  -26.2549  -20.7463   20.7614 H   0  0  0  0  0  0
  -26.6964  -20.3978   22.4372 H   0  0  0  0  0  0
  -27.6408  -24.6443   21.4338 H   0  0  0  0  0  0
  -27.1283  -24.4019   19.8170 H   0  0  0  0  0  0
  -28.7474  -15.5860   20.9604 H   0  0  0  0  0  0
  1 25  1  0  0  0
  1 30  2  0  0  0
  1 84  1  0  0  0
  2  3  1  0  0  0
  2 25  1  0  0  0
  2 85  1  0  0  0
  2 86  1  0  0  0
  3  4  1  0  0  0
  3 87  1  0  0  0
  3 88  1  0  0  0
  4  5  1  0  0  0
  4 89  1  0  0  0
  4 90  1  0  0  0
  5  6  1  0  0  0
  5 26  1  0  0  0
  5 91  1  0  0  0
  6 25  1  0  0  0
  6 92  1  0  0  0
  6 93  1  0  0  0
  7  8  2  0  0  0
  7 26  1  0  0  0
  7 29  1  0  0  0
  8  9  1  0  0  0
  8 22  1  0  0  0
  9 10  1  0  0  0
  9 27  2  0  0  0
 10 11  2  0  0  0
 10 15  1  0  0  0
 11 12  1  0  0  0
 11 94  1  0  0  0
 12 13  2  0  0  0
 12 95  1  0  0  0
 13 14  1  0  0  0
 13 31  1  0  0  0
 14 15  2  0  0  0
 14 96  1  0  0  0
 15 97  1  0  0  0
 16 17  2  0  0  0
 16 21  1  0  0  0
 16 31  1  0  0  0
 17 18  1  0  0  0
 17 98  1  0  0  0
 18 19  2  0  0  0
 18 99  1  0  0  0
 19 20  1  0  0  0
 19 24  1  0  0  0
 20 21  2  0  0  0
 20100  1  0  0  0
 21 23  1  0  0  0
 22 28  1  0  0  0
 22 32  2  0  0  0
 26 27  1  0  0  0
 28101  1  0  0  0
 28102  1  0  0  0
 29103  1  0  0  0
 29104  1  0  0  0
 33 34  1  0  0  0
 33 66  1  0  0  0
 33 70  2  0  0  0
 34 36  1  0  0  0
 34 59  1  0  0  0
 34105  1  0  0  0
 35 44  2  0  0  0
 35 45  1  0  0  0
 35 68  1  0  0  0
 36 56  1  0  0  0
 36106  1  0  0  0
 37 39  1  0  0  0
 37 47  1  0  0  0
 37 66  1  0  0  0
 37107  1  0  0  0
 38 43  2  0  0  0
 38 46  1  0  0  0
 38 47  1  0  0  0
 39 64  1  0  0  0
 39 67  2  0  0  0
 40 52  1  0  0  0
 40 53  2  0  0  0
 40 58  1  0  0  0
 41108  1  0  0  0
 41109  1  0  0  0
 41110  1  0  0  0
 41 48  1  0  0  0
 42 43  1  0  0  0
 42 66  1  0  0  0
 42111  1  0  0  0
 42112  1  0  0  0
 43 44  1  0  0  0
 44113  1  0  0  0
 45 46  2  0  0  0
 45114  1  0  0  0
 46115  1  0  0  0
 47116  1  0  0  0
 47117  1  0  0  0
 48 56  1  0  0  0
 48 65  1  0  0  0
 48118  1  0  0  0
 49 50  1  0  0  0
 49 53  1  0  0  0
 49 64  1  0  0  0
 49119  1  0  0  0
 50 51  1  0  0  0
 50120  1  0  0  0
 50121  1  0  0  0
 51 52  1  0  0  0
 51122  1  0  0  0
 51123  1  0  0  0
 52124  1  0  0  0
 52125  1  0  0  0
 53 54  1  0  0  0
 54 55  2  0  0  0
 54126  1  0  0  0
 55 57  1  0  0  0
 55127  1  0  0  0
 56 69  2  0  0  0
 57 58  2  0  0  0
 57128  1  0  0  0
 58129  1  0  0  0
 59 60  1  0  0  0
 59 61  1  0  0  0
 59 62  1  0  0  0
 60130  1  0  0  0
 60131  1  0  0  0
 60132  1  0  0  0
 61133  1  0  0  0
 61134  1  0  0  0
 61135  1  0  0  0
 62136  1  0  0  0
 62137  1  0  0  0
 62138  1  0  0  0
 63 65  1  0  0  0
 63139  1  0  0  0
 63140  1  0  0  0
 63141  1  0  0  0
 64142  1  0  0  0
 65143  1  0  0  0
 68 82  1  0  0  0
 71 72  2  0  0  0
 71 75  1  0  0  0
 71144  1  0  0  0
 72 76  1  0  0  0
 72145  1  0  0  0
 73 74  1  0  0  0
 73 76  2  0  0  0
 73146  1  0  0  0
 74 75  2  0  0  0
 74 81  1  0  0  0
 75 83  1  0  0  0
 76 84  1  0  0  0
 77 78  1  0  0  0
 77 79  1  0  0  0
 77147  1  0  0  0
 77148  1  0  0  0
 78 80  1  0  0  0
 78149  1  0  0  0
 78150  1  0  0  0
 79 83  1  0  0  0
 79151  1  0  0  0
 79152  1  0  0  0
 80 82  1  0  0  0
 80 83  1  0  0  0
 80153  1  0  0  0
 81154  1  0  0  0
 81155  1  0  0  0
 81156  1  0  0  0
 82157  1  0  0  0
 82158  1  0  0  0
 84159  1  0  0  0
M  ISO  4   1 100  68 101  82 101  84 100
M  END
> <chiral flag>
0

> <version>
0

> <s_m_source_file>
/data/baiqing/PycharmProjects/Reinvent-master-3.2/result/LINK_invent/BTK/process_docking_weight1_custom_product_contain_oxygen_bond_distance_aromatic_linkinvent_7_9_3/rearranged_h_0024.sdf

> <i_m_source_file_index>
89

> <r_mmod_Potential_Energy-OPLS-2005>
528.343688964844

> <r_mmod_Stretch_Energy-OPLS-2005>
212.576995849609

> <r_mmod_Bend_Energy-OPLS-2005>
314.607818603516

> <r_mmod_Torsional_Energy-OPLS-2005>
304.305511474609

> <r_mmod_Improper_Torsional_Energy-OPLS-2005>
9.91728496551514

> <r_mmod_Van_der_Waal_Energy-OPLS-2005>
131.306869506836

> <r_mmod_Electrostatic_Energy-OPLS-2005>
-398.045959472656

> <r_mmod_Solvation_Energy-OPLS-2005>
-214.169494628906

> <b_mmod_Minimization_Converged-OPLS-2005>
0

> <r_mmod_RMS_Derivative-OPLS-2005>
0.529614627361298

$$$$
89
                    3D
 Structure written by MMmdl.
162171  0  0  1  0            999 V2000
  -30.7503  -14.4604   20.6273 C   0  0  0  0  0  0
  -30.4108  -12.3262   19.4191 C   0  0  0  0  0  0
  -29.4820  -12.5115   18.2042 C   0  0  0  0  0  0
  -28.0101  -12.3520   18.6238 C   0  0  0  0  0  0
  -27.6550  -13.2035   19.8694 C   0  0  2  0  0  0
  -28.6979  -13.0090   20.9943 C   0  0  0  0  0  0
  -25.2569  -13.8155   20.5687 C   0  0  0  0  0  0
  -24.1819  -13.0433   20.9185 C   0  0  0  0  0  0
  -24.6372  -11.6901   20.8743 C   0  0  0  0  0  0
  -23.9040  -10.4289   21.0412 C   0  0  0  0  0  0
  -24.3598   -9.4208   21.9189 C   0  0  0  0  0  0
  -23.6281   -8.2240   22.0755 C   0  0  0  0  0  0
  -22.4268   -8.0274   21.3540 C   0  0  0  0  0  0
  -21.9896   -9.0245   20.4644 C   0  0  0  0  0  0
  -22.7216  -10.2130   20.3058 C   0  0  0  0  0  0
  -21.6848   -6.0730   22.5277 C   0  0  0  0  0  0
  -21.4012   -6.5636   23.8210 C   0  0  0  0  0  0
  -21.3661   -5.6789   24.9172 C   0  0  0  0  0  0
  -21.6045   -4.3051   24.7223 C   0  0  0  0  0  0
  -21.8820   -3.8143   23.4345 C   0  0  0  0  0  0
  -21.9192   -4.6958   22.3401 C   0  0  0  0  0  0
  -22.7847  -13.5239   21.1847 C   0  0  0  0  0  0
  -22.1660   -4.2144   21.0978 F   0  0  0  0  0  0
  -21.5630   -3.4537   25.7739 F   0  0  0  0  0  0
  -30.0311  -13.3132   20.4472 N   0  0  0  0  0  0
  -26.2988  -12.9314   20.3354 N   0  0  0  0  0  0
  -25.9299  -11.6480   20.5777 N   0  0  0  0  0  0
  -22.0488  -12.8234   22.0407 N   0  0  0  0  0  0
  -25.4285  -15.1872   20.4086 N   0  0  0  0  0  0
  -31.8214  -14.6551   20.0419 O   0  0  0  0  0  0
  -21.6635   -6.8872   21.4238 O   0  0  0  0  0  0
  -22.3540  -14.5548   20.6701 O   0  0  0  0  0  0
  -24.6176  -31.8662   23.2106 C   0  0  0  0  0  0
  -25.9064  -32.4805   23.8396 C   0  0  1  0  0  0
  -27.2264  -27.4069   20.0958 C   0  0  0  0  0  0
  -25.5920  -33.8605   24.2320 N   0  0  0  0  0  0
  -23.4047  -30.4926   21.5520 C   0  0  2  0  0  0
  -24.8491  -28.9625   20.1102 C   0  0  0  0  0  0
  -22.7424  -29.4646   22.4978 C   0  0  0  0  0  0
  -18.0272  -28.1371   22.8476 C   0  0  0  0  0  0
  -24.1482  -36.7312   23.2634 C   0  0  0  0  0  0
  -25.9376  -30.8222   21.3702 C   0  0  0  0  0  0
  -26.0122  -29.4572   20.7130 C   0  0  0  0  0  0
  -27.2013  -28.6870   20.7048 C   0  0  0  0  0  0
  -26.0421  -26.9475   19.4678 C   0  0  0  0  0  0
  -24.8609  -27.7077   19.4840 C   0  0  0  0  0  0
  -23.6133  -29.8318   20.1640 C   0  0  0  0  0  0
  -25.4104  -36.3097   24.0330 C   0  0  1  0  0  0
  -20.5862  -28.3657   23.1305 C   0  0  2  0  0  0
  -20.6758  -26.9388   22.5413 C   0  0  0  0  0  0
  -19.5743  -26.6378   21.5200 C   0  0  0  0  0  0
  -18.1918  -26.7914   22.1608 C   0  0  0  0  0  0
  -19.1521  -28.8832   23.2884 C   0  0  0  0  0  0
  -18.9454  -30.1441   23.8887 C   0  0  0  0  0  0
  -17.6456  -30.6575   24.0561 C   0  0  0  0  0  0
  -25.9043  -34.9462   23.5121 C   0  0  0  0  0  0
  -16.5345  -29.9079   23.6325 C   0  0  0  0  0  0
  -16.7262  -28.6500   23.0337 C   0  0  0  0  0  0
  -26.4486  -31.6593   25.0732 C   0  0  0  0  0  0
  -25.3750  -31.3706   26.1481 C   0  0  0  0  0  0
  -27.0328  -30.3030   24.6136 C   0  0  0  0  0  0
  -27.6049  -32.4326   25.7501 C   0  0  0  0  0  0
  -27.5577  -37.1806   24.8461 C   0  0  0  0  0  0
  -21.4149  -29.3027   22.3719 N   0  0  0  0  0  0
  -26.4287  -37.3787   23.9406 N   0  0  0  0  0  0
  -24.6714  -31.0749   22.1019 N   0  0  0  0  0  0
  -23.4187  -28.8176   23.3020 O   0  0  0  0  0  0
  -28.3820  -26.6379   20.1428 O   0  0  0  0  0  0
  -26.5596  -34.8910   22.4679 O   0  0  0  0  0  0
  -23.5368  -32.1433   23.7490 O   0  0  0  0  0  0
  -29.5142  -18.4336   20.1446 C   0  0  0  0  0  0
  -29.6198  -19.8458   20.0932 C   0  0  0  0  0  0
  -29.6880  -19.9255   22.5068 C   0  0  0  0  0  0
  -29.4604  -17.7507   21.3814 C   0  0  0  0  0  0
  -29.6953  -20.6260   21.2738 C   0  0  0  0  0  0
  -29.5500  -18.5206   22.5637 C   0  0  0  0  0  0
  -29.2699  -24.2470   22.0333 C   0  0  0  0  0  0
  -29.8606  -22.8814   22.4114 C   0  0  0  0  0  0
  -29.2279  -22.8255   20.1013 C   0  0  0  0  0  0
  -29.3409  -24.3183   20.5033 C   0  0  1  0  0  0
  -31.3572  -15.7500   22.5773 C   0  0  0  0  0  0
  -29.1967  -16.2307   21.4331 C   0  0  0  0  0  0
  -28.2511  -25.2233   19.8668 C   0  0  0  0  0  0
  -29.7776  -22.0466   21.2147 N   0  0  0  0  0  0
  -30.3512  -15.3139   21.6043 N   0  0  0  0  0  0
  -29.4732  -17.9183   23.7743 F   0  0  0  0  0  0
  -31.4538  -12.4161   19.1109 H   0  0  0  0  0  0
  -30.3124  -11.3169   19.8219 H   0  0  0  0  0  0
  -29.7270  -11.7861   17.4277 H   0  0  0  0  0  0
  -29.6360  -13.4979   17.7643 H   0  0  0  0  0  0
  -27.8376  -11.2959   18.8361 H   0  0  0  0  0  0
  -27.3496  -12.6050   17.7934 H   0  0  0  0  0  0
  -27.6854  -14.2411   19.5440 H   0  0  0  0  0  0
  -28.6796  -11.9789   21.3522 H   0  0  0  0  0  0
  -28.4466  -13.6176   21.8624 H   0  0  0  0  0  0
  -25.2744   -9.5690   22.4762 H   0  0  0  0  0  0
  -23.9990   -7.4637   22.7480 H   0  0  0  0  0  0
  -21.0825   -8.8760   19.8954 H   0  0  0  0  0  0
  -22.3670  -10.9668   19.6167 H   0  0  0  0  0  0
  -21.2005   -7.6144   23.9710 H   0  0  0  0  0  0
  -21.1483   -6.0521   25.9075 H   0  0  0  0  0  0
  -22.0599   -2.7606   23.2847 H   0  0  0  0  0  0
  -22.4096  -11.9886   22.4780 H   0  0  0  0  0  0
  -21.1120  -13.1282   22.2639 H   0  0  0  0  0  0
  -24.6583  -15.8393   20.5110 H   0  0  0  0  0  0
  -26.2750  -15.6267   20.0718 H   0  0  0  0  0  0
  -26.7130  -32.5498   23.1152 H   0  0  0  0  0  0
  -25.0071  -33.9760   25.0467 H   0  0  0  0  0  0
  -22.6936  -31.3102   21.4163 H   0  0  0  0  0  0
  -23.3732  -35.9659   23.3307 H   0  0  0  0  0  0
  -24.3576  -36.8929   22.2049 H   0  0  0  0  0  0
  -23.7257  -37.6524   23.6654 H   0  0  0  0  0  0
  -26.0580  -31.5891   20.6038 H   0  0  0  0  0  0
  -26.8230  -30.8711   21.9927 H   0  0  0  0  0  0
  -28.0955  -29.0605   21.1840 H   0  0  0  0  0  0
  -26.0010  -25.9974   18.9561 H   0  0  0  0  0  0
  -23.9694  -27.3245   19.0060 H   0  0  0  0  0  0
  -23.7235  -30.6103   19.4079 H   0  0  0  0  0  0
  -22.7355  -29.2561   19.8640 H   0  0  0  0  0  0
  -25.1282  -36.1951   25.0825 H   0  0  0  0  0  0
  -20.9939  -28.3219   24.1435 H   0  0  0  0  0  0
  -20.5651  -26.2259   23.3598 H   0  0  0  0  0  0
  -21.6631  -26.7429   22.1213 H   0  0  0  0  0  0
  -19.6901  -25.6293   21.1224 H   0  0  0  0  0  0
  -19.6683  -27.3188   20.6725 H   0  0  0  0  0  0
  -17.4183  -26.6653   21.4012 H   0  0  0  0  0  0
  -18.0327  -26.0054   22.9004 H   0  0  0  0  0  0
  -19.7936  -30.7256   24.2244 H   0  0  0  0  0  0
  -17.5018  -31.6251   24.5171 H   0  0  0  0  0  0
  -15.5349  -30.2979   23.7666 H   0  0  0  0  0  0
  -15.8656  -28.0835   22.7037 H   0  0  0  0  0  0
  -24.5922  -30.7049   25.7830 H   0  0  0  0  0  0
  -24.8938  -32.2863   26.4928 H   0  0  0  0  0  0
  -25.8107  -30.8884   27.0241 H   0  0  0  0  0  0
  -26.2884  -29.6779   24.1187 H   0  0  0  0  0  0
  -27.4087  -29.7279   25.4610 H   0  0  0  0  0  0
  -27.8727  -30.4340   23.9306 H   0  0  0  0  0  0
  -27.2656  -33.3620   26.2087 H   0  0  0  0  0  0
  -28.3858  -32.6900   25.0334 H   0  0  0  0  0  0
  -28.0716  -31.8447   26.5417 H   0  0  0  0  0  0
  -28.2590  -38.0107   24.7510 H   0  0  0  0  0  0
  -28.1076  -36.2636   24.6284 H   0  0  0  0  0  0
  -27.2292  -37.1462   25.8864 H   0  0  0  0  0  0
  -20.9305  -29.8785   21.6975 H   0  0  0  0  0  0
  -26.0166  -38.2860   24.1419 H   0  0  0  0  0  0
  -29.4370  -17.8796   19.2197 H   0  0  0  0  0  0
  -29.6399  -20.3204   19.1228 H   0  0  0  0  0  0
  -29.7570  -20.4447   23.4486 H   0  0  0  0  0  0
  -29.7909  -25.0742   22.5171 H   0  0  0  0  0  0
  -28.2294  -24.2843   22.3616 H   0  0  0  0  0  0
  -29.3094  -22.4740   23.2594 H   0  0  0  0  0  0
  -30.9067  -22.9810   22.7073 H   0  0  0  0  0  0
  -29.7656  -22.6352   19.1710 H   0  0  0  0  0  0
  -28.1844  -22.5444   19.9461 H   0  0  0  0  0  0
  -30.3288  -24.6780   20.2126 H   0  0  0  0  0  0
  -30.8950  -15.9925   23.5328 H   0  0  0  0  0  0
  -31.8992  -16.6243   22.2150 H   0  0  0  0  0  0
  -32.0891  -14.9648   22.7758 H   0  0  0  0  0  0
  -28.6473  -15.9742   20.5287 H   0  0  0  0  0  0
  -28.4996  -16.0402   22.2498 H   0  0  0  0  0  0
  -27.2974  -24.8422   20.2352 H   0  0  0  0  0  0
  -28.2525  -25.0871   18.7842 H   0  0  0  0  0  0
  1 25  1  0  0  0
  1 30  2  0  0  0
  1 85  1  0  0  0
  2  3  1  0  0  0
  2 25  1  0  0  0
  2 87  1  0  0  0
  2 88  1  0  0  0
  3  4  1  0  0  0
  3 89  1  0  0  0
  3 90  1  0  0  0
  4  5  1  0  0  0
  4 91  1  0  0  0
  4 92  1  0  0  0
  5  6  1  0  0  0
  5 26  1  0  0  0
  5 93  1  0  0  0
  6 25  1  0  0  0
  6 94  1  0  0  0
  6 95  1  0  0  0
  7  8  2  0  0  0
  7 26  1  0  0  0
  7 29  1  0  0  0
  8  9  1  0  0  0
  8 22  1  0  0  0
  9 10  1  0  0  0
  9 27  2  0  0  0
 10 11  2  0  0  0
 10 15  1  0  0  0
 11 12  1  0  0  0
 11 96  1  0  0  0
 12 13  2  0  0  0
 12 97  1  0  0  0
 13 14  1  0  0  0
 13 31  1  0  0  0
 14 15  2  0  0  0
 14 98  1  0  0  0
 15 99  1  0  0  0
 16 17  2  0  0  0
 16 21  1  0  0  0
 16 31  1  0  0  0
 17 18  1  0  0  0
 17100  1  0  0  0
 18 19  2  0  0  0
 18101  1  0  0  0
 19 20  1  0  0  0
 19 24  1  0  0  0
 20 21  2  0  0  0
 20102  1  0  0  0
 21 23  1  0  0  0
 22 28  1  0  0  0
 22 32  2  0  0  0
 26 27  1  0  0  0
 28103  1  0  0  0
 28104  1  0  0  0
 29105  1  0  0  0
 29106  1  0  0  0
 33 34  1  0  0  0
 33 66  1  0  0  0
 33 70  2  0  0  0
 34 36  1  0  0  0
 34 59  1  0  0  0
 34107  1  0  0  0
 35 44  2  0  0  0
 35 45  1  0  0  0
 35 68  1  0  0  0
 36 56  1  0  0  0
 36108  1  0  0  0
 37 39  1  0  0  0
 37 47  1  0  0  0
 37 66  1  0  0  0
 37109  1  0  0  0
 38 43  2  0  0  0
 38 46  1  0  0  0
 38 47  1  0  0  0
 39 64  1  0  0  0
 39 67  2  0  0  0
 40 52  1  0  0  0
 40 53  2  0  0  0
 40 58  1  0  0  0
 41110  1  0  0  0
 41111  1  0  0  0
 41112  1  0  0  0
 41 48  1  0  0  0
 42 43  1  0  0  0
 42 66  1  0  0  0
 42113  1  0  0  0
 42114  1  0  0  0
 43 44  1  0  0  0
 44115  1  0  0  0
 45 46  2  0  0  0
 45116  1  0  0  0
 46117  1  0  0  0
 47118  1  0  0  0
 47119  1  0  0  0
 48 56  1  0  0  0
 48 65  1  0  0  0
 48120  1  0  0  0
 49 50  1  0  0  0
 49 53  1  0  0  0
 49 64  1  0  0  0
 49121  1  0  0  0
 50 51  1  0  0  0
 50122  1  0  0  0
 50123  1  0  0  0
 51 52  1  0  0  0
 51124  1  0  0  0
 51125  1  0  0  0
 52126  1  0  0  0
 52127  1  0  0  0
 53 54  1  0  0  0
 54 55  2  0  0  0
 54128  1  0  0  0
 55 57  1  0  0  0
 55129  1  0  0  0
 56 69  2  0  0  0
 57 58  2  0  0  0
 57130  1  0  0  0
 58131  1  0  0  0
 59 60  1  0  0  0
 59 61  1  0  0  0
 59 62  1  0  0  0
 60132  1  0  0  0
 60133  1  0  0  0
 60134  1  0  0  0
 61135  1  0  0  0
 61136  1  0  0  0
 61137  1  0  0  0
 62138  1  0  0  0
 62139  1  0  0  0
 62140  1  0  0  0
 63 65  1  0  0  0
 63141  1  0  0  0
 63142  1  0  0  0
 63143  1  0  0  0
 64144  1  0  0  0
 65145  1  0  0  0
 68 83  1  0  0  0
 71 72  2  0  0  0
 71 74  1  0  0  0
 71146  1  0  0  0
 72 75  1  0  0  0
 72147  1  0  0  0
 73 75  2  0  0  0
 73 76  1  0  0  0
 73148  1  0  0  0
 74 76  2  0  0  0
 74 82  1  0  0  0
 75 84  1  0  0  0
 76 86  1  0  0  0
 77 78  1  0  0  0
 77 80  1  0  0  0
 77149  1  0  0  0
 77150  1  0  0  0
 78 84  1  0  0  0
 78151  1  0  0  0
 78152  1  0  0  0
 79 80  1  0  0  0
 79 84  1  0  0  0
 79153  1  0  0  0
 79154  1  0  0  0
 80 83  1  0  0  0
 80155  1  0  0  0
 81 85  1  0  0  0
 81156  1  0  0  0
 81157  1  0  0  0
 81158  1  0  0  0
 82 85  1  0  0  0
 82159  1  0  0  0
 82160  1  0  0  0
 83161  1  0  0  0
 83162  1  0  0  0
M  ISO  4   1 100  68 101  83 101  85 100
M  END
> <chiral flag>
0

> <version>
0

> <s_m_source_file>
/data/baiqing/PycharmProjects/Reinvent-master-3.2/result/LINK_invent/BTK/process_docking_weight1_custom_product_contain_oxygen_bond_distance_aromatic_linkinvent_7_9_3/rearranged_h_0024.sdf

> <i_m_source_file_index>
90

> <r_mmod_Potential_Energy-OPLS-2005>
177.601593017578

> <r_mmod_Stretch_Energy-OPLS-2005>
44.8051261901855

> <r_mmod_Bend_Energy-OPLS-2005>
140.920883178711

> <r_mmod_Torsional_Energy-OPLS-2005>
318.423889160156

> <r_mmod_Improper_Torsional_Energy-OPLS-2005>
7.2211971282959

> <r_mmod_Van_der_Waal_Energy-OPLS-2005>
158.589126586914

> <r_mmod_Electrostatic_Energy-OPLS-2005>
-293.203277587891

> <r_mmod_Solvation_Energy-OPLS-2005>
-214.374557495117

> <b_mmod_Minimization_Converged-OPLS-2005>
0

> <r_mmod_RMS_Derivative-OPLS-2005>
1.09947180747986

$$$$
90
                    3D
 Structure written by MMmdl.
167176  0  0  1  0            999 V2000
  -30.6276  -14.7261   20.4695 C   0  0  0  0  0  0
  -30.4312  -12.4400   19.4858 C   0  0  0  0  0  0
  -29.5098  -12.5018   18.2465 C   0  0  0  0  0  0
  -28.0380  -12.3263   18.6610 C   0  0  0  0  0  0
  -27.6463  -13.2295   19.8607 C   0  0  2  0  0  0
  -28.6901  -13.1595   20.9995 C   0  0  0  0  0  0
  -25.2527  -13.8195   20.5697 C   0  0  0  0  0  0
  -24.1811  -13.0442   20.9197 C   0  0  0  0  0  0
  -24.6400  -11.6918   20.8760 C   0  0  0  0  0  0
  -23.9078  -10.4297   21.0412 C   0  0  0  0  0  0
  -24.3622   -9.4208   21.9194 C   0  0  0  0  0  0
  -23.6290   -8.2247   22.0769 C   0  0  0  0  0  0
  -22.4280   -8.0281   21.3548 C   0  0  0  0  0  0
  -21.9916   -9.0258   20.4652 C   0  0  0  0  0  0
  -22.7249  -10.2134   20.3063 C   0  0  0  0  0  0
  -21.6849   -6.0734   22.5274 C   0  0  0  0  0  0
  -21.4005   -6.5637   23.8203 C   0  0  0  0  0  0
  -21.3662   -5.6796   24.9169 C   0  0  0  0  0  0
  -21.6047   -4.3057   24.7223 C   0  0  0  0  0  0
  -21.8819   -3.8145   23.4341 C   0  0  0  0  0  0
  -21.9190   -4.6962   22.3398 C   0  0  0  0  0  0
  -22.7832  -13.5227   21.1841 C   0  0  0  0  0  0
  -22.1662   -4.2150   21.0976 F   0  0  0  0  0  0
  -21.5638   -3.4544   25.7737 F   0  0  0  0  0  0
  -29.9964  -13.5025   20.4237 N   0  0  0  0  0  0
  -26.2962  -12.9401   20.3338 N   0  0  0  0  0  0
  -25.9337  -11.6546   20.5799 N   0  0  0  0  0  0
  -22.0474  -12.8216   22.0397 N   0  0  0  0  0  0
  -25.4209  -15.1914   20.4096 N   0  0  0  0  0  0
  -31.8005  -14.8228   20.0987 O   0  0  0  0  0  0
  -21.6638   -6.8879   21.4237 O   0  0  0  0  0  0
  -22.3524  -14.5532   20.6690 O   0  0  0  0  0  0
  -24.6307  -31.8547   23.1989 C   0  0  0  0  0  0
  -25.9126  -32.4745   23.8334 C   0  0  1  0  0  0
  -27.2163  -27.2560   20.1337 C   0  0  0  0  0  0
  -25.5910  -33.8552   24.2246 N   0  0  0  0  0  0
  -23.4283  -30.4776   21.5435 C   0  0  2  0  0  0
  -24.8772  -28.9312   20.1090 C   0  0  0  0  0  0
  -22.7514  -29.4566   22.4920 C   0  0  0  0  0  0
  -18.0289  -28.1380   22.8492 C   0  0  0  0  0  0
  -24.1482  -36.7285   23.2638 C   0  0  0  0  0  0
  -25.9753  -30.7705   21.3777 C   0  0  0  0  0  0
  -26.0500  -29.3924   20.7201 C   0  0  0  0  0  0
  -27.2232  -28.5681   20.7201 C   0  0  0  0  0  0
  -26.0181  -26.8698   19.4873 C   0  0  0  0  0  0
  -24.8666  -27.6785   19.4809 C   0  0  0  0  0  0
  -23.6458  -29.8153   20.1591 C   0  0  0  0  0  0
  -25.4114  -36.3067   24.0318 C   0  0  1  0  0  0
  -20.5896  -28.3675   23.1290 C   0  0  2  0  0  0
  -20.6774  -26.9393   22.5421 C   0  0  0  0  0  0
  -19.5744  -26.6384   21.5221 C   0  0  0  0  0  0
  -18.1922  -26.7922   22.1637 C   0  0  0  0  0  0
  -19.1545  -28.8850   23.2877 C   0  0  0  0  0  0
  -18.9465  -30.1454   23.8887 C   0  0  0  0  0  0
  -17.6463  -30.6582   24.0551 C   0  0  0  0  0  0
  -25.9056  -34.9431   23.5098 C   0  0  0  0  0  0
  -16.5354  -29.9073   23.6334 C   0  0  0  0  0  0
  -16.7276  -28.6495   23.0350 C   0  0  0  0  0  0
  -26.4503  -31.6572   25.0715 C   0  0  0  0  0  0
  -25.3715  -31.3670   26.1418 C   0  0  0  0  0  0
  -27.0360  -30.3000   24.6182 C   0  0  0  0  0  0
  -27.6067  -32.4310   25.7489 C   0  0  0  0  0  0
  -27.5574  -37.1794   24.8466 C   0  0  0  0  0  0
  -21.4220  -29.3019   22.3674 N   0  0  0  0  0  0
  -26.4291  -37.3765   23.9407 N   0  0  0  0  0  0
  -24.6976  -31.0515   22.0967 N   0  0  0  0  0  0
  -23.4219  -28.8093   23.2994 O   0  0  0  0  0  0
  -28.2993  -26.3432   20.2083 O   0  0  0  0  0  0
  -26.5649  -34.8900   22.4681 O   0  0  0  0  0  0
  -23.5457  -32.1375   23.7276 O   0  0  0  0  0  0
  -29.4158  -19.8792   20.2724 C   0  0  0  0  0  0
  -28.8979  -19.7700   22.9802 C   0  0  0  0  0  0
  -29.6295  -18.6098   20.9533 C   0  0  0  0  0  0
  -28.6007  -20.9712   22.2874 C   0  0  0  0  0  0
  -28.9306  -21.0990   20.9043 C   0  0  0  0  0  0
  -29.3962  -18.6179   22.3413 C   0  0  0  0  0  0
  -24.4097  -22.4677   24.3104 C   0  0  0  0  0  0
  -24.4303  -20.9458   24.1915 C   0  0  0  0  0  0
  -25.5201  -22.9492   23.3656 C   0  0  0  0  0  0
  -25.8952  -20.6457   23.8835 C   0  0  0  0  0  0
  -30.1821  -17.2930   20.2431 C   0  0  0  0  0  0
  -27.8223  -22.0298   23.0711 C   0  0  0  0  0  0
  -28.0096  -24.8669   20.0852 C   0  0  0  0  0  0
  -29.0555  -23.6776   20.4420 C   0  0  0  0  0  0
  -29.8730  -15.8641   20.7015 N   0  0  0  0  0  0
  -26.3613  -21.7711   23.0413 N   0  3  0  0  0  0
  -28.6348  -22.2689   20.1386 O   0  0  0  0  0  0
  -29.6307  -17.5079   23.0801 F   0  0  0  0  0  0
  -31.4749  -12.5484   19.1864 H   0  0  0  0  0  0
  -30.3636  -11.4620   19.9672 H   0  0  0  0  0  0
  -29.7895  -11.7304   17.5275 H   0  0  0  0  0  0
  -29.6377  -13.4581   17.7366 H   0  0  0  0  0  0
  -27.8984  -11.2788   18.9307 H   0  0  0  0  0  0
  -27.3766  -12.5107   17.8143 H   0  0  0  0  0  0
  -27.6449  -14.2508   19.4802 H   0  0  0  0  0  0
  -28.7202  -12.1610   21.4392 H   0  0  0  0  0  0
  -28.4292  -13.8419   21.8102 H   0  0  0  0  0  0
  -25.2759   -9.5682   22.4779 H   0  0  0  0  0  0
  -23.9989   -7.4643   22.7506 H   0  0  0  0  0  0
  -21.0842   -8.8771   19.8965 H   0  0  0  0  0  0
  -22.3696  -10.9673   19.6178 H   0  0  0  0  0  0
  -21.1989   -7.6144   23.9703 H   0  0  0  0  0  0
  -21.1490   -6.0529   25.9072 H   0  0  0  0  0  0
  -22.0596   -2.7608   23.2840 H   0  0  0  0  0  0
  -22.4081  -11.9853   22.4738 H   0  0  0  0  0  0
  -21.1105  -13.1260   22.2636 H   0  0  0  0  0  0
  -24.6479  -15.8401   20.5105 H   0  0  0  0  0  0
  -26.2638  -15.6314   20.0631 H   0  0  0  0  0  0
  -26.7184  -32.5407   23.1070 H   0  0  0  0  0  0
  -24.9975  -33.9688   25.0336 H   0  0  0  0  0  0
  -22.7226  -31.2976   21.3968 H   0  0  0  0  0  0
  -23.3744  -35.9614   23.3297 H   0  0  0  0  0  0
  -24.3566  -36.8934   22.2054 H   0  0  0  0  0  0
  -23.7241  -37.6478   23.6693 H   0  0  0  0  0  0
  -26.1063  -31.5294   20.6059 H   0  0  0  0  0  0
  -26.8571  -30.8274   22.0044 H   0  0  0  0  0  0
  -28.1192  -28.9101   21.2190 H   0  0  0  0  0  0
  -25.9290  -25.9150   18.9927 H   0  0  0  0  0  0
  -23.9680  -27.3218   18.9965 H   0  0  0  0  0  0
  -23.7607  -30.5925   19.4016 H   0  0  0  0  0  0
  -22.7681  -29.2408   19.8595 H   0  0  0  0  0  0
  -25.1286  -36.1909   25.0804 H   0  0  0  0  0  0
  -20.9977  -28.3249   24.1417 H   0  0  0  0  0  0
  -20.5695  -26.2262   23.3610 H   0  0  0  0  0  0
  -21.6632  -26.7420   22.1195 H   0  0  0  0  0  0
  -19.6898  -25.6301   21.1233 H   0  0  0  0  0  0
  -19.6694  -27.3204   20.6759 H   0  0  0  0  0  0
  -17.4198  -26.6687   21.4025 H   0  0  0  0  0  0
  -18.0302  -26.0050   22.9024 H   0  0  0  0  0  0
  -19.7936  -30.7271   24.2259 H   0  0  0  0  0  0
  -17.5006  -31.6258   24.5147 H   0  0  0  0  0  0
  -15.5349  -30.2953   23.7669 H   0  0  0  0  0  0
  -15.8679  -28.0807   22.7067 H   0  0  0  0  0  0
  -24.5940  -30.6974   25.7720 H   0  0  0  0  0  0
  -24.8827  -32.2789   26.4849 H   0  0  0  0  0  0
  -25.8019  -30.8850   27.0200 H   0  0  0  0  0  0
  -26.2946  -29.6724   24.1225 H   0  0  0  0  0  0
  -27.4083  -29.7273   25.4688 H   0  0  0  0  0  0
  -27.8786  -30.4295   23.9384 H   0  0  0  0  0  0
  -27.2734  -33.3667   26.1995 H   0  0  0  0  0  0
  -28.3918  -32.6784   25.0325 H   0  0  0  0  0  0
  -28.0678  -31.8457   26.5456 H   0  0  0  0  0  0
  -28.2573  -38.0102   24.7523 H   0  0  0  0  0  0
  -28.1093  -36.2640   24.6296 H   0  0  0  0  0  0
  -27.2292  -37.1440   25.8865 H   0  0  0  0  0  0
  -20.9412  -29.8746   21.6886 H   0  0  0  0  0  0
  -26.0162  -38.2833   24.1415 H   0  0  0  0  0  0
  -29.6190  -19.9160   19.2123 H   0  0  0  0  0  0
  -28.6863  -19.6965   24.0374 H   0  0  0  0  0  0
  -24.6506  -22.7587   25.3340 H   0  0  0  0  0  0
  -23.4376  -22.8977   24.0663 H   0  0  0  0  0  0
  -23.7997  -20.6209   23.3621 H   0  0  0  0  0  0
  -24.0799  -20.4437   25.0944 H   0  0  0  0  0  0
  -26.0925  -23.7520   23.8339 H   0  0  0  0  0  0
  -25.1045  -23.3470   22.4389 H   0  0  0  0  0  0
  -26.0264  -19.6806   23.3925 H   0  0  0  0  0  0
  -26.4574  -20.6225   24.8188 H   0  0  0  0  0  0
  -31.2663  -17.4041   20.2058 H   0  0  0  0  0  0
  -29.8587  -17.3472   19.2035 H   0  0  0  0  0  0
  -27.9840  -23.0225   22.6747 H   0  0  0  0  0  0
  -28.1803  -22.0732   24.1014 H   0  0  0  0  0  0
  -27.1127  -24.6630   20.6719 H   0  0  0  0  0  0
  -27.7313  -24.6977   19.0442 H   0  0  0  0  0  0
  -29.4378  -23.7857   21.4548 H   0  0  0  0  0  0
  -29.9411  -23.8462   19.8300 H   0  0  0  0  0  0
  -28.9326  -15.7028   21.0266 H   0  0  0  0  0  0
  -26.1353  -21.5321   22.0873 H   0  0  0  0  0  0
  1 25  1  0  0  0
  1 30  2  0  0  0
  1 85  1  0  0  0
  2  3  1  0  0  0
  2 25  1  0  0  0
  2 89  1  0  0  0
  2 90  1  0  0  0
  3  4  1  0  0  0
  3 91  1  0  0  0
  3 92  1  0  0  0
  4  5  1  0  0  0
  4 93  1  0  0  0
  4 94  1  0  0  0
  5  6  1  0  0  0
  5 26  1  0  0  0
  5 95  1  0  0  0
  6 25  1  0  0  0
  6 96  1  0  0  0
  6 97  1  0  0  0
  7  8  2  0  0  0
  7 26  1  0  0  0
  7 29  1  0  0  0
  8  9  1  0  0  0
  8 22  1  0  0  0
  9 10  1  0  0  0
  9 27  2  0  0  0
 10 11  2  0  0  0
 10 15  1  0  0  0
 11 12  1  0  0  0
 11 98  1  0  0  0
 12 13  2  0  0  0
 12 99  1  0  0  0
 13 14  1  0  0  0
 13 31  1  0  0  0
 14 15  2  0  0  0
 14100  1  0  0  0
 15101  1  0  0  0
 16 17  2  0  0  0
 16 21  1  0  0  0
 16 31  1  0  0  0
 17 18  1  0  0  0
 17102  1  0  0  0
 18 19  2  0  0  0
 18103  1  0  0  0
 19 20  1  0  0  0
 19 24  1  0  0  0
 20 21  2  0  0  0
 20104  1  0  0  0
 21 23  1  0  0  0
 22 28  1  0  0  0
 22 32  2  0  0  0
 26 27  1  0  0  0
 28105  1  0  0  0
 28106  1  0  0  0
 29107  1  0  0  0
 29108  1  0  0  0
 33 34  1  0  0  0
 33 66  1  0  0  0
 33 70  2  0  0  0
 34 36  1  0  0  0
 34 59  1  0  0  0
 34109  1  0  0  0
 35 44  2  0  0  0
 35 45  1  0  0  0
 35 68  1  0  0  0
 36 56  1  0  0  0
 36110  1  0  0  0
 37 39  1  0  0  0
 37 47  1  0  0  0
 37 66  1  0  0  0
 37111  1  0  0  0
 38 43  2  0  0  0
 38 46  1  0  0  0
 38 47  1  0  0  0
 39 64  1  0  0  0
 39 67  2  0  0  0
 40 52  1  0  0  0
 40 53  2  0  0  0
 40 58  1  0  0  0
 41112  1  0  0  0
 41113  1  0  0  0
 41114  1  0  0  0
 41 48  1  0  0  0
 42 43  1  0  0  0
 42 66  1  0  0  0
 42115  1  0  0  0
 42116  1  0  0  0
 43 44  1  0  0  0
 44117  1  0  0  0
 45 46  2  0  0  0
 45118  1  0  0  0
 46119  1  0  0  0
 47120  1  0  0  0
 47121  1  0  0  0
 48 56  1  0  0  0
 48 65  1  0  0  0
 48122  1  0  0  0
 49 50  1  0  0  0
 49 53  1  0  0  0
 49 64  1  0  0  0
 49123  1  0  0  0
 50 51  1  0  0  0
 50124  1  0  0  0
 50125  1  0  0  0
 51 52  1  0  0  0
 51126  1  0  0  0
 51127  1  0  0  0
 52128  1  0  0  0
 52129  1  0  0  0
 53 54  1  0  0  0
 54 55  2  0  0  0
 54130  1  0  0  0
 55 57  1  0  0  0
 55131  1  0  0  0
 56 69  2  0  0  0
 57 58  2  0  0  0
 57132  1  0  0  0
 58133  1  0  0  0
 59 60  1  0  0  0
 59 61  1  0  0  0
 59 62  1  0  0  0
 60134  1  0  0  0
 60135  1  0  0  0
 60136  1  0  0  0
 61137  1  0  0  0
 61138  1  0  0  0
 61139  1  0  0  0
 62140  1  0  0  0
 62141  1  0  0  0
 62142  1  0  0  0
 63 65  1  0  0  0
 63143  1  0  0  0
 63144  1  0  0  0
 63145  1  0  0  0
 64146  1  0  0  0
 65147  1  0  0  0
 68 83  1  0  0  0
 71 73  2  0  0  0
 71 75  1  0  0  0
 71148  1  0  0  0
 72 74  1  0  0  0
 72 76  2  0  0  0
 72149  1  0  0  0
 73 76  1  0  0  0
 73 81  1  0  0  0
 74 75  2  0  0  0
 74 82  1  0  0  0
 75 87  1  0  0  0
 76 88  1  0  0  0
 77 78  1  0  0  0
 77 79  1  0  0  0
 77150  1  0  0  0
 77151  1  0  0  0
 78 80  1  0  0  0
 78152  1  0  0  0
 78153  1  0  0  0
 79 86  1  0  0  0
 79154  1  0  0  0
 79155  1  0  0  0
 80 86  1  0  0  0
 80156  1  0  0  0
 80157  1  0  0  0
 81 85  1  0  0  0
 81158  1  0  0  0
 81159  1  0  0  0
 82160  1  0  0  0
 82161  1  0  0  0
 82 86  1  0  0  0
 83 84  1  0  0  0
 83162  1  0  0  0
 83163  1  0  0  0
 84 87  1  0  0  0
 84164  1  0  0  0
 84165  1  0  0  0
 85166  1  0  0  0
 86167  1  0  0  0
M  CHG  1  86   1
M  ISO  4   1 100  68 101  83 101  85 100
M  END
> <chiral flag>
0

> <version>
0

> <s_m_source_file>
/data/baiqing/PycharmProjects/Reinvent-master-3.2/result/LINK_invent/BTK/process_docking_weight1_custom_product_contain_oxygen_bond_distance_aromatic_linkinvent_7_9_3/rearranged_h_0024.sdf

> <i_m_source_file_index>
91

> <r_mmod_Potential_Energy-OPLS-2005>
99.478630065918

> <r_mmod_Stretch_Energy-OPLS-2005>
127.172355651855

> <r_mmod_Bend_Energy-OPLS-2005>
202.227203369141

> <r_mmod_Torsional_Energy-OPLS-2005>
287.640319824219

> <r_mmod_Improper_Torsional_Energy-OPLS-2005>
7.29273891448975

> <r_mmod_Van_der_Waal_Energy-OPLS-2005>
137.462219238281

> <r_mmod_Electrostatic_Energy-OPLS-2005>
-298.833221435547

> <r_mmod_Solvation_Energy-OPLS-2005>
-446.977661132812

> <b_mmod_Minimization_Converged-OPLS-2005>
0

> <r_mmod_RMS_Derivative-OPLS-2005>
1.82473051548004

$$$$
91
                    3D
 Structure written by MMmdl.
156165  0  0  1  0            999 V2000
  -30.5233  -14.9052   20.4314 C   0  0  0  0  0  0
  -30.4464  -12.5559   19.4945 C   0  0  0  0  0  0
  -29.5210  -12.5308   18.2538 C   0  0  0  0  0  0
  -28.0513  -12.3248   18.6682 C   0  0  0  0  0  0
  -27.6375  -13.2404   19.8495 C   0  0  2  0  0  0
  -28.6798  -13.2190   20.9887 C   0  0  0  0  0  0
  -25.2497  -13.8204   20.5712 C   0  0  0  0  0  0
  -24.1793  -13.0440   20.9214 C   0  0  0  0  0  0
  -24.6390  -11.6918   20.8746 C   0  0  0  0  0  0
  -23.9068  -10.4293   21.0407 C   0  0  0  0  0  0
  -24.3620   -9.4211   21.9187 C   0  0  0  0  0  0
  -23.6298   -8.2244   22.0757 C   0  0  0  0  0  0
  -22.4281   -8.0278   21.3541 C   0  0  0  0  0  0
  -21.9911   -9.0252   20.4644 C   0  0  0  0  0  0
  -22.7237  -10.2133   20.3058 C   0  0  0  0  0  0
  -21.6851   -6.0736   22.5279 C   0  0  0  0  0  0
  -21.4011   -6.5642   23.8213 C   0  0  0  0  0  0
  -21.3663   -5.6795   24.9176 C   0  0  0  0  0  0
  -21.6047   -4.3057   24.7221 C   0  0  0  0  0  0
  -21.8821   -3.8148   23.4340 C   0  0  0  0  0  0
  -21.9190   -4.6965   22.3397 C   0  0  0  0  0  0
  -22.7812  -13.5220   21.1866 C   0  0  0  0  0  0
  -22.1662   -4.2157   21.0972 F   0  0  0  0  0  0
  -21.5633   -3.4540   25.7730 F   0  0  0  0  0  0
  -29.9658  -13.6307   20.4074 N   0  0  0  0  0  0
  -26.2920  -12.9421   20.3279 N   0  0  0  0  0  0
  -25.9326  -11.6554   20.5746 N   0  0  0  0  0  0
  -22.0454  -12.8215   22.0419 N   0  0  0  0  0  0
  -25.4185  -15.1926   20.4139 N   0  0  0  0  0  0
  -31.7019  -15.0277   20.0783 O   0  0  0  0  0  0
  -21.6641   -6.8876   21.4239 O   0  0  0  0  0  0
  -22.3504  -14.5521   20.6702 O   0  0  0  0  0  0
  -24.6432  -31.8449   23.1907 C   0  0  0  0  0  0
  -25.9209  -32.4702   23.8286 C   0  0  1  0  0  0
  -27.2171  -27.1453   20.1352 C   0  0  0  0  0  0
  -25.5960  -33.8506   24.2201 N   0  0  0  0  0  0
  -23.4441  -30.4677   21.5366 C   0  0  2  0  0  0
  -24.8917  -28.8966   20.1091 C   0  0  0  0  0  0
  -22.7556  -29.4562   22.4868 C   0  0  0  0  0  0
  -18.0312  -28.1383   22.8467 C   0  0  0  0  0  0
  -24.1494  -36.7252   23.2641 C   0  0  0  0  0  0
  -26.0008  -30.7188   21.3901 C   0  0  0  0  0  0
  -26.0684  -29.3318   20.7299 C   0  0  0  0  0  0
  -27.2270  -28.4700   20.7319 C   0  0  0  0  0  0
  -26.0132  -26.8160   19.4693 C   0  0  0  0  0  0
  -24.8772  -27.6515   19.4654 C   0  0  0  0  0  0
  -23.6679  -29.7967   20.1561 C   0  0  0  0  0  0
  -25.4124  -36.3033   24.0319 C   0  0  1  0  0  0
  -20.5926  -28.3702   23.1223 C   0  0  2  0  0  0
  -20.6804  -26.9429   22.5337 C   0  0  0  0  0  0
  -19.5776  -26.6408   21.5152 C   0  0  0  0  0  0
  -18.1948  -26.7950   22.1556 C   0  0  0  0  0  0
  -19.1570  -28.8855   23.2847 C   0  0  0  0  0  0
  -18.9488  -30.1454   23.8869 C   0  0  0  0  0  0
  -17.6481  -30.6563   24.0563 C   0  0  0  0  0  0
  -25.9073  -34.9411   23.5066 C   0  0  0  0  0  0
  -16.5370  -29.9056   23.6352 C   0  0  0  0  0  0
  -16.7295  -28.6485   23.0355 C   0  0  0  0  0  0
  -26.4527  -31.6571   25.0726 C   0  0  0  0  0  0
  -25.3706  -31.3761   26.1417 C   0  0  0  0  0  0
  -27.0399  -30.2968   24.6308 C   0  0  0  0  0  0
  -27.6054  -32.4343   25.7511 C   0  0  0  0  0  0
  -27.5574  -37.1783   24.8464 C   0  0  0  0  0  0
  -21.4247  -29.3048   22.3610 N   0  0  0  0  0  0
  -26.4285  -37.3743   23.9408 N   0  0  0  0  0  0
  -24.7159  -31.0314   22.0940 N   0  0  0  0  0  0
  -23.4202  -28.8108   23.3012 O   0  0  0  0  0  0
  -28.2901  -26.1862   20.2332 O   0  0  0  0  0  0
  -26.5656  -34.8900   22.4641 O   0  0  0  0  0  0
  -23.5557  -32.1325   23.7133 O   0  0  0  0  0  0
  -29.3344  -19.9124   21.4104 C   0  0  0  0  0  0
  -29.6141  -18.4925   21.5838 C   0  0  0  0  0  0
  -29.0651  -20.5322   20.1452 C   0  0  0  0  0  0
  -29.6934  -17.5228   20.5217 C   0  0  0  0  0  0
  -29.1753  -19.5623   19.0801 C   0  0  0  0  0  0
  -29.4739  -18.1478   19.2525 C   0  0  0  0  0  0
  -26.5292  -22.3507   21.1305 C   0  0  0  0  0  0
  -27.6796  -23.1683   21.7337 C   0  0  0  0  0  0
  -27.0837  -21.7742   19.8158 C   0  0  0  0  0  0
  -28.6709  -23.2991   20.5787 C   0  0  2  0  0  0
  -28.2527  -24.7085   19.7450 C   0  0  0  0  0  0
  -28.5382  -21.9095   19.8894 N   0  0  0  0  0  0
  -29.7048  -16.0106   20.7552 N   0  0  0  0  0  0
  -28.9257  -19.9910   17.8181 F   0  0  0  0  0  0
  -29.4711  -17.3571   18.1513 F   0  0  0  0  0  0
  -31.4797  -12.7191   19.1831 H   0  0  0  0  0  0
  -30.4393  -11.5901   20.0024 H   0  0  0  0  0  0
  -29.8291  -11.7439   17.5640 H   0  0  0  0  0  0
  -29.6187  -13.4694   17.7068 H   0  0  0  0  0  0
  -27.9333  -11.2784   18.9538 H   0  0  0  0  0  0
  -27.3899  -12.4835   17.8154 H   0  0  0  0  0  0
  -27.6156  -14.2534   19.4466 H   0  0  0  0  0  0
  -28.7516  -12.2242   21.4320 H   0  0  0  0  0  0
  -28.3822  -13.8908   21.7953 H   0  0  0  0  0  0
  -25.2758   -9.5696   22.4768 H   0  0  0  0  0  0
  -24.0008   -7.4638   22.7475 H   0  0  0  0  0  0
  -21.0850   -8.8762   19.8946 H   0  0  0  0  0  0
  -22.3686  -10.9675   19.6175 H   0  0  0  0  0  0
  -21.2002   -7.6150   23.9717 H   0  0  0  0  0  0
  -21.1488   -6.0523   25.9080 H   0  0  0  0  0  0
  -22.0593   -2.7610   23.2834 H   0  0  0  0  0  0
  -22.4074  -11.9884   22.4820 H   0  0  0  0  0  0
  -21.1071  -13.1243   22.2612 H   0  0  0  0  0  0
  -24.6462  -15.8422   20.5142 H   0  0  0  0  0  0
  -26.2584  -15.6297   20.0582 H   0  0  0  0  0  0
  -26.7272  -32.5308   23.1014 H   0  0  0  0  0  0
  -25.0087  -33.9623   25.0335 H   0  0  0  0  0  0
  -22.7477  -31.2945   21.3839 H   0  0  0  0  0  0
  -23.3762  -35.9579   23.3294 H   0  0  0  0  0  0
  -24.3574  -36.8890   22.2056 H   0  0  0  0  0  0
  -23.7246  -37.6443   23.6685 H   0  0  0  0  0  0
  -26.1590  -31.4741   20.6190 H   0  0  0  0  0  0
  -26.8711  -30.7669   22.0335 H   0  0  0  0  0  0
  -28.1209  -28.7960   21.2452 H   0  0  0  0  0  0
  -25.8882  -25.8800   18.9537 H   0  0  0  0  0  0
  -23.9796  -27.3149   18.9652 H   0  0  0  0  0  0
  -23.7998  -30.5704   19.3993 H   0  0  0  0  0  0
  -22.7831  -29.2358   19.8489 H   0  0  0  0  0  0
  -25.1317  -36.1857   25.0812 H   0  0  0  0  0  0
  -21.0039  -28.3256   24.1333 H   0  0  0  0  0  0
  -20.5756  -26.2293   23.3520 H   0  0  0  0  0  0
  -21.6663  -26.7495   22.1087 H   0  0  0  0  0  0
  -19.6965  -25.6330   21.1149 H   0  0  0  0  0  0
  -19.6726  -27.3245   20.6695 H   0  0  0  0  0  0
  -17.4230  -26.6773   21.3931 H   0  0  0  0  0  0
  -18.0304  -26.0054   22.8904 H   0  0  0  0  0  0
  -19.7965  -30.7279   24.2226 H   0  0  0  0  0  0
  -17.5036  -31.6239   24.5165 H   0  0  0  0  0  0
  -15.5366  -30.2947   23.7705 H   0  0  0  0  0  0
  -15.8702  -28.0796   22.7071 H   0  0  0  0  0  0
  -24.5892  -30.7102   25.7734 H   0  0  0  0  0  0
  -24.8886  -32.2947   26.4780 H   0  0  0  0  0  0
  -25.7983  -30.8973   27.0235 H   0  0  0  0  0  0
  -26.3024  -29.6686   24.1298 H   0  0  0  0  0  0
  -27.3994  -29.7271   25.4886 H   0  0  0  0  0  0
  -27.8941  -30.4205   23.9646 H   0  0  0  0  0  0
  -27.2643  -33.3661   26.2033 H   0  0  0  0  0  0
  -28.3896  -32.6872   25.0363 H   0  0  0  0  0  0
  -28.0693  -31.8505   26.5472 H   0  0  0  0  0  0
  -28.2588  -38.0082   24.7512 H   0  0  0  0  0  0
  -28.1078  -36.2612   24.6302 H   0  0  0  0  0  0
  -27.2288  -37.1439   25.8865 H   0  0  0  0  0  0
  -20.9436  -29.8765   21.6812 H   0  0  0  0  0  0
  -26.0155  -38.2814   24.1401 H   0  0  0  0  0  0
  -29.2603  -20.5201   22.2997 H   0  0  0  0  0  0
  -29.7255  -18.1350   22.5974 H   0  0  0  0  0  0
  -25.6525  -22.9721   20.9378 H   0  0  0  0  0  0
  -26.2229  -21.5579   21.8135 H   0  0  0  0  0  0
  -28.1358  -22.6210   22.5594 H   0  0  0  0  0  0
  -27.3547  -24.1340   22.1249 H   0  0  0  0  0  0
  -26.7143  -22.3394   18.9588 H   0  0  0  0  0  0
  -26.7371  -20.7489   19.6696 H   0  0  0  0  0  0
  -29.6842  -23.4112   20.9665 H   0  0  0  0  0  0
  -27.2784  -24.5003   19.3232 H   0  0  0  0  0  0
  -28.9014  -24.7231   18.8693 H   0  0  0  0  0  0
  -28.8394  -15.6866   21.1591 H   0  0  0  0  0  0
  1 25  1  0  0  0
  1 30  2  0  0  0
  1 83  1  0  0  0
  2  3  1  0  0  0
  2 25  1  0  0  0
  2 86  1  0  0  0
  2 87  1  0  0  0
  3  4  1  0  0  0
  3 88  1  0  0  0
  3 89  1  0  0  0
  4  5  1  0  0  0
  4 90  1  0  0  0
  4 91  1  0  0  0
  5  6  1  0  0  0
  5 26  1  0  0  0
  5 92  1  0  0  0
  6 25  1  0  0  0
  6 93  1  0  0  0
  6 94  1  0  0  0
  7  8  2  0  0  0
  7 26  1  0  0  0
  7 29  1  0  0  0
  8  9  1  0  0  0
  8 22  1  0  0  0
  9 10  1  0  0  0
  9 27  2  0  0  0
 10 11  2  0  0  0
 10 15  1  0  0  0
 11 12  1  0  0  0
 11 95  1  0  0  0
 12 13  2  0  0  0
 12 96  1  0  0  0
 13 14  1  0  0  0
 13 31  1  0  0  0
 14 15  2  0  0  0
 14 97  1  0  0  0
 15 98  1  0  0  0
 16 17  2  0  0  0
 16 21  1  0  0  0
 16 31  1  0  0  0
 17 18  1  0  0  0
 17 99  1  0  0  0
 18 19  2  0  0  0
 18100  1  0  0  0
 19 20  1  0  0  0
 19 24  1  0  0  0
 20 21  2  0  0  0
 20101  1  0  0  0
 21 23  1  0  0  0
 22 28  1  0  0  0
 22 32  2  0  0  0
 26 27  1  0  0  0
 28102  1  0  0  0
 28103  1  0  0  0
 29104  1  0  0  0
 29105  1  0  0  0
 33 34  1  0  0  0
 33 66  1  0  0  0
 33 70  2  0  0  0
 34 36  1  0  0  0
 34 59  1  0  0  0
 34106  1  0  0  0
 35 44  2  0  0  0
 35 45  1  0  0  0
 35 68  1  0  0  0
 36 56  1  0  0  0
 36107  1  0  0  0
 37 39  1  0  0  0
 37 47  1  0  0  0
 37 66  1  0  0  0
 37108  1  0  0  0
 38 43  2  0  0  0
 38 46  1  0  0  0
 38 47  1  0  0  0
 39 64  1  0  0  0
 39 67  2  0  0  0
 40 52  1  0  0  0
 40 53  2  0  0  0
 40 58  1  0  0  0
 41109  1  0  0  0
 41110  1  0  0  0
 41111  1  0  0  0
 41 48  1  0  0  0
 42 43  1  0  0  0
 42 66  1  0  0  0
 42112  1  0  0  0
 42113  1  0  0  0
 43 44  1  0  0  0
 44114  1  0  0  0
 45 46  2  0  0  0
 45115  1  0  0  0
 46116  1  0  0  0
 47117  1  0  0  0
 47118  1  0  0  0
 48 56  1  0  0  0
 48 65  1  0  0  0
 48119  1  0  0  0
 49 50  1  0  0  0
 49 53  1  0  0  0
 49 64  1  0  0  0
 49120  1  0  0  0
 50 51  1  0  0  0
 50121  1  0  0  0
 50122  1  0  0  0
 51 52  1  0  0  0
 51123  1  0  0  0
 51124  1  0  0  0
 52125  1  0  0  0
 52126  1  0  0  0
 53 54  1  0  0  0
 54 55  2  0  0  0
 54127  1  0  0  0
 55 57  1  0  0  0
 55128  1  0  0  0
 56 69  2  0  0  0
 57 58  2  0  0  0
 57129  1  0  0  0
 58130  1  0  0  0
 59 60  1  0  0  0
 59 61  1  0  0  0
 59 62  1  0  0  0
 60131  1  0  0  0
 60132  1  0  0  0
 60133  1  0  0  0
 61134  1  0  0  0
 61135  1  0  0  0
 61136  1  0  0  0
 62137  1  0  0  0
 62138  1  0  0  0
 62139  1  0  0  0
 63 65  1  0  0  0
 63140  1  0  0  0
 63141  1  0  0  0
 63142  1  0  0  0
 64143  1  0  0  0
 65144  1  0  0  0
 68 81  1  0  0  0
 71 72  2  0  0  0
 71 73  1  0  0  0
 71145  1  0  0  0
 72 74  1  0  0  0
 72146  1  0  0  0
 73 75  2  0  0  0
 73 82  1  0  0  0
 74 76  2  0  0  0
 74 83  1  0  0  0
 75 76  1  0  0  0
 75 84  1  0  0  0
 76 85  1  0  0  0
 77 78  1  0  0  0
 77 79  1  0  0  0
 77147  1  0  0  0
 77148  1  0  0  0
 78 80  1  0  0  0
 78149  1  0  0  0
 78150  1  0  0  0
 79 82  1  0  0  0
 79151  1  0  0  0
 79152  1  0  0  0
 80 81  1  0  0  0
 80 82  1  0  0  0
 80153  1  0  0  0
 81154  1  0  0  0
 81155  1  0  0  0
 83156  1  0  0  0
M  ISO  4   1 100  68 101  81 101  83 100
M  END
> <chiral flag>
0

> <version>
0

> <s_m_source_file>
/data/baiqing/PycharmProjects/Reinvent-master-3.2/result/LINK_invent/BTK/process_docking_weight1_custom_product_contain_oxygen_bond_distance_aromatic_linkinvent_7_9_3/rearranged_h_0024.sdf

> <i_m_source_file_index>
92

> <r_mmod_Potential_Energy-OPLS-2005>
600.509216308594

> <r_mmod_Stretch_Energy-OPLS-2005>
219.590423583984

> <r_mmod_Bend_Energy-OPLS-2005>
303.919891357422

> <r_mmod_Torsional_Energy-OPLS-2005>
317.160827636719

> <r_mmod_Improper_Torsional_Energy-OPLS-2005>
11.7025451660156

> <r_mmod_Van_der_Waal_Energy-OPLS-2005>
132.615798950195

> <r_mmod_Electrostatic_Energy-OPLS-2005>
-333.434020996094

> <r_mmod_Solvation_Energy-OPLS-2005>
-222.007110595703

> <b_mmod_Minimization_Converged-OPLS-2005>
0

> <r_mmod_RMS_Derivative-OPLS-2005>
1.44694292545319

$$$$
92
                    3D
 Structure written by MMmdl.
156165  0  0  1  0            999 V2000
  -30.5330  -14.9266   20.4276 C   0  0  0  0  0  0
  -30.4629  -12.5689   19.4965 C   0  0  0  0  0  0
  -29.5344  -12.5182   18.2580 C   0  0  0  0  0  0
  -28.0635  -12.3125   18.6757 C   0  0  0  0  0  0
  -27.6408  -13.2406   19.8431 C   0  0  2  0  0  0
  -28.6859  -13.2424   20.9810 C   0  0  0  0  0  0
  -25.2520  -13.8204   20.5688 C   0  0  0  0  0  0
  -24.1808  -13.0457   20.9220 C   0  0  0  0  0  0
  -24.6411  -11.6935   20.8739 C   0  0  0  0  0  0
  -23.9078  -10.4309   21.0404 C   0  0  0  0  0  0
  -24.3628   -9.4226   21.9192 C   0  0  0  0  0  0
  -23.6271   -8.2268   22.0780 C   0  0  0  0  0  0
  -22.4242   -8.0313   21.3572 C   0  0  0  0  0  0
  -21.9892   -9.0297   20.4674 C   0  0  0  0  0  0
  -22.7251  -10.2159   20.3060 C   0  0  0  0  0  0
  -21.6859   -6.0737   22.5263 C   0  0  0  0  0  0
  -21.4036   -6.5634   23.8204 C   0  0  0  0  0  0
  -21.3660   -5.6783   24.9169 C   0  0  0  0  0  0
  -21.6034   -4.3038   24.7211 C   0  0  0  0  0  0
  -21.8829   -3.8140   23.4328 C   0  0  0  0  0  0
  -21.9197   -4.6962   22.3393 C   0  0  0  0  0  0
  -22.7819  -13.5247   21.1849 C   0  0  0  0  0  0
  -22.1664   -4.2148   21.0966 F   0  0  0  0  0  0
  -21.5622   -3.4524   25.7721 F   0  0  0  0  0  0
  -29.9688  -13.6533   20.3911 N   0  0  0  0  0  0
  -26.2932  -12.9420   20.3221 N   0  0  0  0  0  0
  -25.9345  -11.6556   20.5740 N   0  0  0  0  0  0
  -22.0441  -12.8274   22.0407 N   0  0  0  0  0  0
  -25.4212  -15.1929   20.4109 N   0  0  0  0  0  0
  -31.7262  -15.0444   20.1370 O   0  0  0  0  0  0
  -21.6635   -6.8893   21.4226 O   0  0  0  0  0  0
  -22.3513  -14.5538   20.6656 O   0  0  0  0  0  0
  -24.6379  -31.8477   23.1841 C   0  0  0  0  0  0
  -25.9135  -32.4713   23.8265 C   0  0  1  0  0  0
  -27.2266  -27.1557   20.1761 C   0  0  0  0  0  0
  -25.5868  -33.8520   24.2171 N   0  0  0  0  0  0
  -23.4449  -30.4609   21.5305 C   0  0  2  0  0  0
  -24.8990  -28.8841   20.1166 C   0  0  0  0  0  0
  -22.7571  -29.4547   22.4860 C   0  0  0  0  0  0
  -18.0294  -28.1423   22.8489 C   0  0  0  0  0  0
  -24.1494  -36.7311   23.2658 C   0  0  0  0  0  0
  -25.9974  -30.7298   21.3787 C   0  0  0  0  0  0
  -26.0744  -29.3381   20.7297 C   0  0  0  0  0  0
  -27.2433  -28.4930   20.7348 C   0  0  0  0  0  0
  -26.0276  -26.7916   19.5286 C   0  0  0  0  0  0
  -24.8875  -27.6239   19.5001 C   0  0  0  0  0  0
  -23.6728  -29.7826   20.1521 C   0  0  0  0  0  0
  -25.4116  -36.3056   24.0325 C   0  0  1  0  0  0
  -20.5905  -28.3745   23.1244 C   0  0  2  0  0  0
  -20.6760  -26.9444   22.5413 C   0  0  0  0  0  0
  -19.5724  -26.6403   21.5226 C   0  0  0  0  0  0
  -18.1916  -26.7963   22.1641 C   0  0  0  0  0  0
  -19.1554  -28.8906   23.2864 C   0  0  0  0  0  0
  -18.9471  -30.1504   23.8900 C   0  0  0  0  0  0
  -17.6464  -30.6618   24.0571 C   0  0  0  0  0  0
  -25.9063  -34.9420   23.5085 C   0  0  0  0  0  0
  -16.5355  -29.9116   23.6321 C   0  0  0  0  0  0
  -16.7283  -28.6527   23.0352 C   0  0  0  0  0  0
  -26.4438  -31.6568   25.0714 C   0  0  0  0  0  0
  -25.3636  -31.3738   26.1429 C   0  0  0  0  0  0
  -27.0279  -30.2951   24.6302 C   0  0  0  0  0  0
  -27.5986  -32.4336   25.7478 C   0  0  0  0  0  0
  -27.5566  -37.1802   24.8454 C   0  0  0  0  0  0
  -21.4258  -29.3069   22.3621 N   0  0  0  0  0  0
  -26.4276  -37.3762   23.9403 N   0  0  0  0  0  0
  -24.7136  -31.0353   22.0855 N   0  0  0  0  0  0
  -23.4228  -28.8106   23.3015 O   0  0  0  0  0  0
  -28.2963  -26.1970   20.1938 O   0  0  0  0  0  0
  -26.5707  -34.8917   22.4699 O   0  0  0  0  0  0
  -23.5503  -32.1334   23.7063 O   0  0  0  0  0  0
  -29.3616  -19.6751   21.9886 C   0  0  0  0  0  0
  -29.6818  -18.4984   19.5341 C   0  0  0  0  0  0
  -29.2767  -20.6396   20.9122 C   0  0  0  0  0  0
  -29.7514  -17.5645   20.6361 C   0  0  0  0  0  0
  -29.5805  -18.2522   21.8731 C   0  0  0  0  0  0
  -29.4705  -19.9455   19.6570 C   0  0  0  0  0  0
  -28.2500  -23.5927   22.9965 C   0  0  0  0  0  0
  -28.3140  -24.9217   22.2325 C   0  0  0  0  0  0
  -29.3127  -22.6035   22.4947 C   0  0  0  0  0  0
  -28.9052  -23.3507   20.2062 C   0  0  0  0  0  0
  -28.0996  -24.7503   20.7166 C   0  0  2  0  0  0
  -29.0018  -22.1066   21.1432 N   0  0  0  0  0  0
  -29.6697  -16.0374   20.5769 N   0  0  0  0  0  0
  -29.5786  -17.5130   23.0095 F   0  0  0  0  0  0
  -29.4225  -20.6715   18.5129 F   0  0  0  0  0  0
  -31.4926  -12.7433   19.1813 H   0  0  0  0  0  0
  -30.4774  -11.6130   20.0235 H   0  0  0  0  0  0
  -29.8441  -11.7202   17.5830 H   0  0  0  0  0  0
  -29.6319  -13.4460   17.6930 H   0  0  0  0  0  0
  -27.9519  -11.2698   18.9787 H   0  0  0  0  0  0
  -27.4046  -12.4594   17.8193 H   0  0  0  0  0  0
  -27.6123  -14.2445   19.4198 H   0  0  0  0  0  0
  -28.7652  -12.2550   21.4371 H   0  0  0  0  0  0
  -28.3909  -13.9300   21.7745 H   0  0  0  0  0  0
  -25.2790   -9.5663   22.4761 H   0  0  0  0  0  0
  -23.9983   -7.4636   22.7478 H   0  0  0  0  0  0
  -21.0835   -8.8809   19.8966 H   0  0  0  0  0  0
  -22.3722  -10.9695   19.6145 H   0  0  0  0  0  0
  -21.2054   -7.6143   23.9703 H   0  0  0  0  0  0
  -21.1458   -6.0518   25.9070 H   0  0  0  0  0  0
  -22.0603   -2.7594   23.2823 H   0  0  0  0  0  0
  -22.4038  -11.9960   22.4854 H   0  0  0  0  0  0
  -21.1053  -13.1331   22.2581 H   0  0  0  0  0  0
  -24.6488  -15.8413   20.5157 H   0  0  0  0  0  0
  -26.2474  -15.6269   20.0224 H   0  0  0  0  0  0
  -26.7241  -32.5325   23.1043 H   0  0  0  0  0  0
  -24.9741  -33.9648   25.0116 H   0  0  0  0  0  0
  -22.7440  -31.2823   21.3684 H   0  0  0  0  0  0
  -23.3722  -35.9672   23.3313 H   0  0  0  0  0  0
  -24.3575  -36.8957   22.2070 H   0  0  0  0  0  0
  -23.7280  -37.6529   23.6703 H   0  0  0  0  0  0
  -26.1489  -31.4807   20.6014 H   0  0  0  0  0  0
  -26.8689  -30.7872   22.0186 H   0  0  0  0  0  0
  -28.1444  -28.8465   21.2168 H   0  0  0  0  0  0
  -25.9585  -25.8211   19.0579 H   0  0  0  0  0  0
  -23.9898  -27.2673   19.0147 H   0  0  0  0  0  0
  -23.8048  -30.5540   19.3927 H   0  0  0  0  0  0
  -22.7904  -29.2189   19.8437 H   0  0  0  0  0  0
  -25.1286  -36.1900   25.0812 H   0  0  0  0  0  0
  -20.9986  -28.3348   24.1376 H   0  0  0  0  0  0
  -20.5619  -26.2388   23.3654 H   0  0  0  0  0  0
  -21.6619  -26.7425   22.1224 H   0  0  0  0  0  0
  -19.6867  -25.6310   21.1270 H   0  0  0  0  0  0
  -19.6635  -27.3200   20.6746 H   0  0  0  0  0  0
  -17.4160  -26.6725   21.4069 H   0  0  0  0  0  0
  -18.0301  -26.0131   22.9056 H   0  0  0  0  0  0
  -19.7954  -30.7315   24.2273 H   0  0  0  0  0  0
  -17.5019  -31.6283   24.5199 H   0  0  0  0  0  0
  -15.5357  -30.3004   23.7667 H   0  0  0  0  0  0
  -15.8685  -28.0843   22.7065 H   0  0  0  0  0  0
  -24.5822  -30.7080   25.7739 H   0  0  0  0  0  0
  -24.8815  -32.2906   26.4837 H   0  0  0  0  0  0
  -25.7928  -30.8917   27.0226 H   0  0  0  0  0  0
  -26.2874  -29.6712   24.1288 H   0  0  0  0  0  0
  -27.3819  -29.7224   25.4882 H   0  0  0  0  0  0
  -27.8818  -30.4143   23.9635 H   0  0  0  0  0  0
  -27.2565  -33.3638   26.2027 H   0  0  0  0  0  0
  -28.3775  -32.6905   25.0286 H   0  0  0  0  0  0
  -28.0682  -31.8501   26.5411 H   0  0  0  0  0  0
  -28.2583  -38.0096   24.7470 H   0  0  0  0  0  0
  -28.1066  -36.2628   24.6291 H   0  0  0  0  0  0
  -27.2315  -37.1461   25.8870 H   0  0  0  0  0  0
  -20.9480  -29.8835   21.6827 H   0  0  0  0  0  0
  -26.0161  -38.2850   24.1360 H   0  0  0  0  0  0
  -29.2130  -19.9658   23.0126 H   0  0  0  0  0  0
  -29.7473  -18.1012   18.5307 H   0  0  0  0  0  0
  -27.2518  -23.1582   22.9248 H   0  0  0  0  0  0
  -28.4170  -23.7837   24.0591 H   0  0  0  0  0  0
  -29.2850  -25.3879   22.4138 H   0  0  0  0  0  0
  -27.5647  -25.6047   22.6381 H   0  0  0  0  0  0
  -29.4327  -21.8539   23.2668 H   0  0  0  0  0  0
  -30.2871  -23.0991   22.4635 H   0  0  0  0  0  0
  -29.9356  -23.6321   19.9829 H   0  0  0  0  0  0
  -28.4860  -23.0342   19.2494 H   0  0  0  0  0  0
  -27.0447  -24.5101   20.5941 H   0  0  0  0  0  0
  -28.7477  -15.7067   20.8079 H   0  0  0  0  0  0
  1 25  1  0  0  0
  1 30  2  0  0  0
  1 83  1  0  0  0
  2  3  1  0  0  0
  2 25  1  0  0  0
  2 86  1  0  0  0
  2 87  1  0  0  0
  3  4  1  0  0  0
  3 88  1  0  0  0
  3 89  1  0  0  0
  4  5  1  0  0  0
  4 90  1  0  0  0
  4 91  1  0  0  0
  5  6  1  0  0  0
  5 26  1  0  0  0
  5 92  1  0  0  0
  6 25  1  0  0  0
  6 93  1  0  0  0
  6 94  1  0  0  0
  7  8  2  0  0  0
  7 26  1  0  0  0
  7 29  1  0  0  0
  8  9  1  0  0  0
  8 22  1  0  0  0
  9 10  1  0  0  0
  9 27  2  0  0  0
 10 11  2  0  0  0
 10 15  1  0  0  0
 11 12  1  0  0  0
 11 95  1  0  0  0
 12 13  2  0  0  0
 12 96  1  0  0  0
 13 14  1  0  0  0
 13 31  1  0  0  0
 14 15  2  0  0  0
 14 97  1  0  0  0
 15 98  1  0  0  0
 16 17  2  0  0  0
 16 21  1  0  0  0
 16 31  1  0  0  0
 17 18  1  0  0  0
 17 99  1  0  0  0
 18 19  2  0  0  0
 18100  1  0  0  0
 19 20  1  0  0  0
 19 24  1  0  0  0
 20 21  2  0  0  0
 20101  1  0  0  0
 21 23  1  0  0  0
 22 28  1  0  0  0
 22 32  2  0  0  0
 26 27  1  0  0  0
 28102  1  0  0  0
 28103  1  0  0  0
 29104  1  0  0  0
 29105  1  0  0  0
 33 34  1  0  0  0
 33 66  1  0  0  0
 33 70  2  0  0  0
 34 36  1  0  0  0
 34 59  1  0  0  0
 34106  1  0  0  0
 35 44  2  0  0  0
 35 45  1  0  0  0
 35 68  1  0  0  0
 36 56  1  0  0  0
 36107  1  0  0  0
 37 39  1  0  0  0
 37 47  1  0  0  0
 37 66  1  0  0  0
 37108  1  0  0  0
 38 43  2  0  0  0
 38 46  1  0  0  0
 38 47  1  0  0  0
 39 64  1  0  0  0
 39 67  2  0  0  0
 40 52  1  0  0  0
 40 53  2  0  0  0
 40 58  1  0  0  0
 41109  1  0  0  0
 41110  1  0  0  0
 41111  1  0  0  0
 41 48  1  0  0  0
 42 43  1  0  0  0
 42 66  1  0  0  0
 42112  1  0  0  0
 42113  1  0  0  0
 43 44  1  0  0  0
 44114  1  0  0  0
 45 46  2  0  0  0
 45115  1  0  0  0
 46116  1  0  0  0
 47117  1  0  0  0
 47118  1  0  0  0
 48 56  1  0  0  0
 48 65  1  0  0  0
 48119  1  0  0  0
 49 50  1  0  0  0
 49 53  1  0  0  0
 49 64  1  0  0  0
 49120  1  0  0  0
 50 51  1  0  0  0
 50121  1  0  0  0
 50122  1  0  0  0
 51 52  1  0  0  0
 51123  1  0  0  0
 51124  1  0  0  0
 52125  1  0  0  0
 52126  1  0  0  0
 53 54  1  0  0  0
 54 55  2  0  0  0
 54127  1  0  0  0
 55 57  1  0  0  0
 55128  1  0  0  0
 56 69  2  0  0  0
 57 58  2  0  0  0
 57129  1  0  0  0
 58130  1  0  0  0
 59 60  1  0  0  0
 59 61  1  0  0  0
 59 62  1  0  0  0
 60131  1  0  0  0
 60132  1  0  0  0
 60133  1  0  0  0
 61134  1  0  0  0
 61135  1  0  0  0
 61136  1  0  0  0
 62137  1  0  0  0
 62138  1  0  0  0
 62139  1  0  0  0
 63 65  1  0  0  0
 63140  1  0  0  0
 63141  1  0  0  0
 63142  1  0  0  0
 64143  1  0  0  0
 65144  1  0  0  0
 68 81  1  0  0  0
 71 73  2  0  0  0
 71 75  1  0  0  0
 71145  1  0  0  0
 72 74  1  0  0  0
 72 76  2  0  0  0
 72146  1  0  0  0
 73 76  1  0  0  0
 73 82  1  0  0  0
 74 75  2  0  0  0
 74 83  1  0  0  0
 75 84  1  0  0  0
 76 85  1  0  0  0
 77 78  1  0  0  0
 77 79  1  0  0  0
 77147  1  0  0  0
 77148  1  0  0  0
 78 81  1  0  0  0
 78149  1  0  0  0
 78150  1  0  0  0
 79 82  1  0  0  0
 79151  1  0  0  0
 79152  1  0  0  0
 80 81  1  0  0  0
 80 82  1  0  0  0
 80153  1  0  0  0
 80154  1  0  0  0
 81155  1  0  0  0
 83156  1  0  0  0
M  ISO  4   1 100  68 101  81 101  83 100
M  END
> <chiral flag>
0

> <version>
0

> <s_m_source_file>
/data/baiqing/PycharmProjects/Reinvent-master-3.2/result/LINK_invent/BTK/process_docking_weight1_custom_product_contain_oxygen_bond_distance_aromatic_linkinvent_7_9_3/rearranged_h_0024.sdf

> <i_m_source_file_index>
93

> <r_mmod_Potential_Energy-OPLS-2005>
518.042602539062

> <r_mmod_Stretch_Energy-OPLS-2005>
228.972213745117

> <r_mmod_Bend_Energy-OPLS-2005>
271.775604248047

> <r_mmod_Torsional_Energy-OPLS-2005>
281.356018066406

> <r_mmod_Improper_Torsional_Energy-OPLS-2005>
9.24482250213623

> <r_mmod_Van_der_Waal_Energy-OPLS-2005>
139.920486450195

> <r_mmod_Electrostatic_Energy-OPLS-2005>
-367.780578613281

> <r_mmod_Solvation_Energy-OPLS-2005>
-220.723724365234

> <b_mmod_Minimization_Converged-OPLS-2005>
0

> <r_mmod_RMS_Derivative-OPLS-2005>
4.12169694900513

$$$$
93
                    3D
 Structure written by MMmdl.
158167  0  0  1  0            999 V2000
  -30.5622  -14.6951   20.4926 C   0  0  0  0  0  0
  -30.4507  -12.4303   19.4489 C   0  0  0  0  0  0
  -29.5085  -12.5148   18.2246 C   0  0  0  0  0  0
  -28.0361  -12.3292   18.6431 C   0  0  0  0  0  0
  -27.6530  -13.2078   19.8632 C   0  0  2  0  0  0
  -28.6974  -13.0601   20.9919 C   0  0  0  0  0  0
  -25.2580  -13.8143   20.5680 C   0  0  0  0  0  0
  -24.1829  -13.0426   20.9185 C   0  0  0  0  0  0
  -24.6387  -11.6894   20.8743 C   0  0  0  0  0  0
  -23.9050  -10.4282   21.0403 C   0  0  0  0  0  0
  -24.3604   -9.4201   21.9185 C   0  0  0  0  0  0
  -23.6281   -8.2232   22.0751 C   0  0  0  0  0  0
  -22.4262   -8.0274   21.3541 C   0  0  0  0  0  0
  -21.9899   -9.0242   20.4641 C   0  0  0  0  0  0
  -22.7225  -10.2127   20.3053 C   0  0  0  0  0  0
  -21.6848   -6.0734   22.5274 C   0  0  0  0  0  0
  -21.4008   -6.5635   23.8211 C   0  0  0  0  0  0
  -21.3663   -5.6789   24.9172 C   0  0  0  0  0  0
  -21.6044   -4.3049   24.7222 C   0  0  0  0  0  0
  -21.8824   -3.8144   23.4343 C   0  0  0  0  0  0
  -21.9187   -4.6959   22.3401 C   0  0  0  0  0  0
  -22.7859  -13.5240   21.1842 C   0  0  0  0  0  0
  -22.1659   -4.2146   21.0977 F   0  0  0  0  0  0
  -21.5632   -3.4535   25.7737 F   0  0  0  0  0  0
  -30.0067  -13.4396   20.4344 N   0  0  0  0  0  0
  -26.2986  -12.9301   20.3304 N   0  0  0  0  0  0
  -25.9309  -11.6468   20.5758 N   0  0  0  0  0  0
  -22.0476  -12.8240   22.0395 N   0  0  0  0  0  0
  -25.4307  -15.1860   20.4109 N   0  0  0  0  0  0
  -31.7062  -14.9047   20.0750 O   0  0  0  0  0  0
  -21.6629   -6.8874   21.4239 O   0  0  0  0  0  0
  -22.3559  -14.5553   20.6691 O   0  0  0  0  0  0
  -24.6250  -31.8591   23.2013 C   0  0  0  0  0  0
  -25.9100  -32.4771   23.8351 C   0  0  1  0  0  0
  -27.2253  -27.3041   20.1085 C   0  0  0  0  0  0
  -25.5918  -33.8580   24.2272 N   0  0  0  0  0  0
  -23.4209  -30.4785   21.5430 C   0  0  2  0  0  0
  -24.8676  -28.9278   20.1077 C   0  0  0  0  0  0
  -22.7473  -29.4597   22.4938 C   0  0  0  0  0  0
  -18.0282  -28.1405   22.8484 C   0  0  0  0  0  0
  -24.1493  -36.7274   23.2639 C   0  0  0  0  0  0
  -25.9628  -30.7783   21.3809 C   0  0  0  0  0  0
  -26.0339  -29.4056   20.7166 C   0  0  0  0  0  0
  -27.2112  -28.6011   20.7118 C   0  0  0  0  0  0
  -26.0361  -26.8744   19.4805 C   0  0  0  0  0  0
  -24.8701  -27.6681   19.4845 C   0  0  0  0  0  0
  -23.6379  -29.8114   20.1587 C   0  0  0  0  0  0
  -25.4125  -36.3076   24.0326 C   0  0  1  0  0  0
  -20.5875  -28.3677   23.1276 C   0  0  2  0  0  0
  -20.6799  -26.9417   22.5355 C   0  0  0  0  0  0
  -19.5729  -26.6338   21.5223 C   0  0  0  0  0  0
  -18.1919  -26.7932   22.1651 C   0  0  0  0  0  0
  -19.1540  -28.8865   23.2868 C   0  0  0  0  0  0
  -18.9478  -30.1476   23.8878 C   0  0  0  0  0  0
  -17.6480  -30.6606   24.0557 C   0  0  0  0  0  0
  -25.9057  -34.9445   23.5097 C   0  0  0  0  0  0
  -16.5364  -29.9099   23.6344 C   0  0  0  0  0  0
  -16.7270  -28.6514   23.0365 C   0  0  0  0  0  0
  -26.4491  -31.6596   25.0734 C   0  0  0  0  0  0
  -25.3722  -31.3716   26.1446 C   0  0  0  0  0  0
  -27.0353  -30.3013   24.6256 C   0  0  0  0  0  0
  -27.6050  -32.4357   25.7489 C   0  0  0  0  0  0
  -27.5579  -37.1790   24.8475 C   0  0  0  0  0  0
  -21.4188  -29.3041   22.3692 N   0  0  0  0  0  0
  -26.4299  -37.3769   23.9406 N   0  0  0  0  0  0
  -24.6870  -31.0571   22.0978 N   0  0  0  0  0  0
  -23.4186  -28.8146   23.3036 O   0  0  0  0  0  0
  -28.3455  -26.4626   20.2042 O   0  0  0  0  0  0
  -26.5630  -34.8909   22.4666 O   0  0  0  0  0  0
  -23.5412  -32.1419   23.7318 O   0  0  0  0  0  0
  -29.6849  -19.3464   19.6090 C   0  0  0  0  0  0
  -30.0151  -17.9487   19.7004 C   0  0  0  0  0  0
  -28.9586  -17.8741   21.8395 C   0  0  0  0  0  0
  -28.6596  -19.2744   21.7867 C   0  0  0  0  0  0
  -28.9632  -20.0585   20.6199 C   0  0  0  0  0  0
  -29.6292  -17.1561   20.8178 C   0  0  0  0  0  0
  -29.1240  -22.5614   19.9158 C   0  0  0  0  0  0
  -26.9441  -23.3729   20.4603 C   0  0  0  0  0  0
  -27.0617  -21.8303   20.5948 C   0  0  0  0  0  0
  -28.1361  -23.7433   19.5924 C   0  0  1  0  0  0
  -28.5529  -25.2844   19.3317 C   0  0  0  0  0  0
  -28.0087  -19.8623   23.0419 C   0  0  0  0  0  0
  -28.4791  -21.4553   20.4141 N   0  0  0  0  0  0
  -29.7249  -15.6890   20.9505 N   0  0  0  0  0  0
  -30.3378  -22.6398   19.7073 O   0  0  0  0  0  0
  -28.4493  -19.2334   24.1335 F   0  0  0  0  0  0
  -28.2900  -21.1553   23.2109 F   0  0  0  0  0  0
  -26.6872  -19.6936   22.9867 F   0  0  0  0  0  0
  -31.4836  -12.5921   19.1363 H   0  0  0  0  0  0
  -30.4244  -11.4317   19.8875 H   0  0  0  0  0  0
  -29.7824  -11.7605   17.4858 H   0  0  0  0  0  0
  -29.6266  -13.4811   17.7322 H   0  0  0  0  0  0
  -27.8956  -11.2765   18.8930 H   0  0  0  0  0  0
  -27.3736  -12.5302   17.8004 H   0  0  0  0  0  0
  -27.6701  -14.2418   19.5184 H   0  0  0  0  0  0
  -28.7257  -12.0310   21.3517 H   0  0  0  0  0  0
  -28.4255  -13.6642   21.8586 H   0  0  0  0  0  0
  -25.2751   -9.5673   22.4764 H   0  0  0  0  0  0
  -23.9984   -7.4623   22.7475 H   0  0  0  0  0  0
  -21.0832   -8.8772   19.8946 H   0  0  0  0  0  0
  -22.3689  -10.9671   19.6161 H   0  0  0  0  0  0
  -21.2000   -7.6141   23.9716 H   0  0  0  0  0  0
  -21.1482   -6.0513   25.9076 H   0  0  0  0  0  0
  -22.0600   -2.7604   23.2840 H   0  0  0  0  0  0
  -22.4072  -11.9905   22.4809 H   0  0  0  0  0  0
  -21.1093  -13.1285   22.2579 H   0  0  0  0  0  0
  -24.6630  -15.8387   20.5242 H   0  0  0  0  0  0
  -26.2787  -15.6264   20.0775 H   0  0  0  0  0  0
  -26.7149  -32.5426   23.1072 H   0  0  0  0  0  0
  -25.0077  -33.9755   25.0424 H   0  0  0  0  0  0
  -22.7130  -31.2974   21.3978 H   0  0  0  0  0  0
  -23.3772  -35.9590   23.3325 H   0  0  0  0  0  0
  -24.3566  -36.8882   22.2047 H   0  0  0  0  0  0
  -23.7237  -37.6471   23.6664 H   0  0  0  0  0  0
  -26.1100  -31.5483   20.6222 H   0  0  0  0  0  0
  -26.8369  -30.8151   22.0204 H   0  0  0  0  0  0
  -28.1060  -28.9587   21.2018 H   0  0  0  0  0  0
  -25.9809  -25.9009   19.0181 H   0  0  0  0  0  0
  -23.9694  -27.2956   19.0149 H   0  0  0  0  0  0
  -23.7611  -30.5876   19.4019 H   0  0  0  0  0  0
  -22.7569  -29.2439   19.8540 H   0  0  0  0  0  0
  -25.1308  -36.1914   25.0819 H   0  0  0  0  0  0
  -20.9931  -28.3206   24.1413 H   0  0  0  0  0  0
  -20.5886  -26.2252   23.3523 H   0  0  0  0  0  0
  -21.6624  -26.7566   22.1010 H   0  0  0  0  0  0
  -19.6875  -25.6218   21.1323 H   0  0  0  0  0  0
  -19.6638  -27.3112   20.6725 H   0  0  0  0  0  0
  -17.4174  -26.6658   21.4068 H   0  0  0  0  0  0
  -18.0294  -26.0115   22.9081 H   0  0  0  0  0  0
  -19.7935  -30.7309   24.2277 H   0  0  0  0  0  0
  -17.5029  -31.6281   24.5159 H   0  0  0  0  0  0
  -15.5375  -30.3009   23.7710 H   0  0  0  0  0  0
  -15.8652  -28.0836   22.7121 H   0  0  0  0  0  0
  -24.5902  -30.7077   25.7737 H   0  0  0  0  0  0
  -24.8910  -32.2871   26.4899 H   0  0  0  0  0  0
  -25.8037  -30.8850   27.0203 H   0  0  0  0  0  0
  -26.2949  -29.6727   24.1302 H   0  0  0  0  0  0
  -27.4018  -29.7313   25.4804 H   0  0  0  0  0  0
  -27.8832  -30.4266   23.9523 H   0  0  0  0  0  0
  -27.2667  -33.3664   26.2062 H   0  0  0  0  0  0
  -28.3846  -32.6927   25.0300 H   0  0  0  0  0  0
  -28.0750  -31.8507   26.5401 H   0  0  0  0  0  0
  -28.2607  -38.0075   24.7496 H   0  0  0  0  0  0
  -28.1067  -36.2600   24.6346 H   0  0  0  0  0  0
  -27.2290  -37.1481   25.8878 H   0  0  0  0  0  0
  -20.9392  -29.8719   21.6855 H   0  0  0  0  0  0
  -26.0182  -38.2844   24.1408 H   0  0  0  0  0  0
  -29.9544  -19.8700   18.7028 H   0  0  0  0  0  0
  -30.5157  -17.4784   18.8651 H   0  0  0  0  0  0
  -28.6412  -17.3261   22.7148 H   0  0  0  0  0  0
  -27.0190  -23.8588   21.4350 H   0  0  0  0  0  0
  -25.9964  -23.6642   20.0073 H   0  0  0  0  0  0
  -26.4902  -21.3402   19.8048 H   0  0  0  0  0  0
  -26.6231  -21.5133   21.5345 H   0  0  0  0  0  0
  -27.8339  -23.4422   18.5871 H   0  0  0  0  0  0
  -28.1611  -25.5647   18.3527 H   0  0  0  0  0  0
  -29.6298  -25.2742   19.1631 H   0  0  0  0  0  0
  -28.9303  -15.2837   21.4221 H   0  0  0  0  0  0
  1 25  1  0  0  0
  1 30  2  0  0  0
  1 84  1  0  0  0
  2  3  1  0  0  0
  2 25  1  0  0  0
  2 89  1  0  0  0
  2 90  1  0  0  0
  3  4  1  0  0  0
  3 91  1  0  0  0
  3 92  1  0  0  0
  4  5  1  0  0  0
  4 93  1  0  0  0
  4 94  1  0  0  0
  5  6  1  0  0  0
  5 26  1  0  0  0
  5 95  1  0  0  0
  6 25  1  0  0  0
  6 96  1  0  0  0
  6 97  1  0  0  0
  7  8  2  0  0  0
  7 26  1  0  0  0
  7 29  1  0  0  0
  8  9  1  0  0  0
  8 22  1  0  0  0
  9 10  1  0  0  0
  9 27  2  0  0  0
 10 11  2  0  0  0
 10 15  1  0  0  0
 11 12  1  0  0  0
 11 98  1  0  0  0
 12 13  2  0  0  0
 12 99  1  0  0  0
 13 14  1  0  0  0
 13 31  1  0  0  0
 14 15  2  0  0  0
 14100  1  0  0  0
 15101  1  0  0  0
 16 17  2  0  0  0
 16 21  1  0  0  0
 16 31  1  0  0  0
 17 18  1  0  0  0
 17102  1  0  0  0
 18 19  2  0  0  0
 18103  1  0  0  0
 19 20  1  0  0  0
 19 24  1  0  0  0
 20 21  2  0  0  0
 20104  1  0  0  0
 21 23  1  0  0  0
 22 28  1  0  0  0
 22 32  2  0  0  0
 26 27  1  0  0  0
 28105  1  0  0  0
 28106  1  0  0  0
 29107  1  0  0  0
 29108  1  0  0  0
 33 34  1  0  0  0
 33 66  1  0  0  0
 33 70  2  0  0  0
 34 36  1  0  0  0
 34 59  1  0  0  0
 34109  1  0  0  0
 35 44  2  0  0  0
 35 45  1  0  0  0
 35 68  1  0  0  0
 36 56  1  0  0  0
 36110  1  0  0  0
 37 39  1  0  0  0
 37 47  1  0  0  0
 37 66  1  0  0  0
 37111  1  0  0  0
 38 43  2  0  0  0
 38 46  1  0  0  0
 38 47  1  0  0  0
 39 64  1  0  0  0
 39 67  2  0  0  0
 40 52  1  0  0  0
 40 53  2  0  0  0
 40 58  1  0  0  0
 41112  1  0  0  0
 41113  1  0  0  0
 41114  1  0  0  0
 41 48  1  0  0  0
 42 43  1  0  0  0
 42 66  1  0  0  0
 42115  1  0  0  0
 42116  1  0  0  0
 43 44  1  0  0  0
 44117  1  0  0  0
 45 46  2  0  0  0
 45118  1  0  0  0
 46119  1  0  0  0
 47120  1  0  0  0
 47121  1  0  0  0
 48 56  1  0  0  0
 48 65  1  0  0  0
 48122  1  0  0  0
 49 50  1  0  0  0
 49 53  1  0  0  0
 49 64  1  0  0  0
 49123  1  0  0  0
 50 51  1  0  0  0
 50124  1  0  0  0
 50125  1  0  0  0
 51 52  1  0  0  0
 51126  1  0  0  0
 51127  1  0  0  0
 52128  1  0  0  0
 52129  1  0  0  0
 53 54  1  0  0  0
 54 55  2  0  0  0
 54130  1  0  0  0
 55 57  1  0  0  0
 55131  1  0  0  0
 56 69  2  0  0  0
 57 58  2  0  0  0
 57132  1  0  0  0
 58133  1  0  0  0
 59 60  1  0  0  0
 59 61  1  0  0  0
 59 62  1  0  0  0
 60134  1  0  0  0
 60135  1  0  0  0
 60136  1  0  0  0
 61137  1  0  0  0
 61138  1  0  0  0
 61139  1  0  0  0
 62140  1  0  0  0
 62141  1  0  0  0
 62142  1  0  0  0
 63 65  1  0  0  0
 63143  1  0  0  0
 63144  1  0  0  0
 63145  1  0  0  0
 64146  1  0  0  0
 65147  1  0  0  0
 68 81  1  0  0  0
 71 72  2  0  0  0
 71 75  1  0  0  0
 71148  1  0  0  0
 72 76  1  0  0  0
 72149  1  0  0  0
 73 74  1  0  0  0
 73 76  2  0  0  0
 73150  1  0  0  0
 74 75  2  0  0  0
 74 82  1  0  0  0
 75 83  1  0  0  0
 76 84  1  0  0  0
 77 80  1  0  0  0
 77 83  1  0  0  0
 77 85  2  0  0  0
 78 79  1  0  0  0
 78 80  1  0  0  0
 78151  1  0  0  0
 78152  1  0  0  0
 79 83  1  0  0  0
 79153  1  0  0  0
 79154  1  0  0  0
 80 81  1  0  0  0
 80155  1  0  0  0
 81156  1  0  0  0
 81157  1  0  0  0
 82 86  1  0  0  0
 82 87  1  0  0  0
 82 88  1  0  0  0
 84158  1  0  0  0
M  ISO  4   1 100  68 101  81 101  84 100
M  END
> <chiral flag>
0

> <version>
0

> <s_m_source_file>
/data/baiqing/PycharmProjects/Reinvent-master-3.2/result/LINK_invent/BTK/process_docking_weight1_custom_product_contain_oxygen_bond_distance_aromatic_linkinvent_7_9_3/rearranged_h_0024.sdf

> <i_m_source_file_index>
94

> <r_mmod_Potential_Energy-OPLS-2005>
276.210327148438

> <r_mmod_Stretch_Energy-OPLS-2005>
98.4478149414062

> <r_mmod_Bend_Energy-OPLS-2005>
243.112380981445

> <r_mmod_Torsional_Energy-OPLS-2005>
285.622375488281

> <r_mmod_Improper_Torsional_Energy-OPLS-2005>
4.06585311889648

> <r_mmod_Van_der_Waal_Energy-OPLS-2005>
137.438095092773

> <r_mmod_Electrostatic_Energy-OPLS-2005>
-334.259490966797

> <r_mmod_Solvation_Energy-OPLS-2005>
-223.041091918945

> <b_mmod_Minimization_Converged-OPLS-2005>
0

> <r_mmod_RMS_Derivative-OPLS-2005>
2.12753629684448

$$$$
94
                    3D
 Structure written by MMmdl.
161169  0  0  1  0            999 V2000
  -30.7309  -14.4585   20.6173 C   0  0  0  0  0  0
  -30.4189  -12.3193   19.4176 C   0  0  0  0  0  0
  -29.4904  -12.5142   18.2034 C   0  0  0  0  0  0
  -28.0130  -12.3675   18.6170 C   0  0  0  0  0  0
  -27.6593  -13.2091   19.8724 C   0  0  2  0  0  0
  -28.7004  -12.9979   20.9937 C   0  0  0  0  0  0
  -25.2577  -13.8171   20.5680 C   0  0  0  0  0  0
  -24.1830  -13.0444   20.9175 C   0  0  0  0  0  0
  -24.6379  -11.6912   20.8728 C   0  0  0  0  0  0
  -23.9043  -10.4299   21.0397 C   0  0  0  0  0  0
  -24.3606   -9.4216   21.9175 C   0  0  0  0  0  0
  -23.6297   -8.2245   22.0744 C   0  0  0  0  0  0
  -22.4280   -8.0277   21.3538 C   0  0  0  0  0  0
  -21.9905   -9.0244   20.4639 C   0  0  0  0  0  0
  -22.7218  -10.2131   20.3048 C   0  0  0  0  0  0
  -21.6851   -6.0737   22.5284 C   0  0  0  0  0  0
  -21.4009   -6.5638   23.8221 C   0  0  0  0  0  0
  -21.3659   -5.6786   24.9185 C   0  0  0  0  0  0
  -21.6047   -4.3051   24.7224 C   0  0  0  0  0  0
  -21.8821   -3.8143   23.4343 C   0  0  0  0  0  0
  -21.9190   -4.6965   22.3405 C   0  0  0  0  0  0
  -22.7851  -13.5246   21.1847 C   0  0  0  0  0  0
  -22.1663   -4.2147   21.0982 F   0  0  0  0  0  0
  -21.5629   -3.4535   25.7737 F   0  0  0  0  0  0
  -30.0322  -13.3026   20.4420 N   0  0  0  0  0  0
  -26.3006  -12.9338   20.3355 N   0  0  0  0  0  0
  -25.9307  -11.6494   20.5755 N   0  0  0  0  0  0
  -22.0492  -12.8245   22.0410 N   0  0  0  0  0  0
  -25.4301  -15.1893   20.4084 N   0  0  0  0  0  0
  -31.8275  -14.6587   20.0882 O   0  0  0  0  0  0
  -21.6640   -6.8878   21.4245 O   0  0  0  0  0  0
  -22.3533  -14.5548   20.6692 O   0  0  0  0  0  0
  -24.6137  -31.8687   23.2090 C   0  0  0  0  0  0
  -25.9031  -32.4834   23.8397 C   0  0  1  0  0  0
  -27.2363  -27.4291   20.1076 C   0  0  0  0  0  0
  -25.5888  -33.8633   24.2333 N   0  0  0  0  0  0
  -23.4033  -30.4897   21.5498 C   0  0  2  0  0  0
  -24.8521  -28.9540   20.1158 C   0  0  0  0  0  0
  -22.7416  -29.4658   22.4999 C   0  0  0  0  0  0
  -18.0273  -28.1365   22.8501 C   0  0  0  0  0  0
  -24.1483  -36.7311   23.2641 C   0  0  0  0  0  0
  -25.9321  -30.8338   21.3627 C   0  0  0  0  0  0
  -26.0120  -29.4672   20.7106 C   0  0  0  0  0  0
  -27.2098  -28.7142   20.6985 C   0  0  0  0  0  0
  -26.0625  -26.9357   19.4973 C   0  0  0  0  0  0
  -24.8731  -27.6884   19.5035 C   0  0  0  0  0  0
  -23.6122  -29.8189   20.1654 C   0  0  0  0  0  0
  -25.4105  -36.3122   24.0346 C   0  0  1  0  0  0
  -20.5863  -28.3655   23.1321 C   0  0  2  0  0  0
  -20.6757  -26.9393   22.5416 C   0  0  0  0  0  0
  -19.5739  -26.6375   21.5211 C   0  0  0  0  0  0
  -18.1921  -26.7914   22.1624 C   0  0  0  0  0  0
  -19.1523  -28.8826   23.2910 C   0  0  0  0  0  0
  -18.9452  -30.1429   23.8925 C   0  0  0  0  0  0
  -17.6457  -30.6578   24.0560 C   0  0  0  0  0  0
  -25.9034  -34.9484   23.5140 C   0  0  0  0  0  0
  -16.5347  -29.9085   23.6317 C   0  0  0  0  0  0
  -16.7263  -28.6489   23.0360 C   0  0  0  0  0  0
  -26.4459  -31.6616   25.0725 C   0  0  0  0  0  0
  -25.3721  -31.3719   26.1472 C   0  0  0  0  0  0
  -27.0296  -30.3067   24.6090 C   0  0  0  0  0  0
  -27.6050  -32.4330   25.7472 C   0  0  0  0  0  0
  -27.5593  -37.1799   24.8461 C   0  0  0  0  0  0
  -21.4143  -29.3027   22.3736 N   0  0  0  0  0  0
  -26.4293  -37.3808   23.9424 N   0  0  0  0  0  0
  -24.6680  -31.0782   22.0992 N   0  0  0  0  0  0
  -23.4189  -28.8209   23.3046 O   0  0  0  0  0  0
  -28.3935  -26.6773   20.1104 O   0  0  0  0  0  0
  -26.5601  -34.8939   22.4706 O   0  0  0  0  0  0
  -23.5330  -32.1438   23.7482 O   0  0  0  0  0  0
  -29.1473  -18.2625   20.8036 C   0  0  0  0  0  0
  -31.4250  -18.9761   21.2244 C   0  0  0  0  0  0
  -30.4440  -17.9597   21.2760 C   0  0  0  0  0  0
  -29.8416  -20.5580   20.2093 C   0  0  0  0  0  0
  -28.8482  -19.5444   20.2811 C   0  0  0  0  0  0
  -31.1366  -20.2542   20.6976 C   0  0  0  0  0  0
  -30.5971  -22.1519   17.3767 C   0  0  0  0  0  0
  -30.8029  -16.6058   21.9076 C   0  0  0  0  0  0
  -29.0178  -24.2806   19.8364 C   0  0  0  0  0  0
  -29.3546  -21.7151   18.1578 C   0  0  0  0  0  0
  -28.8646  -22.8269   20.3828 C   0  0  0  0  0  0
  -28.2856  -25.3546   20.6774 C   0  0  0  0  0  0
  -30.1440  -15.4003   21.3781 N   0  0  0  0  0  0
  -29.5881  -21.8143   19.5972 N   0  0  0  0  0  0
  -27.5935  -19.7934   19.8290 F   0  0  0  0  0  0
  -32.4030  -21.4330   20.6421 Cl  0  0  0  0  0  0
  -31.4628  -12.4173   19.1143 H   0  0  0  0  0  0
  -30.3221  -11.3082   19.8165 H   0  0  0  0  0  0
  -29.7370  -11.7926   17.4230 H   0  0  0  0  0  0
  -29.6526  -13.5024   17.7705 H   0  0  0  0  0  0
  -27.8293  -11.3103   18.8143 H   0  0  0  0  0  0
  -27.3595  -12.6385   17.7864 H   0  0  0  0  0  0
  -27.7022  -14.2567   19.5725 H   0  0  0  0  0  0
  -28.6786  -11.9641   21.3406 H   0  0  0  0  0  0
  -28.4512  -13.6011   21.8672 H   0  0  0  0  0  0
  -25.2754   -9.5706   22.4738 H   0  0  0  0  0  0
  -24.0016   -7.4638   22.7459 H   0  0  0  0  0  0
  -21.0833   -8.8748   19.8951 H   0  0  0  0  0  0
  -22.3664  -10.9661   19.6148 H   0  0  0  0  0  0
  -21.2000   -7.6144   23.9726 H   0  0  0  0  0  0
  -21.1483   -6.0517   25.9089 H   0  0  0  0  0  0
  -22.0598   -2.7605   23.2845 H   0  0  0  0  0  0
  -22.4096  -11.9910   22.4820 H   0  0  0  0  0  0
  -21.1104  -13.1263   22.2599 H   0  0  0  0  0  0
  -24.6647  -15.8472   20.5115 H   0  0  0  0  0  0
  -26.2841  -15.6241   20.0821 H   0  0  0  0  0  0
  -26.7110  -32.5553   23.1174 H   0  0  0  0  0  0
  -25.0042  -33.9798   25.0480 H   0  0  0  0  0  0
  -22.6912  -31.3056   21.4090 H   0  0  0  0  0  0
  -23.3761  -35.9625   23.3290 H   0  0  0  0  0  0
  -24.3584  -36.8933   22.2058 H   0  0  0  0  0  0
  -23.7203  -37.6502   23.6655 H   0  0  0  0  0  0
  -26.0449  -31.6012   20.5950 H   0  0  0  0  0  0
  -26.8190  -30.8884   21.9819 H   0  0  0  0  0  0
  -28.1063  -29.1068   21.1579 H   0  0  0  0  0  0
  -26.0671  -25.9678   19.0159 H   0  0  0  0  0  0
  -23.9839  -27.2891   19.0354 H   0  0  0  0  0  0
  -23.7184  -30.5913   19.4027 H   0  0  0  0  0  0
  -22.7366  -29.2361   19.8732 H   0  0  0  0  0  0
  -25.1275  -36.1993   25.0839 H   0  0  0  0  0  0
  -20.9963  -28.3211   24.1439 H   0  0  0  0  0  0
  -20.5640  -26.2271   23.3605 H   0  0  0  0  0  0
  -21.6630  -26.7428   22.1222 H   0  0  0  0  0  0
  -19.6898  -25.6289   21.1232 H   0  0  0  0  0  0
  -19.6671  -27.3186   20.6742 H   0  0  0  0  0  0
  -17.4192  -26.6677   21.4022 H   0  0  0  0  0  0
  -18.0319  -26.0042   22.9005 H   0  0  0  0  0  0
  -19.7929  -30.7226   24.2322 H   0  0  0  0  0  0
  -17.5015  -31.6264   24.5150 H   0  0  0  0  0  0
  -15.5349  -30.2997   23.7610 H   0  0  0  0  0  0
  -15.8664  -28.0799   22.7086 H   0  0  0  0  0  0
  -24.5867  -30.7109   25.7788 H   0  0  0  0  0  0
  -24.8939  -32.2876   26.4959 H   0  0  0  0  0  0
  -25.8053  -30.8838   27.0210 H   0  0  0  0  0  0
  -26.2839  -29.6823   24.1153 H   0  0  0  0  0  0
  -27.4097  -29.7307   25.4536 H   0  0  0  0  0  0
  -27.8657  -30.4407   23.9222 H   0  0  0  0  0  0
  -27.2691  -33.3623   26.2084 H   0  0  0  0  0  0
  -28.3828  -32.6905   25.0270 H   0  0  0  0  0  0
  -28.0757  -31.8435   26.5349 H   0  0  0  0  0  0
  -28.2592  -38.0119   24.7570 H   0  0  0  0  0  0
  -28.1113  -36.2660   24.6208 H   0  0  0  0  0  0
  -27.2329  -37.1356   25.8867 H   0  0  0  0  0  0
  -20.9304  -29.8768   21.6975 H   0  0  0  0  0  0
  -26.0189  -38.2887   24.1442 H   0  0  0  0  0  0
  -28.3675  -17.5170   20.8479 H   0  0  0  0  0  0
  -32.4225  -18.7813   21.5912 H   0  0  0  0  0  0
  -30.4115  -22.1136   16.3036 H   0  0  0  0  0  0
  -31.4488  -21.5045   17.5894 H   0  0  0  0  0  0
  -30.8828  -23.1740   17.6260 H   0  0  0  0  0  0
  -30.5520  -16.6672   22.9673 H   0  0  0  0  0  0
  -31.8870  -16.4790   21.8809 H   0  0  0  0  0  0
  -28.6328  -24.3391   18.8188 H   0  0  0  0  0  0
  -30.0759  -24.5381   19.7774 H   0  0  0  0  0  0
  -29.0919  -20.6969   17.8654 H   0  0  0  0  0  0
  -28.5002  -22.3286   17.8697 H   0  0  0  0  0  0
  -27.8081  -22.5558   20.4218 H   0  0  0  0  0  0
  -29.2278  -22.7997   21.4119 H   0  0  0  0  0  0
  -28.7248  -25.3881   21.6750 H   0  0  0  0  0  0
  -27.2498  -25.0458   20.8256 H   0  0  0  0  0  0
  -29.2364  -15.1723   21.7545 H   0  0  0  0  0  0
  1 25  1  0  0  0
  1 30  2  0  0  0
  1 83  1  0  0  0
  2  3  1  0  0  0
  2 25  1  0  0  0
  2 87  1  0  0  0
  2 88  1  0  0  0
  3  4  1  0  0  0
  3 89  1  0  0  0
  3 90  1  0  0  0
  4  5  1  0  0  0
  4 91  1  0  0  0
  4 92  1  0  0  0
  5  6  1  0  0  0
  5 26  1  0  0  0
  5 93  1  0  0  0
  6 25  1  0  0  0
  6 94  1  0  0  0
  6 95  1  0  0  0
  7  8  2  0  0  0
  7 26  1  0  0  0
  7 29  1  0  0  0
  8  9  1  0  0  0
  8 22  1  0  0  0
  9 10  1  0  0  0
  9 27  2  0  0  0
 10 11  2  0  0  0
 10 15  1  0  0  0
 11 12  1  0  0  0
 11 96  1  0  0  0
 12 13  2  0  0  0
 12 97  1  0  0  0
 13 14  1  0  0  0
 13 31  1  0  0  0
 14 15  2  0  0  0
 14 98  1  0  0  0
 15 99  1  0  0  0
 16 17  2  0  0  0
 16 21  1  0  0  0
 16 31  1  0  0  0
 17 18  1  0  0  0
 17100  1  0  0  0
 18 19  2  0  0  0
 18101  1  0  0  0
 19 20  1  0  0  0
 19 24  1  0  0  0
 20 21  2  0  0  0
 20102  1  0  0  0
 21 23  1  0  0  0
 22 28  1  0  0  0
 22 32  2  0  0  0
 26 27  1  0  0  0
 28103  1  0  0  0
 28104  1  0  0  0
 29105  1  0  0  0
 29106  1  0  0  0
 33 34  1  0  0  0
 33 66  1  0  0  0
 33 70  2  0  0  0
 34 36  1  0  0  0
 34 59  1  0  0  0
 34107  1  0  0  0
 35 44  2  0  0  0
 35 45  1  0  0  0
 35 68  1  0  0  0
 36 56  1  0  0  0
 36108  1  0  0  0
 37 39  1  0  0  0
 37 47  1  0  0  0
 37 66  1  0  0  0
 37109  1  0  0  0
 38 43  2  0  0  0
 38 46  1  0  0  0
 38 47  1  0  0  0
 39 64  1  0  0  0
 39 67  2  0  0  0
 40 52  1  0  0  0
 40 53  2  0  0  0
 40 58  1  0  0  0
 41110  1  0  0  0
 41111  1  0  0  0
 41112  1  0  0  0
 41 48  1  0  0  0
 42 43  1  0  0  0
 42 66  1  0  0  0
 42113  1  0  0  0
 42114  1  0  0  0
 43 44  1  0  0  0
 44115  1  0  0  0
 45 46  2  0  0  0
 45116  1  0  0  0
 46117  1  0  0  0
 47118  1  0  0  0
 47119  1  0  0  0
 48 56  1  0  0  0
 48 65  1  0  0  0
 48120  1  0  0  0
 49 50  1  0  0  0
 49 53  1  0  0  0
 49 64  1  0  0  0
 49121  1  0  0  0
 50 51  1  0  0  0
 50122  1  0  0  0
 50123  1  0  0  0
 51 52  1  0  0  0
 51124  1  0  0  0
 51125  1  0  0  0
 52126  1  0  0  0
 52127  1  0  0  0
 53 54  1  0  0  0
 54 55  2  0  0  0
 54128  1  0  0  0
 55 57  1  0  0  0
 55129  1  0  0  0
 56 69  2  0  0  0
 57 58  2  0  0  0
 57130  1  0  0  0
 58131  1  0  0  0
 59 60  1  0  0  0
 59 61  1  0  0  0
 59 62  1  0  0  0
 60132  1  0  0  0
 60133  1  0  0  0
 60134  1  0  0  0
 61135  1  0  0  0
 61136  1  0  0  0
 61137  1  0  0  0
 62138  1  0  0  0
 62139  1  0  0  0
 62140  1  0  0  0
 63 65  1  0  0  0
 63141  1  0  0  0
 63142  1  0  0  0
 63143  1  0  0  0
 64144  1  0  0  0
 65145  1  0  0  0
 68 82  1  0  0  0
 71 73  2  0  0  0
 71 75  1  0  0  0
 71146  1  0  0  0
 72 73  1  0  0  0
 72 76  2  0  0  0
 72147  1  0  0  0
 73 78  1  0  0  0
 74 75  2  0  0  0
 74 76  1  0  0  0
 74 84  1  0  0  0
 75 85  1  0  0  0
 76 86  1  0  0  0
 77 80  1  0  0  0
 77148  1  0  0  0
 77149  1  0  0  0
 77150  1  0  0  0
 78 83  1  0  0  0
 78151  1  0  0  0
 78152  1  0  0  0
 79 81  1  0  0  0
 79 82  1  0  0  0
 79153  1  0  0  0
 79154  1  0  0  0
 80 84  1  0  0  0
 80155  1  0  0  0
 80156  1  0  0  0
 81 84  1  0  0  0
 81157  1  0  0  0
 81158  1  0  0  0
 82159  1  0  0  0
 82160  1  0  0  0
 83161  1  0  0  0
M  ISO  4   1 100  68 101  82 101  83 100
M  END
> <chiral flag>
0

> <version>
0

> <s_m_source_file>
/data/baiqing/PycharmProjects/Reinvent-master-3.2/result/LINK_invent/BTK/process_docking_weight1_custom_product_contain_oxygen_bond_distance_aromatic_linkinvent_7_9_3/rearranged_h_0024.sdf

> <i_m_source_file_index>
95

> <r_mmod_Potential_Energy-OPLS-2005>
-17.3478317260742

> <r_mmod_Stretch_Energy-OPLS-2005>
40.6640625

> <r_mmod_Bend_Energy-OPLS-2005>
97.8556671142578

> <r_mmod_Torsional_Energy-OPLS-2005>
240.950744628906

> <r_mmod_Improper_Torsional_Energy-OPLS-2005>
4.98015832901001

> <r_mmod_Van_der_Waal_Energy-OPLS-2005>
146.459625244141

> <r_mmod_Electrostatic_Energy-OPLS-2005>
-350.895782470703

> <r_mmod_Solvation_Energy-OPLS-2005>
-209.219192504883

> <b_mmod_Minimization_Converged-OPLS-2005>
0

> <r_mmod_RMS_Derivative-OPLS-2005>
1.23829114437103

$$$$
95
                    3D
 Structure written by MMmdl.
159168  0  0  1  0            999 V2000
  -30.5347  -14.9115   20.4419 C   0  0  0  0  0  0
  -30.4493  -12.5614   19.4997 C   0  0  0  0  0  0
  -29.5260  -12.5432   18.2576 C   0  0  0  0  0  0
  -28.0576  -12.3308   18.6732 C   0  0  0  0  0  0
  -27.6419  -13.2439   19.8551 C   0  0  2  0  0  0
  -28.6851  -13.2257   20.9957 C   0  0  0  0  0  0
  -25.2507  -13.8201   20.5710 C   0  0  0  0  0  0
  -24.1807  -13.0438   20.9205 C   0  0  0  0  0  0
  -24.6416  -11.6915   20.8738 C   0  0  0  0  0  0
  -23.9084  -10.4292   21.0403 C   0  0  0  0  0  0
  -24.3623   -9.4200   21.9184 C   0  0  0  0  0  0
  -23.6289   -8.2237   22.0760 C   0  0  0  0  0  0
  -22.4275   -8.0279   21.3545 C   0  0  0  0  0  0
  -21.9918   -9.0251   20.4642 C   0  0  0  0  0  0
  -22.7252  -10.2129   20.3054 C   0  0  0  0  0  0
  -21.6858   -6.0730   22.5268 C   0  0  0  0  0  0
  -21.4018   -6.5636   23.8205 C   0  0  0  0  0  0
  -21.3661   -5.6790   24.9168 C   0  0  0  0  0  0
  -21.6044   -4.3052   24.7223 C   0  0  0  0  0  0
  -21.8816   -3.8144   23.4344 C   0  0  0  0  0  0
  -21.9192   -4.6955   22.3402 C   0  0  0  0  0  0
  -22.7830  -13.5203   21.1865 C   0  0  0  0  0  0
  -22.1658   -4.2144   21.0979 F   0  0  0  0  0  0
  -21.5631   -3.4538   25.7737 F   0  0  0  0  0  0
  -29.9731  -13.6367   20.4168 N   0  0  0  0  0  0
  -26.2956  -12.9433   20.3308 N   0  0  0  0  0  0
  -25.9361  -11.6560   20.5755 N   0  0  0  0  0  0
  -22.0474  -12.8191   22.0415 N   0  0  0  0  0  0
  -25.4167  -15.1928   20.4113 N   0  0  0  0  0  0
  -31.7053  -15.0347   20.0680 O   0  0  0  0  0  0
  -21.6641   -6.8874   21.4239 O   0  0  0  0  0  0
  -22.3506  -14.5505   20.6716 O   0  0  0  0  0  0
  -24.6413  -31.8436   23.1880 C   0  0  0  0  0  0
  -25.9194  -32.4679   23.8257 C   0  0  1  0  0  0
  -27.2220  -27.1643   20.1518 C   0  0  0  0  0  0
  -25.5956  -33.8486   24.2178 N   0  0  0  0  0  0
  -23.4422  -30.4660   21.5290 C   0  0  2  0  0  0
  -24.8928  -28.8938   20.1055 C   0  0  0  0  0  0
  -22.7556  -29.4551   22.4810 C   0  0  0  0  0  0
  -18.0309  -28.1404   22.8461 C   0  0  0  0  0  0
  -24.1486  -36.7250   23.2648 C   0  0  0  0  0  0
  -25.9949  -30.7295   21.3820 C   0  0  0  0  0  0
  -26.0653  -29.3426   20.7250 C   0  0  0  0  0  0
  -27.2264  -28.4910   20.7358 C   0  0  0  0  0  0
  -26.0231  -26.8024   19.5001 C   0  0  0  0  0  0
  -24.8829  -27.6365   19.4807 C   0  0  0  0  0  0
  -23.6686  -29.7945   20.1470 C   0  0  0  0  0  0
  -25.4113  -36.3018   24.0327 C   0  0  1  0  0  0
  -20.5924  -28.3728   23.1228 C   0  0  2  0  0  0
  -20.6782  -26.9418   22.5403 C   0  0  0  0  0  0
  -19.5756  -26.6391   21.5201 C   0  0  0  0  0  0
  -18.1937  -26.7941   22.1610 C   0  0  0  0  0  0
  -19.1569  -28.8880   23.2833 C   0  0  0  0  0  0
  -18.9496  -30.1473   23.8868 C   0  0  0  0  0  0
  -17.6497  -30.6590   24.0572 C   0  0  0  0  0  0
  -25.9076  -34.9396   23.5057 C   0  0  0  0  0  0
  -16.5386  -29.9098   23.6345 C   0  0  0  0  0  0
  -16.7293  -28.6530   23.0334 C   0  0  0  0  0  0
  -26.4509  -31.6558   25.0702 C   0  0  0  0  0  0
  -25.3687  -31.3789   26.1403 C   0  0  0  0  0  0
  -27.0391  -30.2958   24.6285 C   0  0  0  0  0  0
  -27.6033  -32.4325   25.7502 C   0  0  0  0  0  0
  -27.5561  -37.1779   24.8464 C   0  0  0  0  0  0
  -21.4254  -29.3050   22.3588 N   0  0  0  0  0  0
  -26.4262  -37.3743   23.9424 N   0  0  0  0  0  0
  -24.7118  -31.0337   22.0882 N   0  0  0  0  0  0
  -23.4218  -28.8089   23.2939 O   0  0  0  0  0  0
  -28.3106  -26.2396   20.2648 O   0  0  0  0  0  0
  -26.5654  -34.8901   22.4632 O   0  0  0  0  0  0
  -23.5541  -32.1289   23.7144 O   0  0  0  0  0  0
  -29.9422  -19.7724   19.4298 C   0  0  0  0  0  0
  -30.1460  -18.3356   19.5335 C   0  0  0  0  0  0
  -29.3122  -20.6309   20.4062 C   0  0  0  0  0  0
  -29.7131  -17.5456   20.6461 C   0  0  0  0  0  0
  -28.9121  -19.8311   21.5488 C   0  0  0  0  0  0
  -29.0844  -18.3788   21.6379 C   0  0  0  0  0  0
  -30.7541  -23.4931   21.4472 C   0  0  0  0  0  0
  -29.3155  -23.7631   21.9112 C   0  0  0  0  0  0
  -30.6279  -22.6336   20.1756 C   0  0  0  0  0  0
  -28.4707  -23.3668   20.6966 C   0  0  1  0  0  0
  -27.0074  -23.0155   21.0395 C   0  0  0  0  0  0
  -28.3779  -24.7763   19.7666 C   0  0  0  0  0  0
  -29.2574  -22.1195   20.1658 N   0  0  0  0  0  0
  -29.7224  -16.0162   20.7834 N   0  0  0  0  0  0
  -28.2423  -20.6027   22.9449 Cl  0  0  0  0  0  0
  -28.5057  -17.5601   23.0527 Cl  0  0  0  0  0  0
  -31.4861  -12.7146   19.1949 H   0  0  0  0  0  0
  -30.4299  -11.5940   20.0035 H   0  0  0  0  0  0
  -29.8366  -11.7602   17.5646 H   0  0  0  0  0  0
  -29.6218  -13.4865   17.7170 H   0  0  0  0  0  0
  -27.9473  -11.2842   18.9621 H   0  0  0  0  0  0
  -27.3927  -12.4824   17.8223 H   0  0  0  0  0  0
  -27.6196  -14.2576   19.4542 H   0  0  0  0  0  0
  -28.7601  -12.2327   21.4415 H   0  0  0  0  0  0
  -28.3885  -13.8977   21.8029 H   0  0  0  0  0  0
  -25.2768   -9.5672   22.4762 H   0  0  0  0  0  0
  -23.9990   -7.4638   22.7495 H   0  0  0  0  0  0
  -21.0843   -8.8764   19.8955 H   0  0  0  0  0  0
  -22.3704  -10.9662   19.6161 H   0  0  0  0  0  0
  -21.2013   -7.6146   23.9702 H   0  0  0  0  0  0
  -21.1490   -6.0525   25.9066 H   0  0  0  0  0  0
  -22.0597   -2.7606   23.2846 H   0  0  0  0  0  0
  -22.4093  -11.9833   22.4775 H   0  0  0  0  0  0
  -21.1091  -13.1211   22.2639 H   0  0  0  0  0  0
  -24.6401  -15.8383   20.5088 H   0  0  0  0  0  0
  -26.2556  -15.6340   20.0582 H   0  0  0  0  0  0
  -26.7259  -32.5282   23.0994 H   0  0  0  0  0  0
  -25.0100  -33.9601   25.0316 H   0  0  0  0  0  0
  -22.7438  -31.2904   21.3726 H   0  0  0  0  0  0
  -23.3751  -35.9578   23.3293 H   0  0  0  0  0  0
  -24.3577  -36.8910   22.2066 H   0  0  0  0  0  0
  -23.7241  -37.6449   23.6690 H   0  0  0  0  0  0
  -26.1457  -31.4853   20.6097 H   0  0  0  0  0  0
  -26.8664  -30.7781   22.0225 H   0  0  0  0  0  0
  -28.1178  -28.8241   21.2481 H   0  0  0  0  0  0
  -25.9220  -25.8349   19.0348 H   0  0  0  0  0  0
  -23.9843  -27.2859   18.9920 H   0  0  0  0  0  0
  -23.8078  -30.5671   19.3901 H   0  0  0  0  0  0
  -22.7842  -29.2391   19.8320 H   0  0  0  0  0  0
  -25.1291  -36.1842   25.0817 H   0  0  0  0  0  0
  -21.0018  -28.3321   24.1343 H   0  0  0  0  0  0
  -20.5669  -26.2332   23.3628 H   0  0  0  0  0  0
  -21.6643  -26.7408   22.1212 H   0  0  0  0  0  0
  -19.6925  -25.6302   21.1234 H   0  0  0  0  0  0
  -19.6715  -27.3194   20.6725 H   0  0  0  0  0  0
  -17.4208  -26.6708   21.3994 H   0  0  0  0  0  0
  -18.0319  -26.0068   22.8993 H   0  0  0  0  0  0
  -19.7977  -30.7281   24.2216 H   0  0  0  0  0  0
  -17.5064  -31.6265   24.5190 H   0  0  0  0  0  0
  -15.5384  -30.3004   23.7693 H   0  0  0  0  0  0
  -15.8687  -28.0869   22.7036 H   0  0  0  0  0  0
  -24.5942  -30.7017   25.7782 H   0  0  0  0  0  0
  -24.8767  -32.2978   26.4605 H   0  0  0  0  0  0
  -25.7969  -30.9181   27.0314 H   0  0  0  0  0  0
  -26.3027  -29.6673   24.1268 H   0  0  0  0  0  0
  -27.4002  -29.7261   25.4863 H   0  0  0  0  0  0
  -27.8914  -30.4218   23.9607 H   0  0  0  0  0  0
  -27.2652  -33.3718   26.1898 H   0  0  0  0  0  0
  -28.3947  -32.6736   25.0384 H   0  0  0  0  0  0
  -28.0559  -31.8546   26.5577 H   0  0  0  0  0  0
  -28.2551  -38.0095   24.7502 H   0  0  0  0  0  0
  -28.1079  -36.2624   24.6278 H   0  0  0  0  0  0
  -27.2284  -37.1411   25.8867 H   0  0  0  0  0  0
  -20.9450  -29.8844   21.6849 H   0  0  0  0  0  0
  -26.0131  -38.2808   24.1443 H   0  0  0  0  0  0
  -30.3072  -20.2427   18.5291 H   0  0  0  0  0  0
  -30.6207  -17.8348   18.7017 H   0  0  0  0  0  0
  -31.3179  -22.9751   22.2245 H   0  0  0  0  0  0
  -31.2807  -24.4238   21.2311 H   0  0  0  0  0  0
  -29.1631  -24.7973   22.2233 H   0  0  0  0  0  0
  -29.0832  -23.1487   22.7782 H   0  0  0  0  0  0
  -31.4030  -21.8654   20.1509 H   0  0  0  0  0  0
  -30.7924  -23.2427   19.2849 H   0  0  0  0  0  0
  -26.3747  -23.9044   21.0302 H   0  0  0  0  0  0
  -26.8784  -22.5875   22.0290 H   0  0  0  0  0  0
  -26.5884  -22.3188   20.3126 H   0  0  0  0  0  0
  -27.6309  -24.6194   18.9927 H   0  0  0  0  0  0
  -29.2965  -24.8130   19.1836 H   0  0  0  0  0  0
  -28.9018  -15.6910   21.2724 H   0  0  0  0  0  0
  1 25  1  0  0  0
  1 30  2  0  0  0
  1 84  1  0  0  0
  2  3  1  0  0  0
  2 25  1  0  0  0
  2 87  1  0  0  0
  2 88  1  0  0  0
  3  4  1  0  0  0
  3 89  1  0  0  0
  3 90  1  0  0  0
  4  5  1  0  0  0
  4 91  1  0  0  0
  4 92  1  0  0  0
  5  6  1  0  0  0
  5 26  1  0  0  0
  5 93  1  0  0  0
  6 25  1  0  0  0
  6 94  1  0  0  0
  6 95  1  0  0  0
  7  8  2  0  0  0
  7 26  1  0  0  0
  7 29  1  0  0  0
  8  9  1  0  0  0
  8 22  1  0  0  0
  9 10  1  0  0  0
  9 27  2  0  0  0
 10 11  2  0  0  0
 10 15  1  0  0  0
 11 12  1  0  0  0
 11 96  1  0  0  0
 12 13  2  0  0  0
 12 97  1  0  0  0
 13 14  1  0  0  0
 13 31  1  0  0  0
 14 15  2  0  0  0
 14 98  1  0  0  0
 15 99  1  0  0  0
 16 17  2  0  0  0
 16 21  1  0  0  0
 16 31  1  0  0  0
 17 18  1  0  0  0
 17100  1  0  0  0
 18 19  2  0  0  0
 18101  1  0  0  0
 19 20  1  0  0  0
 19 24  1  0  0  0
 20 21  2  0  0  0
 20102  1  0  0  0
 21 23  1  0  0  0
 22 28  1  0  0  0
 22 32  2  0  0  0
 26 27  1  0  0  0
 28103  1  0  0  0
 28104  1  0  0  0
 29105  1  0  0  0
 29106  1  0  0  0
 33 34  1  0  0  0
 33 66  1  0  0  0
 33 70  2  0  0  0
 34 36  1  0  0  0
 34 59  1  0  0  0
 34107  1  0  0  0
 35 44  2  0  0  0
 35 45  1  0  0  0
 35 68  1  0  0  0
 36 56  1  0  0  0
 36108  1  0  0  0
 37 39  1  0  0  0
 37 47  1  0  0  0
 37 66  1  0  0  0
 37109  1  0  0  0
 38 43  2  0  0  0
 38 46  1  0  0  0
 38 47  1  0  0  0
 39 64  1  0  0  0
 39 67  2  0  0  0
 40 52  1  0  0  0
 40 53  2  0  0  0
 40 58  1  0  0  0
 41110  1  0  0  0
 41111  1  0  0  0
 41112  1  0  0  0
 41 48  1  0  0  0
 42 43  1  0  0  0
 42 66  1  0  0  0
 42113  1  0  0  0
 42114  1  0  0  0
 43 44  1  0  0  0
 44115  1  0  0  0
 45 46  2  0  0  0
 45116  1  0  0  0
 46117  1  0  0  0
 47118  1  0  0  0
 47119  1  0  0  0
 48 56  1  0  0  0
 48 65  1  0  0  0
 48120  1  0  0  0
 49 50  1  0  0  0
 49 53  1  0  0  0
 49 64  1  0  0  0
 49121  1  0  0  0
 50 51  1  0  0  0
 50122  1  0  0  0
 50123  1  0  0  0
 51 52  1  0  0  0
 51124  1  0  0  0
 51125  1  0  0  0
 52126  1  0  0  0
 52127  1  0  0  0
 53 54  1  0  0  0
 54 55  2  0  0  0
 54128  1  0  0  0
 55 57  1  0  0  0
 55129  1  0  0  0
 56 69  2  0  0  0
 57 58  2  0  0  0
 57130  1  0  0  0
 58131  1  0  0  0
 59 60  1  0  0  0
 59 61  1  0  0  0
 59 62  1  0  0  0
 60132  1  0  0  0
 60133  1  0  0  0
 60134  1  0  0  0
 61135  1  0  0  0
 61136  1  0  0  0
 61137  1  0  0  0
 62138  1  0  0  0
 62139  1  0  0  0
 62140  1  0  0  0
 63 65  1  0  0  0
 63141  1  0  0  0
 63142  1  0  0  0
 63143  1  0  0  0
 64144  1  0  0  0
 65145  1  0  0  0
 68 82  1  0  0  0
 71 72  2  0  0  0
 71 73  1  0  0  0
 71146  1  0  0  0
 72 74  1  0  0  0
 72147  1  0  0  0
 73 75  2  0  0  0
 73 83  1  0  0  0
 74 76  2  0  0  0
 74 84  1  0  0  0
 75 76  1  0  0  0
 75 85  1  0  0  0
 76 86  1  0  0  0
 77 78  1  0  0  0
 77 79  1  0  0  0
 77148  1  0  0  0
 77149  1  0  0  0
 78 80  1  0  0  0
 78150  1  0  0  0
 78151  1  0  0  0
 79 83  1  0  0  0
 79152  1  0  0  0
 79153  1  0  0  0
 80 81  1  0  0  0
 80 82  1  0  0  0
 80 83  1  0  0  0
 81154  1  0  0  0
 81155  1  0  0  0
 81156  1  0  0  0
 82157  1  0  0  0
 82158  1  0  0  0
 84159  1  0  0  0
M  ISO  4   1 100  68 101  82 101  84 100
M  END
> <chiral flag>
0

> <version>
0

> <s_m_source_file>
/data/baiqing/PycharmProjects/Reinvent-master-3.2/result/LINK_invent/BTK/process_docking_weight1_custom_product_contain_oxygen_bond_distance_aromatic_linkinvent_7_9_3/rearranged_h_0024.sdf

> <i_m_source_file_index>
96

> <r_mmod_Potential_Energy-OPLS-2005>
601.49462890625

> <r_mmod_Stretch_Energy-OPLS-2005>
229.060165405273

> <r_mmod_Bend_Energy-OPLS-2005>
341.180908203125

> <r_mmod_Torsional_Energy-OPLS-2005>
301.610504150391

> <r_mmod_Improper_Torsional_Energy-OPLS-2005>
8.40655040740967

> <r_mmod_Van_der_Waal_Energy-OPLS-2005>
136.171371459961

> <r_mmod_Electrostatic_Energy-OPLS-2005>
-364.294708251953

> <r_mmod_Solvation_Energy-OPLS-2005>
-215.266036987305

> <b_mmod_Minimization_Converged-OPLS-2005>
0

> <r_mmod_RMS_Derivative-OPLS-2005>
2.45372915267944

$$$$
