0
                    3D
 Structure written by MMmdl.
159167  0  0  1  0            999 V2000
  -29.9385  -14.5958   19.9648 C   0  0  0  0  0  0
  -30.5540  -12.3159   19.3389 C   0  0  0  0  0  0
  -29.5548  -11.9926   18.1931 C   0  0  0  0  0  0
  -28.1405  -11.5757   18.7995 C   0  0  0  0  0  0
  -27.7819  -12.4750   20.0039 C   0  0  2  0  0  0
  -28.8895  -12.7045   21.0327 C   0  0  0  0  0  0
  -24.9953  -14.6696   20.1692 C   0  0  0  0  0  0
  -24.2351  -14.3212   20.5068 C   0  0  0  0  0  0
  -25.6161  -12.6414   20.6928 C   0  0  0  0  0  0
  -25.1329  -10.8549   20.5693 C   0  0  0  0  0  0
  -25.2292   -9.9767   22.4266 C   0  0  0  0  0  0
  -23.7354   -8.7818   23.0147 C   0  0  0  0  0  0
  -22.2265   -8.4119   21.8343 C   0  0  0  0  0  0
  -22.0634   -9.2199   20.1441 C   0  0  0  0  0  0
  -23.4336  -10.3406   19.4177 C   0  0  0  0  0  0
  -21.6805   -6.1929   22.6713 C   0  0  0  0  0  0
  -21.3965   -6.5807   23.9886 C   0  0  0  0  0  0
  -21.3618   -5.6322   25.0161 C   0  0  0  0  0  0
  -21.6070   -4.2798   24.7350 C   0  0  0  0  0  0
  -21.8808   -3.8680   23.4177 C   0  0  0  0  0  0
  -21.9129   -4.8163   22.3758 C   0  0  0  0  0  0
  -22.6519  -14.6791   20.7290 C   0  0  0  0  0  0
  -22.1444   -4.3795   21.1098 F   0  0  0  0  0  0
  -21.5722   -3.3804   25.7435 F   0  0  0  0  0  0
  -29.9318  -13.2834   20.2588 N   0  0  0  0  0  0
  -26.2293  -13.0090   20.5488 N   0  0  0  0  0  0
  -26.3114  -12.2974   21.6314 N   0  0  0  0  0  0
  -21.8969  -14.2484   21.7964 N   0  0  0  0  0  0
  -24.9599  -15.9565   19.5858 N   0  0  0  0  0  0
  -31.0799  -15.1107   19.9165 O   0  0  0  0  0  0
  -21.5987   -7.1672   21.7160 O   0  0  0  0  0  0
  -22.0416  -15.2349   19.8770 O   0  0  0  0  0  0
  -24.7129  -31.7519   23.1328 C   0  0  0  0  0  0
  -25.9598  -32.4162   23.7917 C   0  0  1  0  0  0
  -26.5636  -25.9545   20.6469 C   0  0  0  0  0  0
  -25.6090  -33.8055   24.1727 N   0  0  0  0  0  0
  -23.5361  -30.3658   21.4909 C   0  0  2  0  0  0
  -24.9105  -28.5851   20.1360 C   0  0  0  0  0  0
  -22.7769  -29.4117   22.4560 C   0  0  0  0  0  0
  -18.0317  -28.1417   22.8435 C   0  0  0  0  0  0
  -24.1488  -36.6995   23.2650 C   0  0  0  0  0  0
  -26.1065  -30.2295   21.5211 C   0  0  0  0  0  0
  -26.0435  -28.7191   20.9358 C   0  0  0  0  0  0
  -26.8690  -27.4358   21.1464 C   0  0  0  0  0  0
  -25.6350  -26.2316   19.6003 C   0  0  0  0  0  0
  -24.8154  -27.3918   19.4030 C   0  0  0  0  0  0
  -23.8078  -29.6673   20.1190 C   0  0  0  0  0  0
  -25.4158  -36.2723   24.0240 C   0  0  1  0  0  0
  -20.5953  -28.3788   23.1078 C   0  0  2  0  0  0
  -20.6764  -26.9430   22.5396 C   0  0  0  0  0  0
  -19.5766  -26.6347   21.5190 C   0  0  0  0  0  0
  -18.1948  -26.7932   22.1594 C   0  0  0  0  0  0
  -19.1593  -28.8927   23.2729 C   0  0  0  0  0  0
  -18.9519  -30.1502   23.8794 C   0  0  0  0  0  0
  -17.6522  -30.6611   24.0545 C   0  0  0  0  0  0
  -25.9203  -34.9138   23.4843 C   0  0  0  0  0  0
  -16.5400  -29.9098   23.6368 C   0  0  0  0  0  0
  -16.7297  -28.6513   23.0381 C   0  0  0  0  0  0
  -26.4660  -31.6439   25.0744 C   0  0  0  0  0  0
  -25.3631  -31.3915   26.1291 C   0  0  0  0  0  0
  -27.0705  -30.2728   24.7102 C   0  0  0  0  0  0
  -27.6009  -32.4439   25.7571 C   0  0  0  0  0  0
  -27.5577  -37.1599   24.8418 C   0  0  0  0  0  0
  -21.4407  -29.2977   22.3321 N   0  0  0  0  0  0
  -26.4202  -37.3585   23.9477 N   0  0  0  0  0  0
  -24.8202  -30.8433   22.0914 N   0  0  0  0  0  0
  -23.4064  -28.7746   23.3049 O   0  0  0  0  0  0
  -26.9471  -24.3119   20.9210 O   0  0  0  0  0  0
  -26.5894  -34.8816   22.4499 O   0  0  0  0  0  0
  -23.6103  -32.0945   23.5996 O   0  0  0  0  0  0
  -24.0843  -12.6507   19.0940 C   0  0  0  0  0  0
  -25.8349  -13.6444   18.3723 C   0  0  0  0  0  0
  -26.7606  -15.0188   21.5656 C   0  0  0  0  0  0
  -23.6395  -12.5083   21.5230 C   0  0  0  0  0  0
  -27.1853  -14.8387   19.6125 C   0  0  0  0  0  0
  -25.1622  -14.3360   22.5125 C   0  0  0  0  0  0
  -23.1091  -10.7296   21.7324 C   0  0  0  0  0  0
  -24.4593  -18.6805   23.3681 C   0  0  0  0  0  0
  -26.1499  -20.2473   21.4596 C   0  0  0  0  0  0
  -24.2480  -17.9483   24.6909 C   0  0  0  0  0  0
  -26.1461  -22.4571   21.4987 C   0  0  0  0  0  0
  -25.5702  -18.1581   22.4459 C   0  0  2  0  0  0
  -24.1783   -8.8618   20.8443 N   0  0  0  0  0  0
  -28.7043  -15.1508   19.4311 N   0  0  0  0  0  0
  -25.0330  -16.1974   22.4513 N   0  0  0  0  0  0
  -23.6897  -19.5933   23.0607 O   0  0  0  0  0  0
  -26.7739  -19.9651   20.4311 O   0  0  0  0  0  0
  -31.4858  -12.7071   18.9242 H   0  0  0  0  0  0
  -30.8238  -11.4063   19.8766 H   0  0  0  0  0  0
  -29.9446  -11.1821   17.5750 H   0  0  0  0  0  0
  -29.4534  -12.8478   17.5206 H   0  0  0  0  0  0
  -28.2241  -10.5579   19.1832 H   0  0  0  0  0  0
  -27.3719  -11.5004   18.0221 H   0  0  0  0  0  0
  -27.9627  -12.9769   19.1038 H   0  0  0  0  0  0
  -29.2015  -11.7585   21.4757 H   0  0  0  0  0  0
  -28.6358  -13.3585   21.8649 H   0  0  0  0  0  0
  -26.0041  -10.2460   23.1318 H   0  0  0  0  0  0
  -23.8283   -8.2492   23.9499 H   0  0  0  0  0  0
  -21.2980   -8.8602   19.4738 H   0  0  0  0  0  0
  -23.3627  -10.4844   18.3497 H   0  0  0  0  0  0
  -21.1832   -7.6136   24.2207 H   0  0  0  0  0  0
  -21.1400   -5.9392   26.0280 H   0  0  0  0  0  0
  -22.0597   -2.8262   23.2025 H   0  0  0  0  0  0
  -22.3242  -13.7869   22.5842 H   0  0  0  0  0  0
  -20.9190  -14.4917   21.8426 H   0  0  0  0  0  0
  -24.1020  -16.4788   19.4733 H   0  0  0  0  0  0
  -25.7301  -16.3303   19.0470 H   0  0  0  0  0  0
  -26.7655  -32.4416   23.0575 H   0  0  0  0  0  0
  -25.0109  -33.9038   24.9795 H   0  0  0  0  0  0
  -22.8928  -31.2250   21.2922 H   0  0  0  0  0  0
  -23.3874  -35.9187   23.3052 H   0  0  0  0  0  0
  -24.3584  -36.8965   22.2128 H   0  0  0  0  0  0
  -23.7086  -37.6003   23.6937 H   0  0  0  0  0  0
  -26.4004  -30.8781   20.6945 H   0  0  0  0  0  0
  -26.9493  -30.2930   22.1935 H   0  0  0  0  0  0
  -27.6640  -27.5205   21.8730 H   0  0  0  0  0  0
  -25.3550  -25.3774   19.0006 H   0  0  0  0  0  0
  -24.0056  -27.3007   18.6932 H   0  0  0  0  0  0
  -24.0978  -30.4201   19.3844 H   0  0  0  0  0  0
  -22.8846  -29.2316   19.7339 H   0  0  0  0  0  0
  -25.1362  -36.1383   25.0713 H   0  0  0  0  0  0
  -21.0026  -28.3436   24.1211 H   0  0  0  0  0  0
  -20.5564  -26.2443   23.3683 H   0  0  0  0  0  0
  -21.6639  -26.7316   22.1279 H   0  0  0  0  0  0
  -19.6929  -25.6224   21.1308 H   0  0  0  0  0  0
  -19.6710  -27.3096   20.6671 H   0  0  0  0  0  0
  -17.4212  -26.6667   21.4002 H   0  0  0  0  0  0
  -18.0342  -26.0075   22.8996 H   0  0  0  0  0  0
  -19.8007  -30.7313   24.2139 H   0  0  0  0  0  0
  -17.5089  -31.6280   24.5163 H   0  0  0  0  0  0
  -15.5408  -30.2993   23.7728 H   0  0  0  0  0  0
  -15.8683  -28.0797   22.7179 H   0  0  0  0  0  0
  -24.5899  -30.7138   25.7645 H   0  0  0  0  0  0
  -24.8732  -32.3179   26.4305 H   0  0  0  0  0  0
  -25.7751  -30.9406   27.0331 H   0  0  0  0  0  0
  -26.3480  -29.6077   24.2366 H   0  0  0  0  0  0
  -27.4120  -29.7503   25.6048 H   0  0  0  0  0  0
  -27.9490  -30.3721   24.0725 H   0  0  0  0  0  0
  -27.2453  -33.3833   26.1829 H   0  0  0  0  0  0
  -28.3995  -32.6860   25.0539 H   0  0  0  0  0  0
  -28.0500  -31.8819   26.5776 H   0  0  0  0  0  0
  -28.2328  -38.0147   24.7836 H   0  0  0  0  0  0
  -28.1341  -36.2720   24.5780 H   0  0  0  0  0  0
  -27.2369  -37.0644   25.8808 H   0  0  0  0  0  0
  -20.9753  -29.8615   21.6349 H   0  0  0  0  0  0
  -25.9963  -38.2532   24.1779 H   0  0  0  0  0  0
  -23.3830  -12.3790   18.3221 H   0  0  0  0  0  0
  -26.0557  -13.5727   17.3161 H   0  0  0  0  0  0
  -27.4257  -15.6590   22.1275 H   0  0  0  0  0  0
  -22.2160  -10.6952   22.3680 H   0  0  0  0  0  0
  -25.1386  -17.3799   24.9560 H   0  0  0  0  0  0
  -23.4158  -17.2481   24.6015 H   0  0  0  0  0  0
  -24.0265  -18.6501   25.4940 H   0  0  0  0  0  0
  -26.1073  -22.6136   22.5759 H   0  0  0  0  0  0
  -25.1132  -22.6178   21.1876 H   0  0  0  0  0  0
  -26.4519  -18.0317   23.0742 H   0  0  0  0  0  0
  -24.9836   -9.1583   20.3064 H   0  0  0  0  0  0
  -28.8739  -16.0304   18.9641 H   0  0  0  0  0  0
  -24.0412  -16.3242   22.2876 H   0  0  0  0  0  0
  1 25  1  0  0  0
  1 30  2  0  0  0
  1 84  1  0  0  0
  2  3  1  0  0  0
  2 25  1  0  0  0
  2 88  1  0  0  0
  2 89  1  0  0  0
  3  4  1  0  0  0
  3 90  1  0  0  0
  3 91  1  0  0  0
  4  5  1  0  0  0
  4 92  1  0  0  0
  4 93  1  0  0  0
  5  6  1  0  0  0
  5 26  1  0  0  0
  5 94  1  0  0  0
  6 25  1  0  0  0
  6 95  1  0  0  0
  6 96  1  0  0  0
  7  8  2  0  0  0
  7 26  1  0  0  0
  7 29  1  0  0  0
  8  9  1  0  0  0
  8 22  1  0  0  0
  9 10  1  0  0  0
  9 27  2  0  0  0
 10 11  2  0  0  0
 10 15  1  0  0  0
 11 12  1  0  0  0
 11 97  1  0  0  0
 12 13  2  0  0  0
 12 98  1  0  0  0
 13 14  1  0  0  0
 13 31  1  0  0  0
 14 15  2  0  0  0
 14 99  1  0  0  0
 15100  1  0  0  0
 16 17  2  0  0  0
 16 21  1  0  0  0
 16 31  1  0  0  0
 17 18  1  0  0  0
 17101  1  0  0  0
 18 19  2  0  0  0
 18102  1  0  0  0
 19 20  1  0  0  0
 19 24  1  0  0  0
 20 21  2  0  0  0
 20103  1  0  0  0
 21 23  1  0  0  0
 22 28  1  0  0  0
 22 32  2  0  0  0
 26 27  1  0  0  0
 28104  1  0  0  0
 28105  1  0  0  0
 29106  1  0  0  0
 29107  1  0  0  0
 33 34  1  0  0  0
 33 66  1  0  0  0
 33 70  2  0  0  0
 34 36  1  0  0  0
 34 59  1  0  0  0
 34108  1  0  0  0
 35 44  2  0  0  0
 35 45  1  0  0  0
 35 68  1  0  0  0
 36 56  1  0  0  0
 36109  1  0  0  0
 37 39  1  0  0  0
 37 47  1  0  0  0
 37 66  1  0  0  0
 37110  1  0  0  0
 38 43  2  0  0  0
 38 46  1  0  0  0
 38 47  1  0  0  0
 39 64  1  0  0  0
 39 67  2  0  0  0
 40 52  1  0  0  0
 40 53  2  0  0  0
 40 58  1  0  0  0
 41111  1  0  0  0
 41112  1  0  0  0
 41113  1  0  0  0
 41 48  1  0  0  0
 42 43  1  0  0  0
 42 66  1  0  0  0
 42114  1  0  0  0
 42115  1  0  0  0
 43 44  1  0  0  0
 44116  1  0  0  0
 45 46  2  0  0  0
 45117  1  0  0  0
 46118  1  0  0  0
 47119  1  0  0  0
 47120  1  0  0  0
 48 56  1  0  0  0
 48 65  1  0  0  0
 48121  1  0  0  0
 49 50  1  0  0  0
 49 53  1  0  0  0
 49 64  1  0  0  0
 49122  1  0  0  0
 50 51  1  0  0  0
 50123  1  0  0  0
 50124  1  0  0  0
 51 52  1  0  0  0
 51125  1  0  0  0
 51126  1  0  0  0
 52127  1  0  0  0
 52128  1  0  0  0
 53 54  1  0  0  0
 54 55  2  0  0  0
 54129  1  0  0  0
 55 57  1  0  0  0
 55130  1  0  0  0
 56 69  2  0  0  0
 57 58  2  0  0  0
 57131  1  0  0  0
 58132  1  0  0  0
 59 60  1  0  0  0
 59 61  1  0  0  0
 59 62  1  0  0  0
 60133  1  0  0  0
 60134  1  0  0  0
 60135  1  0  0  0
 61136  1  0  0  0
 61137  1  0  0  0
 61138  1  0  0  0
 62139  1  0  0  0
 62140  1  0  0  0
 62141  1  0  0  0
 63 65  1  0  0  0
 63142  1  0  0  0
 63143  1  0  0  0
 63144  1  0  0  0
 64145  1  0  0  0
 65146  1  0  0  0
 68 81  1  0  0  0
 71 72  2  0  0  0
 71 74  1  0  0  0
 71147  1  0  0  0
 72 75  1  0  0  0
 72148  1  0  0  0
 73 75  2  0  0  0
 73 76  1  0  0  0
 73149  1  0  0  0
 74 76  2  0  0  0
 74 77  1  0  0  0
 75 84  1  0  0  0
 76 85  1  0  0  0
 77 83  2  0  0  0
 77150  1  0  0  0
 78 80  1  0  0  0
 78 82  1  0  0  0
 78 86  2  0  0  0
 79 81  1  0  0  0
 79 82  1  0  0  0
 79 87  2  0  0  0
 80151  1  0  0  0
 80152  1  0  0  0
 80153  1  0  0  0
 81154  1  0  0  0
 81155  1  0  0  0
 82 85  1  0  0  0
 82156  1  0  0  0
 83157  1  0  0  0
 84158  1  0  0  0
 85159  1  0  0  0
M  ISO  4   1 100  68 101  81 101  84 100
M  END
> <chiral flag>
0

> <version>
0

> <s_m_source_file>
/data/baiqing/PycharmProjects/Reinvent-master-3.2/result/LINK_invent/BTK/process_docking_weight1_custom_product_contain_oxygen_bond_distance_aromatic_linkinvent_7_9_3/rearranged_h_0171.sdf

> <i_m_source_file_index>
1

> <r_mmod_Potential_Energy-OPLS-2005>
36721.75390625

> <r_mmod_Stretch_Energy-OPLS-2005>
21862.013671875

> <r_mmod_Bend_Energy-OPLS-2005>
2582.38110351562

> <r_mmod_Torsional_Energy-OPLS-2005>
876.559509277344

> <r_mmod_Improper_Torsional_Energy-OPLS-2005>
114.584373474121

> <r_mmod_Van_der_Waal_Energy-OPLS-2005>
7898.70361328125

> <r_mmod_Electrostatic_Energy-OPLS-2005>
-316.333282470703

> <r_mmod_Solvation_Energy-OPLS-2005>
-261.122497558594

> <b_mmod_Minimization_Converged-OPLS-2005>
0

> <r_mmod_RMS_Derivative-OPLS-2005>
6.39682817459106

$$$$
1
                    3D
 Structure written by MMmdl.
161169  0  0  1  0            999 V2000
  -30.7049  -14.4833   20.5496 C   0  0  0  0  0  0
  -30.4261  -12.3022   19.4214 C   0  0  0  0  0  0
  -29.4975  -12.4969   18.2042 C   0  0  0  0  0  0
  -28.0199  -12.3535   18.6201 C   0  0  0  0  0  0
  -27.6646  -13.2026   19.8705 C   0  0  2  0  0  0
  -28.7093  -12.9956   20.9922 C   0  0  0  0  0  0
  -25.2625  -13.8156   20.5661 C   0  0  0  0  0  0
  -24.1855  -13.0449   20.9164 C   0  0  0  0  0  0
  -24.6381  -11.6897   20.8702 C   0  0  0  0  0  0
  -23.9031  -10.4289   21.0397 C   0  0  0  0  0  0
  -24.3584   -9.4215   21.9186 C   0  0  0  0  0  0
  -23.6261   -8.2253   22.0768 C   0  0  0  0  0  0
  -22.4259   -8.0275   21.3541 C   0  0  0  0  0  0
  -21.9866   -9.0258   20.4661 C   0  0  0  0  0  0
  -22.7187  -10.2143   20.3065 C   0  0  0  0  0  0
  -21.6866   -6.0713   22.5268 C   0  0  0  0  0  0
  -21.4018   -6.5626   23.8197 C   0  0  0  0  0  0
  -21.3660   -5.6788   24.9160 C   0  0  0  0  0  0
  -21.6043   -4.3042   24.7217 C   0  0  0  0  0  0
  -21.8821   -3.8128   23.4346 C   0  0  0  0  0  0
  -21.9189   -4.6941   22.3392 C   0  0  0  0  0  0
  -22.7884  -13.5276   21.1814 C   0  0  0  0  0  0
  -22.1665   -4.2123   21.0971 F   0  0  0  0  0  0
  -21.5626   -3.4526   25.7733 F   0  0  0  0  0  0
  -30.0423  -13.2970   20.4360 N   0  0  0  0  0  0
  -26.3045  -12.9309   20.3334 N   0  0  0  0  0  0
  -25.9315  -11.6472   20.5741 N   0  0  0  0  0  0
  -22.0493  -12.8316   22.0376 N   0  0  0  0  0  0
  -25.4366  -15.1868   20.4081 N   0  0  0  0  0  0
  -31.8362  -14.6533   20.0888 O   0  0  0  0  0  0
  -21.6646   -6.8860   21.4232 O   0  0  0  0  0  0
  -22.3581  -14.5582   20.6631 O   0  0  0  0  0  0
  -24.6175  -31.8677   23.2119 C   0  0  0  0  0  0
  -25.9053  -32.4830   23.8422 C   0  0  1  0  0  0
  -27.2296  -27.4098   20.0857 C   0  0  0  0  0  0
  -25.5903  -33.8627   24.2352 N   0  0  0  0  0  0
  -23.4067  -30.4931   21.5549 C   0  0  2  0  0  0
  -24.8499  -28.9631   20.1152 C   0  0  0  0  0  0
  -22.7430  -29.4641   22.4994 C   0  0  0  0  0  0
  -18.0275  -28.1387   22.8484 C   0  0  0  0  0  0
  -24.1477  -36.7313   23.2634 C   0  0  0  0  0  0
  -25.9403  -30.8244   21.3694 C   0  0  0  0  0  0
  -26.0154  -29.4580   20.7144 C   0  0  0  0  0  0
  -27.2064  -28.6890   20.6993 C   0  0  0  0  0  0
  -26.0377  -26.9464   19.4736 C   0  0  0  0  0  0
  -24.8578  -27.7078   19.4921 C   0  0  0  0  0  0
  -23.6156  -29.8342   20.1672 C   0  0  0  0  0  0
  -25.4098  -36.3115   24.0343 C   0  0  1  0  0  0
  -20.5861  -28.3661   23.1314 C   0  0  2  0  0  0
  -20.6757  -26.9395   22.5410 C   0  0  0  0  0  0
  -19.5736  -26.6386   21.5206 C   0  0  0  0  0  0
  -18.1916  -26.7932   22.1618 C   0  0  0  0  0  0
  -19.1521  -28.8847   23.2893 C   0  0  0  0  0  0
  -18.9450  -30.1451   23.8906 C   0  0  0  0  0  0
  -17.6449  -30.6588   24.0564 C   0  0  0  0  0  0
  -25.9036  -34.9479   23.5150 C   0  0  0  0  0  0
  -16.5343  -29.9089   23.6324 C   0  0  0  0  0  0
  -16.7260  -28.6509   23.0343 C   0  0  0  0  0  0
  -26.4493  -31.6609   25.0742 C   0  0  0  0  0  0
  -25.3776  -31.3709   26.1509 C   0  0  0  0  0  0
  -27.0311  -30.3053   24.6106 C   0  0  0  0  0  0
  -27.6097  -32.4313   25.7477 C   0  0  0  0  0  0
  -27.5585  -37.1792   24.8461 C   0  0  0  0  0  0
  -21.4152  -29.3033   22.3739 N   0  0  0  0  0  0
  -26.4283  -37.3799   23.9434 N   0  0  0  0  0  0
  -24.6742  -31.0751   22.1043 N   0  0  0  0  0  0
  -23.4197  -28.8171   23.3031 O   0  0  0  0  0  0
  -28.3886  -26.6436   20.1027 O   0  0  0  0  0  0
  -26.5587  -34.8927   22.4708 O   0  0  0  0  0  0
  -23.5352  -32.1444   23.7489 O   0  0  0  0  0  0
  -31.4799  -18.9818   20.8177 C   0  0  0  0  0  0
  -31.3691  -17.5734   20.7233 C   0  0  0  0  0  0
  -29.0784  -17.7112   21.5024 C   0  0  0  0  0  0
  -30.3994  -19.7742   21.2827 C   0  0  0  0  0  0
  -30.1677  -16.9107   21.0884 C   0  0  0  0  0  0
  -29.1871  -19.1179   21.5947 C   0  0  0  0  0  0
  -29.4263  -24.3465   20.0940 C   0  0  0  0  0  0
  -31.8540  -21.5763   22.3425 C   0  0  0  0  0  0
  -28.6558  -22.3465   18.6838 C   0  0  0  0  0  0
  -28.2270  -25.2519   19.7378 C   0  0  0  0  0  0
  -30.5584  -21.2856   21.5644 C   0  0  1  0  0  0
  -29.1869  -22.8078   20.0551 C   0  0  1  0  0  0
  -29.9746  -15.4860   21.0844 N   0  0  0  0  0  0
  -30.4879  -22.1589   20.3619 N   0  3  0  0  0  0
  -30.5237  -24.8325   20.3944 O   0  0  0  0  0  0
  -28.1201  -19.8358   22.0185 F   0  0  0  0  0  0
  -31.4729  -12.3866   19.1199 H   0  0  0  0  0  0
  -30.3163  -11.2933   19.8244 H   0  0  0  0  0  0
  -29.7326  -11.7699   17.4266 H   0  0  0  0  0  0
  -29.6668  -13.4801   17.7603 H   0  0  0  0  0  0
  -27.8416  -11.2984   18.8314 H   0  0  0  0  0  0
  -27.3681  -12.6102   17.7843 H   0  0  0  0  0  0
  -27.7043  -14.2475   19.5606 H   0  0  0  0  0  0
  -28.6866  -11.9641   21.3460 H   0  0  0  0  0  0
  -28.4716  -13.6056   21.8659 H   0  0  0  0  0  0
  -25.2737   -9.5701   22.4752 H   0  0  0  0  0  0
  -23.9968   -7.4663   22.7510 H   0  0  0  0  0  0
  -21.0777   -8.8764   19.8995 H   0  0  0  0  0  0
  -22.3619  -10.9676   19.6175 H   0  0  0  0  0  0
  -21.2020   -7.6139   23.9683 H   0  0  0  0  0  0
  -21.1490   -6.0525   25.9059 H   0  0  0  0  0  0
  -22.0599   -2.7583   23.2856 H   0  0  0  0  0  0
  -22.4076  -11.9986   22.4804 H   0  0  0  0  0  0
  -21.1130  -13.1420   22.2570 H   0  0  0  0  0  0
  -24.6692  -15.8436   20.5055 H   0  0  0  0  0  0
  -26.2831  -15.6154   20.0561 H   0  0  0  0  0  0
  -26.7123  -32.5540   23.1182 H   0  0  0  0  0  0
  -25.0081  -33.9798   25.0515 H   0  0  0  0  0  0
  -22.6959  -31.3104   21.4177 H   0  0  0  0  0  0
  -23.3742  -35.9641   23.3298 H   0  0  0  0  0  0
  -24.3571  -36.8925   22.2046 H   0  0  0  0  0  0
  -23.7218  -37.6518   23.6645 H   0  0  0  0  0  0
  -26.0506  -31.5878   20.5979 H   0  0  0  0  0  0
  -26.8293  -30.8817   21.9861 H   0  0  0  0  0  0
  -28.1042  -29.0645   21.1707 H   0  0  0  0  0  0
  -25.9815  -25.9946   18.9671 H   0  0  0  0  0  0
  -23.9640  -27.3249   19.0184 H   0  0  0  0  0  0
  -23.7300  -30.6137   19.4126 H   0  0  0  0  0  0
  -22.7384  -29.2593   19.8647 H   0  0  0  0  0  0
  -25.1258  -36.1992   25.0831 H   0  0  0  0  0  0
  -20.9934  -28.3222   24.1441 H   0  0  0  0  0  0
  -20.5648  -26.2270   23.3598 H   0  0  0  0  0  0
  -21.6636  -26.7432   22.1216 H   0  0  0  0  0  0
  -19.6898  -25.6301   21.1231 H   0  0  0  0  0  0
  -19.6689  -27.3202   20.6744 H   0  0  0  0  0  0
  -17.4182  -26.6663   21.4027 H   0  0  0  0  0  0
  -18.0324  -26.0084   22.9023 H   0  0  0  0  0  0
  -19.7928  -30.7255   24.2290 H   0  0  0  0  0  0
  -17.5011  -31.6270   24.5161 H   0  0  0  0  0  0
  -15.5346  -30.2999   23.7652 H   0  0  0  0  0  0
  -15.8656  -28.0837   22.7058 H   0  0  0  0  0  0
  -24.5927  -30.7077   25.7856 H   0  0  0  0  0  0
  -24.8993  -32.2858   26.5014 H   0  0  0  0  0  0
  -25.8143  -30.8839   27.0236 H   0  0  0  0  0  0
  -26.2833  -29.6805   24.1202 H   0  0  0  0  0  0
  -27.4139  -29.7303   25.4547 H   0  0  0  0  0  0
  -27.8655  -30.4388   23.9215 H   0  0  0  0  0  0
  -27.2755  -33.3600   26.2116 H   0  0  0  0  0  0
  -28.3861  -32.6891   25.0261 H   0  0  0  0  0  0
  -28.0821  -31.8399   26.5329 H   0  0  0  0  0  0
  -28.2590  -38.0099   24.7546 H   0  0  0  0  0  0
  -28.1090  -36.2642   24.6232 H   0  0  0  0  0  0
  -27.2316  -37.1375   25.8862 H   0  0  0  0  0  0
  -20.9320  -29.8793   21.6988 H   0  0  0  0  0  0
  -26.0177  -38.2872   24.1479 H   0  0  0  0  0  0
  -32.4239  -19.4422   20.5620 H   0  0  0  0  0  0
  -32.2362  -17.0209   20.3919 H   0  0  0  0  0  0
  -28.1381  -17.2542   21.7787 H   0  0  0  0  0  0
  -31.9061  -20.9713   23.2471 H   0  0  0  0  0  0
  -31.9029  -22.6217   22.6508 H   0  0  0  0  0  0
  -32.7479  -21.3644   21.7563 H   0  0  0  0  0  0
  -27.6748  -22.7737   18.4732 H   0  0  0  0  0  0
  -28.5400  -21.2626   18.6511 H   0  0  0  0  0  0
  -29.3232  -22.6350   17.8706 H   0  0  0  0  0  0
  -27.3532  -24.8304   20.2370 H   0  0  0  0  0  0
  -28.0641  -25.1843   18.6614 H   0  0  0  0  0  0
  -29.7562  -21.5797   22.2426 H   0  0  0  0  0  0
  -28.4551  -22.5534   20.8220 H   0  0  0  0  0  0
  -29.0807  -15.1727   21.4314 H   0  0  0  0  0  0
  -30.8638  -21.6950   19.5511 H   0  0  0  0  0  0
  -31.0743  -22.9640   20.5441 H   0  0  0  0  0  0
  1 25  1  0  0  0
  1 30  2  0  0  0
  1 83  1  0  0  0
  2  3  1  0  0  0
  2 25  1  0  0  0
  2 87  1  0  0  0
  2 88  1  0  0  0
  3  4  1  0  0  0
  3 89  1  0  0  0
  3 90  1  0  0  0
  4  5  1  0  0  0
  4 91  1  0  0  0
  4 92  1  0  0  0
  5  6  1  0  0  0
  5 26  1  0  0  0
  5 93  1  0  0  0
  6 25  1  0  0  0
  6 94  1  0  0  0
  6 95  1  0  0  0
  7  8  2  0  0  0
  7 26  1  0  0  0
  7 29  1  0  0  0
  8  9  1  0  0  0
  8 22  1  0  0  0
  9 10  1  0  0  0
  9 27  2  0  0  0
 10 11  2  0  0  0
 10 15  1  0  0  0
 11 12  1  0  0  0
 11 96  1  0  0  0
 12 13  2  0  0  0
 12 97  1  0  0  0
 13 14  1  0  0  0
 13 31  1  0  0  0
 14 15  2  0  0  0
 14 98  1  0  0  0
 15 99  1  0  0  0
 16 17  2  0  0  0
 16 21  1  0  0  0
 16 31  1  0  0  0
 17 18  1  0  0  0
 17100  1  0  0  0
 18 19  2  0  0  0
 18101  1  0  0  0
 19 20  1  0  0  0
 19 24  1  0  0  0
 20 21  2  0  0  0
 20102  1  0  0  0
 21 23  1  0  0  0
 22 28  1  0  0  0
 22 32  2  0  0  0
 26 27  1  0  0  0
 28103  1  0  0  0
 28104  1  0  0  0
 29105  1  0  0  0
 29106  1  0  0  0
 33 34  1  0  0  0
 33 66  1  0  0  0
 33 70  2  0  0  0
 34 36  1  0  0  0
 34 59  1  0  0  0
 34107  1  0  0  0
 35 44  2  0  0  0
 35 45  1  0  0  0
 35 68  1  0  0  0
 36 56  1  0  0  0
 36108  1  0  0  0
 37 39  1  0  0  0
 37 47  1  0  0  0
 37 66  1  0  0  0
 37109  1  0  0  0
 38 43  2  0  0  0
 38 46  1  0  0  0
 38 47  1  0  0  0
 39 64  1  0  0  0
 39 67  2  0  0  0
 40 52  1  0  0  0
 40 53  2  0  0  0
 40 58  1  0  0  0
 41110  1  0  0  0
 41111  1  0  0  0
 41112  1  0  0  0
 41 48  1  0  0  0
 42 43  1  0  0  0
 42 66  1  0  0  0
 42113  1  0  0  0
 42114  1  0  0  0
 43 44  1  0  0  0
 44115  1  0  0  0
 45 46  2  0  0  0
 45116  1  0  0  0
 46117  1  0  0  0
 47118  1  0  0  0
 47119  1  0  0  0
 48 56  1  0  0  0
 48 65  1  0  0  0
 48120  1  0  0  0
 49 50  1  0  0  0
 49 53  1  0  0  0
 49 64  1  0  0  0
 49121  1  0  0  0
 50 51  1  0  0  0
 50122  1  0  0  0
 50123  1  0  0  0
 51 52  1  0  0  0
 51124  1  0  0  0
 51125  1  0  0  0
 52126  1  0  0  0
 52127  1  0  0  0
 53 54  1  0  0  0
 54 55  2  0  0  0
 54128  1  0  0  0
 55 57  1  0  0  0
 55129  1  0  0  0
 56 69  2  0  0  0
 57 58  2  0  0  0
 57130  1  0  0  0
 58131  1  0  0  0
 59 60  1  0  0  0
 59 61  1  0  0  0
 59 62  1  0  0  0
 60132  1  0  0  0
 60133  1  0  0  0
 60134  1  0  0  0
 61135  1  0  0  0
 61136  1  0  0  0
 61137  1  0  0  0
 62138  1  0  0  0
 62139  1  0  0  0
 62140  1  0  0  0
 63 65  1  0  0  0
 63141  1  0  0  0
 63142  1  0  0  0
 63143  1  0  0  0
 64144  1  0  0  0
 65145  1  0  0  0
 68 80  1  0  0  0
 71 72  2  0  0  0
 71 74  1  0  0  0
 71146  1  0  0  0
 72 75  1  0  0  0
 72147  1  0  0  0
 73 75  2  0  0  0
 73 76  1  0  0  0
 73148  1  0  0  0
 74 76  2  0  0  0
 74 81  1  0  0  0
 75 83  1  0  0  0
 76 86  1  0  0  0
 77 80  1  0  0  0
 77 82  1  0  0  0
 77 85  2  0  0  0
 78149  1  0  0  0
 78150  1  0  0  0
 78151  1  0  0  0
 78 81  1  0  0  0
 79152  1  0  0  0
 79153  1  0  0  0
 79154  1  0  0  0
 79 82  1  0  0  0
 80155  1  0  0  0
 80156  1  0  0  0
 81 84  1  0  0  0
 81157  1  0  0  0
 82 84  1  0  0  0
 82158  1  0  0  0
 83159  1  0  0  0
 84160  1  0  0  0
 84161  1  0  0  0
M  CHG  1  84   1
M  ISO  4   1 100  68 101  80 101  83 100
M  END
> <chiral flag>
0

> <version>
0

> <s_m_source_file>
/data/baiqing/PycharmProjects/Reinvent-master-3.2/result/LINK_invent/BTK/process_docking_weight1_custom_product_contain_oxygen_bond_distance_aromatic_linkinvent_7_9_3/rearranged_h_0171.sdf

> <i_m_source_file_index>
2

> <r_mmod_Potential_Energy-OPLS-2005>
-276.3388671875

> <r_mmod_Stretch_Energy-OPLS-2005>
44.1581344604492

> <r_mmod_Bend_Energy-OPLS-2005>
110.80150604248

> <r_mmod_Torsional_Energy-OPLS-2005>
215.936599731445

> <r_mmod_Improper_Torsional_Energy-OPLS-2005>
3.66791391372681

> <r_mmod_Van_der_Waal_Energy-OPLS-2005>
158.942596435547

> <r_mmod_Electrostatic_Energy-OPLS-2005>
-360.737487792969

> <r_mmod_Solvation_Energy-OPLS-2005>
-465.093353271484

> <b_mmod_Minimization_Converged-OPLS-2005>
0

> <r_mmod_RMS_Derivative-OPLS-2005>
2.66430902481079

$$$$
2
                    3D
 Structure written by MMmdl.
153161  0  0  1  0            999 V2000
  -30.6945  -14.5570   20.5279 C   0  0  0  0  0  0
  -30.4153  -12.3470   19.4466 C   0  0  0  0  0  0
  -29.4957  -12.4963   18.2176 C   0  0  0  0  0  0
  -28.0190  -12.3488   18.6310 C   0  0  0  0  0  0
  -27.6515  -13.2190   19.8634 C   0  0  2  0  0  0
  -28.6947  -13.0738   20.9945 C   0  0  0  0  0  0
  -25.2545  -13.8187   20.5683 C   0  0  0  0  0  0
  -24.1818  -13.0445   20.9192 C   0  0  0  0  0  0
  -24.6392  -11.6916   20.8746 C   0  0  0  0  0  0
  -23.9069  -10.4294   21.0412 C   0  0  0  0  0  0
  -24.3620   -9.4208   21.9187 C   0  0  0  0  0  0
  -23.6294   -8.2244   22.0758 C   0  0  0  0  0  0
  -22.4277   -8.0284   21.3549 C   0  0  0  0  0  0
  -21.9913   -9.0257   20.4651 C   0  0  0  0  0  0
  -22.7243  -10.2135   20.3061 C   0  0  0  0  0  0
  -21.6853   -6.0738   22.5280 C   0  0  0  0  0  0
  -21.4013   -6.5643   23.8213 C   0  0  0  0  0  0
  -21.3657   -5.6796   24.9175 C   0  0  0  0  0  0
  -21.6044   -4.3058   24.7225 C   0  0  0  0  0  0
  -21.8819   -3.8150   23.4346 C   0  0  0  0  0  0
  -21.9192   -4.6966   22.3403 C   0  0  0  0  0  0
  -22.7837  -13.5231   21.1853 C   0  0  0  0  0  0
  -22.1660   -4.2151   21.0980 F   0  0  0  0  0  0
  -21.5628   -3.4541   25.7739 F   0  0  0  0  0  0
  -30.0148  -13.3766   20.4257 N   0  0  0  0  0  0
  -26.2979  -12.9376   20.3331 N   0  0  0  0  0  0
  -25.9322  -11.6526   20.5774 N   0  0  0  0  0  0
  -22.0484  -12.8222   22.0410 N   0  0  0  0  0  0
  -25.4250  -15.1908   20.4075 N   0  0  0  0  0  0
  -31.8477  -14.6562   20.1024 O   0  0  0  0  0  0
  -21.6641   -6.8881   21.4242 O   0  0  0  0  0  0
  -22.3520  -14.5537   20.6703 O   0  0  0  0  0  0
  -24.6200  -31.8627   23.2056 C   0  0  0  0  0  0
  -25.9074  -32.4795   23.8367 C   0  0  1  0  0  0
  -27.2295  -27.3741   20.1014 C   0  0  0  0  0  0
  -25.5909  -33.8595   24.2297 N   0  0  0  0  0  0
  -23.4103  -30.4861   21.5466 C   0  0  2  0  0  0
  -24.8555  -28.9450   20.1099 C   0  0  0  0  0  0
  -22.7437  -29.4636   22.4958 C   0  0  0  0  0  0
  -18.0278  -28.1378   22.8486 C   0  0  0  0  0  0
  -24.1485  -36.7301   23.2640 C   0  0  0  0  0  0
  -25.9445  -30.8084   21.3685 C   0  0  0  0  0  0
  -26.0175  -29.4386   20.7144 C   0  0  0  0  0  0
  -27.2024  -28.6584   20.7100 C   0  0  0  0  0  0
  -26.0461  -26.9119   19.4822 C   0  0  0  0  0  0
  -24.8677  -27.6834   19.4913 C   0  0  0  0  0  0
  -23.6208  -29.8187   20.1608 C   0  0  0  0  0  0
  -25.4109  -36.3096   24.0333 C   0  0  1  0  0  0
  -20.5873  -28.3672   23.1300 C   0  0  2  0  0  0
  -20.6764  -26.9400   22.5416 C   0  0  0  0  0  0
  -19.5742  -26.6380   21.5214 C   0  0  0  0  0  0
  -18.1921  -26.7924   22.1623 C   0  0  0  0  0  0
  -19.1529  -28.8841   23.2892 C   0  0  0  0  0  0
  -18.9455  -30.1445   23.8906 C   0  0  0  0  0  0
  -17.6457  -30.6584   24.0567 C   0  0  0  0  0  0
  -25.9041  -34.9462   23.5115 C   0  0  0  0  0  0
  -16.5349  -29.9082   23.6332 C   0  0  0  0  0  0
  -16.7267  -28.6502   23.0349 C   0  0  0  0  0  0
  -26.4483  -31.6593   25.0720 C   0  0  0  0  0  0
  -25.3738  -31.3714   26.1464 C   0  0  0  0  0  0
  -27.0324  -30.3031   24.6132 C   0  0  0  0  0  0
  -27.6053  -32.4319   25.7483 C   0  0  0  0  0  0
  -27.5579  -37.1803   24.8468 C   0  0  0  0  0  0
  -21.4158  -29.3035   22.3704 N   0  0  0  0  0  0
  -26.4293  -37.3784   23.9410 N   0  0  0  0  0  0
  -24.6767  -31.0678   22.0983 N   0  0  0  0  0  0
  -23.4188  -28.8179   23.3020 O   0  0  0  0  0  0
  -28.3884  -26.6063   20.1607 O   0  0  0  0  0  0
  -26.5609  -34.8923   22.4680 O   0  0  0  0  0  0
  -23.5378  -32.1407   23.7415 O   0  0  0  0  0  0
  -31.8079  -17.3081   21.3394 C   0  0  0  0  0  0
  -32.2743  -18.6254   21.4744 C   0  0  0  0  0  0
  -29.5602  -18.1566   20.9465 C   0  0  0  0  0  0
  -30.4497  -17.0330   21.0518 C   0  0  0  0  0  0
  -30.0259  -19.5093   21.0799 C   0  0  0  0  0  0
  -31.4022  -19.7190   21.3528 C   0  0  0  0  0  0
  -28.6165  -23.0554   20.8433 C   0  0  0  0  0  0
  -29.1138  -21.6857   20.2188 C   0  0  0  0  0  0
  -27.7965  -24.0539   19.9774 C   0  0  0  0  0  0
  -28.5101  -25.3471   19.4397 C   0  0  0  0  0  0
  -29.1395  -20.6519   21.1011 N   0  0  0  0  0  0
  -29.9889  -15.6571   20.9292 N   0  0  0  0  0  0
  -28.8449  -23.3252   22.0278 O   0  0  0  0  0  0
  -29.4318  -21.5787   19.0299 O   0  0  0  0  0  0
  -32.0588  -21.3001   21.6121 Cl  0  0  0  0  0  0
  -31.4614  -12.4304   19.1469 H   0  0  0  0  0  0
  -30.3131  -11.3524   19.8839 H   0  0  0  0  0  0
  -29.7480  -11.7492   17.4637 H   0  0  0  0  0  0
  -29.6539  -13.4698   17.7508 H   0  0  0  0  0  0
  -27.8449  -11.2959   18.8562 H   0  0  0  0  0  0
  -27.3663  -12.5903   17.7915 H   0  0  0  0  0  0
  -27.6730  -14.2552   19.5252 H   0  0  0  0  0  0
  -28.6875  -12.0600   21.3971 H   0  0  0  0  0  0
  -28.4546  -13.7300   21.8325 H   0  0  0  0  0  0
  -25.2765   -9.5681   22.4759 H   0  0  0  0  0  0
  -24.0004   -7.4635   22.7475 H   0  0  0  0  0  0
  -21.0846   -8.8777   19.8953 H   0  0  0  0  0  0
  -22.3706  -10.9674   19.6169 H   0  0  0  0  0  0
  -21.2006   -7.6151   23.9717 H   0  0  0  0  0  0
  -21.1477   -6.0526   25.9077 H   0  0  0  0  0  0
  -22.0600   -2.7613   23.2847 H   0  0  0  0  0  0
  -22.4100  -11.9879   22.4794 H   0  0  0  0  0  0
  -21.1104  -13.1245   22.2622 H   0  0  0  0  0  0
  -24.6551  -15.8436   20.5083 H   0  0  0  0  0  0
  -26.2705  -15.6284   20.0639 H   0  0  0  0  0  0
  -26.7140  -32.5480   23.1120 H   0  0  0  0  0  0
  -25.0075  -33.9756   25.0452 H   0  0  0  0  0  0
  -22.7026  -31.3055   21.4046 H   0  0  0  0  0  0
  -23.3750  -35.9634   23.3311 H   0  0  0  0  0  0
  -24.3579  -36.8912   22.2055 H   0  0  0  0  0  0
  -23.7240  -37.6506   23.6653 H   0  0  0  0  0  0
  -26.0673  -31.5723   20.5994 H   0  0  0  0  0  0
  -26.8287  -30.8592   21.9919 H   0  0  0  0  0  0
  -28.0960  -29.0318   21.1907 H   0  0  0  0  0  0
  -26.0055  -25.9462   19.0016 H   0  0  0  0  0  0
  -23.9736  -27.2979   19.0211 H   0  0  0  0  0  0
  -23.7351  -30.5947   19.4031 H   0  0  0  0  0  0
  -22.7425  -29.2439   19.8612 H   0  0  0  0  0  0
  -25.1287  -36.1957   25.0827 H   0  0  0  0  0  0
  -20.9962  -28.3239   24.1421 H   0  0  0  0  0  0
  -20.5666  -26.2276   23.3607 H   0  0  0  0  0  0
  -21.6631  -26.7436   22.1203 H   0  0  0  0  0  0
  -19.6909  -25.6296   21.1232 H   0  0  0  0  0  0
  -19.6687  -27.3199   20.6754 H   0  0  0  0  0  0
  -17.4190  -26.6679   21.4025 H   0  0  0  0  0  0
  -18.0321  -26.0062   22.9014 H   0  0  0  0  0  0
  -19.7936  -30.7256   24.2275 H   0  0  0  0  0  0
  -17.5016  -31.6268   24.5161 H   0  0  0  0  0  0
  -15.5351  -30.2987   23.7653 H   0  0  0  0  0  0
  -15.8666  -28.0828   22.7057 H   0  0  0  0  0  0
  -24.5911  -30.7060   25.7801 H   0  0  0  0  0  0
  -24.8933  -32.2876   26.4908 H   0  0  0  0  0  0
  -25.8083  -30.8886   27.0229 H   0  0  0  0  0  0
  -26.2881  -29.6778   24.1187 H   0  0  0  0  0  0
  -27.4088  -29.7282   25.4605 H   0  0  0  0  0  0
  -27.8718  -30.4341   23.9298 H   0  0  0  0  0  0
  -27.2676  -33.3623   26.2060 H   0  0  0  0  0  0
  -28.3863  -32.6870   25.0306 H   0  0  0  0  0  0
  -28.0722  -31.8444   26.5400 H   0  0  0  0  0  0
  -28.2600  -38.0095   24.7507 H   0  0  0  0  0  0
  -28.1069  -36.2626   24.6300 H   0  0  0  0  0  0
  -27.2296  -37.1460   25.8871 H   0  0  0  0  0  0
  -20.9321  -29.8764   21.6928 H   0  0  0  0  0  0
  -26.0181  -38.2865   24.1406 H   0  0  0  0  0  0
  -32.5266  -16.5145   21.4813 H   0  0  0  0  0  0
  -33.3166  -18.7981   21.7004 H   0  0  0  0  0  0
  -28.5084  -17.9832   20.7703 H   0  0  0  0  0  0
  -26.8966  -24.3262   20.5266 H   0  0  0  0  0  0
  -27.4489  -23.4848   19.1152 H   0  0  0  0  0  0
  -28.2013  -25.5164   18.4073 H   0  0  0  0  0  0
  -29.5783  -25.1403   19.3651 H   0  0  0  0  0  0
  -28.7768  -20.9052   22.0110 H   0  0  0  0  0  0
  -29.0097  -15.4933   21.1068 H   0  0  0  0  0  0
  1 25  1  0  0  0
  1 30  2  0  0  0
  1 82  1  0  0  0
  2  3  1  0  0  0
  2 25  1  0  0  0
  2 86  1  0  0  0
  2 87  1  0  0  0
  3  4  1  0  0  0
  3 88  1  0  0  0
  3 89  1  0  0  0
  4  5  1  0  0  0
  4 90  1  0  0  0
  4 91  1  0  0  0
  5  6  1  0  0  0
  5 26  1  0  0  0
  5 92  1  0  0  0
  6 25  1  0  0  0
  6 93  1  0  0  0
  6 94  1  0  0  0
  7  8  2  0  0  0
  7 26  1  0  0  0
  7 29  1  0  0  0
  8  9  1  0  0  0
  8 22  1  0  0  0
  9 10  1  0  0  0
  9 27  2  0  0  0
 10 11  2  0  0  0
 10 15  1  0  0  0
 11 12  1  0  0  0
 11 95  1  0  0  0
 12 13  2  0  0  0
 12 96  1  0  0  0
 13 14  1  0  0  0
 13 31  1  0  0  0
 14 15  2  0  0  0
 14 97  1  0  0  0
 15 98  1  0  0  0
 16 17  2  0  0  0
 16 21  1  0  0  0
 16 31  1  0  0  0
 17 18  1  0  0  0
 17 99  1  0  0  0
 18 19  2  0  0  0
 18100  1  0  0  0
 19 20  1  0  0  0
 19 24  1  0  0  0
 20 21  2  0  0  0
 20101  1  0  0  0
 21 23  1  0  0  0
 22 28  1  0  0  0
 22 32  2  0  0  0
 26 27  1  0  0  0
 28102  1  0  0  0
 28103  1  0  0  0
 29104  1  0  0  0
 29105  1  0  0  0
 33 34  1  0  0  0
 33 66  1  0  0  0
 33 70  2  0  0  0
 34 36  1  0  0  0
 34 59  1  0  0  0
 34106  1  0  0  0
 35 44  2  0  0  0
 35 45  1  0  0  0
 35 68  1  0  0  0
 36 56  1  0  0  0
 36107  1  0  0  0
 37 39  1  0  0  0
 37 47  1  0  0  0
 37 66  1  0  0  0
 37108  1  0  0  0
 38 43  2  0  0  0
 38 46  1  0  0  0
 38 47  1  0  0  0
 39 64  1  0  0  0
 39 67  2  0  0  0
 40 52  1  0  0  0
 40 53  2  0  0  0
 40 58  1  0  0  0
 41109  1  0  0  0
 41110  1  0  0  0
 41111  1  0  0  0
 41 48  1  0  0  0
 42 43  1  0  0  0
 42 66  1  0  0  0
 42112  1  0  0  0
 42113  1  0  0  0
 43 44  1  0  0  0
 44114  1  0  0  0
 45 46  2  0  0  0
 45115  1  0  0  0
 46116  1  0  0  0
 47117  1  0  0  0
 47118  1  0  0  0
 48 56  1  0  0  0
 48 65  1  0  0  0
 48119  1  0  0  0
 49 50  1  0  0  0
 49 53  1  0  0  0
 49 64  1  0  0  0
 49120  1  0  0  0
 50 51  1  0  0  0
 50121  1  0  0  0
 50122  1  0  0  0
 51 52  1  0  0  0
 51123  1  0  0  0
 51124  1  0  0  0
 52125  1  0  0  0
 52126  1  0  0  0
 53 54  1  0  0  0
 54 55  2  0  0  0
 54127  1  0  0  0
 55 57  1  0  0  0
 55128  1  0  0  0
 56 69  2  0  0  0
 57 58  2  0  0  0
 57129  1  0  0  0
 58130  1  0  0  0
 59 60  1  0  0  0
 59 61  1  0  0  0
 59 62  1  0  0  0
 60131  1  0  0  0
 60132  1  0  0  0
 60133  1  0  0  0
 61134  1  0  0  0
 61135  1  0  0  0
 61136  1  0  0  0
 62137  1  0  0  0
 62138  1  0  0  0
 62139  1  0  0  0
 63 65  1  0  0  0
 63140  1  0  0  0
 63141  1  0  0  0
 63142  1  0  0  0
 64143  1  0  0  0
 65144  1  0  0  0
 68 80  1  0  0  0
 71 72  2  0  0  0
 71 74  1  0  0  0
 71145  1  0  0  0
 72 76  1  0  0  0
 72146  1  0  0  0
 73 74  2  0  0  0
 73 75  1  0  0  0
 73147  1  0  0  0
 74 82  1  0  0  0
 75 76  2  0  0  0
 75 81  1  0  0  0
 76 85  1  0  0  0
 77 78  1  0  0  0
 77 79  1  0  0  0
 77 83  2  0  0  0
 78 81  1  0  0  0
 78 84  2  0  0  0
 79 80  1  0  0  0
 79148  1  0  0  0
 79149  1  0  0  0
 80150  1  0  0  0
 80151  1  0  0  0
 81152  1  0  0  0
 82153  1  0  0  0
M  ISO  4   1 100  68 101  80 101  82 100
M  END
> <chiral flag>
0

> <version>
0

> <s_m_source_file>
/data/baiqing/PycharmProjects/Reinvent-master-3.2/result/LINK_invent/BTK/process_docking_weight1_custom_product_contain_oxygen_bond_distance_aromatic_linkinvent_7_9_3/rearranged_h_0171.sdf

> <i_m_source_file_index>
3

> <r_mmod_Potential_Energy-OPLS-2005>
-7.57180881500244

> <r_mmod_Stretch_Energy-OPLS-2005>
59.9597511291504

> <r_mmod_Bend_Energy-OPLS-2005>
126.211212158203

> <r_mmod_Torsional_Energy-OPLS-2005>
251.10237121582

> <r_mmod_Improper_Torsional_Energy-OPLS-2005>
6.63728475570679

> <r_mmod_Van_der_Waal_Energy-OPLS-2005>
150.604629516602

> <r_mmod_Electrostatic_Energy-OPLS-2005>
-387.921081542969

> <r_mmod_Solvation_Energy-OPLS-2005>
-241.932159423828

> <b_mmod_Minimization_Converged-OPLS-2005>
0

> <r_mmod_RMS_Derivative-OPLS-2005>
0.620337009429932

$$$$
3
                    3D
 Structure written by MMmdl.
153161  0  0  1  0            999 V2000
  -30.6835  -14.4958   20.5201 C   0  0  0  0  0  0
  -30.4276  -12.3069   19.4326 C   0  0  0  0  0  0
  -29.4985  -12.4914   18.2139 C   0  0  0  0  0  0
  -28.0197  -12.3536   18.6270 C   0  0  0  0  0  0
  -27.6620  -13.2057   19.8742 C   0  0  2  0  0  0
  -28.7043  -13.0059   20.9985 C   0  0  0  0  0  0
  -25.2589  -13.8161   20.5676 C   0  0  0  0  0  0
  -24.1836  -13.0442   20.9177 C   0  0  0  0  0  0
  -24.6391  -11.6909   20.8744 C   0  0  0  0  0  0
  -23.9060  -10.4290   21.0410 C   0  0  0  0  0  0
  -24.3612   -9.4205   21.9191 C   0  0  0  0  0  0
  -23.6284   -8.2244   22.0762 C   0  0  0  0  0  0
  -22.4271   -8.0282   21.3541 C   0  0  0  0  0  0
  -21.9910   -9.0252   20.4644 C   0  0  0  0  0  0
  -22.7236  -10.2131   20.3056 C   0  0  0  0  0  0
  -21.6851   -6.0732   22.5276 C   0  0  0  0  0  0
  -21.4013   -6.5636   23.8213 C   0  0  0  0  0  0
  -21.3656   -5.6789   24.9174 C   0  0  0  0  0  0
  -21.6042   -4.3048   24.7225 C   0  0  0  0  0  0
  -21.8820   -3.8144   23.4343 C   0  0  0  0  0  0
  -21.9190   -4.6961   22.3395 C   0  0  0  0  0  0
  -22.7856  -13.5243   21.1820 C   0  0  0  0  0  0
  -22.1658   -4.2149   21.0970 F   0  0  0  0  0  0
  -21.5629   -3.4530   25.7738 F   0  0  0  0  0  0
  -30.0344  -13.3021   20.4423 N   0  0  0  0  0  0
  -26.3027  -12.9332   20.3363 N   0  0  0  0  0  0
  -25.9322  -11.6500   20.5787 N   0  0  0  0  0  0
  -22.0480  -12.8239   22.0368 N   0  0  0  0  0  0
  -25.4317  -15.1877   20.4075 N   0  0  0  0  0  0
  -31.8381  -14.6538   20.1139 O   0  0  0  0  0  0
  -21.6632   -6.8879   21.4238 O   0  0  0  0  0  0
  -22.3555  -14.5550   20.6662 O   0  0  0  0  0  0
  -24.6139  -31.8653   23.2104 C   0  0  0  0  0  0
  -25.9024  -32.4804   23.8402 C   0  0  1  0  0  0
  -27.2405  -27.4265   20.0868 C   0  0  0  0  0  0
  -25.5864  -33.8606   24.2313 N   0  0  0  0  0  0
  -23.4036  -30.4894   21.5513 C   0  0  2  0  0  0
  -24.8493  -28.9535   20.1137 C   0  0  0  0  0  0
  -22.7392  -29.4661   22.5010 C   0  0  0  0  0  0
  -18.0243  -28.1385   22.8524 C   0  0  0  0  0  0
  -24.1473  -36.7309   23.2655 C   0  0  0  0  0  0
  -25.9343  -30.8268   21.3675 C   0  0  0  0  0  0
  -26.0101  -29.4629   20.7082 C   0  0  0  0  0  0
  -27.2052  -28.7070   20.6900 C   0  0  0  0  0  0
  -26.0539  -26.9270   19.4998 C   0  0  0  0  0  0
  -24.8671  -27.6856   19.5077 C   0  0  0  0  0  0
  -23.6107  -29.8193   20.1672 C   0  0  0  0  0  0
  -25.4102  -36.3105   24.0349 C   0  0  1  0  0  0
  -20.5838  -28.3673   23.1338 C   0  0  2  0  0  0
  -20.6724  -26.9411   22.5434 C   0  0  0  0  0  0
  -19.5708  -26.6407   21.5219 C   0  0  0  0  0  0
  -18.1888  -26.7938   22.1641 C   0  0  0  0  0  0
  -19.1499  -28.8843   23.2928 C   0  0  0  0  0  0
  -18.9434  -30.1447   23.8943 C   0  0  0  0  0  0
  -17.6445  -30.6599   24.0585 C   0  0  0  0  0  0
  -25.9032  -34.9470   23.5140 C   0  0  0  0  0  0
  -16.5331  -29.9114   23.6338 C   0  0  0  0  0  0
  -16.7239  -28.6516   23.0383 C   0  0  0  0  0  0
  -26.4462  -31.6611   25.0750 C   0  0  0  0  0  0
  -25.3734  -31.3696   26.1499 C   0  0  0  0  0  0
  -27.0326  -30.3057   24.6166 C   0  0  0  0  0  0
  -27.6007  -32.4398   25.7502 C   0  0  0  0  0  0
  -27.5587  -37.1811   24.8478 C   0  0  0  0  0  0
  -21.4119  -29.3037   22.3744 N   0  0  0  0  0  0
  -26.4295  -37.3787   23.9425 N   0  0  0  0  0  0
  -24.6689  -31.0743   22.1014 N   0  0  0  0  0  0
  -23.4153  -28.8198   23.3062 O   0  0  0  0  0  0
  -28.4171  -26.7003   20.1381 O   0  0  0  0  0  0
  -26.5633  -34.8919   22.4727 O   0  0  0  0  0  0
  -23.5331  -32.1434   23.7484 O   0  0  0  0  0  0
  -30.0143  -19.3106   21.0881 C   0  0  0  0  0  0
  -30.4147  -19.6654   19.7785 C   0  0  0  0  0  0
  -30.1027  -16.9108   20.5226 C   0  0  0  0  0  0
  -29.8567  -17.9498   21.4523 C   0  0  0  0  0  0
  -30.6187  -18.6271   18.8388 C   0  0  0  0  0  0
  -30.4473  -17.2720   19.1953 C   0  0  0  0  0  0
  -28.5404  -25.4864   19.4949 C   0  0  0  0  0  0
  -29.1294  -24.4124   20.0698 C   0  0  0  0  0  0
  -29.3086  -23.1670   19.3114 C   0  0  0  0  0  0
  -30.7280  -21.1129   19.3645 C   0  0  0  0  0  0
  -29.9364  -15.5420   20.9251 N   0  0  0  0  0  0
  -29.9772  -22.2143   19.9914 N   0  0  0  0  0  0
  -28.9634  -23.0070   18.1385 O   0  0  0  0  0  0
  -29.5741  -24.4984   21.3342 O   0  0  0  0  0  0
  -29.4825  -17.6390   22.7168 F   0  0  0  0  0  0
  -30.9935  -18.9252   17.5710 F   0  0  0  0  0  0
  -30.5999  -16.3255   18.2354 F   0  0  0  0  0  0
  -31.4715  -12.4075   19.1288 H   0  0  0  0  0  0
  -30.3350  -11.2996   19.8414 H   0  0  0  0  0  0
  -29.7403  -11.7583   17.4432 H   0  0  0  0  0  0
  -29.6654  -13.4725   17.7664 H   0  0  0  0  0  0
  -27.8343  -11.2993   18.8355 H   0  0  0  0  0  0
  -27.3685  -12.6155   17.7923 H   0  0  0  0  0  0
  -27.7015  -14.2495   19.5628 H   0  0  0  0  0  0
  -28.6808  -11.9775   21.3619 H   0  0  0  0  0  0
  -28.4724  -13.6293   21.8635 H   0  0  0  0  0  0
  -25.2760   -9.5679   22.4762 H   0  0  0  0  0  0
  -23.9992   -7.4639   22.7487 H   0  0  0  0  0  0
  -21.0849   -8.8755   19.8950 H   0  0  0  0  0  0
  -22.3694  -10.9660   19.6155 H   0  0  0  0  0  0
  -21.2008   -7.6147   23.9717 H   0  0  0  0  0  0
  -21.1473   -6.0515   25.9074 H   0  0  0  0  0  0
  -22.0602   -2.7609   23.2837 H   0  0  0  0  0  0
  -22.4078  -11.9893   22.4758 H   0  0  0  0  0  0
  -21.1097  -13.1278   22.2553 H   0  0  0  0  0  0
  -24.6679  -15.8451   20.5211 H   0  0  0  0  0  0
  -26.2837  -15.6256   20.0811 H   0  0  0  0  0  0
  -26.7104  -32.5500   23.1174 H   0  0  0  0  0  0
  -24.9899  -33.9762   25.0380 H   0  0  0  0  0  0
  -22.6941  -31.3071   21.4103 H   0  0  0  0  0  0
  -23.3730  -35.9645   23.3327 H   0  0  0  0  0  0
  -24.3555  -36.8930   22.2070 H   0  0  0  0  0  0
  -23.7217  -37.6517   23.6662 H   0  0  0  0  0  0
  -26.0541  -31.5973   20.6048 H   0  0  0  0  0  0
  -26.8194  -30.8731   21.9909 H   0  0  0  0  0  0
  -28.1026  -29.0958   21.1508 H   0  0  0  0  0  0
  -26.0224  -25.9466   19.0466 H   0  0  0  0  0  0
  -23.9716  -27.2836   19.0533 H   0  0  0  0  0  0
  -23.7144  -30.5933   19.4066 H   0  0  0  0  0  0
  -22.7338  -29.2375   19.8755 H   0  0  0  0  0  0
  -25.1276  -36.1963   25.0843 H   0  0  0  0  0  0
  -20.9934  -28.3222   24.1455 H   0  0  0  0  0  0
  -20.5600  -26.2284   23.3614 H   0  0  0  0  0  0
  -21.6594  -26.7433   22.1239 H   0  0  0  0  0  0
  -19.6862  -25.6321   21.1241 H   0  0  0  0  0  0
  -19.6639  -27.3225   20.6749 H   0  0  0  0  0  0
  -17.4152  -26.6715   21.4038 H   0  0  0  0  0  0
  -18.0286  -26.0052   22.9006 H   0  0  0  0  0  0
  -19.7908  -30.7253   24.2347 H   0  0  0  0  0  0
  -17.4991  -31.6275   24.5200 H   0  0  0  0  0  0
  -15.5338  -30.3034   23.7630 H   0  0  0  0  0  0
  -15.8629  -28.0838   22.7118 H   0  0  0  0  0  0
  -24.5876  -30.7089   25.7821 H   0  0  0  0  0  0
  -24.8947  -32.2838   26.5022 H   0  0  0  0  0  0
  -25.8093  -30.8797   27.0216 H   0  0  0  0  0  0
  -26.2894  -29.6787   24.1235 H   0  0  0  0  0  0
  -27.4106  -29.7322   25.4642 H   0  0  0  0  0  0
  -27.8699  -30.4387   23.9317 H   0  0  0  0  0  0
  -27.2595  -33.3708   26.2048 H   0  0  0  0  0  0
  -28.3792  -32.6996   25.0315 H   0  0  0  0  0  0
  -28.0697  -31.8572   26.5443 H   0  0  0  0  0  0
  -28.2606  -38.0111   24.7528 H   0  0  0  0  0  0
  -28.1096  -36.2644   24.6298 H   0  0  0  0  0  0
  -27.2319  -37.1458   25.8889 H   0  0  0  0  0  0
  -20.9265  -29.8768   21.6984 H   0  0  0  0  0  0
  -26.0185  -38.2874   24.1403 H   0  0  0  0  0  0
  -29.8520  -20.0782   21.8314 H   0  0  0  0  0  0
  -28.1508  -25.4987   18.4846 H   0  0  0  0  0  0
  -30.6658  -21.1903   18.2779 H   0  0  0  0  0  0
  -31.7811  -21.2815   19.5920 H   0  0  0  0  0  0
  -29.0996  -15.3299   21.4461 H   0  0  0  0  0  0
  -30.2067  -22.4616   20.9457 H   0  0  0  0  0  0
  -29.3824  -25.3798   21.6272 H   0  0  0  0  0  0
  1 25  1  0  0  0
  1 30  2  0  0  0
  1 81  1  0  0  0
  2  3  1  0  0  0
  2 25  1  0  0  0
  2 88  1  0  0  0
  2 89  1  0  0  0
  3  4  1  0  0  0
  3 90  1  0  0  0
  3 91  1  0  0  0
  4  5  1  0  0  0
  4 92  1  0  0  0
  4 93  1  0  0  0
  5  6  1  0  0  0
  5 26  1  0  0  0
  5 94  1  0  0  0
  6 25  1  0  0  0
  6 95  1  0  0  0
  6 96  1  0  0  0
  7  8  2  0  0  0
  7 26  1  0  0  0
  7 29  1  0  0  0
  8  9  1  0  0  0
  8 22  1  0  0  0
  9 10  1  0  0  0
  9 27  2  0  0  0
 10 11  2  0  0  0
 10 15  1  0  0  0
 11 12  1  0  0  0
 11 97  1  0  0  0
 12 13  2  0  0  0
 12 98  1  0  0  0
 13 14  1  0  0  0
 13 31  1  0  0  0
 14 15  2  0  0  0
 14 99  1  0  0  0
 15100  1  0  0  0
 16 17  2  0  0  0
 16 21  1  0  0  0
 16 31  1  0  0  0
 17 18  1  0  0  0
 17101  1  0  0  0
 18 19  2  0  0  0
 18102  1  0  0  0
 19 20  1  0  0  0
 19 24  1  0  0  0
 20 21  2  0  0  0
 20103  1  0  0  0
 21 23  1  0  0  0
 22 28  1  0  0  0
 22 32  2  0  0  0
 26 27  1  0  0  0
 28104  1  0  0  0
 28105  1  0  0  0
 29106  1  0  0  0
 29107  1  0  0  0
 33 34  1  0  0  0
 33 66  1  0  0  0
 33 70  2  0  0  0
 34 36  1  0  0  0
 34 59  1  0  0  0
 34108  1  0  0  0
 35 44  2  0  0  0
 35 45  1  0  0  0
 35 68  1  0  0  0
 36 56  1  0  0  0
 36109  1  0  0  0
 37 39  1  0  0  0
 37 47  1  0  0  0
 37 66  1  0  0  0
 37110  1  0  0  0
 38 43  2  0  0  0
 38 46  1  0  0  0
 38 47  1  0  0  0
 39 64  1  0  0  0
 39 67  2  0  0  0
 40 52  1  0  0  0
 40 53  2  0  0  0
 40 58  1  0  0  0
 41111  1  0  0  0
 41112  1  0  0  0
 41113  1  0  0  0
 41 48  1  0  0  0
 42 43  1  0  0  0
 42 66  1  0  0  0
 42114  1  0  0  0
 42115  1  0  0  0
 43 44  1  0  0  0
 44116  1  0  0  0
 45 46  2  0  0  0
 45117  1  0  0  0
 46118  1  0  0  0
 47119  1  0  0  0
 47120  1  0  0  0
 48 56  1  0  0  0
 48 65  1  0  0  0
 48121  1  0  0  0
 49 50  1  0  0  0
 49 53  1  0  0  0
 49 64  1  0  0  0
 49122  1  0  0  0
 50 51  1  0  0  0
 50123  1  0  0  0
 50124  1  0  0  0
 51 52  1  0  0  0
 51125  1  0  0  0
 51126  1  0  0  0
 52127  1  0  0  0
 52128  1  0  0  0
 53 54  1  0  0  0
 54 55  2  0  0  0
 54129  1  0  0  0
 55 57  1  0  0  0
 55130  1  0  0  0
 56 69  2  0  0  0
 57 58  2  0  0  0
 57131  1  0  0  0
 58132  1  0  0  0
 59 60  1  0  0  0
 59 61  1  0  0  0
 59 62  1  0  0  0
 60133  1  0  0  0
 60134  1  0  0  0
 60135  1  0  0  0
 61136  1  0  0  0
 61137  1  0  0  0
 61138  1  0  0  0
 62139  1  0  0  0
 62140  1  0  0  0
 62141  1  0  0  0
 63 65  1  0  0  0
 63142  1  0  0  0
 63143  1  0  0  0
 63144  1  0  0  0
 64145  1  0  0  0
 65146  1  0  0  0
 68 77  1  0  0  0
 71 72  2  0  0  0
 71 74  1  0  0  0
 71147  1  0  0  0
 72 75  1  0  0  0
 72 80  1  0  0  0
 73 74  2  0  0  0
 73 76  1  0  0  0
 73 81  1  0  0  0
 74 85  1  0  0  0
 75 76  2  0  0  0
 75 86  1  0  0  0
 76 87  1  0  0  0
 77 78  2  0  0  0
 77148  1  0  0  0
 78 79  1  0  0  0
 78 84  1  0  0  0
 79 82  1  0  0  0
 79 83  2  0  0  0
 80 82  1  0  0  0
 80149  1  0  0  0
 80150  1  0  0  0
 81151  1  0  0  0
 82152  1  0  0  0
 84153  1  0  0  0
M  ISO  4   1 100  68 101  77 101  81 100
M  END
> <chiral flag>
0

> <version>
0

> <s_m_source_file>
/data/baiqing/PycharmProjects/Reinvent-master-3.2/result/LINK_invent/BTK/process_docking_weight1_custom_product_contain_oxygen_bond_distance_aromatic_linkinvent_7_9_3/rearranged_h_0171.sdf

> <i_m_source_file_index>
4

> <r_mmod_Potential_Energy-OPLS-2005>
-195.058288574219

> <r_mmod_Stretch_Energy-OPLS-2005>
39.566520690918

> <r_mmod_Bend_Energy-OPLS-2005>
100.098838806152

> <r_mmod_Torsional_Energy-OPLS-2005>
222.209106445312

> <r_mmod_Improper_Torsional_Energy-OPLS-2005>
5.84069728851318

> <r_mmod_Van_der_Waal_Energy-OPLS-2005>
164.644332885742

> <r_mmod_Electrostatic_Energy-OPLS-2005>
-522.955505371094

> <r_mmod_Solvation_Energy-OPLS-2005>
-221.190765380859

> <b_mmod_Minimization_Converged-OPLS-2005>
0

> <r_mmod_RMS_Derivative-OPLS-2005>
1.78130853176117

$$$$
4
                    3D
 Structure written by MMmdl.
153161  0  0  1  0            999 V2000
  -30.6058  -14.8299   20.4247 C   0  0  0  0  0  0
  -30.4312  -12.5063   19.4905 C   0  0  0  0  0  0
  -29.5145  -12.5088   18.2474 C   0  0  0  0  0  0
  -28.0437  -12.3212   18.6622 C   0  0  0  0  0  0
  -27.6355  -13.2429   19.8423 C   0  0  2  0  0  0
  -28.6797  -13.2330   20.9791 C   0  0  0  0  0  0
  -25.2481  -13.8216   20.5698 C   0  0  0  0  0  0
  -24.1791  -13.0449   20.9228 C   0  0  0  0  0  0
  -24.6401  -11.6932   20.8757 C   0  0  0  0  0  0
  -23.9082  -10.4300   21.0411 C   0  0  0  0  0  0
  -24.3628   -9.4208   21.9185 C   0  0  0  0  0  0
  -23.6295   -8.2245   22.0755 C   0  0  0  0  0  0
  -22.4274   -8.0285   21.3549 C   0  0  0  0  0  0
  -21.9918   -9.0265   20.4650 C   0  0  0  0  0  0
  -22.7253  -10.2140   20.3057 C   0  0  0  0  0  0
  -21.6857   -6.0736   22.5277 C   0  0  0  0  0  0
  -21.4018   -6.5640   23.8211 C   0  0  0  0  0  0
  -21.3660   -5.6794   24.9172 C   0  0  0  0  0  0
  -21.6038   -4.3056   24.7223 C   0  0  0  0  0  0
  -21.8821   -3.8147   23.4347 C   0  0  0  0  0  0
  -21.9192   -4.6963   22.3399 C   0  0  0  0  0  0
  -22.7803  -13.5215   21.1871 C   0  0  0  0  0  0
  -22.1660   -4.2150   21.0977 F   0  0  0  0  0  0
  -21.5628   -3.4537   25.7739 F   0  0  0  0  0  0
  -29.9712  -13.5990   20.3871 N   0  0  0  0  0  0
  -26.2912  -12.9447   20.3257 N   0  0  0  0  0  0
  -25.9330  -11.6582   20.5752 N   0  0  0  0  0  0
  -22.0447  -12.8212   22.0431 N   0  0  0  0  0  0
  -25.4149  -15.1939   20.4093 N   0  0  0  0  0  0
  -31.8099  -14.8534   20.1595 O   0  0  0  0  0  0
  -21.6640   -6.8878   21.4240 O   0  0  0  0  0  0
  -22.3488  -14.5513   20.6700 O   0  0  0  0  0  0
  -24.6369  -31.8507   23.1948 C   0  0  0  0  0  0
  -25.9172  -32.4730   23.8312 C   0  0  1  0  0  0
  -27.2187  -27.2153   20.1381 C   0  0  0  0  0  0
  -25.5947  -33.8531   24.2233 N   0  0  0  0  0  0
  -23.4375  -30.4726   21.5379 C   0  0  2  0  0  0
  -24.8899  -28.9169   20.1056 C   0  0  0  0  0  0
  -22.7548  -29.4569   22.4869 C   0  0  0  0  0  0
  -18.0304  -28.1389   22.8476 C   0  0  0  0  0  0
  -24.1489  -36.7267   23.2637 C   0  0  0  0  0  0
  -25.9884  -30.7498   21.3838 C   0  0  0  0  0  0
  -26.0645  -29.3686   20.7243 C   0  0  0  0  0  0
  -27.2346  -28.5296   20.7329 C   0  0  0  0  0  0
  -26.0278  -26.8514   19.4763 C   0  0  0  0  0  0
  -24.8805  -27.6682   19.4665 C   0  0  0  0  0  0
  -23.6615  -29.8079   20.1543 C   0  0  0  0  0  0
  -25.4115  -36.3051   24.0322 C   0  0  1  0  0  0
  -20.5917  -28.3708   23.1247 C   0  0  2  0  0  0
  -20.6787  -26.9412   22.5407 C   0  0  0  0  0  0
  -19.5760  -26.6380   21.5208 C   0  0  0  0  0  0
  -18.1943  -26.7927   22.1622 C   0  0  0  0  0  0
  -19.1563  -28.8868   23.2856 C   0  0  0  0  0  0
  -18.9478  -30.1466   23.8881 C   0  0  0  0  0  0
  -17.6472  -30.6584   24.0563 C   0  0  0  0  0  0
  -25.9059  -34.9422   23.5082 C   0  0  0  0  0  0
  -16.5364  -29.9077   23.6328 C   0  0  0  0  0  0
  -16.7288  -28.6497   23.0347 C   0  0  0  0  0  0
  -26.4517  -31.6566   25.0720 C   0  0  0  0  0  0
  -25.3724  -31.3743   26.1435 C   0  0  0  0  0  0
  -27.0363  -30.2967   24.6249 C   0  0  0  0  0  0
  -27.6065  -32.4313   25.7501 C   0  0  0  0  0  0
  -27.5576  -37.1790   24.8460 C   0  0  0  0  0  0
  -21.4246  -29.3042   22.3626 N   0  0  0  0  0  0
  -26.4285  -37.3758   23.9411 N   0  0  0  0  0  0
  -24.7064  -31.0435   22.0944 N   0  0  0  0  0  0
  -23.4222  -28.8105   23.2987 O   0  0  0  0  0  0
  -28.2248  -26.2074   20.2125 O   0  0  0  0  0  0
  -26.5636  -34.8908   22.4654 O   0  0  0  0  0  0
  -23.5507  -32.1341   23.7217 O   0  0  0  0  0  0
  -30.9426  -20.1991   19.5657 C   0  0  0  0  0  0
  -31.3840  -17.7794   19.5848 C   0  0  0  0  0  0
  -29.3513  -18.6580   20.5866 C   0  0  0  0  0  0
  -29.7098  -20.0548   20.2376 C   0  0  0  0  0  0
  -30.1839  -17.4752   20.2725 C   0  0  0  0  0  0
  -31.7538  -19.0951   19.2478 C   0  0  0  0  0  0
  -27.8410  -25.0099   20.9078 C   0  0  0  0  0  0
  -28.1102  -23.6227   20.9521 C   0  0  0  0  0  0
  -29.0313  -22.6748   20.2020 C   0  0  0  0  0  0
  -28.0432  -18.4040   21.3143 C   0  0  0  0  0  0
  -28.9341  -21.3122   20.5674 N   0  0  0  0  0  0
  -29.8605  -16.0190   20.5728 N   0  0  0  0  0  0
  -29.8000  -23.0580   19.3191 O   0  0  0  0  0  0
  -27.3814  -22.9802   21.8836 O   0  0  0  0  0  0
  -32.9257  -19.3037   18.6008 F   0  0  0  0  0  0
  -31.4713  -12.6268   19.1832 H   0  0  0  0  0  0
  -30.3852  -11.5454   20.0062 H   0  0  0  0  0  0
  -29.8129  -11.7192   17.5565 H   0  0  0  0  0  0
  -29.6289  -13.4497   17.7071 H   0  0  0  0  0  0
  -27.9180  -11.2769   18.9509 H   0  0  0  0  0  0
  -27.3850  -12.4828   17.8079 H   0  0  0  0  0  0
  -27.6129  -14.2528   19.4323 H   0  0  0  0  0  0
  -28.7358  -12.2502   21.4498 H   0  0  0  0  0  0
  -28.4010  -13.9364   21.7651 H   0  0  0  0  0  0
  -25.2773   -9.5683   22.4760 H   0  0  0  0  0  0
  -24.0004   -7.4639   22.7474 H   0  0  0  0  0  0
  -21.0848   -8.8786   19.8959 H   0  0  0  0  0  0
  -22.3711  -10.9678   19.6164 H   0  0  0  0  0  0
  -21.2014   -7.6150   23.9715 H   0  0  0  0  0  0
  -21.1477   -6.0524   25.9076 H   0  0  0  0  0  0
  -22.0598   -2.7610   23.2848 H   0  0  0  0  0  0
  -22.4063  -11.9891   22.4855 H   0  0  0  0  0  0
  -21.1056  -13.1229   22.2600 H   0  0  0  0  0  0
  -24.6409  -15.8417   20.5089 H   0  0  0  0  0  0
  -26.2473  -15.6293   20.0359 H   0  0  0  0  0  0
  -26.7234  -32.5369   23.1043 H   0  0  0  0  0  0
  -25.0087  -33.9650   25.0379 H   0  0  0  0  0  0
  -22.7348  -31.2954   21.3894 H   0  0  0  0  0  0
  -23.3746  -35.9606   23.3310 H   0  0  0  0  0  0
  -24.3576  -36.8881   22.2048 H   0  0  0  0  0  0
  -23.7251  -37.6475   23.6655 H   0  0  0  0  0  0
  -26.1355  -31.5107   20.6160 H   0  0  0  0  0  0
  -26.8621  -30.7993   22.0214 H   0  0  0  0  0  0
  -28.1261  -28.8607   21.2469 H   0  0  0  0  0  0
  -25.9703  -25.8837   18.9983 H   0  0  0  0  0  0
  -23.9845  -27.3177   18.9724 H   0  0  0  0  0  0
  -23.7908  -30.5852   19.4003 H   0  0  0  0  0  0
  -22.7772  -29.2471   19.8456 H   0  0  0  0  0  0
  -25.1296  -36.1888   25.0815 H   0  0  0  0  0  0
  -21.0014  -28.3300   24.1363 H   0  0  0  0  0  0
  -20.5676  -26.2317   23.3622 H   0  0  0  0  0  0
  -21.6657  -26.7416   22.1215 H   0  0  0  0  0  0
  -19.6922  -25.6291   21.1236 H   0  0  0  0  0  0
  -19.6691  -27.3190   20.6735 H   0  0  0  0  0  0
  -17.4210  -26.6676   21.4028 H   0  0  0  0  0  0
  -18.0341  -26.0077   22.9025 H   0  0  0  0  0  0
  -19.7955  -30.7292   24.2240 H   0  0  0  0  0  0
  -17.5021  -31.6259   24.5178 H   0  0  0  0  0  0
  -15.5363  -30.2970   23.7661 H   0  0  0  0  0  0
  -15.8693  -28.0808   22.7063 H   0  0  0  0  0  0
  -24.5905  -30.7076   25.7772 H   0  0  0  0  0  0
  -24.8905  -32.2922   26.4812 H   0  0  0  0  0  0
  -25.8032  -30.8958   27.0239 H   0  0  0  0  0  0
  -26.2960  -29.6707   24.1252 H   0  0  0  0  0  0
  -27.3989  -29.7241   25.4795 H   0  0  0  0  0  0
  -27.8864  -30.4207   23.9539 H   0  0  0  0  0  0
  -27.2665  -33.3614   26.2065 H   0  0  0  0  0  0
  -28.3888  -32.6873   25.0343 H   0  0  0  0  0  0
  -28.0720  -31.8448   26.5431 H   0  0  0  0  0  0
  -28.2590  -38.0090   24.7511 H   0  0  0  0  0  0
  -28.1076  -36.2623   24.6278 H   0  0  0  0  0  0
  -27.2300  -37.1436   25.8865 H   0  0  0  0  0  0
  -20.9440  -29.8753   21.6818 H   0  0  0  0  0  0
  -26.0155  -38.2829   24.1422 H   0  0  0  0  0  0
  -31.3121  -21.1727   19.2855 H   0  0  0  0  0  0
  -32.0705  -17.0087   19.2778 H   0  0  0  0  0  0
  -27.1011  -25.3282   21.6308 H   0  0  0  0  0  0
  -27.5131  -19.3246   21.5558 H   0  0  0  0  0  0
  -28.2274  -17.8718   22.2481 H   0  0  0  0  0  0
  -27.3839  -17.7943   20.6962 H   0  0  0  0  0  0
  -28.1912  -21.1912   21.2446 H   0  0  0  0  0  0
  -28.9059  -15.8499   20.8512 H   0  0  0  0  0  0
  -26.8436  -23.6240   22.3252 H   0  0  0  0  0  0
  1 25  1  0  0  0
  1 30  2  0  0  0
  1 82  1  0  0  0
  2  3  1  0  0  0
  2 25  1  0  0  0
  2 86  1  0  0  0
  2 87  1  0  0  0
  3  4  1  0  0  0
  3 88  1  0  0  0
  3 89  1  0  0  0
  4  5  1  0  0  0
  4 90  1  0  0  0
  4 91  1  0  0  0
  5  6  1  0  0  0
  5 26  1  0  0  0
  5 92  1  0  0  0
  6 25  1  0  0  0
  6 93  1  0  0  0
  6 94  1  0  0  0
  7  8  2  0  0  0
  7 26  1  0  0  0
  7 29  1  0  0  0
  8  9  1  0  0  0
  8 22  1  0  0  0
  9 10  1  0  0  0
  9 27  2  0  0  0
 10 11  2  0  0  0
 10 15  1  0  0  0
 11 12  1  0  0  0
 11 95  1  0  0  0
 12 13  2  0  0  0
 12 96  1  0  0  0
 13 14  1  0  0  0
 13 31  1  0  0  0
 14 15  2  0  0  0
 14 97  1  0  0  0
 15 98  1  0  0  0
 16 17  2  0  0  0
 16 21  1  0  0  0
 16 31  1  0  0  0
 17 18  1  0  0  0
 17 99  1  0  0  0
 18 19  2  0  0  0
 18100  1  0  0  0
 19 20  1  0  0  0
 19 24  1  0  0  0
 20 21  2  0  0  0
 20101  1  0  0  0
 21 23  1  0  0  0
 22 28  1  0  0  0
 22 32  2  0  0  0
 26 27  1  0  0  0
 28102  1  0  0  0
 28103  1  0  0  0
 29104  1  0  0  0
 29105  1  0  0  0
 33 34  1  0  0  0
 33 66  1  0  0  0
 33 70  2  0  0  0
 34 36  1  0  0  0
 34 59  1  0  0  0
 34106  1  0  0  0
 35 44  2  0  0  0
 35 45  1  0  0  0
 35 68  1  0  0  0
 36 56  1  0  0  0
 36107  1  0  0  0
 37 39  1  0  0  0
 37 47  1  0  0  0
 37 66  1  0  0  0
 37108  1  0  0  0
 38 43  2  0  0  0
 38 46  1  0  0  0
 38 47  1  0  0  0
 39 64  1  0  0  0
 39 67  2  0  0  0
 40 52  1  0  0  0
 40 53  2  0  0  0
 40 58  1  0  0  0
 41109  1  0  0  0
 41110  1  0  0  0
 41111  1  0  0  0
 41 48  1  0  0  0
 42 43  1  0  0  0
 42 66  1  0  0  0
 42112  1  0  0  0
 42113  1  0  0  0
 43 44  1  0  0  0
 44114  1  0  0  0
 45 46  2  0  0  0
 45115  1  0  0  0
 46116  1  0  0  0
 47117  1  0  0  0
 47118  1  0  0  0
 48 56  1  0  0  0
 48 65  1  0  0  0
 48119  1  0  0  0
 49 50  1  0  0  0
 49 53  1  0  0  0
 49 64  1  0  0  0
 49120  1  0  0  0
 50 51  1  0  0  0
 50121  1  0  0  0
 50122  1  0  0  0
 51 52  1  0  0  0
 51123  1  0  0  0
 51124  1  0  0  0
 52125  1  0  0  0
 52126  1  0  0  0
 53 54  1  0  0  0
 54 55  2  0  0  0
 54127  1  0  0  0
 55 57  1  0  0  0
 55128  1  0  0  0
 56 69  2  0  0  0
 57 58  2  0  0  0
 57129  1  0  0  0
 58130  1  0  0  0
 59 60  1  0  0  0
 59 61  1  0  0  0
 59 62  1  0  0  0
 60131  1  0  0  0
 60132  1  0  0  0
 60133  1  0  0  0
 61134  1  0  0  0
 61135  1  0  0  0
 61136  1  0  0  0
 62137  1  0  0  0
 62138  1  0  0  0
 62139  1  0  0  0
 63 65  1  0  0  0
 63140  1  0  0  0
 63141  1  0  0  0
 63142  1  0  0  0
 64143  1  0  0  0
 65144  1  0  0  0
 68 77  1  0  0  0
 71 74  2  0  0  0
 71 76  1  0  0  0
 71145  1  0  0  0
 72 75  1  0  0  0
 72 76  2  0  0  0
 72146  1  0  0  0
 73 74  1  0  0  0
 73 75  2  0  0  0
 73 80  1  0  0  0
 74 81  1  0  0  0
 75 82  1  0  0  0
 76 85  1  0  0  0
 77 78  2  0  0  0
 77147  1  0  0  0
 78 79  1  0  0  0
 78 84  1  0  0  0
 79 81  1  0  0  0
 79 83  2  0  0  0
 80148  1  0  0  0
 80149  1  0  0  0
 80150  1  0  0  0
 81151  1  0  0  0
 82152  1  0  0  0
 84153  1  0  0  0
M  ISO  4   1 100  68 101  77 101  82 100
M  END
> <chiral flag>
0

> <version>
0

> <s_m_source_file>
/data/baiqing/PycharmProjects/Reinvent-master-3.2/result/LINK_invent/BTK/process_docking_weight1_custom_product_contain_oxygen_bond_distance_aromatic_linkinvent_7_9_3/rearranged_h_0171.sdf

> <i_m_source_file_index>
5

> <r_mmod_Potential_Energy-OPLS-2005>
304.461273193359

> <r_mmod_Stretch_Energy-OPLS-2005>
174.425750732422

> <r_mmod_Bend_Energy-OPLS-2005>
245.065780639648

> <r_mmod_Torsional_Energy-OPLS-2005>
222.134338378906

> <r_mmod_Improper_Torsional_Energy-OPLS-2005>
4.53391456604004

> <r_mmod_Van_der_Waal_Energy-OPLS-2005>
149.802444458008

> <r_mmod_Electrostatic_Energy-OPLS-2005>
-391.411590576172

> <r_mmod_Solvation_Energy-OPLS-2005>
-233.05029296875

> <b_mmod_Minimization_Converged-OPLS-2005>
0

> <r_mmod_RMS_Derivative-OPLS-2005>
1.12150192260742

$$$$
5
                    3D
 Structure written by MMmdl.
150158  0  0  1  0            999 V2000
  -30.5953  -14.8523   20.6403 C   0  0  0  0  0  0
  -30.4506  -12.5717   19.5540 C   0  0  0  0  0  0
  -29.5473  -12.5628   18.2968 C   0  0  0  0  0  0
  -28.0694  -12.3519   18.6816 C   0  0  0  0  0  0
  -27.6365  -13.2580   19.8646 C   0  0  2  0  0  0
  -28.6516  -13.2424   21.0293 C   0  0  0  0  0  0
  -25.2372  -13.8222   20.5697 C   0  0  0  0  0  0
  -24.1713  -13.0463   20.9267 C   0  0  0  0  0  0
  -24.6348  -11.6941   20.8772 C   0  0  0  0  0  0
  -23.9056  -10.4312   21.0423 C   0  0  0  0  0  0
  -24.3606   -9.4230   21.9179 C   0  0  0  0  0  0
  -23.6328   -8.2242   22.0701 C   0  0  0  0  0  0
  -22.4313   -8.0256   21.3504 C   0  0  0  0  0  0
  -21.9935   -9.0240   20.4620 C   0  0  0  0  0  0
  -22.7220  -10.2149   20.3071 C   0  0  0  0  0  0
  -21.6852   -6.0735   22.5274 C   0  0  0  0  0  0
  -21.4024   -6.5648   23.8201 C   0  0  0  0  0  0
  -21.3672   -5.6794   24.9170 C   0  0  0  0  0  0
  -21.6043   -4.3055   24.7210 C   0  0  0  0  0  0
  -21.8800   -3.8159   23.4318 C   0  0  0  0  0  0
  -21.9185   -4.6978   22.3390 C   0  0  0  0  0  0
  -22.7721  -13.5176   21.1918 C   0  0  0  0  0  0
  -22.1634   -4.2165   21.0977 F   0  0  0  0  0  0
  -21.5654   -3.4539   25.7733 F   0  0  0  0  0  0
  -29.9638  -13.6257   20.4889 N   0  0  0  0  0  0
  -26.2857  -12.9496   20.3264 N   0  0  0  0  0  0
  -25.9300  -11.6609   20.5741 N   0  0  0  0  0  0
  -22.0380  -12.8192   22.0490 N   0  0  0  0  0  0
  -25.4068  -15.1961   20.4094 N   0  0  0  0  0  0
  -31.7707  -14.9395   20.2734 O   0  0  0  0  0  0
  -21.6641   -6.8886   21.4229 O   0  0  0  0  0  0
  -22.3391  -14.5473   20.6744 O   0  0  0  0  0  0
  -24.6366  -31.8477   23.1973 C   0  0  0  0  0  0
  -25.9166  -32.4723   23.8340 C   0  0  1  0  0  0
  -27.2323  -27.1759   20.1605 C   0  0  0  0  0  0
  -25.5919  -33.8533   24.2235 N   0  0  0  0  0  0
  -23.4415  -30.4679   21.5413 C   0  0  2  0  0  0
  -24.8986  -28.9113   20.1095 C   0  0  0  0  0  0
  -22.7580  -29.4524   22.4893 C   0  0  0  0  0  0
  -18.0291  -28.1379   22.8457 C   0  0  0  0  0  0
  -24.1484  -36.7241   23.2656 C   0  0  0  0  0  0
  -25.9973  -30.7334   21.3991 C   0  0  0  0  0  0
  -26.0722  -29.3534   20.7312 C   0  0  0  0  0  0
  -27.2369  -28.5018   20.7439 C   0  0  0  0  0  0
  -26.0245  -26.8249   19.5053 C   0  0  0  0  0  0
  -24.8865  -27.6586   19.4790 C   0  0  0  0  0  0
  -23.6725  -29.8072   20.1553 C   0  0  0  0  0  0
  -25.4122  -36.3045   24.0322 C   0  0  1  0  0  0
  -20.5900  -28.3677   23.1282 C   0  0  2  0  0  0
  -20.6772  -26.9385   22.5446 C   0  0  0  0  0  0
  -19.5746  -26.6360   21.5229 C   0  0  0  0  0  0
  -18.1918  -26.7915   22.1620 C   0  0  0  0  0  0
  -19.1544  -28.8853   23.2843 C   0  0  0  0  0  0
  -18.9450  -30.1454   23.8857 C   0  0  0  0  0  0
  -17.6454  -30.6580   24.0544 C   0  0  0  0  0  0
  -25.9065  -34.9419   23.5085 C   0  0  0  0  0  0
  -16.5343  -29.9070   23.6338 C   0  0  0  0  0  0
  -16.7270  -28.6484   23.0345 C   0  0  0  0  0  0
  -26.4508  -31.6584   25.0770 C   0  0  0  0  0  0
  -25.3732  -31.3728   26.1485 C   0  0  0  0  0  0
  -27.0395  -30.2996   24.6365 C   0  0  0  0  0  0
  -27.6062  -32.4361   25.7504 C   0  0  0  0  0  0
  -27.5563  -37.1805   24.8487 C   0  0  0  0  0  0
  -21.4267  -29.3000   22.3671 N   0  0  0  0  0  0
  -26.4302  -37.3746   23.9376 N   0  0  0  0  0  0
  -24.7090  -31.0381   22.1003 N   0  0  0  0  0  0
  -23.4250  -28.8083   23.3038 O   0  0  0  0  0  0
  -28.2818  -26.1991   20.2889 O   0  0  0  0  0  0
  -26.5651  -34.8915   22.4669 O   0  0  0  0  0  0
  -23.5504  -32.1325   23.7214 O   0  0  0  0  0  0
  -29.4540  -18.6343   20.8294 C   0  0  0  0  0  0
  -31.9207  -19.0664   22.0025 C   0  0  0  0  0  0
  -29.8867  -20.0389   20.9857 C   0  0  0  0  0  0
  -30.2407  -17.4416   21.2073 C   0  0  0  0  0  0
  -31.1906  -20.1821   21.5276 C   0  0  0  0  0  0
  -31.4587  -17.7375   21.8719 C   0  0  0  0  0  0
  -28.2411  -24.9415   19.5741 C   0  0  0  0  0  0
  -28.5604  -23.5663   19.7129 C   0  0  0  0  0  0
  -29.1816  -22.6546   20.7749 C   0  0  0  0  0  0
  -29.1328  -21.2655   20.5019 N   0  0  0  0  0  0
  -29.8521  -15.9903   21.0249 N   0  0  0  0  0  0
  -29.6772  -23.0806   21.8167 O   0  0  0  0  0  0
  -28.2662  -22.8589   18.6068 O   0  0  0  0  0  0
  -31.7985  -21.3903   21.5519 F   0  0  0  0  0  0
  -32.2040  -16.7414   22.4172 F   0  0  0  0  0  0
  -31.4847  -12.7465   19.2610 H   0  0  0  0  0  0
  -30.4513  -11.6056   20.0593 H   0  0  0  0  0  0
  -29.8820  -11.7968   17.6003 H   0  0  0  0  0  0
  -29.6555  -13.5211   17.7815 H   0  0  0  0  0  0
  -27.9416  -11.3050   18.9565 H   0  0  0  0  0  0
  -27.4248  -12.5224   17.8161 H   0  0  0  0  0  0
  -27.6229  -14.2733   19.4658 H   0  0  0  0  0  0
  -28.6847  -12.2727   21.5298 H   0  0  0  0  0  0
  -28.3304  -13.9531   21.7940 H   0  0  0  0  0  0
  -25.2725   -9.5762   22.4734 H   0  0  0  0  0  0
  -24.0075   -7.4635   22.7389 H   0  0  0  0  0  0
  -21.0853   -8.8713   19.8927 H   0  0  0  0  0  0
  -22.3599  -10.9680   19.6187 H   0  0  0  0  0  0
  -21.2002   -7.6159   23.9732 H   0  0  0  0  0  0
  -21.1524   -6.0514   25.9069 H   0  0  0  0  0  0
  -22.0579   -2.7627   23.2798 H   0  0  0  0  0  0
  -22.4012  -11.9916   22.5019 H   0  0  0  0  0  0
  -21.0952  -13.1165   22.2629 H   0  0  0  0  0  0
  -24.6386  -15.8485   20.5077 H   0  0  0  0  0  0
  -26.2498  -15.6273   20.0520 H   0  0  0  0  0  0
  -26.7228  -32.5349   23.1062 H   0  0  0  0  0  0
  -25.0000  -33.9632   25.0335 H   0  0  0  0  0  0
  -22.7374  -31.2890   21.3948 H   0  0  0  0  0  0
  -23.3744  -35.9590   23.3410 H   0  0  0  0  0  0
  -24.3548  -36.8778   22.2057 H   0  0  0  0  0  0
  -23.7290  -37.6485   23.6638 H   0  0  0  0  0  0
  -26.1685  -31.5028   20.6429 H   0  0  0  0  0  0
  -26.8572  -30.7650   22.0570 H   0  0  0  0  0  0
  -28.1320  -28.8290   21.2537 H   0  0  0  0  0  0
  -25.9023  -25.8612   19.0400 H   0  0  0  0  0  0
  -23.9881  -27.3116   18.9870 H   0  0  0  0  0  0
  -23.8147  -30.5863   19.4047 H   0  0  0  0  0  0
  -22.7858  -29.2545   19.8384 H   0  0  0  0  0  0
  -25.1335  -36.1879   25.0825 H   0  0  0  0  0  0
  -20.9930  -28.3234   24.1422 H   0  0  0  0  0  0
  -20.5642  -26.2270   23.3643 H   0  0  0  0  0  0
  -21.6647  -26.7398   22.1265 H   0  0  0  0  0  0
  -19.6901  -25.6254   21.1284 H   0  0  0  0  0  0
  -19.6694  -27.3159   20.6738 H   0  0  0  0  0  0
  -17.4205  -26.6641   21.4015 H   0  0  0  0  0  0
  -18.0292  -26.0074   22.9019 H   0  0  0  0  0  0
  -19.7933  -30.7269   24.2222 H   0  0  0  0  0  0
  -17.5010  -31.6262   24.5143 H   0  0  0  0  0  0
  -15.5338  -30.2951   23.7704 H   0  0  0  0  0  0
  -15.8673  -28.0821   22.7070 H   0  0  0  0  0  0
  -24.5806  -30.7215   25.7761 H   0  0  0  0  0  0
  -24.9038  -32.2901   26.5064 H   0  0  0  0  0  0
  -25.8009  -30.8728   27.0183 H   0  0  0  0  0  0
  -26.3011  -29.6702   24.1378 H   0  0  0  0  0  0
  -27.4005  -29.7316   25.4948 H   0  0  0  0  0  0
  -27.8937  -30.4249   23.9704 H   0  0  0  0  0  0
  -27.2647  -33.3615   26.2157 H   0  0  0  0  0  0
  -28.3788  -32.7018   25.0274 H   0  0  0  0  0  0
  -28.0853  -31.8484   26.5339 H   0  0  0  0  0  0
  -28.2699  -37.9990   24.7417 H   0  0  0  0  0  0
  -28.0935  -36.2524   24.6469 H   0  0  0  0  0  0
  -27.2254  -37.1675   25.8892 H   0  0  0  0  0  0
  -20.9488  -29.8689   21.6848 H   0  0  0  0  0  0
  -26.0169  -38.2835   24.1317 H   0  0  0  0  0  0
  -28.4906  -18.4608   20.3730 H   0  0  0  0  0  0
  -32.8824  -19.2330   22.4623 H   0  0  0  0  0  0
  -27.8487  -25.1884   18.5967 H   0  0  0  0  0  0
  -28.4805  -21.0851   19.7502 H   0  0  0  0  0  0
  -28.8836  -15.7903   21.2322 H   0  0  0  0  0  0
  -28.0075  -23.4702   17.9316 H   0  0  0  0  0  0
  1 25  1  0  0  0
  1 30  2  0  0  0
  1 81  1  0  0  0
  2  3  1  0  0  0
  2 25  1  0  0  0
  2 86  1  0  0  0
  2 87  1  0  0  0
  3  4  1  0  0  0
  3 88  1  0  0  0
  3 89  1  0  0  0
  4  5  1  0  0  0
  4 90  1  0  0  0
  4 91  1  0  0  0
  5  6  1  0  0  0
  5 26  1  0  0  0
  5 92  1  0  0  0
  6 25  1  0  0  0
  6 93  1  0  0  0
  6 94  1  0  0  0
  7  8  2  0  0  0
  7 26  1  0  0  0
  7 29  1  0  0  0
  8  9  1  0  0  0
  8 22  1  0  0  0
  9 10  1  0  0  0
  9 27  2  0  0  0
 10 11  2  0  0  0
 10 15  1  0  0  0
 11 12  1  0  0  0
 11 95  1  0  0  0
 12 13  2  0  0  0
 12 96  1  0  0  0
 13 14  1  0  0  0
 13 31  1  0  0  0
 14 15  2  0  0  0
 14 97  1  0  0  0
 15 98  1  0  0  0
 16 17  2  0  0  0
 16 21  1  0  0  0
 16 31  1  0  0  0
 17 18  1  0  0  0
 17 99  1  0  0  0
 18 19  2  0  0  0
 18100  1  0  0  0
 19 20  1  0  0  0
 19 24  1  0  0  0
 20 21  2  0  0  0
 20101  1  0  0  0
 21 23  1  0  0  0
 22 28  1  0  0  0
 22 32  2  0  0  0
 26 27  1  0  0  0
 28102  1  0  0  0
 28103  1  0  0  0
 29104  1  0  0  0
 29105  1  0  0  0
 33 34  1  0  0  0
 33 66  1  0  0  0
 33 70  2  0  0  0
 34 36  1  0  0  0
 34 59  1  0  0  0
 34106  1  0  0  0
 35 44  2  0  0  0
 35 45  1  0  0  0
 35 68  1  0  0  0
 36 56  1  0  0  0
 36107  1  0  0  0
 37 39  1  0  0  0
 37 47  1  0  0  0
 37 66  1  0  0  0
 37108  1  0  0  0
 38 43  2  0  0  0
 38 46  1  0  0  0
 38 47  1  0  0  0
 39 64  1  0  0  0
 39 67  2  0  0  0
 40 52  1  0  0  0
 40 53  2  0  0  0
 40 58  1  0  0  0
 41109  1  0  0  0
 41110  1  0  0  0
 41111  1  0  0  0
 41 48  1  0  0  0
 42 43  1  0  0  0
 42 66  1  0  0  0
 42112  1  0  0  0
 42113  1  0  0  0
 43 44  1  0  0  0
 44114  1  0  0  0
 45 46  2  0  0  0
 45115  1  0  0  0
 46116  1  0  0  0
 47117  1  0  0  0
 47118  1  0  0  0
 48 56  1  0  0  0
 48 65  1  0  0  0
 48119  1  0  0  0
 49 50  1  0  0  0
 49 53  1  0  0  0
 49 64  1  0  0  0
 49120  1  0  0  0
 50 51  1  0  0  0
 50121  1  0  0  0
 50122  1  0  0  0
 51 52  1  0  0  0
 51123  1  0  0  0
 51124  1  0  0  0
 52125  1  0  0  0
 52126  1  0  0  0
 53 54  1  0  0  0
 54 55  2  0  0  0
 54127  1  0  0  0
 55 57  1  0  0  0
 55128  1  0  0  0
 56 69  2  0  0  0
 57 58  2  0  0  0
 57129  1  0  0  0
 58130  1  0  0  0
 59 60  1  0  0  0
 59 61  1  0  0  0
 59 62  1  0  0  0
 60131  1  0  0  0
 60132  1  0  0  0
 60133  1  0  0  0
 61134  1  0  0  0
 61135  1  0  0  0
 61136  1  0  0  0
 62137  1  0  0  0
 62138  1  0  0  0
 62139  1  0  0  0
 63 65  1  0  0  0
 63140  1  0  0  0
 63141  1  0  0  0
 63142  1  0  0  0
 64143  1  0  0  0
 65144  1  0  0  0
 68 77  1  0  0  0
 71 73  2  0  0  0
 71 74  1  0  0  0
 71145  1  0  0  0
 72 75  2  0  0  0
 72 76  1  0  0  0
 72146  1  0  0  0
 73 75  1  0  0  0
 73 80  1  0  0  0
 74 76  2  0  0  0
 74 81  1  0  0  0
 75 84  1  0  0  0
 76 85  1  0  0  0
 77 78  2  0  0  0
 77147  1  0  0  0
 78 79  1  0  0  0
 78 83  1  0  0  0
 79 80  1  0  0  0
 79 82  2  0  0  0
 80148  1  0  0  0
 81149  1  0  0  0
 83150  1  0  0  0
M  ISO  4   1 100  68 101  77 101  81 100
M  END
> <chiral flag>
0

> <version>
0

> <s_m_source_file>
/data/baiqing/PycharmProjects/Reinvent-master-3.2/result/LINK_invent/BTK/process_docking_weight1_custom_product_contain_oxygen_bond_distance_aromatic_linkinvent_7_9_3/rearranged_h_0171.sdf

> <i_m_source_file_index>
6

> <r_mmod_Potential_Energy-OPLS-2005>
293.239227294922

> <r_mmod_Stretch_Energy-OPLS-2005>
188.834594726562

> <r_mmod_Bend_Energy-OPLS-2005>
258.822845458984

> <r_mmod_Torsional_Energy-OPLS-2005>
234.733200073242

> <r_mmod_Improper_Torsional_Energy-OPLS-2005>
5.06286907196045

> <r_mmod_Van_der_Waal_Energy-OPLS-2005>
150.463256835938

> <r_mmod_Electrostatic_Energy-OPLS-2005>
-446.389068603516

> <r_mmod_Solvation_Energy-OPLS-2005>
-254.308471679688

> <b_mmod_Minimization_Converged-OPLS-2005>
0

> <r_mmod_RMS_Derivative-OPLS-2005>
8.71402740478516

$$$$
6
                    3D
 Structure written by MMmdl.
159167  0  0  1  0            999 V2000
  -30.7493  -14.5182   20.5230 C   0  0  0  0  0  0
  -30.4148  -12.3183   19.4532 C   0  0  0  0  0  0
  -29.5034  -12.4798   18.2218 C   0  0  0  0  0  0
  -28.0289  -12.3328   18.6400 C   0  0  0  0  0  0
  -27.6595  -13.2177   19.8610 C   0  0  2  0  0  0
  -28.7064  -13.0906   20.9953 C   0  0  0  0  0  0
  -25.2582  -13.8176   20.5658 C   0  0  0  0  0  0
  -24.1835  -13.0444   20.9141 C   0  0  0  0  0  0
  -24.6402  -11.6915   20.8715 C   0  0  0  0  0  0
  -23.9060  -10.4292   21.0390 C   0  0  0  0  0  0
  -24.3608   -9.4229   21.9187 C   0  0  0  0  0  0
  -23.6279   -8.2269   22.0777 C   0  0  0  0  0  0
  -22.4274   -8.0279   21.3546 C   0  0  0  0  0  0
  -21.9898   -9.0246   20.4652 C   0  0  0  0  0  0
  -22.7224  -10.2127   20.3050 C   0  0  0  0  0  0
  -21.6855   -6.0719   22.5263 C   0  0  0  0  0  0
  -21.4024   -6.5631   23.8190 C   0  0  0  0  0  0
  -21.3661   -5.6795   24.9154 C   0  0  0  0  0  0
  -21.6058   -4.3055   24.7220 C   0  0  0  0  0  0
  -21.8808   -3.8140   23.4334 C   0  0  0  0  0  0
  -21.9192   -4.6950   22.3390 C   0  0  0  0  0  0
  -22.7859  -13.5237   21.1789 C   0  0  0  0  0  0
  -22.1651   -4.2140   21.0967 F   0  0  0  0  0  0
  -21.5637   -3.4538   25.7730 F   0  0  0  0  0  0
  -30.0350  -13.3600   20.4247 N   0  0  0  0  0  0
  -26.3044  -12.9368   20.3335 N   0  0  0  0  0  0
  -25.9352  -11.6526   20.5797 N   0  0  0  0  0  0
  -22.0486  -12.8240   22.0351 N   0  0  0  0  0  0
  -25.4250  -15.1897   20.4042 N   0  0  0  0  0  0
  -31.8871  -14.6070   20.0684 O   0  0  0  0  0  0
  -21.6643   -6.8872   21.4228 O   0  0  0  0  0  0
  -22.3542  -14.5528   20.6628 O   0  0  0  0  0  0
  -24.6120  -31.8619   23.2081 C   0  0  0  0  0  0
  -25.8997  -32.4789   23.8362 C   0  0  1  0  0  0
  -27.2166  -27.4152   20.1333 C   0  0  0  0  0  0
  -25.5814  -33.8609   24.2244 N   0  0  0  0  0  0
  -23.4014  -30.4850   21.5463 C   0  0  2  0  0  0
  -24.8496  -28.9514   20.1053 C   0  0  0  0  0  0
  -22.7377  -29.4631   22.4991 C   0  0  0  0  0  0
  -18.0264  -28.1311   22.8554 C   0  0  0  0  0  0
  -24.1504  -36.7368   23.2665 C   0  0  0  0  0  0
  -25.9311  -30.8248   21.3619 C   0  0  0  0  0  0
  -26.0049  -29.4624   20.7075 C   0  0  0  0  0  0
  -27.1958  -28.6995   20.7158 C   0  0  0  0  0  0
  -26.0588  -26.9307   19.4946 C   0  0  0  0  0  0
  -24.8697  -27.6885   19.4902 C   0  0  0  0  0  0
  -23.6060  -29.8115   20.1623 C   0  0  0  0  0  0
  -25.4105  -36.3135   24.0363 C   0  0  1  0  0  0
  -20.5887  -28.3560   23.1385 C   0  0  2  0  0  0
  -20.6765  -26.9287   22.5470 C   0  0  0  0  0  0
  -19.5725  -26.6349   21.5284 C   0  0  0  0  0  0
  -18.1896  -26.7872   22.1686 C   0  0  0  0  0  0
  -19.1541  -28.8746   23.2963 C   0  0  0  0  0  0
  -18.9458  -30.1378   23.8895 C   0  0  0  0  0  0
  -17.6470  -30.6516   24.0579 C   0  0  0  0  0  0
  -25.9044  -34.9486   23.5146 C   0  0  0  0  0  0
  -16.5342  -29.9026   23.6361 C   0  0  0  0  0  0
  -16.7268  -28.6465   23.0356 C   0  0  0  0  0  0
  -26.4423  -31.6602   25.0721 C   0  0  0  0  0  0
  -25.3708  -31.3710   26.1502 C   0  0  0  0  0  0
  -27.0247  -30.3039   24.6110 C   0  0  0  0  0  0
  -27.5980  -32.4357   25.7457 C   0  0  0  0  0  0
  -27.5571  -37.1818   24.8449 C   0  0  0  0  0  0
  -21.4106  -29.2963   22.3761 N   0  0  0  0  0  0
  -26.4294  -37.3817   23.9417 N   0  0  0  0  0  0
  -24.6674  -31.0710   22.0991 N   0  0  0  0  0  0
  -23.4165  -28.8179   23.3026 O   0  0  0  0  0  0
  -28.3376  -26.6146   20.2066 O   0  0  0  0  0  0
  -26.5698  -34.8935   22.4746 O   0  0  0  0  0  0
  -23.5319  -32.1374   23.7475 O   0  0  0  0  0  0
  -31.3685  -19.6894   21.3468 C   0  0  0  0  0  0
  -31.9333  -17.3272   21.1604 C   0  0  0  0  0  0
  -29.9933  -19.3977   21.2169 C   0  0  0  0  0  0
  -30.5623  -16.9776   21.0708 C   0  0  0  0  0  0
  -32.3298  -18.6694   21.2942 C   0  0  0  0  0  0
  -29.6012  -18.0280   21.0971 C   0  0  0  0  0  0
  -28.9852  -20.5311   21.3326 C   0  0  0  0  0  0
  -28.9260  -22.9406   21.3668 C   0  0  0  0  0  0
  -28.5758  -26.0817   22.5656 C   0  0  0  0  0  0
  -29.9503  -21.7610   19.4418 C   0  0  0  0  0  0
  -29.1162  -24.3165   20.6498 C   0  0  0  0  0  0
  -28.2263  -25.5188   21.1497 C   0  0  2  0  0  0
  -30.0942  -15.6108   20.9876 N   0  0  0  0  0  0
  -29.2733  -21.7502   20.7600 N   0  0  0  0  0  0
  -27.9554  -20.3151   21.9833 O   0  0  0  0  0  0
  -28.5011  -22.9929   22.5252 O   0  0  0  0  0  0
  -33.6451  -18.9822   21.3887 F   0  0  0  0  0  0
  -28.2919  -17.6900   20.9908 F   0  0  0  0  0  0
  -31.4657  -12.3688   19.1650 H   0  0  0  0  0  0
  -30.2795  -11.3301   19.8996 H   0  0  0  0  0  0
  -29.7510  -11.7303   17.4692 H   0  0  0  0  0  0
  -29.6665  -13.4531   17.7538 H   0  0  0  0  0  0
  -27.8671  -11.2826   18.8897 H   0  0  0  0  0  0
  -27.3690  -12.5475   17.7980 H   0  0  0  0  0  0
  -27.6766  -14.2483   19.5071 H   0  0  0  0  0  0
  -28.6921  -12.0905   21.4329 H   0  0  0  0  0  0
  -28.4723  -13.7748   21.8129 H   0  0  0  0  0  0
  -25.2742   -9.5713   22.4765 H   0  0  0  0  0  0
  -23.9969   -7.4679   22.7529 H   0  0  0  0  0  0
  -21.0825   -8.8749   19.8978 H   0  0  0  0  0  0
  -22.3658  -10.9655   19.6156 H   0  0  0  0  0  0
  -21.2016   -7.6139   23.9679 H   0  0  0  0  0  0
  -21.1504   -6.0531   25.9053 H   0  0  0  0  0  0
  -22.0591   -2.7601   23.2831 H   0  0  0  0  0  0
  -22.4079  -11.9897   22.4755 H   0  0  0  0  0  0
  -21.1112  -13.1299   22.2542 H   0  0  0  0  0  0
  -24.6516  -15.8388   20.4996 H   0  0  0  0  0  0
  -26.2812  -15.6398   20.1043 H   0  0  0  0  0  0
  -26.7051  -32.5485   23.1102 H   0  0  0  0  0  0
  -24.9758  -33.9768   25.0243 H   0  0  0  0  0  0
  -22.6939  -31.3038   21.3971 H   0  0  0  0  0  0
  -23.3771  -35.9694   23.3317 H   0  0  0  0  0  0
  -24.3610  -36.9041   22.2092 H   0  0  0  0  0  0
  -23.7275  -37.6578   23.6687 H   0  0  0  0  0  0
  -26.0591  -31.5909   20.5963 H   0  0  0  0  0  0
  -26.8132  -30.8657   21.9862 H   0  0  0  0  0  0
  -28.0795  -29.0724   21.2085 H   0  0  0  0  0  0
  -26.0726  -25.9611   19.0183 H   0  0  0  0  0  0
  -23.9835  -27.2948   19.0155 H   0  0  0  0  0  0
  -23.6898  -30.5762   19.3889 H   0  0  0  0  0  0
  -22.7340  -29.2147   19.8863 H   0  0  0  0  0  0
  -25.1289  -36.2018   25.0864 H   0  0  0  0  0  0
  -20.9969  -28.3070   24.1509 H   0  0  0  0  0  0
  -20.5766  -26.2069   23.3614 H   0  0  0  0  0  0
  -21.6596  -26.7375   22.1164 H   0  0  0  0  0  0
  -19.6900  -25.6317   21.1197 H   0  0  0  0  0  0
  -19.6683  -27.3243   20.6904 H   0  0  0  0  0  0
  -17.4202  -26.6712   21.4039 H   0  0  0  0  0  0
  -18.0179  -25.9948   22.8993 H   0  0  0  0  0  0
  -19.7928  -30.7247   24.2162 H   0  0  0  0  0  0
  -17.5011  -31.6213   24.5147 H   0  0  0  0  0  0
  -15.5325  -30.2940   23.7661 H   0  0  0  0  0  0
  -15.8687  -28.0831   22.6990 H   0  0  0  0  0  0
  -24.5832  -30.7105   25.7871 H   0  0  0  0  0  0
  -24.8949  -32.2871   26.5004 H   0  0  0  0  0  0
  -25.8075  -30.8844   27.0227 H   0  0  0  0  0  0
  -26.2766  -29.6792   24.1236 H   0  0  0  0  0  0
  -27.4101  -29.7296   25.4548 H   0  0  0  0  0  0
  -27.8552  -30.4391   23.9185 H   0  0  0  0  0  0
  -27.2574  -33.3657   26.1985 H   0  0  0  0  0  0
  -28.3738  -32.6941   25.0246 H   0  0  0  0  0  0
  -28.0662  -31.8540   26.5396 H   0  0  0  0  0  0
  -28.2599  -38.0111   24.7503 H   0  0  0  0  0  0
  -28.1050  -36.2655   24.6221 H   0  0  0  0  0  0
  -27.2287  -37.1440   25.8852 H   0  0  0  0  0  0
  -20.9152  -29.8752   21.7115 H   0  0  0  0  0  0
  -26.0215  -38.2914   24.1351 H   0  0  0  0  0  0
  -31.7003  -20.7052   21.4939 H   0  0  0  0  0  0
  -32.7166  -16.5867   21.1491 H   0  0  0  0  0  0
  -28.2638  -25.4234   23.3788 H   0  0  0  0  0  0
  -28.0734  -27.0283   22.7783 H   0  0  0  0  0  0
  -29.6458  -26.2635   22.6804 H   0  0  0  0  0  0
  -30.1031  -20.7649   19.0214 H   0  0  0  0  0  0
  -30.9310  -22.2398   19.4937 H   0  0  0  0  0  0
  -29.3531  -22.2690   18.6818 H   0  0  0  0  0  0
  -28.9330  -24.1948   19.5825 H   0  0  0  0  0  0
  -30.1666  -24.5911   20.7424 H   0  0  0  0  0  0
  -27.1895  -25.1617   21.1769 H   0  0  0  0  0  0
  -29.1200  -15.4758   21.2081 H   0  0  0  0  0  0
  1 25  1  0  0  0
  1 30  2  0  0  0
  1 83  1  0  0  0
  2  3  1  0  0  0
  2 25  1  0  0  0
  2 89  1  0  0  0
  2 90  1  0  0  0
  3  4  1  0  0  0
  3 91  1  0  0  0
  3 92  1  0  0  0
  4  5  1  0  0  0
  4 93  1  0  0  0
  4 94  1  0  0  0
  5  6  1  0  0  0
  5 26  1  0  0  0
  5 95  1  0  0  0
  6 25  1  0  0  0
  6 96  1  0  0  0
  6 97  1  0  0  0
  7  8  2  0  0  0
  7 26  1  0  0  0
  7 29  1  0  0  0
  8  9  1  0  0  0
  8 22  1  0  0  0
  9 10  1  0  0  0
  9 27  2  0  0  0
 10 11  2  0  0  0
 10 15  1  0  0  0
 11 12  1  0  0  0
 11 98  1  0  0  0
 12 13  2  0  0  0
 12 99  1  0  0  0
 13 14  1  0  0  0
 13 31  1  0  0  0
 14 15  2  0  0  0
 14100  1  0  0  0
 15101  1  0  0  0
 16 17  2  0  0  0
 16 21  1  0  0  0
 16 31  1  0  0  0
 17 18  1  0  0  0
 17102  1  0  0  0
 18 19  2  0  0  0
 18103  1  0  0  0
 19 20  1  0  0  0
 19 24  1  0  0  0
 20 21  2  0  0  0
 20104  1  0  0  0
 21 23  1  0  0  0
 22 28  1  0  0  0
 22 32  2  0  0  0
 26 27  1  0  0  0
 28105  1  0  0  0
 28106  1  0  0  0
 29107  1  0  0  0
 29108  1  0  0  0
 33 34  1  0  0  0
 33 66  1  0  0  0
 33 70  2  0  0  0
 34 36  1  0  0  0
 34 59  1  0  0  0
 34109  1  0  0  0
 35 44  2  0  0  0
 35 45  1  0  0  0
 35 68  1  0  0  0
 36 56  1  0  0  0
 36110  1  0  0  0
 37 39  1  0  0  0
 37 47  1  0  0  0
 37 66  1  0  0  0
 37111  1  0  0  0
 38 43  2  0  0  0
 38 46  1  0  0  0
 38 47  1  0  0  0
 39 64  1  0  0  0
 39 67  2  0  0  0
 40 52  1  0  0  0
 40 53  2  0  0  0
 40 58  1  0  0  0
 41112  1  0  0  0
 41113  1  0  0  0
 41114  1  0  0  0
 41 48  1  0  0  0
 42 43  1  0  0  0
 42 66  1  0  0  0
 42115  1  0  0  0
 42116  1  0  0  0
 43 44  1  0  0  0
 44117  1  0  0  0
 45 46  2  0  0  0
 45118  1  0  0  0
 46119  1  0  0  0
 47120  1  0  0  0
 47121  1  0  0  0
 48 56  1  0  0  0
 48 65  1  0  0  0
 48122  1  0  0  0
 49 50  1  0  0  0
 49 53  1  0  0  0
 49 64  1  0  0  0
 49123  1  0  0  0
 50 51  1  0  0  0
 50124  1  0  0  0
 50125  1  0  0  0
 51 52  1  0  0  0
 51126  1  0  0  0
 51127  1  0  0  0
 52128  1  0  0  0
 52129  1  0  0  0
 53 54  1  0  0  0
 54 55  2  0  0  0
 54130  1  0  0  0
 55 57  1  0  0  0
 55131  1  0  0  0
 56 69  2  0  0  0
 57 58  2  0  0  0
 57132  1  0  0  0
 58133  1  0  0  0
 59 60  1  0  0  0
 59 61  1  0  0  0
 59 62  1  0  0  0
 60134  1  0  0  0
 60135  1  0  0  0
 60136  1  0  0  0
 61137  1  0  0  0
 61138  1  0  0  0
 61139  1  0  0  0
 62140  1  0  0  0
 62141  1  0  0  0
 62142  1  0  0  0
 63 65  1  0  0  0
 63143  1  0  0  0
 63144  1  0  0  0
 63145  1  0  0  0
 64146  1  0  0  0
 65147  1  0  0  0
 68 82  1  0  0  0
 71 73  2  0  0  0
 71 75  1  0  0  0
 71148  1  0  0  0
 72 74  1  0  0  0
 72 75  2  0  0  0
 72149  1  0  0  0
 73 76  1  0  0  0
 73 77  1  0  0  0
 74 76  2  0  0  0
 74 83  1  0  0  0
 75 87  1  0  0  0
 76 88  1  0  0  0
 77 84  1  0  0  0
 77 85  2  0  0  0
 78 81  1  0  0  0
 78 84  1  0  0  0
 78 86  2  0  0  0
 79150  1  0  0  0
 79151  1  0  0  0
 79152  1  0  0  0
 79 82  1  0  0  0
 80 84  1  0  0  0
 80153  1  0  0  0
 80154  1  0  0  0
 80155  1  0  0  0
 81 82  1  0  0  0
 81156  1  0  0  0
 81157  1  0  0  0
 82158  1  0  0  0
 83159  1  0  0  0
M  ISO  4   1 100  68 101  82 101  83 100
M  END
> <chiral flag>
0

> <version>
0

> <s_m_source_file>
/data/baiqing/PycharmProjects/Reinvent-master-3.2/result/LINK_invent/BTK/process_docking_weight1_custom_product_contain_oxygen_bond_distance_aromatic_linkinvent_7_9_3/rearranged_h_0171.sdf

> <i_m_source_file_index>
7

> <r_mmod_Potential_Energy-OPLS-2005>
-21.5432682037354

> <r_mmod_Stretch_Energy-OPLS-2005>
57.7790756225586

> <r_mmod_Bend_Energy-OPLS-2005>
107.925254821777

> <r_mmod_Torsional_Energy-OPLS-2005>
290.465270996094

> <r_mmod_Improper_Torsional_Energy-OPLS-2005>
4.44904088973999

> <r_mmod_Van_der_Waal_Energy-OPLS-2005>
175.468475341797

> <r_mmod_Electrostatic_Energy-OPLS-2005>
-462.750762939453

> <r_mmod_Solvation_Energy-OPLS-2005>
-220.673309326172

> <b_mmod_Minimization_Converged-OPLS-2005>
0

> <r_mmod_RMS_Derivative-OPLS-2005>
6.36883974075317

$$$$
7
                    3D
 Structure written by MMmdl.
158166  0  0  1  0            999 V2000
  -30.6157  -14.6278   20.5129 C   0  0  0  0  0  0
  -30.4374  -12.3932   19.4339 C   0  0  0  0  0  0
  -29.4948  -12.4965   18.2142 C   0  0  0  0  0  0
  -28.0219  -12.3221   18.6378 C   0  0  0  0  0  0
  -27.6456  -13.2078   19.8548 C   0  0  2  0  0  0
  -28.6948  -13.0666   20.9785 C   0  0  0  0  0  0
  -25.2533  -13.8140   20.5705 C   0  0  0  0  0  0
  -24.1804  -13.0426   20.9224 C   0  0  0  0  0  0
  -24.6353  -11.6891   20.8731 C   0  0  0  0  0  0
  -23.9023  -10.4277   21.0386 C   0  0  0  0  0  0
  -24.3580   -9.4209   21.9174 C   0  0  0  0  0  0
  -23.6281   -8.2228   22.0743 C   0  0  0  0  0  0
  -22.4258   -8.0248   21.3542 C   0  0  0  0  0  0
  -21.9891   -9.0218   20.4635 C   0  0  0  0  0  0
  -22.7196  -10.2114   20.3041 C   0  0  0  0  0  0
  -21.6863   -6.0726   22.5285 C   0  0  0  0  0  0
  -21.4009   -6.5635   23.8217 C   0  0  0  0  0  0
  -21.3654   -5.6784   24.9180 C   0  0  0  0  0  0
  -21.6043   -4.3048   24.7234 C   0  0  0  0  0  0
  -21.8821   -3.8140   23.4356 C   0  0  0  0  0  0
  -21.9192   -4.6953   22.3408 C   0  0  0  0  0  0
  -22.7828  -13.5220   21.1906 C   0  0  0  0  0  0
  -22.1668   -4.2138   21.0990 F   0  0  0  0  0  0
  -21.5627   -3.4530   25.7750 F   0  0  0  0  0  0
  -30.0037  -13.4107   20.4050 N   0  0  0  0  0  0
  -26.2939  -12.9309   20.3298 N   0  0  0  0  0  0
  -25.9275  -11.6478   20.5753 N   0  0  0  0  0  0
  -22.0475  -12.8170   22.0426 N   0  0  0  0  0  0
  -25.4284  -15.1857   20.4133 N   0  0  0  0  0  0
  -31.8060  -14.7871   20.2255 O   0  0  0  0  0  0
  -21.6634   -6.8846   21.4245 O   0  0  0  0  0  0
  -22.3502  -14.5540   20.6780 O   0  0  0  0  0  0
  -24.6189  -31.8588   23.2077 C   0  0  0  0  0  0
  -25.9056  -32.4773   23.8393 C   0  0  1  0  0  0
  -27.2247  -27.3690   20.1133 C   0  0  0  0  0  0
  -25.5892  -33.8584   24.2324 N   0  0  0  0  0  0
  -23.4105  -30.4839   21.5478 C   0  0  2  0  0  0
  -24.8569  -28.9453   20.1106 C   0  0  0  0  0  0
  -22.7433  -29.4592   22.4973 C   0  0  0  0  0  0
  -18.0275  -28.1384   22.8453 C   0  0  0  0  0  0
  -24.1477  -36.7295   23.2633 C   0  0  0  0  0  0
  -25.9428  -30.8134   21.3617 C   0  0  0  0  0  0
  -26.0204  -29.4397   20.7150 C   0  0  0  0  0  0
  -27.2093  -28.6587   20.7126 C   0  0  0  0  0  0
  -26.0459  -26.9155   19.4857 C   0  0  0  0  0  0
  -24.8674  -27.6842   19.4922 C   0  0  0  0  0  0
  -23.6232  -29.8190   20.1614 C   0  0  0  0  0  0
  -25.4092  -36.3072   24.0337 C   0  0  1  0  0  0
  -20.5859  -28.3644   23.1318 C   0  0  2  0  0  0
  -20.6732  -26.9382   22.5422 C   0  0  0  0  0  0
  -19.5724  -26.6378   21.5194 C   0  0  0  0  0  0
  -18.1907  -26.7924   22.1602 C   0  0  0  0  0  0
  -19.1518  -28.8849   23.2862 C   0  0  0  0  0  0
  -18.9443  -30.1442   23.8875 C   0  0  0  0  0  0
  -17.6444  -30.6562   24.0571 C   0  0  0  0  0  0
  -25.9011  -34.9444   23.5116 C   0  0  0  0  0  0
  -16.5340  -29.9058   23.6328 C   0  0  0  0  0  0
  -16.7263  -28.6505   23.0302 C   0  0  0  0  0  0
  -26.4481  -31.6557   25.0715 C   0  0  0  0  0  0
  -25.3815  -31.3644   26.1531 C   0  0  0  0  0  0
  -27.0276  -30.3003   24.6039 C   0  0  0  0  0  0
  -27.6052  -32.4298   25.7469 C   0  0  0  0  0  0
  -27.5596  -37.1759   24.8441 C   0  0  0  0  0  0
  -21.4156  -29.3001   22.3720 N   0  0  0  0  0  0
  -26.4259  -37.3788   23.9443 N   0  0  0  0  0  0
  -24.6774  -31.0648   22.0997 N   0  0  0  0  0  0
  -23.4157  -28.8100   23.3038 O   0  0  0  0  0  0
  -28.3580  -26.5615   20.1205 O   0  0  0  0  0  0
  -26.5564  -34.8893   22.4663 O   0  0  0  0  0  0
  -23.5381  -32.1345   23.7454 O   0  0  0  0  0  0
  -31.2345  -17.9849   19.2051 C   0  0  0  0  0  0
  -31.1286  -20.3012   18.4658 C   0  0  0  0  0  0
  -29.7475  -19.5640   20.3343 C   0  0  0  0  0  0
  -31.6788  -19.0050   18.3392 C   0  0  0  0  0  0
  -30.2800  -18.2308   20.2088 C   0  0  0  0  0  0
  -30.1731  -20.6208   19.4609 C   0  0  0  0  0  0
  -28.2091  -25.1854   20.3414 C   0  0  0  0  0  0
  -32.7682  -18.7479   17.3522 C   0  0  0  0  0  0
  -29.1274  -24.2416   19.9797 C   0  0  0  0  0  0
  -28.9509  -22.7829   20.2441 C   0  0  0  0  0  0
  -33.2170  -17.3033   17.1523 C   0  0  0  0  0  0
  -29.9910  -17.0873   21.2197 C   0  0  0  0  0  0
  -29.7970  -22.0230   19.4952 N   0  0  0  0  0  0
  -29.7759  -15.6727   20.7692 N   0  0  0  0  0  0
  -33.3257  -19.6378   16.7069 O   0  0  0  0  0  0
  -28.1303  -22.2969   21.0238 O   0  0  0  0  0  0
  -30.2591  -24.6539   19.3844 O   0  0  0  0  0  0
  -31.4725  -12.5412   19.1222 H   0  0  0  0  0  0
  -30.3947  -11.4006   19.8814 H   0  0  0  0  0  0
  -29.7600  -11.7504   17.4647 H   0  0  0  0  0  0
  -29.6192  -13.4675   17.7326 H   0  0  0  0  0  0
  -27.8753  -11.2719   18.8914 H   0  0  0  0  0  0
  -27.3572  -12.5250   17.7975 H   0  0  0  0  0  0
  -27.6576  -14.2363   19.4947 H   0  0  0  0  0  0
  -28.7119  -12.0460   21.3643 H   0  0  0  0  0  0
  -28.4445  -13.7032   21.8278 H   0  0  0  0  0  0
  -25.2725   -9.5707   22.4754 H   0  0  0  0  0  0
  -24.0010   -7.4622   22.7443 H   0  0  0  0  0  0
  -21.0840   -8.8706   19.8934 H   0  0  0  0  0  0
  -22.3629  -10.9646   19.6137 H   0  0  0  0  0  0
  -21.1995   -7.6140   23.9726 H   0  0  0  0  0  0
  -21.1479   -6.0509   25.9082 H   0  0  0  0  0  0
  -22.0600   -2.7601   23.2862 H   0  0  0  0  0  0
  -22.4096  -11.9782   22.4721 H   0  0  0  0  0  0
  -21.1105  -13.1198   22.2693 H   0  0  0  0  0  0
  -24.6670  -15.8441   20.5297 H   0  0  0  0  0  0
  -26.2708  -15.6241   20.0671 H   0  0  0  0  0  0
  -26.7121  -32.5447   23.1154 H   0  0  0  0  0  0
  -25.0163  -33.9767   25.0558 H   0  0  0  0  0  0
  -22.7014  -31.3014   21.4055 H   0  0  0  0  0  0
  -23.3725  -35.9628   23.3214 H   0  0  0  0  0  0
  -24.3629  -36.8985   22.2064 H   0  0  0  0  0  0
  -23.7220  -37.6475   23.6691 H   0  0  0  0  0  0
  -26.0460  -31.5657   20.5798 H   0  0  0  0  0  0
  -26.8366  -30.8836   21.9703 H   0  0  0  0  0  0
  -28.1063  -29.0358   21.1862 H   0  0  0  0  0  0
  -26.0249  -25.9487   19.0067 H   0  0  0  0  0  0
  -23.9733  -27.2984   19.0224 H   0  0  0  0  0  0
  -23.7438  -30.5953   19.4057 H   0  0  0  0  0  0
  -22.7466  -29.2428   19.8572 H   0  0  0  0  0  0
  -25.1242  -36.1919   25.0820 H   0  0  0  0  0  0
  -20.9927  -28.3190   24.1438 H   0  0  0  0  0  0
  -20.5599  -26.2246   23.3586 H   0  0  0  0  0  0
  -21.6603  -26.7400   22.1225 H   0  0  0  0  0  0
  -19.6847  -25.6292   21.1183 H   0  0  0  0  0  0
  -19.6645  -27.3218   20.6747 H   0  0  0  0  0  0
  -17.4167  -26.6674   21.4007 H   0  0  0  0  0  0
  -18.0287  -26.0089   22.9022 H   0  0  0  0  0  0
  -19.7933  -30.7264   24.2184 H   0  0  0  0  0  0
  -17.5009  -31.6220   24.5193 H   0  0  0  0  0  0
  -15.5335  -30.2932   23.7677 H   0  0  0  0  0  0
  -15.8679  -28.0828   22.6970 H   0  0  0  0  0  0
  -24.6096  -30.6791   25.8008 H   0  0  0  0  0  0
  -24.8863  -32.2758   26.4899 H   0  0  0  0  0  0
  -25.8308  -30.9016   27.0338 H   0  0  0  0  0  0
  -26.2774  -29.6780   24.1141 H   0  0  0  0  0  0
  -27.4111  -29.7206   25.4429 H   0  0  0  0  0  0
  -27.8582  -30.4289   23.9102 H   0  0  0  0  0  0
  -27.2698  -33.3686   26.1905 H   0  0  0  0  0  0
  -28.3962  -32.6728   25.0354 H   0  0  0  0  0  0
  -28.0597  -31.8494   26.5509 H   0  0  0  0  0  0
  -28.2493  -38.0176   24.7649 H   0  0  0  0  0  0
  -28.1194  -36.2702   24.6026 H   0  0  0  0  0  0
  -27.2332  -37.1158   25.8844 H   0  0  0  0  0  0
  -20.9296  -29.8846   21.7050 H   0  0  0  0  0  0
  -26.0088  -38.2813   24.1577 H   0  0  0  0  0  0
  -31.6787  -17.0049   19.1560 H   0  0  0  0  0  0
  -31.4847  -21.0762   17.7979 H   0  0  0  0  0  0
  -29.0372  -19.7808   21.1197 H   0  0  0  0  0  0
  -27.2823  -24.9393   20.8473 H   0  0  0  0  0  0
  -33.8628  -17.0115   17.9812 H   0  0  0  0  0  0
  -33.7695  -17.1803   16.2201 H   0  0  0  0  0  0
  -32.3605  -16.6286   17.1220 H   0  0  0  0  0  0
  -29.0993  -17.3752   21.7791 H   0  0  0  0  0  0
  -30.7969  -17.0885   21.9523 H   0  0  0  0  0  0
  -30.2639  -22.5834   18.7964 H   0  0  0  0  0  0
  -28.8121  -15.3866   20.8342 H   0  0  0  0  0  0
  -30.9222  -23.9926   19.5490 H   0  0  0  0  0  0
  1 25  1  0  0  0
  1 30  2  0  0  0
  1 84  1  0  0  0
  2  3  1  0  0  0
  2 25  1  0  0  0
  2 88  1  0  0  0
  2 89  1  0  0  0
  3  4  1  0  0  0
  3 90  1  0  0  0
  3 91  1  0  0  0
  4  5  1  0  0  0
  4 92  1  0  0  0
  4 93  1  0  0  0
  5  6  1  0  0  0
  5 26  1  0  0  0
  5 94  1  0  0  0
  6 25  1  0  0  0
  6 95  1  0  0  0
  6 96  1  0  0  0
  7  8  2  0  0  0
  7 26  1  0  0  0
  7 29  1  0  0  0
  8  9  1  0  0  0
  8 22  1  0  0  0
  9 10  1  0  0  0
  9 27  2  0  0  0
 10 11  2  0  0  0
 10 15  1  0  0  0
 11 12  1  0  0  0
 11 97  1  0  0  0
 12 13  2  0  0  0
 12 98  1  0  0  0
 13 14  1  0  0  0
 13 31  1  0  0  0
 14 15  2  0  0  0
 14 99  1  0  0  0
 15100  1  0  0  0
 16 17  2  0  0  0
 16 21  1  0  0  0
 16 31  1  0  0  0
 17 18  1  0  0  0
 17101  1  0  0  0
 18 19  2  0  0  0
 18102  1  0  0  0
 19 20  1  0  0  0
 19 24  1  0  0  0
 20 21  2  0  0  0
 20103  1  0  0  0
 21 23  1  0  0  0
 22 28  1  0  0  0
 22 32  2  0  0  0
 26 27  1  0  0  0
 28104  1  0  0  0
 28105  1  0  0  0
 29106  1  0  0  0
 29107  1  0  0  0
 33 34  1  0  0  0
 33 66  1  0  0  0
 33 70  2  0  0  0
 34 36  1  0  0  0
 34 59  1  0  0  0
 34108  1  0  0  0
 35 44  2  0  0  0
 35 45  1  0  0  0
 35 68  1  0  0  0
 36 56  1  0  0  0
 36109  1  0  0  0
 37 39  1  0  0  0
 37 47  1  0  0  0
 37 66  1  0  0  0
 37110  1  0  0  0
 38 43  2  0  0  0
 38 46  1  0  0  0
 38 47  1  0  0  0
 39 64  1  0  0  0
 39 67  2  0  0  0
 40 52  1  0  0  0
 40 53  2  0  0  0
 40 58  1  0  0  0
 41111  1  0  0  0
 41112  1  0  0  0
 41113  1  0  0  0
 41 48  1  0  0  0
 42 43  1  0  0  0
 42 66  1  0  0  0
 42114  1  0  0  0
 42115  1  0  0  0
 43 44  1  0  0  0
 44116  1  0  0  0
 45 46  2  0  0  0
 45117  1  0  0  0
 46118  1  0  0  0
 47119  1  0  0  0
 47120  1  0  0  0
 48 56  1  0  0  0
 48 65  1  0  0  0
 48121  1  0  0  0
 49 50  1  0  0  0
 49 53  1  0  0  0
 49 64  1  0  0  0
 49122  1  0  0  0
 50 51  1  0  0  0
 50123  1  0  0  0
 50124  1  0  0  0
 51 52  1  0  0  0
 51125  1  0  0  0
 51126  1  0  0  0
 52127  1  0  0  0
 52128  1  0  0  0
 53 54  1  0  0  0
 54 55  2  0  0  0
 54129  1  0  0  0
 55 57  1  0  0  0
 55130  1  0  0  0
 56 69  2  0  0  0
 57 58  2  0  0  0
 57131  1  0  0  0
 58132  1  0  0  0
 59 60  1  0  0  0
 59 61  1  0  0  0
 59 62  1  0  0  0
 60133  1  0  0  0
 60134  1  0  0  0
 60135  1  0  0  0
 61136  1  0  0  0
 61137  1  0  0  0
 61138  1  0  0  0
 62139  1  0  0  0
 62140  1  0  0  0
 62141  1  0  0  0
 63 65  1  0  0  0
 63142  1  0  0  0
 63143  1  0  0  0
 63144  1  0  0  0
 64145  1  0  0  0
 65146  1  0  0  0
 68 77  1  0  0  0
 71 74  2  0  0  0
 71 75  1  0  0  0
 71147  1  0  0  0
 72 74  1  0  0  0
 72 76  2  0  0  0
 72148  1  0  0  0
 73 75  2  0  0  0
 73 76  1  0  0  0
 73149  1  0  0  0
 74 78  1  0  0  0
 75 82  1  0  0  0
 76 83  1  0  0  0
 77 79  2  0  0  0
 77150  1  0  0  0
 78 81  1  0  0  0
 78 85  2  0  0  0
 79 80  1  0  0  0
 79 87  1  0  0  0
 80 83  1  0  0  0
 80 86  2  0  0  0
 81151  1  0  0  0
 81152  1  0  0  0
 81153  1  0  0  0
 82 84  1  0  0  0
 82154  1  0  0  0
 82155  1  0  0  0
 83156  1  0  0  0
 84157  1  0  0  0
 87158  1  0  0  0
M  ISO  4   1 100  68 101  77 101  84 100
M  END
> <chiral flag>
0

> <version>
0

> <s_m_source_file>
/data/baiqing/PycharmProjects/Reinvent-master-3.2/result/LINK_invent/BTK/process_docking_weight1_custom_product_contain_oxygen_bond_distance_aromatic_linkinvent_7_9_3/rearranged_h_0171.sdf

> <i_m_source_file_index>
8

> <r_mmod_Potential_Energy-OPLS-2005>
-84.3272933959961

> <r_mmod_Stretch_Energy-OPLS-2005>
62.4986114501953

> <r_mmod_Bend_Energy-OPLS-2005>
142.756927490234

> <r_mmod_Torsional_Energy-OPLS-2005>
239.955352783203

> <r_mmod_Improper_Torsional_Energy-OPLS-2005>
5.46792984008789

> <r_mmod_Van_der_Waal_Energy-OPLS-2005>
152.186767578125

> <r_mmod_Electrostatic_Energy-OPLS-2005>
-479.349182128906

> <r_mmod_Solvation_Energy-OPLS-2005>
-248.099548339844

> <b_mmod_Minimization_Converged-OPLS-2005>
0

> <r_mmod_RMS_Derivative-OPLS-2005>
4.94104051589966

$$$$
8
                    3D
 Structure written by MMmdl.
158166  0  0  1  0            999 V2000
  -30.5721  -14.8519   20.5224 C   0  0  0  0  0  0
  -30.4521  -12.5537   19.4659 C   0  0  0  0  0  0
  -29.5152  -12.5569   18.2328 C   0  0  0  0  0  0
  -28.0397  -12.3555   18.6379 C   0  0  0  0  0  0
  -27.6440  -13.2270   19.8577 C   0  0  2  0  0  0
  -28.6953  -13.0831   20.9751 C   0  0  0  0  0  0
  -25.2494  -13.8182   20.5630 C   0  0  0  0  0  0
  -24.1799  -13.0433   20.9200 C   0  0  0  0  0  0
  -24.6396  -11.6912   20.8749 C   0  0  0  0  0  0
  -23.9071  -10.4291   21.0405 C   0  0  0  0  0  0
  -24.3623   -9.4208   21.9180 C   0  0  0  0  0  0
  -23.6302   -8.2241   22.0745 C   0  0  0  0  0  0
  -22.4282   -8.0279   21.3535 C   0  0  0  0  0  0
  -21.9918   -9.0251   20.4631 C   0  0  0  0  0  0
  -22.7243  -10.2134   20.3048 C   0  0  0  0  0  0
  -21.6853   -6.0744   22.5280 C   0  0  0  0  0  0
  -21.4010   -6.5643   23.8216 C   0  0  0  0  0  0
  -21.3658   -5.6792   24.9175 C   0  0  0  0  0  0
  -21.6044   -4.3056   24.7223 C   0  0  0  0  0  0
  -21.8816   -3.8152   23.4342 C   0  0  0  0  0  0
  -21.9191   -4.6971   22.3401 C   0  0  0  0  0  0
  -22.7816  -13.5214   21.1864 C   0  0  0  0  0  0
  -22.1656   -4.2161   21.0977 F   0  0  0  0  0  0
  -21.5637   -3.4536   25.7734 F   0  0  0  0  0  0
  -29.9669  -13.5919   20.4238 N   0  0  0  0  0  0
  -26.2939  -12.9379   20.3280 N   0  0  0  0  0  0
  -25.9325  -11.6528   20.5749 N   0  0  0  0  0  0
  -22.0465  -12.8205   22.0425 N   0  0  0  0  0  0
  -25.4118  -15.1901   20.3927 N   0  0  0  0  0  0
  -31.7382  -14.9257   20.1156 O   0  0  0  0  0  0
  -21.6638   -6.8884   21.4239 O   0  0  0  0  0  0
  -22.3497  -14.5518   20.6712 O   0  0  0  0  0  0
  -24.6388  -31.8499   23.1950 C   0  0  0  0  0  0
  -25.9190  -32.4723   23.8316 C   0  0  1  0  0  0
  -27.2207  -27.1993   20.1153 C   0  0  0  0  0  0
  -25.5961  -33.8527   24.2234 N   0  0  0  0  0  0
  -23.4385  -30.4741   21.5411 C   0  0  2  0  0  0
  -24.8855  -28.9191   20.1095 C   0  0  0  0  0  0
  -22.7545  -29.4578   22.4894 C   0  0  0  0  0  0
  -18.0298  -28.1383   22.8484 C   0  0  0  0  0  0
  -24.1494  -36.7263   23.2641 C   0  0  0  0  0  0
  -25.9930  -30.7434   21.3854 C   0  0  0  0  0  0
  -26.0656  -29.3633   20.7200 C   0  0  0  0  0  0
  -27.2341  -28.5178   20.7121 C   0  0  0  0  0  0
  -25.9961  -26.8379   19.5003 C   0  0  0  0  0  0
  -24.8600  -27.6658   19.4884 C   0  0  0  0  0  0
  -23.6593  -29.8119   20.1578 C   0  0  0  0  0  0
  -25.4124  -36.3048   24.0321 C   0  0  1  0  0  0
  -20.5909  -28.3702   23.1246 C   0  0  2  0  0  0
  -20.6782  -26.9410   22.5398 C   0  0  0  0  0  0
  -19.5757  -26.6375   21.5206 C   0  0  0  0  0  0
  -18.1939  -26.7926   22.1618 C   0  0  0  0  0  0
  -19.1554  -28.8863   23.2858 C   0  0  0  0  0  0
  -18.9473  -30.1462   23.8879 C   0  0  0  0  0  0
  -17.6469  -30.6585   24.0553 C   0  0  0  0  0  0
  -25.9068  -34.9419   23.5081 C   0  0  0  0  0  0
  -16.5359  -29.9072   23.6335 C   0  0  0  0  0  0
  -16.7283  -28.6487   23.0366 C   0  0  0  0  0  0
  -26.4526  -31.6565   25.0732 C   0  0  0  0  0  0
  -25.3731  -31.3720   26.1435 C   0  0  0  0  0  0
  -27.0381  -30.2971   24.6269 C   0  0  0  0  0  0
  -27.6068  -32.4314   25.7511 C   0  0  0  0  0  0
  -27.5582  -37.1787   24.8464 C   0  0  0  0  0  0
  -21.4244  -29.3049   22.3639 N   0  0  0  0  0  0
  -26.4292  -37.3756   23.9408 N   0  0  0  0  0  0
  -24.7099  -31.0410   22.0958 N   0  0  0  0  0  0
  -23.4218  -28.8119   23.3014 O   0  0  0  0  0  0
  -28.2744  -26.2241   20.1792 O   0  0  0  0  0  0
  -26.5642  -34.8904   22.4652 O   0  0  0  0  0  0
  -23.5521  -32.1353   23.7204 O   0  0  0  0  0  0
  -31.9913  -19.1836   21.1269 C   0  0  0  0  0  0
  -31.1347  -20.2648   20.8471 C   0  0  0  0  0  0
  -31.5651  -17.8449   21.0314 C   0  0  0  0  0  0
  -29.3655  -18.6552   20.3289 C   0  0  0  0  0  0
  -29.8028  -20.0755   20.4206 C   0  0  0  0  0  0
  -30.2481  -17.4999   20.6545 C   0  0  0  0  0  0
  -28.2127  -25.0483   19.3524 C   0  0  0  0  0  0
  -27.9829  -18.3435   19.8426 C   0  0  0  0  0  0
  -28.4950  -23.6623   19.3799 C   0  0  0  0  0  0
  -29.1119  -22.6889   20.3765 C   0  0  0  0  0  0
  -26.8492  -19.2729   20.2619 C   0  0  0  0  0  0
  -28.8231  -15.9631   21.9045 C   0  0  0  0  0  0
  -29.0653  -21.3298   19.9991 N   0  0  0  0  0  0
  -29.8526  -16.0440   20.8611 N   0  0  0  0  0  0
  -27.7034  -17.3494   19.1644 O   0  0  0  0  0  0
  -29.6147  -23.0371   21.4457 O   0  0  0  0  0  0
  -28.1504  -23.0439   18.2350 O   0  0  0  0  0  0
  -31.4781  -12.7319   19.1407 H   0  0  0  0  0  0
  -30.4744  -11.5679   19.9328 H   0  0  0  0  0  0
  -29.8187  -11.7849   17.5245 H   0  0  0  0  0  0
  -29.6163  -13.5079   17.7079 H   0  0  0  0  0  0
  -27.9015  -11.3006   18.8779 H   0  0  0  0  0  0
  -27.3821  -12.5637   17.7931 H   0  0  0  0  0  0
  -27.6515  -14.2623   19.5152 H   0  0  0  0  0  0
  -28.7907  -12.0313   21.2491 H   0  0  0  0  0  0
  -28.3798  -13.5376   21.9060 H   0  0  0  0  0  0
  -25.2768   -9.5691   22.4755 H   0  0  0  0  0  0
  -24.0012   -7.4633   22.7463 H   0  0  0  0  0  0
  -21.0856   -8.8765   19.8935 H   0  0  0  0  0  0
  -22.3697  -10.9673   19.6159 H   0  0  0  0  0  0
  -21.1992   -7.6147   23.9726 H   0  0  0  0  0  0
  -21.1482   -6.0518   25.9083 H   0  0  0  0  0  0
  -22.0598   -2.7617   23.2838 H   0  0  0  0  0  0
  -22.4093  -11.9883   22.4835 H   0  0  0  0  0  0
  -21.1067  -13.1206   22.2606 H   0  0  0  0  0  0
  -24.6313  -15.8309   20.4790 H   0  0  0  0  0  0
  -26.2391  -15.6259   19.9999 H   0  0  0  0  0  0
  -26.7261  -32.5349   23.1055 H   0  0  0  0  0  0
  -25.0109  -33.9648   25.0382 H   0  0  0  0  0  0
  -22.7385  -31.2992   21.3939 H   0  0  0  0  0  0
  -23.3767  -35.9583   23.3282 H   0  0  0  0  0  0
  -24.3592  -36.8912   22.2062 H   0  0  0  0  0  0
  -23.7234  -37.6450   23.6684 H   0  0  0  0  0  0
  -26.1445  -31.5063   20.6207 H   0  0  0  0  0  0
  -26.8649  -30.7876   22.0265 H   0  0  0  0  0  0
  -28.1341  -28.8519   21.2092 H   0  0  0  0  0  0
  -25.8591  -25.8665   19.0508 H   0  0  0  0  0  0
  -23.9530  -27.3125   19.0170 H   0  0  0  0  0  0
  -23.7863  -30.5893   19.4032 H   0  0  0  0  0  0
  -22.7757  -29.2493   19.8501 H   0  0  0  0  0  0
  -25.1308  -36.1888   25.0813 H   0  0  0  0  0  0
  -20.9996  -28.3281   24.1369 H   0  0  0  0  0  0
  -20.5666  -26.2313   23.3612 H   0  0  0  0  0  0
  -21.6649  -26.7414   22.1200 H   0  0  0  0  0  0
  -19.6912  -25.6281   21.1248 H   0  0  0  0  0  0
  -19.6695  -27.3174   20.6728 H   0  0  0  0  0  0
  -17.4204  -26.6679   21.4023 H   0  0  0  0  0  0
  -18.0334  -26.0062   22.9007 H   0  0  0  0  0  0
  -19.7948  -30.7283   24.2240 H   0  0  0  0  0  0
  -17.5018  -31.6265   24.5149 H   0  0  0  0  0  0
  -15.5357  -30.2966   23.7661 H   0  0  0  0  0  0
  -15.8685  -28.0785   22.7107 H   0  0  0  0  0  0
  -24.5945  -30.7020   25.7764 H   0  0  0  0  0  0
  -24.8875  -32.2877   26.4815 H   0  0  0  0  0  0
  -25.8045  -30.8945   27.0243 H   0  0  0  0  0  0
  -26.2980  -29.6707   24.1274 H   0  0  0  0  0  0
  -27.4010  -29.7251   25.4820 H   0  0  0  0  0  0
  -27.8884  -30.4218   23.9563 H   0  0  0  0  0  0
  -27.2680  -33.3638   26.2040 H   0  0  0  0  0  0
  -28.3911  -32.6834   25.0359 H   0  0  0  0  0  0
  -28.0700  -31.8468   26.5472 H   0  0  0  0  0  0
  -28.2576  -38.0105   24.7532 H   0  0  0  0  0  0
  -28.1101  -36.2638   24.6263 H   0  0  0  0  0  0
  -27.2299  -37.1395   25.8864 H   0  0  0  0  0  0
  -20.9438  -29.8784   21.6849 H   0  0  0  0  0  0
  -26.0163  -38.2822   24.1427 H   0  0  0  0  0  0
  -33.0059  -19.3871   21.4398 H   0  0  0  0  0  0
  -31.5396  -21.2639   20.9281 H   0  0  0  0  0  0
  -32.2681  -17.0765   21.3196 H   0  0  0  0  0  0
  -27.8244  -25.3863   18.4017 H   0  0  0  0  0  0
  -27.0878  -19.7854   21.1936 H   0  0  0  0  0  0
  -25.9342  -18.7013   20.4135 H   0  0  0  0  0  0
  -26.6627  -20.0156   19.4873 H   0  0  0  0  0  0
  -28.6204  -16.9299   22.3662 H   0  0  0  0  0  0
  -29.1475  -15.3288   22.7304 H   0  0  0  0  0  0
  -27.8721  -15.6162   21.5076 H   0  0  0  0  0  0
  -28.4934  -21.2334   19.1691 H   0  0  0  0  0  0
  -27.7866  -23.6951   17.6499 H   0  0  0  0  0  0
  1 25  1  0  0  0
  1 30  2  0  0  0
  1 84  1  0  0  0
  2  3  1  0  0  0
  2 25  1  0  0  0
  2 88  1  0  0  0
  2 89  1  0  0  0
  3  4  1  0  0  0
  3 90  1  0  0  0
  3 91  1  0  0  0
  4  5  1  0  0  0
  4 92  1  0  0  0
  4 93  1  0  0  0
  5  6  1  0  0  0
  5 26  1  0  0  0
  5 94  1  0  0  0
  6 25  1  0  0  0
  6 95  1  0  0  0
  6 96  1  0  0  0
  7  8  2  0  0  0
  7 26  1  0  0  0
  7 29  1  0  0  0
  8  9  1  0  0  0
  8 22  1  0  0  0
  9 10  1  0  0  0
  9 27  2  0  0  0
 10 11  2  0  0  0
 10 15  1  0  0  0
 11 12  1  0  0  0
 11 97  1  0  0  0
 12 13  2  0  0  0
 12 98  1  0  0  0
 13 14  1  0  0  0
 13 31  1  0  0  0
 14 15  2  0  0  0
 14 99  1  0  0  0
 15100  1  0  0  0
 16 17  2  0  0  0
 16 21  1  0  0  0
 16 31  1  0  0  0
 17 18  1  0  0  0
 17101  1  0  0  0
 18 19  2  0  0  0
 18102  1  0  0  0
 19 20  1  0  0  0
 19 24  1  0  0  0
 20 21  2  0  0  0
 20103  1  0  0  0
 21 23  1  0  0  0
 22 28  1  0  0  0
 22 32  2  0  0  0
 26 27  1  0  0  0
 28104  1  0  0  0
 28105  1  0  0  0
 29106  1  0  0  0
 29107  1  0  0  0
 33 34  1  0  0  0
 33 66  1  0  0  0
 33 70  2  0  0  0
 34 36  1  0  0  0
 34 59  1  0  0  0
 34108  1  0  0  0
 35 44  2  0  0  0
 35 45  1  0  0  0
 35 68  1  0  0  0
 36 56  1  0  0  0
 36109  1  0  0  0
 37 39  1  0  0  0
 37 47  1  0  0  0
 37 66  1  0  0  0
 37110  1  0  0  0
 38 43  2  0  0  0
 38 46  1  0  0  0
 38 47  1  0  0  0
 39 64  1  0  0  0
 39 67  2  0  0  0
 40 52  1  0  0  0
 40 53  2  0  0  0
 40 58  1  0  0  0
 41111  1  0  0  0
 41112  1  0  0  0
 41113  1  0  0  0
 41 48  1  0  0  0
 42 43  1  0  0  0
 42 66  1  0  0  0
 42114  1  0  0  0
 42115  1  0  0  0
 43 44  1  0  0  0
 44116  1  0  0  0
 45 46  2  0  0  0
 45117  1  0  0  0
 46118  1  0  0  0
 47119  1  0  0  0
 47120  1  0  0  0
 48 56  1  0  0  0
 48 65  1  0  0  0
 48121  1  0  0  0
 49 50  1  0  0  0
 49 53  1  0  0  0
 49 64  1  0  0  0
 49122  1  0  0  0
 50 51  1  0  0  0
 50123  1  0  0  0
 50124  1  0  0  0
 51 52  1  0  0  0
 51125  1  0  0  0
 51126  1  0  0  0
 52127  1  0  0  0
 52128  1  0  0  0
 53 54  1  0  0  0
 54 55  2  0  0  0
 54129  1  0  0  0
 55 57  1  0  0  0
 55130  1  0  0  0
 56 69  2  0  0  0
 57 58  2  0  0  0
 57131  1  0  0  0
 58132  1  0  0  0
 59 60  1  0  0  0
 59 61  1  0  0  0
 59 62  1  0  0  0
 60133  1  0  0  0
 60134  1  0  0  0
 60135  1  0  0  0
 61136  1  0  0  0
 61137  1  0  0  0
 61138  1  0  0  0
 62139  1  0  0  0
 62140  1  0  0  0
 62141  1  0  0  0
 63 65  1  0  0  0
 63142  1  0  0  0
 63143  1  0  0  0
 63144  1  0  0  0
 64145  1  0  0  0
 65146  1  0  0  0
 68 77  1  0  0  0
 71 72  2  0  0  0
 71 73  1  0  0  0
 71147  1  0  0  0
 72 75  1  0  0  0
 72148  1  0  0  0
 73 76  2  0  0  0
 73149  1  0  0  0
 74 75  2  0  0  0
 74 76  1  0  0  0
 74 78  1  0  0  0
 75 83  1  0  0  0
 76 84  1  0  0  0
 77 79  2  0  0  0
 77150  1  0  0  0
 78 81  1  0  0  0
 78 85  2  0  0  0
 79 80  1  0  0  0
 79 87  1  0  0  0
 80 83  1  0  0  0
 80 86  2  0  0  0
 81151  1  0  0  0
 81152  1  0  0  0
 81153  1  0  0  0
 82 84  1  0  0  0
 82154  1  0  0  0
 82155  1  0  0  0
 82156  1  0  0  0
 83157  1  0  0  0
 87158  1  0  0  0
M  ISO  4   1 100  68 101  77 101  84 100
M  END
> <chiral flag>
0

> <version>
0

> <s_m_source_file>
/data/baiqing/PycharmProjects/Reinvent-master-3.2/result/LINK_invent/BTK/process_docking_weight1_custom_product_contain_oxygen_bond_distance_aromatic_linkinvent_7_9_3/rearranged_h_0171.sdf

> <i_m_source_file_index>
9

> <r_mmod_Potential_Energy-OPLS-2005>
608.335205078125

> <r_mmod_Stretch_Energy-OPLS-2005>
200.386611938477

> <r_mmod_Bend_Energy-OPLS-2005>
278.836791992188

> <r_mmod_Torsional_Energy-OPLS-2005>
329.777130126953

> <r_mmod_Improper_Torsional_Energy-OPLS-2005>
8.53704643249512

> <r_mmod_Van_der_Waal_Energy-OPLS-2005>
166.164108276367

> <r_mmod_Electrostatic_Energy-OPLS-2005>
-276.957733154297

> <r_mmod_Solvation_Energy-OPLS-2005>
-226.0546875

> <b_mmod_Minimization_Converged-OPLS-2005>
0

> <r_mmod_RMS_Derivative-OPLS-2005>
0.813109695911407

$$$$
9
                    3D
 Structure written by MMmdl.
153161  0  0  1  0            999 V2000
  -30.6670  -14.5458   20.5411 C   0  0  0  0  0  0
  -30.4291  -12.3463   19.4287 C   0  0  0  0  0  0
  -29.4964  -12.4961   18.2085 C   0  0  0  0  0  0
  -28.0190  -12.3459   18.6249 C   0  0  0  0  0  0
  -27.6534  -13.2082   19.8626 C   0  0  2  0  0  0
  -28.6985  -13.0356   20.9870 C   0  0  0  0  0  0
  -25.2562  -13.8159   20.5673 C   0  0  0  0  0  0
  -24.1824  -13.0435   20.9190 C   0  0  0  0  0  0
  -24.6383  -11.6902   20.8745 C   0  0  0  0  0  0
  -23.9053  -10.4288   21.0411 C   0  0  0  0  0  0
  -24.3608   -9.4204   21.9187 C   0  0  0  0  0  0
  -23.6286   -8.2239   22.0755 C   0  0  0  0  0  0
  -22.4270   -8.0277   21.3543 C   0  0  0  0  0  0
  -21.9903   -9.0250   20.4647 C   0  0  0  0  0  0
  -22.7228  -10.2131   20.3058 C   0  0  0  0  0  0
  -21.6851   -6.0733   22.5279 C   0  0  0  0  0  0
  -21.4012   -6.5638   23.8211 C   0  0  0  0  0  0
  -21.3658   -5.6791   24.9174 C   0  0  0  0  0  0
  -21.6044   -4.3054   24.7226 C   0  0  0  0  0  0
  -21.8820   -3.8144   23.4348 C   0  0  0  0  0  0
  -21.9192   -4.6961   22.3403 C   0  0  0  0  0  0
  -22.7848  -13.5233   21.1853 C   0  0  0  0  0  0
  -22.1661   -4.2146   21.0981 F   0  0  0  0  0  0
  -21.5629   -3.4539   25.7740 F   0  0  0  0  0  0
  -30.0169  -13.3539   20.4188 N   0  0  0  0  0  0
  -26.2983  -12.9324   20.3318 N   0  0  0  0  0  0
  -25.9306  -11.6488   20.5760 N   0  0  0  0  0  0
  -22.0490  -12.8227   22.0410 N   0  0  0  0  0  0
  -25.4275  -15.1879   20.4065 N   0  0  0  0  0  0
  -31.8362  -14.6981   20.1755 O   0  0  0  0  0  0
  -21.6635   -6.8874   21.4239 O   0  0  0  0  0  0
  -22.3539  -14.5541   20.6703 O   0  0  0  0  0  0
  -24.6186  -31.8649   23.2071 C   0  0  0  0  0  0
  -25.9065  -32.4804   23.8378 C   0  0  1  0  0  0
  -27.2297  -27.3900   20.1117 C   0  0  0  0  0  0
  -25.5908  -33.8603   24.2311 N   0  0  0  0  0  0
  -23.4087  -30.4876   21.5486 C   0  0  2  0  0  0
  -24.8555  -28.9442   20.1192 C   0  0  0  0  0  0
  -22.7430  -29.4648   22.4979 C   0  0  0  0  0  0
  -18.0275  -28.1380   22.8489 C   0  0  0  0  0  0
  -24.1486  -36.7307   23.2639 C   0  0  0  0  0  0
  -25.9414  -30.8178   21.3657 C   0  0  0  0  0  0
  -26.0188  -29.4470   20.7163 C   0  0  0  0  0  0
  -27.2118  -28.6796   20.7042 C   0  0  0  0  0  0
  -26.0490  -26.9114   19.5082 C   0  0  0  0  0  0
  -24.8676  -27.6774   19.5106 C   0  0  0  0  0  0
  -23.6202  -29.8175   20.1648 C   0  0  0  0  0  0
  -25.4107  -36.3101   24.0335 C   0  0  1  0  0  0
  -20.5870  -28.3672   23.1309 C   0  0  2  0  0  0
  -20.6767  -26.9404   22.5415 C   0  0  0  0  0  0
  -19.5744  -26.6387   21.5212 C   0  0  0  0  0  0
  -18.1922  -26.7925   22.1624 C   0  0  0  0  0  0
  -19.1526  -28.8841   23.2894 C   0  0  0  0  0  0
  -18.9455  -30.1446   23.8906 C   0  0  0  0  0  0
  -17.6457  -30.6585   24.0565 C   0  0  0  0  0  0
  -25.9039  -34.9467   23.5122 C   0  0  0  0  0  0
  -16.5347  -29.9086   23.6327 C   0  0  0  0  0  0
  -16.7265  -28.6504   23.0347 C   0  0  0  0  0  0
  -26.4479  -31.6590   25.0717 C   0  0  0  0  0  0
  -25.3738  -31.3702   26.1463 C   0  0  0  0  0  0
  -27.0314  -30.3033   24.6108 C   0  0  0  0  0  0
  -27.6052  -32.4311   25.7481 C   0  0  0  0  0  0
  -27.5579  -37.1806   24.8464 C   0  0  0  0  0  0
  -21.4154  -29.3037   22.3715 N   0  0  0  0  0  0
  -26.4292  -37.3789   23.9409 N   0  0  0  0  0  0
  -24.6747  -31.0718   22.0987 N   0  0  0  0  0  0
  -23.4183  -28.8192   23.3037 O   0  0  0  0  0  0
  -28.3820  -26.6227   20.0710 O   0  0  0  0  0  0
  -26.5606  -34.8923   22.4686 O   0  0  0  0  0  0
  -23.5370  -32.1418   23.7445 O   0  0  0  0  0  0
  -31.6275  -18.4556   22.5695 C   0  0  0  0  0  0
  -30.9764  -19.5782   22.0240 C   0  0  0  0  0  0
  -31.2857  -17.1553   22.1551 C   0  0  0  0  0  0
  -29.6169  -18.0995   20.6434 C   0  0  0  0  0  0
  -29.9628  -19.4276   21.0486 C   0  0  0  0  0  0
  -30.2762  -16.9525   21.1892 C   0  0  0  0  0  0
  -28.8954  -22.9599   19.8982 C   0  0  0  0  0  0
  -29.1690  -21.8288   20.9607 C   0  0  0  0  0  0
  -27.8670  -24.0795   20.2166 C   0  0  0  0  0  0
  -28.3996  -25.4040   20.8626 C   0  0  0  0  0  0
  -29.3784  -20.5943   20.4251 N   0  0  0  0  0  0
  -29.8797  -15.6094   20.8511 N   0  0  0  0  0  0
  -29.4664  -22.9500   18.8013 O   0  0  0  0  0  0
  -29.1675  -22.0697   22.1731 O   0  0  0  0  0  0
  -31.4708  -12.4632   19.1245 H   0  0  0  0  0  0
  -30.3514  -11.3451   19.8553 H   0  0  0  0  0  0
  -29.7470  -11.7535   17.4498 H   0  0  0  0  0  0
  -29.6493  -13.4716   17.7440 H   0  0  0  0  0  0
  -27.8452  -11.2920   18.8458 H   0  0  0  0  0  0
  -27.3642  -12.5911   17.7879 H   0  0  0  0  0  0
  -27.6802  -14.2467   19.5333 H   0  0  0  0  0  0
  -28.6935  -12.0109   21.3616 H   0  0  0  0  0  0
  -28.4598  -13.6665   21.8449 H   0  0  0  0  0  0
  -25.2754   -9.5681   22.4760 H   0  0  0  0  0  0
  -23.9996   -7.4631   22.7472 H   0  0  0  0  0  0
  -21.0836   -8.8768   19.8952 H   0  0  0  0  0  0
  -22.3688  -10.9670   19.6167 H   0  0  0  0  0  0
  -21.2003   -7.6145   23.9714 H   0  0  0  0  0  0
  -21.1479   -6.0522   25.9077 H   0  0  0  0  0  0
  -22.0601   -2.7608   23.2850 H   0  0  0  0  0  0
  -22.4101  -11.9884   22.4793 H   0  0  0  0  0  0
  -21.1110  -13.1258   22.2620 H   0  0  0  0  0  0
  -24.6577  -15.8402   20.5101 H   0  0  0  0  0  0
  -26.2705  -15.6269   20.0596 H   0  0  0  0  0  0
  -26.7133  -32.5508   23.1136 H   0  0  0  0  0  0
  -25.0048  -33.9754   25.0451 H   0  0  0  0  0  0
  -22.6995  -31.3057   21.4065 H   0  0  0  0  0  0
  -23.3745  -35.9646   23.3309 H   0  0  0  0  0  0
  -24.3579  -36.8920   22.2053 H   0  0  0  0  0  0
  -23.7242  -37.6513   23.6653 H   0  0  0  0  0  0
  -26.0567  -31.5799   20.5938 H   0  0  0  0  0  0
  -26.8281  -30.8737   21.9855 H   0  0  0  0  0  0
  -28.1126  -29.0668   21.1594 H   0  0  0  0  0  0
  -26.0359  -25.9483   19.0217 H   0  0  0  0  0  0
  -23.9750  -27.2863   19.0421 H   0  0  0  0  0  0
  -23.7340  -30.5911   19.4042 H   0  0  0  0  0  0
  -22.7427  -29.2405   19.8672 H   0  0  0  0  0  0
  -25.1284  -36.1962   25.0829 H   0  0  0  0  0  0
  -20.9956  -28.3241   24.1431 H   0  0  0  0  0  0
  -20.5674  -26.2279   23.3606 H   0  0  0  0  0  0
  -21.6637  -26.7449   22.1207 H   0  0  0  0  0  0
  -19.6911  -25.6302   21.1233 H   0  0  0  0  0  0
  -19.6688  -27.3207   20.6750 H   0  0  0  0  0  0
  -17.4195  -26.6673   21.4024 H   0  0  0  0  0  0
  -18.0322  -26.0064   22.9018 H   0  0  0  0  0  0
  -19.7933  -30.7254   24.2285 H   0  0  0  0  0  0
  -17.5016  -31.6268   24.5163 H   0  0  0  0  0  0
  -15.5349  -30.2992   23.7651 H   0  0  0  0  0  0
  -15.8663  -28.0829   22.7056 H   0  0  0  0  0  0
  -24.5911  -30.7050   25.7797 H   0  0  0  0  0  0
  -24.8928  -32.2859   26.4917 H   0  0  0  0  0  0
  -25.8087  -30.8865   27.0220 H   0  0  0  0  0  0
  -26.2864  -29.6789   24.1163 H   0  0  0  0  0  0
  -27.4080  -29.7274   25.4571 H   0  0  0  0  0  0
  -27.8699  -30.4347   23.9265 H   0  0  0  0  0  0
  -27.2673  -33.3604   26.2079 H   0  0  0  0  0  0
  -28.3850  -32.6882   25.0300 H   0  0  0  0  0  0
  -28.0730  -31.8421   26.5380 H   0  0  0  0  0  0
  -28.2598  -38.0102   24.7510 H   0  0  0  0  0  0
  -28.1071  -36.2632   24.6288 H   0  0  0  0  0  0
  -27.2296  -37.1456   25.8868 H   0  0  0  0  0  0
  -20.9323  -29.8758   21.6931 H   0  0  0  0  0  0
  -26.0178  -38.2866   24.1415 H   0  0  0  0  0  0
  -32.4007  -18.5943   23.3119 H   0  0  0  0  0  0
  -31.2876  -20.5601   22.3522 H   0  0  0  0  0  0
  -31.7953  -16.3136   22.6032 H   0  0  0  0  0  0
  -28.8431  -17.9592   19.9016 H   0  0  0  0  0  0
  -27.1210  -23.6442   20.8815 H   0  0  0  0  0  0
  -27.3413  -24.3022   19.2910 H   0  0  0  0  0  0
  -29.4324  -25.2545   21.1801 H   0  0  0  0  0  0
  -27.8509  -25.5836   21.7889 H   0  0  0  0  0  0
  -29.1875  -20.5335   19.4332 H   0  0  0  0  0  0
  -28.8914  -15.4141   20.8899 H   0  0  0  0  0  0
  1 25  1  0  0  0
  1 30  2  0  0  0
  1 82  1  0  0  0
  2  3  1  0  0  0
  2 25  1  0  0  0
  2 85  1  0  0  0
  2 86  1  0  0  0
  3  4  1  0  0  0
  3 87  1  0  0  0
  3 88  1  0  0  0
  4  5  1  0  0  0
  4 89  1  0  0  0
  4 90  1  0  0  0
  5  6  1  0  0  0
  5 26  1  0  0  0
  5 91  1  0  0  0
  6 25  1  0  0  0
  6 92  1  0  0  0
  6 93  1  0  0  0
  7  8  2  0  0  0
  7 26  1  0  0  0
  7 29  1  0  0  0
  8  9  1  0  0  0
  8 22  1  0  0  0
  9 10  1  0  0  0
  9 27  2  0  0  0
 10 11  2  0  0  0
 10 15  1  0  0  0
 11 12  1  0  0  0
 11 94  1  0  0  0
 12 13  2  0  0  0
 12 95  1  0  0  0
 13 14  1  0  0  0
 13 31  1  0  0  0
 14 15  2  0  0  0
 14 96  1  0  0  0
 15 97  1  0  0  0
 16 17  2  0  0  0
 16 21  1  0  0  0
 16 31  1  0  0  0
 17 18  1  0  0  0
 17 98  1  0  0  0
 18 19  2  0  0  0
 18 99  1  0  0  0
 19 20  1  0  0  0
 19 24  1  0  0  0
 20 21  2  0  0  0
 20100  1  0  0  0
 21 23  1  0  0  0
 22 28  1  0  0  0
 22 32  2  0  0  0
 26 27  1  0  0  0
 28101  1  0  0  0
 28102  1  0  0  0
 29103  1  0  0  0
 29104  1  0  0  0
 33 34  1  0  0  0
 33 66  1  0  0  0
 33 70  2  0  0  0
 34 36  1  0  0  0
 34 59  1  0  0  0
 34105  1  0  0  0
 35 44  2  0  0  0
 35 45  1  0  0  0
 35 68  1  0  0  0
 36 56  1  0  0  0
 36106  1  0  0  0
 37 39  1  0  0  0
 37 47  1  0  0  0
 37 66  1  0  0  0
 37107  1  0  0  0
 38 43  2  0  0  0
 38 46  1  0  0  0
 38 47  1  0  0  0
 39 64  1  0  0  0
 39 67  2  0  0  0
 40 52  1  0  0  0
 40 53  2  0  0  0
 40 58  1  0  0  0
 41108  1  0  0  0
 41109  1  0  0  0
 41110  1  0  0  0
 41 48  1  0  0  0
 42 43  1  0  0  0
 42 66  1  0  0  0
 42111  1  0  0  0
 42112  1  0  0  0
 43 44  1  0  0  0
 44113  1  0  0  0
 45 46  2  0  0  0
 45114  1  0  0  0
 46115  1  0  0  0
 47116  1  0  0  0
 47117  1  0  0  0
 48 56  1  0  0  0
 48 65  1  0  0  0
 48118  1  0  0  0
 49 50  1  0  0  0
 49 53  1  0  0  0
 49 64  1  0  0  0
 49119  1  0  0  0
 50 51  1  0  0  0
 50120  1  0  0  0
 50121  1  0  0  0
 51 52  1  0  0  0
 51122  1  0  0  0
 51123  1  0  0  0
 52124  1  0  0  0
 52125  1  0  0  0
 53 54  1  0  0  0
 54 55  2  0  0  0
 54126  1  0  0  0
 55 57  1  0  0  0
 55127  1  0  0  0
 56 69  2  0  0  0
 57 58  2  0  0  0
 57128  1  0  0  0
 58129  1  0  0  0
 59 60  1  0  0  0
 59 61  1  0  0  0
 59 62  1  0  0  0
 60130  1  0  0  0
 60131  1  0  0  0
 60132  1  0  0  0
 61133  1  0  0  0
 61134  1  0  0  0
 61135  1  0  0  0
 62136  1  0  0  0
 62137  1  0  0  0
 62138  1  0  0  0
 63 65  1  0  0  0
 63139  1  0  0  0
 63140  1  0  0  0
 63141  1  0  0  0
 64142  1  0  0  0
 65143  1  0  0  0
 68 80  1  0  0  0
 71 72  2  0  0  0
 71 73  1  0  0  0
 71144  1  0  0  0
 72 75  1  0  0  0
 72145  1  0  0  0
 73 76  2  0  0  0
 73146  1  0  0  0
 74 75  2  0  0  0
 74 76  1  0  0  0
 74147  1  0  0  0
 75 81  1  0  0  0
 76 82  1  0  0  0
 77 78  1  0  0  0
 77 79  1  0  0  0
 77 83  2  0  0  0
 78 81  1  0  0  0
 78 84  2  0  0  0
 79 80  1  0  0  0
 79148  1  0  0  0
 79149  1  0  0  0
 80150  1  0  0  0
 80151  1  0  0  0
 81152  1  0  0  0
 82153  1  0  0  0
M  ISO  4   1 100  68 101  80 101  82 100
M  END
> <chiral flag>
0

> <version>
0

> <s_m_source_file>
/data/baiqing/PycharmProjects/Reinvent-master-3.2/result/LINK_invent/BTK/process_docking_weight1_custom_product_contain_oxygen_bond_distance_aromatic_linkinvent_7_9_3/rearranged_h_0171.sdf

> <i_m_source_file_index>
10

> <r_mmod_Potential_Energy-OPLS-2005>
11.3307399749756

> <r_mmod_Stretch_Energy-OPLS-2005>
51.5909271240234

> <r_mmod_Bend_Energy-OPLS-2005>
108.499305725098

> <r_mmod_Torsional_Energy-OPLS-2005>
276.517517089844

> <r_mmod_Improper_Torsional_Energy-OPLS-2005>
6.2486629486084

> <r_mmod_Van_der_Waal_Energy-OPLS-2005>
143.918167114258

> <r_mmod_Electrostatic_Energy-OPLS-2005>
-358.163848876953

> <r_mmod_Solvation_Energy-OPLS-2005>
-240.561676025391

> <b_mmod_Minimization_Converged-OPLS-2005>
0

> <r_mmod_RMS_Derivative-OPLS-2005>
0.419799417257309

$$$$
10
                    3D
 Structure written by MMmdl.
153161  0  0  1  0            999 V2000
  -30.6156  -14.6308   20.4568 C   0  0  0  0  0  0
  -30.4496  -12.3738   19.4546 C   0  0  0  0  0  0
  -29.5214  -12.4817   18.2212 C   0  0  0  0  0  0
  -28.0414  -12.3111   18.6317 C   0  0  0  0  0  0
  -27.6517  -13.1970   19.8437 C   0  0  2  0  0  0
  -28.6965  -13.0769   20.9769 C   0  0  0  0  0  0
  -25.2598  -13.8098   20.5657 C   0  0  0  0  0  0
  -24.1853  -13.0410   20.9240 C   0  0  0  0  0  0
  -24.6385  -11.6879   20.8758 C   0  0  0  0  0  0
  -23.9042  -10.4281   21.0404 C   0  0  0  0  0  0
  -24.3587   -9.4201   21.9188 C   0  0  0  0  0  0
  -23.6273   -8.2233   22.0750 C   0  0  0  0  0  0
  -22.4262   -8.0274   21.3533 C   0  0  0  0  0  0
  -21.9895   -9.0252   20.4643 C   0  0  0  0  0  0
  -22.7210  -10.2132   20.3057 C   0  0  0  0  0  0
  -21.6840   -6.0735   22.5279 C   0  0  0  0  0  0
  -21.3996   -6.5635   23.8219 C   0  0  0  0  0  0
  -21.3663   -5.6782   24.9183 C   0  0  0  0  0  0
  -21.6052   -4.3052   24.7218 C   0  0  0  0  0  0
  -21.8816   -3.8145   23.4340 C   0  0  0  0  0  0
  -21.9197   -4.6966   22.3402 C   0  0  0  0  0  0
  -22.7883  -13.5236   21.1912 C   0  0  0  0  0  0
  -22.1664   -4.2152   21.0975 F   0  0  0  0  0  0
  -21.5648   -3.4538   25.7729 F   0  0  0  0  0  0
  -30.0222  -13.3967   20.4287 N   0  0  0  0  0  0
  -26.2992  -12.9241   20.3220 N   0  0  0  0  0  0
  -25.9304  -11.6425   20.5713 N   0  0  0  0  0  0
  -22.0480  -12.8234   22.0424 N   0  0  0  0  0  0
  -25.4326  -15.1803   20.4019 N   0  0  0  0  0  0
  -31.8161  -14.7560   20.1934 O   0  0  0  0  0  0
  -21.6621   -6.8870   21.4235 O   0  0  0  0  0  0
  -22.3614  -14.5581   20.6781 O   0  0  0  0  0  0
  -24.6150  -31.8647   23.2052 C   0  0  0  0  0  0
  -25.9027  -32.4799   23.8381 C   0  0  1  0  0  0
  -27.2320  -27.3971   20.0956 C   0  0  0  0  0  0
  -25.5869  -33.8599   24.2322 N   0  0  0  0  0  0
  -23.4057  -30.4874   21.5455 C   0  0  2  0  0  0
  -24.8494  -28.9361   20.1284 C   0  0  0  0  0  0
  -22.7391  -29.4664   22.4956 C   0  0  0  0  0  0
  -18.0258  -28.1375   22.8501 C   0  0  0  0  0  0
  -24.1453  -36.7274   23.2642 C   0  0  0  0  0  0
  -25.9362  -30.8179   21.3602 C   0  0  0  0  0  0
  -26.0156  -29.4424   20.7202 C   0  0  0  0  0  0
  -27.2121  -28.6812   20.6992 C   0  0  0  0  0  0
  -26.0476  -26.9089   19.5122 C   0  0  0  0  0  0
  -24.8579  -27.6638   19.5292 C   0  0  0  0  0  0
  -23.6161  -29.8136   20.1649 C   0  0  0  0  0  0
  -25.4092  -36.3091   24.0340 C   0  0  1  0  0  0
  -20.5863  -28.3662   23.1316 C   0  0  2  0  0  0
  -20.6728  -26.9387   22.5428 C   0  0  0  0  0  0
  -19.5714  -26.6409   21.5201 C   0  0  0  0  0  0
  -18.1896  -26.7942   22.1621 C   0  0  0  0  0  0
  -19.1519  -28.8828   23.2918 C   0  0  0  0  0  0
  -18.9464  -30.1442   23.8918 C   0  0  0  0  0  0
  -17.6477  -30.6595   24.0579 C   0  0  0  0  0  0
  -25.9017  -34.9462   23.5142 C   0  0  0  0  0  0
  -16.5354  -29.9119   23.6336 C   0  0  0  0  0  0
  -16.7262  -28.6534   23.0346 C   0  0  0  0  0  0
  -26.4449  -31.6555   25.0702 C   0  0  0  0  0  0
  -25.3740  -31.3697   26.1467 C   0  0  0  0  0  0
  -27.0255  -30.2998   24.6067 C   0  0  0  0  0  0
  -27.6026  -32.4254   25.7488 C   0  0  0  0  0  0
  -27.5556  -37.1790   24.8483 C   0  0  0  0  0  0
  -21.4112  -29.3047   22.3724 N   0  0  0  0  0  0
  -26.4261  -37.3799   23.9434 N   0  0  0  0  0  0
  -24.6707  -31.0745   22.0941 N   0  0  0  0  0  0
  -23.4134  -28.8186   23.3007 O   0  0  0  0  0  0
  -28.3863  -26.6512   19.9385 O   0  0  0  0  0  0
  -26.5599  -34.8937   22.4721 O   0  0  0  0  0  0
  -23.5335  -32.1368   23.7462 O   0  0  0  0  0  0
  -28.3355  -21.8165   22.9196 C   0  0  0  0  0  0
  -28.5526  -19.4057   22.6449 C   0  0  0  0  0  0
  -29.1405  -22.0441   21.7805 C   0  0  0  0  0  0
  -29.3647  -19.5742   21.4960 C   0  0  0  0  0  0
  -28.0433  -20.5110   23.3480 C   0  0  0  0  0  0
  -29.6405  -20.9144   21.0591 C   0  0  0  0  0  0
  -28.7200  -25.6712   20.8535 C   0  0  0  0  0  0
  -29.5851  -23.4713   21.6025 C   0  0  0  0  0  0
  -29.0349  -24.3807   20.5434 C   0  0  0  0  0  0
  -30.0710  -17.1535   21.2520 C   0  0  0  0  0  0
  -29.6987  -15.9177   20.3709 C   0  0  0  0  0  0
  -29.7993  -18.4007   20.7582 N   0  0  0  0  0  0
  -30.3795  -23.9336   22.4269 O   0  0  0  0  0  0
  -30.5290  -16.9974   22.3872 O   0  0  0  0  0  0
  -28.9277  -23.8962   19.2961 O   0  0  0  0  0  0
  -27.2835  -20.3183   24.4522 F   0  0  0  0  0  0
  -30.4145  -21.1082   19.9629 F   0  0  0  0  0  0
  -31.4925  -12.4978   19.1564 H   0  0  0  0  0  0
  -30.3839  -11.3807   19.9004 H   0  0  0  0  0  0
  -29.7925  -11.7237   17.4840 H   0  0  0  0  0  0
  -29.6640  -13.4451   17.7303 H   0  0  0  0  0  0
  -27.8938  -11.2606   18.8854 H   0  0  0  0  0  0
  -27.3848  -12.5151   17.7852 H   0  0  0  0  0  0
  -27.6544  -14.2162   19.4634 H   0  0  0  0  0  0
  -28.7026  -12.0644   21.3828 H   0  0  0  0  0  0
  -28.4471  -13.7340   21.8107 H   0  0  0  0  0  0
  -25.2716   -9.5695   22.4761 H   0  0  0  0  0  0
  -24.0005   -7.4610   22.7435 H   0  0  0  0  0  0
  -21.0847   -8.8764   19.8909 H   0  0  0  0  0  0
  -22.3677  -10.9685   19.6168 H   0  0  0  0  0  0
  -21.1955   -7.6137   23.9723 H   0  0  0  0  0  0
  -21.1499   -6.0505   25.9082 H   0  0  0  0  0  0
  -22.0587   -2.7610   23.2831 H   0  0  0  0  0  0
  -22.4064  -11.9915   22.4857 H   0  0  0  0  0  0
  -21.1076  -13.1258   22.2520 H   0  0  0  0  0  0
  -24.6554  -15.8246   20.4911 H   0  0  0  0  0  0
  -26.2620  -15.6142   20.0177 H   0  0  0  0  0  0
  -26.7091  -32.5505   23.1146 H   0  0  0  0  0  0
  -24.9987  -33.9780   25.0444 H   0  0  0  0  0  0
  -22.6979  -31.3044   21.4038 H   0  0  0  0  0  0
  -23.3710  -35.9603   23.3301 H   0  0  0  0  0  0
  -24.3544  -36.8875   22.2060 H   0  0  0  0  0  0
  -23.7207  -37.6502   23.6634 H   0  0  0  0  0  0
  -26.0440  -31.5725   20.5765 H   0  0  0  0  0  0
  -26.8261  -30.8828   21.9715 H   0  0  0  0  0  0
  -28.1202  -29.0827   21.1305 H   0  0  0  0  0  0
  -26.0519  -25.9434   19.0237 H   0  0  0  0  0  0
  -23.9630  -27.2637   19.0732 H   0  0  0  0  0  0
  -23.7300  -30.5816   19.3985 H   0  0  0  0  0  0
  -22.7352  -29.2396   19.8733 H   0  0  0  0  0  0
  -25.1265  -36.1928   25.0826 H   0  0  0  0  0  0
  -20.9983  -28.3188   24.1423 H   0  0  0  0  0  0
  -20.5566  -26.2264   23.3602 H   0  0  0  0  0  0
  -21.6616  -26.7395   22.1267 H   0  0  0  0  0  0
  -19.6861  -25.6334   21.1197 H   0  0  0  0  0  0
  -19.6652  -27.3254   20.6752 H   0  0  0  0  0  0
  -17.4171  -26.6662   21.4021 H   0  0  0  0  0  0
  -18.0302  -26.0108   22.9049 H   0  0  0  0  0  0
  -19.7952  -30.7260   24.2256 H   0  0  0  0  0  0
  -17.5052  -31.6275   24.5193 H   0  0  0  0  0  0
  -15.5365  -30.3043   23.7673 H   0  0  0  0  0  0
  -15.8645  -28.0901   22.7018 H   0  0  0  0  0  0
  -24.5985  -30.6893   25.7900 H   0  0  0  0  0  0
  -24.8831  -32.2854   26.4792 H   0  0  0  0  0  0
  -25.8159  -30.9070   27.0290 H   0  0  0  0  0  0
  -26.2797  -29.6789   24.1082 H   0  0  0  0  0  0
  -27.3990  -29.7203   25.4516 H   0  0  0  0  0  0
  -27.8630  -30.4309   23.9201 H   0  0  0  0  0  0
  -27.2657  -33.3600   26.1990 H   0  0  0  0  0  0
  -28.3907  -32.6708   25.0342 H   0  0  0  0  0  0
  -28.0547  -31.8379   26.5478 H   0  0  0  0  0  0
  -28.2615  -38.0057   24.7531 H   0  0  0  0  0  0
  -28.1005  -36.2614   24.6283 H   0  0  0  0  0  0
  -27.2284  -37.1418   25.8887 H   0  0  0  0  0  0
  -20.9183  -29.8793   21.7029 H   0  0  0  0  0  0
  -26.0107  -38.2836   24.1516 H   0  0  0  0  0  0
  -27.9690  -22.6502   23.5036 H   0  0  0  0  0  0
  -28.2906  -18.4220   23.0058 H   0  0  0  0  0  0
  -28.7655  -26.0752   21.8559 H   0  0  0  0  0  0
  -29.6681  -16.2244   19.3263 H   0  0  0  0  0  0
  -28.6757  -15.6912   20.6529 H   0  0  0  0  0  0
  -29.7281  -18.4830   19.7519 H   0  0  0  0  0  0
  -29.3535  -23.0451   19.2812 H   0  0  0  0  0  0
  1 25  1  0  0  0
  1 30  2  0  0  0
  1 81  1  0  0  0
  2  3  1  0  0  0
  2 25  1  0  0  0
  2 88  1  0  0  0
  2 89  1  0  0  0
  3  4  1  0  0  0
  3 90  1  0  0  0
  3 91  1  0  0  0
  4  5  1  0  0  0
  4 92  1  0  0  0
  4 93  1  0  0  0
  5  6  1  0  0  0
  5 26  1  0  0  0
  5 94  1  0  0  0
  6 25  1  0  0  0
  6 95  1  0  0  0
  6 96  1  0  0  0
  7  8  2  0  0  0
  7 26  1  0  0  0
  7 29  1  0  0  0
  8  9  1  0  0  0
  8 22  1  0  0  0
  9 10  1  0  0  0
  9 27  2  0  0  0
 10 11  2  0  0  0
 10 15  1  0  0  0
 11 12  1  0  0  0
 11 97  1  0  0  0
 12 13  2  0  0  0
 12 98  1  0  0  0
 13 14  1  0  0  0
 13 31  1  0  0  0
 14 15  2  0  0  0
 14 99  1  0  0  0
 15100  1  0  0  0
 16 17  2  0  0  0
 16 21  1  0  0  0
 16 31  1  0  0  0
 17 18  1  0  0  0
 17101  1  0  0  0
 18 19  2  0  0  0
 18102  1  0  0  0
 19 20  1  0  0  0
 19 24  1  0  0  0
 20 21  2  0  0  0
 20103  1  0  0  0
 21 23  1  0  0  0
 22 28  1  0  0  0
 22 32  2  0  0  0
 26 27  1  0  0  0
 28104  1  0  0  0
 28105  1  0  0  0
 29106  1  0  0  0
 29107  1  0  0  0
 33 34  1  0  0  0
 33 66  1  0  0  0
 33 70  2  0  0  0
 34 36  1  0  0  0
 34 59  1  0  0  0
 34108  1  0  0  0
 35 44  2  0  0  0
 35 45  1  0  0  0
 35 68  1  0  0  0
 36 56  1  0  0  0
 36109  1  0  0  0
 37 39  1  0  0  0
 37 47  1  0  0  0
 37 66  1  0  0  0
 37110  1  0  0  0
 38 43  2  0  0  0
 38 46  1  0  0  0
 38 47  1  0  0  0
 39 64  1  0  0  0
 39 67  2  0  0  0
 40 52  1  0  0  0
 40 53  2  0  0  0
 40 58  1  0  0  0
 41111  1  0  0  0
 41112  1  0  0  0
 41113  1  0  0  0
 41 48  1  0  0  0
 42 43  1  0  0  0
 42 66  1  0  0  0
 42114  1  0  0  0
 42115  1  0  0  0
 43 44  1  0  0  0
 44116  1  0  0  0
 45 46  2  0  0  0
 45117  1  0  0  0
 46118  1  0  0  0
 47119  1  0  0  0
 47120  1  0  0  0
 48 56  1  0  0  0
 48 65  1  0  0  0
 48121  1  0  0  0
 49 50  1  0  0  0
 49 53  1  0  0  0
 49 64  1  0  0  0
 49122  1  0  0  0
 50 51  1  0  0  0
 50123  1  0  0  0
 50124  1  0  0  0
 51 52  1  0  0  0
 51125  1  0  0  0
 51126  1  0  0  0
 52127  1  0  0  0
 52128  1  0  0  0
 53 54  1  0  0  0
 54 55  2  0  0  0
 54129  1  0  0  0
 55 57  1  0  0  0
 55130  1  0  0  0
 56 69  2  0  0  0
 57 58  2  0  0  0
 57131  1  0  0  0
 58132  1  0  0  0
 59 60  1  0  0  0
 59 61  1  0  0  0
 59 62  1  0  0  0
 60133  1  0  0  0
 60134  1  0  0  0
 60135  1  0  0  0
 61136  1  0  0  0
 61137  1  0  0  0
 61138  1  0  0  0
 62139  1  0  0  0
 62140  1  0  0  0
 62141  1  0  0  0
 63 65  1  0  0  0
 63142  1  0  0  0
 63143  1  0  0  0
 63144  1  0  0  0
 64145  1  0  0  0
 65146  1  0  0  0
 68 77  1  0  0  0
 71 73  2  0  0  0
 71 75  1  0  0  0
 71147  1  0  0  0
 72 74  1  0  0  0
 72 75  2  0  0  0
 72148  1  0  0  0
 73 76  1  0  0  0
 73 78  1  0  0  0
 74 76  2  0  0  0
 74 82  1  0  0  0
 75 86  1  0  0  0
 76 87  1  0  0  0
 77 79  2  0  0  0
 77149  1  0  0  0
 78 79  1  0  0  0
 78 83  2  0  0  0
 79 85  1  0  0  0
 80 81  1  0  0  0
 80 82  1  0  0  0
 80 84  2  0  0  0
 81150  1  0  0  0
 81151  1  0  0  0
 82152  1  0  0  0
 85153  1  0  0  0
M  ISO  4   1 100  68 101  77 101  81 100
M  END
> <chiral flag>
0

> <version>
0

> <s_m_source_file>
/data/baiqing/PycharmProjects/Reinvent-master-3.2/result/LINK_invent/BTK/process_docking_weight1_custom_product_contain_oxygen_bond_distance_aromatic_linkinvent_7_9_3/rearranged_h_0171.sdf

> <i_m_source_file_index>
11

> <r_mmod_Potential_Energy-OPLS-2005>
57.0006942749023

> <r_mmod_Stretch_Energy-OPLS-2005>
56.7783851623535

> <r_mmod_Bend_Energy-OPLS-2005>
130.012557983398

> <r_mmod_Torsional_Energy-OPLS-2005>
291.145904541016

> <r_mmod_Improper_Torsional_Energy-OPLS-2005>
15.9658536911011

> <r_mmod_Van_der_Waal_Energy-OPLS-2005>
137.187927246094

> <r_mmod_Electrostatic_Energy-OPLS-2005>
-368.829467773438

> <r_mmod_Solvation_Energy-OPLS-2005>
-241.513748168945

> <b_mmod_Minimization_Converged-OPLS-2005>
0

> <r_mmod_RMS_Derivative-OPLS-2005>
4.37132835388184

$$$$
11
                    3D
 Structure written by MMmdl.
167175  0  0  1  0            999 V2000
  -30.7305  -14.4955   20.5577 C   0  0  0  0  0  0
  -30.4107  -12.3200   19.4344 C   0  0  0  0  0  0
  -29.4906  -12.5004   18.2111 C   0  0  0  0  0  0
  -28.0139  -12.3610   18.6248 C   0  0  0  0  0  0
  -27.6557  -13.2175   19.8697 C   0  0  2  0  0  0
  -28.7000  -13.0441   20.9970 C   0  0  0  0  0  0
  -25.2559  -13.8186   20.5694 C   0  0  0  0  0  0
  -24.1823  -13.0447   20.9178 C   0  0  0  0  0  0
  -24.6393  -11.6919   20.8737 C   0  0  0  0  0  0
  -23.9067  -10.4299   21.0400 C   0  0  0  0  0  0
  -24.3617   -9.4213   21.9180 C   0  0  0  0  0  0
  -23.6292   -8.2248   22.0754 C   0  0  0  0  0  0
  -22.4275   -8.0283   21.3543 C   0  0  0  0  0  0
  -21.9912   -9.0254   20.4645 C   0  0  0  0  0  0
  -22.7239  -10.2135   20.3050 C   0  0  0  0  0  0
  -21.6853   -6.0736   22.5277 C   0  0  0  0  0  0
  -21.4013   -6.5639   23.8210 C   0  0  0  0  0  0
  -21.3657   -5.6792   24.9172 C   0  0  0  0  0  0
  -21.6044   -4.3056   24.7224 C   0  0  0  0  0  0
  -21.8820   -3.8148   23.4346 C   0  0  0  0  0  0
  -21.9193   -4.6963   22.3401 C   0  0  0  0  0  0
  -22.7844  -13.5234   21.1840 C   0  0  0  0  0  0
  -22.1662   -4.2149   21.0978 F   0  0  0  0  0  0
  -21.5629   -3.4539   25.7738 F   0  0  0  0  0  0
  -30.0274  -13.3341   20.4337 N   0  0  0  0  0  0
  -26.2999  -12.9376   20.3367 N   0  0  0  0  0  0
  -25.9326  -11.6525   20.5777 N   0  0  0  0  0  0
  -22.0489  -12.8221   22.0395 N   0  0  0  0  0  0
  -25.4276  -15.1908   20.4125 N   0  0  0  0  0  0
  -31.8581  -14.6171   20.0747 O   0  0  0  0  0  0
  -21.6641   -6.8881   21.4240 O   0  0  0  0  0  0
  -22.3528  -14.5542   20.6695 O   0  0  0  0  0  0
  -24.6172  -31.8660   23.2091 C   0  0  0  0  0  0
  -25.9053  -32.4816   23.8392 C   0  0  1  0  0  0
  -27.2275  -27.4122   20.1023 C   0  0  0  0  0  0
  -25.5900  -33.8612   24.2322 N   0  0  0  0  0  0
  -23.4069  -30.4903   21.5496 C   0  0  2  0  0  0
  -24.8545  -28.9576   20.1105 C   0  0  0  0  0  0
  -22.7429  -29.4649   22.4972 C   0  0  0  0  0  0
  -18.0274  -28.1377   22.8494 C   0  0  0  0  0  0
  -24.1485  -36.7303   23.2640 C   0  0  0  0  0  0
  -25.9385  -30.8263   21.3654 C   0  0  0  0  0  0
  -26.0176  -29.4606   20.7095 C   0  0  0  0  0  0
  -27.2115  -28.6958   20.7002 C   0  0  0  0  0  0
  -26.0518  -26.9381   19.4815 C   0  0  0  0  0  0
  -24.8677  -27.6970   19.4908 C   0  0  0  0  0  0
  -23.6165  -29.8256   20.1633 C   0  0  0  0  0  0
  -25.4106  -36.3103   24.0343 C   0  0  1  0  0  0
  -20.5869  -28.3666   23.1308 C   0  0  2  0  0  0
  -20.6767  -26.9401   22.5413 C   0  0  0  0  0  0
  -19.5745  -26.6388   21.5209 C   0  0  0  0  0  0
  -18.1922  -26.7923   22.1623 C   0  0  0  0  0  0
  -19.1527  -28.8837   23.2894 C   0  0  0  0  0  0
  -18.9457  -30.1441   23.8909 C   0  0  0  0  0  0
  -17.6460  -30.6585   24.0566 C   0  0  0  0  0  0
  -25.9041  -34.9471   23.5131 C   0  0  0  0  0  0
  -16.5349  -29.9088   23.6332 C   0  0  0  0  0  0
  -16.7264  -28.6503   23.0361 C   0  0  0  0  0  0
  -26.4474  -31.6597   25.0722 C   0  0  0  0  0  0
  -25.3737  -31.3690   26.1466 C   0  0  0  0  0  0
  -27.0320  -30.3048   24.6092 C   0  0  0  0  0  0
  -27.6048  -32.4315   25.7488 C   0  0  0  0  0  0
  -27.5575  -37.1800   24.8467 C   0  0  0  0  0  0
  -21.4155  -29.3030   22.3712 N   0  0  0  0  0  0
  -26.4288  -37.3794   23.9416 N   0  0  0  0  0  0
  -24.6727  -31.0748   22.0998 N   0  0  0  0  0  0
  -23.4187  -28.8190   23.3025 O   0  0  0  0  0  0
  -28.3440  -26.5991   20.1396 O   0  0  0  0  0  0
  -26.5603  -34.8926   22.4692 O   0  0  0  0  0  0
  -23.5359  -32.1411   23.7478 O   0  0  0  0  0  0
  -31.5722  -19.5586   21.5740 C   0  0  0  0  0  0
  -31.9753  -17.1585   21.4602 C   0  0  0  0  0  0
  -30.1882  -19.3601   21.3711 C   0  0  0  0  0  0
  -30.5989  -16.9068   21.2335 C   0  0  0  0  0  0
  -32.4557  -18.4693   21.6190 C   0  0  0  0  0  0
  -29.7099  -18.0211   21.2034 C   0  0  0  0  0  0
  -29.3043  -20.5517   21.4716 C   0  0  0  0  0  0
  -29.0593  -24.2082   20.5757 C   0  0  0  0  0  0
  -29.0499  -22.6872   24.8545 C   0  0  0  0  0  0
  -31.4932  -23.3138   24.8997 C   0  0  0  0  0  0
  -28.1045  -25.3877   20.9000 C   0  0  0  0  0  0
  -30.1703  -23.6577   22.7710 C   0  0  0  0  0  0
  -29.2068  -23.1159   21.6782 C   0  0  2  0  0  0
  -30.3441  -22.7799   24.0304 C   0  0  0  0  0  0
  -30.0861  -15.5618   21.0898 N   0  0  0  0  0  0
  -29.7381  -21.8060   21.1752 N   0  0  0  0  0  0
  -28.0785  -20.4245   21.9816 N   0  3  0  0  0  0
  -29.6716  -24.1539   19.5047 O   0  0  0  0  0  0
  -33.7747  -18.6844   21.8407 F   0  0  0  0  0  0
  -28.3833  -17.7830   21.0468 F   0  0  0  0  0  0
  -31.4568  -12.3940   19.1329 H   0  0  0  0  0  0
  -30.2976  -11.3193   19.8547 H   0  0  0  0  0  0
  -29.7337  -11.7642   17.4438 H   0  0  0  0  0  0
  -29.6574  -13.4800   17.7601 H   0  0  0  0  0  0
  -27.8290  -11.3066   18.8349 H   0  0  0  0  0  0
  -27.3625  -12.6212   17.7894 H   0  0  0  0  0  0
  -27.6864  -14.2590   19.5489 H   0  0  0  0  0  0
  -28.6799  -12.0234   21.3816 H   0  0  0  0  0  0
  -28.4641  -13.6855   21.8471 H   0  0  0  0  0  0
  -25.2763   -9.5687   22.4756 H   0  0  0  0  0  0
  -23.9999   -7.4640   22.7477 H   0  0  0  0  0  0
  -21.0844   -8.8771   19.8949 H   0  0  0  0  0  0
  -22.3699  -10.9670   19.6157 H   0  0  0  0  0  0
  -21.2004   -7.6147   23.9712 H   0  0  0  0  0  0
  -21.1477   -6.0522   25.9072 H   0  0  0  0  0  0
  -22.0603   -2.7609   23.2845 H   0  0  0  0  0  0
  -22.4103  -11.9871   22.4765 H   0  0  0  0  0  0
  -21.1106  -13.1242   22.2607 H   0  0  0  0  0  0
  -24.6626  -15.8463   20.5284 H   0  0  0  0  0  0
  -26.2849  -15.6360   20.1095 H   0  0  0  0  0  0
  -26.7125  -32.5529   23.1159 H   0  0  0  0  0  0
  -25.0056  -33.9773   25.0468 H   0  0  0  0  0  0
  -22.6969  -31.3080   21.4109 H   0  0  0  0  0  0
  -23.3753  -35.9631   23.3313 H   0  0  0  0  0  0
  -24.3574  -36.8908   22.2050 H   0  0  0  0  0  0
  -23.7226  -37.6506   23.6651 H   0  0  0  0  0  0
  -26.0515  -31.5937   20.5980 H   0  0  0  0  0  0
  -26.8258  -30.8789   21.9847 H   0  0  0  0  0  0
  -28.1059  -29.0721   21.1766 H   0  0  0  0  0  0
  -26.0457  -25.9707   18.9995 H   0  0  0  0  0  0
  -23.9762  -27.3060   19.0203 H   0  0  0  0  0  0
  -23.7251  -30.6021   19.4053 H   0  0  0  0  0  0
  -22.7406  -29.2458   19.8677 H   0  0  0  0  0  0
  -25.1278  -36.1971   25.0836 H   0  0  0  0  0  0
  -20.9951  -28.3235   24.1431 H   0  0  0  0  0  0
  -20.5675  -26.2273   23.3600 H   0  0  0  0  0  0
  -21.6634  -26.7447   22.1196 H   0  0  0  0  0  0
  -19.6909  -25.6304   21.1228 H   0  0  0  0  0  0
  -19.6690  -27.3209   20.6747 H   0  0  0  0  0  0
  -17.4190  -26.6677   21.4024 H   0  0  0  0  0  0
  -18.0316  -26.0059   22.9014 H   0  0  0  0  0  0
  -19.7941  -30.7244   24.2289 H   0  0  0  0  0  0
  -17.5028  -31.6275   24.5155 H   0  0  0  0  0  0
  -15.5356  -30.2997   23.7659 H   0  0  0  0  0  0
  -15.8661  -28.0829   22.7077 H   0  0  0  0  0  0
  -24.5921  -30.7029   25.7789 H   0  0  0  0  0  0
  -24.8919  -32.2841   26.4922 H   0  0  0  0  0  0
  -25.8086  -30.8851   27.0220 H   0  0  0  0  0  0
  -26.2866  -29.6797   24.1162 H   0  0  0  0  0  0
  -27.4117  -29.7290   25.4542 H   0  0  0  0  0  0
  -27.8686  -30.4383   23.9230 H   0  0  0  0  0  0
  -27.2670  -33.3611   26.2084 H   0  0  0  0  0  0
  -28.3852  -32.6876   25.0309 H   0  0  0  0  0  0
  -28.0723  -31.8427   26.5391 H   0  0  0  0  0  0
  -28.2590  -38.0100   24.7523 H   0  0  0  0  0  0
  -28.1071  -36.2628   24.6287 H   0  0  0  0  0  0
  -27.2293  -37.1444   25.8870 H   0  0  0  0  0  0
  -20.9313  -29.8759   21.6942 H   0  0  0  0  0  0
  -26.0180  -38.2871   24.1430 H   0  0  0  0  0  0
  -31.9774  -20.5460   21.7405 H   0  0  0  0  0  0
  -32.6917  -16.3563   21.5360 H   0  0  0  0  0  0
  -29.1934  -22.0675   25.7404 H   0  0  0  0  0  0
  -28.2353  -22.2425   24.2837 H   0  0  0  0  0  0
  -28.7209  -23.6706   25.1917 H   0  0  0  0  0  0
  -31.6535  -22.6844   25.7758 H   0  0  0  0  0  0
  -31.2916  -24.3265   25.2515 H   0  0  0  0  0  0
  -32.4318  -23.3392   24.3448 H   0  0  0  0  0  0
  -28.1848  -25.6294   21.9595 H   0  0  0  0  0  0
  -27.0914  -25.0160   20.7519 H   0  0  0  0  0  0
  -29.8489  -24.6490   23.0950 H   0  0  0  0  0  0
  -31.1510  -23.8141   22.3171 H   0  0  0  0  0  0
  -28.2206  -22.9641   22.1153 H   0  0  0  0  0  0
  -30.6273  -21.7712   23.7299 H   0  0  0  0  0  0
  -29.1127  -15.4293   21.3173 H   0  0  0  0  0  0
  -30.5330  -21.8758   20.5511 H   0  0  0  0  0  0
  -27.7155  -19.4939   22.1329 H   0  0  0  0  0  0
  -27.4552  -21.2083   22.0584 H   0  0  0  0  0  0
  1 25  1  0  0  0
  1 30  2  0  0  0
  1 85  1  0  0  0
  2  3  1  0  0  0
  2 25  1  0  0  0
  2 91  1  0  0  0
  2 92  1  0  0  0
  3  4  1  0  0  0
  3 93  1  0  0  0
  3 94  1  0  0  0
  4  5  1  0  0  0
  4 95  1  0  0  0
  4 96  1  0  0  0
  5  6  1  0  0  0
  5 26  1  0  0  0
  5 97  1  0  0  0
  6 25  1  0  0  0
  6 98  1  0  0  0
  6 99  1  0  0  0
  7  8  2  0  0  0
  7 26  1  0  0  0
  7 29  1  0  0  0
  8  9  1  0  0  0
  8 22  1  0  0  0
  9 10  1  0  0  0
  9 27  2  0  0  0
 10 11  2  0  0  0
 10 15  1  0  0  0
 11 12  1  0  0  0
 11100  1  0  0  0
 12 13  2  0  0  0
 12101  1  0  0  0
 13 14  1  0  0  0
 13 31  1  0  0  0
 14 15  2  0  0  0
 14102  1  0  0  0
 15103  1  0  0  0
 16 17  2  0  0  0
 16 21  1  0  0  0
 16 31  1  0  0  0
 17 18  1  0  0  0
 17104  1  0  0  0
 18 19  2  0  0  0
 18105  1  0  0  0
 19 20  1  0  0  0
 19 24  1  0  0  0
 20 21  2  0  0  0
 20106  1  0  0  0
 21 23  1  0  0  0
 22 28  1  0  0  0
 22 32  2  0  0  0
 26 27  1  0  0  0
 28107  1  0  0  0
 28108  1  0  0  0
 29109  1  0  0  0
 29110  1  0  0  0
 33 34  1  0  0  0
 33 66  1  0  0  0
 33 70  2  0  0  0
 34 36  1  0  0  0
 34 59  1  0  0  0
 34111  1  0  0  0
 35 44  2  0  0  0
 35 45  1  0  0  0
 35 68  1  0  0  0
 36 56  1  0  0  0
 36112  1  0  0  0
 37 39  1  0  0  0
 37 47  1  0  0  0
 37 66  1  0  0  0
 37113  1  0  0  0
 38 43  2  0  0  0
 38 46  1  0  0  0
 38 47  1  0  0  0
 39 64  1  0  0  0
 39 67  2  0  0  0
 40 52  1  0  0  0
 40 53  2  0  0  0
 40 58  1  0  0  0
 41114  1  0  0  0
 41115  1  0  0  0
 41116  1  0  0  0
 41 48  1  0  0  0
 42 43  1  0  0  0
 42 66  1  0  0  0
 42117  1  0  0  0
 42118  1  0  0  0
 43 44  1  0  0  0
 44119  1  0  0  0
 45 46  2  0  0  0
 45120  1  0  0  0
 46121  1  0  0  0
 47122  1  0  0  0
 47123  1  0  0  0
 48 56  1  0  0  0
 48 65  1  0  0  0
 48124  1  0  0  0
 49 50  1  0  0  0
 49 53  1  0  0  0
 49 64  1  0  0  0
 49125  1  0  0  0
 50 51  1  0  0  0
 50126  1  0  0  0
 50127  1  0  0  0
 51 52  1  0  0  0
 51128  1  0  0  0
 51129  1  0  0  0
 52130  1  0  0  0
 52131  1  0  0  0
 53 54  1  0  0  0
 54 55  2  0  0  0
 54132  1  0  0  0
 55 57  1  0  0  0
 55133  1  0  0  0
 56 69  2  0  0  0
 57 58  2  0  0  0
 57134  1  0  0  0
 58135  1  0  0  0
 59 60  1  0  0  0
 59 61  1  0  0  0
 59 62  1  0  0  0
 60136  1  0  0  0
 60137  1  0  0  0
 60138  1  0  0  0
 61139  1  0  0  0
 61140  1  0  0  0
 61141  1  0  0  0
 62142  1  0  0  0
 62143  1  0  0  0
 62144  1  0  0  0
 63 65  1  0  0  0
 63145  1  0  0  0
 63146  1  0  0  0
 63147  1  0  0  0
 64148  1  0  0  0
 65149  1  0  0  0
 68 81  1  0  0  0
 71 73  2  0  0  0
 71 75  1  0  0  0
 71150  1  0  0  0
 72 74  1  0  0  0
 72 75  2  0  0  0
 72151  1  0  0  0
 73 76  1  0  0  0
 73 77  1  0  0  0
 74 76  2  0  0  0
 74 85  1  0  0  0
 75 89  1  0  0  0
 76 90  1  0  0  0
 77 86  1  0  0  0
 77 87  2  0  0  0
 78 81  1  0  0  0
 78 83  1  0  0  0
 78 88  2  0  0  0
 79152  1  0  0  0
 79153  1  0  0  0
 79154  1  0  0  0
 79 84  1  0  0  0
 80 84  1  0  0  0
 80155  1  0  0  0
 80156  1  0  0  0
 80157  1  0  0  0
 81158  1  0  0  0
 81159  1  0  0  0
 82 84  1  0  0  0
 82160  1  0  0  0
 82161  1  0  0  0
 82 83  1  0  0  0
 83 86  1  0  0  0
 83162  1  0  0  0
 84163  1  0  0  0
 85164  1  0  0  0
 86165  1  0  0  0
 87166  1  0  0  0
 87167  1  0  0  0
M  CHG  1  87   1
M  ISO  4   1 100  68 101  81 101  85 100
M  END
> <chiral flag>
0

> <version>
0

> <s_m_source_file>
/data/baiqing/PycharmProjects/Reinvent-master-3.2/result/LINK_invent/BTK/process_docking_weight1_custom_product_contain_oxygen_bond_distance_aromatic_linkinvent_7_9_3/rearranged_h_0171.sdf

> <i_m_source_file_index>
12

> <r_mmod_Potential_Energy-OPLS-2005>
-310.887268066406

> <r_mmod_Stretch_Energy-OPLS-2005>
49.0034141540527

> <r_mmod_Bend_Energy-OPLS-2005>
104.383903503418

> <r_mmod_Torsional_Energy-OPLS-2005>
253.773040771484

> <r_mmod_Improper_Torsional_Energy-OPLS-2005>
5.21882152557373

> <r_mmod_Van_der_Waal_Energy-OPLS-2005>
156.600372314453

> <r_mmod_Electrostatic_Energy-OPLS-2005>
-451.341247558594

> <r_mmod_Solvation_Energy-OPLS-2005>
-447.943206787109

> <b_mmod_Minimization_Converged-OPLS-2005>
0

> <r_mmod_RMS_Derivative-OPLS-2005>
0.838134944438934

$$$$
12
                    3D
 Structure written by MMmdl.
154162  0  0  1  0            999 V2000
  -30.6519  -14.5892   20.4137 C   0  0  0  0  0  0
  -30.4299  -12.3538   19.4270 C   0  0  0  0  0  0
  -29.4989  -12.4799   18.1998 C   0  0  0  0  0  0
  -28.0207  -12.3336   18.6185 C   0  0  0  0  0  0
  -27.6497  -13.2108   19.8445 C   0  0  2  0  0  0
  -28.7022  -13.0799   20.9703 C   0  0  0  0  0  0
  -25.2603  -13.8134   20.5629 C   0  0  0  0  0  0
  -24.1802  -13.0434   20.9081 C   0  0  0  0  0  0
  -24.6356  -11.6895   20.8664 C   0  0  0  0  0  0
  -23.8976  -10.4296   21.0375 C   0  0  0  0  0  0
  -24.3531   -9.4231   21.9180 C   0  0  0  0  0  0
  -23.6236   -8.2250   22.0755 C   0  0  0  0  0  0
  -22.4217   -8.0259   21.3545 C   0  0  0  0  0  0
  -21.9810   -9.0240   20.4665 C   0  0  0  0  0  0
  -22.7115  -10.2126   20.3077 C   0  0  0  0  0  0
  -21.6846   -6.0704   22.5234 C   0  0  0  0  0  0
  -21.4028   -6.5616   23.8172 C   0  0  0  0  0  0
  -21.3646   -5.6768   24.9138 C   0  0  0  0  0  0
  -21.6043   -4.3030   24.7169 C   0  0  0  0  0  0
  -21.8845   -3.8126   23.4285 C   0  0  0  0  0  0
  -21.9177   -4.6939   22.3352 C   0  0  0  0  0  0
  -22.7869  -13.5291   21.1756 C   0  0  0  0  0  0
  -22.1666   -4.2157   21.0917 F   0  0  0  0  0  0
  -21.5611   -3.4492   25.7655 F   0  0  0  0  0  0
  -30.0175  -13.3842   20.3935 N   0  0  0  0  0  0
  -26.2974  -12.9290   20.3229 N   0  0  0  0  0  0
  -25.9282  -11.6452   20.5695 N   0  0  0  0  0  0
  -22.0482  -12.8382   22.0336 N   0  0  0  0  0  0
  -25.4459  -15.1836   20.4036 N   0  0  0  0  0  0
  -31.8500  -14.6928   20.1573 O   0  0  0  0  0  0
  -21.6650   -6.8829   21.4183 O   0  0  0  0  0  0
  -22.3593  -14.5604   20.6569 O   0  0  0  0  0  0
  -24.6212  -31.8686   23.2109 C   0  0  0  0  0  0
  -25.9102  -32.4802   23.8388 C   0  0  1  0  0  0
  -27.2173  -27.3937   20.0974 C   0  0  0  0  0  0
  -25.5977  -33.8606   24.2340 N   0  0  0  0  0  0
  -23.4053  -30.4929   21.5580 C   0  0  2  0  0  0
  -24.8405  -28.9550   20.1107 C   0  0  0  0  0  0
  -22.7460  -29.4672   22.5072 C   0  0  0  0  0  0
  -18.0297  -28.1379   22.8454 C   0  0  0  0  0  0
  -24.1504  -36.7295   23.2640 C   0  0  0  0  0  0
  -25.9396  -30.8153   21.3729 C   0  0  0  0  0  0
  -26.0062  -29.4515   20.7093 C   0  0  0  0  0  0
  -27.1957  -28.6842   20.6906 C   0  0  0  0  0  0
  -26.0270  -26.9148   19.5040 C   0  0  0  0  0  0
  -24.8514  -27.6879   19.5032 C   0  0  0  0  0  0
  -23.6040  -29.8294   20.1687 C   0  0  0  0  0  0
  -25.4129  -36.3119   24.0342 C   0  0  1  0  0  0
  -20.5872  -28.3688   23.1309 C   0  0  2  0  0  0
  -20.6791  -26.9428   22.5436 C   0  0  0  0  0  0
  -19.5775  -26.6370   21.5233 C   0  0  0  0  0  0
  -18.1921  -26.7943   22.1565 C   0  0  0  0  0  0
  -19.1540  -28.8861   23.2863 C   0  0  0  0  0  0
  -18.9455  -30.1461   23.8878 C   0  0  0  0  0  0
  -17.6457  -30.6560   24.0558 C   0  0  0  0  0  0
  -25.9082  -34.9471   23.5149 C   0  0  0  0  0  0
  -16.5361  -29.9055   23.6326 C   0  0  0  0  0  0
  -16.7276  -28.6481   23.0333 C   0  0  0  0  0  0
  -26.4482  -31.6581   25.0732 C   0  0  0  0  0  0
  -25.3715  -31.3703   26.1465 C   0  0  0  0  0  0
  -27.0289  -30.2992   24.6165 C   0  0  0  0  0  0
  -27.6111  -32.4284   25.7425 C   0  0  0  0  0  0
  -27.5628  -37.1792   24.8456 C   0  0  0  0  0  0
  -21.4206  -29.3028   22.3742 N   0  0  0  0  0  0
  -26.4323  -37.3797   23.9419 N   0  0  0  0  0  0
  -24.6736  -31.0753   22.1034 N   0  0  0  0  0  0
  -23.4224  -28.8256   23.3151 O   0  0  0  0  0  0
  -28.3931  -26.6579   20.1124 O   0  0  0  0  0  0
  -26.5640  -34.8930   22.4706 O   0  0  0  0  0  0
  -23.5410  -32.1515   23.7487 O   0  0  0  0  0  0
  -29.2904  -18.1343   20.3050 C   0  0  0  0  0  0
  -30.8819  -17.1523   18.7480 C   0  0  0  0  0  0
  -30.0263  -16.9869   19.8646 C   0  0  0  0  0  0
  -29.4223  -19.4152   19.6711 C   0  0  0  0  0  0
  -30.2836  -19.5263   18.5406 C   0  0  0  0  0  0
  -31.0166  -18.3963   18.1037 C   0  0  0  0  0  0
  -27.7194  -22.8072   20.4312 C   0  0  0  0  0  0
  -28.9409  -21.8548   20.1605 C   0  0  0  0  0  0
  -27.9878  -24.2798   20.8430 C   0  0  0  0  0  0
  -28.4102  -25.2641   19.7109 C   0  0  0  0  0  0
  -28.6180  -20.5353   20.1211 N   0  0  0  0  0  0
  -29.8390  -15.6845   20.4857 N   0  0  0  0  0  0
  -26.5566  -22.3974   20.3419 O   0  0  0  0  0  0
  -30.0815  -22.2950   19.9799 O   0  0  0  0  0  0
  -30.4078  -20.6872   17.8190 O   0  0  0  0  0  0
  -31.8544  -18.5089   17.0431 F   0  0  0  0  0  0
  -31.4726  -12.4611   19.1196 H   0  0  0  0  0  0
  -30.3573  -11.3700   19.8856 H   0  0  0  0  0  0
  -29.7532  -11.7238   17.4520 H   0  0  0  0  0  0
  -29.6430  -13.4450   17.7143 H   0  0  0  0  0  0
  -27.8374  -11.2813   18.8395 H   0  0  0  0  0  0
  -27.3772  -12.5930   17.7765 H   0  0  0  0  0  0
  -27.6588  -14.2394   19.4825 H   0  0  0  0  0  0
  -28.7046  -12.0663   21.3678 H   0  0  0  0  0  0
  -28.4721  -13.7342   21.8136 H   0  0  0  0  0  0
  -25.2670   -9.5710   22.4759 H   0  0  0  0  0  0
  -23.9950   -7.4638   22.7482 H   0  0  0  0  0  0
  -21.0729   -8.8741   19.8989 H   0  0  0  0  0  0
  -22.3558  -10.9648   19.6203 H   0  0  0  0  0  0
  -21.2115   -7.6146   23.9669 H   0  0  0  0  0  0
  -21.1430   -6.0520   25.9033 H   0  0  0  0  0  0
  -22.0658   -2.7594   23.2800 H   0  0  0  0  0  0
  -22.4017  -12.0016   22.4727 H   0  0  0  0  0  0
  -21.1166  -13.1580   22.2565 H   0  0  0  0  0  0
  -24.7018  -15.8624   20.5066 H   0  0  0  0  0  0
  -26.3020  -15.5816   20.0381 H   0  0  0  0  0  0
  -26.7158  -32.5468   23.1128 H   0  0  0  0  0  0
  -25.0162  -33.9729   25.0516 H   0  0  0  0  0  0
  -22.6921  -31.3115   21.4332 H   0  0  0  0  0  0
  -23.3793  -35.9604   23.3278 H   0  0  0  0  0  0
  -24.3626  -36.8931   22.2066 H   0  0  0  0  0  0
  -23.7206  -37.6465   23.6671 H   0  0  0  0  0  0
  -26.0810  -31.5883   20.6159 H   0  0  0  0  0  0
  -26.8180  -30.8472   22.0065 H   0  0  0  0  0  0
  -28.0934  -29.0817   21.1442 H   0  0  0  0  0  0
  -25.9678  -25.9450   19.0354 H   0  0  0  0  0  0
  -23.9587  -27.2959   19.0369 H   0  0  0  0  0  0
  -23.6992  -30.6121   19.4137 H   0  0  0  0  0  0
  -22.7191  -29.2554   19.8823 H   0  0  0  0  0  0
  -25.1277  -36.2021   25.0831 H   0  0  0  0  0  0
  -20.9911  -28.3290   24.1455 H   0  0  0  0  0  0
  -20.5697  -26.2340   23.3654 H   0  0  0  0  0  0
  -21.6678  -26.7456   22.1278 H   0  0  0  0  0  0
  -19.6946  -25.6289   21.1260 H   0  0  0  0  0  0
  -19.6691  -27.3183   20.6771 H   0  0  0  0  0  0
  -17.4253  -26.6771   21.3902 H   0  0  0  0  0  0
  -18.0180  -26.0053   22.8885 H   0  0  0  0  0  0
  -19.7951  -30.7284   24.2223 H   0  0  0  0  0  0
  -17.5003  -31.6242   24.5175 H   0  0  0  0  0  0
  -15.5348  -30.2918   23.7649 H   0  0  0  0  0  0
  -15.8699  -28.0782   22.7043 H   0  0  0  0  0  0
  -24.5961  -30.6943   25.7825 H   0  0  0  0  0  0
  -24.8806  -32.2851   26.4799 H   0  0  0  0  0  0
  -25.8048  -30.8981   27.0292 H   0  0  0  0  0  0
  -26.2823  -29.6735   24.1249 H   0  0  0  0  0  0
  -27.4056  -29.7237   25.4637 H   0  0  0  0  0  0
  -27.8681  -30.4278   23.9324 H   0  0  0  0  0  0
  -27.2813  -33.3581   26.2074 H   0  0  0  0  0  0
  -28.3807  -32.6850   25.0129 H   0  0  0  0  0  0
  -28.0905  -31.8373   26.5241 H   0  0  0  0  0  0
  -28.2650  -38.0093   24.7553 H   0  0  0  0  0  0
  -28.1114  -36.2639   24.6182 H   0  0  0  0  0  0
  -27.2385  -37.1338   25.8869 H   0  0  0  0  0  0
  -20.9456  -29.8703   21.6868 H   0  0  0  0  0  0
  -26.0232  -38.2899   24.1364 H   0  0  0  0  0  0
  -28.6200  -18.0271   21.1463 H   0  0  0  0  0  0
  -31.4403  -16.3204   18.3440 H   0  0  0  0  0  0
  -28.7418  -24.2802   21.6282 H   0  0  0  0  0  0
  -27.0740  -24.6512   21.3054 H   0  0  0  0  0  0
  -27.8570  -25.0936   18.7871 H   0  0  0  0  0  0
  -29.4482  -25.0558   19.4474 H   0  0  0  0  0  0
  -27.6827  -20.3293   20.4507 H   0  0  0  0  0  0
  -28.9062  -15.4962   20.8179 H   0  0  0  0  0  0
  -30.1734  -21.4703   18.3131 H   0  0  0  0  0  0
  1 25  1  0  0  0
  1 30  2  0  0  0
  1 82  1  0  0  0
  2  3  1  0  0  0
  2 25  1  0  0  0
  2 87  1  0  0  0
  2 88  1  0  0  0
  3  4  1  0  0  0
  3 89  1  0  0  0
  3 90  1  0  0  0
  4  5  1  0  0  0
  4 91  1  0  0  0
  4 92  1  0  0  0
  5  6  1  0  0  0
  5 26  1  0  0  0
  5 93  1  0  0  0
  6 25  1  0  0  0
  6 94  1  0  0  0
  6 95  1  0  0  0
  7  8  2  0  0  0
  7 26  1  0  0  0
  7 29  1  0  0  0
  8  9  1  0  0  0
  8 22  1  0  0  0
  9 10  1  0  0  0
  9 27  2  0  0  0
 10 11  2  0  0  0
 10 15  1  0  0  0
 11 12  1  0  0  0
 11 96  1  0  0  0
 12 13  2  0  0  0
 12 97  1  0  0  0
 13 14  1  0  0  0
 13 31  1  0  0  0
 14 15  2  0  0  0
 14 98  1  0  0  0
 15 99  1  0  0  0
 16 17  2  0  0  0
 16 21  1  0  0  0
 16 31  1  0  0  0
 17 18  1  0  0  0
 17100  1  0  0  0
 18 19  2  0  0  0
 18101  1  0  0  0
 19 20  1  0  0  0
 19 24  1  0  0  0
 20 21  2  0  0  0
 20102  1  0  0  0
 21 23  1  0  0  0
 22 28  1  0  0  0
 22 32  2  0  0  0
 26 27  1  0  0  0
 28103  1  0  0  0
 28104  1  0  0  0
 29105  1  0  0  0
 29106  1  0  0  0
 33 34  1  0  0  0
 33 66  1  0  0  0
 33 70  2  0  0  0
 34 36  1  0  0  0
 34 59  1  0  0  0
 34107  1  0  0  0
 35 44  2  0  0  0
 35 45  1  0  0  0
 35 68  1  0  0  0
 36 56  1  0  0  0
 36108  1  0  0  0
 37 39  1  0  0  0
 37 47  1  0  0  0
 37 66  1  0  0  0
 37109  1  0  0  0
 38 43  2  0  0  0
 38 46  1  0  0  0
 38 47  1  0  0  0
 39 64  1  0  0  0
 39 67  2  0  0  0
 40 52  1  0  0  0
 40 53  2  0  0  0
 40 58  1  0  0  0
 41110  1  0  0  0
 41111  1  0  0  0
 41112  1  0  0  0
 41 48  1  0  0  0
 42 43  1  0  0  0
 42 66  1  0  0  0
 42113  1  0  0  0
 42114  1  0  0  0
 43 44  1  0  0  0
 44115  1  0  0  0
 45 46  2  0  0  0
 45116  1  0  0  0
 46117  1  0  0  0
 47118  1  0  0  0
 47119  1  0  0  0
 48 56  1  0  0  0
 48 65  1  0  0  0
 48120  1  0  0  0
 49 50  1  0  0  0
 49 53  1  0  0  0
 49 64  1  0  0  0
 49121  1  0  0  0
 50 51  1  0  0  0
 50122  1  0  0  0
 50123  1  0  0  0
 51 52  1  0  0  0
 51124  1  0  0  0
 51125  1  0  0  0
 52126  1  0  0  0
 52127  1  0  0  0
 53 54  1  0  0  0
 54 55  2  0  0  0
 54128  1  0  0  0
 55 57  1  0  0  0
 55129  1  0  0  0
 56 69  2  0  0  0
 57 58  2  0  0  0
 57130  1  0  0  0
 58131  1  0  0  0
 59 60  1  0  0  0
 59 61  1  0  0  0
 59 62  1  0  0  0
 60132  1  0  0  0
 60133  1  0  0  0
 60134  1  0  0  0
 61135  1  0  0  0
 61136  1  0  0  0
 61137  1  0  0  0
 62138  1  0  0  0
 62139  1  0  0  0
 62140  1  0  0  0
 63 65  1  0  0  0
 63141  1  0  0  0
 63142  1  0  0  0
 63143  1  0  0  0
 64144  1  0  0  0
 65145  1  0  0  0
 68 80  1  0  0  0
 71 73  2  0  0  0
 71 74  1  0  0  0
 71146  1  0  0  0
 72 73  1  0  0  0
 72 76  2  0  0  0
 72147  1  0  0  0
 73 82  1  0  0  0
 74 75  2  0  0  0
 74 81  1  0  0  0
 75 76  1  0  0  0
 75 85  1  0  0  0
 76 86  1  0  0  0
 77 78  1  0  0  0
 77 79  1  0  0  0
 77 83  2  0  0  0
 78 81  1  0  0  0
 78 84  2  0  0  0
 79 80  1  0  0  0
 79148  1  0  0  0
 79149  1  0  0  0
 80150  1  0  0  0
 80151  1  0  0  0
 81152  1  0  0  0
 82153  1  0  0  0
 85154  1  0  0  0
M  ISO  4   1 100  68 101  80 101  82 100
M  END
> <chiral flag>
0

> <version>
0

> <s_m_source_file>
/data/baiqing/PycharmProjects/Reinvent-master-3.2/result/LINK_invent/BTK/process_docking_weight1_custom_product_contain_oxygen_bond_distance_aromatic_linkinvent_7_9_3/rearranged_h_0171.sdf

> <i_m_source_file_index>
13

> <r_mmod_Potential_Energy-OPLS-2005>
-30.1781730651855

> <r_mmod_Stretch_Energy-OPLS-2005>
55.6059303283691

> <r_mmod_Bend_Energy-OPLS-2005>
113.400314331055

> <r_mmod_Torsional_Energy-OPLS-2005>
250.240676879883

> <r_mmod_Improper_Torsional_Energy-OPLS-2005>
6.88552045822144

> <r_mmod_Van_der_Waal_Energy-OPLS-2005>
159.707504272461

> <r_mmod_Electrostatic_Energy-OPLS-2005>
-398.448211669922

> <r_mmod_Solvation_Energy-OPLS-2005>
-251.22785949707

> <b_mmod_Minimization_Converged-OPLS-2005>
0

> <r_mmod_RMS_Derivative-OPLS-2005>
6.76798152923584

$$$$
13
                    3D
 Structure written by MMmdl.
161169  0  0  1  0            999 V2000
  -30.6818  -14.4741   20.5965 C   0  0  0  0  0  0
  -30.4353  -12.3161   19.4123 C   0  0  0  0  0  0
  -29.4971  -12.5144   18.2021 C   0  0  0  0  0  0
  -28.0173  -12.3733   18.6148 C   0  0  0  0  0  0
  -27.6664  -13.2019   19.8796 C   0  0  2  0  0  0
  -28.7077  -12.9508   20.9928 C   0  0  0  0  0  0
  -25.2607  -13.8146   20.5677 C   0  0  0  0  0  0
  -24.1848  -13.0428   20.9169 C   0  0  0  0  0  0
  -24.6396  -11.6892   20.8732 C   0  0  0  0  0  0
  -23.9058  -10.4284   21.0402 C   0  0  0  0  0  0
  -24.3610   -9.4207   21.9183 C   0  0  0  0  0  0
  -23.6290   -8.2241   22.0754 C   0  0  0  0  0  0
  -22.4274   -8.0278   21.3546 C   0  0  0  0  0  0
  -21.9909   -9.0247   20.4641 C   0  0  0  0  0  0
  -22.7232  -10.2125   20.3046 C   0  0  0  0  0  0
  -21.6850   -6.0738   22.5282 C   0  0  0  0  0  0
  -21.4011   -6.5642   23.8216 C   0  0  0  0  0  0
  -21.3657   -5.6790   24.9179 C   0  0  0  0  0  0
  -21.6042   -4.3055   24.7228 C   0  0  0  0  0  0
  -21.8819   -3.8148   23.4345 C   0  0  0  0  0  0
  -21.9196   -4.6965   22.3403 C   0  0  0  0  0  0
  -22.7870  -13.5238   21.1841 C   0  0  0  0  0  0
  -22.1664   -4.2153   21.0978 F   0  0  0  0  0  0
  -21.5628   -3.4532   25.7739 F   0  0  0  0  0  0
  -30.0416  -13.2797   20.4519 N   0  0  0  0  0  0
  -26.3049  -12.9312   20.3384 N   0  0  0  0  0  0
  -25.9324  -11.6474   20.5761 N   0  0  0  0  0  0
  -22.0503  -12.8221   22.0389 N   0  0  0  0  0  0
  -25.4343  -15.1858   20.4082 N   0  0  0  0  0  0
  -31.7836  -14.7084   20.0909 O   0  0  0  0  0  0
  -21.6636   -6.8877   21.4243 O   0  0  0  0  0  0
  -22.3556  -14.5556   20.6709 O   0  0  0  0  0  0
  -24.6173  -31.8666   23.2074 C   0  0  0  0  0  0
  -25.9058  -32.4814   23.8375 C   0  0  1  0  0  0
  -27.2395  -27.4118   20.0879 C   0  0  0  0  0  0
  -25.5911  -33.8614   24.2320 N   0  0  0  0  0  0
  -23.4059  -30.4888   21.5486 C   0  0  2  0  0  0
  -24.8501  -28.9511   20.1156 C   0  0  0  0  0  0
  -22.7425  -29.4656   22.4978 C   0  0  0  0  0  0
  -18.0269  -28.1381   22.8497 C   0  0  0  0  0  0
  -24.1485  -36.7301   23.2640 C   0  0  0  0  0  0
  -25.9374  -30.8226   21.3641 C   0  0  0  0  0  0
  -26.0110  -29.4555   20.7109 C   0  0  0  0  0  0
  -27.2027  -28.6931   20.6931 C   0  0  0  0  0  0
  -26.0492  -26.9201   19.4997 C   0  0  0  0  0  0
  -24.8653  -27.6831   19.5107 C   0  0  0  0  0  0
  -23.6133  -29.8206   20.1635 C   0  0  0  0  0  0
  -25.4110  -36.3110   24.0344 C   0  0  1  0  0  0
  -20.5865  -28.3664   23.1319 C   0  0  2  0  0  0
  -20.6769  -26.9409   22.5408 C   0  0  0  0  0  0
  -19.5748  -26.6391   21.5214 C   0  0  0  0  0  0
  -18.1922  -26.7935   22.1614 C   0  0  0  0  0  0
  -19.1524  -28.8838   23.2909 C   0  0  0  0  0  0
  -18.9457  -30.1442   23.8920 C   0  0  0  0  0  0
  -17.6461  -30.6593   24.0568 C   0  0  0  0  0  0
  -25.9038  -34.9474   23.5131 C   0  0  0  0  0  0
  -16.5348  -29.9099   23.6326 C   0  0  0  0  0  0
  -16.7259  -28.6510   23.0359 C   0  0  0  0  0  0
  -26.4466  -31.6607   25.0721 C   0  0  0  0  0  0
  -25.3713  -31.3727   26.1459 C   0  0  0  0  0  0
  -27.0310  -30.3055   24.6097 C   0  0  0  0  0  0
  -27.6036  -32.4329   25.7493 C   0  0  0  0  0  0
  -27.5583  -37.1806   24.8471 C   0  0  0  0  0  0
  -21.4150  -29.3039   22.3736 N   0  0  0  0  0  0
  -26.4292  -37.3800   23.9416 N   0  0  0  0  0  0
  -24.6726  -31.0741   22.0986 N   0  0  0  0  0  0
  -23.4199  -28.8208   23.3029 O   0  0  0  0  0  0
  -28.4401  -26.7163   20.0998 O   0  0  0  0  0  0
  -26.5600  -34.8933   22.4689 O   0  0  0  0  0  0
  -23.5360  -32.1431   23.7453 O   0  0  0  0  0  0
  -31.0684  -19.0326   20.9900 C   0  0  0  0  0  0
  -31.0889  -17.6249   20.8185 C   0  0  0  0  0  0
  -30.0056  -19.6730   21.6785 C   0  0  0  0  0  0
  -30.0358  -16.8233   21.3264 C   0  0  0  0  0  0
  -28.9330  -18.8699   22.1297 C   0  0  0  0  0  0
  -28.9504  -17.4687   21.9556 C   0  0  0  0  0  0
  -28.7318  -24.3055   20.6589 C   0  0  0  0  0  0
  -31.4655  -21.7677   22.2336 C   0  0  0  0  0  0
  -30.4172  -22.7549   19.4788 C   0  0  0  0  0  0
  -28.5660  -25.3802   19.5538 C   0  0  0  0  0  0
  -30.0511  -21.1614   22.0924 C   0  0  1  0  0  0
  -29.0841  -22.8394   20.2532 C   0  0  1  0  0  0
  -29.9695  -15.3934   21.2764 N   0  0  0  0  0  0
  -28.9897  -22.0536   21.5239 N   0  3  0  0  0  0
  -28.5845  -24.6174   21.8483 O   0  0  0  0  0  0
  -27.8881  -19.4472   22.7702 F   0  0  0  0  0  0
  -27.9180  -16.7257   22.4243 F   0  0  0  0  0  0
  -31.4763  -12.4375   19.1069 H   0  0  0  0  0  0
  -30.3564  -11.2981   19.7961 H   0  0  0  0  0  0
  -29.7361  -11.7916   17.4210 H   0  0  0  0  0  0
  -29.6618  -13.5004   17.7647 H   0  0  0  0  0  0
  -27.8245  -11.3160   18.8017 H   0  0  0  0  0  0
  -27.3676  -12.6574   17.7863 H   0  0  0  0  0  0
  -27.7193  -14.2541   19.6005 H   0  0  0  0  0  0
  -28.6867  -11.9020   21.2934 H   0  0  0  0  0  0
  -28.4565  -13.5066   21.8966 H   0  0  0  0  0  0
  -25.2752   -9.5684   22.4757 H   0  0  0  0  0  0
  -24.0003   -7.4629   22.7464 H   0  0  0  0  0  0
  -21.0848   -8.8754   19.8937 H   0  0  0  0  0  0
  -22.3696  -10.9660   19.6148 H   0  0  0  0  0  0
  -21.1996   -7.6148   23.9725 H   0  0  0  0  0  0
  -21.1480   -6.0517   25.9084 H   0  0  0  0  0  0
  -22.0601   -2.7609   23.2842 H   0  0  0  0  0  0
  -22.4106  -11.9865   22.4754 H   0  0  0  0  0  0
  -21.1115  -13.1238   22.2580 H   0  0  0  0  0  0
  -24.6744  -15.8460   20.5288 H   0  0  0  0  0  0
  -26.3001  -15.6259   20.1242 H   0  0  0  0  0  0
  -26.7127  -32.5497   23.1131 H   0  0  0  0  0  0
  -25.0088  -33.9770   25.0485 H   0  0  0  0  0  0
  -22.6972  -31.3072   21.4081 H   0  0  0  0  0  0
  -23.3762  -35.9618   23.3311 H   0  0  0  0  0  0
  -24.3581  -36.8896   22.2053 H   0  0  0  0  0  0
  -23.7216  -37.6503   23.6638 H   0  0  0  0  0  0
  -26.0556  -31.5881   20.5960 H   0  0  0  0  0  0
  -26.8245  -30.8712   21.9841 H   0  0  0  0  0  0
  -28.1010  -29.0867   21.1477 H   0  0  0  0  0  0
  -25.9919  -25.9529   19.0285 H   0  0  0  0  0  0
  -23.9690  -27.2865   19.0557 H   0  0  0  0  0  0
  -23.7225  -30.5951   19.4030 H   0  0  0  0  0  0
  -22.7372  -29.2399   19.8658 H   0  0  0  0  0  0
  -25.1278  -36.1983   25.0836 H   0  0  0  0  0  0
  -20.9932  -28.3201   24.1450 H   0  0  0  0  0  0
  -20.5696  -26.2263   23.3575 H   0  0  0  0  0  0
  -21.6634  -26.7469   22.1181 H   0  0  0  0  0  0
  -19.6924  -25.6315   21.1215 H   0  0  0  0  0  0
  -19.6701  -27.3221   20.6764 H   0  0  0  0  0  0
  -17.4200  -26.6690   21.4003 H   0  0  0  0  0  0
  -18.0321  -26.0071   22.9001 H   0  0  0  0  0  0
  -19.7942  -30.7249   24.2299 H   0  0  0  0  0  0
  -17.5032  -31.6281   24.5162 H   0  0  0  0  0  0
  -15.5357  -30.3021   23.7665 H   0  0  0  0  0  0
  -15.8647  -28.0844   22.7080 H   0  0  0  0  0  0
  -24.5895  -30.7063   25.7794 H   0  0  0  0  0  0
  -24.8895  -32.2895   26.4871 H   0  0  0  0  0  0
  -25.8049  -30.8924   27.0239 H   0  0  0  0  0  0
  -26.2868  -29.6829   24.1117 H   0  0  0  0  0  0
  -27.4075  -29.7267   25.4540 H   0  0  0  0  0  0
  -27.8695  -30.4407   23.9262 H   0  0  0  0  0  0
  -27.2653  -33.3633   26.2069 H   0  0  0  0  0  0
  -28.3852  -32.6880   25.0324 H   0  0  0  0  0  0
  -28.0697  -31.8457   26.5415 H   0  0  0  0  0  0
  -28.2592  -38.0110   24.7526 H   0  0  0  0  0  0
  -28.1081  -36.2639   24.6282 H   0  0  0  0  0  0
  -27.2298  -37.1436   25.8872 H   0  0  0  0  0  0
  -20.9319  -29.8780   21.6968 H   0  0  0  0  0  0
  -26.0188  -38.2878   24.1419 H   0  0  0  0  0  0
  -31.9126  -19.6034   20.6286 H   0  0  0  0  0  0
  -31.9388  -17.1781   20.3221 H   0  0  0  0  0  0
  -32.0404  -21.2037   22.9691 H   0  0  0  0  0  0
  -31.4266  -22.7986   22.5867 H   0  0  0  0  0  0
  -32.0445  -21.7463   21.3136 H   0  0  0  0  0  0
  -30.3030  -23.1717   18.4771 H   0  0  0  0  0  0
  -30.7417  -21.7230   19.3450 H   0  0  0  0  0  0
  -31.2162  -23.3185   19.9604 H   0  0  0  0  0  0
  -27.7680  -25.0985   18.8727 H   0  0  0  0  0  0
  -29.4739  -25.3700   18.9514 H   0  0  0  0  0  0
  -29.7251  -21.1104   23.1329 H   0  0  0  0  0  0
  -28.2963  -22.4664   19.5979 H   0  0  0  0  0  0
  -29.1364  -15.0132   21.6995 H   0  0  0  0  0  0
  -28.8550  -22.8040   22.1940 H   0  0  0  0  0  0
  -28.1198  -21.5456   21.5222 H   0  0  0  0  0  0
  1 25  1  0  0  0
  1 30  2  0  0  0
  1 83  1  0  0  0
  2  3  1  0  0  0
  2 25  1  0  0  0
  2 88  1  0  0  0
  2 89  1  0  0  0
  3  4  1  0  0  0
  3 90  1  0  0  0
  3 91  1  0  0  0
  4  5  1  0  0  0
  4 92  1  0  0  0
  4 93  1  0  0  0
  5  6  1  0  0  0
  5 26  1  0  0  0
  5 94  1  0  0  0
  6 25  1  0  0  0
  6 95  1  0  0  0
  6 96  1  0  0  0
  7  8  2  0  0  0
  7 26  1  0  0  0
  7 29  1  0  0  0
  8  9  1  0  0  0
  8 22  1  0  0  0
  9 10  1  0  0  0
  9 27  2  0  0  0
 10 11  2  0  0  0
 10 15  1  0  0  0
 11 12  1  0  0  0
 11 97  1  0  0  0
 12 13  2  0  0  0
 12 98  1  0  0  0
 13 14  1  0  0  0
 13 31  1  0  0  0
 14 15  2  0  0  0
 14 99  1  0  0  0
 15100  1  0  0  0
 16 17  2  0  0  0
 16 21  1  0  0  0
 16 31  1  0  0  0
 17 18  1  0  0  0
 17101  1  0  0  0
 18 19  2  0  0  0
 18102  1  0  0  0
 19 20  1  0  0  0
 19 24  1  0  0  0
 20 21  2  0  0  0
 20103  1  0  0  0
 21 23  1  0  0  0
 22 28  1  0  0  0
 22 32  2  0  0  0
 26 27  1  0  0  0
 28104  1  0  0  0
 28105  1  0  0  0
 29106  1  0  0  0
 29107  1  0  0  0
 33 34  1  0  0  0
 33 66  1  0  0  0
 33 70  2  0  0  0
 34 36  1  0  0  0
 34 59  1  0  0  0
 34108  1  0  0  0
 35 44  2  0  0  0
 35 45  1  0  0  0
 35 68  1  0  0  0
 36 56  1  0  0  0
 36109  1  0  0  0
 37 39  1  0  0  0
 37 47  1  0  0  0
 37 66  1  0  0  0
 37110  1  0  0  0
 38 43  2  0  0  0
 38 46  1  0  0  0
 38 47  1  0  0  0
 39 64  1  0  0  0
 39 67  2  0  0  0
 40 52  1  0  0  0
 40 53  2  0  0  0
 40 58  1  0  0  0
 41111  1  0  0  0
 41112  1  0  0  0
 41113  1  0  0  0
 41 48  1  0  0  0
 42 43  1  0  0  0
 42 66  1  0  0  0
 42114  1  0  0  0
 42115  1  0  0  0
 43 44  1  0  0  0
 44116  1  0  0  0
 45 46  2  0  0  0
 45117  1  0  0  0
 46118  1  0  0  0
 47119  1  0  0  0
 47120  1  0  0  0
 48 56  1  0  0  0
 48 65  1  0  0  0
 48121  1  0  0  0
 49 50  1  0  0  0
 49 53  1  0  0  0
 49 64  1  0  0  0
 49122  1  0  0  0
 50 51  1  0  0  0
 50123  1  0  0  0
 50124  1  0  0  0
 51 52  1  0  0  0
 51125  1  0  0  0
 51126  1  0  0  0
 52127  1  0  0  0
 52128  1  0  0  0
 53 54  1  0  0  0
 54 55  2  0  0  0
 54129  1  0  0  0
 55 57  1  0  0  0
 55130  1  0  0  0
 56 69  2  0  0  0
 57 58  2  0  0  0
 57131  1  0  0  0
 58132  1  0  0  0
 59 60  1  0  0  0
 59 61  1  0  0  0
 59 62  1  0  0  0
 60133  1  0  0  0
 60134  1  0  0  0
 60135  1  0  0  0
 61136  1  0  0  0
 61137  1  0  0  0
 61138  1  0  0  0
 62139  1  0  0  0
 62140  1  0  0  0
 62141  1  0  0  0
 63 65  1  0  0  0
 63142  1  0  0  0
 63143  1  0  0  0
 63144  1  0  0  0
 64145  1  0  0  0
 65146  1  0  0  0
 68 80  1  0  0  0
 71 72  2  0  0  0
 71 73  1  0  0  0
 71147  1  0  0  0
 72 74  1  0  0  0
 72148  1  0  0  0
 73 75  2  0  0  0
 73 81  1  0  0  0
 74 76  2  0  0  0
 74 83  1  0  0  0
 75 76  1  0  0  0
 75 86  1  0  0  0
 76 87  1  0  0  0
 77 80  1  0  0  0
 77 82  1  0  0  0
 77 85  2  0  0  0
 78149  1  0  0  0
 78150  1  0  0  0
 78151  1  0  0  0
 78 81  1  0  0  0
 79152  1  0  0  0
 79153  1  0  0  0
 79154  1  0  0  0
 79 82  1  0  0  0
 80155  1  0  0  0
 80156  1  0  0  0
 81 84  1  0  0  0
 81157  1  0  0  0
 82 84  1  0  0  0
 82158  1  0  0  0
 83159  1  0  0  0
 84160  1  0  0  0
 84161  1  0  0  0
M  CHG  1  84   1
M  ISO  4   1 100  68 101  80 101  83 100
M  END
> <chiral flag>
0

> <version>
0

> <s_m_source_file>
/data/baiqing/PycharmProjects/Reinvent-master-3.2/result/LINK_invent/BTK/process_docking_weight1_custom_product_contain_oxygen_bond_distance_aromatic_linkinvent_7_9_3/rearranged_h_0171.sdf

> <i_m_source_file_index>
14

> <r_mmod_Potential_Energy-OPLS-2005>
-248.371551513672

> <r_mmod_Stretch_Energy-OPLS-2005>
45.517505645752

> <r_mmod_Bend_Energy-OPLS-2005>
159.373977661133

> <r_mmod_Torsional_Energy-OPLS-2005>
218.650329589844

> <r_mmod_Improper_Torsional_Energy-OPLS-2005>
3.23935222625732

> <r_mmod_Van_der_Waal_Energy-OPLS-2005>
159.182952880859

> <r_mmod_Electrostatic_Energy-OPLS-2005>
-383.593475341797

> <r_mmod_Solvation_Energy-OPLS-2005>
-463.963409423828

> <b_mmod_Minimization_Converged-OPLS-2005>
0

> <r_mmod_RMS_Derivative-OPLS-2005>
1.80256199836731

$$$$
14
                    3D
 Structure written by MMmdl.
152160  0  0  1  0            999 V2000
  -30.6444  -14.5984   20.5040 C   0  0  0  0  0  0
  -30.4265  -12.3642   19.4500 C   0  0  0  0  0  0
  -29.5039  -12.5118   18.2194 C   0  0  0  0  0  0
  -28.0223  -12.3652   18.6225 C   0  0  0  0  0  0
  -27.6536  -13.2184   19.8666 C   0  0  2  0  0  0
  -28.6946  -13.0377   20.9908 C   0  0  0  0  0  0
  -25.2551  -13.8181   20.5688 C   0  0  0  0  0  0
  -24.1812  -13.0442   20.9177 C   0  0  0  0  0  0
  -24.6381  -11.6917   20.8719 C   0  0  0  0  0  0
  -23.9053  -10.4299   21.0394 C   0  0  0  0  0  0
  -24.3612   -9.4219   21.9171 C   0  0  0  0  0  0
  -23.6296   -8.2253   22.0757 C   0  0  0  0  0  0
  -22.4277   -8.0283   21.3553 C   0  0  0  0  0  0
  -21.9904   -9.0246   20.4646 C   0  0  0  0  0  0
  -22.7224  -10.2129   20.3047 C   0  0  0  0  0  0
  -21.6857   -6.0732   22.5278 C   0  0  0  0  0  0
  -21.4017   -6.5637   23.8209 C   0  0  0  0  0  0
  -21.3663   -5.6792   24.9176 C   0  0  0  0  0  0
  -21.6046   -4.3057   24.7230 C   0  0  0  0  0  0
  -21.8821   -3.8145   23.4352 C   0  0  0  0  0  0
  -21.9198   -4.6959   22.3405 C   0  0  0  0  0  0
  -22.7833  -13.5224   21.1857 C   0  0  0  0  0  0
  -22.1662   -4.2138   21.0986 F   0  0  0  0  0  0
  -21.5629   -3.4546   25.7746 F   0  0  0  0  0  0
  -30.0152  -13.3807   20.4413 N   0  0  0  0  0  0
  -26.2981  -12.9368   20.3321 N   0  0  0  0  0  0
  -25.9311  -11.6515   20.5728 N   0  0  0  0  0  0
  -22.0488  -12.8211   22.0418 N   0  0  0  0  0  0
  -25.4283  -15.1907   20.4148 N   0  0  0  0  0  0
  -31.7938  -14.7283   20.0717 O   0  0  0  0  0  0
  -21.6654   -6.8874   21.4241 O   0  0  0  0  0  0
  -22.3506  -14.5526   20.6710 O   0  0  0  0  0  0
  -24.6223  -31.8628   23.2048 C   0  0  0  0  0  0
  -25.9086  -32.4801   23.8370 C   0  0  1  0  0  0
  -27.2289  -27.3597   20.0967 C   0  0  0  0  0  0
  -25.5920  -33.8603   24.2295 N   0  0  0  0  0  0
  -23.4153  -30.4860   21.5463 C   0  0  2  0  0  0
  -24.8623  -28.9466   20.1081 C   0  0  0  0  0  0
  -22.7453  -29.4639   22.4948 C   0  0  0  0  0  0
  -18.0283  -28.1388   22.8498 C   0  0  0  0  0  0
  -24.1483  -36.7294   23.2634 C   0  0  0  0  0  0
  -25.9533  -30.8037   21.3712 C   0  0  0  0  0  0
  -26.0289  -29.4349   20.7114 C   0  0  0  0  0  0
  -27.2149  -28.6486   20.7038 C   0  0  0  0  0  0
  -26.0367  -26.9058   19.4894 C   0  0  0  0  0  0
  -24.8652  -27.6850   19.4921 C   0  0  0  0  0  0
  -23.6281  -29.8215   20.1605 C   0  0  0  0  0  0
  -25.4107  -36.3096   24.0331 C   0  0  1  0  0  0
  -20.5878  -28.3696   23.1294 C   0  0  2  0  0  0
  -20.6776  -26.9423   22.5418 C   0  0  0  0  0  0
  -19.5750  -26.6392   21.5224 C   0  0  0  0  0  0
  -18.1928  -26.7937   22.1627 C   0  0  0  0  0  0
  -19.1532  -28.8857   23.2897 C   0  0  0  0  0  0
  -18.9459  -30.1460   23.8916 C   0  0  0  0  0  0
  -17.6459  -30.6596   24.0564 C   0  0  0  0  0  0
  -25.9053  -34.9463   23.5112 C   0  0  0  0  0  0
  -16.5351  -29.9100   23.6323 C   0  0  0  0  0  0
  -16.7272  -28.6509   23.0359 C   0  0  0  0  0  0
  -26.4483  -31.6600   25.0731 C   0  0  0  0  0  0
  -25.3723  -31.3728   26.1461 C   0  0  0  0  0  0
  -27.0324  -30.3025   24.6172 C   0  0  0  0  0  0
  -27.6049  -32.4328   25.7505 C   0  0  0  0  0  0
  -27.5589  -37.1787   24.8451 C   0  0  0  0  0  0
  -21.4169  -29.3049   22.3690 N   0  0  0  0  0  0
  -26.4276  -37.3798   23.9433 N   0  0  0  0  0  0
  -24.6823  -31.0665   22.0984 N   0  0  0  0  0  0
  -23.4189  -28.8183   23.3016 O   0  0  0  0  0  0
  -28.3341  -26.5111   20.1640 O   0  0  0  0  0  0
  -26.5622  -34.8927   22.4679 O   0  0  0  0  0  0
  -23.5394  -32.1408   23.7394 O   0  0  0  0  0  0
  -27.8471  -19.4789   22.4967 C   0  0  0  0  0  0
  -28.4904  -18.3062   22.0564 C   0  0  0  0  0  0
  -28.0224  -20.7006   21.8198 C   0  0  0  0  0  0
  -29.4895  -19.5717   20.2398 C   0  0  0  0  0  0
  -29.3382  -18.3155   20.9261 C   0  0  0  0  0  0
  -28.8471  -20.7846   20.6750 C   0  0  0  0  0  0
  -30.0296  -17.0375   20.4945 C   0  0  0  0  0  0
  -29.8539  -15.7644   20.9789 C   0  0  0  0  0  0
  -28.5738  -25.6245   19.1205 C   0  0  0  0  0  0
  -28.7601  -24.2628   19.1139 C   0  0  0  0  0  0
  -28.7095  -23.3388   20.2762 C   0  0  0  0  0  0
  -28.9678  -22.0343   19.9338 N   0  0  0  0  0  0
  -28.4820  -23.6939   21.4348 O   0  0  0  0  0  0
  -29.0004  -23.7027   17.9139 O   0  0  0  0  0  0
  -31.4709  -12.4655   19.1523 H   0  0  0  0  0  0
  -30.3394  -11.3634   19.8751 H   0  0  0  0  0  0
  -29.7578  -11.7702   17.4609 H   0  0  0  0  0  0
  -29.6640  -13.4873   17.7573 H   0  0  0  0  0  0
  -27.8391  -11.3103   18.8295 H   0  0  0  0  0  0
  -27.3763  -12.6235   17.7821 H   0  0  0  0  0  0
  -27.6851  -14.2615   19.5524 H   0  0  0  0  0  0
  -28.6953  -12.0035   21.3374 H   0  0  0  0  0  0
  -28.4353  -13.6265   21.8681 H   0  0  0  0  0  0
  -25.2758   -9.5700   22.4736 H   0  0  0  0  0  0
  -24.0010   -7.4650   22.7482 H   0  0  0  0  0  0
  -21.0835   -8.8753   19.8950 H   0  0  0  0  0  0
  -22.3674  -10.9663   19.6151 H   0  0  0  0  0  0
  -21.2005   -7.6146   23.9703 H   0  0  0  0  0  0
  -21.1481   -6.0532   25.9074 H   0  0  0  0  0  0
  -22.0595   -2.7605   23.2867 H   0  0  0  0  0  0
  -22.4124  -11.9886   22.4804 H   0  0  0  0  0  0
  -21.1094  -13.1210   22.2617 H   0  0  0  0  0  0
  -24.6679  -15.8512   20.5358 H   0  0  0  0  0  0
  -26.2946  -15.6315   20.1304 H   0  0  0  0  0  0
  -26.7162  -32.5479   23.1127 H   0  0  0  0  0  0
  -25.0071  -33.9764   25.0442 H   0  0  0  0  0  0
  -22.7079  -31.3055   21.4039 H   0  0  0  0  0  0
  -23.3769  -35.9600   23.3266 H   0  0  0  0  0  0
  -24.3583  -36.8944   22.2055 H   0  0  0  0  0  0
  -23.7198  -37.6471   23.6677 H   0  0  0  0  0  0
  -26.0812  -31.5694   20.6050 H   0  0  0  0  0  0
  -26.8346  -30.8517   21.9995 H   0  0  0  0  0  0
  -28.1102  -29.0134   21.1875 H   0  0  0  0  0  0
  -25.9925  -25.9250   19.0374 H   0  0  0  0  0  0
  -23.9667  -27.2996   19.0302 H   0  0  0  0  0  0
  -23.7436  -30.5982   19.4037 H   0  0  0  0  0  0
  -22.7496  -29.2485   19.8592 H   0  0  0  0  0  0
  -25.1272  -36.1947   25.0820 H   0  0  0  0  0  0
  -20.9982  -28.3279   24.1410 H   0  0  0  0  0  0
  -20.5695  -26.2308   23.3617 H   0  0  0  0  0  0
  -21.6647  -26.7466   22.1203 H   0  0  0  0  0  0
  -19.6922  -25.6305   21.1249 H   0  0  0  0  0  0
  -19.6685  -27.3205   20.6757 H   0  0  0  0  0  0
  -17.4202  -26.6692   21.4027 H   0  0  0  0  0  0
  -18.0324  -26.0074   22.9019 H   0  0  0  0  0  0
  -19.7935  -30.7268   24.2302 H   0  0  0  0  0  0
  -17.5015  -31.6274   24.5173 H   0  0  0  0  0  0
  -15.5356  -30.3007   23.7637 H   0  0  0  0  0  0
  -15.8668  -28.0827   22.7079 H   0  0  0  0  0  0
  -24.5902  -30.7074   25.7786 H   0  0  0  0  0  0
  -24.8910  -32.2889   26.4891 H   0  0  0  0  0  0
  -25.8046  -30.8900   27.0232 H   0  0  0  0  0  0
  -26.2891  -29.6793   24.1186 H   0  0  0  0  0  0
  -27.4012  -29.7268   25.4672 H   0  0  0  0  0  0
  -27.8763  -30.4315   23.9391 H   0  0  0  0  0  0
  -27.2665  -33.3624   26.2093 H   0  0  0  0  0  0
  -28.3855  -32.6894   25.0334 H   0  0  0  0  0  0
  -28.0724  -31.8449   26.5412 H   0  0  0  0  0  0
  -28.2548  -38.0147   24.7603 H   0  0  0  0  0  0
  -28.1145  -36.2685   24.6136 H   0  0  0  0  0  0
  -27.2330  -37.1264   25.8856 H   0  0  0  0  0  0
  -20.9355  -29.8765   21.6889 H   0  0  0  0  0  0
  -26.0157  -38.2854   24.1511 H   0  0  0  0  0  0
  -27.2042  -19.4396   23.3657 H   0  0  0  0  0  0
  -28.3220  -17.3974   22.6143 H   0  0  0  0  0  0
  -27.4876  -21.5639   22.1875 H   0  0  0  0  0  0
  -30.1155  -19.6026   19.3590 H   0  0  0  0  0  0
  -30.7638  -17.1676   19.7098 H   0  0  0  0  0  0
  -29.1246  -15.6085   21.7539 H   0  0  0  0  0  0
  -28.6167  -26.1820   18.1943 H   0  0  0  0  0  0
  -29.2388  -21.9531   18.9612 H   0  0  0  0  0  0
  -28.9868  -24.3954   17.2659 H   0  0  0  0  0  0
  1 25  1  0  0  0
  1 30  2  0  0  0
  1 78  1  0  0  0
  2  3  1  0  0  0
  2 25  1  0  0  0
  2 85  1  0  0  0
  2 86  1  0  0  0
  3  4  1  0  0  0
  3 87  1  0  0  0
  3 88  1  0  0  0
  4  5  1  0  0  0
  4 89  1  0  0  0
  4 90  1  0  0  0
  5  6  1  0  0  0
  5 26  1  0  0  0
  5 91  1  0  0  0
  6 25  1  0  0  0
  6 92  1  0  0  0
  6 93  1  0  0  0
  7  8  2  0  0  0
  7 26  1  0  0  0
  7 29  1  0  0  0
  8  9  1  0  0  0
  8 22  1  0  0  0
  9 10  1  0  0  0
  9 27  2  0  0  0
 10 11  2  0  0  0
 10 15  1  0  0  0
 11 12  1  0  0  0
 11 94  1  0  0  0
 12 13  2  0  0  0
 12 95  1  0  0  0
 13 14  1  0  0  0
 13 31  1  0  0  0
 14 15  2  0  0  0
 14 96  1  0  0  0
 15 97  1  0  0  0
 16 17  2  0  0  0
 16 21  1  0  0  0
 16 31  1  0  0  0
 17 18  1  0  0  0
 17 98  1  0  0  0
 18 19  2  0  0  0
 18 99  1  0  0  0
 19 20  1  0  0  0
 19 24  1  0  0  0
 20 21  2  0  0  0
 20100  1  0  0  0
 21 23  1  0  0  0
 22 28  1  0  0  0
 22 32  2  0  0  0
 26 27  1  0  0  0
 28101  1  0  0  0
 28102  1  0  0  0
 29103  1  0  0  0
 29104  1  0  0  0
 33 34  1  0  0  0
 33 66  1  0  0  0
 33 70  2  0  0  0
 34 36  1  0  0  0
 34 59  1  0  0  0
 34105  1  0  0  0
 35 44  2  0  0  0
 35 45  1  0  0  0
 35 68  1  0  0  0
 36 56  1  0  0  0
 36106  1  0  0  0
 37 39  1  0  0  0
 37 47  1  0  0  0
 37 66  1  0  0  0
 37107  1  0  0  0
 38 43  2  0  0  0
 38 46  1  0  0  0
 38 47  1  0  0  0
 39 64  1  0  0  0
 39 67  2  0  0  0
 40 52  1  0  0  0
 40 53  2  0  0  0
 40 58  1  0  0  0
 41108  1  0  0  0
 41109  1  0  0  0
 41110  1  0  0  0
 41 48  1  0  0  0
 42 43  1  0  0  0
 42 66  1  0  0  0
 42111  1  0  0  0
 42112  1  0  0  0
 43 44  1  0  0  0
 44113  1  0  0  0
 45 46  2  0  0  0
 45114  1  0  0  0
 46115  1  0  0  0
 47116  1  0  0  0
 47117  1  0  0  0
 48 56  1  0  0  0
 48 65  1  0  0  0
 48118  1  0  0  0
 49 50  1  0  0  0
 49 53  1  0  0  0
 49 64  1  0  0  0
 49119  1  0  0  0
 50 51  1  0  0  0
 50120  1  0  0  0
 50121  1  0  0  0
 51 52  1  0  0  0
 51122  1  0  0  0
 51123  1  0  0  0
 52124  1  0  0  0
 52125  1  0  0  0
 53 54  1  0  0  0
 54 55  2  0  0  0
 54126  1  0  0  0
 55 57  1  0  0  0
 55127  1  0  0  0
 56 69  2  0  0  0
 57 58  2  0  0  0
 57128  1  0  0  0
 58129  1  0  0  0
 59 60  1  0  0  0
 59 61  1  0  0  0
 59 62  1  0  0  0
 60130  1  0  0  0
 60131  1  0  0  0
 60132  1  0  0  0
 61133  1  0  0  0
 61134  1  0  0  0
 61135  1  0  0  0
 62136  1  0  0  0
 62137  1  0  0  0
 62138  1  0  0  0
 63 65  1  0  0  0
 63139  1  0  0  0
 63140  1  0  0  0
 63141  1  0  0  0
 64142  1  0  0  0
 65143  1  0  0  0
 68 79  1  0  0  0
 71 72  2  0  0  0
 71 73  1  0  0  0
 71144  1  0  0  0
 72 75  1  0  0  0
 72145  1  0  0  0
 73 76  2  0  0  0
 73146  1  0  0  0
 74 75  2  0  0  0
 74 76  1  0  0  0
 74147  1  0  0  0
 75 77  1  0  0  0
 76 82  1  0  0  0
 77 78  2  0  0  0
 77148  1  0  0  0
 78149  1  0  0  0
 79 80  2  0  0  0
 79150  1  0  0  0
 80 81  1  0  0  0
 80 84  1  0  0  0
 81 82  1  0  0  0
 81 83  2  0  0  0
 82151  1  0  0  0
 84152  1  0  0  0
M  ISO  4   1 100  68 101  78 100  79 101
M  END
> <chiral flag>
0

> <version>
0

> <s_m_source_file>
/data/baiqing/PycharmProjects/Reinvent-master-3.2/result/LINK_invent/BTK/process_docking_weight1_custom_product_contain_oxygen_bond_distance_aromatic_linkinvent_7_9_3/rearranged_h_0171.sdf

> <i_m_source_file_index>
15

> <r_mmod_Potential_Energy-OPLS-2005>
3.97433543205261

> <r_mmod_Stretch_Energy-OPLS-2005>
67.233772277832

> <r_mmod_Bend_Energy-OPLS-2005>
131.932464599609

> <r_mmod_Torsional_Energy-OPLS-2005>
188.65837097168

> <r_mmod_Improper_Torsional_Energy-OPLS-2005>
3.48894357681274

> <r_mmod_Van_der_Waal_Energy-OPLS-2005>
158.0224609375

> <r_mmod_Electrostatic_Energy-OPLS-2005>
-355.964263916016

> <r_mmod_Solvation_Energy-OPLS-2005>
-225.249252319336

> <b_mmod_Minimization_Converged-OPLS-2005>
0

> <r_mmod_RMS_Derivative-OPLS-2005>
1.40562033653259

$$$$
15
                    3D
 Structure written by MMmdl.
169177  0  0  1  0            999 V2000
  -30.7220  -14.5161   20.4309 C   0  0  0  0  0  0
  -30.3944  -12.3040   19.4491 C   0  0  0  0  0  0
  -29.4883  -12.4807   18.2147 C   0  0  0  0  0  0
  -28.0095  -12.3509   18.6241 C   0  0  0  0  0  0
  -27.6446  -13.2248   19.8550 C   0  0  2  0  0  0
  -28.6905  -13.1023   20.9869 C   0  0  0  0  0  0
  -25.2522  -13.8197   20.5689 C   0  0  0  0  0  0
  -24.1803  -13.0445   20.9194 C   0  0  0  0  0  0
  -24.6386  -11.6925   20.8754 C   0  0  0  0  0  0
  -23.9066  -10.4301   21.0420 C   0  0  0  0  0  0
  -24.3615   -9.4205   21.9184 C   0  0  0  0  0  0
  -23.6282   -8.2244   22.0755 C   0  0  0  0  0  0
  -22.4269   -8.0283   21.3541 C   0  0  0  0  0  0
  -21.9911   -9.0259   20.4646 C   0  0  0  0  0  0
  -22.7248  -10.2135   20.3060 C   0  0  0  0  0  0
  -21.6849   -6.0738   22.5283 C   0  0  0  0  0  0
  -21.4023   -6.5638   23.8221 C   0  0  0  0  0  0
  -21.3655   -5.6783   24.9174 C   0  0  0  0  0  0
  -21.6042   -4.3050   24.7220 C   0  0  0  0  0  0
  -21.8819   -3.8146   23.4339 C   0  0  0  0  0  0
  -21.9195   -4.6967   22.3400 C   0  0  0  0  0  0
  -22.7824  -13.5230   21.1846 C   0  0  0  0  0  0
  -22.1660   -4.2152   21.0975 F   0  0  0  0  0  0
  -21.5616   -3.4538   25.7731 F   0  0  0  0  0  0
  -30.0152  -13.3533   20.4097 N   0  0  0  0  0  0
  -26.2951  -12.9402   20.3311 N   0  0  0  0  0  0
  -25.9314  -11.6546   20.5775 N   0  0  0  0  0  0
  -22.0466  -12.8225   22.0405 N   0  0  0  0  0  0
  -25.4208  -15.1919   20.4130 N   0  0  0  0  0  0
  -31.9328  -14.5068   20.2022 O   0  0  0  0  0  0
  -21.6629   -6.8882   21.4241 O   0  0  0  0  0  0
  -22.3510  -14.5534   20.6697 O   0  0  0  0  0  0
  -24.6127  -31.8714   23.2089 C   0  0  0  0  0  0
  -25.9020  -32.4830   23.8400 C   0  0  1  0  0  0
  -27.2212  -27.4141   20.0964 C   0  0  0  0  0  0
  -25.5888  -33.8647   24.2321 N   0  0  0  0  0  0
  -23.4002  -30.4977   21.5509 C   0  0  2  0  0  0
  -24.8410  -28.9589   20.1198 C   0  0  0  0  0  0
  -22.7371  -29.4711   22.4982 C   0  0  0  0  0  0
  -18.0270  -28.1373   22.8510 C   0  0  0  0  0  0
  -24.1499  -36.7334   23.2638 C   0  0  0  0  0  0
  -25.9322  -30.8312   21.3639 C   0  0  0  0  0  0
  -26.0061  -29.4649   20.7089 C   0  0  0  0  0  0
  -27.1973  -28.7008   20.6897 C   0  0  0  0  0  0
  -26.0281  -26.9252   19.5125 C   0  0  0  0  0  0
  -24.8483  -27.6894   19.5215 C   0  0  0  0  0  0
  -23.6058  -29.8285   20.1671 C   0  0  0  0  0  0
  -25.4118  -36.3134   24.0332 C   0  0  1  0  0  0
  -20.5861  -28.3681   23.1315 C   0  0  2  0  0  0
  -20.6774  -26.9421   22.5412 C   0  0  0  0  0  0
  -19.5758  -26.6385   21.5214 C   0  0  0  0  0  0
  -18.1926  -26.7925   22.1625 C   0  0  0  0  0  0
  -19.1516  -28.8830   23.2929 C   0  0  0  0  0  0
  -18.9453  -30.1438   23.8937 C   0  0  0  0  0  0
  -17.6455  -30.6590   24.0565 C   0  0  0  0  0  0
  -25.9039  -34.9496   23.5121 C   0  0  0  0  0  0
  -16.5345  -29.9094   23.6332 C   0  0  0  0  0  0
  -16.7261  -28.6502   23.0374 C   0  0  0  0  0  0
  -26.4446  -31.6618   25.0733 C   0  0  0  0  0  0
  -25.3699  -31.3726   26.1470 C   0  0  0  0  0  0
  -27.0281  -30.3063   24.6145 C   0  0  0  0  0  0
  -27.6019  -32.4359   25.7484 C   0  0  0  0  0  0
  -27.5599  -37.1820   24.8455 C   0  0  0  0  0  0
  -21.4103  -29.3062   22.3705 N   0  0  0  0  0  0
  -26.4311  -37.3805   23.9399 N   0  0  0  0  0  0
  -24.6666  -31.0815   22.0992 N   0  0  0  0  0  0
  -23.4147  -28.8252   23.3017 O   0  0  0  0  0  0
  -28.4058  -26.6963   20.1043 O   0  0  0  0  0  0
  -26.5606  -34.8923   22.4680 O   0  0  0  0  0  0
  -23.5322  -32.1478   23.7476 O   0  0  0  0  0  0
  -29.3575  -18.7635   21.1861 C   0  0  0  0  0  0
  -28.8964  -20.1045   21.1995 C   0  0  0  0  0  0
  -29.5832  -18.1084   19.9516 C   0  0  0  0  0  0
  -28.6695  -20.7574   19.9715 C   0  0  0  0  0  0
  -29.2206  -18.8240   18.7761 C   0  0  0  0  0  0
  -30.4308  -16.8519   19.8962 C   0  0  0  0  0  0
  -28.2888  -24.3741   20.9924 C   0  0  0  0  0  0
  -26.4608  -17.2284   15.1859 C   0  0  0  0  0  0
  -28.8926  -16.6777   14.9414 C   0  0  0  0  0  0
  -27.6096  -15.9078   16.9763 C   0  0  0  0  0  0
  -27.7338  -22.9394   20.8335 C   0  0  0  0  0  0
  -28.4137  -25.2913   19.7536 C   0  0  0  0  0  0
  -28.1196  -18.3756   16.6585 C   0  0  0  0  0  0
  -27.7851  -17.0447   15.9484 C   0  0  0  0  0  0
  -28.7800  -20.1049   18.8043 N   0  0  0  0  0  0
  -28.4047  -22.1248   19.8172 N   0  0  0  0  0  0
  -29.3186  -18.2812   17.4868 N   0  0  0  0  0  0
  -30.0014  -15.6735   20.4326 N   0  0  0  0  0  0
  -31.5026  -16.9839   19.2934 O   0  0  0  0  0  0
  -28.6295  -24.7762   22.1098 O   0  0  0  0  0  0
  -31.4445  -12.3485   19.1530 H   0  0  0  0  0  0
  -30.2519  -11.3182   19.8931 H   0  0  0  0  0  0
  -29.7325  -11.7373   17.4543 H   0  0  0  0  0  0
  -29.6634  -13.4547   17.7560 H   0  0  0  0  0  0
  -27.8221  -11.2999   18.8475 H   0  0  0  0  0  0
  -27.3631  -12.5998   17.7826 H   0  0  0  0  0  0
  -27.6564  -14.2578   19.5088 H   0  0  0  0  0  0
  -28.6638  -12.1067   21.4331 H   0  0  0  0  0  0
  -28.4736  -13.8070   21.7918 H   0  0  0  0  0  0
  -25.2756   -9.5671   22.4763 H   0  0  0  0  0  0
  -23.9985   -7.4634   22.7479 H   0  0  0  0  0  0
  -21.0840   -8.8785   19.8946 H   0  0  0  0  0  0
  -22.3708  -10.9676   19.6174 H   0  0  0  0  0  0
  -21.2030   -7.6151   23.9724 H   0  0  0  0  0  0
  -21.1471   -6.0511   25.9071 H   0  0  0  0  0  0
  -22.0606   -2.7611   23.2839 H   0  0  0  0  0  0
  -22.4075  -11.9878   22.4791 H   0  0  0  0  0  0
  -21.1093  -13.1272   22.2626 H   0  0  0  0  0  0
  -24.6485  -15.8411   20.5214 H   0  0  0  0  0  0
  -26.2650  -15.6371   20.0809 H   0  0  0  0  0  0
  -26.7080  -32.5546   23.1157 H   0  0  0  0  0  0
  -25.0027  -33.9837   25.0454 H   0  0  0  0  0  0
  -22.6904  -31.3165   21.4104 H   0  0  0  0  0  0
  -23.3768  -35.9667   23.3298 H   0  0  0  0  0  0
  -24.3584  -36.8958   22.2054 H   0  0  0  0  0  0
  -23.7259  -37.6536   23.6657 H   0  0  0  0  0  0
  -26.0494  -31.5981   20.5971 H   0  0  0  0  0  0
  -26.8172  -30.8797   21.9866 H   0  0  0  0  0  0
  -28.0981  -29.0913   21.1419 H   0  0  0  0  0  0
  -25.9642  -25.9568   19.0441 H   0  0  0  0  0  0
  -23.9474  -27.2918   19.0742 H   0  0  0  0  0  0
  -23.7101  -30.6014   19.4045 H   0  0  0  0  0  0
  -22.7274  -29.2487   19.8770 H   0  0  0  0  0  0
  -25.1301  -36.1995   25.0831 H   0  0  0  0  0  0
  -20.9983  -28.3265   24.1426 H   0  0  0  0  0  0
  -20.5696  -26.2298   23.3606 H   0  0  0  0  0  0
  -21.6651  -26.7489   22.1196 H   0  0  0  0  0  0
  -19.6937  -25.6292   21.1256 H   0  0  0  0  0  0
  -19.6689  -27.3190   20.6737 H   0  0  0  0  0  0
  -17.4204  -26.6687   21.4014 H   0  0  0  0  0  0
  -18.0329  -26.0044   22.8995 H   0  0  0  0  0  0
  -19.7929  -30.7246   24.2330 H   0  0  0  0  0  0
  -17.5018  -31.6290   24.5152 H   0  0  0  0  0  0
  -15.5351  -30.3015   23.7648 H   0  0  0  0  0  0
  -15.8658  -28.0830   22.7094 H   0  0  0  0  0  0
  -24.5857  -30.7096   25.7788 H   0  0  0  0  0  0
  -24.8893  -32.2877   26.4948 H   0  0  0  0  0  0
  -25.8027  -30.8859   27.0217 H   0  0  0  0  0  0
  -26.2846  -29.6810   24.1185 H   0  0  0  0  0  0
  -27.4010  -29.7314   25.4635 H   0  0  0  0  0  0
  -27.8689  -30.4360   23.9327 H   0  0  0  0  0  0
  -27.2645  -33.3653   26.2092 H   0  0  0  0  0  0
  -28.3805  -32.6947   25.0295 H   0  0  0  0  0  0
  -28.0719  -31.8473   26.5378 H   0  0  0  0  0  0
  -28.2606  -38.0130   24.7530 H   0  0  0  0  0  0
  -28.1109  -36.2660   24.6254 H   0  0  0  0  0  0
  -27.2309  -37.1448   25.8855 H   0  0  0  0  0  0
  -20.9228  -29.8768   21.6932 H   0  0  0  0  0  0
  -26.0206  -38.2890   24.1372 H   0  0  0  0  0  0
  -29.6308  -18.2824   22.1143 H   0  0  0  0  0  0
  -28.8128  -20.6209   22.1447 H   0  0  0  0  0  0
  -26.1679  -16.3175   14.6618 H   0  0  0  0  0  0
  -26.5325  -18.0241   14.4436 H   0  0  0  0  0  0
  -25.6439  -17.4896   15.8604 H   0  0  0  0  0  0
  -28.6430  -15.7693   14.3916 H   0  0  0  0  0  0
  -29.8517  -16.5042   15.4303 H   0  0  0  0  0  0
  -29.0409  -17.4705   14.2068 H   0  0  0  0  0  0
  -27.3034  -14.9789   16.4938 H   0  0  0  0  0  0
  -26.8466  -16.1562   17.7156 H   0  0  0  0  0  0
  -28.5328  -15.6956   17.5158 H   0  0  0  0  0  0
  -26.6773  -23.0164   20.5765 H   0  0  0  0  0  0
  -27.7751  -22.4511   21.8059 H   0  0  0  0  0  0
  -27.6964  -25.0141   18.9853 H   0  0  0  0  0  0
  -29.3890  -25.0836   19.3141 H   0  0  0  0  0  0
  -27.2625  -18.6761   17.2656 H   0  0  0  0  0  0
  -28.2663  -19.1703   15.9248 H   0  0  0  0  0  0
  -28.2996  -22.4353   18.8579 H   0  0  0  0  0  0
  -29.7946  -17.3923   17.4045 H   0  0  0  0  0  0
  -29.0488  -15.6284   20.7518 H   0  0  0  0  0  0
  1 25  1  0  0  0
  1 30  2  0  0  0
  1 88  1  0  0  0
  2  3  1  0  0  0
  2 25  1  0  0  0
  2 91  1  0  0  0
  2 92  1  0  0  0
  3  4  1  0  0  0
  3 93  1  0  0  0
  3 94  1  0  0  0
  4  5  1  0  0  0
  4 95  1  0  0  0
  4 96  1  0  0  0
  5  6  1  0  0  0
  5 26  1  0  0  0
  5 97  1  0  0  0
  6 25  1  0  0  0
  6 98  1  0  0  0
  6 99  1  0  0  0
  7  8  2  0  0  0
  7 26  1  0  0  0
  7 29  1  0  0  0
  8  9  1  0  0  0
  8 22  1  0  0  0
  9 10  1  0  0  0
  9 27  2  0  0  0
 10 11  2  0  0  0
 10 15  1  0  0  0
 11 12  1  0  0  0
 11100  1  0  0  0
 12 13  2  0  0  0
 12101  1  0  0  0
 13 14  1  0  0  0
 13 31  1  0  0  0
 14 15  2  0  0  0
 14102  1  0  0  0
 15103  1  0  0  0
 16 17  2  0  0  0
 16 21  1  0  0  0
 16 31  1  0  0  0
 17 18  1  0  0  0
 17104  1  0  0  0
 18 19  2  0  0  0
 18105  1  0  0  0
 19 20  1  0  0  0
 19 24  1  0  0  0
 20 21  2  0  0  0
 20106  1  0  0  0
 21 23  1  0  0  0
 22 28  1  0  0  0
 22 32  2  0  0  0
 26 27  1  0  0  0
 28107  1  0  0  0
 28108  1  0  0  0
 29109  1  0  0  0
 29110  1  0  0  0
 33 34  1  0  0  0
 33 66  1  0  0  0
 33 70  2  0  0  0
 34 36  1  0  0  0
 34 59  1  0  0  0
 34111  1  0  0  0
 35 44  2  0  0  0
 35 45  1  0  0  0
 35 68  1  0  0  0
 36 56  1  0  0  0
 36112  1  0  0  0
 37 39  1  0  0  0
 37 47  1  0  0  0
 37 66  1  0  0  0
 37113  1  0  0  0
 38 43  2  0  0  0
 38 46  1  0  0  0
 38 47  1  0  0  0
 39 64  1  0  0  0
 39 67  2  0  0  0
 40 52  1  0  0  0
 40 53  2  0  0  0
 40 58  1  0  0  0
 41114  1  0  0  0
 41115  1  0  0  0
 41116  1  0  0  0
 41 48  1  0  0  0
 42 43  1  0  0  0
 42 66  1  0  0  0
 42117  1  0  0  0
 42118  1  0  0  0
 43 44  1  0  0  0
 44119  1  0  0  0
 45 46  2  0  0  0
 45120  1  0  0  0
 46121  1  0  0  0
 47122  1  0  0  0
 47123  1  0  0  0
 48 56  1  0  0  0
 48 65  1  0  0  0
 48124  1  0  0  0
 49 50  1  0  0  0
 49 53  1  0  0  0
 49 64  1  0  0  0
 49125  1  0  0  0
 50 51  1  0  0  0
 50126  1  0  0  0
 50127  1  0  0  0
 51 52  1  0  0  0
 51128  1  0  0  0
 51129  1  0  0  0
 52130  1  0  0  0
 52131  1  0  0  0
 53 54  1  0  0  0
 54 55  2  0  0  0
 54132  1  0  0  0
 55 57  1  0  0  0
 55133  1  0  0  0
 56 69  2  0  0  0
 57 58  2  0  0  0
 57134  1  0  0  0
 58135  1  0  0  0
 59 60  1  0  0  0
 59 61  1  0  0  0
 59 62  1  0  0  0
 60136  1  0  0  0
 60137  1  0  0  0
 60138  1  0  0  0
 61139  1  0  0  0
 61140  1  0  0  0
 61141  1  0  0  0
 62142  1  0  0  0
 62143  1  0  0  0
 62144  1  0  0  0
 63 65  1  0  0  0
 63145  1  0  0  0
 63146  1  0  0  0
 63147  1  0  0  0
 64148  1  0  0  0
 65149  1  0  0  0
 68 82  1  0  0  0
 71 72  2  0  0  0
 71 73  1  0  0  0
 71150  1  0  0  0
 72 74  1  0  0  0
 72151  1  0  0  0
 73 75  2  0  0  0
 73 76  1  0  0  0
 74 85  2  0  0  0
 74 86  1  0  0  0
 75 85  1  0  0  0
 75 87  1  0  0  0
 76 88  1  0  0  0
 76 89  2  0  0  0
 77 81  1  0  0  0
 77 82  1  0  0  0
 77 90  2  0  0  0
 78152  1  0  0  0
 78153  1  0  0  0
 78154  1  0  0  0
 78 84  1  0  0  0
 79 84  1  0  0  0
 79155  1  0  0  0
 79156  1  0  0  0
 79157  1  0  0  0
 80 84  1  0  0  0
 80158  1  0  0  0
 80159  1  0  0  0
 80160  1  0  0  0
 81 86  1  0  0  0
 81161  1  0  0  0
 81162  1  0  0  0
 82163  1  0  0  0
 82164  1  0  0  0
 83 84  1  0  0  0
 83 87  1  0  0  0
 83165  1  0  0  0
 83166  1  0  0  0
 86167  1  0  0  0
 87168  1  0  0  0
 88169  1  0  0  0
M  ISO  4   1 100  68 101  82 101  88 100
M  END
> <chiral flag>
0

> <version>
0

> <s_m_source_file>
/data/baiqing/PycharmProjects/Reinvent-master-3.2/result/LINK_invent/BTK/process_docking_weight1_custom_product_contain_oxygen_bond_distance_aromatic_linkinvent_7_9_3/rearranged_h_0171.sdf

> <i_m_source_file_index>
16

> <r_mmod_Potential_Energy-OPLS-2005>
-214.451477050781

> <r_mmod_Stretch_Energy-OPLS-2005>
42.9974632263184

> <r_mmod_Bend_Energy-OPLS-2005>
138.160049438477

> <r_mmod_Torsional_Energy-OPLS-2005>
269.105133056641

> <r_mmod_Improper_Torsional_Energy-OPLS-2005>
14.749195098877

> <r_mmod_Van_der_Waal_Energy-OPLS-2005>
157.191207885742

> <r_mmod_Electrostatic_Energy-OPLS-2005>
-594.811096191406

> <r_mmod_Solvation_Energy-OPLS-2005>
-272.448791503906

> <b_mmod_Minimization_Converged-OPLS-2005>
0

> <r_mmod_RMS_Derivative-OPLS-2005>
2.1573588848114

$$$$
16
                    3D
 Structure written by MMmdl.
153161  0  0  1  0            999 V2000
  -30.6070  -14.6213   20.4049 C   0  0  0  0  0  0
  -30.4334  -12.3577   19.4469 C   0  0  0  0  0  0
  -29.5096  -12.4992   18.2156 C   0  0  0  0  0  0
  -28.0311  -12.3326   18.6242 C   0  0  0  0  0  0
  -27.6500  -13.2066   19.8504 C   0  0  2  0  0  0
  -28.6969  -13.0806   20.9814 C   0  0  0  0  0  0
  -25.2532  -13.8202   20.5551 C   0  0  0  0  0  0
  -24.1788  -13.0485   20.9124 C   0  0  0  0  0  0
  -24.6367  -11.6947   20.8750 C   0  0  0  0  0  0
  -23.9019  -10.4327   21.0447 C   0  0  0  0  0  0
  -24.3580   -9.4245   21.9239 C   0  0  0  0  0  0
  -23.6317   -8.2237   22.0771 C   0  0  0  0  0  0
  -22.4315   -8.0264   21.3548 C   0  0  0  0  0  0
  -21.9951   -9.0221   20.4643 C   0  0  0  0  0  0
  -22.7207  -10.2143   20.3070 C   0  0  0  0  0  0
  -21.6860   -6.0760   22.5282 C   0  0  0  0  0  0
  -21.4002   -6.5671   23.8223 C   0  0  0  0  0  0
  -21.3650   -5.6809   24.9175 C   0  0  0  0  0  0
  -21.6062   -4.3071   24.7212 C   0  0  0  0  0  0
  -21.8796   -3.8178   23.4317 C   0  0  0  0  0  0
  -21.9166   -4.6996   22.3380 C   0  0  0  0  0  0
  -22.7806  -13.5267   21.1849 C   0  0  0  0  0  0
  -22.1669   -4.2207   21.0950 F   0  0  0  0  0  0
  -21.5646   -3.4527   25.7707 F   0  0  0  0  0  0
  -30.0177  -13.3897   20.4073 N   0  0  0  0  0  0
  -26.2959  -12.9355   20.3217 N   0  0  0  0  0  0
  -25.9272  -11.6530   20.5713 N   0  0  0  0  0  0
  -22.0505  -12.8277   22.0491 N   0  0  0  0  0  0
  -25.4216  -15.1944   20.3878 N   0  0  0  0  0  0
  -31.7982  -14.7832   20.1301 O   0  0  0  0  0  0
  -21.6672   -6.8873   21.4243 O   0  0  0  0  0  0
  -22.3429  -14.5516   20.6634 O   0  0  0  0  0  0
  -24.6236  -31.8626   23.2063 C   0  0  0  0  0  0
  -25.9110  -32.4776   23.8400 C   0  0  1  0  0  0
  -27.2531  -27.3874   20.1116 C   0  0  0  0  0  0
  -25.5958  -33.8581   24.2340 N   0  0  0  0  0  0
  -23.4177  -30.4846   21.5435 C   0  0  2  0  0  0
  -24.8697  -28.9355   20.1219 C   0  0  0  0  0  0
  -22.7482  -29.4602   22.4920 C   0  0  0  0  0  0
  -18.0307  -28.1378   22.8485 C   0  0  0  0  0  0
  -24.1496  -36.7284   23.2641 C   0  0  0  0  0  0
  -25.9503  -30.8117   21.3692 C   0  0  0  0  0  0
  -26.0300  -29.4391   20.7218 C   0  0  0  0  0  0
  -27.2254  -28.6750   20.7090 C   0  0  0  0  0  0
  -26.0719  -26.9044   19.5095 C   0  0  0  0  0  0
  -24.8864  -27.6694   19.5099 C   0  0  0  0  0  0
  -23.6401  -29.8160   20.1579 C   0  0  0  0  0  0
  -25.4113  -36.3081   24.0342 C   0  0  1  0  0  0
  -20.5904  -28.3652   23.1290 C   0  0  2  0  0  0
  -20.6774  -26.9377   22.5399 C   0  0  0  0  0  0
  -19.5745  -26.6378   21.5210 C   0  0  0  0  0  0
  -18.1934  -26.7925   22.1623 C   0  0  0  0  0  0
  -19.1558  -28.8838   23.2889 C   0  0  0  0  0  0
  -18.9467  -30.1454   23.8895 C   0  0  0  0  0  0
  -17.6457  -30.6571   24.0573 C   0  0  0  0  0  0
  -25.9034  -34.9450   23.5117 C   0  0  0  0  0  0
  -16.5360  -29.9069   23.6324 C   0  0  0  0  0  0
  -16.7300  -28.6501   23.0330 C   0  0  0  0  0  0
  -26.4540  -31.6543   25.0730 C   0  0  0  0  0  0
  -25.3813  -31.3619   26.1475 C   0  0  0  0  0  0
  -27.0378  -30.3008   24.6090 C   0  0  0  0  0  0
  -27.6123  -32.4252   25.7485 C   0  0  0  0  0  0
  -27.5573  -37.1807   24.8473 C   0  0  0  0  0  0
  -21.4198  -29.3017   22.3681 N   0  0  0  0  0  0
  -26.4292  -37.3775   23.9403 N   0  0  0  0  0  0
  -24.6813  -31.0692   22.0977 N   0  0  0  0  0  0
  -23.4227  -28.8152   23.2984 O   0  0  0  0  0  0
  -28.4278  -26.6544   20.0205 O   0  0  0  0  0  0
  -26.5551  -34.8905   22.4651 O   0  0  0  0  0  0
  -23.5411  -32.1382   23.7417 O   0  0  0  0  0  0
  -30.3635  -18.0122   20.8417 C   0  0  0  0  0  0
  -29.9283  -19.2105   20.1649 C   0  0  0  0  0  0
  -29.8183  -16.9775   20.1155 C   0  0  0  0  0  0
  -30.2693  -20.6006   20.7072 C   0  0  0  0  0  0
  -28.9007  -24.1612   20.0131 C   0  0  0  0  0  0
  -28.4109  -16.9270   17.9445 C   0  0  0  0  0  0
  -29.8361  -23.0933   20.6648 C   0  0  0  0  0  0
  -28.5492  -25.4506   20.8267 C   0  0  0  0  0  0
  -29.2184  -18.9080   19.0771 N   0  0  0  0  0  0
  -29.1455  -17.5477   19.0378 N   0  0  0  0  0  0
  -29.7222  -15.6569   20.4851 N   0  0  0  0  0  0
  -29.6411  -21.6883   20.1908 N   0  0  0  0  0  0
  -31.0825  -20.7123   21.6285 O   0  0  0  0  0  0
  -28.4358  -23.9763   18.8824 O   0  0  0  0  0  0
  -31.4808  -12.4696   19.1622 H   0  0  0  0  0  0
  -30.3402  -11.3669   19.8917 H   0  0  0  0  0  0
  -29.7823  -11.7624   17.4585 H   0  0  0  0  0  0
  -29.6547  -13.4793   17.7596 H   0  0  0  0  0  0
  -27.8790  -11.2794   18.8617 H   0  0  0  0  0  0
  -27.3763  -12.5546   17.7802 H   0  0  0  0  0  0
  -27.6607  -14.2344   19.4959 H   0  0  0  0  0  0
  -28.6913  -12.0763   21.4082 H   0  0  0  0  0  0
  -28.4489  -13.7525   21.8050 H   0  0  0  0  0  0
  -25.2688   -9.5765   22.4861 H   0  0  0  0  0  0
  -24.0069   -7.4618   22.7455 H   0  0  0  0  0  0
  -21.0924   -8.8617   19.8935 H   0  0  0  0  0  0
  -22.3610  -10.9648   19.6157 H   0  0  0  0  0  0
  -21.2023   -7.6187   23.9732 H   0  0  0  0  0  0
  -21.1527   -6.0568   25.9081 H   0  0  0  0  0  0
  -22.0610   -2.7660   23.2773 H   0  0  0  0  0  0
  -22.4193  -11.9951   22.4824 H   0  0  0  0  0  0
  -21.1074  -13.1201   22.2674 H   0  0  0  0  0  0
  -24.6374  -15.8348   20.4513 H   0  0  0  0  0  0
  -26.2702  -15.6543   20.0831 H   0  0  0  0  0  0
  -26.7180  -32.5500   23.1161 H   0  0  0  0  0  0
  -25.0291  -33.9747   25.0614 H   0  0  0  0  0  0
  -22.7106  -31.3020   21.3969 H   0  0  0  0  0  0
  -23.3757  -35.9615   23.3310 H   0  0  0  0  0  0
  -24.3606  -36.8882   22.2052 H   0  0  0  0  0  0
  -23.7253  -37.6498   23.6645 H   0  0  0  0  0  0
  -26.0695  -31.5764   20.5990 H   0  0  0  0  0  0
  -26.8366  -30.8685   21.9903 H   0  0  0  0  0  0
  -28.1300  -29.0706   21.1513 H   0  0  0  0  0  0
  -26.0746  -25.9422   19.0156 H   0  0  0  0  0  0
  -23.9959  -27.2827   19.0330 H   0  0  0  0  0  0
  -23.7781  -30.5930   19.4049 H   0  0  0  0  0  0
  -22.7618  -29.2507   19.8418 H   0  0  0  0  0  0
  -25.1298  -36.1930   25.0837 H   0  0  0  0  0  0
  -21.0030  -28.3215   24.1400 H   0  0  0  0  0  0
  -20.5682  -26.2265   23.3598 H   0  0  0  0  0  0
  -21.6648  -26.7406   22.1193 H   0  0  0  0  0  0
  -19.6886  -25.6299   21.1219 H   0  0  0  0  0  0
  -19.6685  -27.3210   20.6761 H   0  0  0  0  0  0
  -17.4221  -26.6720   21.4006 H   0  0  0  0  0  0
  -18.0300  -26.0067   22.9008 H   0  0  0  0  0  0
  -19.7948  -30.7278   24.2246 H   0  0  0  0  0  0
  -17.5017  -31.6241   24.5175 H   0  0  0  0  0  0
  -15.5350  -30.2953   23.7648 H   0  0  0  0  0  0
  -15.8715  -28.0826   22.6982 H   0  0  0  0  0  0
  -24.6021  -30.6929   25.7812 H   0  0  0  0  0  0
  -24.8971  -32.2750   26.4948 H   0  0  0  0  0  0
  -25.8202  -30.8791   27.0215 H   0  0  0  0  0  0
  -26.2905  -29.6721   24.1256 H   0  0  0  0  0  0
  -27.4297  -29.7293   25.4500 H   0  0  0  0  0  0
  -27.8672  -30.4347   23.9152 H   0  0  0  0  0  0
  -27.2788  -33.3566   26.2075 H   0  0  0  0  0  0
  -28.3951  -32.6764   25.0313 H   0  0  0  0  0  0
  -28.0790  -31.8360   26.5392 H   0  0  0  0  0  0
  -28.2596  -38.0102   24.7524 H   0  0  0  0  0  0
  -28.1070  -36.2630   24.6304 H   0  0  0  0  0  0
  -27.2299  -37.1468   25.8885 H   0  0  0  0  0  0
  -20.9371  -29.8745   21.6901 H   0  0  0  0  0  0
  -26.0165  -38.2841   24.1427 H   0  0  0  0  0  0
  -30.9382  -17.9403   21.7533 H   0  0  0  0  0  0
  -27.3593  -17.2225   17.9467 H   0  0  0  0  0  0
  -28.4663  -15.8433   18.0185 H   0  0  0  0  0  0
  -28.8592  -17.2235   16.9925 H   0  0  0  0  0  0
  -29.7100  -23.1415   21.7471 H   0  0  0  0  0  0
  -30.8695  -23.3871   20.4653 H   0  0  0  0  0  0
  -29.3372  -25.6185   21.5627 H   0  0  0  0  0  0
  -27.6370  -25.2678   21.3925 H   0  0  0  0  0  0
  -28.7730  -15.3349   20.5868 H   0  0  0  0  0  0
  -28.9766  -21.5342   19.4428 H   0  0  0  0  0  0
  1 25  1  0  0  0
  1 30  2  0  0  0
  1 81  1  0  0  0
  2  3  1  0  0  0
  2 25  1  0  0  0
  2 85  1  0  0  0
  2 86  1  0  0  0
  3  4  1  0  0  0
  3 87  1  0  0  0
  3 88  1  0  0  0
  4  5  1  0  0  0
  4 89  1  0  0  0
  4 90  1  0  0  0
  5  6  1  0  0  0
  5 26  1  0  0  0
  5 91  1  0  0  0
  6 25  1  0  0  0
  6 92  1  0  0  0
  6 93  1  0  0  0
  7  8  2  0  0  0
  7 26  1  0  0  0
  7 29  1  0  0  0
  8  9  1  0  0  0
  8 22  1  0  0  0
  9 10  1  0  0  0
  9 27  2  0  0  0
 10 11  2  0  0  0
 10 15  1  0  0  0
 11 12  1  0  0  0
 11 94  1  0  0  0
 12 13  2  0  0  0
 12 95  1  0  0  0
 13 14  1  0  0  0
 13 31  1  0  0  0
 14 15  2  0  0  0
 14 96  1  0  0  0
 15 97  1  0  0  0
 16 17  2  0  0  0
 16 21  1  0  0  0
 16 31  1  0  0  0
 17 18  1  0  0  0
 17 98  1  0  0  0
 18 19  2  0  0  0
 18 99  1  0  0  0
 19 20  1  0  0  0
 19 24  1  0  0  0
 20 21  2  0  0  0
 20100  1  0  0  0
 21 23  1  0  0  0
 22 28  1  0  0  0
 22 32  2  0  0  0
 26 27  1  0  0  0
 28101  1  0  0  0
 28102  1  0  0  0
 29103  1  0  0  0
 29104  1  0  0  0
 33 34  1  0  0  0
 33 66  1  0  0  0
 33 70  2  0  0  0
 34 36  1  0  0  0
 34 59  1  0  0  0
 34105  1  0  0  0
 35 44  2  0  0  0
 35 45  1  0  0  0
 35 68  1  0  0  0
 36 56  1  0  0  0
 36106  1  0  0  0
 37 39  1  0  0  0
 37 47  1  0  0  0
 37 66  1  0  0  0
 37107  1  0  0  0
 38 43  2  0  0  0
 38 46  1  0  0  0
 38 47  1  0  0  0
 39 64  1  0  0  0
 39 67  2  0  0  0
 40 52  1  0  0  0
 40 53  2  0  0  0
 40 58  1  0  0  0
 41108  1  0  0  0
 41109  1  0  0  0
 41110  1  0  0  0
 41 48  1  0  0  0
 42 43  1  0  0  0
 42 66  1  0  0  0
 42111  1  0  0  0
 42112  1  0  0  0
 43 44  1  0  0  0
 44113  1  0  0  0
 45 46  2  0  0  0
 45114  1  0  0  0
 46115  1  0  0  0
 47116  1  0  0  0
 47117  1  0  0  0
 48 56  1  0  0  0
 48 65  1  0  0  0
 48118  1  0  0  0
 49 50  1  0  0  0
 49 53  1  0  0  0
 49 64  1  0  0  0
 49119  1  0  0  0
 50 51  1  0  0  0
 50120  1  0  0  0
 50121  1  0  0  0
 51 52  1  0  0  0
 51122  1  0  0  0
 51123  1  0  0  0
 52124  1  0  0  0
 52125  1  0  0  0
 53 54  1  0  0  0
 54 55  2  0  0  0
 54126  1  0  0  0
 55 57  1  0  0  0
 55127  1  0  0  0
 56 69  2  0  0  0
 57 58  2  0  0  0
 57128  1  0  0  0
 58129  1  0  0  0
 59 60  1  0  0  0
 59 61  1  0  0  0
 59 62  1  0  0  0
 60130  1  0  0  0
 60131  1  0  0  0
 60132  1  0  0  0
 61133  1  0  0  0
 61134  1  0  0  0
 61135  1  0  0  0
 62136  1  0  0  0
 62137  1  0  0  0
 62138  1  0  0  0
 63 65  1  0  0  0
 63139  1  0  0  0
 63140  1  0  0  0
 63141  1  0  0  0
 64142  1  0  0  0
 65143  1  0  0  0
 68 78  1  0  0  0
 71 72  1  0  0  0
 71 73  2  0  0  0
 71144  1  0  0  0
 72 74  1  0  0  0
 72 79  2  0  0  0
 73 80  1  0  0  0
 73 81  1  0  0  0
 74 82  1  0  0  0
 74 83  2  0  0  0
 75 77  1  0  0  0
 75 78  1  0  0  0
 75 84  2  0  0  0
 76 80  1  0  0  0
 76145  1  0  0  0
 76146  1  0  0  0
 76147  1  0  0  0
 77 82  1  0  0  0
 77148  1  0  0  0
 77149  1  0  0  0
 78150  1  0  0  0
 78151  1  0  0  0
 79 80  1  0  0  0
 81152  1  0  0  0
 82153  1  0  0  0
M  ISO  4   1 100  68 101  78 101  81 100
M  END
> <chiral flag>
0

> <version>
0

> <s_m_source_file>
/data/baiqing/PycharmProjects/Reinvent-master-3.2/result/LINK_invent/BTK/process_docking_weight1_custom_product_contain_oxygen_bond_distance_aromatic_linkinvent_7_9_3/rearranged_h_0171.sdf

> <i_m_source_file_index>
17

> <r_mmod_Potential_Energy-OPLS-2005>
-121.711441040039

> <r_mmod_Stretch_Energy-OPLS-2005>
52.8109474182129

> <r_mmod_Bend_Energy-OPLS-2005>
120.693305969238

> <r_mmod_Torsional_Energy-OPLS-2005>
284.932647705078

> <r_mmod_Improper_Torsional_Energy-OPLS-2005>
8.85498428344727

> <r_mmod_Van_der_Waal_Energy-OPLS-2005>
111.086502075195

> <r_mmod_Electrostatic_Energy-OPLS-2005>
-475.827239990234

> <r_mmod_Solvation_Energy-OPLS-2005>
-261.021759033203

> <b_mmod_Minimization_Converged-OPLS-2005>
0

> <r_mmod_RMS_Derivative-OPLS-2005>
5.35357666015625

$$$$
17
                    3D
 Structure written by MMmdl.
165173  0  0  1  0            999 V2000
  -30.6186  -14.5400   20.5511 C   0  0  0  0  0  0
  -30.4445  -12.3421   19.4149 C   0  0  0  0  0  0
  -29.5008  -12.5079   18.2021 C   0  0  0  0  0  0
  -28.0218  -12.3499   18.6175 C   0  0  0  0  0  0
  -27.6592  -13.1921   19.8692 C   0  0  2  0  0  0
  -28.7044  -12.9640   20.9858 C   0  0  0  0  0  0
  -25.2594  -13.8105   20.5683 C   0  0  0  0  0  0
  -24.1842  -13.0406   20.9186 C   0  0  0  0  0  0
  -24.6376  -11.6864   20.8741 C   0  0  0  0  0  0
  -23.9037  -10.4262   21.0408 C   0  0  0  0  0  0
  -24.3603   -9.4181   21.9181 C   0  0  0  0  0  0
  -23.6285   -8.2216   22.0753 C   0  0  0  0  0  0
  -22.4262   -8.0264   21.3548 C   0  0  0  0  0  0
  -21.9895   -9.0231   20.4647 C   0  0  0  0  0  0
  -22.7217  -10.2112   20.3052 C   0  0  0  0  0  0
  -21.6838   -6.0737   22.5286 C   0  0  0  0  0  0
  -21.4007   -6.5640   23.8220 C   0  0  0  0  0  0
  -21.3654   -5.6792   24.9181 C   0  0  0  0  0  0
  -21.6040   -4.3055   24.7229 C   0  0  0  0  0  0
  -21.8813   -3.8150   23.4345 C   0  0  0  0  0  0
  -21.9185   -4.6967   22.3404 C   0  0  0  0  0  0
  -22.7871  -13.5220   21.1845 C   0  0  0  0  0  0
  -22.1661   -4.2162   21.0980 F   0  0  0  0  0  0
  -21.5624   -3.4537   25.7736 F   0  0  0  0  0  0
  -30.0266  -13.3160   20.4338 N   0  0  0  0  0  0
  -26.3005  -12.9242   20.3331 N   0  0  0  0  0  0
  -25.9296  -11.6415   20.5758 N   0  0  0  0  0  0
  -22.0519  -12.8227   22.0406 N   0  0  0  0  0  0
  -25.4297  -15.1844   20.4095 N   0  0  0  0  0  0
  -31.7709  -14.7724   20.1730 O   0  0  0  0  0  0
  -21.6615   -6.8878   21.4245 O   0  0  0  0  0  0
  -22.3557  -14.5524   20.6682 O   0  0  0  0  0  0
  -24.6190  -31.8665   23.2047 C   0  0  0  0  0  0
  -25.9076  -32.4795   23.8360 C   0  0  1  0  0  0
  -27.2377  -27.3967   20.1198 C   0  0  0  0  0  0
  -25.5914  -33.8591   24.2309 N   0  0  0  0  0  0
  -23.4072  -30.4868   21.5463 C   0  0  2  0  0  0
  -24.8542  -28.9372   20.1201 C   0  0  0  0  0  0
  -22.7421  -29.4666   22.4990 C   0  0  0  0  0  0
  -18.0276  -28.1370   22.8494 C   0  0  0  0  0  0
  -24.1492  -36.7305   23.2632 C   0  0  0  0  0  0
  -25.9362  -30.8213   21.3574 C   0  0  0  0  0  0
  -26.0160  -29.4480   20.7145 C   0  0  0  0  0  0
  -27.2124  -28.6889   20.7039 C   0  0  0  0  0  0
  -26.0584  -26.9069   19.5198 C   0  0  0  0  0  0
  -24.8717  -27.6665   19.5174 C   0  0  0  0  0  0
  -23.6181  -29.8100   20.1647 C   0  0  0  0  0  0
  -25.4105  -36.3094   24.0340 C   0  0  1  0  0  0
  -20.5866  -28.3679   23.1301 C   0  0  2  0  0  0
  -20.6761  -26.9417   22.5400 C   0  0  0  0  0  0
  -19.5743  -26.6398   21.5191 C   0  0  0  0  0  0
  -18.1928  -26.7913   22.1616 C   0  0  0  0  0  0
  -19.1524  -28.8843   23.2890 C   0  0  0  0  0  0
  -18.9457  -30.1439   23.8913 C   0  0  0  0  0  0
  -17.6460  -30.6578   24.0573 C   0  0  0  0  0  0
  -25.9045  -34.9458   23.5127 C   0  0  0  0  0  0
  -16.5354  -29.9085   23.6317 C   0  0  0  0  0  0
  -16.7264  -28.6492   23.0359 C   0  0  0  0  0  0
  -26.4482  -31.6556   25.0682 C   0  0  0  0  0  0
  -25.3751  -31.3656   26.1433 C   0  0  0  0  0  0
  -27.0291  -30.2996   24.6030 C   0  0  0  0  0  0
  -27.6067  -32.4248   25.7454 C   0  0  0  0  0  0
  -27.5575  -37.1804   24.8468 C   0  0  0  0  0  0
  -21.4152  -29.3045   22.3712 N   0  0  0  0  0  0
  -26.4291  -37.3783   23.9407 N   0  0  0  0  0  0
  -24.6722  -31.0743   22.0945 N   0  0  0  0  0  0
  -23.4171  -28.8236   23.3072 O   0  0  0  0  0  0
  -28.4004  -26.6452   20.0965 O   0  0  0  0  0  0
  -26.5622  -34.8929   22.4696 O   0  0  0  0  0  0
  -23.5378  -32.1441   23.7435 O   0  0  0  0  0  0
  -30.1226  -17.9954   20.5994 C   0  0  0  0  0  0
  -29.4276  -18.2892   23.2953 C   0  0  0  0  0  0
  -30.0216  -19.3178   21.1449 C   0  0  0  0  0  0
  -29.8809  -16.8335   21.3886 C   0  0  0  0  0  0
  -29.6653  -19.4404   22.5170 C   0  0  0  0  0  0
  -29.5291  -17.0024   22.7394 C   0  0  0  0  0  0
  -29.5802  -22.9649   20.6400 C   0  0  0  0  0  0
  -31.8758  -20.9507   20.5512 C   0  0  0  0  0  0
  -28.1159  -23.7351   18.6685 C   0  0  0  0  0  0
  -30.3344  -24.8101   19.1583 C   0  0  0  0  0  0
  -28.3529  -25.3028   20.6574 C   0  0  0  0  0  0
  -30.4173  -20.5406   20.2645 C   0  0  2  0  0  0
  -29.0702  -24.1913   19.7948 C   0  0  0  0  0  0
  -29.5539  -20.6794   23.1463 N   0  0  0  0  0  0
  -29.7296  -15.5114   20.8595 N   0  0  0  0  0  0
  -29.4962  -21.7117   20.1201 N   0  0  0  0  0  0
  -30.1506  -23.1764   21.7119 O   0  0  0  0  0  0
  -29.2496  -15.9167   23.5019 F   0  0  0  0  0  0
  -31.4825  -12.4839   19.1092 H   0  0  0  0  0  0
  -30.3871  -11.3293   19.8163 H   0  0  0  0  0  0
  -29.7554  -11.7822   17.4278 H   0  0  0  0  0  0
  -29.6459  -13.4914   17.7529 H   0  0  0  0  0  0
  -27.8423  -11.2946   18.8235 H   0  0  0  0  0  0
  -27.3708  -12.6124   17.7829 H   0  0  0  0  0  0
  -27.6964  -14.2370   19.5646 H   0  0  0  0  0  0
  -28.6975  -11.9183   21.3006 H   0  0  0  0  0  0
  -28.4602  -13.5350   21.8828 H   0  0  0  0  0  0
  -25.2749   -9.5650   22.4765 H   0  0  0  0  0  0
  -23.9985   -7.4598   22.7476 H   0  0  0  0  0  0
  -21.0825   -8.8742   19.8964 H   0  0  0  0  0  0
  -22.3670  -10.9652   19.6162 H   0  0  0  0  0  0
  -21.2010   -7.6153   23.9733 H   0  0  0  0  0  0
  -21.1482   -6.0523   25.9087 H   0  0  0  0  0  0
  -22.0603   -2.7622   23.2835 H   0  0  0  0  0  0
  -22.4113  -11.9873   22.4780 H   0  0  0  0  0  0
  -21.1155  -13.1276   22.2638 H   0  0  0  0  0  0
  -24.6571  -15.8330   20.5171 H   0  0  0  0  0  0
  -26.2721  -15.6314   20.0705 H   0  0  0  0  0  0
  -26.7140  -32.5507   23.1119 H   0  0  0  0  0  0
  -25.0066  -33.9738   25.0460 H   0  0  0  0  0  0
  -22.6964  -31.3039   21.4016 H   0  0  0  0  0  0
  -23.3744  -35.9647   23.3308 H   0  0  0  0  0  0
  -24.3595  -36.8913   22.2045 H   0  0  0  0  0  0
  -23.7264  -37.6523   23.6642 H   0  0  0  0  0  0
  -26.0454  -31.5788   20.5796 H   0  0  0  0  0  0
  -26.8239  -30.8831   21.9744 H   0  0  0  0  0  0
  -28.1100  -29.0855   21.1578 H   0  0  0  0  0  0
  -26.0546  -25.9345   19.0498 H   0  0  0  0  0  0
  -23.9789  -27.2644   19.0556 H   0  0  0  0  0  0
  -23.7320  -30.5793   19.3990 H   0  0  0  0  0  0
  -22.7397  -29.2326   19.8695 H   0  0  0  0  0  0
  -25.1281  -36.1948   25.0832 H   0  0  0  0  0  0
  -20.9953  -28.3245   24.1431 H   0  0  0  0  0  0
  -20.5646  -26.2314   23.3604 H   0  0  0  0  0  0
  -21.6641  -26.7453   22.1224 H   0  0  0  0  0  0
  -19.6918  -25.6318   21.1211 H   0  0  0  0  0  0
  -19.6657  -27.3225   20.6726 H   0  0  0  0  0  0
  -17.4198  -26.6666   21.4016 H   0  0  0  0  0  0
  -18.0335  -26.0036   22.8996 H   0  0  0  0  0  0
  -19.7942  -30.7233   24.2301 H   0  0  0  0  0  0
  -17.5030  -31.6260   24.5179 H   0  0  0  0  0  0
  -15.5361  -30.3007   23.7612 H   0  0  0  0  0  0
  -15.8665  -28.0806   22.7084 H   0  0  0  0  0  0
  -24.5964  -30.6948   25.7786 H   0  0  0  0  0  0
  -24.8898  -32.2803   26.4846 H   0  0  0  0  0  0
  -25.8130  -30.8880   27.0208 H   0  0  0  0  0  0
  -26.2817  -29.6774   24.1093 H   0  0  0  0  0  0
  -27.4086  -29.7195   25.4449 H   0  0  0  0  0  0
  -27.8644  -30.4313   23.9146 H   0  0  0  0  0  0
  -27.2705  -33.3545   26.2050 H   0  0  0  0  0  0
  -28.3877  -32.6794   25.0277 H   0  0  0  0  0  0
  -28.0721  -31.8345   26.5360 H   0  0  0  0  0  0
  -28.2608  -38.0086   24.7508 H   0  0  0  0  0  0
  -28.1057  -36.2627   24.6296 H   0  0  0  0  0  0
  -27.2307  -37.1459   25.8876 H   0  0  0  0  0  0
  -20.9334  -29.8774   21.6930 H   0  0  0  0  0  0
  -26.0179  -38.2865   24.1382 H   0  0  0  0  0  0
  -30.3602  -17.8708   19.5539 H   0  0  0  0  0  0
  -29.1498  -18.3745   24.3356 H   0  0  0  0  0  0
  -32.0048  -21.2887   21.5802 H   0  0  0  0  0  0
  -32.2103  -21.7504   19.8905 H   0  0  0  0  0  0
  -32.5506  -20.1067   20.4056 H   0  0  0  0  0  0
  -28.5919  -23.0399   17.9754 H   0  0  0  0  0  0
  -27.7853  -24.5883   18.0755 H   0  0  0  0  0  0
  -27.2251  -23.2527   19.0745 H   0  0  0  0  0  0
  -30.9110  -24.0660   18.6074 H   0  0  0  0  0  0
  -30.9932  -25.2399   19.9144 H   0  0  0  0  0  0
  -30.0827  -25.6044   18.4545 H   0  0  0  0  0  0
  -28.8251  -25.3783   21.6373 H   0  0  0  0  0  0
  -27.3279  -24.9956   20.8670 H   0  0  0  0  0  0
  -30.4333  -20.1531   19.2451 H   0  0  0  0  0  0
  -29.4673  -20.7660   24.1533 H   0  0  0  0  0  0
  -29.8283  -21.5376   22.6641 H   0  0  0  0  0  0
  -28.8404  -15.0981   21.0913 H   0  0  0  0  0  0
  -28.9033  -21.6538   19.3031 H   0  0  0  0  0  0
  1 25  1  0  0  0
  1 30  2  0  0  0
  1 85  1  0  0  0
  2  3  1  0  0  0
  2 25  1  0  0  0
  2 89  1  0  0  0
  2 90  1  0  0  0
  3  4  1  0  0  0
  3 91  1  0  0  0
  3 92  1  0  0  0
  4  5  1  0  0  0
  4 93  1  0  0  0
  4 94  1  0  0  0
  5  6  1  0  0  0
  5 26  1  0  0  0
  5 95  1  0  0  0
  6 25  1  0  0  0
  6 96  1  0  0  0
  6 97  1  0  0  0
  7  8  2  0  0  0
  7 26  1  0  0  0
  7 29  1  0  0  0
  8  9  1  0  0  0
  8 22  1  0  0  0
  9 10  1  0  0  0
  9 27  2  0  0  0
 10 11  2  0  0  0
 10 15  1  0  0  0
 11 12  1  0  0  0
 11 98  1  0  0  0
 12 13  2  0  0  0
 12 99  1  0  0  0
 13 14  1  0  0  0
 13 31  1  0  0  0
 14 15  2  0  0  0
 14100  1  0  0  0
 15101  1  0  0  0
 16 17  2  0  0  0
 16 21  1  0  0  0
 16 31  1  0  0  0
 17 18  1  0  0  0
 17102  1  0  0  0
 18 19  2  0  0  0
 18103  1  0  0  0
 19 20  1  0  0  0
 19 24  1  0  0  0
 20 21  2  0  0  0
 20104  1  0  0  0
 21 23  1  0  0  0
 22 28  1  0  0  0
 22 32  2  0  0  0
 26 27  1  0  0  0
 28105  1  0  0  0
 28106  1  0  0  0
 29107  1  0  0  0
 29108  1  0  0  0
 33 34  1  0  0  0
 33 66  1  0  0  0
 33 70  2  0  0  0
 34 36  1  0  0  0
 34 59  1  0  0  0
 34109  1  0  0  0
 35 44  2  0  0  0
 35 45  1  0  0  0
 35 68  1  0  0  0
 36 56  1  0  0  0
 36110  1  0  0  0
 37 39  1  0  0  0
 37 47  1  0  0  0
 37 66  1  0  0  0
 37111  1  0  0  0
 38 43  2  0  0  0
 38 46  1  0  0  0
 38 47  1  0  0  0
 39 64  1  0  0  0
 39 67  2  0  0  0
 40 52  1  0  0  0
 40 53  2  0  0  0
 40 58  1  0  0  0
 41112  1  0  0  0
 41113  1  0  0  0
 41114  1  0  0  0
 41 48  1  0  0  0
 42 43  1  0  0  0
 42 66  1  0  0  0
 42115  1  0  0  0
 42116  1  0  0  0
 43 44  1  0  0  0
 44117  1  0  0  0
 45 46  2  0  0  0
 45118  1  0  0  0
 46119  1  0  0  0
 47120  1  0  0  0
 47121  1  0  0  0
 48 56  1  0  0  0
 48 65  1  0  0  0
 48122  1  0  0  0
 49 50  1  0  0  0
 49 53  1  0  0  0
 49 64  1  0  0  0
 49123  1  0  0  0
 50 51  1  0  0  0
 50124  1  0  0  0
 50125  1  0  0  0
 51 52  1  0  0  0
 51126  1  0  0  0
 51127  1  0  0  0
 52128  1  0  0  0
 52129  1  0  0  0
 53 54  1  0  0  0
 54 55  2  0  0  0
 54130  1  0  0  0
 55 57  1  0  0  0
 55131  1  0  0  0
 56 69  2  0  0  0
 57 58  2  0  0  0
 57132  1  0  0  0
 58133  1  0  0  0
 59 60  1  0  0  0
 59 61  1  0  0  0
 59 62  1  0  0  0
 60134  1  0  0  0
 60135  1  0  0  0
 60136  1  0  0  0
 61137  1  0  0  0
 61138  1  0  0  0
 61139  1  0  0  0
 62140  1  0  0  0
 62141  1  0  0  0
 62142  1  0  0  0
 63 65  1  0  0  0
 63143  1  0  0  0
 63144  1  0  0  0
 63145  1  0  0  0
 64146  1  0  0  0
 65147  1  0  0  0
 68 81  1  0  0  0
 71 73  2  0  0  0
 71 74  1  0  0  0
 71148  1  0  0  0
 72 75  2  0  0  0
 72 76  1  0  0  0
 72149  1  0  0  0
 73 75  1  0  0  0
 73 82  1  0  0  0
 74 76  2  0  0  0
 74 85  1  0  0  0
 75 84  1  0  0  0
 76 88  1  0  0  0
 77 83  1  0  0  0
 77 86  1  0  0  0
 77 87  2  0  0  0
 78150  1  0  0  0
 78151  1  0  0  0
 78152  1  0  0  0
 78 82  1  0  0  0
 79153  1  0  0  0
 79154  1  0  0  0
 79155  1  0  0  0
 79 83  1  0  0  0
 80 83  1  0  0  0
 80156  1  0  0  0
 80157  1  0  0  0
 80158  1  0  0  0
 81 83  1  0  0  0
 81159  1  0  0  0
 81160  1  0  0  0
 82 86  1  0  0  0
 82161  1  0  0  0
 84162  1  0  0  0
 84163  1  0  0  0
 85164  1  0  0  0
 86165  1  0  0  0
M  ISO  4   1 100  68 101  81 101  85 100
M  END
> <chiral flag>
0

> <version>
0

> <s_m_source_file>
/data/baiqing/PycharmProjects/Reinvent-master-3.2/result/LINK_invent/BTK/process_docking_weight1_custom_product_contain_oxygen_bond_distance_aromatic_linkinvent_7_9_3/rearranged_h_0171.sdf

> <i_m_source_file_index>
18

> <r_mmod_Potential_Energy-OPLS-2005>
-21.7870674133301

> <r_mmod_Stretch_Energy-OPLS-2005>
56.1348609924316

> <r_mmod_Bend_Energy-OPLS-2005>
141.977676391602

> <r_mmod_Torsional_Energy-OPLS-2005>
286.372650146484

> <r_mmod_Improper_Torsional_Energy-OPLS-2005>
12.9356908798218

> <r_mmod_Van_der_Waal_Energy-OPLS-2005>
151.214904785156

> <r_mmod_Electrostatic_Energy-OPLS-2005>
-473.581939697266

> <r_mmod_Solvation_Energy-OPLS-2005>
-218.857818603516

> <b_mmod_Minimization_Converged-OPLS-2005>
0

> <r_mmod_RMS_Derivative-OPLS-2005>
2.29155826568604

$$$$
18
                    3D
 Structure written by MMmdl.
169178  0  0  1  0            999 V2000
  -30.6768  -14.5063   20.5481 C   0  0  0  0  0  0
  -30.4273  -12.3143   19.4408 C   0  0  0  0  0  0
  -29.5046  -12.4969   18.2173 C   0  0  0  0  0  0
  -28.0212  -12.3662   18.6193 C   0  0  0  0  0  0
  -27.6603  -13.2085   19.8733 C   0  0  2  0  0  0
  -28.7000  -13.0052   21.0003 C   0  0  0  0  0  0
  -25.2571  -13.8161   20.5663 C   0  0  0  0  0  0
  -24.1831  -13.0439   20.9166 C   0  0  0  0  0  0
  -24.6388  -11.6903   20.8734 C   0  0  0  0  0  0
  -23.9049  -10.4296   21.0405 C   0  0  0  0  0  0
  -24.3606   -9.4212   21.9180 C   0  0  0  0  0  0
  -23.6282   -8.2247   22.0755 C   0  0  0  0  0  0
  -22.4269   -8.0280   21.3538 C   0  0  0  0  0  0
  -21.9897   -9.0255   20.4645 C   0  0  0  0  0  0
  -22.7222  -10.2132   20.3055 C   0  0  0  0  0  0
  -21.6859   -6.0730   22.5277 C   0  0  0  0  0  0
  -21.4011   -6.5630   23.8209 C   0  0  0  0  0  0
  -21.3661   -5.6785   24.9172 C   0  0  0  0  0  0
  -21.6051   -4.3050   24.7225 C   0  0  0  0  0  0
  -21.8818   -3.8139   23.4345 C   0  0  0  0  0  0
  -21.9187   -4.6953   22.3398 C   0  0  0  0  0  0
  -22.7851  -13.5237   21.1835 C   0  0  0  0  0  0
  -22.1663   -4.2136   21.0976 F   0  0  0  0  0  0
  -21.5627   -3.4534   25.7737 F   0  0  0  0  0  0
  -30.0302  -13.3107   20.4483 N   0  0  0  0  0  0
  -26.3013  -12.9338   20.3342 N   0  0  0  0  0  0
  -25.9319  -11.6496   20.5756 N   0  0  0  0  0  0
  -22.0494  -12.8242   22.0398 N   0  0  0  0  0  0
  -25.4285  -15.1884   20.4057 N   0  0  0  0  0  0
  -31.8237  -14.6764   20.1239 O   0  0  0  0  0  0
  -21.6643   -6.8872   21.4237 O   0  0  0  0  0  0
  -22.3539  -14.5551   20.6682 O   0  0  0  0  0  0
  -24.6154  -31.8655   23.2066 C   0  0  0  0  0  0
  -25.9050  -32.4807   23.8351 C   0  0  1  0  0  0
  -27.2471  -27.4206   20.0900 C   0  0  0  0  0  0
  -25.5911  -33.8602   24.2308 N   0  0  0  0  0  0
  -23.4026  -30.4875   21.5468 C   0  0  2  0  0  0
  -24.8512  -28.9459   20.1077 C   0  0  0  0  0  0
  -22.7396  -29.4652   22.4972 C   0  0  0  0  0  0
  -18.0258  -28.1386   22.8488 C   0  0  0  0  0  0
  -24.1487  -36.7303   23.2629 C   0  0  0  0  0  0
  -25.9296  -30.8264   21.3574 C   0  0  0  0  0  0
  -26.0068  -29.4563   20.7087 C   0  0  0  0  0  0
  -27.1995  -28.6974   20.7021 C   0  0  0  0  0  0
  -26.0699  -26.9238   19.4852 C   0  0  0  0  0  0
  -24.8780  -27.6785   19.4963 C   0  0  0  0  0  0
  -23.6110  -29.8130   20.1617 C   0  0  0  0  0  0
  -25.4104  -36.3095   24.0336 C   0  0  1  0  0  0
  -20.5853  -28.3666   23.1326 C   0  0  2  0  0  0
  -20.6761  -26.9408   22.5410 C   0  0  0  0  0  0
  -19.5739  -26.6401   21.5206 C   0  0  0  0  0  0
  -18.1917  -26.7934   22.1622 C   0  0  0  0  0  0
  -19.1513  -28.8839   23.2906 C   0  0  0  0  0  0
  -18.9445  -30.1448   23.8913 C   0  0  0  0  0  0
  -17.6452  -30.6596   24.0568 C   0  0  0  0  0  0
  -25.9037  -34.9467   23.5120 C   0  0  0  0  0  0
  -16.5338  -29.9102   23.6330 C   0  0  0  0  0  0
  -16.7251  -28.6521   23.0340 C   0  0  0  0  0  0
  -26.4485  -31.6583   25.0673 C   0  0  0  0  0  0
  -25.3757  -31.3695   26.1425 C   0  0  0  0  0  0
  -27.0290  -30.3018   24.6025 C   0  0  0  0  0  0
  -27.6063  -32.4288   25.7451 C   0  0  0  0  0  0
  -27.5577  -37.1794   24.8465 C   0  0  0  0  0  0
  -21.4122  -29.3038   22.3728 N   0  0  0  0  0  0
  -26.4285  -37.3784   23.9417 N   0  0  0  0  0  0
  -24.6683  -31.0747   22.0965 N   0  0  0  0  0  0
  -23.4172  -28.8197   23.3015 O   0  0  0  0  0  0
  -28.4429  -26.7228   20.1317 O   0  0  0  0  0  0
  -26.5583  -34.8935   22.4675 O   0  0  0  0  0  0
  -23.5358  -32.1408   23.7482 O   0  0  0  0  0  0
  -29.2286  -19.1017   19.9649 C   0  0  0  0  0  0
  -29.0461  -17.7315   20.2772 C   0  0  0  0  0  0
  -31.3557  -17.5767   20.9905 C   0  0  0  0  0  0
  -30.4875  -19.7259   20.1388 C   0  0  0  0  0  0
  -30.1191  -16.9368   20.7487 C   0  0  0  0  0  0
  -31.5387  -18.9461   20.6902 C   0  0  0  0  0  0
  -29.0302  -22.9139   17.9559 C   0  0  0  0  0  0
  -29.6242  -21.6240   17.3804 C   0  0  0  0  0  0
  -30.7761  -21.1559   19.6065 C   0  0  1  0  0  0
  -28.8086  -22.8334   19.4839 C   0  0  1  0  0  0
  -30.9626  -21.2486   18.0508 C   0  0  0  0  0  0
  -32.0549  -22.2906   17.7046 C   0  0  0  0  0  0
  -31.4370  -19.9110   17.4333 C   0  0  0  0  0  0
  -28.2663  -24.1837   20.0969 C   0  0  0  0  0  0
  -28.6614  -25.5138   19.3795 C   0  0  0  0  0  0
  -29.9140  -15.5349   20.9880 N   0  0  0  0  0  0
  -30.0076  -22.2966   20.2052 N   0  3  0  0  0  0
  -32.7624  -19.4926   20.8888 F   0  0  0  0  0  0
  -31.4727  -12.4132   19.1444 H   0  0  0  0  0  0
  -30.3276  -11.3072   19.8498 H   0  0  0  0  0  0
  -29.7503  -11.7621   17.4488 H   0  0  0  0  0  0
  -29.6791  -13.4757   17.7693 H   0  0  0  0  0  0
  -27.8231  -11.3116   18.8130 H   0  0  0  0  0  0
  -27.3804  -12.6461   17.7825 H   0  0  0  0  0  0
  -27.6993  -14.2549   19.5680 H   0  0  0  0  0  0
  -28.6780  -11.9745   21.3579 H   0  0  0  0  0  0
  -28.4601  -13.6199   21.8696 H   0  0  0  0  0  0
  -25.2760   -9.5692   22.4749 H   0  0  0  0  0  0
  -23.9996   -7.4644   22.7479 H   0  0  0  0  0  0
  -21.0826   -8.8768   19.8962 H   0  0  0  0  0  0
  -22.3680  -10.9664   19.6162 H   0  0  0  0  0  0
  -21.2018   -7.6141   23.9702 H   0  0  0  0  0  0
  -21.1485   -6.0523   25.9070 H   0  0  0  0  0  0
  -22.0599   -2.7600   23.2848 H   0  0  0  0  0  0
  -22.4101  -11.9911   22.4801 H   0  0  0  0  0  0
  -21.1120  -13.1283   22.2605 H   0  0  0  0  0  0
  -24.6582  -15.8414   20.5060 H   0  0  0  0  0  0
  -26.2714  -15.6223   20.0549 H   0  0  0  0  0  0
  -26.7101  -32.5511   23.1090 H   0  0  0  0  0  0
  -25.0093  -33.9756   25.0477 H   0  0  0  0  0  0
  -22.6888  -31.3017   21.4038 H   0  0  0  0  0  0
  -23.3761  -35.9626   23.3306 H   0  0  0  0  0  0
  -24.3569  -36.8903   22.2035 H   0  0  0  0  0  0
  -23.7235  -37.6513   23.6634 H   0  0  0  0  0  0
  -26.0286  -31.5886   20.5832 H   0  0  0  0  0  0
  -26.8240  -30.8903   21.9648 H   0  0  0  0  0  0
  -28.0920  -29.0919   21.1680 H   0  0  0  0  0  0
  -26.0545  -25.9537   19.0105 H   0  0  0  0  0  0
  -23.9875  -27.2769   19.0316 H   0  0  0  0  0  0
  -23.7074  -30.5840   19.3957 H   0  0  0  0  0  0
  -22.7356  -29.2262   19.8784 H   0  0  0  0  0  0
  -25.1288  -36.1935   25.0829 H   0  0  0  0  0  0
  -20.9945  -28.3229   24.1445 H   0  0  0  0  0  0
  -20.5657  -26.2271   23.3589 H   0  0  0  0  0  0
  -21.6639  -26.7441   22.1211 H   0  0  0  0  0  0
  -19.6900  -25.6319   21.1217 H   0  0  0  0  0  0
  -19.6696  -27.3231   20.6757 H   0  0  0  0  0  0
  -17.4188  -26.6662   21.4029 H   0  0  0  0  0  0
  -18.0323  -26.0080   22.9023 H   0  0  0  0  0  0
  -19.7922  -30.7252   24.2295 H   0  0  0  0  0  0
  -17.5011  -31.6279   24.5164 H   0  0  0  0  0  0
  -15.5345  -30.3007   23.7662 H   0  0  0  0  0  0
  -15.8644  -28.0858   22.7035 H   0  0  0  0  0  0
  -24.5942  -30.7010   25.7793 H   0  0  0  0  0  0
  -24.8930  -32.2851   26.4855 H   0  0  0  0  0  0
  -25.8132  -30.8894   27.0182 H   0  0  0  0  0  0
  -26.2817  -29.6797   24.1072 H   0  0  0  0  0  0
  -27.4056  -29.7221   25.4463 H   0  0  0  0  0  0
  -27.8666  -30.4347   23.9167 H   0  0  0  0  0  0
  -27.2693  -33.3580   26.2057 H   0  0  0  0  0  0
  -28.3889  -32.6845   25.0297 H   0  0  0  0  0  0
  -28.0703  -31.8363   26.5341 H   0  0  0  0  0  0
  -28.2605  -38.0081   24.7520 H   0  0  0  0  0  0
  -28.1057  -36.2610   24.6297 H   0  0  0  0  0  0
  -27.2279  -37.1470   25.8861 H   0  0  0  0  0  0
  -20.9247  -29.8732   21.6944 H   0  0  0  0  0  0
  -26.0175  -38.2858   24.1436 H   0  0  0  0  0  0
  -28.4036  -19.6548   19.5409 H   0  0  0  0  0  0
  -28.0763  -17.2856   20.1093 H   0  0  0  0  0  0
  -32.1916  -17.0155   21.3819 H   0  0  0  0  0  0
  -28.0779  -23.1195   17.4643 H   0  0  0  0  0  0
  -29.6842  -23.7435   17.6939 H   0  0  0  0  0  0
  -29.7593  -21.7317   16.3027 H   0  0  0  0  0  0
  -28.9044  -20.8150   17.5062 H   0  0  0  0  0  0
  -31.7646  -21.3616   20.0151 H   0  0  0  0  0  0
  -28.0335  -22.0828   19.6473 H   0  0  0  0  0  0
  -31.8575  -23.2723   18.1336 H   0  0  0  0  0  0
  -32.1508  -22.4259   16.6260 H   0  0  0  0  0  0
  -33.0334  -21.9773   18.0730 H   0  0  0  0  0  0
  -30.6835  -19.1261   17.5092 H   0  0  0  0  0  0
  -32.3467  -19.5506   17.9183 H   0  0  0  0  0  0
  -31.6620  -20.0213   16.3724 H   0  0  0  0  0  0
  -28.5466  -24.2483   21.1486 H   0  0  0  0  0  0
  -27.1768  -24.1345   20.1084 H   0  0  0  0  0  0
  -28.2107  -25.5829   18.3887 H   0  0  0  0  0  0
  -29.7375  -25.4963   19.2019 H   0  0  0  0  0  0
  -28.9810  -15.2628   21.2559 H   0  0  0  0  0  0
  -30.6715  -23.0494   20.2785 H   0  0  0  0  0  0
  -29.7567  -22.0458   21.1486 H   0  0  0  0  0  0
  1 25  1  0  0  0
  1 30  2  0  0  0
  1 86  1  0  0  0
  2  3  1  0  0  0
  2 25  1  0  0  0
  2 89  1  0  0  0
  2 90  1  0  0  0
  3  4  1  0  0  0
  3 91  1  0  0  0
  3 92  1  0  0  0
  4  5  1  0  0  0
  4 93  1  0  0  0
  4 94  1  0  0  0
  5  6  1  0  0  0
  5 26  1  0  0  0
  5 95  1  0  0  0
  6 25  1  0  0  0
  6 96  1  0  0  0
  6 97  1  0  0  0
  7  8  2  0  0  0
  7 26  1  0  0  0
  7 29  1  0  0  0
  8  9  1  0  0  0
  8 22  1  0  0  0
  9 10  1  0  0  0
  9 27  2  0  0  0
 10 11  2  0  0  0
 10 15  1  0  0  0
 11 12  1  0  0  0
 11 98  1  0  0  0
 12 13  2  0  0  0
 12 99  1  0  0  0
 13 14  1  0  0  0
 13 31  1  0  0  0
 14 15  2  0  0  0
 14100  1  0  0  0
 15101  1  0  0  0
 16 17  2  0  0  0
 16 21  1  0  0  0
 16 31  1  0  0  0
 17 18  1  0  0  0
 17102  1  0  0  0
 18 19  2  0  0  0
 18103  1  0  0  0
 19 20  1  0  0  0
 19 24  1  0  0  0
 20 21  2  0  0  0
 20104  1  0  0  0
 21 23  1  0  0  0
 22 28  1  0  0  0
 22 32  2  0  0  0
 26 27  1  0  0  0
 28105  1  0  0  0
 28106  1  0  0  0
 29107  1  0  0  0
 29108  1  0  0  0
 33 34  1  0  0  0
 33 66  1  0  0  0
 33 70  2  0  0  0
 34 36  1  0  0  0
 34 59  1  0  0  0
 34109  1  0  0  0
 35 44  2  0  0  0
 35 45  1  0  0  0
 35 68  1  0  0  0
 36 56  1  0  0  0
 36110  1  0  0  0
 37 39  1  0  0  0
 37 47  1  0  0  0
 37 66  1  0  0  0
 37111  1  0  0  0
 38 43  2  0  0  0
 38 46  1  0  0  0
 38 47  1  0  0  0
 39 64  1  0  0  0
 39 67  2  0  0  0
 40 52  1  0  0  0
 40 53  2  0  0  0
 40 58  1  0  0  0
 41112  1  0  0  0
 41113  1  0  0  0
 41114  1  0  0  0
 41 48  1  0  0  0
 42 43  1  0  0  0
 42 66  1  0  0  0
 42115  1  0  0  0
 42116  1  0  0  0
 43 44  1  0  0  0
 44117  1  0  0  0
 45 46  2  0  0  0
 45118  1  0  0  0
 46119  1  0  0  0
 47120  1  0  0  0
 47121  1  0  0  0
 48 56  1  0  0  0
 48 65  1  0  0  0
 48122  1  0  0  0
 49 50  1  0  0  0
 49 53  1  0  0  0
 49 64  1  0  0  0
 49123  1  0  0  0
 50 51  1  0  0  0
 50124  1  0  0  0
 50125  1  0  0  0
 51 52  1  0  0  0
 51126  1  0  0  0
 51127  1  0  0  0
 52128  1  0  0  0
 52129  1  0  0  0
 53 54  1  0  0  0
 54 55  2  0  0  0
 54130  1  0  0  0
 55 57  1  0  0  0
 55131  1  0  0  0
 56 69  2  0  0  0
 57 58  2  0  0  0
 57132  1  0  0  0
 58133  1  0  0  0
 59 60  1  0  0  0
 59 61  1  0  0  0
 59 62  1  0  0  0
 60134  1  0  0  0
 60135  1  0  0  0
 60136  1  0  0  0
 61137  1  0  0  0
 61138  1  0  0  0
 61139  1  0  0  0
 62140  1  0  0  0
 62141  1  0  0  0
 62142  1  0  0  0
 63 65  1  0  0  0
 63143  1  0  0  0
 63144  1  0  0  0
 63145  1  0  0  0
 64146  1  0  0  0
 65147  1  0  0  0
 68 85  1  0  0  0
 71 72  2  0  0  0
 71 74  1  0  0  0
 71148  1  0  0  0
 72 75  1  0  0  0
 72149  1  0  0  0
 73 75  2  0  0  0
 73 76  1  0  0  0
 73150  1  0  0  0
 74 76  2  0  0  0
 74 79  1  0  0  0
 75 86  1  0  0  0
 76 88  1  0  0  0
 77 78  1  0  0  0
 77 80  1  0  0  0
 77151  1  0  0  0
 77152  1  0  0  0
 78 81  1  0  0  0
 78153  1  0  0  0
 78154  1  0  0  0
 79 81  1  0  0  0
 79 87  1  0  0  0
 79155  1  0  0  0
 80 84  1  0  0  0
 80 87  1  0  0  0
 80156  1  0  0  0
 81 82  1  0  0  0
 81 83  1  0  0  0
 82157  1  0  0  0
 82158  1  0  0  0
 82159  1  0  0  0
 83160  1  0  0  0
 83161  1  0  0  0
 83162  1  0  0  0
 84 85  1  0  0  0
 84163  1  0  0  0
 84164  1  0  0  0
 85165  1  0  0  0
 85166  1  0  0  0
 86167  1  0  0  0
 87168  1  0  0  0
 87169  1  0  0  0
M  CHG  1  87   1
M  ISO  4   1 100  68 101  85 101  86 100
M  END
> <chiral flag>
0

> <version>
0

> <s_m_source_file>
/data/baiqing/PycharmProjects/Reinvent-master-3.2/result/LINK_invent/BTK/process_docking_weight1_custom_product_contain_oxygen_bond_distance_aromatic_linkinvent_7_9_3/rearranged_h_0171.sdf

> <i_m_source_file_index>
19

> <r_mmod_Potential_Energy-OPLS-2005>
-110.701210021973

> <r_mmod_Stretch_Energy-OPLS-2005>
50.1025772094727

> <r_mmod_Bend_Energy-OPLS-2005>
136.978332519531

> <r_mmod_Torsional_Energy-OPLS-2005>
272.199920654297

> <r_mmod_Improper_Torsional_Energy-OPLS-2005>
5.44924879074097

> <r_mmod_Van_der_Waal_Energy-OPLS-2005>
155.684204101562

> <r_mmod_Electrostatic_Energy-OPLS-2005>
-295.958923339844

> <r_mmod_Solvation_Energy-OPLS-2005>
-451.825653076172

> <b_mmod_Minimization_Converged-OPLS-2005>
0

> <r_mmod_RMS_Derivative-OPLS-2005>
2.07454800605774

$$$$
19
                    3D
 Structure written by MMmdl.
159167  0  0  1  0            999 V2000
  -30.6426  -14.5236   20.5719 C   0  0  0  0  0  0
  -30.4424  -12.3400   19.4256 C   0  0  0  0  0  0
  -29.5054  -12.5214   18.2102 C   0  0  0  0  0  0
  -28.0234  -12.3683   18.6156 C   0  0  0  0  0  0
  -27.6625  -13.2007   19.8747 C   0  0  2  0  0  0
  -28.7032  -12.9669   20.9935 C   0  0  0  0  0  0
  -25.2588  -13.8132   20.5636 C   0  0  0  0  0  0
  -24.1846  -13.0430   20.9196 C   0  0  0  0  0  0
  -24.6390  -11.6895   20.8742 C   0  0  0  0  0  0
  -23.9040  -10.4291   21.0401 C   0  0  0  0  0  0
  -24.3601   -9.4211   21.9177 C   0  0  0  0  0  0
  -23.6288   -8.2242   22.0750 C   0  0  0  0  0  0
  -22.4269   -8.0274   21.3544 C   0  0  0  0  0  0
  -21.9892   -9.0242   20.4645 C   0  0  0  0  0  0
  -22.7210  -10.2128   20.3052 C   0  0  0  0  0  0
  -21.6852   -6.0732   22.5279 C   0  0  0  0  0  0
  -21.4013   -6.5637   23.8212 C   0  0  0  0  0  0
  -21.3660   -5.6790   24.9179 C   0  0  0  0  0  0
  -21.6045   -4.3052   24.7223 C   0  0  0  0  0  0
  -21.8819   -3.8143   23.4345 C   0  0  0  0  0  0
  -21.9195   -4.6962   22.3403 C   0  0  0  0  0  0
  -22.7869  -13.5239   21.1845 C   0  0  0  0  0  0
  -22.1666   -4.2153   21.0978 F   0  0  0  0  0  0
  -21.5632   -3.4529   25.7731 F   0  0  0  0  0  0
  -30.0329  -13.3094   20.4540 N   0  0  0  0  0  0
  -26.3022  -12.9294   20.3325 N   0  0  0  0  0  0
  -25.9313  -11.6467   20.5752 N   0  0  0  0  0  0
  -22.0494  -12.8252   22.0407 N   0  0  0  0  0  0
  -25.4305  -15.1834   20.3941 N   0  0  0  0  0  0
  -31.7649  -14.7610   20.1175 O   0  0  0  0  0  0
  -21.6642   -6.8868   21.4237 O   0  0  0  0  0  0
  -22.3564  -14.5540   20.6678 O   0  0  0  0  0  0
  -24.6157  -31.8672   23.2079 C   0  0  0  0  0  0
  -25.9046  -32.4822   23.8375 C   0  0  1  0  0  0
  -27.2322  -27.4252   20.0960 C   0  0  0  0  0  0
  -25.5900  -33.8617   24.2315 N   0  0  0  0  0  0
  -23.4048  -30.4894   21.5485 C   0  0  2  0  0  0
  -24.8528  -28.9525   20.1139 C   0  0  0  0  0  0
  -22.7413  -29.4657   22.4982 C   0  0  0  0  0  0
  -18.0276  -28.1386   22.8490 C   0  0  0  0  0  0
  -24.1483  -36.7317   23.2635 C   0  0  0  0  0  0
  -25.9340  -30.8308   21.3605 C   0  0  0  0  0  0
  -26.0141  -29.4625   20.7096 C   0  0  0  0  0  0
  -27.2107  -28.7068   20.6964 C   0  0  0  0  0  0
  -26.0580  -26.9300   19.4959 C   0  0  0  0  0  0
  -24.8694  -27.6856   19.5037 C   0  0  0  0  0  0
  -23.6137  -29.8189   20.1644 C   0  0  0  0  0  0
  -25.4107  -36.3109   24.0325 C   0  0  1  0  0  0
  -20.5864  -28.3670   23.1316 C   0  0  2  0  0  0
  -20.6765  -26.9406   22.5419 C   0  0  0  0  0  0
  -19.5747  -26.6390   21.5212 C   0  0  0  0  0  0
  -18.1924  -26.7934   22.1621 C   0  0  0  0  0  0
  -19.1524  -28.8842   23.2907 C   0  0  0  0  0  0
  -18.9452  -30.1448   23.8918 C   0  0  0  0  0  0
  -17.6455  -30.6588   24.0569 C   0  0  0  0  0  0
  -25.9039  -34.9476   23.5119 C   0  0  0  0  0  0
  -16.5346  -29.9093   23.6323 C   0  0  0  0  0  0
  -16.7266  -28.6512   23.0341 C   0  0  0  0  0  0
  -26.4478  -31.6595   25.0698 C   0  0  0  0  0  0
  -25.3750  -31.3704   26.1454 C   0  0  0  0  0  0
  -27.0305  -30.3034   24.6079 C   0  0  0  0  0  0
  -27.6044  -32.4309   25.7464 C   0  0  0  0  0  0
  -27.5584  -37.1811   24.8459 C   0  0  0  0  0  0
  -21.4137  -29.3037   22.3714 N   0  0  0  0  0  0
  -26.4291  -37.3797   23.9406 N   0  0  0  0  0  0
  -24.6702  -31.0763   22.0982 N   0  0  0  0  0  0
  -23.4177  -28.8200   23.3034 O   0  0  0  0  0  0
  -28.3642  -26.6360   20.0849 O   0  0  0  0  0  0
  -26.5600  -34.8937   22.4681 O   0  0  0  0  0  0
  -23.5350  -32.1423   23.7474 O   0  0  0  0  0  0
  -28.6183  -17.5860   20.9041 C   0  0  0  0  0  0
  -31.0190  -17.6999   20.7663 C   0  0  0  0  0  0
  -29.8571  -16.9048   20.9109 C   0  0  0  0  0  0
  -28.5783  -18.9884   20.7555 C   0  0  0  0  0  0
  -29.7924  -19.6987   20.6433 C   0  0  0  0  0  0
  -28.4669  -23.0781   21.6929 C   0  0  0  0  0  0
  -29.4604  -26.1091   22.1236 C   0  0  0  0  0  0
  -29.4262  -21.2909   23.0332 C   0  0  0  0  0  0
  -29.8043  -21.2455   20.5629 C   0  0  0  0  0  0
  -28.6617  -24.1675   20.6009 C   0  0  0  0  0  0
  -28.4004  -25.6302   21.1199 C   0  0  2  0  0  0
  -30.9907  -19.0556   20.6444 N   0  0  0  0  0  0
  -29.8542  -15.4800   21.1135 N   0  0  0  0  0  0
  -29.2326  -21.9522   21.7343 N   0  0  0  0  0  0
  -27.6542  -23.3092   22.5952 O   0  0  0  0  0  0
  -27.3901  -19.6407   20.7384 F   0  0  0  0  0  0
  -31.4829  -12.4768   19.1261 H   0  0  0  0  0  0
  -30.3737  -11.3243   19.8181 H   0  0  0  0  0  0
  -29.7584  -11.8018   17.4308 H   0  0  0  0  0  0
  -29.6632  -13.5098   17.7754 H   0  0  0  0  0  0
  -27.8381  -11.3106   18.8058 H   0  0  0  0  0  0
  -27.3757  -12.6461   17.7825 H   0  0  0  0  0  0
  -27.7066  -14.2504   19.5842 H   0  0  0  0  0  0
  -28.6929  -11.9200   21.2996 H   0  0  0  0  0  0
  -28.4492  -13.5292   21.8934 H   0  0  0  0  0  0
  -25.2747   -9.5704   22.4747 H   0  0  0  0  0  0
  -24.0020   -7.4625   22.7448 H   0  0  0  0  0  0
  -21.0833   -8.8736   19.8939 H   0  0  0  0  0  0
  -22.3654  -10.9664   19.6159 H   0  0  0  0  0  0
  -21.2002   -7.6141   23.9721 H   0  0  0  0  0  0
  -21.1487   -6.0517   25.9085 H   0  0  0  0  0  0
  -22.0601   -2.7605   23.2839 H   0  0  0  0  0  0
  -22.4110  -11.9933   22.4837 H   0  0  0  0  0  0
  -21.1096  -13.1273   22.2563 H   0  0  0  0  0  0
  -24.6435  -15.8205   20.4492 H   0  0  0  0  0  0
  -26.2401  -15.5935   19.9487 H   0  0  0  0  0  0
  -26.7113  -32.5536   23.1139 H   0  0  0  0  0  0
  -25.0041  -33.9776   25.0457 H   0  0  0  0  0  0
  -22.6947  -31.3068   21.4074 H   0  0  0  0  0  0
  -23.3749  -35.9654   23.3307 H   0  0  0  0  0  0
  -24.3564  -36.8928   22.2048 H   0  0  0  0  0  0
  -23.7239  -37.6521   23.6651 H   0  0  0  0  0  0
  -26.0410  -31.5951   20.5894 H   0  0  0  0  0  0
  -26.8238  -30.8898   21.9758 H   0  0  0  0  0  0
  -28.1097  -29.0959   21.1536 H   0  0  0  0  0  0
  -26.0625  -25.9552   19.0293 H   0  0  0  0  0  0
  -23.9763  -27.2875   19.0426 H   0  0  0  0  0  0
  -23.7211  -30.5921   19.4026 H   0  0  0  0  0  0
  -22.7384  -29.2363   19.8714 H   0  0  0  0  0  0
  -25.1293  -36.1976   25.0819 H   0  0  0  0  0  0
  -20.9966  -28.3237   24.1434 H   0  0  0  0  0  0
  -20.5660  -26.2281   23.3609 H   0  0  0  0  0  0
  -21.6639  -26.7446   22.1216 H   0  0  0  0  0  0
  -19.6908  -25.6303   21.1236 H   0  0  0  0  0  0
  -19.6690  -27.3209   20.6748 H   0  0  0  0  0  0
  -17.4197  -26.6684   21.4020 H   0  0  0  0  0  0
  -18.0325  -26.0073   22.9014 H   0  0  0  0  0  0
  -19.7925  -30.7259   24.2298 H   0  0  0  0  0  0
  -17.5008  -31.6271   24.5167 H   0  0  0  0  0  0
  -15.5347  -30.3006   23.7631 H   0  0  0  0  0  0
  -15.8667  -28.0841   22.7040 H   0  0  0  0  0  0
  -24.5919  -30.7060   25.7789 H   0  0  0  0  0  0
  -24.8966  -32.2871   26.4907 H   0  0  0  0  0  0
  -25.8097  -30.8872   27.0219 H   0  0  0  0  0  0
  -26.2844  -29.6790   24.1159 H   0  0  0  0  0  0
  -27.4105  -29.7274   25.4528 H   0  0  0  0  0  0
  -27.8657  -30.4335   23.9195 H   0  0  0  0  0  0
  -27.2672  -33.3593   26.2077 H   0  0  0  0  0  0
  -28.3855  -32.6888   25.0301 H   0  0  0  0  0  0
  -28.0720  -31.8425   26.5367 H   0  0  0  0  0  0
  -28.2609  -38.0103   24.7520 H   0  0  0  0  0  0
  -28.1079  -36.2641   24.6284 H   0  0  0  0  0  0
  -27.2302  -37.1461   25.8859 H   0  0  0  0  0  0
  -20.9288  -29.8755   21.6933 H   0  0  0  0  0  0
  -26.0184  -38.2875   24.1422 H   0  0  0  0  0  0
  -27.6927  -17.0423   21.0168 H   0  0  0  0  0  0
  -32.0033  -17.2581   20.7875 H   0  0  0  0  0  0
  -29.5332  -25.4452   22.9851 H   0  0  0  0  0  0
  -29.2200  -27.1024   22.5040 H   0  0  0  0  0  0
  -30.4435  -26.1659   21.6565 H   0  0  0  0  0  0
  -28.5994  -20.6119   23.2420 H   0  0  0  0  0  0
  -29.4807  -22.0127   23.8512 H   0  0  0  0  0  0
  -30.3572  -20.7240   23.0663 H   0  0  0  0  0  0
  -29.2480  -21.5253   19.6666 H   0  0  0  0  0  0
  -30.8230  -21.6001   20.4050 H   0  0  0  0  0  0
  -27.9712  -23.9418   19.7894 H   0  0  0  0  0  0
  -29.6679  -24.0963   20.1881 H   0  0  0  0  0  0
  -27.4410  -25.6293   21.6424 H   0  0  0  0  0  0
  -28.9907  -15.0994   21.4719 H   0  0  0  0  0  0
  1 25  1  0  0  0
  1 30  2  0  0  0
  1 83  1  0  0  0
  2  3  1  0  0  0
  2 25  1  0  0  0
  2 87  1  0  0  0
  2 88  1  0  0  0
  3  4  1  0  0  0
  3 89  1  0  0  0
  3 90  1  0  0  0
  4  5  1  0  0  0
  4 91  1  0  0  0
  4 92  1  0  0  0
  5  6  1  0  0  0
  5 26  1  0  0  0
  5 93  1  0  0  0
  6 25  1  0  0  0
  6 94  1  0  0  0
  6 95  1  0  0  0
  7  8  2  0  0  0
  7 26  1  0  0  0
  7 29  1  0  0  0
  8  9  1  0  0  0
  8 22  1  0  0  0
  9 10  1  0  0  0
  9 27  2  0  0  0
 10 11  2  0  0  0
 10 15  1  0  0  0
 11 12  1  0  0  0
 11 96  1  0  0  0
 12 13  2  0  0  0
 12 97  1  0  0  0
 13 14  1  0  0  0
 13 31  1  0  0  0
 14 15  2  0  0  0
 14 98  1  0  0  0
 15 99  1  0  0  0
 16 17  2  0  0  0
 16 21  1  0  0  0
 16 31  1  0  0  0
 17 18  1  0  0  0
 17100  1  0  0  0
 18 19  2  0  0  0
 18101  1  0  0  0
 19 20  1  0  0  0
 19 24  1  0  0  0
 20 21  2  0  0  0
 20102  1  0  0  0
 21 23  1  0  0  0
 22 28  1  0  0  0
 22 32  2  0  0  0
 26 27  1  0  0  0
 28103  1  0  0  0
 28104  1  0  0  0
 29105  1  0  0  0
 29106  1  0  0  0
 33 34  1  0  0  0
 33 66  1  0  0  0
 33 70  2  0  0  0
 34 36  1  0  0  0
 34 59  1  0  0  0
 34107  1  0  0  0
 35 44  2  0  0  0
 35 45  1  0  0  0
 35 68  1  0  0  0
 36 56  1  0  0  0
 36108  1  0  0  0
 37 39  1  0  0  0
 37 47  1  0  0  0
 37 66  1  0  0  0
 37109  1  0  0  0
 38 43  2  0  0  0
 38 46  1  0  0  0
 38 47  1  0  0  0
 39 64  1  0  0  0
 39 67  2  0  0  0
 40 52  1  0  0  0
 40 53  2  0  0  0
 40 58  1  0  0  0
 41110  1  0  0  0
 41111  1  0  0  0
 41112  1  0  0  0
 41 48  1  0  0  0
 42 43  1  0  0  0
 42 66  1  0  0  0
 42113  1  0  0  0
 42114  1  0  0  0
 43 44  1  0  0  0
 44115  1  0  0  0
 45 46  2  0  0  0
 45116  1  0  0  0
 46117  1  0  0  0
 47118  1  0  0  0
 47119  1  0  0  0
 48 56  1  0  0  0
 48 65  1  0  0  0
 48120  1  0  0  0
 49 50  1  0  0  0
 49 53  1  0  0  0
 49 64  1  0  0  0
 49121  1  0  0  0
 50 51  1  0  0  0
 50122  1  0  0  0
 50123  1  0  0  0
 51 52  1  0  0  0
 51124  1  0  0  0
 51125  1  0  0  0
 52126  1  0  0  0
 52127  1  0  0  0
 53 54  1  0  0  0
 54 55  2  0  0  0
 54128  1  0  0  0
 55 57  1  0  0  0
 55129  1  0  0  0
 56 69  2  0  0  0
 57 58  2  0  0  0
 57130  1  0  0  0
 58131  1  0  0  0
 59 60  1  0  0  0
 59 61  1  0  0  0
 59 62  1  0  0  0
 60132  1  0  0  0
 60133  1  0  0  0
 60134  1  0  0  0
 61135  1  0  0  0
 61136  1  0  0  0
 61137  1  0  0  0
 62138  1  0  0  0
 62139  1  0  0  0
 62140  1  0  0  0
 63 65  1  0  0  0
 63141  1  0  0  0
 63142  1  0  0  0
 63143  1  0  0  0
 64144  1  0  0  0
 65145  1  0  0  0
 68 81  1  0  0  0
 71 73  2  0  0  0
 71 74  1  0  0  0
 71146  1  0  0  0
 72 73  1  0  0  0
 72 82  2  0  0  0
 72147  1  0  0  0
 73 83  1  0  0  0
 74 75  2  0  0  0
 74 86  1  0  0  0
 75 79  1  0  0  0
 75 82  1  0  0  0
 76 80  1  0  0  0
 76 84  1  0  0  0
 76 85  2  0  0  0
 77148  1  0  0  0
 77149  1  0  0  0
 77150  1  0  0  0
 77 81  1  0  0  0
 78 84  1  0  0  0
 78151  1  0  0  0
 78152  1  0  0  0
 78153  1  0  0  0
 79 84  1  0  0  0
 79154  1  0  0  0
 79155  1  0  0  0
 80 81  1  0  0  0
 80156  1  0  0  0
 80157  1  0  0  0
 81158  1  0  0  0
 83159  1  0  0  0
M  ISO  4   1 100  68 101  81 101  83 100
M  END
> <chiral flag>
0

> <version>
0

> <s_m_source_file>
/data/baiqing/PycharmProjects/Reinvent-master-3.2/result/LINK_invent/BTK/process_docking_weight1_custom_product_contain_oxygen_bond_distance_aromatic_linkinvent_7_9_3/rearranged_h_0171.sdf

> <i_m_source_file_index>
20

> <r_mmod_Potential_Energy-OPLS-2005>
-156.542617797852

> <r_mmod_Stretch_Energy-OPLS-2005>
47.3466377258301

> <r_mmod_Bend_Energy-OPLS-2005>
103.286682128906

> <r_mmod_Torsional_Energy-OPLS-2005>
260.245849609375

> <r_mmod_Improper_Torsional_Energy-OPLS-2005>
6.02646112442017

> <r_mmod_Van_der_Waal_Energy-OPLS-2005>
154.250305175781

> <r_mmod_Electrostatic_Energy-OPLS-2005>
-512.085205078125

> <r_mmod_Solvation_Energy-OPLS-2005>
-233.306732177734

> <b_mmod_Minimization_Converged-OPLS-2005>
0

> <r_mmod_RMS_Derivative-OPLS-2005>
1.69076013565063

$$$$
20
                    3D
 Structure written by MMmdl.
157165  0  0  1  0            999 V2000
  -30.6825  -14.4648   20.6395 C   0  0  0  0  0  0
  -30.4388  -12.3231   19.4183 C   0  0  0  0  0  0
  -29.5025  -12.5269   18.2083 C   0  0  0  0  0  0
  -28.0242  -12.3705   18.6173 C   0  0  0  0  0  0
  -27.6691  -13.1994   19.8802 C   0  0  2  0  0  0
  -28.7044  -12.9411   20.9975 C   0  0  0  0  0  0
  -25.2602  -13.8134   20.5613 C   0  0  0  0  0  0
  -24.1857  -13.0433   20.9148 C   0  0  0  0  0  0
  -24.6402  -11.6898   20.8720 C   0  0  0  0  0  0
  -23.9062  -10.4292   21.0406 C   0  0  0  0  0  0
  -24.3617   -9.4209   21.9186 C   0  0  0  0  0  0
  -23.6287   -8.2250   22.0754 C   0  0  0  0  0  0
  -22.4266   -8.0288   21.3548 C   0  0  0  0  0  0
  -21.9899   -9.0263   20.4652 C   0  0  0  0  0  0
  -22.7230  -10.2140   20.3058 C   0  0  0  0  0  0
  -21.6855   -6.0739   22.5281 C   0  0  0  0  0  0
  -21.4018   -6.5644   23.8216 C   0  0  0  0  0  0
  -21.3653   -5.6792   24.9178 C   0  0  0  0  0  0
  -21.6043   -4.3054   24.7225 C   0  0  0  0  0  0
  -21.8818   -3.8149   23.4344 C   0  0  0  0  0  0
  -21.9192   -4.6965   22.3398 C   0  0  0  0  0  0
  -22.7884  -13.5251   21.1819 C   0  0  0  0  0  0
  -22.1660   -4.2157   21.0973 F   0  0  0  0  0  0
  -21.5621   -3.4533   25.7733 F   0  0  0  0  0  0
  -30.0460  -13.2712   20.4726 N   0  0  0  0  0  0
  -26.3055  -12.9302   20.3349 N   0  0  0  0  0  0
  -25.9328  -11.6470   20.5749 N   0  0  0  0  0  0
  -22.0523  -12.8263   22.0395 N   0  0  0  0  0  0
  -25.4283  -15.1838   20.3942 N   0  0  0  0  0  0
  -31.7208  -14.7702   20.0440 O   0  0  0  0  0  0
  -21.6634   -6.8885   21.4246 O   0  0  0  0  0  0
  -22.3578  -14.5561   20.6667 O   0  0  0  0  0  0
  -24.6165  -31.8665   23.2090 C   0  0  0  0  0  0
  -25.9046  -32.4818   23.8396 C   0  0  1  0  0  0
  -27.2365  -27.4120   20.0948 C   0  0  0  0  0  0
  -25.5891  -33.8616   24.2313 N   0  0  0  0  0  0
  -23.4063  -30.4904   21.5508 C   0  0  2  0  0  0
  -24.8519  -28.9543   20.1183 C   0  0  0  0  0  0
  -22.7424  -29.4649   22.4983 C   0  0  0  0  0  0
  -18.0279  -28.1362   22.8508 C   0  0  0  0  0  0
  -24.1484  -36.7306   23.2640 C   0  0  0  0  0  0
  -25.9402  -30.8237   21.3689 C   0  0  0  0  0  0
  -26.0158  -29.4592   20.7105 C   0  0  0  0  0  0
  -27.2118  -28.6995   20.6884 C   0  0  0  0  0  0
  -26.0474  -26.9297   19.4981 C   0  0  0  0  0  0
  -24.8640  -27.6900   19.5089 C   0  0  0  0  0  0
  -23.6146  -29.8224   20.1666 C   0  0  0  0  0  0
  -25.4107  -36.3107   24.0336 C   0  0  1  0  0  0
  -20.5874  -28.3653   23.1308 C   0  0  2  0  0  0
  -20.6760  -26.9387   22.5407 C   0  0  0  0  0  0
  -19.5733  -26.6380   21.5205 C   0  0  0  0  0  0
  -18.1917  -26.7913   22.1628 C   0  0  0  0  0  0
  -19.1530  -28.8824   23.2910 C   0  0  0  0  0  0
  -18.9454  -30.1426   23.8927 C   0  0  0  0  0  0
  -17.6455  -30.6572   24.0562 C   0  0  0  0  0  0
  -25.9041  -34.9474   23.5128 C   0  0  0  0  0  0
  -16.5347  -29.9073   23.6323 C   0  0  0  0  0  0
  -16.7268  -28.6479   23.0374 C   0  0  0  0  0  0
  -26.4467  -31.6616   25.0740 C   0  0  0  0  0  0
  -25.3719  -31.3760   26.1486 C   0  0  0  0  0  0
  -27.0313  -30.3051   24.6164 C   0  0  0  0  0  0
  -27.6049  -32.4355   25.7471 C   0  0  0  0  0  0
  -27.5591  -37.1788   24.8454 C   0  0  0  0  0  0
  -21.4149  -29.3021   22.3712 N   0  0  0  0  0  0
  -26.4293  -37.3791   23.9418 N   0  0  0  0  0  0
  -24.6724  -31.0754   22.0998 N   0  0  0  0  0  0
  -23.4185  -28.8190   23.3030 O   0  0  0  0  0  0
  -28.4082  -26.6723   20.0855 O   0  0  0  0  0  0
  -26.5621  -34.8930   22.4700 O   0  0  0  0  0  0
  -23.5349  -32.1423   23.7468 O   0  0  0  0  0  0
  -30.1279  -17.6752   20.7864 C   0  0  0  0  0  0
  -29.2238  -18.8056   20.8586 C   0  0  0  0  0  0
  -28.0237  -18.4976   21.4601 C   0  0  0  0  0  0
  -29.6133  -16.5286   21.3719 C   0  0  0  0  0  0
  -26.8213  -19.2853   21.7027 C   0  0  0  0  0  0
  -29.7109  -23.0384   20.2839 C   0  0  0  0  0  0
  -30.5209  -22.1413   19.6468 C   0  0  0  0  0  0
  -29.6193  -24.4975   19.9614 C   0  0  0  0  0  0
  -30.6396  -20.7529   20.1213 C   0  0  0  0  0  0
  -31.3900  -22.4832   18.4389 C   0  0  0  0  0  0
  -28.2840  -25.2335   20.2179 C   0  0  0  0  0  0
  -26.3181  -20.1367   20.9107 N   0  0  0  0  0  0
  -29.4691  -20.1389   20.3738 N   0  0  0  0  0  0
  -30.1080  -15.2701   21.5525 N   0  0  0  0  0  0
  -30.5779  -25.1466   19.5293 O   0  0  0  0  0  0
  -31.7230  -20.1766   20.2390 O   0  0  0  0  0  0
  -28.0303  -16.8568   22.0352 S   0  0  0  0  0  0
  -31.4811  -12.4495   19.1197 H   0  0  0  0  0  0
  -30.3605  -11.3020   19.7938 H   0  0  0  0  0  0
  -29.7477  -11.8163   17.4178 H   0  0  0  0  0  0
  -29.6623  -13.5192   17.7848 H   0  0  0  0  0  0
  -27.8416  -11.3117   18.8059 H   0  0  0  0  0  0
  -27.3731  -12.6466   17.7872 H   0  0  0  0  0  0
  -27.7236  -14.2525   19.6033 H   0  0  0  0  0  0
  -28.6820  -11.8898   21.2891 H   0  0  0  0  0  0
  -28.4321  -13.4878   21.9010 H   0  0  0  0  0  0
  -25.2777   -9.5673   22.4749 H   0  0  0  0  0  0
  -23.9991   -7.4644   22.7472 H   0  0  0  0  0  0
  -21.0826   -8.8795   19.8967 H   0  0  0  0  0  0
  -22.3704  -10.9679   19.6161 H   0  0  0  0  0  0
  -21.2020   -7.6154   23.9723 H   0  0  0  0  0  0
  -21.1468   -6.0522   25.9082 H   0  0  0  0  0  0
  -22.0598   -2.7608   23.2846 H   0  0  0  0  0  0
  -22.4124  -11.9928   22.4795 H   0  0  0  0  0  0
  -21.1152  -13.1312   22.2606 H   0  0  0  0  0  0
  -24.6563  -15.8344   20.4880 H   0  0  0  0  0  0
  -26.2772  -15.6175   20.0550 H   0  0  0  0  0  0
  -26.7119  -32.5517   23.1161 H   0  0  0  0  0  0
  -25.0019  -33.9770   25.0444 H   0  0  0  0  0  0
  -22.6966  -31.3083   21.4113 H   0  0  0  0  0  0
  -23.3750  -35.9633   23.3291 H   0  0  0  0  0  0
  -24.3585  -36.8932   22.2058 H   0  0  0  0  0  0
  -23.7224  -37.6502   23.6664 H   0  0  0  0  0  0
  -26.0700  -31.5931   20.6063 H   0  0  0  0  0  0
  -26.8206  -30.8644   21.9983 H   0  0  0  0  0  0
  -28.1123  -29.0930   21.1393 H   0  0  0  0  0  0
  -26.0083  -25.9745   18.9982 H   0  0  0  0  0  0
  -23.9706  -27.2971   19.0422 H   0  0  0  0  0  0
  -23.7202  -30.5956   19.4049 H   0  0  0  0  0  0
  -22.7382  -29.2406   19.8738 H   0  0  0  0  0  0
  -25.1277  -36.1974   25.0827 H   0  0  0  0  0  0
  -20.9982  -28.3213   24.1421 H   0  0  0  0  0  0
  -20.5643  -26.2264   23.3594 H   0  0  0  0  0  0
  -21.6631  -26.7408   22.1208 H   0  0  0  0  0  0
  -19.6889  -25.6298   21.1214 H   0  0  0  0  0  0
  -19.6662  -27.3205   20.6747 H   0  0  0  0  0  0
  -17.4183  -26.6678   21.4032 H   0  0  0  0  0  0
  -18.0316  -26.0039   22.9007 H   0  0  0  0  0  0
  -19.7928  -30.7232   24.2319 H   0  0  0  0  0  0
  -17.5008  -31.6259   24.5149 H   0  0  0  0  0  0
  -15.5348  -30.2984   23.7618 H   0  0  0  0  0  0
  -15.8671  -28.0784   22.7107 H   0  0  0  0  0  0
  -24.5832  -30.7187   25.7807 H   0  0  0  0  0  0
  -24.8985  -32.2944   26.4971 H   0  0  0  0  0  0
  -25.8030  -30.8867   27.0227 H   0  0  0  0  0  0
  -26.2879  -29.6798   24.1206 H   0  0  0  0  0  0
  -27.4053  -29.7311   25.4652 H   0  0  0  0  0  0
  -27.8725  -30.4357   23.9352 H   0  0  0  0  0  0
  -27.2661  -33.3622   26.2111 H   0  0  0  0  0  0
  -28.3791  -32.6982   25.0249 H   0  0  0  0  0  0
  -28.0804  -31.8467   26.5322 H   0  0  0  0  0  0
  -28.2586  -38.0112   24.7561 H   0  0  0  0  0  0
  -28.1116  -36.2653   24.6201 H   0  0  0  0  0  0
  -27.2329  -37.1338   25.8860 H   0  0  0  0  0  0
  -20.9310  -29.8743   21.6934 H   0  0  0  0  0  0
  -26.0185  -38.2867   24.1439 H   0  0  0  0  0  0
  -31.1048  -17.7337   20.3277 H   0  0  0  0  0  0
  -26.3354  -19.1089   22.6665 H   0  0  0  0  0  0
  -29.1002  -22.7133   21.1141 H   0  0  0  0  0  0
  -30.9297  -23.2363   17.7996 H   0  0  0  0  0  0
  -31.5564  -21.6049   17.8132 H   0  0  0  0  0  0
  -32.3631  -22.8513   18.7654 H   0  0  0  0  0  0
  -27.9322  -24.9937   21.2214 H   0  0  0  0  0  0
  -27.5697  -24.8187   19.5113 H   0  0  0  0  0  0
  -26.8057  -20.1893   20.0250 H   0  0  0  0  0  0
  -28.6588  -20.7320   20.2805 H   0  0  0  0  0  0
  -29.5184  -14.7204   22.1600 H   0  0  0  0  0  0
  1 25  1  0  0  0
  1 30  2  0  0  0
  1 84  1  0  0  0
  2  3  1  0  0  0
  2 25  1  0  0  0
  2 88  1  0  0  0
  2 89  1  0  0  0
  3  4  1  0  0  0
  3 90  1  0  0  0
  3 91  1  0  0  0
  4  5  1  0  0  0
  4 92  1  0  0  0
  4 93  1  0  0  0
  5  6  1  0  0  0
  5 26  1  0  0  0
  5 94  1  0  0  0
  6 25  1  0  0  0
  6 95  1  0  0  0
  6 96  1  0  0  0
  7  8  2  0  0  0
  7 26  1  0  0  0
  7 29  1  0  0  0
  8  9  1  0  0  0
  8 22  1  0  0  0
  9 10  1  0  0  0
  9 27  2  0  0  0
 10 11  2  0  0  0
 10 15  1  0  0  0
 11 12  1  0  0  0
 11 97  1  0  0  0
 12 13  2  0  0  0
 12 98  1  0  0  0
 13 14  1  0  0  0
 13 31  1  0  0  0
 14 15  2  0  0  0
 14 99  1  0  0  0
 15100  1  0  0  0
 16 17  2  0  0  0
 16 21  1  0  0  0
 16 31  1  0  0  0
 17 18  1  0  0  0
 17101  1  0  0  0
 18 19  2  0  0  0
 18102  1  0  0  0
 19 20  1  0  0  0
 19 24  1  0  0  0
 20 21  2  0  0  0
 20103  1  0  0  0
 21 23  1  0  0  0
 22 28  1  0  0  0
 22 32  2  0  0  0
 26 27  1  0  0  0
 28104  1  0  0  0
 28105  1  0  0  0
 29106  1  0  0  0
 29107  1  0  0  0
 33 34  1  0  0  0
 33 66  1  0  0  0
 33 70  2  0  0  0
 34 36  1  0  0  0
 34 59  1  0  0  0
 34108  1  0  0  0
 35 44  2  0  0  0
 35 45  1  0  0  0
 35 68  1  0  0  0
 36 56  1  0  0  0
 36109  1  0  0  0
 37 39  1  0  0  0
 37 47  1  0  0  0
 37 66  1  0  0  0
 37110  1  0  0  0
 38 43  2  0  0  0
 38 46  1  0  0  0
 38 47  1  0  0  0
 39 64  1  0  0  0
 39 67  2  0  0  0
 40 52  1  0  0  0
 40 53  2  0  0  0
 40 58  1  0  0  0
 41111  1  0  0  0
 41112  1  0  0  0
 41113  1  0  0  0
 41 48  1  0  0  0
 42 43  1  0  0  0
 42 66  1  0  0  0
 42114  1  0  0  0
 42115  1  0  0  0
 43 44  1  0  0  0
 44116  1  0  0  0
 45 46  2  0  0  0
 45117  1  0  0  0
 46118  1  0  0  0
 47119  1  0  0  0
 47120  1  0  0  0
 48 56  1  0  0  0
 48 65  1  0  0  0
 48121  1  0  0  0
 49 50  1  0  0  0
 49 53  1  0  0  0
 49 64  1  0  0  0
 49122  1  0  0  0
 50 51  1  0  0  0
 50123  1  0  0  0
 50124  1  0  0  0
 51 52  1  0  0  0
 51125  1  0  0  0
 51126  1  0  0  0
 52127  1  0  0  0
 52128  1  0  0  0
 53 54  1  0  0  0
 54 55  2  0  0  0
 54129  1  0  0  0
 55 57  1  0  0  0
 55130  1  0  0  0
 56 69  2  0  0  0
 57 58  2  0  0  0
 57131  1  0  0  0
 58132  1  0  0  0
 59 60  1  0  0  0
 59 61  1  0  0  0
 59 62  1  0  0  0
 60133  1  0  0  0
 60134  1  0  0  0
 60135  1  0  0  0
 61136  1  0  0  0
 61137  1  0  0  0
 61138  1  0  0  0
 62139  1  0  0  0
 62140  1  0  0  0
 62141  1  0  0  0
 63 65  1  0  0  0
 63142  1  0  0  0
 63143  1  0  0  0
 63144  1  0  0  0
 64145  1  0  0  0
 65146  1  0  0  0
 68 81  1  0  0  0
 71 72  1  0  0  0
 71 74  2  0  0  0
 71147  1  0  0  0
 72 73  2  0  0  0
 72 83  1  0  0  0
 73 75  1  0  0  0
 73 87  1  0  0  0
 74 84  1  0  0  0
 74 87  1  0  0  0
 75 82  2  0  0  0
 75148  1  0  0  0
 76 77  2  0  0  0
 76 78  1  0  0  0
 76149  1  0  0  0
 77 79  1  0  0  0
 77 80  1  0  0  0
 78 81  1  0  0  0
 78 85  2  0  0  0
 79 83  1  0  0  0
 79 86  2  0  0  0
 80150  1  0  0  0
 80151  1  0  0  0
 80152  1  0  0  0
 81153  1  0  0  0
 81154  1  0  0  0
 82155  1  0  0  0
 83156  1  0  0  0
 84157  1  0  0  0
M  ISO  4   1 100  68 101  81 101  84 100
M  END
> <chiral flag>
0

> <version>
0

> <s_m_source_file>
/data/baiqing/PycharmProjects/Reinvent-master-3.2/result/LINK_invent/BTK/process_docking_weight1_custom_product_contain_oxygen_bond_distance_aromatic_linkinvent_7_9_3/rearranged_h_0171.sdf

> <i_m_source_file_index>
21

> <r_mmod_Potential_Energy-OPLS-2005>
-59.2312088012695

> <r_mmod_Stretch_Energy-OPLS-2005>
44.620304107666

> <r_mmod_Bend_Energy-OPLS-2005>
123.828491210938

> <r_mmod_Torsional_Energy-OPLS-2005>
268.751617431641

> <r_mmod_Improper_Torsional_Energy-OPLS-2005>
6.31023216247559

> <r_mmod_Van_der_Waal_Energy-OPLS-2005>
131.496841430664

> <r_mmod_Electrostatic_Energy-OPLS-2005>
-376.040771484375

> <r_mmod_Solvation_Energy-OPLS-2005>
-271.981018066406

> <b_mmod_Minimization_Converged-OPLS-2005>
0

> <r_mmod_RMS_Derivative-OPLS-2005>
1.49841666221619

$$$$
21
                    3D
 Structure written by MMmdl.
160168  0  0  1  0            999 V2000
  -30.6824  -14.4623   20.6157 C   0  0  0  0  0  0
  -30.4350  -12.3147   19.4184 C   0  0  0  0  0  0
  -29.4997  -12.5138   18.2069 C   0  0  0  0  0  0
  -28.0205  -12.3659   18.6174 C   0  0  0  0  0  0
  -27.6667  -13.1972   19.8782 C   0  0  2  0  0  0
  -28.7030  -12.9474   20.9973 C   0  0  0  0  0  0
  -25.2619  -13.8133   20.5660 C   0  0  0  0  0  0
  -24.1847  -13.0430   20.9145 C   0  0  0  0  0  0
  -24.6378  -11.6887   20.8712 C   0  0  0  0  0  0
  -23.9042  -10.4282   21.0390 C   0  0  0  0  0  0
  -24.3602   -9.4202   21.9165 C   0  0  0  0  0  0
  -23.6281   -8.2236   22.0746 C   0  0  0  0  0  0
  -22.4258   -8.0269   21.3543 C   0  0  0  0  0  0
  -21.9891   -9.0240   20.4648 C   0  0  0  0  0  0
  -22.7216  -10.2117   20.3045 C   0  0  0  0  0  0
  -21.6847   -6.0726   22.5268 C   0  0  0  0  0  0
  -21.4020   -6.5634   23.8205 C   0  0  0  0  0  0
  -21.3660   -5.6787   24.9165 C   0  0  0  0  0  0
  -21.6042   -4.3048   24.7219 C   0  0  0  0  0  0
  -21.8820   -3.8140   23.4344 C   0  0  0  0  0  0
  -21.9197   -4.6956   22.3397 C   0  0  0  0  0  0
  -22.7878  -13.5250   21.1807 C   0  0  0  0  0  0
  -22.1660   -4.2139   21.0977 F   0  0  0  0  0  0
  -21.5633   -3.4538   25.7738 F   0  0  0  0  0  0
  -30.0401  -13.2717   20.4643 N   0  0  0  0  0  0
  -26.3036  -12.9280   20.3338 N   0  0  0  0  0  0
  -25.9297  -11.6450   20.5727 N   0  0  0  0  0  0
  -22.0512  -12.8259   22.0376 N   0  0  0  0  0  0
  -25.4397  -15.1848   20.4092 N   0  0  0  0  0  0
  -31.7624  -14.7171   20.0719 O   0  0  0  0  0  0
  -21.6632   -6.8859   21.4228 O   0  0  0  0  0  0
  -22.3568  -14.5562   20.6656 O   0  0  0  0  0  0
  -24.6139  -31.8679   23.2080 C   0  0  0  0  0  0
  -25.9030  -32.4825   23.8382 C   0  0  1  0  0  0
  -27.2415  -27.4451   20.0911 C   0  0  0  0  0  0
  -25.5877  -33.8622   24.2305 N   0  0  0  0  0  0
  -23.4032  -30.4887   21.5484 C   0  0  2  0  0  0
  -24.8528  -28.9515   20.1177 C   0  0  0  0  0  0
  -22.7410  -29.4652   22.4982 C   0  0  0  0  0  0
  -18.0267  -28.1382   22.8480 C   0  0  0  0  0  0
  -24.1484  -36.7325   23.2636 C   0  0  0  0  0  0
  -25.9307  -30.8370   21.3593 C   0  0  0  0  0  0
  -26.0121  -29.4699   20.7096 C   0  0  0  0  0  0
  -27.2137  -28.7247   20.6904 C   0  0  0  0  0  0
  -26.0677  -26.9338   19.5030 C   0  0  0  0  0  0
  -24.8747  -27.6814   19.5129 C   0  0  0  0  0  0
  -23.6138  -29.8171   20.1650 C   0  0  0  0  0  0
  -25.4102  -36.3115   24.0331 C   0  0  1  0  0  0
  -20.5856  -28.3669   23.1312 C   0  0  2  0  0  0
  -20.6750  -26.9402   22.5420 C   0  0  0  0  0  0
  -19.5736  -26.6390   21.5206 C   0  0  0  0  0  0
  -18.1913  -26.7925   22.1618 C   0  0  0  0  0  0
  -19.1515  -28.8839   23.2894 C   0  0  0  0  0  0
  -18.9454  -30.1441   23.8906 C   0  0  0  0  0  0
  -17.6462  -30.6588   24.0569 C   0  0  0  0  0  0
  -25.9033  -34.9481   23.5121 C   0  0  0  0  0  0
  -16.5351  -29.9096   23.6322 C   0  0  0  0  0  0
  -16.7261  -28.6517   23.0334 C   0  0  0  0  0  0
  -26.4462  -31.6608   25.0714 C   0  0  0  0  0  0
  -25.3739  -31.3733   26.1480 C   0  0  0  0  0  0
  -27.0277  -30.3043   24.6089 C   0  0  0  0  0  0
  -27.6040  -32.4327   25.7473 C   0  0  0  0  0  0
  -27.5581  -37.1802   24.8453 C   0  0  0  0  0  0
  -21.4136  -29.3041   22.3730 N   0  0  0  0  0  0
  -26.4284  -37.3803   23.9416 N   0  0  0  0  0  0
  -24.6673  -31.0785   22.0976 N   0  0  0  0  0  0
  -23.4186  -28.8191   23.3022 O   0  0  0  0  0  0
  -28.3961  -26.6998   20.0507 O   0  0  0  0  0  0
  -26.5614  -34.8933   22.4695 O   0  0  0  0  0  0
  -23.5329  -32.1424   23.7477 O   0  0  0  0  0  0
  -29.6530  -18.8347   22.6639 C   0  0  0  0  0  0
  -30.5813  -17.5789   20.3273 C   0  0  0  0  0  0
  -30.1411  -19.6360   21.6058 C   0  0  0  0  0  0
  -30.1152  -16.7820   21.4033 C   0  0  0  0  0  0
  -29.6277  -17.4298   22.5561 C   0  0  0  0  0  0
  -30.5867  -18.9929   20.4245 C   0  0  0  0  0  0
  -30.2306  -21.0983   21.8033 C   0  0  0  0  0  0
  -31.3468  -23.8691   20.3594 C   0  0  0  0  0  0
  -28.8351  -24.2773   20.3267 C   0  0  0  0  0  0
  -31.8805  -25.2775   20.5880 C   0  0  0  0  0  0
  -28.4226  -25.6121   20.9864 C   0  0  0  0  0  0
  -29.9903  -23.4944   20.9903 C   0  0  1  0  0  0
  -30.0272  -15.3561   21.3759 N   0  0  0  0  0  0
  -29.7928  -22.0140   20.9119 N   0  0  0  0  0  0
  -30.7633  -21.5437   22.9478 N   0  3  0  0  0  0
  -32.0209  -23.0743   19.6967 O   0  0  0  0  0  0
  -28.2302  -23.8522   19.3354 O   0  0  0  0  0  0
  -29.1317  -16.6894   23.5784 F   0  0  0  0  0  0
  -31.0425  -19.7244   19.3781 F   0  0  0  0  0  0
  -31.4774  -12.4364   19.1173 H   0  0  0  0  0  0
  -30.3547  -11.2956   19.7985 H   0  0  0  0  0  0
  -29.7421  -11.7945   17.4228 H   0  0  0  0  0  0
  -29.6627  -13.5017   17.7744 H   0  0  0  0  0  0
  -27.8331  -11.3088   18.8084 H   0  0  0  0  0  0
  -27.3697  -12.6461   17.7886 H   0  0  0  0  0  0
  -27.7213  -14.2486   19.5917 H   0  0  0  0  0  0
  -28.6825  -11.9009   21.3054 H   0  0  0  0  0  0
  -28.4433  -13.5080   21.8961 H   0  0  0  0  0  0
  -25.2744   -9.5705   22.4739 H   0  0  0  0  0  0
  -23.9994   -7.4647   22.7475 H   0  0  0  0  0  0
  -21.0818   -8.8764   19.8961 H   0  0  0  0  0  0
  -22.3666  -10.9657   19.6162 H   0  0  0  0  0  0
  -21.2011   -7.6143   23.9706 H   0  0  0  0  0  0
  -21.1481   -6.0514   25.9069 H   0  0  0  0  0  0
  -22.0604   -2.7604   23.2842 H   0  0  0  0  0  0
  -22.4115  -11.9927   22.4782 H   0  0  0  0  0  0
  -21.1133  -13.1308   22.2570 H   0  0  0  0  0  0
  -24.6778  -15.8450   20.5208 H   0  0  0  0  0  0
  -26.2956  -15.6198   20.0879 H   0  0  0  0  0  0
  -26.7107  -32.5540   23.1152 H   0  0  0  0  0  0
  -24.9983  -33.9786   25.0418 H   0  0  0  0  0  0
  -22.6912  -31.3042   21.4053 H   0  0  0  0  0  0
  -23.3743  -35.9661   23.3292 H   0  0  0  0  0  0
  -24.3583  -36.8957   22.2054 H   0  0  0  0  0  0
  -23.7242  -37.6525   23.6666 H   0  0  0  0  0  0
  -26.0370  -31.6027   20.5895 H   0  0  0  0  0  0
  -26.8204  -30.8954   21.9747 H   0  0  0  0  0  0
  -28.1139  -29.1267   21.1336 H   0  0  0  0  0  0
  -26.0828  -25.9601   19.0325 H   0  0  0  0  0  0
  -23.9839  -27.2742   19.0547 H   0  0  0  0  0  0
  -23.7230  -30.5896   19.4031 H   0  0  0  0  0  0
  -22.7392  -29.2355   19.8688 H   0  0  0  0  0  0
  -25.1276  -36.1968   25.0823 H   0  0  0  0  0  0
  -20.9936  -28.3239   24.1439 H   0  0  0  0  0  0
  -20.5634  -26.2284   23.3615 H   0  0  0  0  0  0
  -21.6629  -26.7434   22.1237 H   0  0  0  0  0  0
  -19.6902  -25.6305   21.1229 H   0  0  0  0  0  0
  -19.6674  -27.3209   20.6741 H   0  0  0  0  0  0
  -17.4183  -26.6662   21.4024 H   0  0  0  0  0  0
  -18.0320  -26.0070   22.9020 H   0  0  0  0  0  0
  -19.7935  -30.7242   24.2284 H   0  0  0  0  0  0
  -17.5029  -31.6265   24.5179 H   0  0  0  0  0  0
  -15.5355  -30.3015   23.7637 H   0  0  0  0  0  0
  -15.8657  -28.0857   22.7028 H   0  0  0  0  0  0
  -24.5871  -30.7124   25.7828 H   0  0  0  0  0  0
  -24.8985  -32.2907   26.4960 H   0  0  0  0  0  0
  -25.8100  -30.8871   27.0216 H   0  0  0  0  0  0
  -26.2812  -29.6816   24.1147 H   0  0  0  0  0  0
  -27.4039  -29.7267   25.4540 H   0  0  0  0  0  0
  -27.8650  -30.4340   23.9229 H   0  0  0  0  0  0
  -27.2647  -33.3601   26.2094 H   0  0  0  0  0  0
  -28.3824  -32.6935   25.0295 H   0  0  0  0  0  0
  -28.0740  -31.8437   26.5355 H   0  0  0  0  0  0
  -28.2583  -38.0115   24.7535 H   0  0  0  0  0  0
  -28.1089  -36.2651   24.6225 H   0  0  0  0  0  0
  -27.2313  -37.1396   25.8858 H   0  0  0  0  0  0
  -20.9292  -29.8793   21.6977 H   0  0  0  0  0  0
  -26.0167  -38.2871   24.1453 H   0  0  0  0  0  0
  -29.2919  -19.2923   23.5736 H   0  0  0  0  0  0
  -30.9294  -17.1222   19.4134 H   0  0  0  0  0  0
  -31.5235  -25.6816   21.5342 H   0  0  0  0  0  0
  -31.5576  -25.9353   19.7814 H   0  0  0  0  0  0
  -32.9700  -25.2687   20.6089 H   0  0  0  0  0  0
  -29.1200  -25.8613   21.7861 H   0  0  0  0  0  0
  -27.4467  -25.4677   21.4528 H   0  0  0  0  0  0
  -30.0110  -23.7860   22.0401 H   0  0  0  0  0  0
  -29.2890  -14.9739   21.9474 H   0  0  0  0  0  0
  -29.3974  -21.6797   20.0419 H   0  0  0  0  0  0
  -31.1623  -20.8840   23.5987 H   0  0  0  0  0  0
  -30.7904  -22.5188   23.1897 H   0  0  0  0  0  0
  1 25  1  0  0  0
  1 30  2  0  0  0
  1 83  1  0  0  0
  2  3  1  0  0  0
  2 25  1  0  0  0
  2 90  1  0  0  0
  2 91  1  0  0  0
  3  4  1  0  0  0
  3 92  1  0  0  0
  3 93  1  0  0  0
  4  5  1  0  0  0
  4 94  1  0  0  0
  4 95  1  0  0  0
  5  6  1  0  0  0
  5 26  1  0  0  0
  5 96  1  0  0  0
  6 25  1  0  0  0
  6 97  1  0  0  0
  6 98  1  0  0  0
  7  8  2  0  0  0
  7 26  1  0  0  0
  7 29  1  0  0  0
  8  9  1  0  0  0
  8 22  1  0  0  0
  9 10  1  0  0  0
  9 27  2  0  0  0
 10 11  2  0  0  0
 10 15  1  0  0  0
 11 12  1  0  0  0
 11 99  1  0  0  0
 12 13  2  0  0  0
 12100  1  0  0  0
 13 14  1  0  0  0
 13 31  1  0  0  0
 14 15  2  0  0  0
 14101  1  0  0  0
 15102  1  0  0  0
 16 17  2  0  0  0
 16 21  1  0  0  0
 16 31  1  0  0  0
 17 18  1  0  0  0
 17103  1  0  0  0
 18 19  2  0  0  0
 18104  1  0  0  0
 19 20  1  0  0  0
 19 24  1  0  0  0
 20 21  2  0  0  0
 20105  1  0  0  0
 21 23  1  0  0  0
 22 28  1  0  0  0
 22 32  2  0  0  0
 26 27  1  0  0  0
 28106  1  0  0  0
 28107  1  0  0  0
 29108  1  0  0  0
 29109  1  0  0  0
 33 34  1  0  0  0
 33 66  1  0  0  0
 33 70  2  0  0  0
 34 36  1  0  0  0
 34 59  1  0  0  0
 34110  1  0  0  0
 35 44  2  0  0  0
 35 45  1  0  0  0
 35 68  1  0  0  0
 36 56  1  0  0  0
 36111  1  0  0  0
 37 39  1  0  0  0
 37 47  1  0  0  0
 37 66  1  0  0  0
 37112  1  0  0  0
 38 43  2  0  0  0
 38 46  1  0  0  0
 38 47  1  0  0  0
 39 64  1  0  0  0
 39 67  2  0  0  0
 40 52  1  0  0  0
 40 53  2  0  0  0
 40 58  1  0  0  0
 41113  1  0  0  0
 41114  1  0  0  0
 41115  1  0  0  0
 41 48  1  0  0  0
 42 43  1  0  0  0
 42 66  1  0  0  0
 42116  1  0  0  0
 42117  1  0  0  0
 43 44  1  0  0  0
 44118  1  0  0  0
 45 46  2  0  0  0
 45119  1  0  0  0
 46120  1  0  0  0
 47121  1  0  0  0
 47122  1  0  0  0
 48 56  1  0  0  0
 48 65  1  0  0  0
 48123  1  0  0  0
 49 50  1  0  0  0
 49 53  1  0  0  0
 49 64  1  0  0  0
 49124  1  0  0  0
 50 51  1  0  0  0
 50125  1  0  0  0
 50126  1  0  0  0
 51 52  1  0  0  0
 51127  1  0  0  0
 51128  1  0  0  0
 52129  1  0  0  0
 52130  1  0  0  0
 53 54  1  0  0  0
 54 55  2  0  0  0
 54131  1  0  0  0
 55 57  1  0  0  0
 55132  1  0  0  0
 56 69  2  0  0  0
 57 58  2  0  0  0
 57133  1  0  0  0
 58134  1  0  0  0
 59 60  1  0  0  0
 59 61  1  0  0  0
 59 62  1  0  0  0
 60135  1  0  0  0
 60136  1  0  0  0
 60137  1  0  0  0
 61138  1  0  0  0
 61139  1  0  0  0
 61140  1  0  0  0
 62141  1  0  0  0
 62142  1  0  0  0
 62143  1  0  0  0
 63 65  1  0  0  0
 63144  1  0  0  0
 63145  1  0  0  0
 63146  1  0  0  0
 64147  1  0  0  0
 65148  1  0  0  0
 68 81  1  0  0  0
 71 73  2  0  0  0
 71 75  1  0  0  0
 71149  1  0  0  0
 72 74  1  0  0  0
 72 76  2  0  0  0
 72150  1  0  0  0
 73 76  1  0  0  0
 73 77  1  0  0  0
 74 75  2  0  0  0
 74 83  1  0  0  0
 75 88  1  0  0  0
 76 89  1  0  0  0
 77 84  1  0  0  0
 77 85  2  0  0  0
 78 80  1  0  0  0
 78 82  1  0  0  0
 78 86  2  0  0  0
 79 81  1  0  0  0
 79 82  1  0  0  0
 79 87  2  0  0  0
 80151  1  0  0  0
 80152  1  0  0  0
 80153  1  0  0  0
 81154  1  0  0  0
 81155  1  0  0  0
 82 84  1  0  0  0
 82156  1  0  0  0
 83157  1  0  0  0
 84158  1  0  0  0
 85159  1  0  0  0
 85160  1  0  0  0
M  CHG  1  85   1
M  ISO  4   1 100  68 101  81 101  83 100
M  END
> <chiral flag>
0

> <version>
0

> <s_m_source_file>
/data/baiqing/PycharmProjects/Reinvent-master-3.2/result/LINK_invent/BTK/process_docking_weight1_custom_product_contain_oxygen_bond_distance_aromatic_linkinvent_7_9_3/rearranged_h_0171.sdf

> <i_m_source_file_index>
22

> <r_mmod_Potential_Energy-OPLS-2005>
-469.85498046875

> <r_mmod_Stretch_Energy-OPLS-2005>
38.6519165039062

> <r_mmod_Bend_Energy-OPLS-2005>
96.8051452636719

> <r_mmod_Torsional_Energy-OPLS-2005>
261.041534423828

> <r_mmod_Improper_Torsional_Energy-OPLS-2005>
2.88804817199707

> <r_mmod_Van_der_Waal_Energy-OPLS-2005>
151.515121459961

> <r_mmod_Electrostatic_Energy-OPLS-2005>
-560.335205078125

> <r_mmod_Solvation_Energy-OPLS-2005>
-470.882202148438

> <b_mmod_Minimization_Converged-OPLS-2005>
0

> <r_mmod_RMS_Derivative-OPLS-2005>
1.70910501480103

$$$$
22
                    3D
 Structure written by MMmdl.
152160  0  0  1  0            999 V2000
  -30.5734  -14.7501   20.4873 C   0  0  0  0  0  0
  -30.4494  -12.4601   19.4692 C   0  0  0  0  0  0
  -29.5168  -12.5210   18.2366 C   0  0  0  0  0  0
  -28.0417  -12.3393   18.6478 C   0  0  0  0  0  0
  -27.6504  -13.2232   19.8610 C   0  0  2  0  0  0
  -28.6958  -13.1138   20.9941 C   0  0  0  0  0  0
  -25.2550  -13.8175   20.5695 C   0  0  0  0  0  0
  -24.1826  -13.0435   20.9201 C   0  0  0  0  0  0
  -24.6402  -11.6908   20.8740 C   0  0  0  0  0  0
  -23.9071  -10.4290   21.0405 C   0  0  0  0  0  0
  -24.3619   -9.4205   21.9184 C   0  0  0  0  0  0
  -23.6294   -8.2241   22.0755 C   0  0  0  0  0  0
  -22.4275   -8.0280   21.3545 C   0  0  0  0  0  0
  -21.9912   -9.0255   20.4647 C   0  0  0  0  0  0
  -22.7242  -10.2134   20.3056 C   0  0  0  0  0  0
  -21.6854   -6.0735   22.5279 C   0  0  0  0  0  0
  -21.4015   -6.5640   23.8212 C   0  0  0  0  0  0
  -21.3660   -5.6792   24.9174 C   0  0  0  0  0  0
  -21.6044   -4.3055   24.7224 C   0  0  0  0  0  0
  -21.8819   -3.8147   23.4346 C   0  0  0  0  0  0
  -21.9193   -4.6964   22.3401 C   0  0  0  0  0  0
  -22.7847  -13.5225   21.1861 C   0  0  0  0  0  0
  -22.1661   -4.2149   21.0979 F   0  0  0  0  0  0
  -21.5628   -3.4539   25.7738 F   0  0  0  0  0  0
  -30.0013  -13.4949   20.4299 N   0  0  0  0  0  0
  -26.2978  -12.9365   20.3310 N   0  0  0  0  0  0
  -25.9333  -11.6516   20.5754 N   0  0  0  0  0  0
  -22.0489  -12.8216   22.0416 N   0  0  0  0  0  0
  -25.4256  -15.1900   20.4116 N   0  0  0  0  0  0
  -31.7328  -14.9161   20.0892 O   0  0  0  0  0  0
  -21.6640   -6.8878   21.4240 O   0  0  0  0  0  0
  -22.3534  -14.5532   20.6709 O   0  0  0  0  0  0
  -24.6317  -31.8547   23.1977 C   0  0  0  0  0  0
  -25.9137  -32.4756   23.8332 C   0  0  1  0  0  0
  -27.2293  -27.2718   20.1269 C   0  0  0  0  0  0
  -25.5927  -33.8557   24.2255 N   0  0  0  0  0  0
  -23.4308  -30.4760   21.5397 C   0  0  2  0  0  0
  -24.8840  -28.9239   20.1079 C   0  0  0  0  0  0
  -22.7514  -29.4597   22.4898 C   0  0  0  0  0  0
  -18.0296  -28.1396   22.8485 C   0  0  0  0  0  0
  -24.1489  -36.7284   23.2639 C   0  0  0  0  0  0
  -25.9766  -30.7699   21.3785 C   0  0  0  0  0  0
  -26.0548  -29.3929   20.7203 C   0  0  0  0  0  0
  -27.2336  -28.5773   20.7239 C   0  0  0  0  0  0
  -26.0407  -26.8680   19.4868 C   0  0  0  0  0  0
  -24.8810  -27.6683   19.4798 C   0  0  0  0  0  0
  -23.6518  -29.8082   20.1565 C   0  0  0  0  0  0
  -25.4116  -36.3071   24.0325 C   0  0  1  0  0  0
  -20.5902  -28.3708   23.1263 C   0  0  2  0  0  0
  -20.6781  -26.9423   22.5409 C   0  0  0  0  0  0
  -19.5755  -26.6389   21.5214 C   0  0  0  0  0  0
  -18.1938  -26.7937   22.1629 C   0  0  0  0  0  0
  -19.1551  -28.8869   23.2868 C   0  0  0  0  0  0
  -18.9472  -30.1469   23.8889 C   0  0  0  0  0  0
  -17.6470  -30.6593   24.0567 C   0  0  0  0  0  0
  -25.9054  -34.9439   23.5094 C   0  0  0  0  0  0
  -16.5361  -29.9092   23.6334 C   0  0  0  0  0  0
  -16.7283  -28.6510   23.0354 C   0  0  0  0  0  0
  -26.4500  -31.6582   25.0724 C   0  0  0  0  0  0
  -25.3718  -31.3738   26.1442 C   0  0  0  0  0  0
  -27.0347  -30.2996   24.6214 C   0  0  0  0  0  0
  -27.6050  -32.4327   25.7501 C   0  0  0  0  0  0
  -27.5578  -37.1802   24.8466 C   0  0  0  0  0  0
  -21.4218  -29.3049   22.3644 N   0  0  0  0  0  0
  -26.4292  -37.3771   23.9407 N   0  0  0  0  0  0
  -24.6984  -31.0512   22.0952 N   0  0  0  0  0  0
  -23.4206  -28.8141   23.3006 O   0  0  0  0  0  0
  -28.2624  -26.3104   20.1894 O   0  0  0  0  0  0
  -26.5630  -34.8915   22.4666 O   0  0  0  0  0  0
  -23.5463  -32.1365   23.7267 O   0  0  0  0  0  0
  -28.9197  -17.8503   21.8962 C   0  0  0  0  0  0
  -29.9991  -19.5080   20.0313 C   0  0  0  0  0  0
  -28.6868  -19.2567   21.9989 C   0  0  0  0  0  0
  -29.2270  -20.1680   21.0360 C   0  0  0  0  0  0
  -29.7093  -17.2643   20.8828 C   0  0  0  0  0  0
  -28.0636  -25.2978   21.1584 C   0  0  0  0  0  0
  -28.2709  -23.9247   21.3314 C   0  0  0  0  0  0
  -28.8364  -22.7913   20.4916 C   0  0  0  0  0  0
  -27.8461  -19.7680   23.1714 C   0  0  0  0  0  0
  -30.2346  -18.1389   19.9646 N   0  0  0  0  0  0
  -29.0351  -21.6374   21.2426 N   0  0  0  0  0  0
  -29.7448  -15.7790   20.9081 N   0  0  0  0  0  0
  -29.0926  -22.8404   19.2895 O   0  0  0  0  0  0
  -27.7925  -23.5105   22.5194 O   0  0  0  0  0  0
  -27.3604  -18.7846   23.9318 F   0  0  0  0  0  0
  -28.6006  -20.5568   23.9373 F   0  0  0  0  0  0
  -26.8200  -20.4890   22.7147 F   0  0  0  0  0  0
  -31.4867  -12.6076   19.1640 H   0  0  0  0  0  0
  -30.4131  -11.4727   19.9320 H   0  0  0  0  0  0
  -29.7993  -11.7566   17.5113 H   0  0  0  0  0  0
  -29.6395  -13.4808   17.7322 H   0  0  0  0  0  0
  -27.8960  -11.2876   18.8971 H   0  0  0  0  0  0
  -27.3845  -12.5446   17.8019 H   0  0  0  0  0  0
  -27.6559  -14.2524   19.5013 H   0  0  0  0  0  0
  -28.7341  -12.0952   21.3836 H   0  0  0  0  0  0
  -28.4201  -13.7428   21.8417 H   0  0  0  0  0  0
  -25.2765   -9.5680   22.4758 H   0  0  0  0  0  0
  -24.0002   -7.4632   22.7474 H   0  0  0  0  0  0
  -21.0842   -8.8777   19.8952 H   0  0  0  0  0  0
  -22.3703  -10.9674   19.6164 H   0  0  0  0  0  0
  -21.2009   -7.6148   23.9715 H   0  0  0  0  0  0
  -21.1482   -6.0523   25.9077 H   0  0  0  0  0  0
  -22.0599   -2.7609   23.2847 H   0  0  0  0  0  0
  -22.4102  -11.9873   22.4797 H   0  0  0  0  0  0
  -21.1109  -13.1244   22.2625 H   0  0  0  0  0  0
  -24.6529  -15.8391   20.5128 H   0  0  0  0  0  0
  -26.2640  -15.6287   20.0536 H   0  0  0  0  0  0
  -26.7207  -32.5415   23.1080 H   0  0  0  0  0  0
  -25.0063  -33.9691   25.0393 H   0  0  0  0  0  0
  -22.7273  -31.2980   21.3912 H   0  0  0  0  0  0
  -23.3748  -35.9620   23.3308 H   0  0  0  0  0  0
  -24.3572  -36.8903   22.2052 H   0  0  0  0  0  0
  -23.7246  -37.6488   23.6662 H   0  0  0  0  0  0
  -26.1150  -31.5307   20.6091 H   0  0  0  0  0  0
  -26.8537  -30.8208   22.0122 H   0  0  0  0  0  0
  -28.1265  -28.9220   21.2259 H   0  0  0  0  0  0
  -26.0007  -25.8924   19.0226 H   0  0  0  0  0  0
  -23.9842  -27.3015   18.9998 H   0  0  0  0  0  0
  -23.7748  -30.5837   19.3995 H   0  0  0  0  0  0
  -22.7717  -29.2391   19.8516 H   0  0  0  0  0  0
  -25.1300  -36.1916   25.0817 H   0  0  0  0  0  0
  -21.0001  -28.3292   24.1382 H   0  0  0  0  0  0
  -20.5680  -26.2321   23.3618 H   0  0  0  0  0  0
  -21.6649  -26.7441   22.1207 H   0  0  0  0  0  0
  -19.6914  -25.6296   21.1253 H   0  0  0  0  0  0
  -19.6690  -27.3190   20.6737 H   0  0  0  0  0  0
  -17.4207  -26.6684   21.4033 H   0  0  0  0  0  0
  -18.0338  -26.0081   22.9028 H   0  0  0  0  0  0
  -19.7945  -30.7291   24.2253 H   0  0  0  0  0  0
  -17.5023  -31.6270   24.5175 H   0  0  0  0  0  0
  -15.5363  -30.2995   23.7657 H   0  0  0  0  0  0
  -15.8682  -28.0828   22.7075 H   0  0  0  0  0  0
  -24.5898  -30.7079   25.7772 H   0  0  0  0  0  0
  -24.8902  -32.2909   26.4843 H   0  0  0  0  0  0
  -25.8034  -30.8934   27.0232 H   0  0  0  0  0  0
  -26.2935  -29.6746   24.1220 H   0  0  0  0  0  0
  -27.4002  -29.7257   25.4740 H   0  0  0  0  0  0
  -27.8825  -30.4263   23.9478 H   0  0  0  0  0  0
  -27.2652  -33.3631   26.2061 H   0  0  0  0  0  0
  -28.3873  -32.6881   25.0341 H   0  0  0  0  0  0
  -28.0703  -31.8462   26.5433 H   0  0  0  0  0  0
  -28.2605  -38.0089   24.7504 H   0  0  0  0  0  0
  -28.1066  -36.2622   24.6309 H   0  0  0  0  0  0
  -27.2293  -37.1472   25.8868 H   0  0  0  0  0  0
  -20.9408  -29.8770   21.6845 H   0  0  0  0  0  0
  -26.0169  -38.2846   24.1399 H   0  0  0  0  0  0
  -28.4744  -17.2019   22.6377 H   0  0  0  0  0  0
  -30.4825  -20.0962   19.2652 H   0  0  0  0  0  0
  -27.6007  -25.7869   22.0074 H   0  0  0  0  0  0
  -28.9194  -21.8830   22.2173 H   0  0  0  0  0  0
  -28.9154  -15.3904   21.3255 H   0  0  0  0  0  0
  -27.4243  -22.6462   22.3855 H   0  0  0  0  0  0
  1 25  1  0  0  0
  1 30  2  0  0  0
  1 82  1  0  0  0
  2  3  1  0  0  0
  2 25  1  0  0  0
  2 88  1  0  0  0
  2 89  1  0  0  0
  3  4  1  0  0  0
  3 90  1  0  0  0
  3 91  1  0  0  0
  4  5  1  0  0  0
  4 92  1  0  0  0
  4 93  1  0  0  0
  5  6  1  0  0  0
  5 26  1  0  0  0
  5 94  1  0  0  0
  6 25  1  0  0  0
  6 95  1  0  0  0
  6 96  1  0  0  0
  7  8  2  0  0  0
  7 26  1  0  0  0
  7 29  1  0  0  0
  8  9  1  0  0  0
  8 22  1  0  0  0
  9 10  1  0  0  0
  9 27  2  0  0  0
 10 11  2  0  0  0
 10 15  1  0  0  0
 11 12  1  0  0  0
 11 97  1  0  0  0
 12 13  2  0  0  0
 12 98  1  0  0  0
 13 14  1  0  0  0
 13 31  1  0  0  0
 14 15  2  0  0  0
 14 99  1  0  0  0
 15100  1  0  0  0
 16 17  2  0  0  0
 16 21  1  0  0  0
 16 31  1  0  0  0
 17 18  1  0  0  0
 17101  1  0  0  0
 18 19  2  0  0  0
 18102  1  0  0  0
 19 20  1  0  0  0
 19 24  1  0  0  0
 20 21  2  0  0  0
 20103  1  0  0  0
 21 23  1  0  0  0
 22 28  1  0  0  0
 22 32  2  0  0  0
 26 27  1  0  0  0
 28104  1  0  0  0
 28105  1  0  0  0
 29106  1  0  0  0
 29107  1  0  0  0
 33 34  1  0  0  0
 33 66  1  0  0  0
 33 70  2  0  0  0
 34 36  1  0  0  0
 34 59  1  0  0  0
 34108  1  0  0  0
 35 44  2  0  0  0
 35 45  1  0  0  0
 35 68  1  0  0  0
 36 56  1  0  0  0
 36109  1  0  0  0
 37 39  1  0  0  0
 37 47  1  0  0  0
 37 66  1  0  0  0
 37110  1  0  0  0
 38 43  2  0  0  0
 38 46  1  0  0  0
 38 47  1  0  0  0
 39 64  1  0  0  0
 39 67  2  0  0  0
 40 52  1  0  0  0
 40 53  2  0  0  0
 40 58  1  0  0  0
 41111  1  0  0  0
 41112  1  0  0  0
 41113  1  0  0  0
 41 48  1  0  0  0
 42 43  1  0  0  0
 42 66  1  0  0  0
 42114  1  0  0  0
 42115  1  0  0  0
 43 44  1  0  0  0
 44116  1  0  0  0
 45 46  2  0  0  0
 45117  1  0  0  0
 46118  1  0  0  0
 47119  1  0  0  0
 47120  1  0  0  0
 48 56  1  0  0  0
 48 65  1  0  0  0
 48121  1  0  0  0
 49 50  1  0  0  0
 49 53  1  0  0  0
 49 64  1  0  0  0
 49122  1  0  0  0
 50 51  1  0  0  0
 50123  1  0  0  0
 50124  1  0  0  0
 51 52  1  0  0  0
 51125  1  0  0  0
 51126  1  0  0  0
 52127  1  0  0  0
 52128  1  0  0  0
 53 54  1  0  0  0
 54 55  2  0  0  0
 54129  1  0  0  0
 55 57  1  0  0  0
 55130  1  0  0  0
 56 69  2  0  0  0
 57 58  2  0  0  0
 57131  1  0  0  0
 58132  1  0  0  0
 59 60  1  0  0  0
 59 61  1  0  0  0
 59 62  1  0  0  0
 60133  1  0  0  0
 60134  1  0  0  0
 60135  1  0  0  0
 61136  1  0  0  0
 61137  1  0  0  0
 61138  1  0  0  0
 62139  1  0  0  0
 62140  1  0  0  0
 62141  1  0  0  0
 63 65  1  0  0  0
 63142  1  0  0  0
 63143  1  0  0  0
 63144  1  0  0  0
 64145  1  0  0  0
 65146  1  0  0  0
 68 76  1  0  0  0
 71 73  2  0  0  0
 71 75  1  0  0  0
 71147  1  0  0  0
 72 74  2  0  0  0
 72 80  1  0  0  0
 72148  1  0  0  0
 73 74  1  0  0  0
 73 79  1  0  0  0
 74 81  1  0  0  0
 75 80  2  0  0  0
 75 82  1  0  0  0
 76 77  2  0  0  0
 76149  1  0  0  0
 77 78  1  0  0  0
 77 84  1  0  0  0
 78 81  1  0  0  0
 78 83  2  0  0  0
 79 85  1  0  0  0
 79 86  1  0  0  0
 79 87  1  0  0  0
 81150  1  0  0  0
 82151  1  0  0  0
 84152  1  0  0  0
M  ISO  4   1 100  68 101  76 101  82 100
M  END
> <chiral flag>
0

> <version>
0

> <s_m_source_file>
/data/baiqing/PycharmProjects/Reinvent-master-3.2/result/LINK_invent/BTK/process_docking_weight1_custom_product_contain_oxygen_bond_distance_aromatic_linkinvent_7_9_3/rearranged_h_0171.sdf

> <i_m_source_file_index>
23

> <r_mmod_Potential_Energy-OPLS-2005>
102.777946472168

> <r_mmod_Stretch_Energy-OPLS-2005>
115.863403320312

> <r_mmod_Bend_Energy-OPLS-2005>
263.716186523438

> <r_mmod_Torsional_Energy-OPLS-2005>
250.520523071289

> <r_mmod_Improper_Torsional_Energy-OPLS-2005>
4.1903018951416

> <r_mmod_Van_der_Waal_Energy-OPLS-2005>
146.695159912109

> <r_mmod_Electrostatic_Energy-OPLS-2005>
-508.540832519531

> <r_mmod_Solvation_Energy-OPLS-2005>
-259.751068115234

> <b_mmod_Minimization_Converged-OPLS-2005>
0

> <r_mmod_RMS_Derivative-OPLS-2005>
0.420236676931381

$$$$
23
                    3D
 Structure written by MMmdl.
153161  0  0  1  0            999 V2000
  -30.7101  -14.4511   20.5501 C   0  0  0  0  0  0
  -30.4080  -12.2834   19.4354 C   0  0  0  0  0  0
  -29.4917  -12.5111   18.2164 C   0  0  0  0  0  0
  -28.0098  -12.3824   18.6208 C   0  0  0  0  0  0
  -27.6612  -13.2152   19.8848 C   0  0  2  0  0  0
  -28.7003  -12.9983   21.0091 C   0  0  0  0  0  0
  -25.2583  -13.8206   20.5749 C   0  0  0  0  0  0
  -24.1835  -13.0460   20.9185 C   0  0  0  0  0  0
  -24.6398  -11.6923   20.8738 C   0  0  0  0  0  0
  -23.9085  -10.4304   21.0401 C   0  0  0  0  0  0
  -24.3629   -9.4217   21.9183 C   0  0  0  0  0  0
  -23.6294   -8.2261   22.0755 C   0  0  0  0  0  0
  -22.4275   -8.0306   21.3552 C   0  0  0  0  0  0
  -21.9916   -9.0263   20.4658 C   0  0  0  0  0  0
  -22.7250  -10.2139   20.3072 C   0  0  0  0  0  0
  -21.6859   -6.0765   22.5273 C   0  0  0  0  0  0
  -21.4014   -6.5659   23.8210 C   0  0  0  0  0  0
  -21.3662   -5.6800   24.9169 C   0  0  0  0  0  0
  -21.6041   -4.3062   24.7220 C   0  0  0  0  0  0
  -21.8814   -3.8168   23.4339 C   0  0  0  0  0  0
  -21.9184   -4.6992   22.3393 C   0  0  0  0  0  0
  -22.7847  -13.5232   21.1844 C   0  0  0  0  0  0
  -22.1657   -4.2183   21.0972 F   0  0  0  0  0  0
  -21.5627   -3.4544   25.7731 F   0  0  0  0  0  0
  -30.0375  -13.2739   20.4585 N   0  0  0  0  0  0
  -26.3023  -12.9393   20.3431 N   0  0  0  0  0  0
  -25.9320  -11.6538   20.5776 N   0  0  0  0  0  0
  -22.0519  -12.8207   22.0409 N   0  0  0  0  0  0
  -25.4300  -15.1940   20.4247 N   0  0  0  0  0  0
  -31.8530  -14.6008   20.1054 O   0  0  0  0  0  0
  -21.6641   -6.8903   21.4242 O   0  0  0  0  0  0
  -22.3516  -14.5524   20.6681 O   0  0  0  0  0  0
  -24.6154  -31.8673   23.2095 C   0  0  0  0  0  0
  -25.9047  -32.4812   23.8393 C   0  0  1  0  0  0
  -27.2394  -27.4338   20.0875 C   0  0  0  0  0  0
  -25.5895  -33.8614   24.2317 N   0  0  0  0  0  0
  -23.4023  -30.4922   21.5509 C   0  0  2  0  0  0
  -24.8465  -28.9561   20.1150 C   0  0  0  0  0  0
  -22.7401  -29.4669   22.4999 C   0  0  0  0  0  0
  -18.0264  -28.1389   22.8491 C   0  0  0  0  0  0
  -24.1489  -36.7325   23.2639 C   0  0  0  0  0  0
  -25.9309  -30.8325   21.3620 C   0  0  0  0  0  0
  -26.0075  -29.4664   20.7084 C   0  0  0  0  0  0
  -27.2033  -28.7114   20.6947 C   0  0  0  0  0  0
  -26.0507  -26.9321   19.5037 C   0  0  0  0  0  0
  -24.8626  -27.6874   19.5119 C   0  0  0  0  0  0
  -23.6079  -29.8232   20.1654 C   0  0  0  0  0  0
  -25.4111  -36.3112   24.0334 C   0  0  1  0  0  0
  -20.5854  -28.3671   23.1321 C   0  0  2  0  0  0
  -20.6760  -26.9413   22.5414 C   0  0  0  0  0  0
  -19.5735  -26.6394   21.5218 C   0  0  0  0  0  0
  -18.1914  -26.7932   22.1631 C   0  0  0  0  0  0
  -19.1517  -28.8848   23.2904 C   0  0  0  0  0  0
  -18.9450  -30.1458   23.8915 C   0  0  0  0  0  0
  -17.6449  -30.6595   24.0573 C   0  0  0  0  0  0
  -25.9031  -34.9475   23.5124 C   0  0  0  0  0  0
  -16.5339  -29.9097   23.6334 C   0  0  0  0  0  0
  -16.7254  -28.6517   23.0348 C   0  0  0  0  0  0
  -26.4464  -31.6592   25.0727 C   0  0  0  0  0  0
  -25.3719  -31.3704   26.1471 C   0  0  0  0  0  0
  -27.0287  -30.3028   24.6110 C   0  0  0  0  0  0
  -27.6053  -32.4300   25.7479 C   0  0  0  0  0  0
  -27.5575  -37.1833   24.8472 C   0  0  0  0  0  0
  -21.4128  -29.3036   22.3725 N   0  0  0  0  0  0
  -26.4306  -37.3789   23.9387 N   0  0  0  0  0  0
  -24.6678  -31.0777   22.0993 N   0  0  0  0  0  0
  -23.4167  -28.8219   23.3058 O   0  0  0  0  0  0
  -28.4153  -26.7053   20.1309 O   0  0  0  0  0  0
  -26.5607  -34.8928   22.4691 O   0  0  0  0  0  0
  -23.5348  -32.1433   23.7489 O   0  0  0  0  0  0
  -30.6051  -18.4960   18.8093 C   0  0  0  0  0  0
  -30.6053  -17.1694   19.2730 C   0  0  0  0  0  0
  -30.0817  -19.5490   19.5880 C   0  0  0  0  0  0
  -30.0781  -16.8514   20.5487 C   0  0  0  0  0  0
  -29.5536  -19.2443   20.8693 C   0  0  0  0  0  0
  -29.5451  -17.9025   21.3372 C   0  0  0  0  0  0
  -28.5358  -25.5443   19.4025 C   0  0  0  0  0  0
  -29.0630  -24.4032   19.9020 C   0  0  0  0  0  0
  -29.1652  -23.2203   19.0409 C   0  0  0  0  0  0
  -30.1116  -20.9357   18.9300 C   0  0  0  0  0  0
  -30.0064  -15.4983   21.0224 N   0  0  0  0  0  0
  -29.6412  -22.1219   19.6590 N   0  0  0  0  0  0
  -28.8863  -23.2154   17.8397 O   0  0  0  0  0  0
  -29.4970  -24.3587   21.1714 O   0  0  0  0  0  0
  -29.0427  -20.2230   21.6564 F   0  0  0  0  0  0
  -29.0159  -17.6243   22.5552 F   0  0  0  0  0  0
  -31.4565  -12.3500   19.1407 H   0  0  0  0  0  0
  -30.2777  -11.2756   19.8335 H   0  0  0  0  0  0
  -29.7319  -11.7978   17.4277 H   0  0  0  0  0  0
  -29.6720  -13.5035   17.7980 H   0  0  0  0  0  0
  -27.8055  -11.3254   18.7980 H   0  0  0  0  0  0
  -27.3663  -12.6796   17.7919 H   0  0  0  0  0  0
  -27.7066  -14.2652   19.5958 H   0  0  0  0  0  0
  -28.6587  -11.9692   21.3705 H   0  0  0  0  0  0
  -28.4717  -13.6221   21.8742 H   0  0  0  0  0  0
  -25.2801   -9.5660   22.4731 H   0  0  0  0  0  0
  -24.0014   -7.4642   22.7462 H   0  0  0  0  0  0
  -21.0870   -8.8762   19.8953 H   0  0  0  0  0  0
  -22.3731  -10.9658   19.6155 H   0  0  0  0  0  0
  -21.2006   -7.6156   23.9734 H   0  0  0  0  0  0
  -21.1488   -6.0533   25.9068 H   0  0  0  0  0  0
  -22.0599   -2.7634   23.2818 H   0  0  0  0  0  0
  -22.4148  -11.9833   22.4724 H   0  0  0  0  0  0
  -21.1160  -13.1230   22.2672 H   0  0  0  0  0  0
  -24.6748  -15.8577   20.5610 H   0  0  0  0  0  0
  -26.3032  -15.6337   20.1636 H   0  0  0  0  0  0
  -26.7124  -32.5523   23.1168 H   0  0  0  0  0  0
  -25.0026  -33.9781   25.0448 H   0  0  0  0  0  0
  -22.6920  -31.3098   21.4112 H   0  0  0  0  0  0
  -23.3716  -35.9700   23.3370 H   0  0  0  0  0  0
  -24.3562  -36.8864   22.2036 H   0  0  0  0  0  0
  -23.7298  -37.6575   23.6608 H   0  0  0  0  0  0
  -26.0416  -31.5969   20.5922 H   0  0  0  0  0  0
  -26.8202  -30.8866   21.9776 H   0  0  0  0  0  0
  -28.0987  -29.1013   21.1590 H   0  0  0  0  0  0
  -26.0184  -25.9537   19.0487 H   0  0  0  0  0  0
  -23.9668  -27.2824   19.0615 H   0  0  0  0  0  0
  -23.7143  -30.5970   19.4046 H   0  0  0  0  0  0
  -22.7313  -29.2442   19.8705 H   0  0  0  0  0  0
  -25.1295  -36.1986   25.0831 H   0  0  0  0  0  0
  -20.9950  -28.3245   24.1441 H   0  0  0  0  0  0
  -20.5669  -26.2287   23.3604 H   0  0  0  0  0  0
  -21.6635  -26.7464   22.1202 H   0  0  0  0  0  0
  -19.6897  -25.6304   21.1239 H   0  0  0  0  0  0
  -19.6674  -27.3207   20.6751 H   0  0  0  0  0  0
  -17.4184  -26.6681   21.4036 H   0  0  0  0  0  0
  -18.0310  -26.0076   22.9022 H   0  0  0  0  0  0
  -19.7933  -30.7271   24.2287 H   0  0  0  0  0  0
  -17.5009  -31.6281   24.5165 H   0  0  0  0  0  0
  -15.5339  -30.3005   23.7668 H   0  0  0  0  0  0
  -15.8649  -28.0849   22.7049 H   0  0  0  0  0  0
  -24.5886  -30.7061   25.7799 H   0  0  0  0  0  0
  -24.8917  -32.2858   26.4934 H   0  0  0  0  0  0
  -25.8053  -30.8851   27.0221 H   0  0  0  0  0  0
  -26.2832  -29.6796   24.1151 H   0  0  0  0  0  0
  -27.4032  -29.7265   25.4578 H   0  0  0  0  0  0
  -27.8680  -30.4347   23.9277 H   0  0  0  0  0  0
  -27.2698  -33.3604   26.2078 H   0  0  0  0  0  0
  -28.3849  -32.6843   25.0284 H   0  0  0  0  0  0
  -28.0730  -31.8394   26.5370 H   0  0  0  0  0  0
  -28.2646  -38.0071   24.7434 H   0  0  0  0  0  0
  -28.1016  -36.2604   24.6409 H   0  0  0  0  0  0
  -27.2282  -37.1620   25.8874 H   0  0  0  0  0  0
  -20.9289  -29.8753   21.6941 H   0  0  0  0  0  0
  -26.0199  -38.2882   24.1322 H   0  0  0  0  0  0
  -30.9969  -18.7037   17.8220 H   0  0  0  0  0  0
  -31.0004  -16.4059   18.6163 H   0  0  0  0  0  0
  -28.1757  -25.6485   18.3875 H   0  0  0  0  0  0
  -29.5570  -20.8279   17.9959 H   0  0  0  0  0  0
  -31.1435  -21.1328   18.6311 H   0  0  0  0  0  0
  -29.2115  -15.2780   21.6027 H   0  0  0  0  0  0
  -29.8382  -22.2031   20.6487 H   0  0  0  0  0  0
  -29.3718  -25.2261   21.5351 H   0  0  0  0  0  0
  1 25  1  0  0  0
  1 30  2  0  0  0
  1 81  1  0  0  0
  2  3  1  0  0  0
  2 25  1  0  0  0
  2 87  1  0  0  0
  2 88  1  0  0  0
  3  4  1  0  0  0
  3 89  1  0  0  0
  3 90  1  0  0  0
  4  5  1  0  0  0
  4 91  1  0  0  0
  4 92  1  0  0  0
  5  6  1  0  0  0
  5 26  1  0  0  0
  5 93  1  0  0  0
  6 25  1  0  0  0
  6 94  1  0  0  0
  6 95  1  0  0  0
  7  8  2  0  0  0
  7 26  1  0  0  0
  7 29  1  0  0  0
  8  9  1  0  0  0
  8 22  1  0  0  0
  9 10  1  0  0  0
  9 27  2  0  0  0
 10 11  2  0  0  0
 10 15  1  0  0  0
 11 12  1  0  0  0
 11 96  1  0  0  0
 12 13  2  0  0  0
 12 97  1  0  0  0
 13 14  1  0  0  0
 13 31  1  0  0  0
 14 15  2  0  0  0
 14 98  1  0  0  0
 15 99  1  0  0  0
 16 17  2  0  0  0
 16 21  1  0  0  0
 16 31  1  0  0  0
 17 18  1  0  0  0
 17100  1  0  0  0
 18 19  2  0  0  0
 18101  1  0  0  0
 19 20  1  0  0  0
 19 24  1  0  0  0
 20 21  2  0  0  0
 20102  1  0  0  0
 21 23  1  0  0  0
 22 28  1  0  0  0
 22 32  2  0  0  0
 26 27  1  0  0  0
 28103  1  0  0  0
 28104  1  0  0  0
 29105  1  0  0  0
 29106  1  0  0  0
 33 34  1  0  0  0
 33 66  1  0  0  0
 33 70  2  0  0  0
 34 36  1  0  0  0
 34 59  1  0  0  0
 34107  1  0  0  0
 35 44  2  0  0  0
 35 45  1  0  0  0
 35 68  1  0  0  0
 36 56  1  0  0  0
 36108  1  0  0  0
 37 39  1  0  0  0
 37 47  1  0  0  0
 37 66  1  0  0  0
 37109  1  0  0  0
 38 43  2  0  0  0
 38 46  1  0  0  0
 38 47  1  0  0  0
 39 64  1  0  0  0
 39 67  2  0  0  0
 40 52  1  0  0  0
 40 53  2  0  0  0
 40 58  1  0  0  0
 41110  1  0  0  0
 41111  1  0  0  0
 41112  1  0  0  0
 41 48  1  0  0  0
 42 43  1  0  0  0
 42 66  1  0  0  0
 42113  1  0  0  0
 42114  1  0  0  0
 43 44  1  0  0  0
 44115  1  0  0  0
 45 46  2  0  0  0
 45116  1  0  0  0
 46117  1  0  0  0
 47118  1  0  0  0
 47119  1  0  0  0
 48 56  1  0  0  0
 48 65  1  0  0  0
 48120  1  0  0  0
 49 50  1  0  0  0
 49 53  1  0  0  0
 49 64  1  0  0  0
 49121  1  0  0  0
 50 51  1  0  0  0
 50122  1  0  0  0
 50123  1  0  0  0
 51 52  1  0  0  0
 51124  1  0  0  0
 51125  1  0  0  0
 52126  1  0  0  0
 52127  1  0  0  0
 53 54  1  0  0  0
 54 55  2  0  0  0
 54128  1  0  0  0
 55 57  1  0  0  0
 55129  1  0  0  0
 56 69  2  0  0  0
 57 58  2  0  0  0
 57130  1  0  0  0
 58131  1  0  0  0
 59 60  1  0  0  0
 59 61  1  0  0  0
 59 62  1  0  0  0
 60132  1  0  0  0
 60133  1  0  0  0
 60134  1  0  0  0
 61135  1  0  0  0
 61136  1  0  0  0
 61137  1  0  0  0
 62138  1  0  0  0
 62139  1  0  0  0
 62140  1  0  0  0
 63 65  1  0  0  0
 63141  1  0  0  0
 63142  1  0  0  0
 63143  1  0  0  0
 64144  1  0  0  0
 65145  1  0  0  0
 68 77  1  0  0  0
 71 72  2  0  0  0
 71 73  1  0  0  0
 71146  1  0  0  0
 72 74  1  0  0  0
 72147  1  0  0  0
 73 75  2  0  0  0
 73 80  1  0  0  0
 74 76  2  0  0  0
 74 81  1  0  0  0
 75 76  1  0  0  0
 75 85  1  0  0  0
 76 86  1  0  0  0
 77 78  2  0  0  0
 77148  1  0  0  0
 78 79  1  0  0  0
 78 84  1  0  0  0
 79 82  1  0  0  0
 79 83  2  0  0  0
 80 82  1  0  0  0
 80149  1  0  0  0
 80150  1  0  0  0
 81151  1  0  0  0
 82152  1  0  0  0
 84153  1  0  0  0
M  ISO  4   1 100  68 101  77 101  81 100
M  END
> <chiral flag>
0

> <version>
0

> <s_m_source_file>
/data/baiqing/PycharmProjects/Reinvent-master-3.2/result/LINK_invent/BTK/process_docking_weight1_custom_product_contain_oxygen_bond_distance_aromatic_linkinvent_7_9_3/rearranged_h_0171.sdf

> <i_m_source_file_index>
24

> <r_mmod_Potential_Energy-OPLS-2005>
-134.293746948242

> <r_mmod_Stretch_Energy-OPLS-2005>
38.4293479919434

> <r_mmod_Bend_Energy-OPLS-2005>
104.352432250977

> <r_mmod_Torsional_Energy-OPLS-2005>
211.443496704102

> <r_mmod_Improper_Torsional_Energy-OPLS-2005>
4.60956382751465

> <r_mmod_Van_der_Waal_Energy-OPLS-2005>
169.072937011719

> <r_mmod_Electrostatic_Energy-OPLS-2005>
-461.703979492188

> <r_mmod_Solvation_Energy-OPLS-2005>
-213.94482421875

> <b_mmod_Minimization_Converged-OPLS-2005>
0

> <r_mmod_RMS_Derivative-OPLS-2005>
2.99448657035828

$$$$
24
                    3D
 Structure written by MMmdl.
170179  0  0  1  0            999 V2000
  -30.6721  -14.5072   20.5555 C   0  0  0  0  0  0
  -30.4326  -12.3225   19.4269 C   0  0  0  0  0  0
  -29.5017  -12.5148   18.2101 C   0  0  0  0  0  0
  -28.0216  -12.3714   18.6185 C   0  0  0  0  0  0
  -27.6647  -13.2056   19.8778 C   0  0  2  0  0  0
  -28.7070  -12.9852   20.9987 C   0  0  0  0  0  0
  -25.2620  -13.8151   20.5688 C   0  0  0  0  0  0
  -24.1865  -13.0436   20.9168 C   0  0  0  0  0  0
  -24.6413  -11.6898   20.8736 C   0  0  0  0  0  0
  -23.9076  -10.4291   21.0419 C   0  0  0  0  0  0
  -24.3622   -9.4203   21.9192 C   0  0  0  0  0  0
  -23.6296   -8.2237   22.0759 C   0  0  0  0  0  0
  -22.4280   -8.0277   21.3545 C   0  0  0  0  0  0
  -21.9916   -9.0257   20.4647 C   0  0  0  0  0  0
  -22.7250  -10.2136   20.3064 C   0  0  0  0  0  0
  -21.6851   -6.0739   22.5281 C   0  0  0  0  0  0
  -21.4008   -6.5645   23.8216 C   0  0  0  0  0  0
  -21.3665   -5.6801   24.9178 C   0  0  0  0  0  0
  -21.6045   -4.3061   24.7225 C   0  0  0  0  0  0
  -21.8827   -3.8152   23.4349 C   0  0  0  0  0  0
  -21.9192   -4.6968   22.3403 C   0  0  0  0  0  0
  -22.7887  -13.5229   21.1845 C   0  0  0  0  0  0
  -22.1665   -4.2150   21.0983 F   0  0  0  0  0  0
  -21.5629   -3.4548   25.7740 F   0  0  0  0  0  0
  -30.0380  -13.3040   20.4507 N   0  0  0  0  0  0
  -26.3052  -12.9315   20.3374 N   0  0  0  0  0  0
  -25.9340  -11.6477   20.5764 N   0  0  0  0  0  0
  -22.0538  -12.8210   22.0400 N   0  0  0  0  0  0
  -25.4367  -15.1869   20.4117 N   0  0  0  0  0  0
  -31.7941  -14.7145   20.0832 O   0  0  0  0  0  0
  -21.6637   -6.8881   21.4244 O   0  0  0  0  0  0
  -22.3573  -14.5548   20.6718 O   0  0  0  0  0  0
  -24.6153  -31.8639   23.2060 C   0  0  0  0  0  0
  -25.9034  -32.4798   23.8374 C   0  0  1  0  0  0
  -27.2452  -27.4080   20.0871 C   0  0  0  0  0  0
  -25.5879  -33.8595   24.2306 N   0  0  0  0  0  0
  -23.4072  -30.4835   21.5461 C   0  0  2  0  0  0
  -24.8575  -28.9437   20.1072 C   0  0  0  0  0  0
  -22.7414  -29.4634   22.4973 C   0  0  0  0  0  0
  -18.0275  -28.1379   22.8491 C   0  0  0  0  0  0
  -24.1490  -36.7311   23.2643 C   0  0  0  0  0  0
  -25.9373  -30.8154   21.3678 C   0  0  0  0  0  0
  -26.0144  -29.4465   20.7154 C   0  0  0  0  0  0
  -27.2048  -28.6787   20.7154 C   0  0  0  0  0  0
  -26.0719  -26.9269   19.4694 C   0  0  0  0  0  0
  -24.8821  -27.6826   19.4848 C   0  0  0  0  0  0
  -23.6170  -29.8094   20.1622 C   0  0  0  0  0  0
  -25.4115  -36.3105   24.0341 C   0  0  1  0  0  0
  -20.5859  -28.3669   23.1316 C   0  0  2  0  0  0
  -20.6763  -26.9403   22.5422 C   0  0  0  0  0  0
  -19.5751  -26.6383   21.5213 C   0  0  0  0  0  0
  -18.1926  -26.7927   22.1616 C   0  0  0  0  0  0
  -19.1519  -28.8842   23.2897 C   0  0  0  0  0  0
  -18.9450  -30.1453   23.8908 C   0  0  0  0  0  0
  -17.6453  -30.6587   24.0565 C   0  0  0  0  0  0
  -25.9035  -34.9464   23.5127 C   0  0  0  0  0  0
  -16.5342  -29.9089   23.6327 C   0  0  0  0  0  0
  -16.7264  -28.6503   23.0356 C   0  0  0  0  0  0
  -26.4450  -31.6584   25.0715 C   0  0  0  0  0  0
  -25.3707  -31.3689   26.1453 C   0  0  0  0  0  0
  -27.0300  -30.3031   24.6115 C   0  0  0  0  0  0
  -27.6032  -32.4302   25.7474 C   0  0  0  0  0  0
  -27.5589  -37.1810   24.8465 C   0  0  0  0  0  0
  -21.4139  -29.3027   22.3712 N   0  0  0  0  0  0
  -26.4300  -37.3785   23.9402 N   0  0  0  0  0  0
  -24.6710  -31.0702   22.0977 N   0  0  0  0  0  0
  -23.4169  -28.8196   23.3046 O   0  0  0  0  0  0
  -28.3947  -26.6392   20.1562 O   0  0  0  0  0  0
  -26.5613  -34.8924   22.4700 O   0  0  0  0  0  0
  -23.5338  -32.1410   23.7436 O   0  0  0  0  0  0
  -30.2249  -19.2589   21.1000 C   0  0  0  0  0  0
  -30.4040  -17.9066   21.4876 C   0  0  0  0  0  0
  -29.1746  -17.1940   19.5307 C   0  0  0  0  0  0
  -29.5139  -19.6146   19.9234 C   0  0  0  0  0  0
  -28.9938  -18.5431   19.1336 C   0  0  0  0  0  0
  -29.8833  -16.8551   20.7009 C   0  0  0  0  0  0
  -30.0192  -22.5151   17.4201 C   0  0  0  0  0  0
  -30.4144  -21.3914   18.3822 C   0  0  0  0  0  0
  -29.4823  -22.1784   20.6048 C   0  0  0  0  0  0
  -30.0445  -23.9285   18.0313 C   0  0  0  0  0  0
  -28.9983  -23.6673   20.3961 C   0  0  0  0  0  0
  -29.3658  -21.1032   19.4752 C   0  0  2  0  0  0
  -28.8869  -24.3332   18.9863 C   0  0  1  0  0  0
  -26.7142  -18.6978   18.0336 C   0  0  0  0  0  0
  -28.2305  -18.7711   17.8336 C   0  0  0  0  0  0
  -28.8425  -25.9167   18.9957 C   0  0  0  0  0  0
  -29.9480  -15.4907   21.1310 N   0  0  0  0  0  0
  -27.6674  -23.9002   18.4077 O   0  0  0  0  0  0
  -31.4761  -12.4326   19.1268 H   0  0  0  0  0  0
  -30.3452  -11.3108   19.8240 H   0  0  0  0  0  0
  -29.7456  -11.7933   17.4286 H   0  0  0  0  0  0
  -29.6671  -13.5013   17.7745 H   0  0  0  0  0  0
  -27.8296  -11.3150   18.8073 H   0  0  0  0  0  0
  -27.3754  -12.6534   17.7868 H   0  0  0  0  0  0
  -27.7069  -14.2539   19.5824 H   0  0  0  0  0  0
  -28.6898  -11.9469   21.3347 H   0  0  0  0  0  0
  -28.4619  -13.5747   21.8826 H   0  0  0  0  0  0
  -25.2776   -9.5668   22.4764 H   0  0  0  0  0  0
  -24.0004   -7.4628   22.7482 H   0  0  0  0  0  0
  -21.0849   -8.8783   19.8949 H   0  0  0  0  0  0
  -22.3722  -10.9678   19.6169 H   0  0  0  0  0  0
  -21.1999   -7.6154   23.9713 H   0  0  0  0  0  0
  -21.1482   -6.0535   25.9083 H   0  0  0  0  0  0
  -22.0601   -2.7611   23.2851 H   0  0  0  0  0  0
  -22.4137  -11.9833   22.4727 H   0  0  0  0  0  0
  -21.1168  -13.1252   22.2642 H   0  0  0  0  0  0
  -24.6756  -15.8468   20.5270 H   0  0  0  0  0  0
  -26.2981  -15.6262   20.1145 H   0  0  0  0  0  0
  -26.7099  -32.5500   23.1131 H   0  0  0  0  0  0
  -25.0011  -33.9750   25.0439 H   0  0  0  0  0  0
  -22.6978  -31.3009   21.4014 H   0  0  0  0  0  0
  -23.3751  -35.9641   23.3296 H   0  0  0  0  0  0
  -24.3587  -36.8933   22.2055 H   0  0  0  0  0  0
  -23.7240  -37.6515   23.6660 H   0  0  0  0  0  0
  -26.0563  -31.5795   20.5980 H   0  0  0  0  0  0
  -26.8223  -30.8687   21.9899 H   0  0  0  0  0  0
  -28.0928  -29.0547   21.2040 H   0  0  0  0  0  0
  -26.0632  -25.9530   19.0022 H   0  0  0  0  0  0
  -23.9909  -27.2854   19.0176 H   0  0  0  0  0  0
  -23.7190  -30.5791   19.3971 H   0  0  0  0  0  0
  -22.7425  -29.2232   19.8729 H   0  0  0  0  0  0
  -25.1287  -36.1968   25.0835 H   0  0  0  0  0  0
  -20.9956  -28.3235   24.1435 H   0  0  0  0  0  0
  -20.5664  -26.2275   23.3607 H   0  0  0  0  0  0
  -21.6637  -26.7446   22.1217 H   0  0  0  0  0  0
  -19.6913  -25.6295   21.1244 H   0  0  0  0  0  0
  -19.6693  -27.3192   20.6742 H   0  0  0  0  0  0
  -17.4196  -26.6683   21.4013 H   0  0  0  0  0  0
  -18.0323  -26.0064   22.9008 H   0  0  0  0  0  0
  -19.7925  -30.7269   24.2274 H   0  0  0  0  0  0
  -17.5007  -31.6271   24.5166 H   0  0  0  0  0  0
  -15.5347  -30.2998   23.7651 H   0  0  0  0  0  0
  -15.8660  -28.0829   22.7071 H   0  0  0  0  0  0
  -24.5879  -30.7042   25.7769 H   0  0  0  0  0  0
  -24.8896  -32.2840   26.4913 H   0  0  0  0  0  0
  -25.8050  -30.8833   27.0201 H   0  0  0  0  0  0
  -26.2861  -29.6777   24.1162 H   0  0  0  0  0  0
  -27.4053  -29.7279   25.4587 H   0  0  0  0  0  0
  -27.8692  -30.4348   23.9287 H   0  0  0  0  0  0
  -27.2655  -33.3580   26.2100 H   0  0  0  0  0  0
  -28.3811  -32.6890   25.0280 H   0  0  0  0  0  0
  -28.0728  -31.8389   26.5342 H   0  0  0  0  0  0
  -28.2606  -38.0107   24.7517 H   0  0  0  0  0  0
  -28.1088  -36.2641   24.6284 H   0  0  0  0  0  0
  -27.2307  -37.1451   25.8868 H   0  0  0  0  0  0
  -20.9311  -29.8724   21.6903 H   0  0  0  0  0  0
  -26.0192  -38.2867   24.1392 H   0  0  0  0  0  0
  -30.6503  -20.0280   21.7274 H   0  0  0  0  0  0
  -30.9382  -17.6819   22.4005 H   0  0  0  0  0  0
  -28.7505  -16.4060   18.9233 H   0  0  0  0  0  0
  -29.0549  -22.2990   16.9601 H   0  0  0  0  0  0
  -30.7324  -22.5014   16.5943 H   0  0  0  0  0  0
  -31.3939  -21.5782   18.8243 H   0  0  0  0  0  0
  -30.5558  -20.4995   17.7707 H   0  0  0  0  0  0
  -28.9326  -21.8051   21.4701 H   0  0  0  0  0  0
  -30.5217  -22.2128   20.9332 H   0  0  0  0  0  0
  -30.0470  -24.6197   17.1867 H   0  0  0  0  0  0
  -31.0022  -24.0947   18.5272 H   0  0  0  0  0  0
  -29.6730  -24.2890   20.9862 H   0  0  0  0  0  0
  -28.0364  -23.7882   20.8974 H   0  0  0  0  0  0
  -28.3622  -21.1975   19.0594 H   0  0  0  0  0  0
  -26.1914  -18.8337   17.0868 H   0  0  0  0  0  0
  -26.3700  -19.4720   18.7200 H   0  0  0  0  0  0
  -26.4162  -17.7312   18.4415 H   0  0  0  0  0  0
  -28.5370  -18.0072   17.1165 H   0  0  0  0  0  0
  -28.4918  -19.7161   17.3630 H   0  0  0  0  0  0
  -28.3757  -26.3016   18.0863 H   0  0  0  0  0  0
  -29.8750  -26.2598   18.9178 H   0  0  0  0  0  0
  -29.1029  -15.1475   21.5611 H   0  0  0  0  0  0
  -27.6143  -24.2697   17.5335 H   0  0  0  0  0  0
  1 25  1  0  0  0
  1 30  2  0  0  0
  1 87  1  0  0  0
  2  3  1  0  0  0
  2 25  1  0  0  0
  2 89  1  0  0  0
  2 90  1  0  0  0
  3  4  1  0  0  0
  3 91  1  0  0  0
  3 92  1  0  0  0
  4  5  1  0  0  0
  4 93  1  0  0  0
  4 94  1  0  0  0
  5  6  1  0  0  0
  5 26  1  0  0  0
  5 95  1  0  0  0
  6 25  1  0  0  0
  6 96  1  0  0  0
  6 97  1  0  0  0
  7  8  2  0  0  0
  7 26  1  0  0  0
  7 29  1  0  0  0
  8  9  1  0  0  0
  8 22  1  0  0  0
  9 10  1  0  0  0
  9 27  2  0  0  0
 10 11  2  0  0  0
 10 15  1  0  0  0
 11 12  1  0  0  0
 11 98  1  0  0  0
 12 13  2  0  0  0
 12 99  1  0  0  0
 13 14  1  0  0  0
 13 31  1  0  0  0
 14 15  2  0  0  0
 14100  1  0  0  0
 15101  1  0  0  0
 16 17  2  0  0  0
 16 21  1  0  0  0
 16 31  1  0  0  0
 17 18  1  0  0  0
 17102  1  0  0  0
 18 19  2  0  0  0
 18103  1  0  0  0
 19 20  1  0  0  0
 19 24  1  0  0  0
 20 21  2  0  0  0
 20104  1  0  0  0
 21 23  1  0  0  0
 22 28  1  0  0  0
 22 32  2  0  0  0
 26 27  1  0  0  0
 28105  1  0  0  0
 28106  1  0  0  0
 29107  1  0  0  0
 29108  1  0  0  0
 33 34  1  0  0  0
 33 66  1  0  0  0
 33 70  2  0  0  0
 34 36  1  0  0  0
 34 59  1  0  0  0
 34109  1  0  0  0
 35 44  2  0  0  0
 35 45  1  0  0  0
 35 68  1  0  0  0
 36 56  1  0  0  0
 36110  1  0  0  0
 37 39  1  0  0  0
 37 47  1  0  0  0
 37 66  1  0  0  0
 37111  1  0  0  0
 38 43  2  0  0  0
 38 46  1  0  0  0
 38 47  1  0  0  0
 39 64  1  0  0  0
 39 67  2  0  0  0
 40 52  1  0  0  0
 40 53  2  0  0  0
 40 58  1  0  0  0
 41112  1  0  0  0
 41113  1  0  0  0
 41114  1  0  0  0
 41 48  1  0  0  0
 42 43  1  0  0  0
 42 66  1  0  0  0
 42115  1  0  0  0
 42116  1  0  0  0
 43 44  1  0  0  0
 44117  1  0  0  0
 45 46  2  0  0  0
 45118  1  0  0  0
 46119  1  0  0  0
 47120  1  0  0  0
 47121  1  0  0  0
 48 56  1  0  0  0
 48 65  1  0  0  0
 48122  1  0  0  0
 49 50  1  0  0  0
 49 53  1  0  0  0
 49 64  1  0  0  0
 49123  1  0  0  0
 50 51  1  0  0  0
 50124  1  0  0  0
 50125  1  0  0  0
 51 52  1  0  0  0
 51126  1  0  0  0
 51127  1  0  0  0
 52128  1  0  0  0
 52129  1  0  0  0
 53 54  1  0  0  0
 54 55  2  0  0  0
 54130  1  0  0  0
 55 57  1  0  0  0
 55131  1  0  0  0
 56 69  2  0  0  0
 57 58  2  0  0  0
 57132  1  0  0  0
 58133  1  0  0  0
 59 60  1  0  0  0
 59 61  1  0  0  0
 59 62  1  0  0  0
 60134  1  0  0  0
 60135  1  0  0  0
 60136  1  0  0  0
 61137  1  0  0  0
 61138  1  0  0  0
 61139  1  0  0  0
 62140  1  0  0  0
 62141  1  0  0  0
 62142  1  0  0  0
 63 65  1  0  0  0
 63143  1  0  0  0
 63144  1  0  0  0
 63145  1  0  0  0
 64146  1  0  0  0
 65147  1  0  0  0
 68 86  1  0  0  0
 71 72  2  0  0  0
 71 74  1  0  0  0
 71148  1  0  0  0
 72 76  1  0  0  0
 72149  1  0  0  0
 73 75  1  0  0  0
 73 76  2  0  0  0
 73150  1  0  0  0
 74 75  2  0  0  0
 74 82  1  0  0  0
 75 85  1  0  0  0
 76 87  1  0  0  0
 77 78  1  0  0  0
 77 80  1  0  0  0
 77151  1  0  0  0
 77152  1  0  0  0
 78 82  1  0  0  0
 78153  1  0  0  0
 78154  1  0  0  0
 79 81  1  0  0  0
 79 82  1  0  0  0
 79155  1  0  0  0
 79156  1  0  0  0
 80 83  1  0  0  0
 80157  1  0  0  0
 80158  1  0  0  0
 81 83  1  0  0  0
 81159  1  0  0  0
 81160  1  0  0  0
 82161  1  0  0  0
 83 86  1  0  0  0
 83 88  1  0  0  0
 84 85  1  0  0  0
 84162  1  0  0  0
 84163  1  0  0  0
 84164  1  0  0  0
 85165  1  0  0  0
 85166  1  0  0  0
 86167  1  0  0  0
 86168  1  0  0  0
 87169  1  0  0  0
 88170  1  0  0  0
M  ISO  4   1 100  68 101  86 101  87 100
M  END
> <chiral flag>
0

> <version>
0

> <s_m_source_file>
/data/baiqing/PycharmProjects/Reinvent-master-3.2/result/LINK_invent/BTK/process_docking_weight1_custom_product_contain_oxygen_bond_distance_aromatic_linkinvent_7_9_3/rearranged_h_0171.sdf

> <i_m_source_file_index>
25

> <r_mmod_Potential_Energy-OPLS-2005>
52.7185935974121

> <r_mmod_Stretch_Energy-OPLS-2005>
52.3238754272461

> <r_mmod_Bend_Energy-OPLS-2005>
143.891082763672

> <r_mmod_Torsional_Energy-OPLS-2005>
304.015808105469

> <r_mmod_Improper_Torsional_Energy-OPLS-2005>
5.37740182876587

> <r_mmod_Van_der_Waal_Energy-OPLS-2005>
143.3984375

> <r_mmod_Electrostatic_Energy-OPLS-2005>
-404.263824462891

> <r_mmod_Solvation_Energy-OPLS-2005>
-210.154174804688

> <b_mmod_Minimization_Converged-OPLS-2005>
0

> <r_mmod_RMS_Derivative-OPLS-2005>
1.54743206501007

$$$$
25
                    3D
 Structure written by MMmdl.
156164  0  0  1  0            999 V2000
  -30.7180  -14.4461   20.5575 C   0  0  0  0  0  0
  -30.4134  -12.2841   19.4273 C   0  0  0  0  0  0
  -29.4920  -12.4986   18.2095 C   0  0  0  0  0  0
  -28.0126  -12.3674   18.6197 C   0  0  0  0  0  0
  -27.6610  -13.2089   19.8762 C   0  0  2  0  0  0
  -28.7010  -12.9920   20.9993 C   0  0  0  0  0  0
  -25.2578  -13.8172   20.5680 C   0  0  0  0  0  0
  -24.1831  -13.0444   20.9172 C   0  0  0  0  0  0
  -24.6387  -11.6912   20.8735 C   0  0  0  0  0  0
  -23.9059  -10.4296   21.0404 C   0  0  0  0  0  0
  -24.3613   -9.4210   21.9181 C   0  0  0  0  0  0
  -23.6291   -8.2244   22.0752 C   0  0  0  0  0  0
  -22.4273   -8.0280   21.3544 C   0  0  0  0  0  0
  -21.9908   -9.0252   20.4644 C   0  0  0  0  0  0
  -22.7232  -10.2133   20.3053 C   0  0  0  0  0  0
  -21.6853   -6.0736   22.5280 C   0  0  0  0  0  0
  -21.4013   -6.5640   23.8211 C   0  0  0  0  0  0
  -21.3660   -5.6793   24.9175 C   0  0  0  0  0  0
  -21.6044   -4.3055   24.7225 C   0  0  0  0  0  0
  -21.8820   -3.8147   23.4345 C   0  0  0  0  0  0
  -21.9191   -4.6965   22.3402 C   0  0  0  0  0  0
  -22.7852  -13.5236   21.1839 C   0  0  0  0  0  0
  -22.1660   -4.2149   21.0979 F   0  0  0  0  0  0
  -21.5629   -3.4539   25.7739 F   0  0  0  0  0  0
  -30.0366  -13.2748   20.4479 N   0  0  0  0  0  0
  -26.3018  -12.9345   20.3376 N   0  0  0  0  0  0
  -25.9315  -11.6502   20.5773 N   0  0  0  0  0  0
  -22.0498  -12.8226   22.0401 N   0  0  0  0  0  0
  -25.4308  -15.1889   20.4095 N   0  0  0  0  0  0
  -31.8566  -14.5863   20.1063 O   0  0  0  0  0  0
  -21.6637   -6.8880   21.4240 O   0  0  0  0  0  0
  -22.3531  -14.5543   20.6696 O   0  0  0  0  0  0
  -24.6109  -31.8709   23.2120 C   0  0  0  0  0  0
  -25.9014  -32.4836   23.8411 C   0  0  1  0  0  0
  -27.2367  -27.4607   20.0990 C   0  0  0  0  0  0
  -25.5886  -33.8638   24.2344 N   0  0  0  0  0  0
  -23.3983  -30.4923   21.5525 C   0  0  2  0  0  0
  -24.8478  -28.9614   20.1151 C   0  0  0  0  0  0
  -22.7392  -29.4663   22.5017 C   0  0  0  0  0  0
  -18.0260  -28.1373   22.8499 C   0  0  0  0  0  0
  -24.1489  -36.7325   23.2637 C   0  0  0  0  0  0
  -25.9235  -30.8429   21.3632 C   0  0  0  0  0  0
  -26.0028  -29.4768   20.7179 C   0  0  0  0  0  0
  -27.2004  -28.7303   20.7182 C   0  0  0  0  0  0
  -26.0750  -26.9589   19.4815 C   0  0  0  0  0  0
  -24.8763  -27.6982   19.4965 C   0  0  0  0  0  0
  -23.6060  -29.8228   20.1670 C   0  0  0  0  0  0
  -25.4106  -36.3123   24.0342 C   0  0  1  0  0  0
  -20.5849  -28.3654   23.1337 C   0  0  2  0  0  0
  -20.6756  -26.9397   22.5426 C   0  0  0  0  0  0
  -19.5739  -26.6386   21.5218 C   0  0  0  0  0  0
  -18.1910  -26.7924   22.1623 C   0  0  0  0  0  0
  -19.1510  -28.8829   23.2917 C   0  0  0  0  0  0
  -18.9440  -30.1438   23.8927 C   0  0  0  0  0  0
  -17.6445  -30.6588   24.0560 C   0  0  0  0  0  0
  -25.9033  -34.9486   23.5141 C   0  0  0  0  0  0
  -16.5336  -29.9090   23.6323 C   0  0  0  0  0  0
  -16.7251  -28.6502   23.0354 C   0  0  0  0  0  0
  -26.4457  -31.6598   25.0719 C   0  0  0  0  0  0
  -25.3727  -31.3673   26.1464 C   0  0  0  0  0  0
  -27.0284  -30.3051   24.6060 C   0  0  0  0  0  0
  -27.6054  -32.4302   25.7466 C   0  0  0  0  0  0
  -27.5585  -37.1811   24.8466 C   0  0  0  0  0  0
  -21.4122  -29.3026   22.3751 N   0  0  0  0  0  0
  -26.4299  -37.3799   23.9408 N   0  0  0  0  0  0
  -24.6621  -31.0822   22.1015 N   0  0  0  0  0  0
  -23.4175  -28.8212   23.3053 O   0  0  0  0  0  0
  -28.3678  -26.6825   20.0744 O   0  0  0  0  0  0
  -26.5595  -34.8928   22.4701 O   0  0  0  0  0  0
  -23.5309  -32.1462   23.7524 O   0  0  0  0  0  0
  -31.2616  -18.8279   19.8268 C   0  0  0  0  0  0
  -30.4111  -19.6884   20.5411 C   0  0  0  0  0  0
  -31.1639  -17.4355   19.9930 C   0  0  0  0  0  0
  -29.4541  -19.1615   21.4361 C   0  0  0  0  0  0
  -30.2161  -16.8787   20.8897 C   0  0  0  0  0  0
  -29.3669  -17.7562   21.6041 C   0  0  0  0  0  0
  -28.5779  -23.8488   21.5013 C   0  0  0  0  0  0
  -29.1064  -22.5218   22.1193 C   0  0  0  0  0  0
  -28.5297  -20.0786   22.2396 C   0  0  0  0  0  0
  -29.5745  -25.0174   21.4184 C   0  0  0  0  0  0
  -28.9404  -26.4234   21.3558 C   0  0  0  0  0  0
  -30.0274  -15.4726   21.0868 N   0  0  0  0  0  0
  -28.3855  -21.4531   21.7442 N   0  0  0  0  0  0
  -27.4183  -23.9491   21.0807 O   0  0  0  0  0  0
  -30.0785  -22.4683   22.8788 O   0  0  0  0  0  0
  -28.4502  -17.2331   22.4554 F   0  0  0  0  0  0
  -31.4602  -12.3619   19.1275 H   0  0  0  0  0  0
  -30.2950  -11.2751   19.8256 H   0  0  0  0  0  0
  -29.7270  -11.7763   17.4268 H   0  0  0  0  0  0
  -29.6698  -13.4853   17.7794 H   0  0  0  0  0  0
  -27.8174  -11.3122   18.8156 H   0  0  0  0  0  0
  -27.3644  -12.6453   17.7875 H   0  0  0  0  0  0
  -27.7053  -14.2565   19.5773 H   0  0  0  0  0  0
  -28.6656  -11.9609   21.3533 H   0  0  0  0  0  0
  -28.4681  -13.6062   21.8702 H   0  0  0  0  0  0
  -25.2759   -9.5685   22.4753 H   0  0  0  0  0  0
  -24.0002   -7.4634   22.7470 H   0  0  0  0  0  0
  -21.0840   -8.8767   19.8949 H   0  0  0  0  0  0
  -22.3691  -10.9670   19.6158 H   0  0  0  0  0  0
  -21.2006   -7.6148   23.9716 H   0  0  0  0  0  0
  -21.1483   -6.0523   25.9077 H   0  0  0  0  0  0
  -22.0600   -2.7610   23.2846 H   0  0  0  0  0  0
  -22.4113  -11.9882   22.4782 H   0  0  0  0  0  0
  -21.1115  -13.1247   22.2612 H   0  0  0  0  0  0
  -24.6708  -15.8500   20.5277 H   0  0  0  0  0  0
  -26.2945  -15.6285   20.1170 H   0  0  0  0  0  0
  -26.7087  -32.5569   23.1184 H   0  0  0  0  0  0
  -25.0027  -33.9813   25.0483 H   0  0  0  0  0  0
  -22.6859  -31.3081   21.4139 H   0  0  0  0  0  0
  -23.3744  -35.9664   23.3312 H   0  0  0  0  0  0
  -24.3590  -36.8928   22.2051 H   0  0  0  0  0  0
  -23.7249  -37.6537   23.6642 H   0  0  0  0  0  0
  -26.0298  -31.6047   20.5897 H   0  0  0  0  0  0
  -26.8143  -30.9029   21.9763 H   0  0  0  0  0  0
  -28.0905  -29.1271   21.1863 H   0  0  0  0  0  0
  -26.0974  -25.9872   19.0079 H   0  0  0  0  0  0
  -23.9880  -27.2943   19.0299 H   0  0  0  0  0  0
  -23.7060  -30.5969   19.4054 H   0  0  0  0  0  0
  -22.7323  -29.2370   19.8761 H   0  0  0  0  0  0
  -25.1279  -36.1993   25.0835 H   0  0  0  0  0  0
  -20.9935  -28.3213   24.1460 H   0  0  0  0  0  0
  -20.5667  -26.2259   23.3605 H   0  0  0  0  0  0
  -21.6629  -26.7455   22.1214 H   0  0  0  0  0  0
  -19.6907  -25.6302   21.1235 H   0  0  0  0  0  0
  -19.6681  -27.3207   20.6758 H   0  0  0  0  0  0
  -17.4185  -26.6680   21.4016 H   0  0  0  0  0  0
  -18.0305  -26.0058   22.9011 H   0  0  0  0  0  0
  -19.7917  -30.7237   24.2322 H   0  0  0  0  0  0
  -17.5002  -31.6272   24.5151 H   0  0  0  0  0  0
  -15.5338  -30.2999   23.7639 H   0  0  0  0  0  0
  -15.8649  -28.0827   22.7070 H   0  0  0  0  0  0
  -24.5918  -30.7005   25.7787 H   0  0  0  0  0  0
  -24.8883  -32.2806   26.4929 H   0  0  0  0  0  0
  -25.8086  -30.8830   27.0210 H   0  0  0  0  0  0
  -26.2821  -29.6811   24.1127 H   0  0  0  0  0  0
  -27.4093  -29.7279   25.4493 H   0  0  0  0  0  0
  -27.8634  -30.4394   23.9179 H   0  0  0  0  0  0
  -27.2710  -33.3600   26.2079 H   0  0  0  0  0  0
  -28.3835  -32.6863   25.0263 H   0  0  0  0  0  0
  -28.0747  -31.8391   26.5339 H   0  0  0  0  0  0
  -28.2605  -38.0105   24.7517 H   0  0  0  0  0  0
  -28.1082  -36.2640   24.6290 H   0  0  0  0  0  0
  -27.2308  -37.1464   25.8871 H   0  0  0  0  0  0
  -20.9283  -29.8744   21.6972 H   0  0  0  0  0  0
  -26.0195  -38.2883   24.1392 H   0  0  0  0  0  0
  -31.9918  -19.2374   19.1422 H   0  0  0  0  0  0
  -30.5102  -20.7532   20.3922 H   0  0  0  0  0  0
  -31.8293  -16.8260   19.4025 H   0  0  0  0  0  0
  -28.8727  -20.0871   23.2755 H   0  0  0  0  0  0
  -27.5351  -19.6313   22.2603 H   0  0  0  0  0  0
  -30.2313  -24.8584   20.5638 H   0  0  0  0  0  0
  -30.2073  -24.9709   22.3045 H   0  0  0  0  0  0
  -29.7076  -27.1749   21.5439 H   0  0  0  0  0  0
  -28.2060  -26.5252   22.1584 H   0  0  0  0  0  0
  -29.1694  -15.2253   21.5568 H   0  0  0  0  0  0
  -27.6031  -21.6543   21.1337 H   0  0  0  0  0  0
  1 25  1  0  0  0
  1 30  2  0  0  0
  1 82  1  0  0  0
  2  3  1  0  0  0
  2 25  1  0  0  0
  2 87  1  0  0  0
  2 88  1  0  0  0
  3  4  1  0  0  0
  3 89  1  0  0  0
  3 90  1  0  0  0
  4  5  1  0  0  0
  4 91  1  0  0  0
  4 92  1  0  0  0
  5  6  1  0  0  0
  5 26  1  0  0  0
  5 93  1  0  0  0
  6 25  1  0  0  0
  6 94  1  0  0  0
  6 95  1  0  0  0
  7  8  2  0  0  0
  7 26  1  0  0  0
  7 29  1  0  0  0
  8  9  1  0  0  0
  8 22  1  0  0  0
  9 10  1  0  0  0
  9 27  2  0  0  0
 10 11  2  0  0  0
 10 15  1  0  0  0
 11 12  1  0  0  0
 11 96  1  0  0  0
 12 13  2  0  0  0
 12 97  1  0  0  0
 13 14  1  0  0  0
 13 31  1  0  0  0
 14 15  2  0  0  0
 14 98  1  0  0  0
 15 99  1  0  0  0
 16 17  2  0  0  0
 16 21  1  0  0  0
 16 31  1  0  0  0
 17 18  1  0  0  0
 17100  1  0  0  0
 18 19  2  0  0  0
 18101  1  0  0  0
 19 20  1  0  0  0
 19 24  1  0  0  0
 20 21  2  0  0  0
 20102  1  0  0  0
 21 23  1  0  0  0
 22 28  1  0  0  0
 22 32  2  0  0  0
 26 27  1  0  0  0
 28103  1  0  0  0
 28104  1  0  0  0
 29105  1  0  0  0
 29106  1  0  0  0
 33 34  1  0  0  0
 33 66  1  0  0  0
 33 70  2  0  0  0
 34 36  1  0  0  0
 34 59  1  0  0  0
 34107  1  0  0  0
 35 44  2  0  0  0
 35 45  1  0  0  0
 35 68  1  0  0  0
 36 56  1  0  0  0
 36108  1  0  0  0
 37 39  1  0  0  0
 37 47  1  0  0  0
 37 66  1  0  0  0
 37109  1  0  0  0
 38 43  2  0  0  0
 38 46  1  0  0  0
 38 47  1  0  0  0
 39 64  1  0  0  0
 39 67  2  0  0  0
 40 52  1  0  0  0
 40 53  2  0  0  0
 40 58  1  0  0  0
 41110  1  0  0  0
 41111  1  0  0  0
 41112  1  0  0  0
 41 48  1  0  0  0
 42 43  1  0  0  0
 42 66  1  0  0  0
 42113  1  0  0  0
 42114  1  0  0  0
 43 44  1  0  0  0
 44115  1  0  0  0
 45 46  2  0  0  0
 45116  1  0  0  0
 46117  1  0  0  0
 47118  1  0  0  0
 47119  1  0  0  0
 48 56  1  0  0  0
 48 65  1  0  0  0
 48120  1  0  0  0
 49 50  1  0  0  0
 49 53  1  0  0  0
 49 64  1  0  0  0
 49121  1  0  0  0
 50 51  1  0  0  0
 50122  1  0  0  0
 50123  1  0  0  0
 51 52  1  0  0  0
 51124  1  0  0  0
 51125  1  0  0  0
 52126  1  0  0  0
 52127  1  0  0  0
 53 54  1  0  0  0
 54 55  2  0  0  0
 54128  1  0  0  0
 55 57  1  0  0  0
 55129  1  0  0  0
 56 69  2  0  0  0
 57 58  2  0  0  0
 57130  1  0  0  0
 58131  1  0  0  0
 59 60  1  0  0  0
 59 61  1  0  0  0
 59 62  1  0  0  0
 60132  1  0  0  0
 60133  1  0  0  0
 60134  1  0  0  0
 61135  1  0  0  0
 61136  1  0  0  0
 61137  1  0  0  0
 62138  1  0  0  0
 62139  1  0  0  0
 62140  1  0  0  0
 63 65  1  0  0  0
 63141  1  0  0  0
 63142  1  0  0  0
 63143  1  0  0  0
 64144  1  0  0  0
 65145  1  0  0  0
 68 81  1  0  0  0
 71 72  2  0  0  0
 71 73  1  0  0  0
 71146  1  0  0  0
 72 74  1  0  0  0
 72147  1  0  0  0
 73 75  2  0  0  0
 73148  1  0  0  0
 74 76  2  0  0  0
 74 79  1  0  0  0
 75 76  1  0  0  0
 75 82  1  0  0  0
 76 86  1  0  0  0
 77 78  1  0  0  0
 77 80  1  0  0  0
 77 84  2  0  0  0
 78 83  1  0  0  0
 78 85  2  0  0  0
 79 83  1  0  0  0
 79149  1  0  0  0
 79150  1  0  0  0
 80 81  1  0  0  0
 80151  1  0  0  0
 80152  1  0  0  0
 81153  1  0  0  0
 81154  1  0  0  0
 82155  1  0  0  0
 83156  1  0  0  0
M  ISO  4   1 100  68 101  81 101  82 100
M  END
> <chiral flag>
0

> <version>
0

> <s_m_source_file>
/data/baiqing/PycharmProjects/Reinvent-master-3.2/result/LINK_invent/BTK/process_docking_weight1_custom_product_contain_oxygen_bond_distance_aromatic_linkinvent_7_9_3/rearranged_h_0171.sdf

> <i_m_source_file_index>
26

> <r_mmod_Potential_Energy-OPLS-2005>
-145.054443359375

> <r_mmod_Stretch_Energy-OPLS-2005>
35.6173629760742

> <r_mmod_Bend_Energy-OPLS-2005>
97.6066665649414

> <r_mmod_Torsional_Energy-OPLS-2005>
214.445999145508

> <r_mmod_Improper_Torsional_Energy-OPLS-2005>
3.26148772239685

> <r_mmod_Van_der_Waal_Energy-OPLS-2005>
158.810943603516

> <r_mmod_Electrostatic_Energy-OPLS-2005>
-437.012145996094

> <r_mmod_Solvation_Energy-OPLS-2005>
-229.154403686523

> <b_mmod_Minimization_Converged-OPLS-2005>
0

> <r_mmod_RMS_Derivative-OPLS-2005>
0.766432642936707

$$$$
26
                    3D
 Structure written by MMmdl.
158166  0  0  1  0            999 V2000
  -30.7235  -14.4886   20.5613 C   0  0  0  0  0  0
  -30.4150  -12.3164   19.4305 C   0  0  0  0  0  0
  -29.4932  -12.5035   18.2091 C   0  0  0  0  0  0
  -28.0155  -12.3633   18.6222 C   0  0  0  0  0  0
  -27.6584  -13.2150   19.8707 C   0  0  2  0  0  0
  -28.7020  -13.0295   20.9960 C   0  0  0  0  0  0
  -25.2575  -13.8180   20.5693 C   0  0  0  0  0  0
  -24.1833  -13.0444   20.9175 C   0  0  0  0  0  0
  -24.6399  -11.6915   20.8733 C   0  0  0  0  0  0
  -23.9066  -10.4295   21.0401 C   0  0  0  0  0  0
  -24.3617   -9.4212   21.9184 C   0  0  0  0  0  0
  -23.6293   -8.2247   22.0755 C   0  0  0  0  0  0
  -22.4274   -8.0283   21.3547 C   0  0  0  0  0  0
  -21.9912   -9.0254   20.4645 C   0  0  0  0  0  0
  -22.7239  -10.2134   20.3053 C   0  0  0  0  0  0
  -21.6855   -6.0738   22.5281 C   0  0  0  0  0  0
  -21.4012   -6.5641   23.8213 C   0  0  0  0  0  0
  -21.3658   -5.6793   24.9176 C   0  0  0  0  0  0
  -21.6043   -4.3055   24.7224 C   0  0  0  0  0  0
  -21.8821   -3.8149   23.4344 C   0  0  0  0  0  0
  -21.9191   -4.6966   22.3401 C   0  0  0  0  0  0
  -22.7854  -13.5239   21.1836 C   0  0  0  0  0  0
  -22.1664   -4.2152   21.0980 F   0  0  0  0  0  0
  -21.5626   -3.4539   25.7736 F   0  0  0  0  0  0
  -30.0304  -13.3222   20.4356 N   0  0  0  0  0  0
  -26.3014  -12.9367   20.3359 N   0  0  0  0  0  0
  -25.9331  -11.6520   20.5769 N   0  0  0  0  0  0
  -22.0488  -12.8229   22.0385 N   0  0  0  0  0  0
  -25.4284  -15.1903   20.4126 N   0  0  0  0  0  0
  -31.8524  -14.6243   20.0843 O   0  0  0  0  0  0
  -21.6640   -6.8879   21.4243 O   0  0  0  0  0  0
  -22.3540  -14.5545   20.6684 O   0  0  0  0  0  0
  -24.6161  -31.8670   23.2089 C   0  0  0  0  0  0
  -25.9047  -32.4818   23.8393 C   0  0  1  0  0  0
  -27.2323  -27.4260   20.1000 C   0  0  0  0  0  0
  -25.5897  -33.8615   24.2327 N   0  0  0  0  0  0
  -23.4054  -30.4903   21.5492 C   0  0  2  0  0  0
  -24.8544  -28.9578   20.1105 C   0  0  0  0  0  0
  -22.7423  -29.4649   22.4974 C   0  0  0  0  0  0
  -18.0271  -28.1382   22.8492 C   0  0  0  0  0  0
  -24.1484  -36.7308   23.2639 C   0  0  0  0  0  0
  -25.9356  -30.8316   21.3620 C   0  0  0  0  0  0
  -26.0160  -29.4661   20.7075 C   0  0  0  0  0  0
  -27.2122  -28.7085   20.6983 C   0  0  0  0  0  0
  -26.0591  -26.9389   19.4875 C   0  0  0  0  0  0
  -24.8716  -27.6943   19.4944 C   0  0  0  0  0  0
  -23.6147  -29.8233   20.1635 C   0  0  0  0  0  0
  -25.4106  -36.3106   24.0340 C   0  0  1  0  0  0
  -20.5867  -28.3666   23.1313 C   0  0  2  0  0  0
  -20.6762  -26.9401   22.5416 C   0  0  0  0  0  0
  -19.5740  -26.6392   21.5212 C   0  0  0  0  0  0
  -18.1918  -26.7929   22.1623 C   0  0  0  0  0  0
  -19.1523  -28.8841   23.2899 C   0  0  0  0  0  0
  -18.9450  -30.1447   23.8907 C   0  0  0  0  0  0
  -17.6453  -30.6585   24.0568 C   0  0  0  0  0  0
  -25.9035  -34.9472   23.5131 C   0  0  0  0  0  0
  -16.5343  -29.9086   23.6331 C   0  0  0  0  0  0
  -16.7259  -28.6506   23.0349 C   0  0  0  0  0  0
  -26.4475  -31.6590   25.0715 C   0  0  0  0  0  0
  -25.3744  -31.3683   26.1461 C   0  0  0  0  0  0
  -27.0309  -30.3039   24.6074 C   0  0  0  0  0  0
  -27.6048  -32.4307   25.7483 C   0  0  0  0  0  0
  -27.5578  -37.1811   24.8467 C   0  0  0  0  0  0
  -21.4147  -29.3032   22.3719 N   0  0  0  0  0  0
  -26.4290  -37.3790   23.9409 N   0  0  0  0  0  0
  -24.6710  -31.0767   22.0988 N   0  0  0  0  0  0
  -23.4193  -28.8187   23.3014 O   0  0  0  0  0  0
  -28.3468  -26.6164   20.1416 O   0  0  0  0  0  0
  -26.5591  -34.8922   22.4690 O   0  0  0  0  0  0
  -23.5351  -32.1418   23.7484 O   0  0  0  0  0  0
  -32.2593  -18.5856   21.5087 C   0  0  0  0  0  0
  -31.2994  -19.6140   21.5033 C   0  0  0  0  0  0
  -31.8653  -17.2426   21.3726 C   0  0  0  0  0  0
  -29.9256  -19.3173   21.3530 C   0  0  0  0  0  0
  -30.5004  -16.9023   21.2046 C   0  0  0  0  0  0
  -29.5378  -17.9492   21.2024 C   0  0  0  0  0  0
  -28.9465  -20.4302   21.4689 C   0  0  0  0  0  0
  -28.8892  -24.2119   20.7143 C   0  0  0  0  0  0
  -28.5789  -23.2319   23.0472 C   0  0  0  0  0  0
  -28.1692  -25.5354   21.0847 C   0  0  0  0  0  0
  -28.4713  -22.9487   21.5275 C   0  0  2  0  0  0
  -30.0550  -15.5366   21.0928 N   0  0  0  0  0  0
  -29.2483  -21.7210   21.1682 N   0  0  0  0  0  0
  -27.7341  -20.1925   21.9742 N   0  3  0  0  0  0
  -29.7560  -24.1740   19.8348 O   0  0  0  0  0  0
  -28.2274  -17.6132   21.0887 F   0  0  0  0  0  0
  -31.4611  -12.3956   19.1295 H   0  0  0  0  0  0
  -30.3032  -11.3127   19.8443 H   0  0  0  0  0  0
  -29.7368  -11.7730   17.4365 H   0  0  0  0  0  0
  -29.6611  -13.4860   17.7646 H   0  0  0  0  0  0
  -27.8299  -11.3086   18.8286 H   0  0  0  0  0  0
  -27.3638  -12.6271   17.7885 H   0  0  0  0  0  0
  -27.6923  -14.2584   19.5560 H   0  0  0  0  0  0
  -28.6805  -12.0045   21.3703 H   0  0  0  0  0  0
  -28.4655  -13.6602   21.8544 H   0  0  0  0  0  0
  -25.2764   -9.5687   22.4757 H   0  0  0  0  0  0
  -24.0001   -7.4640   22.7479 H   0  0  0  0  0  0
  -21.0842   -8.8767   19.8954 H   0  0  0  0  0  0
  -22.3696  -10.9667   19.6154 H   0  0  0  0  0  0
  -21.2007   -7.6151   23.9716 H   0  0  0  0  0  0
  -21.1478   -6.0525   25.9078 H   0  0  0  0  0  0
  -22.0600   -2.7613   23.2843 H   0  0  0  0  0  0
  -22.4093  -11.9882   22.4765 H   0  0  0  0  0  0
  -21.1108  -13.1262   22.2586 H   0  0  0  0  0  0
  -24.6618  -15.8437   20.5291 H   0  0  0  0  0  0
  -26.2868  -15.6385   20.1182 H   0  0  0  0  0  0
  -26.7122  -32.5531   23.1165 H   0  0  0  0  0  0
  -25.0063  -33.9778   25.0481 H   0  0  0  0  0  0
  -22.6940  -31.3072   21.4106 H   0  0  0  0  0  0
  -23.3744  -35.9643   23.3311 H   0  0  0  0  0  0
  -24.3581  -36.8906   22.2051 H   0  0  0  0  0  0
  -23.7237  -37.6518   23.6644 H   0  0  0  0  0  0
  -26.0476  -31.5968   20.5930 H   0  0  0  0  0  0
  -26.8243  -30.8878   21.9788 H   0  0  0  0  0  0
  -28.1064  -29.0904   21.1715 H   0  0  0  0  0  0
  -26.0600  -25.9649   19.0191 H   0  0  0  0  0  0
  -23.9801  -27.2988   19.0271 H   0  0  0  0  0  0
  -23.7210  -30.5985   19.4038 H   0  0  0  0  0  0
  -22.7392  -29.2424   19.8684 H   0  0  0  0  0  0
  -25.1287  -36.1972   25.0833 H   0  0  0  0  0  0
  -20.9968  -28.3228   24.1431 H   0  0  0  0  0  0
  -20.5673  -26.2267   23.3599 H   0  0  0  0  0  0
  -21.6631  -26.7446   22.1205 H   0  0  0  0  0  0
  -19.6897  -25.6309   21.1222 H   0  0  0  0  0  0
  -19.6680  -27.3220   20.6755 H   0  0  0  0  0  0
  -17.4195  -26.6682   21.4017 H   0  0  0  0  0  0
  -18.0313  -26.0069   22.9017 H   0  0  0  0  0  0
  -19.7926  -30.7261   24.2281 H   0  0  0  0  0  0
  -17.5009  -31.6264   24.5170 H   0  0  0  0  0  0
  -15.5345  -30.2994   23.7650 H   0  0  0  0  0  0
  -15.8657  -28.0831   22.7056 H   0  0  0  0  0  0
  -24.5922  -30.7024   25.7797 H   0  0  0  0  0  0
  -24.8927  -32.2829   26.4926 H   0  0  0  0  0  0
  -25.8104  -30.8843   27.0209 H   0  0  0  0  0  0
  -26.2849  -29.6797   24.1141 H   0  0  0  0  0  0
  -27.4107  -29.7268   25.4514 H   0  0  0  0  0  0
  -27.8668  -30.4370   23.9204 H   0  0  0  0  0  0
  -27.2676  -33.3603   26.2080 H   0  0  0  0  0  0
  -28.3856  -32.6872   25.0310 H   0  0  0  0  0  0
  -28.0723  -31.8417   26.5383 H   0  0  0  0  0  0
  -28.2605  -38.0102   24.7514 H   0  0  0  0  0  0
  -28.1066  -36.2632   24.6299 H   0  0  0  0  0  0
  -27.2295  -37.1470   25.8870 H   0  0  0  0  0  0
  -20.9306  -29.8756   21.6944 H   0  0  0  0  0  0
  -26.0177  -38.2867   24.1407 H   0  0  0  0  0  0
  -33.3058  -18.8244   21.6420 H   0  0  0  0  0  0
  -31.6352  -20.6308   21.6519 H   0  0  0  0  0  0
  -32.6349  -16.4870   21.4198 H   0  0  0  0  0  0
  -27.6226  -23.5765   23.4419 H   0  0  0  0  0  0
  -29.3226  -23.9959   23.2799 H   0  0  0  0  0  0
  -28.8574  -22.3483   23.6220 H   0  0  0  0  0  0
  -28.5420  -25.8720   22.0521 H   0  0  0  0  0  0
  -27.1134  -25.3009   21.2275 H   0  0  0  0  0  0
  -27.4264  -22.7441   21.2889 H   0  0  0  0  0  0
  -29.0884  -15.3699   21.3254 H   0  0  0  0  0  0
  -30.0967  -21.8912   20.6387 H   0  0  0  0  0  0
  -27.4532  -19.2328   22.1206 H   0  0  0  0  0  0
  -27.0656  -20.9301   22.1128 H   0  0  0  0  0  0
  1 25  1  0  0  0
  1 30  2  0  0  0
  1 82  1  0  0  0
  2  3  1  0  0  0
  2 25  1  0  0  0
  2 87  1  0  0  0
  2 88  1  0  0  0
  3  4  1  0  0  0
  3 89  1  0  0  0
  3 90  1  0  0  0
  4  5  1  0  0  0
  4 91  1  0  0  0
  4 92  1  0  0  0
  5  6  1  0  0  0
  5 26  1  0  0  0
  5 93  1  0  0  0
  6 25  1  0  0  0
  6 94  1  0  0  0
  6 95  1  0  0  0
  7  8  2  0  0  0
  7 26  1  0  0  0
  7 29  1  0  0  0
  8  9  1  0  0  0
  8 22  1  0  0  0
  9 10  1  0  0  0
  9 27  2  0  0  0
 10 11  2  0  0  0
 10 15  1  0  0  0
 11 12  1  0  0  0
 11 96  1  0  0  0
 12 13  2  0  0  0
 12 97  1  0  0  0
 13 14  1  0  0  0
 13 31  1  0  0  0
 14 15  2  0  0  0
 14 98  1  0  0  0
 15 99  1  0  0  0
 16 17  2  0  0  0
 16 21  1  0  0  0
 16 31  1  0  0  0
 17 18  1  0  0  0
 17100  1  0  0  0
 18 19  2  0  0  0
 18101  1  0  0  0
 19 20  1  0  0  0
 19 24  1  0  0  0
 20 21  2  0  0  0
 20102  1  0  0  0
 21 23  1  0  0  0
 22 28  1  0  0  0
 22 32  2  0  0  0
 26 27  1  0  0  0
 28103  1  0  0  0
 28104  1  0  0  0
 29105  1  0  0  0
 29106  1  0  0  0
 33 34  1  0  0  0
 33 66  1  0  0  0
 33 70  2  0  0  0
 34 36  1  0  0  0
 34 59  1  0  0  0
 34107  1  0  0  0
 35 44  2  0  0  0
 35 45  1  0  0  0
 35 68  1  0  0  0
 36 56  1  0  0  0
 36108  1  0  0  0
 37 39  1  0  0  0
 37 47  1  0  0  0
 37 66  1  0  0  0
 37109  1  0  0  0
 38 43  2  0  0  0
 38 46  1  0  0  0
 38 47  1  0  0  0
 39 64  1  0  0  0
 39 67  2  0  0  0
 40 52  1  0  0  0
 40 53  2  0  0  0
 40 58  1  0  0  0
 41110  1  0  0  0
 41111  1  0  0  0
 41112  1  0  0  0
 41 48  1  0  0  0
 42 43  1  0  0  0
 42 66  1  0  0  0
 42113  1  0  0  0
 42114  1  0  0  0
 43 44  1  0  0  0
 44115  1  0  0  0
 45 46  2  0  0  0
 45116  1  0  0  0
 46117  1  0  0  0
 47118  1  0  0  0
 47119  1  0  0  0
 48 56  1  0  0  0
 48 65  1  0  0  0
 48120  1  0  0  0
 49 50  1  0  0  0
 49 53  1  0  0  0
 49 64  1  0  0  0
 49121  1  0  0  0
 50 51  1  0  0  0
 50122  1  0  0  0
 50123  1  0  0  0
 51 52  1  0  0  0
 51124  1  0  0  0
 51125  1  0  0  0
 52126  1  0  0  0
 52127  1  0  0  0
 53 54  1  0  0  0
 54 55  2  0  0  0
 54128  1  0  0  0
 55 57  1  0  0  0
 55129  1  0  0  0
 56 69  2  0  0  0
 57 58  2  0  0  0
 57130  1  0  0  0
 58131  1  0  0  0
 59 60  1  0  0  0
 59 61  1  0  0  0
 59 62  1  0  0  0
 60132  1  0  0  0
 60133  1  0  0  0
 60134  1  0  0  0
 61135  1  0  0  0
 61136  1  0  0  0
 61137  1  0  0  0
 62138  1  0  0  0
 62139  1  0  0  0
 62140  1  0  0  0
 63 65  1  0  0  0
 63141  1  0  0  0
 63142  1  0  0  0
 63143  1  0  0  0
 64144  1  0  0  0
 65145  1  0  0  0
 68 80  1  0  0  0
 71 72  2  0  0  0
 71 73  1  0  0  0
 71146  1  0  0  0
 72 74  1  0  0  0
 72147  1  0  0  0
 73 75  2  0  0  0
 73148  1  0  0  0
 74 76  2  0  0  0
 74 77  1  0  0  0
 75 76  1  0  0  0
 75 82  1  0  0  0
 76 86  1  0  0  0
 77 83  1  0  0  0
 77 84  2  0  0  0
 78 80  1  0  0  0
 78 81  1  0  0  0
 78 85  2  0  0  0
 79149  1  0  0  0
 79150  1  0  0  0
 79151  1  0  0  0
 79 81  1  0  0  0
 80152  1  0  0  0
 80153  1  0  0  0
 81 83  1  0  0  0
 81154  1  0  0  0
 82155  1  0  0  0
 83156  1  0  0  0
 84157  1  0  0  0
 84158  1  0  0  0
M  CHG  1  84   1
M  ISO  4   1 100  68 101  80 101  82 100
M  END
> <chiral flag>
0

> <version>
0

> <s_m_source_file>
/data/baiqing/PycharmProjects/Reinvent-master-3.2/result/LINK_invent/BTK/process_docking_weight1_custom_product_contain_oxygen_bond_distance_aromatic_linkinvent_7_9_3/rearranged_h_0171.sdf

> <i_m_source_file_index>
27

> <r_mmod_Potential_Energy-OPLS-2005>
-273.267578125

> <r_mmod_Stretch_Energy-OPLS-2005>
45.599536895752

> <r_mmod_Bend_Energy-OPLS-2005>
98.1434173583984

> <r_mmod_Torsional_Energy-OPLS-2005>
238.06852722168

> <r_mmod_Improper_Torsional_Energy-OPLS-2005>
4.58292198181152

> <r_mmod_Van_der_Waal_Energy-OPLS-2005>
163.323959350586

> <r_mmod_Electrostatic_Energy-OPLS-2005>
-402.760589599609

> <r_mmod_Solvation_Energy-OPLS-2005>
-437.443084716797

> <b_mmod_Minimization_Converged-OPLS-2005>
0

> <r_mmod_RMS_Derivative-OPLS-2005>
0.7584627866745

$$$$
27
                    3D
 Structure written by MMmdl.
155163  0  0  1  0            999 V2000
  -30.6191  -14.7614   20.4565 C   0  0  0  0  0  0
  -30.4261  -12.4642   19.4784 C   0  0  0  0  0  0
  -29.5063  -12.5044   18.2380 C   0  0  0  0  0  0
  -28.0342  -12.3249   18.6533 C   0  0  0  0  0  0
  -27.6369  -13.2336   19.8466 C   0  0  2  0  0  0
  -28.6803  -13.1886   20.9847 C   0  0  0  0  0  0
  -25.2492  -13.8205   20.5684 C   0  0  0  0  0  0
  -24.1794  -13.0445   20.9215 C   0  0  0  0  0  0
  -24.6390  -11.6922   20.8752 C   0  0  0  0  0  0
  -23.9074  -10.4292   21.0413 C   0  0  0  0  0  0
  -24.3628   -9.4204   21.9189 C   0  0  0  0  0  0
  -23.6298   -8.2244   22.0760 C   0  0  0  0  0  0
  -22.4282   -8.0282   21.3547 C   0  0  0  0  0  0
  -21.9916   -9.0257   20.4652 C   0  0  0  0  0  0
  -22.7248  -10.2133   20.3060 C   0  0  0  0  0  0
  -21.6854   -6.0738   22.5280 C   0  0  0  0  0  0
  -21.4016   -6.5644   23.8212 C   0  0  0  0  0  0
  -21.3656   -5.6796   24.9175 C   0  0  0  0  0  0
  -21.6044   -4.3058   24.7225 C   0  0  0  0  0  0
  -21.8818   -3.8149   23.4345 C   0  0  0  0  0  0
  -21.9196   -4.6967   22.3402 C   0  0  0  0  0  0
  -22.7816  -13.5220   21.1874 C   0  0  0  0  0  0
  -22.1662   -4.2152   21.0979 F   0  0  0  0  0  0
  -21.5628   -3.4543   25.7737 F   0  0  0  0  0  0
  -29.9807  -13.5382   20.4006 N   0  0  0  0  0  0
  -26.2911  -12.9413   20.3262 N   0  0  0  0  0  0
  -25.9317  -11.6553   20.5752 N   0  0  0  0  0  0
  -22.0471  -12.8200   22.0430 N   0  0  0  0  0  0
  -25.4174  -15.1928   20.4079 N   0  0  0  0  0  0
  -31.8149  -14.8045   20.1491 O   0  0  0  0  0  0
  -21.6643   -6.8881   21.4243 O   0  0  0  0  0  0
  -22.3496  -14.5526   20.6725 O   0  0  0  0  0  0
  -24.6297  -31.8541   23.1963 C   0  0  0  0  0  0
  -25.9129  -32.4751   23.8303 C   0  0  1  0  0  0
  -27.2238  -27.2619   20.1227 C   0  0  0  0  0  0
  -25.5926  -33.8550   24.2233 N   0  0  0  0  0  0
  -23.4268  -30.4750   21.5390 C   0  0  2  0  0  0
  -24.8740  -28.9204   20.1056 C   0  0  0  0  0  0
  -22.7496  -29.4594   22.4905 C   0  0  0  0  0  0
  -18.0291  -28.1389   22.8479 C   0  0  0  0  0  0
  -24.1495  -36.7271   23.2640 C   0  0  0  0  0  0
  -25.9727  -30.7666   21.3765 C   0  0  0  0  0  0
  -26.0428  -29.3894   20.7168 C   0  0  0  0  0  0
  -27.2151  -28.5700   20.7165 C   0  0  0  0  0  0
  -26.0292  -26.8546   19.4886 C   0  0  0  0  0  0
  -24.8729  -27.6619   19.4823 C   0  0  0  0  0  0
  -23.6439  -29.8065   20.1550 C   0  0  0  0  0  0
  -25.4126  -36.3060   24.0323 C   0  0  1  0  0  0
  -20.5895  -28.3692   23.1276 C   0  0  2  0  0  0
  -20.6779  -26.9410   22.5417 C   0  0  0  0  0  0
  -19.5762  -26.6381   21.5217 C   0  0  0  0  0  0
  -18.1934  -26.7932   22.1616 C   0  0  0  0  0  0
  -19.1544  -28.8859   23.2868 C   0  0  0  0  0  0
  -18.9470  -30.1457   23.8892 C   0  0  0  0  0  0
  -17.6472  -30.6588   24.0563 C   0  0  0  0  0  0
  -25.9068  -34.9434   23.5086 C   0  0  0  0  0  0
  -16.5354  -29.9088   23.6332 C   0  0  0  0  0  0
  -16.7281  -28.6504   23.0354 C   0  0  0  0  0  0
  -26.4508  -31.6579   25.0696 C   0  0  0  0  0  0
  -25.3728  -31.3734   26.1415 C   0  0  0  0  0  0
  -27.0365  -30.2995   24.6191 C   0  0  0  0  0  0
  -27.6058  -32.4327   25.7468 C   0  0  0  0  0  0
  -27.5582  -37.1788   24.8465 C   0  0  0  0  0  0
  -21.4206  -29.3027   22.3656 N   0  0  0  0  0  0
  -26.4294  -37.3765   23.9407 N   0  0  0  0  0  0
  -24.6953  -31.0502   22.0938 N   0  0  0  0  0  0
  -23.4199  -28.8144   23.3009 O   0  0  0  0  0  0
  -28.3399  -26.4000   20.2192 O   0  0  0  0  0  0
  -26.5640  -34.8911   22.4655 O   0  0  0  0  0  0
  -23.5451  -32.1365   23.7262 O   0  0  0  0  0  0
  -29.2179  -18.4432   20.5827 C   0  0  0  0  0  0
  -30.1934  -17.3655   20.5450 C   0  0  0  0  0  0
  -29.6222  -19.8255   20.4481 C   0  0  0  0  0  0
  -31.7772  -19.0636   20.2981 C   0  0  0  0  0  0
  -28.4047  -23.7086   20.4332 C   0  0  0  0  0  0
  -33.8130  -19.6267   21.6987 C   0  0  0  0  0  0
  -29.1441  -22.3694   19.9405 C   0  0  0  0  0  0
  -28.4433  -25.0535   19.5532 C   0  0  0  0  0  0
  -33.2607  -19.4180   20.2821 C   0  0  1  0  0  0
  -31.4724  -17.7692   20.4200 N   0  0  0  0  0  0
  -30.9236  -20.0864   20.3034 N   0  0  0  0  0  0
  -29.8545  -15.9153   20.6534 N   0  0  0  0  0  0
  -28.7722  -20.9948   20.4899 N   0  0  0  0  0  0
  -27.7793  -23.6876   21.4984 O   0  0  0  0  0  0
  -33.9815  -18.4679   19.6771 F   0  0  0  0  0  0
  -31.4670  -12.5803   19.1712 H   0  0  0  0  0  0
  -30.3694  -11.4919   19.9705 H   0  0  0  0  0  0
  -29.7915  -11.7259   17.5291 H   0  0  0  0  0  0
  -29.6287  -13.4545   17.7154 H   0  0  0  0  0  0
  -27.8973  -11.2780   18.9271 H   0  0  0  0  0  0
  -27.3746  -12.5037   17.8034 H   0  0  0  0  0  0
  -27.6248  -14.2502   19.4536 H   0  0  0  0  0  0
  -28.7179  -12.1988   21.4415 H   0  0  0  0  0  0
  -28.4099  -13.8827   21.7823 H   0  0  0  0  0  0
  -25.2774   -9.5682   22.4761 H   0  0  0  0  0  0
  -24.0010   -7.4634   22.7474 H   0  0  0  0  0  0
  -21.0851   -8.8776   19.8950 H   0  0  0  0  0  0
  -22.3712  -10.9676   19.6168 H   0  0  0  0  0  0
  -21.2009   -7.6152   23.9716 H   0  0  0  0  0  0
  -21.1477   -6.0527   25.9076 H   0  0  0  0  0  0
  -22.0600   -2.7613   23.2846 H   0  0  0  0  0  0
  -22.4091  -11.9854   22.4797 H   0  0  0  0  0  0
  -21.1091  -13.1216   22.2659 H   0  0  0  0  0  0
  -24.6432  -15.8404   20.5061 H   0  0  0  0  0  0
  -26.2496  -15.6288   20.0334 H   0  0  0  0  0  0
  -26.7182  -32.5399   23.1028 H   0  0  0  0  0  0
  -25.0077  -33.9685   25.0380 H   0  0  0  0  0  0
  -22.7227  -31.2966   21.3908 H   0  0  0  0  0  0
  -23.3765  -35.9594   23.3303 H   0  0  0  0  0  0
  -24.3579  -36.8906   22.2053 H   0  0  0  0  0  0
  -23.7244  -37.6468   23.6674 H   0  0  0  0  0  0
  -26.1154  -31.5290   20.6096 H   0  0  0  0  0  0
  -26.8494  -30.8125   22.0119 H   0  0  0  0  0  0
  -28.1099  -28.9219   21.2088 H   0  0  0  0  0  0
  -25.9449  -25.8848   19.0239 H   0  0  0  0  0  0
  -23.9743  -27.2955   19.0047 H   0  0  0  0  0  0
  -23.7653  -30.5823   19.3977 H   0  0  0  0  0  0
  -22.7627  -29.2370   19.8525 H   0  0  0  0  0  0
  -25.1310  -36.1894   25.0812 H   0  0  0  0  0  0
  -20.9986  -28.3274   24.1401 H   0  0  0  0  0  0
  -20.5687  -26.2297   23.3619 H   0  0  0  0  0  0
  -21.6643  -26.7441   22.1202 H   0  0  0  0  0  0
  -19.6924  -25.6297   21.1246 H   0  0  0  0  0  0
  -19.6706  -27.3193   20.6749 H   0  0  0  0  0  0
  -17.4206  -26.6687   21.4013 H   0  0  0  0  0  0
  -18.0318  -26.0084   22.9020 H   0  0  0  0  0  0
  -19.7946  -30.7271   24.2259 H   0  0  0  0  0  0
  -17.5026  -31.6271   24.5157 H   0  0  0  0  0  0
  -15.5356  -30.2987   23.7670 H   0  0  0  0  0  0
  -15.8677  -28.0824   22.7074 H   0  0  0  0  0  0
  -24.5903  -30.7088   25.7740 H   0  0  0  0  0  0
  -24.8914  -32.2905   26.4814 H   0  0  0  0  0  0
  -25.8034  -30.8922   27.0204 H   0  0  0  0  0  0
  -26.2947  -29.6728   24.1233 H   0  0  0  0  0  0
  -27.4077  -29.7276   25.4705 H   0  0  0  0  0  0
  -27.8810  -30.4278   23.9419 H   0  0  0  0  0  0
  -27.2668  -33.3641   26.2010 H   0  0  0  0  0  0
  -28.3883  -32.6871   25.0306 H   0  0  0  0  0  0
  -28.0710  -31.8474   26.5410 H   0  0  0  0  0  0
  -28.2593  -38.0091   24.7521 H   0  0  0  0  0  0
  -28.1089  -36.2623   24.6285 H   0  0  0  0  0  0
  -27.2297  -37.1425   25.8867 H   0  0  0  0  0  0
  -20.9390  -29.8742   21.6859 H   0  0  0  0  0  0
  -26.0174  -38.2836   24.1422 H   0  0  0  0  0  0
  -28.1708  -18.2078   20.7111 H   0  0  0  0  0  0
  -33.2987  -20.4497   22.1949 H   0  0  0  0  0  0
  -34.8772  -19.8594   21.6774 H   0  0  0  0  0  0
  -33.6754  -18.7322   22.3071 H   0  0  0  0  0  0
  -30.2081  -22.5321   20.1154 H   0  0  0  0  0  0
  -29.0340  -22.3261   18.8569 H   0  0  0  0  0  0
  -27.7257  -24.9542   18.7422 H   0  0  0  0  0  0
  -29.4134  -25.0492   19.0567 H   0  0  0  0  0  0
  -33.4031  -20.3222   19.6890 H   0  0  0  0  0  0
  -28.8864  -15.7262   20.8491 H   0  0  0  0  0  0
  -27.7764  -20.8279   20.5916 H   0  0  0  0  0  0
  1 25  1  0  0  0
  1 30  2  0  0  0
  1 82  1  0  0  0
  2  3  1  0  0  0
  2 25  1  0  0  0
  2 86  1  0  0  0
  2 87  1  0  0  0
  3  4  1  0  0  0
  3 88  1  0  0  0
  3 89  1  0  0  0
  4  5  1  0  0  0
  4 90  1  0  0  0
  4 91  1  0  0  0
  5  6  1  0  0  0
  5 26  1  0  0  0
  5 92  1  0  0  0
  6 25  1  0  0  0
  6 93  1  0  0  0
  6 94  1  0  0  0
  7  8  2  0  0  0
  7 26  1  0  0  0
  7 29  1  0  0  0
  8  9  1  0  0  0
  8 22  1  0  0  0
  9 10  1  0  0  0
  9 27  2  0  0  0
 10 11  2  0  0  0
 10 15  1  0  0  0
 11 12  1  0  0  0
 11 95  1  0  0  0
 12 13  2  0  0  0
 12 96  1  0  0  0
 13 14  1  0  0  0
 13 31  1  0  0  0
 14 15  2  0  0  0
 14 97  1  0  0  0
 15 98  1  0  0  0
 16 17  2  0  0  0
 16 21  1  0  0  0
 16 31  1  0  0  0
 17 18  1  0  0  0
 17 99  1  0  0  0
 18 19  2  0  0  0
 18100  1  0  0  0
 19 20  1  0  0  0
 19 24  1  0  0  0
 20 21  2  0  0  0
 20101  1  0  0  0
 21 23  1  0  0  0
 22 28  1  0  0  0
 22 32  2  0  0  0
 26 27  1  0  0  0
 28102  1  0  0  0
 28103  1  0  0  0
 29104  1  0  0  0
 29105  1  0  0  0
 33 34  1  0  0  0
 33 66  1  0  0  0
 33 70  2  0  0  0
 34 36  1  0  0  0
 34 59  1  0  0  0
 34106  1  0  0  0
 35 44  2  0  0  0
 35 45  1  0  0  0
 35 68  1  0  0  0
 36 56  1  0  0  0
 36107  1  0  0  0
 37 39  1  0  0  0
 37 47  1  0  0  0
 37 66  1  0  0  0
 37108  1  0  0  0
 38 43  2  0  0  0
 38 46  1  0  0  0
 38 47  1  0  0  0
 39 64  1  0  0  0
 39 67  2  0  0  0
 40 52  1  0  0  0
 40 53  2  0  0  0
 40 58  1  0  0  0
 41109  1  0  0  0
 41110  1  0  0  0
 41111  1  0  0  0
 41 48  1  0  0  0
 42 43  1  0  0  0
 42 66  1  0  0  0
 42112  1  0  0  0
 42113  1  0  0  0
 43 44  1  0  0  0
 44114  1  0  0  0
 45 46  2  0  0  0
 45115  1  0  0  0
 46116  1  0  0  0
 47117  1  0  0  0
 47118  1  0  0  0
 48 56  1  0  0  0
 48 65  1  0  0  0
 48119  1  0  0  0
 49 50  1  0  0  0
 49 53  1  0  0  0
 49 64  1  0  0  0
 49120  1  0  0  0
 50 51  1  0  0  0
 50121  1  0  0  0
 50122  1  0  0  0
 51 52  1  0  0  0
 51123  1  0  0  0
 51124  1  0  0  0
 52125  1  0  0  0
 52126  1  0  0  0
 53 54  1  0  0  0
 54 55  2  0  0  0
 54127  1  0  0  0
 55 57  1  0  0  0
 55128  1  0  0  0
 56 69  2  0  0  0
 57 58  2  0  0  0
 57129  1  0  0  0
 58130  1  0  0  0
 59 60  1  0  0  0
 59 61  1  0  0  0
 59 62  1  0  0  0
 60131  1  0  0  0
 60132  1  0  0  0
 60133  1  0  0  0
 61134  1  0  0  0
 61135  1  0  0  0
 61136  1  0  0  0
 62137  1  0  0  0
 62138  1  0  0  0
 62139  1  0  0  0
 63 65  1  0  0  0
 63140  1  0  0  0
 63141  1  0  0  0
 63142  1  0  0  0
 64143  1  0  0  0
 65144  1  0  0  0
 68 78  1  0  0  0
 71 72  2  0  0  0
 71 73  1  0  0  0
 71145  1  0  0  0
 72 80  1  0  0  0
 72 82  1  0  0  0
 73 81  2  0  0  0
 73 83  1  0  0  0
 74 79  1  0  0  0
 74 80  2  0  0  0
 74 81  1  0  0  0
 75 77  1  0  0  0
 75 78  1  0  0  0
 75 84  2  0  0  0
 76146  1  0  0  0
 76147  1  0  0  0
 76148  1  0  0  0
 76 79  1  0  0  0
 77 83  1  0  0  0
 77149  1  0  0  0
 77150  1  0  0  0
 78151  1  0  0  0
 78152  1  0  0  0
 79 85  1  0  0  0
 79153  1  0  0  0
 82154  1  0  0  0
 83155  1  0  0  0
M  ISO  4   1 100  68 101  78 101  82 100
M  END
> <chiral flag>
0

> <version>
0

> <s_m_source_file>
/data/baiqing/PycharmProjects/Reinvent-master-3.2/result/LINK_invent/BTK/process_docking_weight1_custom_product_contain_oxygen_bond_distance_aromatic_linkinvent_7_9_3/rearranged_h_0171.sdf

> <i_m_source_file_index>
28

> <r_mmod_Potential_Energy-OPLS-2005>
-368.654602050781

> <r_mmod_Stretch_Energy-OPLS-2005>
121.72875213623

> <r_mmod_Bend_Energy-OPLS-2005>
184.677749633789

> <r_mmod_Torsional_Energy-OPLS-2005>
179.547744750977

> <r_mmod_Improper_Torsional_Energy-OPLS-2005>
6.35558080673218

> <r_mmod_Van_der_Waal_Energy-OPLS-2005>
147.243545532227

> <r_mmod_Electrostatic_Energy-OPLS-2005>
-809.108337402344

> <r_mmod_Solvation_Energy-OPLS-2005>
-286.797088623047

> <b_mmod_Minimization_Converged-OPLS-2005>
0

> <r_mmod_RMS_Derivative-OPLS-2005>
1.52779281139374

$$$$
28
                    3D
 Structure written by MMmdl.
158166  0  0  1  0            999 V2000
  -30.7041  -14.4819   20.5787 C   0  0  0  0  0  0
  -30.4284  -12.3161   19.4251 C   0  0  0  0  0  0
  -29.4963  -12.5125   18.2104 C   0  0  0  0  0  0
  -28.0179  -12.3626   18.6214 C   0  0  0  0  0  0
  -27.6614  -13.2021   19.8767 C   0  0  2  0  0  0
  -28.7061  -12.9911   20.9983 C   0  0  0  0  0  0
  -25.2530  -13.8088   20.5695 C   0  0  0  0  0  0
  -24.1797  -13.0363   20.9166 C   0  0  0  0  0  0
  -24.6384  -11.6853   20.8726 C   0  0  0  0  0  0
  -23.9056  -10.4255   21.0394 C   0  0  0  0  0  0
  -24.3607   -9.4184   21.9183 C   0  0  0  0  0  0
  -23.6283   -8.2223   22.0755 C   0  0  0  0  0  0
  -22.4263   -8.0268   21.3546 C   0  0  0  0  0  0
  -21.9900   -9.0236   20.4642 C   0  0  0  0  0  0
  -22.7228  -10.2108   20.3048 C   0  0  0  0  0  0
  -21.6848   -6.0732   22.5281 C   0  0  0  0  0  0
  -21.4006   -6.5635   23.8215 C   0  0  0  0  0  0
  -21.3660   -5.6790   24.9178 C   0  0  0  0  0  0
  -21.6044   -4.3053   24.7226 C   0  0  0  0  0  0
  -21.8821   -3.8147   23.4347 C   0  0  0  0  0  0
  -21.9190   -4.6962   22.3402 C   0  0  0  0  0  0
  -22.7826  -13.5176   21.1837 C   0  0  0  0  0  0
  -22.1662   -4.2150   21.0976 F   0  0  0  0  0  0
  -21.5631   -3.4537   25.7736 F   0  0  0  0  0  0
  -30.0417  -13.2975   20.4517 N   0  0  0  0  0  0
  -26.3014  -12.9296   20.3390 N   0  0  0  0  0  0
  -25.9319  -11.6452   20.5778 N   0  0  0  0  0  0
  -22.0472  -12.8190   22.0409 N   0  0  0  0  0  0
  -25.4094  -15.1795   20.4179 N   0  0  0  0  0  0
  -31.8194  -14.6828   20.0903 O   0  0  0  0  0  0
  -21.6625   -6.8869   21.4241 O   0  0  0  0  0  0
  -22.3515  -14.5494   20.6702 O   0  0  0  0  0  0
  -24.6135  -31.8659   23.2085 C   0  0  0  0  0  0
  -25.9027  -32.4810   23.8385 C   0  0  1  0  0  0
  -27.2458  -27.4296   20.0830 C   0  0  0  0  0  0
  -25.5881  -33.8606   24.2326 N   0  0  0  0  0  0
  -23.4020  -30.4885   21.5482 C   0  0  2  0  0  0
  -24.8496  -28.9502   20.1146 C   0  0  0  0  0  0
  -22.7398  -29.4646   22.4980 C   0  0  0  0  0  0
  -18.0268  -28.1377   22.8487 C   0  0  0  0  0  0
  -24.1483  -36.7318   23.2638 C   0  0  0  0  0  0
  -25.9306  -30.8273   21.3642 C   0  0  0  0  0  0
  -26.0073  -29.4605   20.7119 C   0  0  0  0  0  0
  -27.2014  -28.7042   20.6985 C   0  0  0  0  0  0
  -26.0596  -26.9269   19.4971 C   0  0  0  0  0  0
  -24.8698  -27.6817   19.5101 C   0  0  0  0  0  0
  -23.6111  -29.8166   20.1633 C   0  0  0  0  0  0
  -25.4100  -36.3106   24.0342 C   0  0  1  0  0  0
  -20.5855  -28.3659   23.1319 C   0  0  2  0  0  0
  -20.6757  -26.9396   22.5418 C   0  0  0  0  0  0
  -19.5737  -26.6379   21.5209 C   0  0  0  0  0  0
  -18.1912  -26.7928   22.1613 C   0  0  0  0  0  0
  -19.1514  -28.8832   23.2900 C   0  0  0  0  0  0
  -18.9446  -30.1437   23.8912 C   0  0  0  0  0  0
  -17.6452  -30.6585   24.0556 C   0  0  0  0  0  0
  -25.9023  -34.9467   23.5137 C   0  0  0  0  0  0
  -16.5341  -29.9084   23.6328 C   0  0  0  0  0  0
  -16.7259  -28.6498   23.0356 C   0  0  0  0  0  0
  -26.4470  -31.6587   25.0711 C   0  0  0  0  0  0
  -25.3755  -31.3679   26.1476 C   0  0  0  0  0  0
  -27.0309  -30.3028   24.6093 C   0  0  0  0  0  0
  -27.6043  -32.4309   25.7481 C   0  0  0  0  0  0
  -27.5591  -37.1798   24.8453 C   0  0  0  0  0  0
  -21.4124  -29.3034   22.3729 N   0  0  0  0  0  0
  -26.4287  -37.3792   23.9418 N   0  0  0  0  0  0
  -24.6669  -31.0754   22.0987 N   0  0  0  0  0  0
  -23.4171  -28.8186   23.3021 O   0  0  0  0  0  0
  -28.4455  -26.7395   20.1102 O   0  0  0  0  0  0
  -26.5587  -34.8923   22.4700 O   0  0  0  0  0  0
  -23.5328  -32.1423   23.7474 O   0  0  0  0  0  0
  -31.0120  -19.0487   20.4853 C   0  0  0  0  0  0
  -31.1114  -17.6969   20.9047 C   0  0  0  0  0  0
  -29.8053  -19.5512   19.9364 C   0  0  0  0  0  0
  -29.9974  -16.8315   20.7934 C   0  0  0  0  0  0
  -28.6896  -18.6896   19.8577 C   0  0  0  0  0  0
  -28.7868  -17.3544   20.2962 C   0  0  0  0  0  0
  -29.7269  -20.9300   19.3341 C   0  0  0  0  0  0
  -31.4344  -23.8882   20.2127 C   0  0  0  0  0  0
  -28.9167  -24.3110   20.1235 C   0  0  0  0  0  0
  -32.0987  -25.0489   19.4824 C   0  0  0  0  0  0
  -28.6732  -25.5850   19.2803 C   0  0  0  0  0  0
  -30.0800  -23.3799   19.6857 C   0  0  2  0  0  0
  -30.0158  -15.4602   21.1957 N   0  0  0  0  0  0
  -29.8984  -21.9839   20.1430 N   0  0  0  0  0  0
  -29.5138  -21.0569   18.1272 O   0  0  0  0  0  0
  -32.0098  -23.3851   21.1845 O   0  0  0  0  0  0
  -28.1818  -24.0596   21.0880 O   0  0  0  0  0  0
  -27.5113  -19.1326   19.3524 F   0  0  0  0  0  0
  -27.7049  -16.5536   20.2099 F   0  0  0  0  0  0
  -31.4713  -12.4205   19.1205 H   0  0  0  0  0  0
  -30.3345  -11.3033   19.8206 H   0  0  0  0  0  0
  -29.7395  -11.7935   17.4271 H   0  0  0  0  0  0
  -29.6585  -13.5014   17.7793 H   0  0  0  0  0  0
  -27.8333  -11.3061   18.8175 H   0  0  0  0  0  0
  -27.3665  -12.6359   17.7900 H   0  0  0  0  0  0
  -27.6999  -14.2444   19.5677 H   0  0  0  0  0  0
  -28.6848  -11.9562   21.3437 H   0  0  0  0  0  0
  -28.4592  -13.5905   21.8754 H   0  0  0  0  0  0
  -25.2754   -9.5662   22.4755 H   0  0  0  0  0  0
  -23.9994   -7.4614   22.7474 H   0  0  0  0  0  0
  -21.0834   -8.8749   19.8949 H   0  0  0  0  0  0
  -22.3694  -10.9646   19.6155 H   0  0  0  0  0  0
  -21.1997   -7.6140   23.9719 H   0  0  0  0  0  0
  -21.1481   -6.0518   25.9080 H   0  0  0  0  0  0
  -22.0601   -2.7609   23.2844 H   0  0  0  0  0  0
  -22.4078  -11.9842   22.4794 H   0  0  0  0  0  0
  -21.1104  -13.1248   22.2624 H   0  0  0  0  0  0
  -24.6464  -15.8306   20.5605 H   0  0  0  0  0  0
  -26.2852  -15.6430   20.1966 H   0  0  0  0  0  0
  -26.7093  -32.5521   23.1144 H   0  0  0  0  0  0
  -25.0039  -33.9766   25.0479 H   0  0  0  0  0  0
  -22.6912  -31.3048   21.4059 H   0  0  0  0  0  0
  -23.3743  -35.9649   23.3274 H   0  0  0  0  0  0
  -24.3593  -36.8958   22.2057 H   0  0  0  0  0  0
  -23.7228  -37.6512   23.6671 H   0  0  0  0  0  0
  -26.0451  -31.5938   20.5959 H   0  0  0  0  0  0
  -26.8170  -30.8795   21.9846 H   0  0  0  0  0  0
  -28.0960  -29.0976   21.1611 H   0  0  0  0  0  0
  -26.0155  -25.9500   19.0410 H   0  0  0  0  0  0
  -23.9747  -27.2778   19.0572 H   0  0  0  0  0  0
  -23.7184  -30.5885   19.4006 H   0  0  0  0  0  0
  -22.7368  -29.2341   19.8686 H   0  0  0  0  0  0
  -25.1275  -36.1968   25.0835 H   0  0  0  0  0  0
  -20.9940  -28.3223   24.1437 H   0  0  0  0  0  0
  -20.5648  -26.2267   23.3602 H   0  0  0  0  0  0
  -21.6635  -26.7435   22.1218 H   0  0  0  0  0  0
  -19.6893  -25.6287   21.1244 H   0  0  0  0  0  0
  -19.6686  -27.3187   20.6736 H   0  0  0  0  0  0
  -17.4191  -26.6681   21.4006 H   0  0  0  0  0  0
  -18.0300  -26.0060   22.8994 H   0  0  0  0  0  0
  -19.7925  -30.7242   24.2292 H   0  0  0  0  0  0
  -17.5013  -31.6274   24.5136 H   0  0  0  0  0  0
  -15.5345  -30.2995   23.7639 H   0  0  0  0  0  0
  -15.8657  -28.0815   22.7081 H   0  0  0  0  0  0
  -24.5916  -30.7039   25.7817 H   0  0  0  0  0  0
  -24.8968  -32.2830   26.4970 H   0  0  0  0  0  0
  -25.8134  -30.8816   27.0204 H   0  0  0  0  0  0
  -26.2853  -29.6770   24.1176 H   0  0  0  0  0  0
  -27.4103  -29.7280   25.4552 H   0  0  0  0  0  0
  -27.8679  -30.4338   23.9230 H   0  0  0  0  0  0
  -27.2652  -33.3586   26.2102 H   0  0  0  0  0  0
  -28.3841  -32.6900   25.0310 H   0  0  0  0  0  0
  -28.0727  -31.8407   26.5368 H   0  0  0  0  0  0
  -28.2567  -38.0136   24.7559 H   0  0  0  0  0  0
  -28.1130  -36.2670   24.6204 H   0  0  0  0  0  0
  -27.2319  -37.1359   25.8856 H   0  0  0  0  0  0
  -20.9276  -29.8778   21.6973 H   0  0  0  0  0  0
  -26.0173  -38.2863   24.1447 H   0  0  0  0  0  0
  -31.8815  -19.6891   20.5457 H   0  0  0  0  0  0
  -32.0476  -17.3278   21.3004 H   0  0  0  0  0  0
  -31.9244  -24.9805   18.4088 H   0  0  0  0  0  0
  -33.1752  -25.0364   19.6540 H   0  0  0  0  0  0
  -31.7048  -25.9987   19.8419 H   0  0  0  0  0  0
  -27.8840  -25.3975   18.5564 H   0  0  0  0  0  0
  -29.5625  -25.7838   18.6835 H   0  0  0  0  0  0
  -30.1278  -23.4089   18.5963 H   0  0  0  0  0  0
  -29.1366  -15.1275   21.5621 H   0  0  0  0  0  0
  -30.0618  -21.8155   21.1252 H   0  0  0  0  0  0
  1 25  1  0  0  0
  1 30  2  0  0  0
  1 83  1  0  0  0
  2  3  1  0  0  0
  2 25  1  0  0  0
  2 90  1  0  0  0
  2 91  1  0  0  0
  3  4  1  0  0  0
  3 92  1  0  0  0
  3 93  1  0  0  0
  4  5  1  0  0  0
  4 94  1  0  0  0
  4 95  1  0  0  0
  5  6  1  0  0  0
  5 26  1  0  0  0
  5 96  1  0  0  0
  6 25  1  0  0  0
  6 97  1  0  0  0
  6 98  1  0  0  0
  7  8  2  0  0  0
  7 26  1  0  0  0
  7 29  1  0  0  0
  8  9  1  0  0  0
  8 22  1  0  0  0
  9 10  1  0  0  0
  9 27  2  0  0  0
 10 11  2  0  0  0
 10 15  1  0  0  0
 11 12  1  0  0  0
 11 99  1  0  0  0
 12 13  2  0  0  0
 12100  1  0  0  0
 13 14  1  0  0  0
 13 31  1  0  0  0
 14 15  2  0  0  0
 14101  1  0  0  0
 15102  1  0  0  0
 16 17  2  0  0  0
 16 21  1  0  0  0
 16 31  1  0  0  0
 17 18  1  0  0  0
 17103  1  0  0  0
 18 19  2  0  0  0
 18104  1  0  0  0
 19 20  1  0  0  0
 19 24  1  0  0  0
 20 21  2  0  0  0
 20105  1  0  0  0
 21 23  1  0  0  0
 22 28  1  0  0  0
 22 32  2  0  0  0
 26 27  1  0  0  0
 28106  1  0  0  0
 28107  1  0  0  0
 29108  1  0  0  0
 29109  1  0  0  0
 33 34  1  0  0  0
 33 66  1  0  0  0
 33 70  2  0  0  0
 34 36  1  0  0  0
 34 59  1  0  0  0
 34110  1  0  0  0
 35 44  2  0  0  0
 35 45  1  0  0  0
 35 68  1  0  0  0
 36 56  1  0  0  0
 36111  1  0  0  0
 37 39  1  0  0  0
 37 47  1  0  0  0
 37 66  1  0  0  0
 37112  1  0  0  0
 38 43  2  0  0  0
 38 46  1  0  0  0
 38 47  1  0  0  0
 39 64  1  0  0  0
 39 67  2  0  0  0
 40 52  1  0  0  0
 40 53  2  0  0  0
 40 58  1  0  0  0
 41113  1  0  0  0
 41114  1  0  0  0
 41115  1  0  0  0
 41 48  1  0  0  0
 42 43  1  0  0  0
 42 66  1  0  0  0
 42116  1  0  0  0
 42117  1  0  0  0
 43 44  1  0  0  0
 44118  1  0  0  0
 45 46  2  0  0  0
 45119  1  0  0  0
 46120  1  0  0  0
 47121  1  0  0  0
 47122  1  0  0  0
 48 56  1  0  0  0
 48 65  1  0  0  0
 48123  1  0  0  0
 49 50  1  0  0  0
 49 53  1  0  0  0
 49 64  1  0  0  0
 49124  1  0  0  0
 50 51  1  0  0  0
 50125  1  0  0  0
 50126  1  0  0  0
 51 52  1  0  0  0
 51127  1  0  0  0
 51128  1  0  0  0
 52129  1  0  0  0
 52130  1  0  0  0
 53 54  1  0  0  0
 54 55  2  0  0  0
 54131  1  0  0  0
 55 57  1  0  0  0
 55132  1  0  0  0
 56 69  2  0  0  0
 57 58  2  0  0  0
 57133  1  0  0  0
 58134  1  0  0  0
 59 60  1  0  0  0
 59 61  1  0  0  0
 59 62  1  0  0  0
 60135  1  0  0  0
 60136  1  0  0  0
 60137  1  0  0  0
 61138  1  0  0  0
 61139  1  0  0  0
 61140  1  0  0  0
 62141  1  0  0  0
 62142  1  0  0  0
 62143  1  0  0  0
 63 65  1  0  0  0
 63144  1  0  0  0
 63145  1  0  0  0
 63146  1  0  0  0
 64147  1  0  0  0
 65148  1  0  0  0
 68 81  1  0  0  0
 71 72  2  0  0  0
 71 73  1  0  0  0
 71149  1  0  0  0
 72 74  1  0  0  0
 72150  1  0  0  0
 73 75  2  0  0  0
 73 77  1  0  0  0
 74 76  2  0  0  0
 74 83  1  0  0  0
 75 76  1  0  0  0
 75 88  1  0  0  0
 76 89  1  0  0  0
 77 84  1  0  0  0
 77 85  2  0  0  0
 78 80  1  0  0  0
 78 82  1  0  0  0
 78 86  2  0  0  0
 79 81  1  0  0  0
 79 82  1  0  0  0
 79 87  2  0  0  0
 80151  1  0  0  0
 80152  1  0  0  0
 80153  1  0  0  0
 81154  1  0  0  0
 81155  1  0  0  0
 82 84  1  0  0  0
 82156  1  0  0  0
 83157  1  0  0  0
 84158  1  0  0  0
M  ISO  4   1 100  68 101  81 101  83 100
M  END
> <chiral flag>
0

> <version>
0

> <s_m_source_file>
/data/baiqing/PycharmProjects/Reinvent-master-3.2/result/LINK_invent/BTK/process_docking_weight1_custom_product_contain_oxygen_bond_distance_aromatic_linkinvent_7_9_3/rearranged_h_0171.sdf

> <i_m_source_file_index>
29

> <r_mmod_Potential_Energy-OPLS-2005>
-228.610153198242

> <r_mmod_Stretch_Energy-OPLS-2005>
40.0624313354492

> <r_mmod_Bend_Energy-OPLS-2005>
105.06420135498

> <r_mmod_Torsional_Energy-OPLS-2005>
226.641525268555

> <r_mmod_Improper_Torsional_Energy-OPLS-2005>
5.9119291305542

> <r_mmod_Van_der_Waal_Energy-OPLS-2005>
152.116744995117

> <r_mmod_Electrostatic_Energy-OPLS-2005>
-524.844177246094

> <r_mmod_Solvation_Energy-OPLS-2005>
-246.808563232422

> <b_mmod_Minimization_Converged-OPLS-2005>
0

> <r_mmod_RMS_Derivative-OPLS-2005>
1.11936831474304

$$$$
29
                    3D
 Structure written by MMmdl.
165173  0  0  1  0            999 V2000
  -30.7317  -14.5307   20.5326 C   0  0  0  0  0  0
  -30.4020  -12.3339   19.4496 C   0  0  0  0  0  0
  -29.4942  -12.4967   18.2181 C   0  0  0  0  0  0
  -28.0185  -12.3477   18.6293 C   0  0  0  0  0  0
  -27.6479  -13.2244   19.8577 C   0  0  2  0  0  0
  -28.6898  -13.0937   20.9923 C   0  0  0  0  0  0
  -25.2542  -13.8187   20.5656 C   0  0  0  0  0  0
  -24.1816  -13.0437   20.9166 C   0  0  0  0  0  0
  -24.6392  -11.6911   20.8718 C   0  0  0  0  0  0
  -23.9056  -10.4288   21.0375 C   0  0  0  0  0  0
  -24.3602   -9.4209   21.9168 C   0  0  0  0  0  0
  -23.6279   -8.2246   22.0735 C   0  0  0  0  0  0
  -22.4259   -8.0275   21.3530 C   0  0  0  0  0  0
  -21.9893   -9.0247   20.4633 C   0  0  0  0  0  0
  -22.7225  -10.2131   20.3039 C   0  0  0  0  0  0
  -21.6853   -6.0737   22.5281 C   0  0  0  0  0  0
  -21.4029   -6.5641   23.8216 C   0  0  0  0  0  0
  -21.3657   -5.6785   24.9170 C   0  0  0  0  0  0
  -21.6033   -4.3046   24.7225 C   0  0  0  0  0  0
  -21.8819   -3.8145   23.4346 C   0  0  0  0  0  0
  -21.9187   -4.6964   22.3403 C   0  0  0  0  0  0
  -22.7851  -13.5217   21.1847 C   0  0  0  0  0  0
  -22.1654   -4.2144   21.0985 F   0  0  0  0  0  0
  -21.5602   -3.4535   25.7743 F   0  0  0  0  0  0
  -30.0118  -13.3778   20.4178 N   0  0  0  0  0  0
  -26.2958  -12.9389   20.3292 N   0  0  0  0  0  0
  -25.9320  -11.6521   20.5722 N   0  0  0  0  0  0
  -22.0496  -12.8204   22.0401 N   0  0  0  0  0  0
  -25.4229  -15.1907   20.4088 N   0  0  0  0  0  0
  -31.9011  -14.5653   20.1577 O   0  0  0  0  0  0
  -21.6633   -6.8879   21.4231 O   0  0  0  0  0  0
  -22.3538  -14.5525   20.6693 O   0  0  0  0  0  0
  -24.6166  -31.8642   23.2096 C   0  0  0  0  0  0
  -25.9056  -32.4787   23.8364 C   0  0  1  0  0  0
  -27.2208  -27.3923   20.1191 C   0  0  0  0  0  0
  -25.5905  -33.8592   24.2304 N   0  0  0  0  0  0
  -23.4049  -30.4890   21.5508 C   0  0  2  0  0  0
  -24.8517  -28.9549   20.1111 C   0  0  0  0  0  0
  -22.7405  -29.4641   22.4987 C   0  0  0  0  0  0
  -18.0281  -28.1373   22.8486 C   0  0  0  0  0  0
  -24.1500  -36.7289   23.2633 C   0  0  0  0  0  0
  -25.9391  -30.8199   21.3703 C   0  0  0  0  0  0
  -26.0167  -29.4551   20.7105 C   0  0  0  0  0  0
  -27.2099  -28.6840   20.7058 C   0  0  0  0  0  0
  -26.0415  -26.9191   19.5096 C   0  0  0  0  0  0
  -24.8623  -27.6884   19.5047 C   0  0  0  0  0  0
  -23.6117  -29.8223   20.1649 C   0  0  0  0  0  0
  -25.4121  -36.3075   24.0317 C   0  0  1  0  0  0
  -20.5867  -28.3667   23.1323 C   0  0  2  0  0  0
  -20.6770  -26.9404   22.5425 C   0  0  0  0  0  0
  -19.5747  -26.6378   21.5220 C   0  0  0  0  0  0
  -18.1923  -26.7916   22.1622 C   0  0  0  0  0  0
  -19.1529  -28.8838   23.2888 C   0  0  0  0  0  0
  -18.9457  -30.1448   23.8890 C   0  0  0  0  0  0
  -17.6458  -30.6577   24.0573 C   0  0  0  0  0  0
  -25.9051  -34.9436   23.5106 C   0  0  0  0  0  0
  -16.5348  -29.9072   23.6348 C   0  0  0  0  0  0
  -16.7270  -28.6496   23.0351 C   0  0  0  0  0  0
  -26.4478  -31.6562   25.0687 C   0  0  0  0  0  0
  -25.3726  -31.3698   26.1425 C   0  0  0  0  0  0
  -27.0368  -30.2999   24.6117 C   0  0  0  0  0  0
  -27.6065  -32.4279   25.7439 C   0  0  0  0  0  0
  -27.5571  -37.1795   24.8456 C   0  0  0  0  0  0
  -21.4131  -29.3011   22.3698 N   0  0  0  0  0  0
  -26.4303  -37.3762   23.9379 N   0  0  0  0  0  0
  -24.6714  -31.0715   22.1010 N   0  0  0  0  0  0
  -23.4178  -28.8200   23.3034 O   0  0  0  0  0  0
  -28.3333  -26.5707   20.1198 O   0  0  0  0  0  0
  -26.5614  -34.8894   22.4674 O   0  0  0  0  0  0
  -23.5354  -32.1405   23.7481 O   0  0  0  0  0  0
  -28.6890  -17.8426   22.6012 C   0  0  0  0  0  0
  -27.7975  -20.1204   22.4664 C   0  0  0  0  0  0
  -29.5761  -19.4151   20.9738 C   0  0  0  0  0  0
  -27.7918  -18.8332   23.0473 C   0  0  0  0  0  0
  -29.6068  -18.1121   21.5697 C   0  0  0  0  0  0
  -28.7100  -20.4501   21.4349 C   0  0  0  0  0  0
  -28.2238  -25.3917   20.8515 C   0  0  0  0  0  0
  -28.5008  -24.1324   20.4035 C   0  0  0  0  0  0
  -28.3355  -22.9717   21.3141 C   0  0  0  0  0  0
  -32.7477  -18.5283   21.0986 C   0  0  0  0  0  0
  -26.8513  -18.5251   24.1953 C   0  0  0  0  0  0
  -31.8309  -17.5390   20.3555 C   0  0  0  0  0  0
  -30.6597  -17.0134   21.2470 C   0  0  2  0  0  0
  -28.7773  -21.7699   20.8340 N   0  0  0  0  0  0
  -30.0866  -15.6620   20.9283 N   0  0  0  0  0  0
  -27.5375  -18.7262   25.4776 N   0  3  0  0  0  0
  -27.8506  -23.0842   22.4401 O   0  0  0  0  0  0
  -28.8918  -23.9394   19.1336 O   0  0  0  0  0  0
  -31.4514  -12.3876   19.1530 H   0  0  0  0  0  0
  -30.2681  -11.3447   19.8896 H   0  0  0  0  0  0
  -29.7486  -11.7590   17.4565 H   0  0  0  0  0  0
  -29.6576  -13.4781   17.7676 H   0  0  0  0  0  0
  -27.8457  -11.2965   18.8640 H   0  0  0  0  0  0
  -27.3670  -12.5802   17.7860 H   0  0  0  0  0  0
  -27.6657  -14.2589   19.5112 H   0  0  0  0  0  0
  -28.6786  -12.0867   21.4116 H   0  0  0  0  0  0
  -28.4595  -13.7614   21.8237 H   0  0  0  0  0  0
  -25.2739   -9.5683   22.4758 H   0  0  0  0  0  0
  -23.9975   -7.4630   22.7454 H   0  0  0  0  0  0
  -21.0821   -8.8764   19.8961 H   0  0  0  0  0  0
  -22.3654  -10.9659   19.6152 H   0  0  0  0  0  0
  -21.2056   -7.6152   23.9719 H   0  0  0  0  0  0
  -21.1460   -6.0521   25.9070 H   0  0  0  0  0  0
  -22.0601   -2.7608   23.2846 H   0  0  0  0  0  0
  -22.4088  -11.9871   22.4801 H   0  0  0  0  0  0
  -21.1120  -13.1246   22.2599 H   0  0  0  0  0  0
  -24.6468  -15.8370   20.5032 H   0  0  0  0  0  0
  -26.2740  -15.6317   20.0827 H   0  0  0  0  0  0
  -26.7138  -32.5476   23.1131 H   0  0  0  0  0  0
  -25.0017  -33.9773   25.0421 H   0  0  0  0  0  0
  -22.6925  -31.3053   21.4119 H   0  0  0  0  0  0
  -23.3750  -35.9645   23.3344 H   0  0  0  0  0  0
  -24.3559  -36.8869   22.2035 H   0  0  0  0  0  0
  -23.7318  -37.6522   23.6648 H   0  0  0  0  0  0
  -26.0672  -31.5960   20.6134 H   0  0  0  0  0  0
  -26.8187  -30.8575   22.0011 H   0  0  0  0  0  0
  -28.1097  -29.0593   21.1726 H   0  0  0  0  0  0
  -26.0370  -25.9410   19.0494 H   0  0  0  0  0  0
  -23.9668  -27.2967   19.0414 H   0  0  0  0  0  0
  -23.7076  -30.5991   19.4040 H   0  0  0  0  0  0
  -22.7370  -29.2345   19.8823 H   0  0  0  0  0  0
  -25.1322  -36.1898   25.0814 H   0  0  0  0  0  0
  -20.9967  -28.3259   24.1441 H   0  0  0  0  0  0
  -20.5698  -26.2261   23.3603 H   0  0  0  0  0  0
  -21.6636  -26.7443   22.1201 H   0  0  0  0  0  0
  -19.6911  -25.6294   21.1236 H   0  0  0  0  0  0
  -19.6708  -27.3201   20.6765 H   0  0  0  0  0  0
  -17.4194  -26.6672   21.4028 H   0  0  0  0  0  0
  -18.0323  -26.0062   22.9025 H   0  0  0  0  0  0
  -19.7938  -30.7275   24.2234 H   0  0  0  0  0  0
  -17.5018  -31.6275   24.5150 H   0  0  0  0  0  0
  -15.5348  -30.2969   23.7681 H   0  0  0  0  0  0
  -15.8669  -28.0828   22.7051 H   0  0  0  0  0  0
  -24.5891  -30.7049   25.7771 H   0  0  0  0  0  0
  -24.8911  -32.2868   26.4826 H   0  0  0  0  0  0
  -25.8064  -30.8881   27.0197 H   0  0  0  0  0  0
  -26.2979  -29.6720   24.1135 H   0  0  0  0  0  0
  -27.4127  -29.7260   25.4595 H   0  0  0  0  0  0
  -27.8804  -30.4330   23.9342 H   0  0  0  0  0  0
  -27.2648  -33.3550   26.2075 H   0  0  0  0  0  0
  -28.3829  -32.6903   25.0242 H   0  0  0  0  0  0
  -28.0801  -31.8375   26.5303 H   0  0  0  0  0  0
  -28.2618  -38.0063   24.7467 H   0  0  0  0  0  0
  -28.1038  -36.2591   24.6345 H   0  0  0  0  0  0
  -27.2265  -37.1524   25.8855 H   0  0  0  0  0  0
  -20.9280  -29.8675   21.6888 H   0  0  0  0  0  0
  -26.0176  -38.2839   24.1369 H   0  0  0  0  0  0
  -28.6997  -16.8727   23.0791 H   0  0  0  0  0  0
  -27.0887  -20.8448   22.8377 H   0  0  0  0  0  0
  -30.2606  -19.6626   20.1773 H   0  0  0  0  0  0
  -27.8885  -25.5886   21.8609 H   0  0  0  0  0  0
  -33.6259  -18.7753   20.5008 H   0  0  0  0  0  0
  -33.1129  -18.0906   22.0295 H   0  0  0  0  0  0
  -32.2472  -19.4602   21.3513 H   0  0  0  0  0  0
  -26.5005  -17.4939   24.1221 H   0  0  0  0  0  0
  -25.9724  -19.1684   24.1376 H   0  0  0  0  0  0
  -32.5116  -16.7590   20.0408 H   0  0  0  0  0  0
  -31.4581  -17.9654   19.4236 H   0  0  0  0  0  0
  -31.1218  -16.8217   22.2173 H   0  0  0  0  0  0
  -29.2980  -21.8116   19.9727 H   0  0  0  0  0  0
  -29.1121  -15.5424   21.1633 H   0  0  0  0  0  0
  -28.2486  -18.0294   25.5948 H   0  0  0  0  0  0
  -26.8848  -18.6500   26.2354 H   0  0  0  0  0  0
  -27.9628  -19.6335   25.5136 H   0  0  0  0  0  0
  -28.7845  -23.0186   18.9386 H   0  0  0  0  0  0
  1 25  1  0  0  0
  1 30  2  0  0  0
  1 85  1  0  0  0
  2  3  1  0  0  0
  2 25  1  0  0  0
  2 89  1  0  0  0
  2 90  1  0  0  0
  3  4  1  0  0  0
  3 91  1  0  0  0
  3 92  1  0  0  0
  4  5  1  0  0  0
  4 93  1  0  0  0
  4 94  1  0  0  0
  5  6  1  0  0  0
  5 26  1  0  0  0
  5 95  1  0  0  0
  6 25  1  0  0  0
  6 96  1  0  0  0
  6 97  1  0  0  0
  7  8  2  0  0  0
  7 26  1  0  0  0
  7 29  1  0  0  0
  8  9  1  0  0  0
  8 22  1  0  0  0
  9 10  1  0  0  0
  9 27  2  0  0  0
 10 11  2  0  0  0
 10 15  1  0  0  0
 11 12  1  0  0  0
 11 98  1  0  0  0
 12 13  2  0  0  0
 12 99  1  0  0  0
 13 14  1  0  0  0
 13 31  1  0  0  0
 14 15  2  0  0  0
 14100  1  0  0  0
 15101  1  0  0  0
 16 17  2  0  0  0
 16 21  1  0  0  0
 16 31  1  0  0  0
 17 18  1  0  0  0
 17102  1  0  0  0
 18 19  2  0  0  0
 18103  1  0  0  0
 19 20  1  0  0  0
 19 24  1  0  0  0
 20 21  2  0  0  0
 20104  1  0  0  0
 21 23  1  0  0  0
 22 28  1  0  0  0
 22 32  2  0  0  0
 26 27  1  0  0  0
 28105  1  0  0  0
 28106  1  0  0  0
 29107  1  0  0  0
 29108  1  0  0  0
 33 34  1  0  0  0
 33 66  1  0  0  0
 33 70  2  0  0  0
 34 36  1  0  0  0
 34 59  1  0  0  0
 34109  1  0  0  0
 35 44  2  0  0  0
 35 45  1  0  0  0
 35 68  1  0  0  0
 36 56  1  0  0  0
 36110  1  0  0  0
 37 39  1  0  0  0
 37 47  1  0  0  0
 37 66  1  0  0  0
 37111  1  0  0  0
 38 43  2  0  0  0
 38 46  1  0  0  0
 38 47  1  0  0  0
 39 64  1  0  0  0
 39 67  2  0  0  0
 40 52  1  0  0  0
 40 53  2  0  0  0
 40 58  1  0  0  0
 41112  1  0  0  0
 41113  1  0  0  0
 41114  1  0  0  0
 41 48  1  0  0  0
 42 43  1  0  0  0
 42 66  1  0  0  0
 42115  1  0  0  0
 42116  1  0  0  0
 43 44  1  0  0  0
 44117  1  0  0  0
 45 46  2  0  0  0
 45118  1  0  0  0
 46119  1  0  0  0
 47120  1  0  0  0
 47121  1  0  0  0
 48 56  1  0  0  0
 48 65  1  0  0  0
 48122  1  0  0  0
 49 50  1  0  0  0
 49 53  1  0  0  0
 49 64  1  0  0  0
 49123  1  0  0  0
 50 51  1  0  0  0
 50124  1  0  0  0
 50125  1  0  0  0
 51 52  1  0  0  0
 51126  1  0  0  0
 51127  1  0  0  0
 52128  1  0  0  0
 52129  1  0  0  0
 53 54  1  0  0  0
 54 55  2  0  0  0
 54130  1  0  0  0
 55 57  1  0  0  0
 55131  1  0  0  0
 56 69  2  0  0  0
 57 58  2  0  0  0
 57132  1  0  0  0
 58133  1  0  0  0
 59 60  1  0  0  0
 59 61  1  0  0  0
 59 62  1  0  0  0
 60134  1  0  0  0
 60135  1  0  0  0
 60136  1  0  0  0
 61137  1  0  0  0
 61138  1  0  0  0
 61139  1  0  0  0
 62140  1  0  0  0
 62141  1  0  0  0
 62142  1  0  0  0
 63 65  1  0  0  0
 63143  1  0  0  0
 63144  1  0  0  0
 63145  1  0  0  0
 64146  1  0  0  0
 65147  1  0  0  0
 68 77  1  0  0  0
 71 74  2  0  0  0
 71 75  1  0  0  0
 71148  1  0  0  0
 72 74  1  0  0  0
 72 76  2  0  0  0
 72149  1  0  0  0
 73 75  2  0  0  0
 73 76  1  0  0  0
 73150  1  0  0  0
 74 81  1  0  0  0
 75 83  1  0  0  0
 76 84  1  0  0  0
 77 78  2  0  0  0
 77151  1  0  0  0
 78 79  1  0  0  0
 78 88  1  0  0  0
 79 84  1  0  0  0
 79 87  2  0  0  0
 80 82  1  0  0  0
 80152  1  0  0  0
 80153  1  0  0  0
 80154  1  0  0  0
 81 86  1  0  0  0
 81155  1  0  0  0
 81156  1  0  0  0
 82157  1  0  0  0
 82158  1  0  0  0
 82 83  1  0  0  0
 83 85  1  0  0  0
 83159  1  0  0  0
 84160  1  0  0  0
 85161  1  0  0  0
 86162  1  0  0  0
 86163  1  0  0  0
 86164  1  0  0  0
 88165  1  0  0  0
M  CHG  1  86   1
M  ISO  4   1 100  68 101  77 101  85 100
M  END
> <chiral flag>
0

> <version>
0

> <s_m_source_file>
/data/baiqing/PycharmProjects/Reinvent-master-3.2/result/LINK_invent/BTK/process_docking_weight1_custom_product_contain_oxygen_bond_distance_aromatic_linkinvent_7_9_3/rearranged_h_0171.sdf

> <i_m_source_file_index>
30

> <r_mmod_Potential_Energy-OPLS-2005>
-381.5234375

> <r_mmod_Stretch_Energy-OPLS-2005>
57.2432899475098

> <r_mmod_Bend_Energy-OPLS-2005>
124.938140869141

> <r_mmod_Torsional_Energy-OPLS-2005>
222.804107666016

> <r_mmod_Improper_Torsional_Energy-OPLS-2005>
3.86581254005432

> <r_mmod_Van_der_Waal_Energy-OPLS-2005>
163.361724853516

> <r_mmod_Electrostatic_Energy-OPLS-2005>
-441.441589355469

> <r_mmod_Solvation_Energy-OPLS-2005>
-540.720581054688

> <b_mmod_Minimization_Converged-OPLS-2005>
0

> <r_mmod_RMS_Derivative-OPLS-2005>
3.93146514892578

$$$$
30
                    3D
 Structure written by MMmdl.
153161  0  0  1  0            999 V2000
  -30.5704  -14.8061   20.4020 C   0  0  0  0  0  0
  -30.4298  -12.4840   19.4900 C   0  0  0  0  0  0
  -29.5175  -12.5175   18.2437 C   0  0  0  0  0  0
  -28.0434  -12.3275   18.6521 C   0  0  0  0  0  0
  -27.6359  -13.2371   19.8418 C   0  0  2  0  0  0
  -28.6735  -13.2003   20.9825 C   0  0  0  0  0  0
  -25.2485  -13.8191   20.5670 C   0  0  0  0  0  0
  -24.1783  -13.0431   20.9196 C   0  0  0  0  0  0
  -24.6379  -11.6911   20.8719 C   0  0  0  0  0  0
  -23.9051  -10.4296   21.0410 C   0  0  0  0  0  0
  -24.3612   -9.4216   21.9196 C   0  0  0  0  0  0
  -23.6296   -8.2245   22.0758 C   0  0  0  0  0  0
  -22.4273   -8.0280   21.3552 C   0  0  0  0  0  0
  -21.9899   -9.0250   20.4649 C   0  0  0  0  0  0
  -22.7219  -10.2133   20.3060 C   0  0  0  0  0  0
  -21.6847   -6.0731   22.5287 C   0  0  0  0  0  0
  -21.4013   -6.5635   23.8217 C   0  0  0  0  0  0
  -21.3667   -5.6783   24.9180 C   0  0  0  0  0  0
  -21.6048   -4.3046   24.7226 C   0  0  0  0  0  0
  -21.8812   -3.8142   23.4340 C   0  0  0  0  0  0
  -21.9187   -4.6964   22.3404 C   0  0  0  0  0  0
  -22.7802  -13.5222   21.1880 C   0  0  0  0  0  0
  -22.1659   -4.2154   21.0980 F   0  0  0  0  0  0
  -21.5638   -3.4529   25.7741 F   0  0  0  0  0  0
  -29.9729  -13.5609   20.4030 N   0  0  0  0  0  0
  -26.2895  -12.9415   20.3198 N   0  0  0  0  0  0
  -25.9302  -11.6540   20.5676 N   0  0  0  0  0  0
  -22.0434  -12.8226   22.0439 N   0  0  0  0  0  0
  -25.4174  -15.1922   20.4124 N   0  0  0  0  0  0
  -31.7657  -14.8921   20.0983 O   0  0  0  0  0  0
  -21.6633   -6.8876   21.4245 O   0  0  0  0  0  0
  -22.3486  -14.5529   20.6722 O   0  0  0  0  0  0
  -24.6358  -31.8524   23.1958 C   0  0  0  0  0  0
  -25.9179  -32.4713   23.8307 C   0  0  1  0  0  0
  -27.2011  -27.2088   20.1191 C   0  0  0  0  0  0
  -25.5955  -33.8520   24.2229 N   0  0  0  0  0  0
  -23.4317  -30.4802   21.5387 C   0  0  2  0  0  0
  -24.8755  -28.9228   20.1062 C   0  0  0  0  0  0
  -22.7501  -29.4618   22.4863 C   0  0  0  0  0  0
  -18.0290  -28.1407   22.8475 C   0  0  0  0  0  0
  -24.1498  -36.7266   23.2641 C   0  0  0  0  0  0
  -25.9841  -30.7497   21.3834 C   0  0  0  0  0  0
  -26.0515  -29.3684   20.7224 C   0  0  0  0  0  0
  -27.2141  -28.5218   20.7219 C   0  0  0  0  0  0
  -25.9961  -26.8512   19.4706 C   0  0  0  0  0  0
  -24.8559  -27.6744   19.4722 C   0  0  0  0  0  0
  -23.6519  -29.8185   20.1538 C   0  0  0  0  0  0
  -25.4120  -36.3027   24.0316 C   0  0  1  0  0  0
  -20.5899  -28.3728   23.1246 C   0  0  2  0  0  0
  -20.6780  -26.9435   22.5396 C   0  0  0  0  0  0
  -19.5756  -26.6401   21.5198 C   0  0  0  0  0  0
  -18.1941  -26.7944   22.1614 C   0  0  0  0  0  0
  -19.1544  -28.8875   23.2862 C   0  0  0  0  0  0
  -18.9470  -30.1469   23.8892 C   0  0  0  0  0  0
  -17.6474  -30.6602   24.0564 C   0  0  0  0  0  0
  -25.9073  -34.9408   23.5068 C   0  0  0  0  0  0
  -16.5359  -29.9103   23.6335 C   0  0  0  0  0  0
  -16.7281  -28.6518   23.0351 C   0  0  0  0  0  0
  -26.4529  -31.6553   25.0715 C   0  0  0  0  0  0
  -25.3739  -31.3720   26.1419 C   0  0  0  0  0  0
  -27.0385  -30.2950   24.6255 C   0  0  0  0  0  0
  -27.6076  -32.4294   25.7495 C   0  0  0  0  0  0
  -27.5575  -37.1781   24.8460 C   0  0  0  0  0  0
  -21.4202  -29.3073   22.3612 N   0  0  0  0  0  0
  -26.4280  -37.3738   23.9408 N   0  0  0  0  0  0
  -24.7034  -31.0475   22.0942 N   0  0  0  0  0  0
  -23.4198  -28.8144   23.2954 O   0  0  0  0  0  0
  -28.2662  -26.2633   20.1962 O   0  0  0  0  0  0
  -26.5649  -34.8895   22.4639 O   0  0  0  0  0  0
  -23.5502  -32.1369   23.7232 O   0  0  0  0  0  0
  -30.1912  -18.4724   17.7803 C   0  0  0  0  0  0
  -29.4539  -18.5992   20.4370 C   0  0  0  0  0  0
  -29.9177  -19.7503   18.3247 C   0  0  0  0  0  0
  -29.4601  -19.8674   19.6819 C   0  0  0  0  0  0
  -29.8323  -17.2837   19.8960 C   0  0  0  0  0  0
  -30.1527  -17.2815   18.5213 C   0  0  0  0  0  0
  -28.1343  -24.8832   19.7828 C   0  0  0  0  0  0
  -28.6452  -23.7105   20.3518 C   0  0  0  0  0  0
  -28.4478  -22.3199   19.7490 C   0  0  0  0  0  0
  -30.1891  -20.9314   17.3747 C   0  0  0  0  0  0
  -29.1402  -21.2220   20.2732 N   0  0  0  0  0  0
  -29.7870  -15.9512   20.5918 N   0  0  0  0  0  0
  -27.6600  -22.1309   18.8210 O   0  0  0  0  0  0
  -29.3617  -23.8056   21.4799 O   0  0  0  0  0  0
  -30.3933  -16.1196   17.8684 F   0  0  0  0  0  0
  -31.1263  -20.6055   16.4823 F   0  0  0  0  0  0
  -29.0929  -21.2372   16.6823 F   0  0  0  0  0  0
  -30.6542  -22.0178   17.9919 F   0  0  0  0  0  0
  -31.4753  -12.6033   19.1998 H   0  0  0  0  0  0
  -30.3673  -11.5161   19.9876 H   0  0  0  0  0  0
  -29.8157  -11.7454   17.5333 H   0  0  0  0  0  0
  -29.6372  -13.4702   17.7237 H   0  0  0  0  0  0
  -27.9117  -11.2797   18.9262 H   0  0  0  0  0  0
  -27.3863  -12.5021   17.7990 H   0  0  0  0  0  0
  -27.6222  -14.2539   19.4465 H   0  0  0  0  0  0
  -28.7157  -12.2097   21.4370 H   0  0  0  0  0  0
  -28.3908  -13.8923   21.7780 H   0  0  0  0  0  0
  -25.2768   -9.5706   22.4741 H   0  0  0  0  0  0
  -24.0031   -7.4623   22.7454 H   0  0  0  0  0  0
  -21.0838   -8.8738   19.8945 H   0  0  0  0  0  0
  -22.3677  -10.9656   19.6144 H   0  0  0  0  0  0
  -21.2000   -7.6145   23.9723 H   0  0  0  0  0  0
  -21.1503   -6.0519   25.9087 H   0  0  0  0  0  0
  -22.0584   -2.7608   23.2830 H   0  0  0  0  0  0
  -22.4028  -11.9906   22.4897 H   0  0  0  0  0  0
  -21.1039  -13.1255   22.2593 H   0  0  0  0  0  0
  -24.6484  -15.8439   20.5291 H   0  0  0  0  0  0
  -26.2644  -15.6348   20.0800 H   0  0  0  0  0  0
  -26.7240  -32.5351   23.1045 H   0  0  0  0  0  0
  -25.0041  -33.9646   25.0324 H   0  0  0  0  0  0
  -22.7292  -31.3039   21.3925 H   0  0  0  0  0  0
  -23.3745  -35.9613   23.3288 H   0  0  0  0  0  0
  -24.3588  -36.8917   22.2061 H   0  0  0  0  0  0
  -23.7288  -37.6470   23.6689 H   0  0  0  0  0  0
  -26.1348  -31.5115   20.6170 H   0  0  0  0  0  0
  -26.8570  -30.7971   22.0225 H   0  0  0  0  0  0
  -28.1083  -28.8543   21.2303 H   0  0  0  0  0  0
  -25.8791  -25.9006   18.9793 H   0  0  0  0  0  0
  -23.9540  -27.3269   18.9869 H   0  0  0  0  0  0
  -23.7864  -30.5976   19.4025 H   0  0  0  0  0  0
  -22.7673  -29.2607   19.8407 H   0  0  0  0  0  0
  -25.1305  -36.1847   25.0808 H   0  0  0  0  0  0
  -21.0004  -28.3330   24.1363 H   0  0  0  0  0  0
  -20.5673  -26.2338   23.3612 H   0  0  0  0  0  0
  -21.6654  -26.7459   22.1202 H   0  0  0  0  0  0
  -19.6926  -25.6306   21.1247 H   0  0  0  0  0  0
  -19.6701  -27.3194   20.6711 H   0  0  0  0  0  0
  -17.4200  -26.6670   21.4030 H   0  0  0  0  0  0
  -18.0363  -26.0099   22.9030 H   0  0  0  0  0  0
  -19.7948  -30.7274   24.2279 H   0  0  0  0  0  0
  -17.5033  -31.6277   24.5166 H   0  0  0  0  0  0
  -15.5364  -30.3007   23.7658 H   0  0  0  0  0  0
  -15.8677  -28.0835   22.7080 H   0  0  0  0  0  0
  -24.5886  -30.7117   25.7719 H   0  0  0  0  0  0
  -24.8971  -32.2904   26.4853 H   0  0  0  0  0  0
  -25.8038  -30.8856   27.0184 H   0  0  0  0  0  0
  -26.2984  -29.6663   24.1288 H   0  0  0  0  0  0
  -27.4037  -29.7252   25.4812 H   0  0  0  0  0  0
  -27.8879  -30.4176   23.9529 H   0  0  0  0  0  0
  -27.2674  -33.3581   26.2084 H   0  0  0  0  0  0
  -28.3889  -32.6876   25.0334 H   0  0  0  0  0  0
  -28.0746  -31.8413   26.5406 H   0  0  0  0  0  0
  -28.2562  -38.0101   24.7489 H   0  0  0  0  0  0
  -28.1092  -36.2622   24.6284 H   0  0  0  0  0  0
  -27.2288  -37.1434   25.8861 H   0  0  0  0  0  0
  -20.9369  -29.8797   21.6827 H   0  0  0  0  0  0
  -26.0139  -38.2798   24.1409 H   0  0  0  0  0  0
  -30.4568  -18.3896   16.7371 H   0  0  0  0  0  0
  -29.1442  -18.6349   21.4701 H   0  0  0  0  0  0
  -27.5801  -24.8000   18.8591 H   0  0  0  0  0  0
  -29.5740  -21.4202   21.1643 H   0  0  0  0  0  0
  -28.9115  -15.7660   21.0566 H   0  0  0  0  0  0
  -29.4260  -24.7291   21.6877 H   0  0  0  0  0  0
  1 25  1  0  0  0
  1 30  2  0  0  0
  1 82  1  0  0  0
  2  3  1  0  0  0
  2 25  1  0  0  0
  2 89  1  0  0  0
  2 90  1  0  0  0
  3  4  1  0  0  0
  3 91  1  0  0  0
  3 92  1  0  0  0
  4  5  1  0  0  0
  4 93  1  0  0  0
  4 94  1  0  0  0
  5  6  1  0  0  0
  5 26  1  0  0  0
  5 95  1  0  0  0
  6 25  1  0  0  0
  6 96  1  0  0  0
  6 97  1  0  0  0
  7  8  2  0  0  0
  7 26  1  0  0  0
  7 29  1  0  0  0
  8  9  1  0  0  0
  8 22  1  0  0  0
  9 10  1  0  0  0
  9 27  2  0  0  0
 10 11  2  0  0  0
 10 15  1  0  0  0
 11 12  1  0  0  0
 11 98  1  0  0  0
 12 13  2  0  0  0
 12 99  1  0  0  0
 13 14  1  0  0  0
 13 31  1  0  0  0
 14 15  2  0  0  0
 14100  1  0  0  0
 15101  1  0  0  0
 16 17  2  0  0  0
 16 21  1  0  0  0
 16 31  1  0  0  0
 17 18  1  0  0  0
 17102  1  0  0  0
 18 19  2  0  0  0
 18103  1  0  0  0
 19 20  1  0  0  0
 19 24  1  0  0  0
 20 21  2  0  0  0
 20104  1  0  0  0
 21 23  1  0  0  0
 22 28  1  0  0  0
 22 32  2  0  0  0
 26 27  1  0  0  0
 28105  1  0  0  0
 28106  1  0  0  0
 29107  1  0  0  0
 29108  1  0  0  0
 33 34  1  0  0  0
 33 66  1  0  0  0
 33 70  2  0  0  0
 34 36  1  0  0  0
 34 59  1  0  0  0
 34109  1  0  0  0
 35 44  2  0  0  0
 35 45  1  0  0  0
 35 68  1  0  0  0
 36 56  1  0  0  0
 36110  1  0  0  0
 37 39  1  0  0  0
 37 47  1  0  0  0
 37 66  1  0  0  0
 37111  1  0  0  0
 38 43  2  0  0  0
 38 46  1  0  0  0
 38 47  1  0  0  0
 39 64  1  0  0  0
 39 67  2  0  0  0
 40 52  1  0  0  0
 40 53  2  0  0  0
 40 58  1  0  0  0
 41112  1  0  0  0
 41113  1  0  0  0
 41114  1  0  0  0
 41 48  1  0  0  0
 42 43  1  0  0  0
 42 66  1  0  0  0
 42115  1  0  0  0
 42116  1  0  0  0
 43 44  1  0  0  0
 44117  1  0  0  0
 45 46  2  0  0  0
 45118  1  0  0  0
 46119  1  0  0  0
 47120  1  0  0  0
 47121  1  0  0  0
 48 56  1  0  0  0
 48 65  1  0  0  0
 48122  1  0  0  0
 49 50  1  0  0  0
 49 53  1  0  0  0
 49 64  1  0  0  0
 49123  1  0  0  0
 50 51  1  0  0  0
 50124  1  0  0  0
 50125  1  0  0  0
 51 52  1  0  0  0
 51126  1  0  0  0
 51127  1  0  0  0
 52128  1  0  0  0
 52129  1  0  0  0
 53 54  1  0  0  0
 54 55  2  0  0  0
 54130  1  0  0  0
 55 57  1  0  0  0
 55131  1  0  0  0
 56 69  2  0  0  0
 57 58  2  0  0  0
 57132  1  0  0  0
 58133  1  0  0  0
 59 60  1  0  0  0
 59 61  1  0  0  0
 59 62  1  0  0  0
 60134  1  0  0  0
 60135  1  0  0  0
 60136  1  0  0  0
 61137  1  0  0  0
 61138  1  0  0  0
 61139  1  0  0  0
 62140  1  0  0  0
 62141  1  0  0  0
 62142  1  0  0  0
 63 65  1  0  0  0
 63143  1  0  0  0
 63144  1  0  0  0
 63145  1  0  0  0
 64146  1  0  0  0
 65147  1  0  0  0
 68 77  1  0  0  0
 71 73  2  0  0  0
 71 76  1  0  0  0
 71148  1  0  0  0
 72 74  2  0  0  0
 72 75  1  0  0  0
 72149  1  0  0  0
 73 74  1  0  0  0
 73 80  1  0  0  0
 74 81  1  0  0  0
 75 76  2  0  0  0
 75 82  1  0  0  0
 76 85  1  0  0  0
 77 78  2  0  0  0
 77150  1  0  0  0
 78 79  1  0  0  0
 78 84  1  0  0  0
 79 81  1  0  0  0
 79 83  2  0  0  0
 80 86  1  0  0  0
 80 87  1  0  0  0
 80 88  1  0  0  0
 81151  1  0  0  0
 82152  1  0  0  0
 84153  1  0  0  0
M  ISO  4   1 100  68 101  77 101  82 100
M  END
> <chiral flag>
0

> <version>
0

> <s_m_source_file>
/data/baiqing/PycharmProjects/Reinvent-master-3.2/result/LINK_invent/BTK/process_docking_weight1_custom_product_contain_oxygen_bond_distance_aromatic_linkinvent_7_9_3/rearranged_h_0171.sdf

> <i_m_source_file_index>
31

> <r_mmod_Potential_Energy-OPLS-2005>
195.255844116211

> <r_mmod_Stretch_Energy-OPLS-2005>
159.730804443359

> <r_mmod_Bend_Energy-OPLS-2005>
174.951278686523

> <r_mmod_Torsional_Energy-OPLS-2005>
257.974487304688

> <r_mmod_Improper_Torsional_Energy-OPLS-2005>
5.78980827331543

> <r_mmod_Van_der_Waal_Energy-OPLS-2005>
154.883361816406

> <r_mmod_Electrostatic_Energy-OPLS-2005>
-449.084930419922

> <r_mmod_Solvation_Energy-OPLS-2005>
-229.940231323242

> <b_mmod_Minimization_Converged-OPLS-2005>
0

> <r_mmod_RMS_Derivative-OPLS-2005>
2.81002330780029

$$$$
31
                    3D
 Structure written by MMmdl.
156164  0  0  1  0            999 V2000
  -30.6868  -14.5047   20.5024 C   0  0  0  0  0  0
  -30.4171  -12.3064   19.4406 C   0  0  0  0  0  0
  -29.4972  -12.4919   18.2152 C   0  0  0  0  0  0
  -28.0172  -12.3575   18.6237 C   0  0  0  0  0  0
  -27.6567  -13.2119   19.8690 C   0  0  2  0  0  0
  -28.6983  -13.0305   20.9971 C   0  0  0  0  0  0
  -25.2570  -13.8173   20.5682 C   0  0  0  0  0  0
  -24.1830  -13.0442   20.9183 C   0  0  0  0  0  0
  -24.6390  -11.6912   20.8738 C   0  0  0  0  0  0
  -23.9062  -10.4295   21.0407 C   0  0  0  0  0  0
  -24.3614   -9.4211   21.9187 C   0  0  0  0  0  0
  -23.6290   -8.2244   22.0756 C   0  0  0  0  0  0
  -22.4273   -8.0282   21.3543 C   0  0  0  0  0  0
  -21.9911   -9.0256   20.4645 C   0  0  0  0  0  0
  -22.7236  -10.2138   20.3056 C   0  0  0  0  0  0
  -21.6854   -6.0737   22.5279 C   0  0  0  0  0  0
  -21.4015   -6.5641   23.8213 C   0  0  0  0  0  0
  -21.3659   -5.6794   24.9175 C   0  0  0  0  0  0
  -21.6043   -4.3056   24.7224 C   0  0  0  0  0  0
  -21.8819   -3.8148   23.4344 C   0  0  0  0  0  0
  -21.9193   -4.6965   22.3402 C   0  0  0  0  0  0
  -22.7852  -13.5238   21.1848 C   0  0  0  0  0  0
  -22.1662   -4.2152   21.0979 F   0  0  0  0  0  0
  -21.5630   -3.4538   25.7737 F   0  0  0  0  0  0
  -30.0278  -13.3161   20.4381 N   0  0  0  0  0  0
  -26.3000  -12.9349   20.3340 N   0  0  0  0  0  0
  -25.9316  -11.6506   20.5761 N   0  0  0  0  0  0
  -22.0496  -12.8225   22.0400 N   0  0  0  0  0  0
  -25.4291  -15.1892   20.4099 N   0  0  0  0  0  0
  -31.8603  -14.6245   20.1407 O   0  0  0  0  0  0
  -21.6638   -6.8878   21.4240 O   0  0  0  0  0  0
  -22.3541  -14.5548   20.6703 O   0  0  0  0  0  0
  -24.6147  -31.8677   23.2093 C   0  0  0  0  0  0
  -25.9040  -32.4823   23.8392 C   0  0  1  0  0  0
  -27.2328  -27.4317   20.1047 C   0  0  0  0  0  0
  -25.5898  -33.8622   24.2323 N   0  0  0  0  0  0
  -23.4037  -30.4897   21.5495 C   0  0  2  0  0  0
  -24.8526  -28.9540   20.1149 C   0  0  0  0  0  0
  -22.7414  -29.4657   22.4990 C   0  0  0  0  0  0
  -18.0273  -28.1381   22.8498 C   0  0  0  0  0  0
  -24.1482  -36.7309   23.2627 C   0  0  0  0  0  0
  -25.9321  -30.8341   21.3619 C   0  0  0  0  0  0
  -26.0126  -29.4672   20.7107 C   0  0  0  0  0  0
  -27.2101  -28.7141   20.7008 C   0  0  0  0  0  0
  -26.0614  -26.9325   19.5012 C   0  0  0  0  0  0
  -24.8719  -27.6863   19.5057 C   0  0  0  0  0  0
  -23.6130  -29.8195   20.1649 C   0  0  0  0  0  0
  -25.4097  -36.3109   24.0338 C   0  0  1  0  0  0
  -20.5864  -28.3669   23.1324 C   0  0  2  0  0  0
  -20.6762  -26.9404   22.5421 C   0  0  0  0  0  0
  -19.5741  -26.6389   21.5216 C   0  0  0  0  0  0
  -18.1919  -26.7930   22.1627 C   0  0  0  0  0  0
  -19.1523  -28.8842   23.2906 C   0  0  0  0  0  0
  -18.9448  -30.1450   23.8914 C   0  0  0  0  0  0
  -17.6450  -30.6588   24.0568 C   0  0  0  0  0  0
  -25.9039  -34.9481   23.5130 C   0  0  0  0  0  0
  -16.5341  -29.9090   23.6328 C   0  0  0  0  0  0
  -16.7263  -28.6506   23.0351 C   0  0  0  0  0  0
  -26.4469  -31.6597   25.0718 C   0  0  0  0  0  0
  -25.3735  -31.3697   26.1464 C   0  0  0  0  0  0
  -27.0300  -30.3040   24.6087 C   0  0  0  0  0  0
  -27.6046  -32.4315   25.7482 C   0  0  0  0  0  0
  -27.5607  -37.1764   24.8431 C   0  0  0  0  0  0
  -21.4141  -29.3034   22.3728 N   0  0  0  0  0  0
  -26.4265  -37.3817   23.9461 N   0  0  0  0  0  0
  -24.6685  -31.0777   22.0992 N   0  0  0  0  0  0
  -23.4184  -28.8200   23.3033 O   0  0  0  0  0  0
  -28.3680  -26.6544   20.1091 O   0  0  0  0  0  0
  -26.5606  -34.8937   22.4696 O   0  0  0  0  0  0
  -23.5338  -32.1428   23.7485 O   0  0  0  0  0  0
  -29.4159  -18.0204   20.9066 C   0  0  0  0  0  0
  -30.8015  -17.1857   19.0931 C   0  0  0  0  0  0
  -29.4967  -19.3481   20.3863 C   0  0  0  0  0  0
  -30.0727  -16.9253   20.2799 C   0  0  0  0  0  0
  -30.8881  -18.4846   18.5650 C   0  0  0  0  0  0
  -30.2423  -19.5599   19.1989 C   0  0  0  0  0  0
  -28.7537  -20.4848   21.0641 C   0  0  0  0  0  0
  -28.7740  -24.2232   20.5330 C   0  0  0  0  0  0
  -28.3241  -25.5979   21.0895 C   0  0  0  0  0  0
  -28.6535  -22.9785   21.4678 C   0  0  2  0  0  0
  -29.3131  -23.1788   22.8566 C   0  0  0  0  0  0
  -29.9305  -15.5880   20.8044 N   0  0  0  0  0  0
  -29.1634  -21.7451   20.8256 N   0  0  0  0  0  0
  -27.8322  -20.2412   21.8454 O   0  0  0  0  0  0
  -29.2016  -24.1381   19.3743 O   0  0  0  0  0  0
  -31.5905  -18.6986   17.4267 F   0  0  0  0  0  0
  -30.3474  -20.7905   18.6391 F   0  0  0  0  0  0
  -29.2418  -22.0784   23.6067 F   0  0  0  0  0  0
  -28.7136  -24.1595   23.5319 F   0  0  0  0  0  0
  -30.5989  -23.5005   22.7075 F   0  0  0  0  0  0
  -31.4640  -12.3899   19.1431 H   0  0  0  0  0  0
  -30.3051  -11.3047   19.8585 H   0  0  0  0  0  0
  -29.7392  -11.7563   17.4470 H   0  0  0  0  0  0
  -29.6684  -13.4715   17.7655 H   0  0  0  0  0  0
  -27.8271  -11.3035   18.8303 H   0  0  0  0  0  0
  -27.3704  -12.6229   17.7867 H   0  0  0  0  0  0
  -27.6895  -14.2536   19.5495 H   0  0  0  0  0  0
  -28.6727  -12.0095   21.3812 H   0  0  0  0  0  0
  -28.4684  -13.6740   21.8477 H   0  0  0  0  0  0
  -25.2761   -9.5687   22.4761 H   0  0  0  0  0  0
  -24.0002   -7.4635   22.7475 H   0  0  0  0  0  0
  -21.0846   -8.8770   19.8945 H   0  0  0  0  0  0
  -22.3694  -10.9677   19.6164 H   0  0  0  0  0  0
  -21.2008   -7.6150   23.9716 H   0  0  0  0  0  0
  -21.1483   -6.0525   25.9079 H   0  0  0  0  0  0
  -22.0600   -2.7611   23.2844 H   0  0  0  0  0  0
  -22.4111  -11.9879   22.4775 H   0  0  0  0  0  0
  -21.1114  -13.1245   22.2607 H   0  0  0  0  0  0
  -24.6629  -15.8444   20.5203 H   0  0  0  0  0  0
  -26.2806  -15.6289   20.0843 H   0  0  0  0  0  0
  -26.7116  -32.5543   23.1164 H   0  0  0  0  0  0
  -25.0045  -33.9784   25.0466 H   0  0  0  0  0  0
  -22.6920  -31.3060   21.4092 H   0  0  0  0  0  0
  -23.3782  -35.9594   23.3195 H   0  0  0  0  0  0
  -24.3605  -36.9023   22.2063 H   0  0  0  0  0  0
  -23.7169  -37.6456   23.6704 H   0  0  0  0  0  0
  -26.0420  -31.6000   20.5928 H   0  0  0  0  0  0
  -26.8204  -30.8901   21.9792 H   0  0  0  0  0  0
  -28.1066  -29.1045   21.1623 H   0  0  0  0  0  0
  -26.0687  -25.9575   19.0338 H   0  0  0  0  0  0
  -23.9804  -27.2866   19.0426 H   0  0  0  0  0  0
  -23.7181  -30.5930   19.4031 H   0  0  0  0  0  0
  -22.7378  -29.2365   19.8724 H   0  0  0  0  0  0
  -25.1251  -36.1951   25.0822 H   0  0  0  0  0  0
  -20.9959  -28.3233   24.1446 H   0  0  0  0  0  0
  -20.5672  -26.2270   23.3606 H   0  0  0  0  0  0
  -21.6633  -26.7453   22.1209 H   0  0  0  0  0  0
  -19.6901  -25.6307   21.1232 H   0  0  0  0  0  0
  -19.6681  -27.3208   20.6753 H   0  0  0  0  0  0
  -17.4193  -26.6695   21.4023 H   0  0  0  0  0  0
  -18.0309  -26.0066   22.9016 H   0  0  0  0  0  0
  -19.7924  -30.7264   24.2288 H   0  0  0  0  0  0
  -17.5005  -31.6269   24.5169 H   0  0  0  0  0  0
  -15.5342  -30.2996   23.7643 H   0  0  0  0  0  0
  -15.8664  -28.0829   22.7058 H   0  0  0  0  0  0
  -24.5906  -30.7052   25.7793 H   0  0  0  0  0  0
  -24.8932  -32.2850   26.4930 H   0  0  0  0  0  0
  -25.8088  -30.8848   27.0210 H   0  0  0  0  0  0
  -26.2842  -29.6806   24.1143 H   0  0  0  0  0  0
  -27.4075  -29.7274   25.4541 H   0  0  0  0  0  0
  -27.8674  -30.4364   23.9233 H   0  0  0  0  0  0
  -27.2668  -33.3606   26.2085 H   0  0  0  0  0  0
  -28.3842  -32.6886   25.0299 H   0  0  0  0  0  0
  -28.0729  -31.8423   26.5376 H   0  0  0  0  0  0
  -28.2479  -38.0205   24.7718 H   0  0  0  0  0  0
  -28.1252  -36.2764   24.5944 H   0  0  0  0  0  0
  -27.2376  -37.1026   25.8829 H   0  0  0  0  0  0
  -20.9300  -29.8753   21.6948 H   0  0  0  0  0  0
  -26.0143  -38.2856   24.1613 H   0  0  0  0  0  0
  -28.8360  -17.8446   21.8025 H   0  0  0  0  0  0
  -31.2963  -16.3977   18.5463 H   0  0  0  0  0  0
  -28.9917  -25.8842   21.9014 H   0  0  0  0  0  0
  -27.3269  -25.4909   21.5196 H   0  0  0  0  0  0
  -27.5869  -22.8322   21.6437 H   0  0  0  0  0  0
  -29.0605  -15.3866   21.2737 H   0  0  0  0  0  0
  -29.8957  -21.8742   20.1399 H   0  0  0  0  0  0
  1 25  1  0  0  0
  1 30  2  0  0  0
  1 82  1  0  0  0
  2  3  1  0  0  0
  2 25  1  0  0  0
  2 91  1  0  0  0
  2 92  1  0  0  0
  3  4  1  0  0  0
  3 93  1  0  0  0
  3 94  1  0  0  0
  4  5  1  0  0  0
  4 95  1  0  0  0
  4 96  1  0  0  0
  5  6  1  0  0  0
  5 26  1  0  0  0
  5 97  1  0  0  0
  6 25  1  0  0  0
  6 98  1  0  0  0
  6 99  1  0  0  0
  7  8  2  0  0  0
  7 26  1  0  0  0
  7 29  1  0  0  0
  8  9  1  0  0  0
  8 22  1  0  0  0
  9 10  1  0  0  0
  9 27  2  0  0  0
 10 11  2  0  0  0
 10 15  1  0  0  0
 11 12  1  0  0  0
 11100  1  0  0  0
 12 13  2  0  0  0
 12101  1  0  0  0
 13 14  1  0  0  0
 13 31  1  0  0  0
 14 15  2  0  0  0
 14102  1  0  0  0
 15103  1  0  0  0
 16 17  2  0  0  0
 16 21  1  0  0  0
 16 31  1  0  0  0
 17 18  1  0  0  0
 17104  1  0  0  0
 18 19  2  0  0  0
 18105  1  0  0  0
 19 20  1  0  0  0
 19 24  1  0  0  0
 20 21  2  0  0  0
 20106  1  0  0  0
 21 23  1  0  0  0
 22 28  1  0  0  0
 22 32  2  0  0  0
 26 27  1  0  0  0
 28107  1  0  0  0
 28108  1  0  0  0
 29109  1  0  0  0
 29110  1  0  0  0
 33 34  1  0  0  0
 33 66  1  0  0  0
 33 70  2  0  0  0
 34 36  1  0  0  0
 34 59  1  0  0  0
 34111  1  0  0  0
 35 44  2  0  0  0
 35 45  1  0  0  0
 35 68  1  0  0  0
 36 56  1  0  0  0
 36112  1  0  0  0
 37 39  1  0  0  0
 37 47  1  0  0  0
 37 66  1  0  0  0
 37113  1  0  0  0
 38 43  2  0  0  0
 38 46  1  0  0  0
 38 47  1  0  0  0
 39 64  1  0  0  0
 39 67  2  0  0  0
 40 52  1  0  0  0
 40 53  2  0  0  0
 40 58  1  0  0  0
 41114  1  0  0  0
 41115  1  0  0  0
 41116  1  0  0  0
 41 48  1  0  0  0
 42 43  1  0  0  0
 42 66  1  0  0  0
 42117  1  0  0  0
 42118  1  0  0  0
 43 44  1  0  0  0
 44119  1  0  0  0
 45 46  2  0  0  0
 45120  1  0  0  0
 46121  1  0  0  0
 47122  1  0  0  0
 47123  1  0  0  0
 48 56  1  0  0  0
 48 65  1  0  0  0
 48124  1  0  0  0
 49 50  1  0  0  0
 49 53  1  0  0  0
 49 64  1  0  0  0
 49125  1  0  0  0
 50 51  1  0  0  0
 50126  1  0  0  0
 50127  1  0  0  0
 51 52  1  0  0  0
 51128  1  0  0  0
 51129  1  0  0  0
 52130  1  0  0  0
 52131  1  0  0  0
 53 54  1  0  0  0
 54 55  2  0  0  0
 54132  1  0  0  0
 55 57  1  0  0  0
 55133  1  0  0  0
 56 69  2  0  0  0
 57 58  2  0  0  0
 57134  1  0  0  0
 58135  1  0  0  0
 59 60  1  0  0  0
 59 61  1  0  0  0
 59 62  1  0  0  0
 60136  1  0  0  0
 60137  1  0  0  0
 60138  1  0  0  0
 61139  1  0  0  0
 61140  1  0  0  0
 61141  1  0  0  0
 62142  1  0  0  0
 62143  1  0  0  0
 62144  1  0  0  0
 63 65  1  0  0  0
 63145  1  0  0  0
 63146  1  0  0  0
 63147  1  0  0  0
 64148  1  0  0  0
 65149  1  0  0  0
 68 79  1  0  0  0
 71 73  2  0  0  0
 71 74  1  0  0  0
 71150  1  0  0  0
 72 74  2  0  0  0
 72 75  1  0  0  0
 72151  1  0  0  0
 73 76  1  0  0  0
 73 77  1  0  0  0
 74 82  1  0  0  0
 75 76  2  0  0  0
 75 86  1  0  0  0
 76 87  1  0  0  0
 77 83  1  0  0  0
 77 84  2  0  0  0
 78 79  1  0  0  0
 78 80  1  0  0  0
 78 85  2  0  0  0
 79152  1  0  0  0
 79153  1  0  0  0
 80 81  1  0  0  0
 80 83  1  0  0  0
 80154  1  0  0  0
 81 88  1  0  0  0
 81 89  1  0  0  0
 81 90  1  0  0  0
 82155  1  0  0  0
 83156  1  0  0  0
M  ISO  4   1 100  68 101  79 101  82 100
M  END
> <chiral flag>
0

> <version>
0

> <s_m_source_file>
/data/baiqing/PycharmProjects/Reinvent-master-3.2/result/LINK_invent/BTK/process_docking_weight1_custom_product_contain_oxygen_bond_distance_aromatic_linkinvent_7_9_3/rearranged_h_0171.sdf

> <i_m_source_file_index>
32

> <r_mmod_Potential_Energy-OPLS-2005>
-186.211273193359

> <r_mmod_Stretch_Energy-OPLS-2005>
44.2775840759277

> <r_mmod_Bend_Energy-OPLS-2005>
95.2326431274414

> <r_mmod_Torsional_Energy-OPLS-2005>
248.196884155273

> <r_mmod_Improper_Torsional_Energy-OPLS-2005>
5.17254543304443

> <r_mmod_Van_der_Waal_Energy-OPLS-2005>
162.311065673828

> <r_mmod_Electrostatic_Energy-OPLS-2005>
-537.634033203125

> <r_mmod_Solvation_Energy-OPLS-2005>
-222.27067565918

> <b_mmod_Minimization_Converged-OPLS-2005>
0

> <r_mmod_RMS_Derivative-OPLS-2005>
0.517354011535645

$$$$
32
                    3D
 Structure written by MMmdl.
153161  0  0  1  0            999 V2000
  -30.6925  -14.5133   20.5444 C   0  0  0  0  0  0
  -30.4215  -12.3251   19.4311 C   0  0  0  0  0  0
  -29.4941  -12.4945   18.2101 C   0  0  0  0  0  0
  -28.0162  -12.3536   18.6248 C   0  0  0  0  0  0
  -27.6562  -13.2109   19.8678 C   0  0  2  0  0  0
  -28.6997  -13.0268   20.9928 C   0  0  0  0  0  0
  -25.2572  -13.8173   20.5687 C   0  0  0  0  0  0
  -24.1827  -13.0441   20.9171 C   0  0  0  0  0  0
  -24.6390  -11.6911   20.8727 C   0  0  0  0  0  0
  -23.9061  -10.4294   21.0398 C   0  0  0  0  0  0
  -24.3615   -9.4209   21.9177 C   0  0  0  0  0  0
  -23.6291   -8.2245   22.0750 C   0  0  0  0  0  0
  -22.4272   -8.0282   21.3545 C   0  0  0  0  0  0
  -21.9908   -9.0251   20.4646 C   0  0  0  0  0  0
  -22.7233  -10.2132   20.3050 C   0  0  0  0  0  0
  -21.6855   -6.0733   22.5278 C   0  0  0  0  0  0
  -21.4012   -6.5637   23.8209 C   0  0  0  0  0  0
  -21.3657   -5.6791   24.9173 C   0  0  0  0  0  0
  -21.6046   -4.3055   24.7225 C   0  0  0  0  0  0
  -21.8822   -3.8145   23.4348 C   0  0  0  0  0  0
  -21.9192   -4.6960   22.3403 C   0  0  0  0  0  0
  -22.7851  -13.5232   21.1843 C   0  0  0  0  0  0
  -22.1662   -4.2144   21.0981 F   0  0  0  0  0  0
  -21.5630   -3.4540   25.7740 F   0  0  0  0  0  0
  -30.0250  -13.3305   20.4313 N   0  0  0  0  0  0
  -26.3002  -12.9347   20.3348 N   0  0  0  0  0  0
  -25.9317  -11.6505   20.5764 N   0  0  0  0  0  0
  -22.0506  -12.8218   22.0406 N   0  0  0  0  0  0
  -25.4293  -15.1897   20.4138 N   0  0  0  0  0  0
  -31.8391  -14.6539   20.1121 O   0  0  0  0  0  0
  -21.6641   -6.8877   21.4242 O   0  0  0  0  0  0
  -22.3526  -14.5539   20.6702 O   0  0  0  0  0  0
  -24.6172  -31.8659   23.2077 C   0  0  0  0  0  0
  -25.9055  -32.4813   23.8380 C   0  0  1  0  0  0
  -27.2299  -27.4128   20.1068 C   0  0  0  0  0  0
  -25.5898  -33.8610   24.2312 N   0  0  0  0  0  0
  -23.4070  -30.4893   21.5482 C   0  0  2  0  0  0
  -24.8540  -28.9531   20.1117 C   0  0  0  0  0  0
  -22.7425  -29.4653   22.4975 C   0  0  0  0  0  0
  -18.0275  -28.1388   22.8492 C   0  0  0  0  0  0
  -24.1489  -36.7317   23.2639 C   0  0  0  0  0  0
  -25.9373  -30.8278   21.3615 C   0  0  0  0  0  0
  -26.0165  -29.4612   20.7069 C   0  0  0  0  0  0
  -27.2115  -28.7006   20.6963 C   0  0  0  0  0  0
  -26.0540  -26.9264   19.4988 C   0  0  0  0  0  0
  -24.8691  -27.6867   19.5014 C   0  0  0  0  0  0
  -23.6162  -29.8213   20.1633 C   0  0  0  0  0  0
  -25.4109  -36.3106   24.0335 C   0  0  1  0  0  0
  -20.5866  -28.3678   23.1317 C   0  0  2  0  0  0
  -20.6764  -26.9413   22.5423 C   0  0  0  0  0  0
  -19.5741  -26.6389   21.5223 C   0  0  0  0  0  0
  -18.1916  -26.7931   22.1627 C   0  0  0  0  0  0
  -19.1523  -28.8847   23.2902 C   0  0  0  0  0  0
  -18.9453  -30.1450   23.8918 C   0  0  0  0  0  0
  -17.6457  -30.6593   24.0568 C   0  0  0  0  0  0
  -25.9040  -34.9470   23.5125 C   0  0  0  0  0  0
  -16.5345  -29.9096   23.6332 C   0  0  0  0  0  0
  -16.7263  -28.6516   23.0352 C   0  0  0  0  0  0
  -26.4477  -31.6592   25.0715 C   0  0  0  0  0  0
  -25.3743  -31.3690   26.1465 C   0  0  0  0  0  0
  -27.0310  -30.3036   24.6094 C   0  0  0  0  0  0
  -27.6058  -32.4308   25.7473 C   0  0  0  0  0  0
  -27.5579  -37.1809   24.8463 C   0  0  0  0  0  0
  -21.4148  -29.3040   22.3717 N   0  0  0  0  0  0
  -26.4293  -37.3792   23.9407 N   0  0  0  0  0  0
  -24.6723  -31.0753   22.0977 N   0  0  0  0  0  0
  -23.4183  -28.8200   23.3031 O   0  0  0  0  0  0
  -28.3625  -26.6212   20.1324 O   0  0  0  0  0  0
  -26.5607  -34.8924   22.4692 O   0  0  0  0  0  0
  -23.5361  -32.1411   23.7467 O   0  0  0  0  0  0
  -31.9370  -18.7729   21.3030 C   0  0  0  0  0  0
  -30.9088  -19.7306   21.2312 C   0  0  0  0  0  0
  -31.6431  -17.4003   21.2192 C   0  0  0  0  0  0
  -29.5608  -19.3362   21.0610 C   0  0  0  0  0  0
  -30.3108  -16.9592   21.0432 C   0  0  0  0  0  0
  -29.2770  -17.9347   20.9702 C   0  0  0  0  0  0
  -28.4605  -20.3878   21.0862 C   0  0  0  0  0  0
  -28.0021  -22.7565   20.6367 C   0  0  0  0  0  0
  -28.5766  -24.0740   20.0416 C   0  0  0  0  0  0
  -28.2056  -25.3652   20.8430 C   0  0  0  0  0  0
  -29.9606  -15.5630   20.9883 N   0  0  0  0  0  0
  -28.7729  -21.6345   20.6334 N   0  0  0  0  0  0
  -27.3441  -20.0700   21.5125 O   0  0  0  0  0  0
  -26.8469  -22.7870   21.0763 O   0  0  0  0  0  0
  -28.0053  -17.4894   20.8089 F   0  0  0  0  0  0
  -31.4652  -12.4227   19.1274 H   0  0  0  0  0  0
  -30.3279  -11.3223   19.8507 H   0  0  0  0  0  0
  -29.7385  -11.7547   17.4468 H   0  0  0  0  0  0
  -29.6565  -13.4717   17.7526 H   0  0  0  0  0  0
  -27.8345  -11.2994   18.8385 H   0  0  0  0  0  0
  -27.3638  -12.6092   17.7891 H   0  0  0  0  0  0
  -27.6887  -14.2527   19.5472 H   0  0  0  0  0  0
  -28.6840  -12.0010   21.3643 H   0  0  0  0  0  0
  -28.4614  -13.6540   21.8532 H   0  0  0  0  0  0
  -25.2764   -9.5686   22.4747 H   0  0  0  0  0  0
  -24.0003   -7.4637   22.7468 H   0  0  0  0  0  0
  -21.0839   -8.8770   19.8952 H   0  0  0  0  0  0
  -22.3693  -10.9670   19.6156 H   0  0  0  0  0  0
  -21.2005   -7.6145   23.9712 H   0  0  0  0  0  0
  -21.1476   -6.0522   25.9075 H   0  0  0  0  0  0
  -22.0603   -2.7607   23.2851 H   0  0  0  0  0  0
  -22.4132  -11.9875   22.4779 H   0  0  0  0  0  0
  -21.1127  -13.1237   22.2630 H   0  0  0  0  0  0
  -24.6688  -15.8467   20.5494 H   0  0  0  0  0  0
  -26.2942  -15.6429   20.1454 H   0  0  0  0  0  0
  -26.7127  -32.5525   23.1143 H   0  0  0  0  0  0
  -25.0040  -33.9759   25.0450 H   0  0  0  0  0  0
  -22.6974  -31.3076   21.4073 H   0  0  0  0  0  0
  -23.3744  -35.9659   23.3314 H   0  0  0  0  0  0
  -24.3581  -36.8927   22.2053 H   0  0  0  0  0  0
  -23.7253  -37.6528   23.6651 H   0  0  0  0  0  0
  -26.0518  -31.5936   20.5930 H   0  0  0  0  0  0
  -26.8242  -30.8813   21.9814 H   0  0  0  0  0  0
  -28.1077  -29.0842   21.1631 H   0  0  0  0  0  0
  -26.0521  -25.9494   19.0362 H   0  0  0  0  0  0
  -23.9763  -27.2888   19.0392 H   0  0  0  0  0  0
  -23.7230  -30.5958   19.4028 H   0  0  0  0  0  0
  -22.7397  -29.2417   19.8688 H   0  0  0  0  0  0
  -25.1286  -36.1967   25.0827 H   0  0  0  0  0  0
  -20.9960  -28.3250   24.1437 H   0  0  0  0  0  0
  -20.5685  -26.2283   23.3613 H   0  0  0  0  0  0
  -21.6629  -26.7464   22.1201 H   0  0  0  0  0  0
  -19.6909  -25.6306   21.1240 H   0  0  0  0  0  0
  -19.6683  -27.3211   20.6764 H   0  0  0  0  0  0
  -17.4190  -26.6692   21.4025 H   0  0  0  0  0  0
  -18.0307  -26.0073   22.9024 H   0  0  0  0  0  0
  -19.7930  -30.7256   24.2296 H   0  0  0  0  0  0
  -17.5014  -31.6275   24.5165 H   0  0  0  0  0  0
  -15.5348  -30.3007   23.7649 H   0  0  0  0  0  0
  -15.8659  -28.0842   22.7059 H   0  0  0  0  0  0
  -24.5919  -30.7036   25.7800 H   0  0  0  0  0  0
  -24.8925  -32.2834   26.4932 H   0  0  0  0  0  0
  -25.8093  -30.8845   27.0214 H   0  0  0  0  0  0
  -26.2845  -29.6791   24.1170 H   0  0  0  0  0  0
  -27.4108  -29.7282   25.4547 H   0  0  0  0  0  0
  -27.8668  -30.4360   23.9221 H   0  0  0  0  0  0
  -27.2688  -33.3604   26.2071 H   0  0  0  0  0  0
  -28.3850  -32.6875   25.0285 H   0  0  0  0  0  0
  -28.0742  -31.8415   26.5367 H   0  0  0  0  0  0
  -28.2603  -38.0102   24.7506 H   0  0  0  0  0  0
  -28.1066  -36.2630   24.6289 H   0  0  0  0  0  0
  -27.2292  -37.1465   25.8866 H   0  0  0  0  0  0
  -20.9312  -29.8762   21.6936 H   0  0  0  0  0  0
  -26.0184  -38.2873   24.1402 H   0  0  0  0  0  0
  -32.9608  -19.0917   21.4442 H   0  0  0  0  0  0
  -31.1726  -20.7731   21.3397 H   0  0  0  0  0  0
  -32.4603  -16.7000   21.3088 H   0  0  0  0  0  0
  -28.1757  -24.1595   19.0317 H   0  0  0  0  0  0
  -29.6591  -24.0039   19.9358 H   0  0  0  0  0  0
  -28.8516  -25.4171   21.7196 H   0  0  0  0  0  0
  -27.1982  -25.2793   21.2547 H   0  0  0  0  0  0
  -28.9927  -15.3588   21.1863 H   0  0  0  0  0  0
  -29.7028  -21.7332   20.2603 H   0  0  0  0  0  0
  1 25  1  0  0  0
  1 30  2  0  0  0
  1 81  1  0  0  0
  2  3  1  0  0  0
  2 25  1  0  0  0
  2 86  1  0  0  0
  2 87  1  0  0  0
  3  4  1  0  0  0
  3 88  1  0  0  0
  3 89  1  0  0  0
  4  5  1  0  0  0
  4 90  1  0  0  0
  4 91  1  0  0  0
  5  6  1  0  0  0
  5 26  1  0  0  0
  5 92  1  0  0  0
  6 25  1  0  0  0
  6 93  1  0  0  0
  6 94  1  0  0  0
  7  8  2  0  0  0
  7 26  1  0  0  0
  7 29  1  0  0  0
  8  9  1  0  0  0
  8 22  1  0  0  0
  9 10  1  0  0  0
  9 27  2  0  0  0
 10 11  2  0  0  0
 10 15  1  0  0  0
 11 12  1  0  0  0
 11 95  1  0  0  0
 12 13  2  0  0  0
 12 96  1  0  0  0
 13 14  1  0  0  0
 13 31  1  0  0  0
 14 15  2  0  0  0
 14 97  1  0  0  0
 15 98  1  0  0  0
 16 17  2  0  0  0
 16 21  1  0  0  0
 16 31  1  0  0  0
 17 18  1  0  0  0
 17 99  1  0  0  0
 18 19  2  0  0  0
 18100  1  0  0  0
 19 20  1  0  0  0
 19 24  1  0  0  0
 20 21  2  0  0  0
 20101  1  0  0  0
 21 23  1  0  0  0
 22 28  1  0  0  0
 22 32  2  0  0  0
 26 27  1  0  0  0
 28102  1  0  0  0
 28103  1  0  0  0
 29104  1  0  0  0
 29105  1  0  0  0
 33 34  1  0  0  0
 33 66  1  0  0  0
 33 70  2  0  0  0
 34 36  1  0  0  0
 34 59  1  0  0  0
 34106  1  0  0  0
 35 44  2  0  0  0
 35 45  1  0  0  0
 35 68  1  0  0  0
 36 56  1  0  0  0
 36107  1  0  0  0
 37 39  1  0  0  0
 37 47  1  0  0  0
 37 66  1  0  0  0
 37108  1  0  0  0
 38 43  2  0  0  0
 38 46  1  0  0  0
 38 47  1  0  0  0
 39 64  1  0  0  0
 39 67  2  0  0  0
 40 52  1  0  0  0
 40 53  2  0  0  0
 40 58  1  0  0  0
 41109  1  0  0  0
 41110  1  0  0  0
 41111  1  0  0  0
 41 48  1  0  0  0
 42 43  1  0  0  0
 42 66  1  0  0  0
 42112  1  0  0  0
 42113  1  0  0  0
 43 44  1  0  0  0
 44114  1  0  0  0
 45 46  2  0  0  0
 45115  1  0  0  0
 46116  1  0  0  0
 47117  1  0  0  0
 47118  1  0  0  0
 48 56  1  0  0  0
 48 65  1  0  0  0
 48119  1  0  0  0
 49 50  1  0  0  0
 49 53  1  0  0  0
 49 64  1  0  0  0
 49120  1  0  0  0
 50 51  1  0  0  0
 50121  1  0  0  0
 50122  1  0  0  0
 51 52  1  0  0  0
 51123  1  0  0  0
 51124  1  0  0  0
 52125  1  0  0  0
 52126  1  0  0  0
 53 54  1  0  0  0
 54 55  2  0  0  0
 54127  1  0  0  0
 55 57  1  0  0  0
 55128  1  0  0  0
 56 69  2  0  0  0
 57 58  2  0  0  0
 57129  1  0  0  0
 58130  1  0  0  0
 59 60  1  0  0  0
 59 61  1  0  0  0
 59 62  1  0  0  0
 60131  1  0  0  0
 60132  1  0  0  0
 60133  1  0  0  0
 61134  1  0  0  0
 61135  1  0  0  0
 61136  1  0  0  0
 62137  1  0  0  0
 62138  1  0  0  0
 62139  1  0  0  0
 63 65  1  0  0  0
 63140  1  0  0  0
 63141  1  0  0  0
 63142  1  0  0  0
 64143  1  0  0  0
 65144  1  0  0  0
 68 80  1  0  0  0
 71 72  2  0  0  0
 71 73  1  0  0  0
 71145  1  0  0  0
 72 74  1  0  0  0
 72146  1  0  0  0
 73 75  2  0  0  0
 73147  1  0  0  0
 74 76  2  0  0  0
 74 77  1  0  0  0
 75 76  1  0  0  0
 75 81  1  0  0  0
 76 85  1  0  0  0
 77 82  1  0  0  0
 77 83  2  0  0  0
 78 79  1  0  0  0
 78 82  1  0  0  0
 78 84  2  0  0  0
 79 80  1  0  0  0
 79148  1  0  0  0
 79149  1  0  0  0
 80150  1  0  0  0
 80151  1  0  0  0
 81152  1  0  0  0
 82153  1  0  0  0
M  ISO  4   1 100  68 101  80 101  81 100
M  END
> <chiral flag>
0

> <version>
0

> <s_m_source_file>
/data/baiqing/PycharmProjects/Reinvent-master-3.2/result/LINK_invent/BTK/process_docking_weight1_custom_product_contain_oxygen_bond_distance_aromatic_linkinvent_7_9_3/rearranged_h_0171.sdf

> <i_m_source_file_index>
33

> <r_mmod_Potential_Energy-OPLS-2005>
-173.383407592773

> <r_mmod_Stretch_Energy-OPLS-2005>
47.5752830505371

> <r_mmod_Bend_Energy-OPLS-2005>
102.347923278809

> <r_mmod_Torsional_Energy-OPLS-2005>
241.30859375

> <r_mmod_Improper_Torsional_Energy-OPLS-2005>
4.32070302963257

> <r_mmod_Van_der_Waal_Energy-OPLS-2005>
162.945755004883

> <r_mmod_Electrostatic_Energy-OPLS-2005>
-490.368255615234

> <r_mmod_Solvation_Energy-OPLS-2005>
-260.636962890625

> <b_mmod_Minimization_Converged-OPLS-2005>
0

> <r_mmod_RMS_Derivative-OPLS-2005>
0.761503934860229

$$$$
33
                    3D
 Structure written by MMmdl.
154162  0  0  1  0            999 V2000
  -30.6967  -14.4971   20.5790 C   0  0  0  0  0  0
  -30.4241  -12.3203   19.4410 C   0  0  0  0  0  0
  -29.4985  -12.5090   18.2208 C   0  0  0  0  0  0
  -28.0197  -12.3617   18.6288 C   0  0  0  0  0  0
  -27.6615  -13.2085   19.8792 C   0  0  2  0  0  0
  -28.7006  -13.0004   21.0053 C   0  0  0  0  0  0
  -25.2583  -13.8168   20.5703 C   0  0  0  0  0  0
  -24.1831  -13.0448   20.9202 C   0  0  0  0  0  0
  -24.6388  -11.6915   20.8753 C   0  0  0  0  0  0
  -23.9061  -10.4305   21.0406 C   0  0  0  0  0  0
  -24.3615   -9.4224   21.9181 C   0  0  0  0  0  0
  -23.6306   -8.2249   22.0746 C   0  0  0  0  0  0
  -22.4282   -8.0289   21.3542 C   0  0  0  0  0  0
  -21.9916   -9.0257   20.4636 C   0  0  0  0  0  0
  -22.7236  -10.2145   20.3057 C   0  0  0  0  0  0
  -21.6853   -6.0754   22.5291 C   0  0  0  0  0  0
  -21.4003   -6.5652   23.8226 C   0  0  0  0  0  0
  -21.3666   -5.6800   24.9185 C   0  0  0  0  0  0
  -21.6048   -4.3065   24.7229 C   0  0  0  0  0  0
  -21.8818   -3.8164   23.4350 C   0  0  0  0  0  0
  -21.9190   -4.6982   22.3409 C   0  0  0  0  0  0
  -22.7855  -13.5244   21.1882 C   0  0  0  0  0  0
  -22.1657   -4.2174   21.0983 F   0  0  0  0  0  0
  -21.5639   -3.4544   25.7738 F   0  0  0  0  0  0
  -30.0360  -13.3082   20.4641 N   0  0  0  0  0  0
  -26.3015  -12.9336   20.3383 N   0  0  0  0  0  0
  -25.9313  -11.6498   20.5784 N   0  0  0  0  0  0
  -22.0496  -12.8212   22.0426 N   0  0  0  0  0  0
  -25.4338  -15.1883   20.4109 N   0  0  0  0  0  0
  -31.8013  -14.6873   20.0599 O   0  0  0  0  0  0
  -21.6639   -6.8893   21.4250 O   0  0  0  0  0  0
  -22.3536  -14.5558   20.6757 O   0  0  0  0  0  0
  -24.6172  -31.8671   23.2115 C   0  0  0  0  0  0
  -25.9059  -32.4815   23.8408 C   0  0  1  0  0  0
  -27.2251  -27.3985   20.1035 C   0  0  0  0  0  0
  -25.5913  -33.8619   24.2325 N   0  0  0  0  0  0
  -23.4059  -30.4933   21.5522 C   0  0  2  0  0  0
  -24.8524  -28.9653   20.1088 C   0  0  0  0  0  0
  -22.7428  -29.4650   22.4975 C   0  0  0  0  0  0
  -18.0276  -28.1379   22.8481 C   0  0  0  0  0  0
  -24.1488  -36.7317   23.2637 C   0  0  0  0  0  0
  -25.9404  -30.8211   21.3725 C   0  0  0  0  0  0
  -26.0161  -29.4564   20.7136 C   0  0  0  0  0  0
  -27.2048  -28.6819   20.7081 C   0  0  0  0  0  0
  -26.0427  -26.9518   19.4610 C   0  0  0  0  0  0
  -24.8639  -27.7145   19.4759 C   0  0  0  0  0  0
  -23.6155  -29.8338   20.1641 C   0  0  0  0  0  0
  -25.4113  -36.3111   24.0329 C   0  0  1  0  0  0
  -20.5869  -28.3668   23.1310 C   0  0  2  0  0  0
  -20.6773  -26.9403   22.5413 C   0  0  0  0  0  0
  -19.5758  -26.6386   21.5207 C   0  0  0  0  0  0
  -18.1936  -26.7924   22.1614 C   0  0  0  0  0  0
  -19.1526  -28.8840   23.2887 C   0  0  0  0  0  0
  -18.9457  -30.1446   23.8900 C   0  0  0  0  0  0
  -17.6460  -30.6587   24.0560 C   0  0  0  0  0  0
  -25.9039  -34.9470   23.5121 C   0  0  0  0  0  0
  -16.5349  -29.9089   23.6329 C   0  0  0  0  0  0
  -16.7264  -28.6504   23.0349 C   0  0  0  0  0  0
  -26.4475  -31.6610   25.0752 C   0  0  0  0  0  0
  -25.3726  -31.3714   26.1491 C   0  0  0  0  0  0
  -27.0318  -30.3054   24.6154 C   0  0  0  0  0  0
  -27.6066  -32.4318   25.7506 C   0  0  0  0  0  0
  -27.5579  -37.1817   24.8463 C   0  0  0  0  0  0
  -21.4154  -29.3032   22.3721 N   0  0  0  0  0  0
  -26.4301  -37.3794   23.9399 N   0  0  0  0  0  0
  -24.6726  -31.0749   22.1032 N   0  0  0  0  0  0
  -23.4193  -28.8183   23.3016 O   0  0  0  0  0  0
  -28.3597  -26.5971   20.1745 O   0  0  0  0  0  0
  -26.5606  -34.8916   22.4680 O   0  0  0  0  0  0
  -23.5356  -32.1444   23.7487 O   0  0  0  0  0  0
  -30.0252  -19.3846   21.1593 C   0  0  0  0  0  0
  -30.3177  -18.8647   19.9125 C   0  0  0  0  0  0
  -30.1565  -16.8900   21.0676 C   0  0  0  0  0  0
  -29.8582  -20.7733   21.6985 C   0  0  0  0  0  0
  -29.0998  -24.2329   20.7592 C   0  0  0  0  0  0
  -28.0803  -23.0423   22.8219 C   0  0  0  0  0  0
  -28.1184  -25.1730   20.0134 C   0  0  0  0  0  0
  -28.4761  -22.9226   21.3333 C   0  0  2  0  0  0
  -30.3803  -17.4633   19.8747 N   0  0  0  0  0  0
  -30.5366  -19.5794   18.7308 N   0  0  0  0  0  0
  -30.0585  -15.4733   21.2612 N   0  0  0  0  0  0
  -29.1242  -21.6351   20.9635 N   0  0  0  0  0  0
  -30.3132  -21.0627   22.8084 O   0  0  0  0  0  0
  -30.2923  -24.5270   20.8840 O   0  0  0  0  0  0
  -29.8506  -18.0805   22.3341 S   0  0  0  0  0  0
  -31.4694  -12.4184   19.1419 H   0  0  0  0  0  0
  -30.3268  -11.3112   19.8436 H   0  0  0  0  0  0
  -29.7480  -11.7841   17.4451 H   0  0  0  0  0  0
  -29.6600  -13.4957   17.7840 H   0  0  0  0  0  0
  -27.8354  -11.3056   18.8306 H   0  0  0  0  0  0
  -27.3695  -12.6279   17.7936 H   0  0  0  0  0  0
  -27.7047  -14.2548   19.5752 H   0  0  0  0  0  0
  -28.6780  -11.9669   21.3524 H   0  0  0  0  0  0
  -28.4485  -13.6025   21.8791 H   0  0  0  0  0  0
  -25.2763   -9.5709   22.4748 H   0  0  0  0  0  0
  -24.0042   -7.4630   22.7440 H   0  0  0  0  0  0
  -21.0864   -8.8767   19.8915 H   0  0  0  0  0  0
  -22.3703  -10.9683   19.6165 H   0  0  0  0  0  0
  -21.1980   -7.6158   23.9742 H   0  0  0  0  0  0
  -21.1489   -6.0522   25.9091 H   0  0  0  0  0  0
  -22.0588   -2.7629   23.2837 H   0  0  0  0  0  0
  -22.4114  -11.9868   22.4794 H   0  0  0  0  0  0
  -21.1109  -13.1215   22.2629 H   0  0  0  0  0  0
  -24.6739  -15.8508   20.5208 H   0  0  0  0  0  0
  -26.2928  -15.6218   20.0958 H   0  0  0  0  0  0
  -26.7123  -32.5498   23.1164 H   0  0  0  0  0  0
  -25.0067  -33.9787   25.0475 H   0  0  0  0  0  0
  -22.6941  -31.3106   21.4155 H   0  0  0  0  0  0
  -23.3741  -35.9658   23.3321 H   0  0  0  0  0  0
  -24.3575  -36.8920   22.2046 H   0  0  0  0  0  0
  -23.7260  -37.6535   23.6641 H   0  0  0  0  0  0
  -26.0624  -31.5874   20.6060 H   0  0  0  0  0  0
  -26.8248  -30.8680   21.9961 H   0  0  0  0  0  0
  -28.0960  -29.0510   21.1955 H   0  0  0  0  0  0
  -25.9958  -26.0056   18.9416 H   0  0  0  0  0  0
  -23.9743  -27.3366   18.9916 H   0  0  0  0  0  0
  -23.7238  -30.6130   19.4088 H   0  0  0  0  0  0
  -22.7376  -29.2581   19.8643 H   0  0  0  0  0  0
  -25.1289  -36.1981   25.0824 H   0  0  0  0  0  0
  -20.9941  -28.3224   24.1438 H   0  0  0  0  0  0
  -20.5695  -26.2259   23.3590 H   0  0  0  0  0  0
  -21.6644  -26.7466   22.1193 H   0  0  0  0  0  0
  -19.6933  -25.6301   21.1233 H   0  0  0  0  0  0
  -19.6714  -27.3195   20.6736 H   0  0  0  0  0  0
  -17.4206  -26.6664   21.4017 H   0  0  0  0  0  0
  -18.0345  -26.0067   22.9012 H   0  0  0  0  0  0
  -19.7937  -30.7260   24.2269 H   0  0  0  0  0  0
  -17.5021  -31.6267   24.5165 H   0  0  0  0  0  0
  -15.5354  -30.2996   23.7660 H   0  0  0  0  0  0
  -15.8659  -28.0830   22.7070 H   0  0  0  0  0  0
  -24.5902  -30.7063   25.7814 H   0  0  0  0  0  0
  -24.8905  -32.2859   26.4951 H   0  0  0  0  0  0
  -25.8063  -30.8872   27.0250 H   0  0  0  0  0  0
  -26.2880  -29.6812   24.1187 H   0  0  0  0  0  0
  -27.4066  -29.7302   25.4632 H   0  0  0  0  0  0
  -27.8719  -30.4384   23.9334 H   0  0  0  0  0  0
  -27.2721  -33.3616   26.2116 H   0  0  0  0  0  0
  -28.3857  -32.6882   25.0313 H   0  0  0  0  0  0
  -28.0752  -31.8416   26.5391 H   0  0  0  0  0  0
  -28.2609  -38.0102   24.7492 H   0  0  0  0  0  0
  -28.1065  -36.2635   24.6311 H   0  0  0  0  0  0
  -27.2286  -37.1488   25.8863 H   0  0  0  0  0  0
  -20.9322  -29.8738   21.6927 H   0  0  0  0  0  0
  -26.0189  -38.2872   24.1401 H   0  0  0  0  0  0
  -27.5482  -22.1555   23.1674 H   0  0  0  0  0  0
  -27.4213  -23.8956   22.9899 H   0  0  0  0  0  0
  -28.9495  -23.1848   23.4651 H   0  0  0  0  0  0
  -27.1309  -24.9205   20.4003 H   0  0  0  0  0  0
  -28.1313  -24.9228   18.9520 H   0  0  0  0  0  0
  -27.5207  -22.8137   20.8210 H   0  0  0  0  0  0
  -30.7862  -20.5607   18.7757 H   0  0  0  0  0  0
  -30.9281  -19.0973   17.9288 H   0  0  0  0  0  0
  -29.3147  -15.1698   21.8698 H   0  0  0  0  0  0
  -28.8521  -21.2829   20.0553 H   0  0  0  0  0  0
  1 25  1  0  0  0
  1 30  2  0  0  0
  1 81  1  0  0  0
  2  3  1  0  0  0
  2 25  1  0  0  0
  2 86  1  0  0  0
  2 87  1  0  0  0
  3  4  1  0  0  0
  3 88  1  0  0  0
  3 89  1  0  0  0
  4  5  1  0  0  0
  4 90  1  0  0  0
  4 91  1  0  0  0
  5  6  1  0  0  0
  5 26  1  0  0  0
  5 92  1  0  0  0
  6 25  1  0  0  0
  6 93  1  0  0  0
  6 94  1  0  0  0
  7  8  2  0  0  0
  7 26  1  0  0  0
  7 29  1  0  0  0
  8  9  1  0  0  0
  8 22  1  0  0  0
  9 10  1  0  0  0
  9 27  2  0  0  0
 10 11  2  0  0  0
 10 15  1  0  0  0
 11 12  1  0  0  0
 11 95  1  0  0  0
 12 13  2  0  0  0
 12 96  1  0  0  0
 13 14  1  0  0  0
 13 31  1  0  0  0
 14 15  2  0  0  0
 14 97  1  0  0  0
 15 98  1  0  0  0
 16 17  2  0  0  0
 16 21  1  0  0  0
 16 31  1  0  0  0
 17 18  1  0  0  0
 17 99  1  0  0  0
 18 19  2  0  0  0
 18100  1  0  0  0
 19 20  1  0  0  0
 19 24  1  0  0  0
 20 21  2  0  0  0
 20101  1  0  0  0
 21 23  1  0  0  0
 22 28  1  0  0  0
 22 32  2  0  0  0
 26 27  1  0  0  0
 28102  1  0  0  0
 28103  1  0  0  0
 29104  1  0  0  0
 29105  1  0  0  0
 33 34  1  0  0  0
 33 66  1  0  0  0
 33 70  2  0  0  0
 34 36  1  0  0  0
 34 59  1  0  0  0
 34106  1  0  0  0
 35 44  2  0  0  0
 35 45  1  0  0  0
 35 68  1  0  0  0
 36 56  1  0  0  0
 36107  1  0  0  0
 37 39  1  0  0  0
 37 47  1  0  0  0
 37 66  1  0  0  0
 37108  1  0  0  0
 38 43  2  0  0  0
 38 46  1  0  0  0
 38 47  1  0  0  0
 39 64  1  0  0  0
 39 67  2  0  0  0
 40 52  1  0  0  0
 40 53  2  0  0  0
 40 58  1  0  0  0
 41109  1  0  0  0
 41110  1  0  0  0
 41111  1  0  0  0
 41 48  1  0  0  0
 42 43  1  0  0  0
 42 66  1  0  0  0
 42112  1  0  0  0
 42113  1  0  0  0
 43 44  1  0  0  0
 44114  1  0  0  0
 45 46  2  0  0  0
 45115  1  0  0  0
 46116  1  0  0  0
 47117  1  0  0  0
 47118  1  0  0  0
 48 56  1  0  0  0
 48 65  1  0  0  0
 48119  1  0  0  0
 49 50  1  0  0  0
 49 53  1  0  0  0
 49 64  1  0  0  0
 49120  1  0  0  0
 50 51  1  0  0  0
 50121  1  0  0  0
 50122  1  0  0  0
 51 52  1  0  0  0
 51123  1  0  0  0
 51124  1  0  0  0
 52125  1  0  0  0
 52126  1  0  0  0
 53 54  1  0  0  0
 54 55  2  0  0  0
 54127  1  0  0  0
 55 57  1  0  0  0
 55128  1  0  0  0
 56 69  2  0  0  0
 57 58  2  0  0  0
 57129  1  0  0  0
 58130  1  0  0  0
 59 60  1  0  0  0
 59 61  1  0  0  0
 59 62  1  0  0  0
 60131  1  0  0  0
 60132  1  0  0  0
 60133  1  0  0  0
 61134  1  0  0  0
 61135  1  0  0  0
 61136  1  0  0  0
 62137  1  0  0  0
 62138  1  0  0  0
 62139  1  0  0  0
 63 65  1  0  0  0
 63140  1  0  0  0
 63141  1  0  0  0
 63142  1  0  0  0
 64143  1  0  0  0
 65144  1  0  0  0
 68 77  1  0  0  0
 71 72  2  0  0  0
 71 74  1  0  0  0
 71 85  1  0  0  0
 72 79  1  0  0  0
 72 80  1  0  0  0
 73 79  2  0  0  0
 73 81  1  0  0  0
 73 85  1  0  0  0
 74 82  1  0  0  0
 74 83  2  0  0  0
 75 77  1  0  0  0
 75 78  1  0  0  0
 75 84  2  0  0  0
 76145  1  0  0  0
 76146  1  0  0  0
 76147  1  0  0  0
 76 78  1  0  0  0
 77148  1  0  0  0
 77149  1  0  0  0
 78 82  1  0  0  0
 78150  1  0  0  0
 80151  1  0  0  0
 80152  1  0  0  0
 81153  1  0  0  0
 82154  1  0  0  0
M  ISO  4   1 100  68 101  77 101  81 100
M  END
> <chiral flag>
0

> <version>
0

> <s_m_source_file>
/data/baiqing/PycharmProjects/Reinvent-master-3.2/result/LINK_invent/BTK/process_docking_weight1_custom_product_contain_oxygen_bond_distance_aromatic_linkinvent_7_9_3/rearranged_h_0171.sdf

> <i_m_source_file_index>
34

> <r_mmod_Potential_Energy-OPLS-2005>
-127.914855957031

> <r_mmod_Stretch_Energy-OPLS-2005>
44.7804985046387

> <r_mmod_Bend_Energy-OPLS-2005>
124.336387634277

> <r_mmod_Torsional_Energy-OPLS-2005>
245.054626464844

> <r_mmod_Improper_Torsional_Energy-OPLS-2005>
5.93376636505127

> <r_mmod_Van_der_Waal_Energy-OPLS-2005>
132.987609863281

> <r_mmod_Electrostatic_Energy-OPLS-2005>
-416.324066162109

> <r_mmod_Solvation_Energy-OPLS-2005>
-284.097412109375

> <b_mmod_Minimization_Converged-OPLS-2005>
0

> <r_mmod_RMS_Derivative-OPLS-2005>
1.60371732711792

$$$$
34
                    3D
 Structure written by MMmdl.
160168  0  0  1  0            999 V2000
  -30.5371  -15.0317   20.3474 C   0  0  0  0  0  0
  -30.4242  -12.6371   19.5079 C   0  0  0  0  0  0
  -29.5237  -12.5337   18.2569 C   0  0  0  0  0  0
  -28.0610  -12.2977   18.6776 C   0  0  0  0  0  0
  -27.6159  -13.2570   19.8148 C   0  0  2  0  0  0
  -28.6515  -13.3507   20.9557 C   0  0  0  0  0  0
  -25.2394  -13.8257   20.5668 C   0  0  0  0  0  0
  -24.1738  -13.0467   20.9260 C   0  0  0  0  0  0
  -24.6378  -11.6958   20.8761 C   0  0  0  0  0  0
  -23.9057  -10.4337   21.0405 C   0  0  0  0  0  0
  -24.3614   -9.4250   21.9163 C   0  0  0  0  0  0
  -23.6316   -8.2274   22.0727 C   0  0  0  0  0  0
  -22.4285   -8.0316   21.3545 C   0  0  0  0  0  0
  -21.9929   -9.0268   20.4608 C   0  0  0  0  0  0
  -22.7249  -10.2156   20.3026 C   0  0  0  0  0  0
  -21.6871   -6.0742   22.5304 C   0  0  0  0  0  0
  -21.4012   -6.5627   23.8233 C   0  0  0  0  0  0
  -21.3667   -5.6771   24.9194 C   0  0  0  0  0  0
  -21.6058   -4.3039   24.7240 C   0  0  0  0  0  0
  -21.8806   -3.8139   23.4352 C   0  0  0  0  0  0
  -21.9178   -4.6962   22.3416 C   0  0  0  0  0  0
  -22.7750  -13.5247   21.1904 C   0  0  0  0  0  0
  -22.1642   -4.2144   21.0989 F   0  0  0  0  0  0
  -21.5642   -3.4517   25.7750 F   0  0  0  0  0  0
  -29.9107  -13.7767   20.3340 N   0  0  0  0  0  0
  -26.2805  -12.9500   20.3121 N   0  0  0  0  0  0
  -25.9312  -11.6627   20.5695 N   0  0  0  0  0  0
  -22.0330  -12.8284   22.0429 N   0  0  0  0  0  0
  -25.4048  -15.1982   20.4061 N   0  0  0  0  0  0
  -31.7613  -14.9808   20.1978 O   0  0  0  0  0  0
  -21.6642   -6.8911   21.4282 O   0  0  0  0  0  0
  -22.3480  -14.5547   20.6714 O   0  0  0  0  0  0
  -24.6498  -31.8337   23.1762 C   0  0  0  0  0  0
  -25.9246  -32.4613   23.8150 C   0  0  1  0  0  0
  -27.1945  -27.0508   20.1552 C   0  0  0  0  0  0
  -25.5963  -33.8415   24.2070 N   0  0  0  0  0  0
  -23.4526  -30.4565   21.5192 C   0  0  2  0  0  0
  -24.8938  -28.8638   20.1003 C   0  0  0  0  0  0
  -22.7587  -29.4523   22.4778 C   0  0  0  0  0  0
  -18.0320  -28.1419   22.8504 C   0  0  0  0  0  0
  -24.1499  -36.7262   23.2636 C   0  0  0  0  0  0
  -26.0108  -30.6814   21.3778 C   0  0  0  0  0  0
  -26.0736  -29.2812   20.7319 C   0  0  0  0  0  0
  -27.2160  -28.3865   20.7497 C   0  0  0  0  0  0
  -25.9973  -26.7645   19.4627 C   0  0  0  0  0  0
  -24.8744  -27.6232   19.4458 C   0  0  0  0  0  0
  -23.6800  -29.7816   20.1383 C   0  0  0  0  0  0
  -25.4125  -36.2966   24.0300 C   0  0  1  0  0  0
  -20.5939  -28.3750   23.1218 C   0  0  2  0  0  0
  -20.6793  -26.9444   22.5385 C   0  0  0  0  0  0
  -19.5741  -26.6408   21.5211 C   0  0  0  0  0  0
  -18.1952  -26.7944   22.1648 C   0  0  0  0  0  0
  -19.1581  -28.8901   23.2861 C   0  0  0  0  0  0
  -18.9488  -30.1505   23.8885 C   0  0  0  0  0  0
  -17.6479  -30.6603   24.0596 C   0  0  0  0  0  0
  -25.9095  -34.9357   23.5004 C   0  0  0  0  0  0
  -16.5376  -29.9101   23.6342 C   0  0  0  0  0  0
  -16.7305  -28.6524   23.0354 C   0  0  0  0  0  0
  -26.4571  -31.6462   25.0571 C   0  0  0  0  0  0
  -25.3788  -31.3625   26.1286 C   0  0  0  0  0  0
  -27.0395  -30.2847   24.6104 C   0  0  0  0  0  0
  -27.6097  -32.4184   25.7374 C   0  0  0  0  0  0
  -27.5570  -37.1797   24.8466 C   0  0  0  0  0  0
  -21.4286  -29.3073   22.3586 N   0  0  0  0  0  0
  -26.4272  -37.3721   23.9411 N   0  0  0  0  0  0
  -24.7250  -31.0152   22.0793 N   0  0  0  0  0  0
  -23.4213  -28.8109   23.2963 O   0  0  0  0  0  0
  -28.2240  -26.0267   20.2826 O   0  0  0  0  0  0
  -26.5700  -34.8872   22.4593 O   0  0  0  0  0  0
  -23.5602  -32.1225   23.6994 O   0  0  0  0  0  0
  -31.1870  -17.3082   18.5752 C   0  0  0  0  0  0
  -32.1131  -18.1692   17.9707 C   0  0  0  0  0  0
  -31.1945  -19.9658   19.2616 C   0  0  0  0  0  0
  -30.3128  -17.6596   19.6534 C   0  0  0  0  0  0
  -30.1146  -19.1944   19.7938 C   0  0  0  0  0  0
  -32.1849  -19.4827   18.3964 C   0  0  0  0  0  0
  -28.7834  -21.5526   19.8570 C   0  0  0  0  0  0
  -26.6989  -21.5710   22.1650 C   0  0  0  0  0  0
  -29.4032  -23.2216   21.7243 C   0  0  0  0  0  0
  -26.9409  -22.8163   21.2900 C   0  0  0  0  0  0
  -28.1974  -24.5100   19.7939 C   0  0  0  0  0  0
  -28.3432  -22.9989   20.6333 C   0  0  2  0  0  0
  -29.1414  -20.2490   20.3977 N   0  0  0  0  0  0
  -29.8474  -16.3153   20.3086 N   0  0  0  0  0  0
  -28.7495  -21.6313   18.6268 O   0  0  0  0  0  0
  -33.1688  -20.2997   17.9448 F   0  0  0  0  0  0
  -31.4629  -12.7771   19.2003 H   0  0  0  0  0  0
  -30.4123  -11.7022   20.0716 H   0  0  0  0  0  0
  -29.8752  -11.7280   17.6081 H   0  0  0  0  0  0
  -29.5943  -13.4531   17.6673 H   0  0  0  0  0  0
  -27.9790  -11.2654   19.0209 H   0  0  0  0  0  0
  -27.4050  -12.3786   17.8108 H   0  0  0  0  0  0
  -27.5586  -14.2419   19.3496 H   0  0  0  0  0  0
  -28.7588  -12.3943   21.4735 H   0  0  0  0  0  0
  -28.3354  -14.0849   21.7013 H   0  0  0  0  0  0
  -25.2739   -9.5767   22.4742 H   0  0  0  0  0  0
  -24.0026   -7.4670   22.7447 H   0  0  0  0  0  0
  -21.0859   -8.8798   19.8906 H   0  0  0  0  0  0
  -22.3705  -10.9691   19.6125 H   0  0  0  0  0  0
  -21.2009   -7.6123   23.9766 H   0  0  0  0  0  0
  -21.1501   -6.0470   25.9096 H   0  0  0  0  0  0
  -22.0570   -2.7601   23.2842 H   0  0  0  0  0  0
  -22.3869  -12.0009   22.5005 H   0  0  0  0  0  0
  -21.0900  -13.1295   22.2436 H   0  0  0  0  0  0
  -24.6388  -15.8525   20.5275 H   0  0  0  0  0  0
  -26.2439  -15.6329   20.0452 H   0  0  0  0  0  0
  -26.7314  -32.5181   23.0880 H   0  0  0  0  0  0
  -25.0087  -33.9501   25.0196 H   0  0  0  0  0  0
  -22.7600  -31.2859   21.3648 H   0  0  0  0  0  0
  -23.3701  -35.9645   23.3242 H   0  0  0  0  0  0
  -24.3637  -36.8935   22.2061 H   0  0  0  0  0  0
  -23.7305  -37.6465   23.6720 H   0  0  0  0  0  0
  -26.1581  -31.4127   20.5827 H   0  0  0  0  0  0
  -26.8898  -30.7556   22.0074 H   0  0  0  0  0  0
  -28.1025  -28.6884   21.2886 H   0  0  0  0  0  0
  -25.8735  -25.8263   18.9498 H   0  0  0  0  0  0
  -23.9784  -27.3090   18.9237 H   0  0  0  0  0  0
  -23.8334  -30.5489   19.3776 H   0  0  0  0  0  0
  -22.7900  -29.2360   19.8230 H   0  0  0  0  0  0
  -25.1335  -36.1780   25.0800 H   0  0  0  0  0  0
  -21.0090  -28.3325   24.1317 H   0  0  0  0  0  0
  -20.5673  -26.2397   23.3640 H   0  0  0  0  0  0
  -21.6678  -26.7440   22.1224 H   0  0  0  0  0  0
  -19.6868  -25.6316   21.1259 H   0  0  0  0  0  0
  -19.6618  -27.3231   20.6748 H   0  0  0  0  0  0
  -17.4225  -26.6747   21.4034 H   0  0  0  0  0  0
  -18.0326  -26.0081   22.9045 H   0  0  0  0  0  0
  -19.7972  -30.7369   24.2199 H   0  0  0  0  0  0
  -17.5028  -31.6284   24.5226 H   0  0  0  0  0  0
  -15.5371  -30.3011   23.7636 H   0  0  0  0  0  0
  -15.8737  -28.0864   22.6984 H   0  0  0  0  0  0
  -24.6114  -30.6779   25.7664 H   0  0  0  0  0  0
  -24.8819  -32.2763   26.4530 H   0  0  0  0  0  0
  -25.8163  -30.9004   27.0147 H   0  0  0  0  0  0
  -26.2929  -29.6573   24.1217 H   0  0  0  0  0  0
  -27.4143  -29.7150   25.4614 H   0  0  0  0  0  0
  -27.8814  -30.4052   23.9275 H   0  0  0  0  0  0
  -27.2762  -33.3605   26.1740 H   0  0  0  0  0  0
  -28.4062  -32.6510   25.0286 H   0  0  0  0  0  0
  -28.0586  -31.8389   26.5453 H   0  0  0  0  0  0
  -28.2583  -38.0104   24.7537 H   0  0  0  0  0  0
  -28.1078  -36.2648   24.6272 H   0  0  0  0  0  0
  -27.2332  -37.1433   25.8881 H   0  0  0  0  0  0
  -20.9477  -29.8837   21.6851 H   0  0  0  0  0  0
  -26.0084  -38.2762   24.1403 H   0  0  0  0  0  0
  -31.2408  -16.2971   18.2000 H   0  0  0  0  0  0
  -32.8148  -17.8099   17.2258 H   0  0  0  0  0  0
  -31.2908  -21.0157   19.4839 H   0  0  0  0  0  0
  -25.7460  -21.6633   22.6886 H   0  0  0  0  0  0
  -27.4741  -21.4377   22.9214 H   0  0  0  0  0  0
  -26.6270  -20.6668   21.5589 H   0  0  0  0  0  0
  -29.6045  -22.3221   22.3051 H   0  0  0  0  0  0
  -29.0945  -23.9988   22.4224 H   0  0  0  0  0  0
  -30.3472  -23.5365   21.2761 H   0  0  0  0  0  0
  -26.7348  -23.6925   21.9061 H   0  0  0  0  0  0
  -26.1770  -22.8271   20.5100 H   0  0  0  0  0  0
  -27.3401  -24.3845   19.1410 H   0  0  0  0  0  0
  -29.0216  -24.4943   19.0797 H   0  0  0  0  0  0
  -28.8956  -20.1007   21.3679 H   0  0  0  0  0  0
  -28.8942  -16.2932   20.6427 H   0  0  0  0  0  0
  1 25  1  0  0  0
  1 30  2  0  0  0
  1 84  1  0  0  0
  2  3  1  0  0  0
  2 25  1  0  0  0
  2 87  1  0  0  0
  2 88  1  0  0  0
  3  4  1  0  0  0
  3 89  1  0  0  0
  3 90  1  0  0  0
  4  5  1  0  0  0
  4 91  1  0  0  0
  4 92  1  0  0  0
  5  6  1  0  0  0
  5 26  1  0  0  0
  5 93  1  0  0  0
  6 25  1  0  0  0
  6 94  1  0  0  0
  6 95  1  0  0  0
  7  8  2  0  0  0
  7 26  1  0  0  0
  7 29  1  0  0  0
  8  9  1  0  0  0
  8 22  1  0  0  0
  9 10  1  0  0  0
  9 27  2  0  0  0
 10 11  2  0  0  0
 10 15  1  0  0  0
 11 12  1  0  0  0
 11 96  1  0  0  0
 12 13  2  0  0  0
 12 97  1  0  0  0
 13 14  1  0  0  0
 13 31  1  0  0  0
 14 15  2  0  0  0
 14 98  1  0  0  0
 15 99  1  0  0  0
 16 17  2  0  0  0
 16 21  1  0  0  0
 16 31  1  0  0  0
 17 18  1  0  0  0
 17100  1  0  0  0
 18 19  2  0  0  0
 18101  1  0  0  0
 19 20  1  0  0  0
 19 24  1  0  0  0
 20 21  2  0  0  0
 20102  1  0  0  0
 21 23  1  0  0  0
 22 28  1  0  0  0
 22 32  2  0  0  0
 26 27  1  0  0  0
 28103  1  0  0  0
 28104  1  0  0  0
 29105  1  0  0  0
 29106  1  0  0  0
 33 34  1  0  0  0
 33 66  1  0  0  0
 33 70  2  0  0  0
 34 36  1  0  0  0
 34 59  1  0  0  0
 34107  1  0  0  0
 35 44  2  0  0  0
 35 45  1  0  0  0
 35 68  1  0  0  0
 36 56  1  0  0  0
 36108  1  0  0  0
 37 39  1  0  0  0
 37 47  1  0  0  0
 37 66  1  0  0  0
 37109  1  0  0  0
 38 43  2  0  0  0
 38 46  1  0  0  0
 38 47  1  0  0  0
 39 64  1  0  0  0
 39 67  2  0  0  0
 40 52  1  0  0  0
 40 53  2  0  0  0
 40 58  1  0  0  0
 41110  1  0  0  0
 41111  1  0  0  0
 41112  1  0  0  0
 41 48  1  0  0  0
 42 43  1  0  0  0
 42 66  1  0  0  0
 42113  1  0  0  0
 42114  1  0  0  0
 43 44  1  0  0  0
 44115  1  0  0  0
 45 46  2  0  0  0
 45116  1  0  0  0
 46117  1  0  0  0
 47118  1  0  0  0
 47119  1  0  0  0
 48 56  1  0  0  0
 48 65  1  0  0  0
 48120  1  0  0  0
 49 50  1  0  0  0
 49 53  1  0  0  0
 49 64  1  0  0  0
 49121  1  0  0  0
 50 51  1  0  0  0
 50122  1  0  0  0
 50123  1  0  0  0
 51 52  1  0  0  0
 51124  1  0  0  0
 51125  1  0  0  0
 52126  1  0  0  0
 52127  1  0  0  0
 53 54  1  0  0  0
 54 55  2  0  0  0
 54128  1  0  0  0
 55 57  1  0  0  0
 55129  1  0  0  0
 56 69  2  0  0  0
 57 58  2  0  0  0
 57130  1  0  0  0
 58131  1  0  0  0
 59 60  1  0  0  0
 59 61  1  0  0  0
 59 62  1  0  0  0
 60132  1  0  0  0
 60133  1  0  0  0
 60134  1  0  0  0
 61135  1  0  0  0
 61136  1  0  0  0
 61137  1  0  0  0
 62138  1  0  0  0
 62139  1  0  0  0
 62140  1  0  0  0
 63 65  1  0  0  0
 63141  1  0  0  0
 63142  1  0  0  0
 63143  1  0  0  0
 64144  1  0  0  0
 65145  1  0  0  0
 68 81  1  0  0  0
 71 72  2  0  0  0
 71 74  1  0  0  0
 71146  1  0  0  0
 72 76  1  0  0  0
 72147  1  0  0  0
 73 75  1  0  0  0
 73 76  2  0  0  0
 73148  1  0  0  0
 74 75  2  0  0  0
 74 84  1  0  0  0
 75 83  1  0  0  0
 76 86  1  0  0  0
 77 83  1  0  0  0
 77 85  2  0  0  0
 77 82  1  0  0  0
 78 80  1  0  0  0
 78149  1  0  0  0
 78150  1  0  0  0
 78151  1  0  0  0
 79152  1  0  0  0
 79153  1  0  0  0
 79154  1  0  0  0
 79 82  1  0  0  0
 80 82  1  0  0  0
 80155  1  0  0  0
 80156  1  0  0  0
 81 82  1  0  0  0
 81157  1  0  0  0
 81158  1  0  0  0
 83159  1  0  0  0
 84160  1  0  0  0
M  ISO  4   1 100  68 101  81 101  84 100
M  END
> <chiral flag>
0

> <version>
0

> <s_m_source_file>
/data/baiqing/PycharmProjects/Reinvent-master-3.2/result/LINK_invent/BTK/process_docking_weight1_custom_product_contain_oxygen_bond_distance_aromatic_linkinvent_7_9_3/rearranged_h_0171.sdf

> <i_m_source_file_index>
35

> <r_mmod_Potential_Energy-OPLS-2005>
898.13525390625

> <r_mmod_Stretch_Energy-OPLS-2005>
396.754119873047

> <r_mmod_Bend_Energy-OPLS-2005>
404.477966308594

> <r_mmod_Torsional_Energy-OPLS-2005>
322.639923095703

> <r_mmod_Improper_Torsional_Energy-OPLS-2005>
5.94452285766602

> <r_mmod_Van_der_Waal_Energy-OPLS-2005>
153.347137451172

> <r_mmod_Electrostatic_Energy-OPLS-2005>
-427.921783447266

> <r_mmod_Solvation_Energy-OPLS-2005>
-225.832794189453

> <b_mmod_Minimization_Converged-OPLS-2005>
0

> <r_mmod_RMS_Derivative-OPLS-2005>
6.18193864822388

$$$$
35
                    3D
 Structure written by MMmdl.
156164  0  0  1  0            999 V2000
  -30.6887  -14.5178   20.5306 C   0  0  0  0  0  0
  -30.4199  -12.3186   19.4493 C   0  0  0  0  0  0
  -29.5048  -12.5052   18.2204 C   0  0  0  0  0  0
  -28.0258  -12.3611   18.6262 C   0  0  0  0  0  0
  -27.6591  -13.2144   19.8716 C   0  0  2  0  0  0
  -28.6971  -13.0375   21.0046 C   0  0  0  0  0  0
  -25.2580  -13.8166   20.5693 C   0  0  0  0  0  0
  -24.1826  -13.0442   20.9159 C   0  0  0  0  0  0
  -24.6387  -11.6906   20.8704 C   0  0  0  0  0  0
  -23.9049  -10.4286   21.0395 C   0  0  0  0  0  0
  -24.3597   -9.4205   21.9180 C   0  0  0  0  0  0
  -23.6264   -8.2244   22.0764 C   0  0  0  0  0  0
  -22.4244   -8.0269   21.3548 C   0  0  0  0  0  0
  -21.9878   -9.0247   20.4652 C   0  0  0  0  0  0
  -22.7213  -10.2125   20.3056 C   0  0  0  0  0  0
  -21.6850   -6.0708   22.5284 C   0  0  0  0  0  0
  -21.4011   -6.5634   23.8209 C   0  0  0  0  0  0
  -21.3665   -5.6792   24.9177 C   0  0  0  0  0  0
  -21.6051   -4.3055   24.7234 C   0  0  0  0  0  0
  -21.8815   -3.8134   23.4361 C   0  0  0  0  0  0
  -21.9197   -4.6938   22.3410 C   0  0  0  0  0  0
  -22.7848  -13.5243   21.1797 C   0  0  0  0  0  0
  -22.1658   -4.2132   21.0981 F   0  0  0  0  0  0
  -21.5633   -3.4540   25.7748 F   0  0  0  0  0  0
  -30.0320  -13.3243   20.4565 N   0  0  0  0  0  0
  -26.3012  -12.9355   20.3333 N   0  0  0  0  0  0
  -25.9319  -11.6512   20.5726 N   0  0  0  0  0  0
  -22.0477  -12.8273   22.0362 N   0  0  0  0  0  0
  -25.4294  -15.1897   20.4154 N   0  0  0  0  0  0
  -31.8189  -14.6787   20.0622 O   0  0  0  0  0  0
  -21.6636   -6.8853   21.4234 O   0  0  0  0  0  0
  -22.3547  -14.5541   20.6623 O   0  0  0  0  0  0
  -24.6166  -31.8656   23.2055 C   0  0  0  0  0  0
  -25.9071  -32.4796   23.8354 C   0  0  1  0  0  0
  -27.2394  -27.4250   20.1103 C   0  0  0  0  0  0
  -25.5905  -33.8587   24.2291 N   0  0  0  0  0  0
  -23.4051  -30.4913   21.5415 C   0  0  2  0  0  0
  -24.8581  -28.9533   20.1124 C   0  0  0  0  0  0
  -22.7402  -29.4675   22.4912 C   0  0  0  0  0  0
  -18.0287  -28.1398   22.8496 C   0  0  0  0  0  0
  -24.1481  -36.7303   23.2633 C   0  0  0  0  0  0
  -25.9350  -30.8360   21.3554 C   0  0  0  0  0  0
  -26.0184  -29.4677   20.7062 C   0  0  0  0  0  0
  -27.2172  -28.7129   20.6977 C   0  0  0  0  0  0
  -26.0654  -26.9272   19.5110 C   0  0  0  0  0  0
  -24.8761  -27.6826   19.5097 C   0  0  0  0  0  0
  -23.6176  -29.8188   20.1582 C   0  0  0  0  0  0
  -25.4106  -36.3069   24.0316 C   0  0  1  0  0  0
  -20.5883  -28.3700   23.1303 C   0  0  2  0  0  0
  -20.6764  -26.9433   22.5424 C   0  0  0  0  0  0
  -19.5732  -26.6408   21.5224 C   0  0  0  0  0  0
  -18.1915  -26.7944   22.1632 C   0  0  0  0  0  0
  -19.1536  -28.8867   23.2902 C   0  0  0  0  0  0
  -18.9454  -30.1471   23.8917 C   0  0  0  0  0  0
  -17.6448  -30.6600   24.0588 C   0  0  0  0  0  0
  -25.9042  -34.9455   23.5093 C   0  0  0  0  0  0
  -16.5350  -29.9099   23.6341 C   0  0  0  0  0  0
  -16.7270  -28.6530   23.0342 C   0  0  0  0  0  0
  -26.4513  -31.6566   25.0679 C   0  0  0  0  0  0
  -25.3777  -31.3704   26.1424 C   0  0  0  0  0  0
  -27.0325  -30.2977   24.6077 C   0  0  0  0  0  0
  -27.6054  -32.4287   25.7481 C   0  0  0  0  0  0
  -27.5567  -37.1800   24.8467 C   0  0  0  0  0  0
  -21.4140  -29.3048   22.3674 N   0  0  0  0  0  0
  -26.4279  -37.3767   23.9410 N   0  0  0  0  0  0
  -24.6702  -31.0778   22.0931 N   0  0  0  0  0  0
  -23.4178  -28.8218   23.2960 O   0  0  0  0  0  0
  -28.3839  -26.6560   20.0979 O   0  0  0  0  0  0
  -26.5591  -34.8914   22.4649 O   0  0  0  0  0  0
  -23.5356  -32.1405   23.7456 O   0  0  0  0  0  0
  -29.7175  -18.0623   21.1594 C   0  0  0  0  0  0
  -29.9861  -16.9956   18.9864 C   0  0  0  0  0  0
  -29.5870  -19.3462   20.5417 C   0  0  0  0  0  0
  -29.9258  -16.8776   20.3948 C   0  0  0  0  0  0
  -29.8347  -18.2433   18.3611 C   0  0  0  0  0  0
  -29.6311  -19.4076   19.1241 C   0  0  0  0  0  0
  -29.4012  -20.6013   21.3848 C   0  0  0  0  0  0
  -28.8288  -24.2204   20.4258 C   0  0  0  0  0  0
  -30.9073  -23.5174   21.7709 C   0  0  0  0  0  0
  -28.3881  -25.5670   21.0513 C   0  0  0  0  0  0
  -29.4659  -23.1475   21.3631 C   0  0  2  0  0  0
  -29.9855  -15.5747   21.0077 N   0  0  0  0  0  0
  -29.4642  -21.7987   20.7621 N   0  0  0  0  0  0
  -29.2521  -20.5136   22.6062 O   0  0  0  0  0  0
  -28.6705  -24.0207   19.2163 O   0  0  0  0  0  0
  -29.8727  -18.3244   17.0089 F   0  0  0  0  0  0
  -29.4705  -20.5769   18.4571 F   0  0  0  0  0  0
  -31.4703  -12.3974   19.1604 H   0  0  0  0  0  0
  -30.3001  -11.3155   19.8622 H   0  0  0  0  0  0
  -29.7533  -11.7746   17.4496 H   0  0  0  0  0  0
  -29.6775  -13.4876   17.7786 H   0  0  0  0  0  0
  -27.8414  -11.3062   18.8326 H   0  0  0  0  0  0
  -27.3800  -12.6224   17.7883 H   0  0  0  0  0  0
  -27.6914  -14.2557   19.5499 H   0  0  0  0  0  0
  -28.6751  -12.0185   21.3926 H   0  0  0  0  0  0
  -28.4574  -13.6832   21.8503 H   0  0  0  0  0  0
  -25.2744   -9.5695   22.4739 H   0  0  0  0  0  0
  -23.9993   -7.4644   22.7497 H   0  0  0  0  0  0
  -21.0819   -8.8751   19.8960 H   0  0  0  0  0  0
  -22.3667  -10.9652   19.6159 H   0  0  0  0  0  0
  -21.1992   -7.6138   23.9711 H   0  0  0  0  0  0
  -21.1491   -6.0517   25.9082 H   0  0  0  0  0  0
  -22.0586   -2.7593   23.2869 H   0  0  0  0  0  0
  -22.4094  -11.9973   22.4837 H   0  0  0  0  0  0
  -21.1078  -13.1306   22.2503 H   0  0  0  0  0  0
  -24.6625  -15.8421   20.5276 H   0  0  0  0  0  0
  -26.2881  -15.6349   20.1192 H   0  0  0  0  0  0
  -26.7131  -32.5544   23.1117 H   0  0  0  0  0  0
  -25.0072  -33.9744   25.0437 H   0  0  0  0  0  0
  -22.6954  -31.3090   21.3940 H   0  0  0  0  0  0
  -23.3713  -35.9666   23.3313 H   0  0  0  0  0  0
  -24.3591  -36.8899   22.2045 H   0  0  0  0  0  0
  -23.7263  -37.6519   23.6655 H   0  0  0  0  0  0
  -26.0448  -31.6069   20.5897 H   0  0  0  0  0  0
  -26.8234  -30.8927   21.9726 H   0  0  0  0  0  0
  -28.1170  -29.1104   21.1471 H   0  0  0  0  0  0
  -26.0737  -25.9525   19.0441 H   0  0  0  0  0  0
  -23.9844  -27.2855   19.0452 H   0  0  0  0  0  0
  -23.7239  -30.5906   19.3937 H   0  0  0  0  0  0
  -22.7408  -29.2356   19.8634 H   0  0  0  0  0  0
  -25.1284  -36.1907   25.0802 H   0  0  0  0  0  0
  -21.0013  -28.3290   24.1404 H   0  0  0  0  0  0
  -20.5690  -26.2302   23.3618 H   0  0  0  0  0  0
  -21.6629  -26.7474   22.1207 H   0  0  0  0  0  0
  -19.6901  -25.6329   21.1226 H   0  0  0  0  0  0
  -19.6662  -27.3244   20.6778 H   0  0  0  0  0  0
  -17.4189  -26.6717   21.4032 H   0  0  0  0  0  0
  -18.0309  -26.0094   22.9033 H   0  0  0  0  0  0
  -19.7932  -30.7296   24.2272 H   0  0  0  0  0  0
  -17.5011  -31.6282   24.5180 H   0  0  0  0  0  0
  -15.5353  -30.3002   23.7673 H   0  0  0  0  0  0
  -15.8670  -28.0878   22.7006 H   0  0  0  0  0  0
  -24.5967  -30.7002   25.7812 H   0  0  0  0  0  0
  -24.8963  -32.2867   26.4833 H   0  0  0  0  0  0
  -25.8159  -30.8938   27.0190 H   0  0  0  0  0  0
  -26.2863  -29.6721   24.1147 H   0  0  0  0  0  0
  -27.4055  -29.7245   25.4574 H   0  0  0  0  0  0
  -27.8727  -30.4230   23.9241 H   0  0  0  0  0  0
  -27.2629  -33.3568   26.2074 H   0  0  0  0  0  0
  -28.3908  -32.6858   25.0363 H   0  0  0  0  0  0
  -28.0660  -31.8382   26.5406 H   0  0  0  0  0  0
  -28.2586  -38.0092   24.7488 H   0  0  0  0  0  0
  -28.1039  -36.2612   24.6307 H   0  0  0  0  0  0
  -27.2290  -37.1484   25.8872 H   0  0  0  0  0  0
  -20.9285  -29.8704   21.6862 H   0  0  0  0  0  0
  -26.0142  -38.2829   24.1413 H   0  0  0  0  0  0
  -29.6659  -17.9915   22.2382 H   0  0  0  0  0  0
  -30.1197  -16.1242   18.3626 H   0  0  0  0  0  0
  -31.5615  -23.5747   20.8987 H   0  0  0  0  0  0
  -31.3342  -22.7843   22.4570 H   0  0  0  0  0  0
  -30.9490  -24.4852   22.2718 H   0  0  0  0  0  0
  -29.0657  -25.8147   21.8674 H   0  0  0  0  0  0
  -27.4034  -25.4272   21.4991 H   0  0  0  0  0  0
  -28.8600  -23.1090   22.2708 H   0  0  0  0  0  0
  -29.2269  -15.3515   21.6355 H   0  0  0  0  0  0
  -29.5362  -21.7763   19.7505 H   0  0  0  0  0  0
  1 25  1  0  0  0
  1 30  2  0  0  0
  1 82  1  0  0  0
  2  3  1  0  0  0
  2 25  1  0  0  0
  2 88  1  0  0  0
  2 89  1  0  0  0
  3  4  1  0  0  0
  3 90  1  0  0  0
  3 91  1  0  0  0
  4  5  1  0  0  0
  4 92  1  0  0  0
  4 93  1  0  0  0
  5  6  1  0  0  0
  5 26  1  0  0  0
  5 94  1  0  0  0
  6 25  1  0  0  0
  6 95  1  0  0  0
  6 96  1  0  0  0
  7  8  2  0  0  0
  7 26  1  0  0  0
  7 29  1  0  0  0
  8  9  1  0  0  0
  8 22  1  0  0  0
  9 10  1  0  0  0
  9 27  2  0  0  0
 10 11  2  0  0  0
 10 15  1  0  0  0
 11 12  1  0  0  0
 11 97  1  0  0  0
 12 13  2  0  0  0
 12 98  1  0  0  0
 13 14  1  0  0  0
 13 31  1  0  0  0
 14 15  2  0  0  0
 14 99  1  0  0  0
 15100  1  0  0  0
 16 17  2  0  0  0
 16 21  1  0  0  0
 16 31  1  0  0  0
 17 18  1  0  0  0
 17101  1  0  0  0
 18 19  2  0  0  0
 18102  1  0  0  0
 19 20  1  0  0  0
 19 24  1  0  0  0
 20 21  2  0  0  0
 20103  1  0  0  0
 21 23  1  0  0  0
 22 28  1  0  0  0
 22 32  2  0  0  0
 26 27  1  0  0  0
 28104  1  0  0  0
 28105  1  0  0  0
 29106  1  0  0  0
 29107  1  0  0  0
 33 34  1  0  0  0
 33 66  1  0  0  0
 33 70  2  0  0  0
 34 36  1  0  0  0
 34 59  1  0  0  0
 34108  1  0  0  0
 35 44  2  0  0  0
 35 45  1  0  0  0
 35 68  1  0  0  0
 36 56  1  0  0  0
 36109  1  0  0  0
 37 39  1  0  0  0
 37 47  1  0  0  0
 37 66  1  0  0  0
 37110  1  0  0  0
 38 43  2  0  0  0
 38 46  1  0  0  0
 38 47  1  0  0  0
 39 64  1  0  0  0
 39 67  2  0  0  0
 40 52  1  0  0  0
 40 53  2  0  0  0
 40 58  1  0  0  0
 41111  1  0  0  0
 41112  1  0  0  0
 41113  1  0  0  0
 41 48  1  0  0  0
 42 43  1  0  0  0
 42 66  1  0  0  0
 42114  1  0  0  0
 42115  1  0  0  0
 43 44  1  0  0  0
 44116  1  0  0  0
 45 46  2  0  0  0
 45117  1  0  0  0
 46118  1  0  0  0
 47119  1  0  0  0
 47120  1  0  0  0
 48 56  1  0  0  0
 48 65  1  0  0  0
 48121  1  0  0  0
 49 50  1  0  0  0
 49 53  1  0  0  0
 49 64  1  0  0  0
 49122  1  0  0  0
 50 51  1  0  0  0
 50123  1  0  0  0
 50124  1  0  0  0
 51 52  1  0  0  0
 51125  1  0  0  0
 51126  1  0  0  0
 52127  1  0  0  0
 52128  1  0  0  0
 53 54  1  0  0  0
 54 55  2  0  0  0
 54129  1  0  0  0
 55 57  1  0  0  0
 55130  1  0  0  0
 56 69  2  0  0  0
 57 58  2  0  0  0
 57131  1  0  0  0
 58132  1  0  0  0
 59 60  1  0  0  0
 59 61  1  0  0  0
 59 62  1  0  0  0
 60133  1  0  0  0
 60134  1  0  0  0
 60135  1  0  0  0
 61136  1  0  0  0
 61137  1  0  0  0
 61138  1  0  0  0
 62139  1  0  0  0
 62140  1  0  0  0
 62141  1  0  0  0
 63 65  1  0  0  0
 63142  1  0  0  0
 63143  1  0  0  0
 63144  1  0  0  0
 64145  1  0  0  0
 65146  1  0  0  0
 68 80  1  0  0  0
 71 73  2  0  0  0
 71 74  1  0  0  0
 71147  1  0  0  0
 72 74  2  0  0  0
 72 75  1  0  0  0
 72148  1  0  0  0
 73 76  1  0  0  0
 73 77  1  0  0  0
 74 82  1  0  0  0
 75 76  2  0  0  0
 75 86  1  0  0  0
 76 87  1  0  0  0
 77 83  1  0  0  0
 77 84  2  0  0  0
 78 80  1  0  0  0
 78 81  1  0  0  0
 78 85  2  0  0  0
 79149  1  0  0  0
 79150  1  0  0  0
 79151  1  0  0  0
 79 81  1  0  0  0
 80152  1  0  0  0
 80153  1  0  0  0
 81 83  1  0  0  0
 81154  1  0  0  0
 82155  1  0  0  0
 83156  1  0  0  0
M  ISO  4   1 100  68 101  80 101  82 100
M  END
> <chiral flag>
0

> <version>
0

> <s_m_source_file>
/data/baiqing/PycharmProjects/Reinvent-master-3.2/result/LINK_invent/BTK/process_docking_weight1_custom_product_contain_oxygen_bond_distance_aromatic_linkinvent_7_9_3/rearranged_h_0171.sdf

> <i_m_source_file_index>
36

> <r_mmod_Potential_Energy-OPLS-2005>
-74.9127578735352

> <r_mmod_Stretch_Energy-OPLS-2005>
46.8763580322266

> <r_mmod_Bend_Energy-OPLS-2005>
94.0895080566406

> <r_mmod_Torsional_Energy-OPLS-2005>
276.370208740234

> <r_mmod_Improper_Torsional_Energy-OPLS-2005>
5.03510665893555

> <r_mmod_Van_der_Waal_Energy-OPLS-2005>
151.626266479492

> <r_mmod_Electrostatic_Energy-OPLS-2005>
-435.08251953125

> <r_mmod_Solvation_Energy-OPLS-2005>
-230.870422363281

> <b_mmod_Minimization_Converged-OPLS-2005>
0

> <r_mmod_RMS_Derivative-OPLS-2005>
3.36524701118469

$$$$
36
                    3D
 Structure written by MMmdl.
154162  0  0  1  0            999 V2000
  -30.6943  -14.4851   20.5570 C   0  0  0  0  0  0
  -30.4215  -12.3114   19.4277 C   0  0  0  0  0  0
  -29.4942  -12.5009   18.2097 C   0  0  0  0  0  0
  -28.0154  -12.3616   18.6228 C   0  0  0  0  0  0
  -27.6602  -13.2080   19.8754 C   0  0  2  0  0  0
  -28.7019  -13.0021   20.9982 C   0  0  0  0  0  0
  -25.2584  -13.8172   20.5681 C   0  0  0  0  0  0
  -24.1835  -13.0446   20.9177 C   0  0  0  0  0  0
  -24.6389  -11.6914   20.8739 C   0  0  0  0  0  0
  -23.9055  -10.4299   21.0416 C   0  0  0  0  0  0
  -24.3609   -9.4212   21.9193 C   0  0  0  0  0  0
  -23.6290   -8.2242   22.0758 C   0  0  0  0  0  0
  -22.4271   -8.0281   21.3544 C   0  0  0  0  0  0
  -21.9908   -9.0255   20.4645 C   0  0  0  0  0  0
  -22.7232  -10.2139   20.3061 C   0  0  0  0  0  0
  -21.6853   -6.0739   22.5278 C   0  0  0  0  0  0
  -21.4010   -6.5637   23.8212 C   0  0  0  0  0  0
  -21.3655   -5.6791   24.9174 C   0  0  0  0  0  0
  -21.6047   -4.3058   24.7226 C   0  0  0  0  0  0
  -21.8818   -3.8147   23.4347 C   0  0  0  0  0  0
  -21.9189   -4.6966   22.3402 C   0  0  0  0  0  0
  -22.7855  -13.5245   21.1843 C   0  0  0  0  0  0
  -22.1661   -4.2150   21.0981 F   0  0  0  0  0  0
  -21.5629   -3.4541   25.7738 F   0  0  0  0  0  0
  -30.0302  -13.3037   20.4415 N   0  0  0  0  0  0
  -26.3018  -12.9341   20.3375 N   0  0  0  0  0  0
  -25.9319  -11.6499   20.5781 N   0  0  0  0  0  0
  -22.0496  -12.8235   22.0400 N   0  0  0  0  0  0
  -25.4310  -15.1887   20.4061 N   0  0  0  0  0  0
  -31.8273  -14.6611   20.1015 O   0  0  0  0  0  0
  -21.6633   -6.8880   21.4239 O   0  0  0  0  0  0
  -22.3533  -14.5553   20.6702 O   0  0  0  0  0  0
  -24.6157  -31.8675   23.2099 C   0  0  0  0  0  0
  -25.9051  -32.4816   23.8398 C   0  0  1  0  0  0
  -27.2311  -27.4306   20.1005 C   0  0  0  0  0  0
  -25.5909  -33.8612   24.2332 N   0  0  0  0  0  0
  -23.4041  -30.4897   21.5507 C   0  0  2  0  0  0
  -24.8511  -28.9548   20.1146 C   0  0  0  0  0  0
  -22.7418  -29.4654   22.4999 C   0  0  0  0  0  0
  -18.0269  -28.1373   22.8500 C   0  0  0  0  0  0
  -24.1476  -36.7294   23.2635 C   0  0  0  0  0  0
  -25.9327  -30.8325   21.3628 C   0  0  0  0  0  0
  -26.0117  -29.4668   20.7094 C   0  0  0  0  0  0
  -27.2086  -28.7124   20.6971 C   0  0  0  0  0  0
  -26.0576  -26.9325   19.4993 C   0  0  0  0  0  0
  -24.8692  -27.6867   19.5067 C   0  0  0  0  0  0
  -23.6120  -29.8209   20.1659 C   0  0  0  0  0  0
  -25.4098  -36.3102   24.0342 C   0  0  1  0  0  0
  -20.5862  -28.3661   23.1319 C   0  0  2  0  0  0
  -20.6764  -26.9396   22.5419 C   0  0  0  0  0  0
  -19.5740  -26.6381   21.5215 C   0  0  0  0  0  0
  -18.1914  -26.7922   22.1617 C   0  0  0  0  0  0
  -19.1521  -28.8832   23.2906 C   0  0  0  0  0  0
  -18.9452  -30.1439   23.8919 C   0  0  0  0  0  0
  -17.6455  -30.6584   24.0570 C   0  0  0  0  0  0
  -25.9041  -34.9470   23.5134 C   0  0  0  0  0  0
  -16.5345  -29.9088   23.6330 C   0  0  0  0  0  0
  -16.7257  -28.6499   23.0363 C   0  0  0  0  0  0
  -26.4479  -31.6589   25.0721 C   0  0  0  0  0  0
  -25.3747  -31.3680   26.1471 C   0  0  0  0  0  0
  -27.0311  -30.3040   24.6081 C   0  0  0  0  0  0
  -27.6069  -32.4296   25.7478 C   0  0  0  0  0  0
  -27.5591  -37.1771   24.8450 C   0  0  0  0  0  0
  -21.4144  -29.3028   22.3734 N   0  0  0  0  0  0
  -26.4268  -37.3810   23.9450 N   0  0  0  0  0  0
  -24.6695  -31.0773   22.0995 N   0  0  0  0  0  0
  -23.4184  -28.8195   23.3048 O   0  0  0  0  0  0
  -28.3695  -26.6575   20.1076 O   0  0  0  0  0  0
  -26.5595  -34.8923   22.4688 O   0  0  0  0  0  0
  -23.5350  -32.1419   23.7494 O   0  0  0  0  0  0
  -27.6686  -20.1800   22.0734 C   0  0  0  0  0  0
  -27.5480  -18.9356   22.7173 C   0  0  0  0  0  0
  -29.4138  -18.0277   21.4113 C   0  0  0  0  0  0
  -28.6635  -20.3814   21.0937 C   0  0  0  0  0  0
  -29.5247  -19.2973   20.7710 C   0  0  0  0  0  0
  -28.4114  -17.8676   22.4060 C   0  0  0  0  0  0
  -28.5975  -24.1697   20.2603 C   0  0  0  0  0  0
  -30.4385  -16.9222   21.0683 C   0  0  0  0  0  0
  -28.3100  -22.8691   21.0500 C   0  0  0  0  0  0
  -28.2702  -25.5045   20.9703 C   0  0  0  0  0  0
  -28.8162  -21.6246   20.4378 N   0  0  0  0  0  0
  -29.9835  -15.5171   21.0510 N   0  0  0  0  0  0
  -29.0780  -24.1319   19.1209 O   0  0  0  0  0  0
  -30.4885  -19.4988   19.8377 F   0  0  0  0  0  0
  -28.2126  -16.4026   23.3043 Cl  0  0  0  0  0  0
  -31.4663  -12.4087   19.1275 H   0  0  0  0  0  0
  -30.3214  -11.3032   19.8330 H   0  0  0  0  0  0
  -29.7353  -11.7710   17.4357 H   0  0  0  0  0  0
  -29.6608  -13.4838   17.7659 H   0  0  0  0  0  0
  -27.8286  -11.3062   18.8250 H   0  0  0  0  0  0
  -27.3643  -12.6302   17.7902 H   0  0  0  0  0  0
  -27.7014  -14.2542   19.5710 H   0  0  0  0  0  0
  -28.6794  -11.9709   21.3537 H   0  0  0  0  0  0
  -28.4662  -13.6154   21.8688 H   0  0  0  0  0  0
  -25.2758   -9.5686   22.4760 H   0  0  0  0  0  0
  -23.9998   -7.4637   22.7480 H   0  0  0  0  0  0
  -21.0836   -8.8775   19.8952 H   0  0  0  0  0  0
  -22.3697  -10.9676   19.6164 H   0  0  0  0  0  0
  -21.1998   -7.6146   23.9713 H   0  0  0  0  0  0
  -21.1478   -6.0523   25.9074 H   0  0  0  0  0  0
  -22.0600   -2.7609   23.2846 H   0  0  0  0  0  0
  -22.4104  -11.9882   22.4771 H   0  0  0  0  0  0
  -21.1117  -13.1263   22.2617 H   0  0  0  0  0  0
  -24.6697  -15.8478   20.5219 H   0  0  0  0  0  0
  -26.2873  -15.6260   20.0907 H   0  0  0  0  0  0
  -26.7119  -32.5530   23.1163 H   0  0  0  0  0  0
  -25.0083  -33.9769   25.0494 H   0  0  0  0  0  0
  -22.6937  -31.3071   21.4108 H   0  0  0  0  0  0
  -23.3765  -35.9595   23.3252 H   0  0  0  0  0  0
  -24.3590  -36.8954   22.2060 H   0  0  0  0  0  0
  -23.7177  -37.6461   23.6675 H   0  0  0  0  0  0
  -26.0435  -31.5977   20.5934 H   0  0  0  0  0  0
  -26.8206  -30.8867   21.9807 H   0  0  0  0  0  0
  -28.1052  -29.1006   21.1601 H   0  0  0  0  0  0
  -26.0621  -25.9586   19.0306 H   0  0  0  0  0  0
  -23.9759  -27.2865   19.0473 H   0  0  0  0  0  0
  -23.7188  -30.5949   19.4055 H   0  0  0  0  0  0
  -22.7360  -29.2401   19.8711 H   0  0  0  0  0  0
  -25.1257  -36.1957   25.0831 H   0  0  0  0  0  0
  -20.9947  -28.3224   24.1442 H   0  0  0  0  0  0
  -20.5668  -26.2271   23.3608 H   0  0  0  0  0  0
  -21.6636  -26.7437   22.1212 H   0  0  0  0  0  0
  -19.6911  -25.6296   21.1233 H   0  0  0  0  0  0
  -19.6687  -27.3210   20.6761 H   0  0  0  0  0  0
  -17.4190  -26.6687   21.4009 H   0  0  0  0  0  0
  -18.0303  -26.0047   22.8992 H   0  0  0  0  0  0
  -19.7930  -30.7249   24.2298 H   0  0  0  0  0  0
  -17.5010  -31.6270   24.5163 H   0  0  0  0  0  0
  -15.5350  -30.3002   23.7646 H   0  0  0  0  0  0
  -15.8654  -28.0824   22.7087 H   0  0  0  0  0  0
  -24.5949  -30.6992   25.7806 H   0  0  0  0  0  0
  -24.8900  -32.2818   26.4913 H   0  0  0  0  0  0
  -25.8107  -30.8862   27.0233 H   0  0  0  0  0  0
  -26.2843  -29.6792   24.1165 H   0  0  0  0  0  0
  -27.4130  -29.7283   25.4524 H   0  0  0  0  0  0
  -27.8657  -30.4369   23.9192 H   0  0  0  0  0  0
  -27.2717  -33.3604   26.2063 H   0  0  0  0  0  0
  -28.3878  -32.6836   25.0296 H   0  0  0  0  0  0
  -28.0734  -31.8404   26.5384 H   0  0  0  0  0  0
  -28.2532  -38.0145   24.7633 H   0  0  0  0  0  0
  -28.1160  -36.2689   24.6093 H   0  0  0  0  0  0
  -27.2330  -37.1194   25.8850 H   0  0  0  0  0  0
  -20.9311  -29.8743   21.6944 H   0  0  0  0  0  0
  -26.0150  -38.2861   24.1555 H   0  0  0  0  0  0
  -26.9839  -20.9663   22.3521 H   0  0  0  0  0  0
  -26.7897  -18.8022   23.4752 H   0  0  0  0  0  0
  -31.2616  -17.0049   21.7796 H   0  0  0  0  0  0
  -30.8677  -17.1427   20.0897 H   0  0  0  0  0  0
  -27.2281  -22.8022   21.1666 H   0  0  0  0  0  0
  -28.7313  -22.9794   22.0503 H   0  0  0  0  0  0
  -28.9770  -25.6329   21.7896 H   0  0  0  0  0  0
  -27.2816  -25.4265   21.4251 H   0  0  0  0  0  0
  -29.6168  -21.7218   19.8169 H   0  0  0  0  0  0
  -29.0642  -15.3212   21.4173 H   0  0  0  0  0  0
  1 25  1  0  0  0
  1 30  2  0  0  0
  1 82  1  0  0  0
  2  3  1  0  0  0
  2 25  1  0  0  0
  2 86  1  0  0  0
  2 87  1  0  0  0
  3  4  1  0  0  0
  3 88  1  0  0  0
  3 89  1  0  0  0
  4  5  1  0  0  0
  4 90  1  0  0  0
  4 91  1  0  0  0
  5  6  1  0  0  0
  5 26  1  0  0  0
  5 92  1  0  0  0
  6 25  1  0  0  0
  6 93  1  0  0  0
  6 94  1  0  0  0
  7  8  2  0  0  0
  7 26  1  0  0  0
  7 29  1  0  0  0
  8  9  1  0  0  0
  8 22  1  0  0  0
  9 10  1  0  0  0
  9 27  2  0  0  0
 10 11  2  0  0  0
 10 15  1  0  0  0
 11 12  1  0  0  0
 11 95  1  0  0  0
 12 13  2  0  0  0
 12 96  1  0  0  0
 13 14  1  0  0  0
 13 31  1  0  0  0
 14 15  2  0  0  0
 14 97  1  0  0  0
 15 98  1  0  0  0
 16 17  2  0  0  0
 16 21  1  0  0  0
 16 31  1  0  0  0
 17 18  1  0  0  0
 17 99  1  0  0  0
 18 19  2  0  0  0
 18100  1  0  0  0
 19 20  1  0  0  0
 19 24  1  0  0  0
 20 21  2  0  0  0
 20101  1  0  0  0
 21 23  1  0  0  0
 22 28  1  0  0  0
 22 32  2  0  0  0
 26 27  1  0  0  0
 28102  1  0  0  0
 28103  1  0  0  0
 29104  1  0  0  0
 29105  1  0  0  0
 33 34  1  0  0  0
 33 66  1  0  0  0
 33 70  2  0  0  0
 34 36  1  0  0  0
 34 59  1  0  0  0
 34106  1  0  0  0
 35 44  2  0  0  0
 35 45  1  0  0  0
 35 68  1  0  0  0
 36 56  1  0  0  0
 36107  1  0  0  0
 37 39  1  0  0  0
 37 47  1  0  0  0
 37 66  1  0  0  0
 37108  1  0  0  0
 38 43  2  0  0  0
 38 46  1  0  0  0
 38 47  1  0  0  0
 39 64  1  0  0  0
 39 67  2  0  0  0
 40 52  1  0  0  0
 40 53  2  0  0  0
 40 58  1  0  0  0
 41109  1  0  0  0
 41110  1  0  0  0
 41111  1  0  0  0
 41 48  1  0  0  0
 42 43  1  0  0  0
 42 66  1  0  0  0
 42112  1  0  0  0
 42113  1  0  0  0
 43 44  1  0  0  0
 44114  1  0  0  0
 45 46  2  0  0  0
 45115  1  0  0  0
 46116  1  0  0  0
 47117  1  0  0  0
 47118  1  0  0  0
 48 56  1  0  0  0
 48 65  1  0  0  0
 48119  1  0  0  0
 49 50  1  0  0  0
 49 53  1  0  0  0
 49 64  1  0  0  0
 49120  1  0  0  0
 50 51  1  0  0  0
 50121  1  0  0  0
 50122  1  0  0  0
 51 52  1  0  0  0
 51123  1  0  0  0
 51124  1  0  0  0
 52125  1  0  0  0
 52126  1  0  0  0
 53 54  1  0  0  0
 54 55  2  0  0  0
 54127  1  0  0  0
 55 57  1  0  0  0
 55128  1  0  0  0
 56 69  2  0  0  0
 57 58  2  0  0  0
 57129  1  0  0  0
 58130  1  0  0  0
 59 60  1  0  0  0
 59 61  1  0  0  0
 59 62  1  0  0  0
 60131  1  0  0  0
 60132  1  0  0  0
 60133  1  0  0  0
 61134  1  0  0  0
 61135  1  0  0  0
 61136  1  0  0  0
 62137  1  0  0  0
 62138  1  0  0  0
 62139  1  0  0  0
 63 65  1  0  0  0
 63140  1  0  0  0
 63141  1  0  0  0
 63142  1  0  0  0
 64143  1  0  0  0
 65144  1  0  0  0
 68 80  1  0  0  0
 71 72  2  0  0  0
 71 74  1  0  0  0
 71145  1  0  0  0
 72 76  1  0  0  0
 72146  1  0  0  0
 73 75  1  0  0  0
 73 76  2  0  0  0
 73 78  1  0  0  0
 74 75  2  0  0  0
 74 81  1  0  0  0
 75 84  1  0  0  0
 76 85  1  0  0  0
 77 79  1  0  0  0
 77 80  1  0  0  0
 77 83  2  0  0  0
 78 82  1  0  0  0
 78147  1  0  0  0
 78148  1  0  0  0
 79 81  1  0  0  0
 79149  1  0  0  0
 79150  1  0  0  0
 80151  1  0  0  0
 80152  1  0  0  0
 81153  1  0  0  0
 82154  1  0  0  0
M  ISO  4   1 100  68 101  80 101  82 100
M  END
> <chiral flag>
0

> <version>
0

> <s_m_source_file>
/data/baiqing/PycharmProjects/Reinvent-master-3.2/result/LINK_invent/BTK/process_docking_weight1_custom_product_contain_oxygen_bond_distance_aromatic_linkinvent_7_9_3/rearranged_h_0171.sdf

> <i_m_source_file_index>
37

> <r_mmod_Potential_Energy-OPLS-2005>
-42.463306427002

> <r_mmod_Stretch_Energy-OPLS-2005>
41.8183364868164

> <r_mmod_Bend_Energy-OPLS-2005>
101.137062072754

> <r_mmod_Torsional_Energy-OPLS-2005>
213.26628112793

> <r_mmod_Improper_Torsional_Energy-OPLS-2005>
5.67218589782715

> <r_mmod_Van_der_Waal_Energy-OPLS-2005>
150.120040893555

> <r_mmod_Electrostatic_Energy-OPLS-2005>
-337.229370117188

> <r_mmod_Solvation_Energy-OPLS-2005>
-231.700820922852

> <b_mmod_Minimization_Converged-OPLS-2005>
0

> <r_mmod_RMS_Derivative-OPLS-2005>
1.12413728237152

$$$$
37
                    3D
 Structure written by MMmdl.
153161  0  0  1  0            999 V2000
  -30.6579  -14.5478   20.4698 C   0  0  0  0  0  0
  -30.4259  -12.3284   19.4414 C   0  0  0  0  0  0
  -29.4988  -12.4790   18.2162 C   0  0  0  0  0  0
  -28.0213  -12.3335   18.6296 C   0  0  0  0  0  0
  -27.6528  -13.2074   19.8589 C   0  0  2  0  0  0
  -28.6956  -13.0512   20.9887 C   0  0  0  0  0  0
  -25.2575  -13.8157   20.5662 C   0  0  0  0  0  0
  -24.1830  -13.0441   20.9171 C   0  0  0  0  0  0
  -24.6373  -11.6906   20.8725 C   0  0  0  0  0  0
  -23.9038  -10.4299   21.0407 C   0  0  0  0  0  0
  -24.3602   -9.4216   21.9180 C   0  0  0  0  0  0
  -23.6284   -8.2251   22.0751 C   0  0  0  0  0  0
  -22.4268   -8.0287   21.3542 C   0  0  0  0  0  0
  -21.9890   -9.0257   20.4646 C   0  0  0  0  0  0
  -22.7210  -10.2140   20.3057 C   0  0  0  0  0  0
  -21.6852   -6.0733   22.5274 C   0  0  0  0  0  0
  -21.4017   -6.5637   23.8210 C   0  0  0  0  0  0
  -21.3653   -5.6788   24.9172 C   0  0  0  0  0  0
  -21.6041   -4.3050   24.7218 C   0  0  0  0  0  0
  -21.8823   -3.8143   23.4337 C   0  0  0  0  0  0
  -21.9193   -4.6960   22.3394 C   0  0  0  0  0  0
  -22.7858  -13.5249   21.1846 C   0  0  0  0  0  0
  -22.1666   -4.2150   21.0970 F   0  0  0  0  0  0
  -21.5623   -3.4529   25.7725 F   0  0  0  0  0  0
  -30.0197  -13.3462   20.4234 N   0  0  0  0  0  0
  -26.2982  -12.9312   20.3289 N   0  0  0  0  0  0
  -25.9297  -11.6482   20.5747 N   0  0  0  0  0  0
  -22.0496  -12.8254   22.0408 N   0  0  0  0  0  0
  -25.4325  -15.1873   20.4071 N   0  0  0  0  0  0
  -31.8548  -14.6658   20.1930 O   0  0  0  0  0  0
  -21.6641   -6.8877   21.4238 O   0  0  0  0  0  0
  -22.3547  -14.5558   20.6697 O   0  0  0  0  0  0
  -24.6185  -31.8660   23.2081 C   0  0  0  0  0  0
  -25.9067  -32.4810   23.8381 C   0  0  1  0  0  0
  -27.2269  -27.3929   20.0960 C   0  0  0  0  0  0
  -25.5917  -33.8609   24.2315 N   0  0  0  0  0  0
  -23.4061  -30.4915   21.5501 C   0  0  2  0  0  0
  -24.8483  -28.9516   20.1167 C   0  0  0  0  0  0
  -22.7425  -29.4660   22.4978 C   0  0  0  0  0  0
  -18.0278  -28.1378   22.8483 C   0  0  0  0  0  0
  -24.1492  -36.7313   23.2637 C   0  0  0  0  0  0
  -25.9396  -30.8195   21.3657 C   0  0  0  0  0  0
  -26.0127  -29.4511   20.7110 C   0  0  0  0  0  0
  -27.2024  -28.6812   20.6927 C   0  0  0  0  0  0
  -26.0327  -26.9133   19.5080 C   0  0  0  0  0  0
  -24.8553  -27.6839   19.5138 C   0  0  0  0  0  0
  -23.6146  -29.8256   20.1644 C   0  0  0  0  0  0
  -25.4114  -36.3105   24.0334 C   0  0  1  0  0  0
  -20.5869  -28.3674   23.1307 C   0  0  2  0  0  0
  -20.6770  -26.9407   22.5416 C   0  0  0  0  0  0
  -19.5752  -26.6383   21.5211 C   0  0  0  0  0  0
  -18.1927  -26.7925   22.1616 C   0  0  0  0  0  0
  -19.1527  -28.8842   23.2892 C   0  0  0  0  0  0
  -18.9456  -30.1445   23.8908 C   0  0  0  0  0  0
  -17.6458  -30.6580   24.0567 C   0  0  0  0  0  0
  -25.9043  -34.9470   23.5122 C   0  0  0  0  0  0
  -16.5349  -29.9083   23.6324 C   0  0  0  0  0  0
  -16.7267  -28.6502   23.0340 C   0  0  0  0  0  0
  -26.4482  -31.6594   25.0719 C   0  0  0  0  0  0
  -25.3744  -31.3712   26.1468 C   0  0  0  0  0  0
  -27.0307  -30.3025   24.6114 C   0  0  0  0  0  0
  -27.6064  -32.4308   25.7474 C   0  0  0  0  0  0
  -27.5587  -37.1808   24.8459 C   0  0  0  0  0  0
  -21.4150  -29.3039   22.3712 N   0  0  0  0  0  0
  -26.4297  -37.3792   23.9408 N   0  0  0  0  0  0
  -24.6735  -31.0737   22.0994 N   0  0  0  0  0  0
  -23.4186  -28.8202   23.3029 O   0  0  0  0  0  0
  -28.4121  -26.6683   20.1011 O   0  0  0  0  0  0
  -26.5602  -34.8926   22.4683 O   0  0  0  0  0  0
  -23.5373  -32.1427   23.7464 O   0  0  0  0  0  0
  -30.1932  -19.4588   18.7003 C   0  0  0  0  0  0
  -30.7309  -18.3084   18.1026 C   0  0  0  0  0  0
  -29.4066  -18.0982   20.5654 C   0  0  0  0  0  0
  -29.5026  -19.3762   19.9300 C   0  0  0  0  0  0
  -29.9879  -16.9236   19.9900 C   0  0  0  0  0  0
  -30.6099  -17.0515   18.7175 C   0  0  0  0  0  0
  -27.9537  -22.8249   20.6441 C   0  0  0  0  0  0
  -29.1224  -21.8525   20.2564 C   0  0  0  0  0  0
  -28.2661  -24.3103   20.9639 C   0  0  0  0  0  0
  -28.4476  -25.2604   19.7456 C   0  0  0  0  0  0
  -28.8314  -20.5385   20.4573 N   0  0  0  0  0  0
  -29.8588  -15.6335   20.6374 N   0  0  0  0  0  0
  -26.7888  -22.4171   20.7267 O   0  0  0  0  0  0
  -30.2063  -22.2756   19.8404 O   0  0  0  0  0  0
  -31.0501  -15.9720   18.0282 F   0  0  0  0  0  0
  -31.4698  -12.4340   19.1399 H   0  0  0  0  0  0
  -30.3387  -11.3306   19.8744 H   0  0  0  0  0  0
  -29.7487  -11.7310   17.4627 H   0  0  0  0  0  0
  -29.6559  -13.4517   17.7466 H   0  0  0  0  0  0
  -27.8499  -11.2817   18.8631 H   0  0  0  0  0  0
  -27.3686  -12.5669   17.7880 H   0  0  0  0  0  0
  -27.6753  -14.2420   19.5167 H   0  0  0  0  0  0
  -28.6820  -12.0353   21.3870 H   0  0  0  0  0  0
  -28.4637  -13.7064   21.8306 H   0  0  0  0  0  0
  -25.2750   -9.5691   22.4749 H   0  0  0  0  0  0
  -23.9993   -7.4639   22.7463 H   0  0  0  0  0  0
  -21.0822   -8.8769   19.8953 H   0  0  0  0  0  0
  -22.3665  -10.9679   19.6168 H   0  0  0  0  0  0
  -21.2027   -7.6147   23.9711 H   0  0  0  0  0  0
  -21.1464   -6.0521   25.9073 H   0  0  0  0  0  0
  -22.0610   -2.7605   23.2837 H   0  0  0  0  0  0
  -22.4101  -11.9917   22.4809 H   0  0  0  0  0  0
  -21.1122  -13.1306   22.2611 H   0  0  0  0  0  0
  -24.6681  -15.8457   20.5137 H   0  0  0  0  0  0
  -26.2817  -15.6204   20.0674 H   0  0  0  0  0  0
  -26.7135  -32.5500   23.1138 H   0  0  0  0  0  0
  -25.0078  -33.9764   25.0467 H   0  0  0  0  0  0
  -22.6961  -31.3098   21.4120 H   0  0  0  0  0  0
  -23.3750  -35.9648   23.3300 H   0  0  0  0  0  0
  -24.3592  -36.8929   22.2051 H   0  0  0  0  0  0
  -23.7245  -37.6519   23.6654 H   0  0  0  0  0  0
  -26.0588  -31.5854   20.5981 H   0  0  0  0  0  0
  -26.8257  -30.8701   21.9873 H   0  0  0  0  0  0
  -28.1034  -29.0688   21.1474 H   0  0  0  0  0  0
  -25.9706  -25.9471   19.0344 H   0  0  0  0  0  0
  -23.9577  -27.2917   19.0559 H   0  0  0  0  0  0
  -23.7282  -30.6017   19.4065 H   0  0  0  0  0  0
  -22.7351  -29.2519   19.8660 H   0  0  0  0  0  0
  -25.1287  -36.1971   25.0825 H   0  0  0  0  0  0
  -20.9959  -28.3248   24.1430 H   0  0  0  0  0  0
  -20.5669  -26.2288   23.3609 H   0  0  0  0  0  0
  -21.6645  -26.7442   22.1221 H   0  0  0  0  0  0
  -19.6916  -25.6296   21.1237 H   0  0  0  0  0  0
  -19.6690  -27.3197   20.6746 H   0  0  0  0  0  0
  -17.4200  -26.6674   21.4013 H   0  0  0  0  0  0
  -18.0319  -26.0061   22.9005 H   0  0  0  0  0  0
  -19.7934  -30.7256   24.2279 H   0  0  0  0  0  0
  -17.5014  -31.6261   24.5169 H   0  0  0  0  0  0
  -15.5350  -30.2989   23.7641 H   0  0  0  0  0  0
  -15.8668  -28.0828   22.7045 H   0  0  0  0  0  0
  -24.5911  -30.7062   25.7808 H   0  0  0  0  0  0
  -24.8945  -32.2875   26.4914 H   0  0  0  0  0  0
  -25.8095  -30.8880   27.0225 H   0  0  0  0  0  0
  -26.2850  -29.6781   24.1173 H   0  0  0  0  0  0
  -27.4070  -29.7265   25.4581 H   0  0  0  0  0  0
  -27.8694  -30.4327   23.9270 H   0  0  0  0  0  0
  -27.2689  -33.3592   26.2089 H   0  0  0  0  0  0
  -28.3848  -32.6888   25.0281 H   0  0  0  0  0  0
  -28.0760  -31.8407   26.5353 H   0  0  0  0  0  0
  -28.2605  -38.0106   24.7518 H   0  0  0  0  0  0
  -28.1084  -36.2642   24.6266 H   0  0  0  0  0  0
  -27.2312  -37.1436   25.8863 H   0  0  0  0  0  0
  -20.9312  -29.8769   21.6939 H   0  0  0  0  0  0
  -26.0185  -38.2870   24.1410 H   0  0  0  0  0  0
  -30.2788  -20.3933   18.1655 H   0  0  0  0  0  0
  -31.2108  -18.3856   17.1389 H   0  0  0  0  0  0
  -28.8750  -18.0179   21.5029 H   0  0  0  0  0  0
  -29.1504  -24.3509   21.5986 H   0  0  0  0  0  0
  -27.4413  -24.6788   21.5723 H   0  0  0  0  0  0
  -27.7838  -25.0021   18.9234 H   0  0  0  0  0  0
  -29.4429  -25.0829   19.3376 H   0  0  0  0  0  0
  -27.9616  -20.3820   20.9515 H   0  0  0  0  0  0
  -28.9642  -15.4470   21.0633 H   0  0  0  0  0  0
  1 25  1  0  0  0
  1 30  2  0  0  0
  1 82  1  0  0  0
  2  3  1  0  0  0
  2 25  1  0  0  0
  2 86  1  0  0  0
  2 87  1  0  0  0
  3  4  1  0  0  0
  3 88  1  0  0  0
  3 89  1  0  0  0
  4  5  1  0  0  0
  4 90  1  0  0  0
  4 91  1  0  0  0
  5  6  1  0  0  0
  5 26  1  0  0  0
  5 92  1  0  0  0
  6 25  1  0  0  0
  6 93  1  0  0  0
  6 94  1  0  0  0
  7  8  2  0  0  0
  7 26  1  0  0  0
  7 29  1  0  0  0
  8  9  1  0  0  0
  8 22  1  0  0  0
  9 10  1  0  0  0
  9 27  2  0  0  0
 10 11  2  0  0  0
 10 15  1  0  0  0
 11 12  1  0  0  0
 11 95  1  0  0  0
 12 13  2  0  0  0
 12 96  1  0  0  0
 13 14  1  0  0  0
 13 31  1  0  0  0
 14 15  2  0  0  0
 14 97  1  0  0  0
 15 98  1  0  0  0
 16 17  2  0  0  0
 16 21  1  0  0  0
 16 31  1  0  0  0
 17 18  1  0  0  0
 17 99  1  0  0  0
 18 19  2  0  0  0
 18100  1  0  0  0
 19 20  1  0  0  0
 19 24  1  0  0  0
 20 21  2  0  0  0
 20101  1  0  0  0
 21 23  1  0  0  0
 22 28  1  0  0  0
 22 32  2  0  0  0
 26 27  1  0  0  0
 28102  1  0  0  0
 28103  1  0  0  0
 29104  1  0  0  0
 29105  1  0  0  0
 33 34  1  0  0  0
 33 66  1  0  0  0
 33 70  2  0  0  0
 34 36  1  0  0  0
 34 59  1  0  0  0
 34106  1  0  0  0
 35 44  2  0  0  0
 35 45  1  0  0  0
 35 68  1  0  0  0
 36 56  1  0  0  0
 36107  1  0  0  0
 37 39  1  0  0  0
 37 47  1  0  0  0
 37 66  1  0  0  0
 37108  1  0  0  0
 38 43  2  0  0  0
 38 46  1  0  0  0
 38 47  1  0  0  0
 39 64  1  0  0  0
 39 67  2  0  0  0
 40 52  1  0  0  0
 40 53  2  0  0  0
 40 58  1  0  0  0
 41109  1  0  0  0
 41110  1  0  0  0
 41111  1  0  0  0
 41 48  1  0  0  0
 42 43  1  0  0  0
 42 66  1  0  0  0
 42112  1  0  0  0
 42113  1  0  0  0
 43 44  1  0  0  0
 44114  1  0  0  0
 45 46  2  0  0  0
 45115  1  0  0  0
 46116  1  0  0  0
 47117  1  0  0  0
 47118  1  0  0  0
 48 56  1  0  0  0
 48 65  1  0  0  0
 48119  1  0  0  0
 49 50  1  0  0  0
 49 53  1  0  0  0
 49 64  1  0  0  0
 49120  1  0  0  0
 50 51  1  0  0  0
 50121  1  0  0  0
 50122  1  0  0  0
 51 52  1  0  0  0
 51123  1  0  0  0
 51124  1  0  0  0
 52125  1  0  0  0
 52126  1  0  0  0
 53 54  1  0  0  0
 54 55  2  0  0  0
 54127  1  0  0  0
 55 57  1  0  0  0
 55128  1  0  0  0
 56 69  2  0  0  0
 57 58  2  0  0  0
 57129  1  0  0  0
 58130  1  0  0  0
 59 60  1  0  0  0
 59 61  1  0  0  0
 59 62  1  0  0  0
 60131  1  0  0  0
 60132  1  0  0  0
 60133  1  0  0  0
 61134  1  0  0  0
 61135  1  0  0  0
 61136  1  0  0  0
 62137  1  0  0  0
 62138  1  0  0  0
 62139  1  0  0  0
 63 65  1  0  0  0
 63140  1  0  0  0
 63141  1  0  0  0
 63142  1  0  0  0
 64143  1  0  0  0
 65144  1  0  0  0
 68 80  1  0  0  0
 71 72  2  0  0  0
 71 74  1  0  0  0
 71145  1  0  0  0
 72 76  1  0  0  0
 72146  1  0  0  0
 73 74  2  0  0  0
 73 75  1  0  0  0
 73147  1  0  0  0
 74 81  1  0  0  0
 75 76  2  0  0  0
 75 82  1  0  0  0
 76 85  1  0  0  0
 77 78  1  0  0  0
 77 79  1  0  0  0
 77 83  2  0  0  0
 78 81  1  0  0  0
 78 84  2  0  0  0
 79 80  1  0  0  0
 79148  1  0  0  0
 79149  1  0  0  0
 80150  1  0  0  0
 80151  1  0  0  0
 81152  1  0  0  0
 82153  1  0  0  0
M  ISO  4   1 100  68 101  80 101  82 100
M  END
> <chiral flag>
0

> <version>
0

> <s_m_source_file>
/data/baiqing/PycharmProjects/Reinvent-master-3.2/result/LINK_invent/BTK/process_docking_weight1_custom_product_contain_oxygen_bond_distance_aromatic_linkinvent_7_9_3/rearranged_h_0171.sdf

> <i_m_source_file_index>
38

> <r_mmod_Potential_Energy-OPLS-2005>
-41.6476669311523

> <r_mmod_Stretch_Energy-OPLS-2005>
50.7457542419434

> <r_mmod_Bend_Energy-OPLS-2005>
112.570297241211

> <r_mmod_Torsional_Energy-OPLS-2005>
253.222290039062

> <r_mmod_Improper_Torsional_Energy-OPLS-2005>
6.1764612197876

> <r_mmod_Van_der_Waal_Energy-OPLS-2005>
156.368103027344

> <r_mmod_Electrostatic_Energy-OPLS-2005>
-406.951568603516

> <r_mmod_Solvation_Energy-OPLS-2005>
-240.219375610352

> <b_mmod_Minimization_Converged-OPLS-2005>
0

> <r_mmod_RMS_Derivative-OPLS-2005>
1.19309067726135

$$$$
38
                    3D
 Structure written by MMmdl.
158167  0  0  1  0            999 V2000
  -30.5186  -14.8902   20.4718 C   0  0  0  0  0  0
  -30.4516  -12.5554   19.5044 C   0  0  0  0  0  0
  -29.5301  -12.5479   18.2620 C   0  0  0  0  0  0
  -28.0510  -12.3561   18.6569 C   0  0  0  0  0  0
  -27.6400  -13.2509   19.8569 C   0  0  2  0  0  0
  -28.6804  -13.1902   20.9985 C   0  0  0  0  0  0
  -25.2437  -13.8207   20.5669 C   0  0  0  0  0  0
  -24.1786  -13.0460   20.9179 C   0  0  0  0  0  0
  -24.6407  -11.6931   20.8761 C   0  0  0  0  0  0
  -23.9106  -10.4294   21.0425 C   0  0  0  0  0  0
  -24.3634   -9.4188   21.9205 C   0  0  0  0  0  0
  -23.6298   -8.2237   22.0764 C   0  0  0  0  0  0
  -22.4270   -8.0288   21.3566 C   0  0  0  0  0  0
  -21.9935   -9.0266   20.4654 C   0  0  0  0  0  0
  -22.7283  -10.2136   20.3069 C   0  0  0  0  0  0
  -21.6833   -6.0732   22.5298 C   0  0  0  0  0  0
  -21.3996   -6.5617   23.8224 C   0  0  0  0  0  0
  -21.3662   -5.6779   24.9171 C   0  0  0  0  0  0
  -21.6056   -4.3047   24.7239 C   0  0  0  0  0  0
  -21.8808   -3.8127   23.4349 C   0  0  0  0  0  0
  -21.9186   -4.6958   22.3391 C   0  0  0  0  0  0
  -22.7768  -13.5189   21.1844 C   0  0  0  0  0  0
  -22.1646   -4.2135   21.0990 F   0  0  0  0  0  0
  -21.5648   -3.4538   25.7744 F   0  0  0  0  0  0
  -29.9701  -13.6134   20.4354 N   0  0  0  0  0  0
  -26.2917  -12.9489   20.3278 N   0  0  0  0  0  0
  -25.9354  -11.6595   20.5726 N   0  0  0  0  0  0
  -22.0414  -12.8255   22.0412 N   0  0  0  0  0  0
  -25.4077  -15.1978   20.4064 N   0  0  0  0  0  0
  -31.6817  -15.0401   20.0730 O   0  0  0  0  0  0
  -21.6628   -6.8901   21.4265 O   0  0  0  0  0  0
  -22.3494  -14.5515   20.6660 O   0  0  0  0  0  0
  -24.6444  -31.8521   23.1947 C   0  0  0  0  0  0
  -25.9230  -32.4789   23.8286 C   0  0  1  0  0  0
  -27.2356  -27.2009   20.1291 C   0  0  0  0  0  0
  -25.5954  -33.8563   24.2225 N   0  0  0  0  0  0
  -23.4356  -30.4821   21.5374 C   0  0  2  0  0  0
  -24.8856  -28.9086   20.0975 C   0  0  0  0  0  0
  -22.7544  -29.4626   22.4843 C   0  0  0  0  0  0
  -18.0438  -28.1095   22.8510 C   0  0  0  0  0  0
  -24.1470  -36.7288   23.2653 C   0  0  0  0  0  0
  -25.9838  -30.7473   21.3699 C   0  0  0  0  0  0
  -26.0559  -29.3596   20.7180 C   0  0  0  0  0  0
  -27.2236  -28.5212   20.7214 C   0  0  0  0  0  0
  -26.0458  -26.8298   19.4641 C   0  0  0  0  0  0
  -24.8961  -27.6597   19.4536 C   0  0  0  0  0  0
  -23.6569  -29.8158   20.1527 C   0  0  0  0  0  0
  -25.4114  -36.3091   24.0318 C   0  0  1  0  0  0
  -20.6003  -28.3776   23.1405 C   0  0  2  0  0  0
  -20.7093  -26.9575   22.5436 C   0  0  0  0  0  0
  -19.6118  -26.6422   21.5130 C   0  0  0  0  0  0
  -18.2296  -26.7617   22.1676 C   0  0  0  0  0  0
  -19.1580  -28.8741   23.2956 C   0  0  0  0  0  0
  -18.9304  -30.1333   23.8955 C   0  0  0  0  0  0
  -17.6215  -30.6273   24.0529 C   0  0  0  0  0  0
  -25.9084  -34.9472   23.5105 C   0  0  0  0  0  0
  -16.5202  -29.8562   23.6446 C   0  0  0  0  0  0
  -16.7340  -28.6038   23.0422 C   0  0  0  0  0  0
  -26.4515  -31.6586   25.0663 C   0  0  0  0  0  0
  -25.3685  -31.3707   26.1341 C   0  0  0  0  0  0
  -27.0347  -30.3019   24.6090 C   0  0  0  0  0  0
  -27.6056  -32.4351   25.7422 C   0  0  0  0  0  0
  -27.5549  -37.1848   24.8485 C   0  0  0  0  0  0
  -21.4228  -29.3130   22.3708 N   0  0  0  0  0  0
  -26.4273  -37.3815   23.9436 N   0  0  0  0  0  0
  -24.7069  -31.0481   22.0911 N   0  0  0  0  0  0
  -23.4281  -28.8183   23.2946 O   0  0  0  0  0  0
  -28.3378  -26.2942   20.2415 O   0  0  0  0  0  0
  -26.5667  -34.8967   22.4684 O   0  0  0  0  0  0
  -23.5598  -32.1376   23.7252 O   0  0  0  0  0  0
  -28.6711  -19.7882   21.2882 C   0  0  0  0  0  0
  -28.9011  -18.3689   21.5113 C   0  0  0  0  0  0
  -30.2292  -18.2364   19.5716 C   0  0  0  0  0  0
  -29.1641  -20.4940   20.1492 C   0  0  0  0  0  0
  -29.6682  -17.4940   20.6610 C   0  0  0  0  0  0
  -29.9891  -19.6476   19.3255 C   0  0  0  0  0  0
  -27.1388  -23.3607   21.2080 C   0  0  0  0  0  0
  -27.3523  -21.6959   18.8287 C   0  0  0  0  0  0
  -26.1306  -22.6175   19.0814 C   0  0  0  0  0  0
  -28.6554  -21.9743   19.6335 C   0  0  1  0  0  0
  -28.4724  -23.4114   20.4703 C   0  0  1  0  0  0
  -28.4727  -24.8752   19.6591 C   0  0  0  0  0  0
  -26.0669  -23.0980   20.4584 N   0  0  0  0  0  0
  -29.7204  -15.9817   20.8792 N   0  0  0  0  0  0
  -27.0578  -23.6301   22.4063 O   0  0  0  0  0  0
  -30.5253  -20.1744   18.1972 F   0  0  0  0  0  0
  -31.4860  -12.7373   19.2009 H   0  0  0  0  0  0
  -30.4484  -11.5788   19.9879 H   0  0  0  0  0  0
  -29.8313  -11.7607   17.5671 H   0  0  0  0  0  0
  -29.6431  -13.4900   17.7250 H   0  0  0  0  0  0
  -27.9085  -11.3045   18.9115 H   0  0  0  0  0  0
  -27.4030  -12.5415   17.7976 H   0  0  0  0  0  0
  -27.6293  -14.2710   19.4710 H   0  0  0  0  0  0
  -28.7426  -12.1753   21.3904 H   0  0  0  0  0  0
  -28.3791  -13.8307   21.8305 H   0  0  0  0  0  0
  -25.2776   -9.5625   22.4798 H   0  0  0  0  0  0
  -23.9963   -7.4607   22.7486 H   0  0  0  0  0  0
  -21.0848   -8.8793   19.8975 H   0  0  0  0  0  0
  -22.3738  -10.9672   19.6165 H   0  0  0  0  0  0
  -21.1964   -7.6125   23.9715 H   0  0  0  0  0  0
  -21.1513   -6.0517   25.9095 H   0  0  0  0  0  0
  -22.0590   -2.7601   23.2854 H   0  0  0  0  0  0
  -22.3972  -11.9939   22.4895 H   0  0  0  0  0  0
  -21.1058  -13.1340   22.2566 H   0  0  0  0  0  0
  -24.6305  -15.8436   20.4806 H   0  0  0  0  0  0
  -26.2573  -15.6387   20.0791 H   0  0  0  0  0  0
  -26.7245  -32.5495   23.0991 H   0  0  0  0  0  0
  -24.9949  -33.9626   25.0257 H   0  0  0  0  0  0
  -22.7510  -31.3221   21.3982 H   0  0  0  0  0  0
  -23.3720  -35.9632   23.3317 H   0  0  0  0  0  0
  -24.3523  -36.8914   22.2066 H   0  0  0  0  0  0
  -23.7242  -37.6502   23.6652 H   0  0  0  0  0  0
  -26.1140  -31.4901   20.5860 H   0  0  0  0  0  0
  -26.8711  -30.8271   21.9855 H   0  0  0  0  0  0
  -28.1076  -28.8732   21.2357 H   0  0  0  0  0  0
  -25.9793  -25.8693   18.9737 H   0  0  0  0  0  0
  -24.0005  -27.3233   18.9553 H   0  0  0  0  0  0
  -23.7899  -30.6122   19.4162 H   0  0  0  0  0  0
  -22.7650  -29.2684   19.8473 H   0  0  0  0  0  0
  -25.1307  -36.1876   25.0794 H   0  0  0  0  0  0
  -21.0110  -28.3677   24.1565 H   0  0  0  0  0  0
  -20.6205  -26.2650   23.3800 H   0  0  0  0  0  0
  -21.6965  -26.7668   22.1193 H   0  0  0  0  0  0
  -19.7640  -25.6469   21.0959 H   0  0  0  0  0  0
  -19.6718  -27.3368   20.6754 H   0  0  0  0  0  0
  -17.4531  -26.5968   21.4180 H   0  0  0  0  0  0
  -18.1064  -25.9739   22.9138 H   0  0  0  0  0  0
  -19.7712  -30.7214   24.2361 H   0  0  0  0  0  0
  -17.4492  -31.5920   24.5126 H   0  0  0  0  0  0
  -15.5090  -30.2137   23.8032 H   0  0  0  0  0  0
  -15.8866  -28.0049   22.7320 H   0  0  0  0  0  0
  -24.5892  -30.7062   25.7597 H   0  0  0  0  0  0
  -24.8804  -32.2848   26.4728 H   0  0  0  0  0  0
  -25.7927  -30.8857   27.0142 H   0  0  0  0  0  0
  -26.2898  -29.6803   24.1122 H   0  0  0  0  0  0
  -27.4104  -29.7249   25.4545 H   0  0  0  0  0  0
  -27.8728  -30.4331   23.9257 H   0  0  0  0  0  0
  -27.2651  -33.3691   26.1906 H   0  0  0  0  0  0
  -28.3837  -32.6908   25.0211 H   0  0  0  0  0  0
  -28.0728  -31.8549   26.5385 H   0  0  0  0  0  0
  -28.2658  -38.0074   24.7520 H   0  0  0  0  0  0
  -28.0960  -36.2639   24.6301 H   0  0  0  0  0  0
  -27.2290  -37.1504   25.8899 H   0  0  0  0  0  0
  -20.9343  -29.8867   21.6976 H   0  0  0  0  0  0
  -26.0116  -38.2885   24.1417 H   0  0  0  0  0  0
  -28.0474  -20.3315   21.9884 H   0  0  0  0  0  0
  -28.4251  -17.9342   22.3779 H   0  0  0  0  0  0
  -30.8203  -17.7003   18.8490 H   0  0  0  0  0  0
  -27.5608  -21.6439   17.7619 H   0  0  0  0  0  0
  -27.0287  -20.6911   19.0833 H   0  0  0  0  0  0
  -25.2203  -22.0550   18.8790 H   0  0  0  0  0  0
  -26.1063  -23.4495   18.3741 H   0  0  0  0  0  0
  -29.4168  -22.2459   18.9009 H   0  0  0  0  0  0
  -29.2572  -23.4775   21.2198 H   0  0  0  0  0  0
  -27.9001  -24.7871   18.7422 H   0  0  0  0  0  0
  -29.4804  -24.9384   19.2457 H   0  0  0  0  0  0
  -25.1595  -23.3374   20.8368 H   0  0  0  0  0  0
  -28.9405  -15.6441   21.4222 H   0  0  0  0  0  0
  1 25  1  0  0  0
  1 30  2  0  0  0
  1 84  1  0  0  0
  2  3  1  0  0  0
  2 25  1  0  0  0
  2 87  1  0  0  0
  2 88  1  0  0  0
  3  4  1  0  0  0
  3 89  1  0  0  0
  3 90  1  0  0  0
  4  5  1  0  0  0
  4 91  1  0  0  0
  4 92  1  0  0  0
  5  6  1  0  0  0
  5 26  1  0  0  0
  5 93  1  0  0  0
  6 25  1  0  0  0
  6 94  1  0  0  0
  6 95  1  0  0  0
  7  8  2  0  0  0
  7 26  1  0  0  0
  7 29  1  0  0  0
  8  9  1  0  0  0
  8 22  1  0  0  0
  9 10  1  0  0  0
  9 27  2  0  0  0
 10 11  2  0  0  0
 10 15  1  0  0  0
 11 12  1  0  0  0
 11 96  1  0  0  0
 12 13  2  0  0  0
 12 97  1  0  0  0
 13 14  1  0  0  0
 13 31  1  0  0  0
 14 15  2  0  0  0
 14 98  1  0  0  0
 15 99  1  0  0  0
 16 17  2  0  0  0
 16 21  1  0  0  0
 16 31  1  0  0  0
 17 18  1  0  0  0
 17100  1  0  0  0
 18 19  2  0  0  0
 18101  1  0  0  0
 19 20  1  0  0  0
 19 24  1  0  0  0
 20 21  2  0  0  0
 20102  1  0  0  0
 21 23  1  0  0  0
 22 28  1  0  0  0
 22 32  2  0  0  0
 26 27  1  0  0  0
 28103  1  0  0  0
 28104  1  0  0  0
 29105  1  0  0  0
 29106  1  0  0  0
 33 34  1  0  0  0
 33 66  1  0  0  0
 33 70  2  0  0  0
 34 36  1  0  0  0
 34 59  1  0  0  0
 34107  1  0  0  0
 35 44  2  0  0  0
 35 45  1  0  0  0
 35 68  1  0  0  0
 36 56  1  0  0  0
 36108  1  0  0  0
 37 39  1  0  0  0
 37 47  1  0  0  0
 37 66  1  0  0  0
 37109  1  0  0  0
 38 43  2  0  0  0
 38 46  1  0  0  0
 38 47  1  0  0  0
 39 64  1  0  0  0
 39 67  2  0  0  0
 40 52  1  0  0  0
 40 53  2  0  0  0
 40 58  1  0  0  0
 41110  1  0  0  0
 41111  1  0  0  0
 41112  1  0  0  0
 41 48  1  0  0  0
 42 43  1  0  0  0
 42 66  1  0  0  0
 42113  1  0  0  0
 42114  1  0  0  0
 43 44  1  0  0  0
 44115  1  0  0  0
 45 46  2  0  0  0
 45116  1  0  0  0
 46117  1  0  0  0
 47118  1  0  0  0
 47119  1  0  0  0
 48 56  1  0  0  0
 48 65  1  0  0  0
 48120  1  0  0  0
 49 50  1  0  0  0
 49 53  1  0  0  0
 49 64  1  0  0  0
 49121  1  0  0  0
 50 51  1  0  0  0
 50122  1  0  0  0
 50123  1  0  0  0
 51 52  1  0  0  0
 51124  1  0  0  0
 51125  1  0  0  0
 52126  1  0  0  0
 52127  1  0  0  0
 53 54  1  0  0  0
 54 55  2  0  0  0
 54128  1  0  0  0
 55 57  1  0  0  0
 55129  1  0  0  0
 56 69  2  0  0  0
 57 58  2  0  0  0
 57130  1  0  0  0
 58131  1  0  0  0
 59 60  1  0  0  0
 59 61  1  0  0  0
 59 62  1  0  0  0
 60132  1  0  0  0
 60133  1  0  0  0
 60134  1  0  0  0
 61135  1  0  0  0
 61136  1  0  0  0
 61137  1  0  0  0
 62138  1  0  0  0
 62139  1  0  0  0
 62140  1  0  0  0
 63 65  1  0  0  0
 63141  1  0  0  0
 63142  1  0  0  0
 63143  1  0  0  0
 64144  1  0  0  0
 65145  1  0  0  0
 68 82  1  0  0  0
 71 72  2  0  0  0
 71 74  1  0  0  0
 71146  1  0  0  0
 72 75  1  0  0  0
 72147  1  0  0  0
 73 75  2  0  0  0
 73 76  1  0  0  0
 73148  1  0  0  0
 74 76  2  0  0  0
 74 80  1  0  0  0
 75 84  1  0  0  0
 76 86  1  0  0  0
 77 81  1  0  0  0
 77 83  1  0  0  0
 77 85  2  0  0  0
 78 79  1  0  0  0
 78 80  1  0  0  0
 78149  1  0  0  0
 78150  1  0  0  0
 79 83  1  0  0  0
 79151  1  0  0  0
 79152  1  0  0  0
 80 81  1  0  0  0
 80153  1  0  0  0
 81 82  1  0  0  0
 81154  1  0  0  0
 82155  1  0  0  0
 82156  1  0  0  0
 83157  1  0  0  0
 84158  1  0  0  0
M  ISO  4   1 100  68 101  82 101  84 100
M  END
> <chiral flag>
0

> <version>
0

> <s_m_source_file>
/data/baiqing/PycharmProjects/Reinvent-master-3.2/result/LINK_invent/BTK/process_docking_weight1_custom_product_contain_oxygen_bond_distance_aromatic_linkinvent_7_9_3/rearranged_h_0171.sdf

> <i_m_source_file_index>
39

> <r_mmod_Potential_Energy-OPLS-2005>
422.502532958984

> <r_mmod_Stretch_Energy-OPLS-2005>
209.119506835938

> <r_mmod_Bend_Energy-OPLS-2005>
275.722747802734

> <r_mmod_Torsional_Energy-OPLS-2005>
269.913757324219

> <r_mmod_Improper_Torsional_Energy-OPLS-2005>
5.49925184249878

> <r_mmod_Van_der_Waal_Energy-OPLS-2005>
134.399063110352

> <r_mmod_Electrostatic_Energy-OPLS-2005>
-374.75634765625

> <r_mmod_Solvation_Energy-OPLS-2005>
-242.968338012695

> <b_mmod_Minimization_Converged-OPLS-2005>
0

> <r_mmod_RMS_Derivative-OPLS-2005>
11.4034357070923

$$$$
39
                    3D
 Structure written by MMmdl.
154162  0  0  1  0            999 V2000
  -30.7077  -14.5019   20.5426 C   0  0  0  0  0  0
  -30.4295  -12.3198   19.4219 C   0  0  0  0  0  0
  -29.4963  -12.4815   18.2063 C   0  0  0  0  0  0
  -28.0224  -12.3357   18.6315 C   0  0  0  0  0  0
  -27.6623  -13.2034   19.8665 C   0  0  2  0  0  0
  -28.7091  -13.0233   20.9890 C   0  0  0  0  0  0
  -25.2616  -13.8155   20.5645 C   0  0  0  0  0  0
  -24.1861  -13.0446   20.9171 C   0  0  0  0  0  0
  -24.6418  -11.6910   20.8756 C   0  0  0  0  0  0
  -23.9076  -10.4294   21.0417 C   0  0  0  0  0  0
  -24.3620   -9.4205   21.9194 C   0  0  0  0  0  0
  -23.6296   -8.2242   22.0763 C   0  0  0  0  0  0
  -22.4285   -8.0277   21.3541 C   0  0  0  0  0  0
  -21.9919   -9.0256   20.4645 C   0  0  0  0  0  0
  -22.7251  -10.2135   20.3058 C   0  0  0  0  0  0
  -21.6849   -6.0726   22.5269 C   0  0  0  0  0  0
  -21.4015   -6.5634   23.8202 C   0  0  0  0  0  0
  -21.3657   -5.6790   24.9166 C   0  0  0  0  0  0
  -21.6045   -4.3055   24.7224 C   0  0  0  0  0  0
  -21.8821   -3.8144   23.4346 C   0  0  0  0  0  0
  -21.9202   -4.6956   22.3400 C   0  0  0  0  0  0
  -22.7885  -13.5239   21.1847 C   0  0  0  0  0  0
  -22.1664   -4.2151   21.0972 F   0  0  0  0  0  0
  -21.5633   -3.4536   25.7730 F   0  0  0  0  0  0
  -30.0335  -13.3250   20.4205 N   0  0  0  0  0  0
  -26.3050  -12.9316   20.3354 N   0  0  0  0  0  0
  -25.9347  -11.6490   20.5800 N   0  0  0  0  0  0
  -22.0525  -12.8209   22.0383 N   0  0  0  0  0  0
  -25.4377  -15.1850   20.3921 N   0  0  0  0  0  0
  -31.8524  -14.6620   20.1120 O   0  0  0  0  0  0
  -21.6635   -6.8877   21.4234 O   0  0  0  0  0  0
  -22.3581  -14.5552   20.6709 O   0  0  0  0  0  0
  -24.6166  -31.8670   23.2109 C   0  0  0  0  0  0
  -25.9036  -32.4845   23.8408 C   0  0  1  0  0  0
  -27.2336  -27.4061   20.0907 C   0  0  0  0  0  0
  -25.5869  -33.8648   24.2339 N   0  0  0  0  0  0
  -23.4050  -30.4913   21.5549 C   0  0  2  0  0  0
  -24.8527  -28.9601   20.1154 C   0  0  0  0  0  0
  -22.7436  -29.4637   22.5018 C   0  0  0  0  0  0
  -18.0264  -28.1313   22.8504 C   0  0  0  0  0  0
  -24.1478  -36.7320   23.2628 C   0  0  0  0  0  0
  -25.9377  -30.8203   21.3730 C   0  0  0  0  0  0
  -26.0159  -29.4549   20.7163 C   0  0  0  0  0  0
  -27.2069  -28.6861   20.7034 C   0  0  0  0  0  0
  -26.0455  -26.9465   19.4677 C   0  0  0  0  0  0
  -24.8626  -27.7058   19.4895 C   0  0  0  0  0  0
  -23.6129  -29.8241   20.1705 C   0  0  0  0  0  0
  -25.4091  -36.3136   24.0336 C   0  0  1  0  0  0
  -20.5863  -28.3604   23.1301 C   0  0  2  0  0  0
  -20.6761  -26.9348   22.5384 C   0  0  0  0  0  0
  -19.5735  -26.6354   21.5178 C   0  0  0  0  0  0
  -18.1906  -26.7885   22.1607 C   0  0  0  0  0  0
  -19.1517  -28.8783   23.2898 C   0  0  0  0  0  0
  -18.9465  -30.1395   23.8907 C   0  0  0  0  0  0
  -17.6473  -30.6554   24.0534 C   0  0  0  0  0  0
  -25.9013  -34.9496   23.5140 C   0  0  0  0  0  0
  -16.5351  -29.9040   23.6324 C   0  0  0  0  0  0
  -16.7261  -28.6429   23.0391 C   0  0  0  0  0  0
  -26.4452  -31.6638   25.0753 C   0  0  0  0  0  0
  -25.3706  -31.3737   26.1496 C   0  0  0  0  0  0
  -27.0272  -30.3097   24.6111 C   0  0  0  0  0  0
  -27.6049  -32.4344   25.7496 C   0  0  0  0  0  0
  -27.5601  -37.1774   24.8446 C   0  0  0  0  0  0
  -21.4161  -29.3002   22.3753 N   0  0  0  0  0  0
  -26.4287  -37.3803   23.9424 N   0  0  0  0  0  0
  -24.6709  -31.0732   22.1043 N   0  0  0  0  0  0
  -23.4214  -28.8178   23.3051 O   0  0  0  0  0  0
  -28.3957  -26.6437   20.1284 O   0  0  0  0  0  0
  -26.5616  -34.8962   22.4727 O   0  0  0  0  0  0
  -23.5350  -32.1449   23.7484 O   0  0  0  0  0  0
  -30.0771  -19.3793   20.8065 C   0  0  0  0  0  0
  -29.6810  -17.7660   19.0205 C   0  0  0  0  0  0
  -29.3193  -20.1533   18.6309 C   0  0  0  0  0  0
  -30.0596  -18.0313   20.3555 C   0  0  0  0  0  0
  -29.7062  -20.4568   19.9600 C   0  0  0  0  0  0
  -29.3175  -18.8231   18.1637 C   0  0  0  0  0  0
  -29.3570  -24.3185   20.2259 C   0  0  0  0  0  0
  -30.4938  -16.9040   21.3085 C   0  0  0  0  0  0
  -29.4422  -22.9266   19.5560 C   0  0  0  0  0  0
  -28.3060  -25.2848   19.6396 C   0  0  0  0  0  0
  -29.7323  -21.7861   20.4478 N   0  0  0  0  0  0
  -29.9985  -15.5411   21.0273 N   0  0  0  0  0  0
  -30.0737  -24.6200   21.1857 O   0  0  0  0  0  0
  -28.9626  -18.5642   16.8808 F   0  0  0  0  0  0
  -31.4732  -12.4218   19.1152 H   0  0  0  0  0  0
  -30.3422  -11.3184   19.8477 H   0  0  0  0  0  0
  -29.7397  -11.7349   17.4482 H   0  0  0  0  0  0
  -29.6544  -13.4564   17.7440 H   0  0  0  0  0  0
  -27.8524  -11.2829   18.8612 H   0  0  0  0  0  0
  -27.3607  -12.5709   17.7958 H   0  0  0  0  0  0
  -27.6979  -14.2426   19.5387 H   0  0  0  0  0  0
  -28.7001  -11.9999   21.3670 H   0  0  0  0  0  0
  -28.4751  -13.6533   21.8490 H   0  0  0  0  0  0
  -25.2758   -9.5669   22.4772 H   0  0  0  0  0  0
  -23.9996   -7.4629   22.7474 H   0  0  0  0  0  0
  -21.0859   -8.8776   19.8938 H   0  0  0  0  0  0
  -22.3723  -10.9671   19.6164 H   0  0  0  0  0  0
  -21.1998   -7.6143   23.9705 H   0  0  0  0  0  0
  -21.1476   -6.0515   25.9065 H   0  0  0  0  0  0
  -22.0611   -2.7610   23.2836 H   0  0  0  0  0  0
  -22.4133  -11.9818   22.4679 H   0  0  0  0  0  0
  -21.1156  -13.1235   22.2619 H   0  0  0  0  0  0
  -24.6710  -15.8452   20.4656 H   0  0  0  0  0  0
  -26.2836  -15.6016   20.0241 H   0  0  0  0  0  0
  -26.7127  -32.5559   23.1170 H   0  0  0  0  0  0
  -24.9997  -33.9810   25.0483 H   0  0  0  0  0  0
  -22.6902  -31.3045   21.4186 H   0  0  0  0  0  0
  -23.3782  -35.9608   23.3253 H   0  0  0  0  0  0
  -24.3591  -36.8974   22.2050 H   0  0  0  0  0  0
  -23.7178  -37.6478   23.6685 H   0  0  0  0  0  0
  -26.0467  -31.5872   20.6046 H   0  0  0  0  0  0
  -26.8218  -30.8745   21.9942 H   0  0  0  0  0  0
  -28.1023  -29.0602   21.1796 H   0  0  0  0  0  0
  -25.9919  -26.0006   18.9518 H   0  0  0  0  0  0
  -23.9695  -27.3194   19.0187 H   0  0  0  0  0  0
  -23.7122  -30.5933   19.4053 H   0  0  0  0  0  0
  -22.7360  -29.2359   19.8944 H   0  0  0  0  0  0
  -25.1266  -36.1985   25.0819 H   0  0  0  0  0  0
  -20.9920  -28.3151   24.1427 H   0  0  0  0  0  0
  -20.5612  -26.2216   23.3562 H   0  0  0  0  0  0
  -21.6635  -26.7364   22.1186 H   0  0  0  0  0  0
  -19.6891  -25.6267   21.1185 H   0  0  0  0  0  0
  -19.6683  -27.3198   20.6731 H   0  0  0  0  0  0
  -17.4177  -26.6649   21.3999 H   0  0  0  0  0  0
  -18.0290  -26.0004   22.8982 H   0  0  0  0  0  0
  -19.7958  -30.7169   24.2301 H   0  0  0  0  0  0
  -17.5041  -31.6252   24.5109 H   0  0  0  0  0  0
  -15.5337  -30.2933   23.7649 H   0  0  0  0  0  0
  -15.8665  -28.0712   22.7143 H   0  0  0  0  0  0
  -24.5859  -30.7117   25.7816 H   0  0  0  0  0  0
  -24.8914  -32.2891   26.4989 H   0  0  0  0  0  0
  -25.8028  -30.8864   27.0245 H   0  0  0  0  0  0
  -26.2815  -29.6856   24.1179 H   0  0  0  0  0  0
  -27.4077  -29.7325   25.4533 H   0  0  0  0  0  0
  -27.8638  -30.4434   23.9247 H   0  0  0  0  0  0
  -27.2734  -33.3690   26.2017 H   0  0  0  0  0  0
  -28.3873  -32.6800   25.0309 H   0  0  0  0  0  0
  -28.0697  -31.8496   26.5428 H   0  0  0  0  0  0
  -28.2532  -38.0161   24.7648 H   0  0  0  0  0  0
  -28.1189  -36.2707   24.6093 H   0  0  0  0  0  0
  -27.2352  -37.1184   25.8848 H   0  0  0  0  0  0
  -20.9315  -29.8777   21.7030 H   0  0  0  0  0  0
  -26.0202  -38.2869   24.1513 H   0  0  0  0  0  0
  -30.3872  -19.5843   21.8230 H   0  0  0  0  0  0
  -29.6776  -16.7564   18.6370 H   0  0  0  0  0  0
  -29.0252  -20.9267   17.9361 H   0  0  0  0  0  0
  -30.1463  -17.1627   22.3102 H   0  0  0  0  0  0
  -31.5841  -16.9102   21.3746 H   0  0  0  0  0  0
  -30.2160  -22.9761   18.7891 H   0  0  0  0  0  0
  -28.4934  -22.7536   19.0466 H   0  0  0  0  0  0
  -27.3544  -24.8338   19.9214 H   0  0  0  0  0  0
  -28.3802  -25.2851   18.5502 H   0  0  0  0  0  0
  -30.1814  -21.9991   21.3369 H   0  0  0  0  0  0
  -29.0451  -15.3456   21.2945 H   0  0  0  0  0  0
  1 25  1  0  0  0
  1 30  2  0  0  0
  1 82  1  0  0  0
  2  3  1  0  0  0
  2 25  1  0  0  0
  2 85  1  0  0  0
  2 86  1  0  0  0
  3  4  1  0  0  0
  3 87  1  0  0  0
  3 88  1  0  0  0
  4  5  1  0  0  0
  4 89  1  0  0  0
  4 90  1  0  0  0
  5  6  1  0  0  0
  5 26  1  0  0  0
  5 91  1  0  0  0
  6 25  1  0  0  0
  6 92  1  0  0  0
  6 93  1  0  0  0
  7  8  2  0  0  0
  7 26  1  0  0  0
  7 29  1  0  0  0
  8  9  1  0  0  0
  8 22  1  0  0  0
  9 10  1  0  0  0
  9 27  2  0  0  0
 10 11  2  0  0  0
 10 15  1  0  0  0
 11 12  1  0  0  0
 11 94  1  0  0  0
 12 13  2  0  0  0
 12 95  1  0  0  0
 13 14  1  0  0  0
 13 31  1  0  0  0
 14 15  2  0  0  0
 14 96  1  0  0  0
 15 97  1  0  0  0
 16 17  2  0  0  0
 16 21  1  0  0  0
 16 31  1  0  0  0
 17 18  1  0  0  0
 17 98  1  0  0  0
 18 19  2  0  0  0
 18 99  1  0  0  0
 19 20  1  0  0  0
 19 24  1  0  0  0
 20 21  2  0  0  0
 20100  1  0  0  0
 21 23  1  0  0  0
 22 28  1  0  0  0
 22 32  2  0  0  0
 26 27  1  0  0  0
 28101  1  0  0  0
 28102  1  0  0  0
 29103  1  0  0  0
 29104  1  0  0  0
 33 34  1  0  0  0
 33 66  1  0  0  0
 33 70  2  0  0  0
 34 36  1  0  0  0
 34 59  1  0  0  0
 34105  1  0  0  0
 35 44  2  0  0  0
 35 45  1  0  0  0
 35 68  1  0  0  0
 36 56  1  0  0  0
 36106  1  0  0  0
 37 39  1  0  0  0
 37 47  1  0  0  0
 37 66  1  0  0  0
 37107  1  0  0  0
 38 43  2  0  0  0
 38 46  1  0  0  0
 38 47  1  0  0  0
 39 64  1  0  0  0
 39 67  2  0  0  0
 40 52  1  0  0  0
 40 53  2  0  0  0
 40 58  1  0  0  0
 41108  1  0  0  0
 41109  1  0  0  0
 41110  1  0  0  0
 41 48  1  0  0  0
 42 43  1  0  0  0
 42 66  1  0  0  0
 42111  1  0  0  0
 42112  1  0  0  0
 43 44  1  0  0  0
 44113  1  0  0  0
 45 46  2  0  0  0
 45114  1  0  0  0
 46115  1  0  0  0
 47116  1  0  0  0
 47117  1  0  0  0
 48 56  1  0  0  0
 48 65  1  0  0  0
 48118  1  0  0  0
 49 50  1  0  0  0
 49 53  1  0  0  0
 49 64  1  0  0  0
 49119  1  0  0  0
 50 51  1  0  0  0
 50120  1  0  0  0
 50121  1  0  0  0
 51 52  1  0  0  0
 51122  1  0  0  0
 51123  1  0  0  0
 52124  1  0  0  0
 52125  1  0  0  0
 53 54  1  0  0  0
 54 55  2  0  0  0
 54126  1  0  0  0
 55 57  1  0  0  0
 55127  1  0  0  0
 56 69  2  0  0  0
 57 58  2  0  0  0
 57128  1  0  0  0
 58129  1  0  0  0
 59 60  1  0  0  0
 59 61  1  0  0  0
 59 62  1  0  0  0
 60130  1  0  0  0
 60131  1  0  0  0
 60132  1  0  0  0
 61133  1  0  0  0
 61134  1  0  0  0
 61135  1  0  0  0
 62136  1  0  0  0
 62137  1  0  0  0
 62138  1  0  0  0
 63 65  1  0  0  0
 63139  1  0  0  0
 63140  1  0  0  0
 63141  1  0  0  0
 64142  1  0  0  0
 65143  1  0  0  0
 68 80  1  0  0  0
 71 74  2  0  0  0
 71 75  1  0  0  0
 71144  1  0  0  0
 72 74  1  0  0  0
 72 76  2  0  0  0
 72145  1  0  0  0
 73 75  2  0  0  0
 73 76  1  0  0  0
 73146  1  0  0  0
 74 78  1  0  0  0
 75 81  1  0  0  0
 76 84  1  0  0  0
 77 79  1  0  0  0
 77 80  1  0  0  0
 77 83  2  0  0  0
 78 82  1  0  0  0
 78147  1  0  0  0
 78148  1  0  0  0
 79 81  1  0  0  0
 79149  1  0  0  0
 79150  1  0  0  0
 80151  1  0  0  0
 80152  1  0  0  0
 81153  1  0  0  0
 82154  1  0  0  0
M  ISO  4   1 100  68 101  80 101  82 100
M  END
> <chiral flag>
0

> <version>
0

> <s_m_source_file>
/data/baiqing/PycharmProjects/Reinvent-master-3.2/result/LINK_invent/BTK/process_docking_weight1_custom_product_contain_oxygen_bond_distance_aromatic_linkinvent_7_9_3/rearranged_h_0171.sdf

> <i_m_source_file_index>
40

> <r_mmod_Potential_Energy-OPLS-2005>
-86.2713394165039

> <r_mmod_Stretch_Energy-OPLS-2005>
42.6130065917969

> <r_mmod_Bend_Energy-OPLS-2005>
109.404266357422

> <r_mmod_Torsional_Energy-OPLS-2005>
180.285064697266

> <r_mmod_Improper_Torsional_Energy-OPLS-2005>
4.14972066879272

> <r_mmod_Van_der_Waal_Energy-OPLS-2005>
156.153259277344

> <r_mmod_Electrostatic_Energy-OPLS-2005>
-354.310516357422

> <r_mmod_Solvation_Energy-OPLS-2005>
-243.585739135742

> <b_mmod_Minimization_Converged-OPLS-2005>
0

> <r_mmod_RMS_Derivative-OPLS-2005>
3.94154214859009

$$$$
40
                    3D
 Structure written by MMmdl.
172181  0  0  1  0            999 V2000
  -30.6165  -14.8397   20.4321 C   0  0  0  0  0  0
  -30.4276  -12.5147   19.4901 C   0  0  0  0  0  0
  -29.5127  -12.5132   18.2464 C   0  0  0  0  0  0
  -28.0422  -12.3251   18.6629 C   0  0  0  0  0  0
  -27.6337  -13.2467   19.8430 C   0  0  2  0  0  0
  -28.6794  -13.2476   20.9792 C   0  0  0  0  0  0
  -25.2476  -13.8224   20.5717 C   0  0  0  0  0  0
  -24.1787  -13.0449   20.9226 C   0  0  0  0  0  0
  -24.6399  -11.6934   20.8756 C   0  0  0  0  0  0
  -23.9083  -10.4302   21.0416 C   0  0  0  0  0  0
  -24.3630   -9.4212   21.9192 C   0  0  0  0  0  0
  -23.6303   -8.2248   22.0754 C   0  0  0  0  0  0
  -22.4281   -8.0288   21.3549 C   0  0  0  0  0  0
  -21.9926   -9.0260   20.4646 C   0  0  0  0  0  0
  -22.7258  -10.2140   20.3061 C   0  0  0  0  0  0
  -21.6854   -6.0741   22.5281 C   0  0  0  0  0  0
  -21.4015   -6.5644   23.8214 C   0  0  0  0  0  0
  -21.3659   -5.6793   24.9176 C   0  0  0  0  0  0
  -21.6045   -4.3057   24.7223 C   0  0  0  0  0  0
  -21.8818   -3.8149   23.4342 C   0  0  0  0  0  0
  -21.9193   -4.6968   22.3402 C   0  0  0  0  0  0
  -22.7805  -13.5215   21.1872 C   0  0  0  0  0  0
  -22.1661   -4.2154   21.0981 F   0  0  0  0  0  0
  -21.5626   -3.4540   25.7736 F   0  0  0  0  0  0
  -29.9691  -13.6146   20.3821 N   0  0  0  0  0  0
  -26.2907  -12.9455   20.3278 N   0  0  0  0  0  0
  -25.9335  -11.6583   20.5761 N   0  0  0  0  0  0
  -22.0449  -12.8205   22.0424 N   0  0  0  0  0  0
  -25.4133  -15.1955   20.4139 N   0  0  0  0  0  0
  -31.8186  -14.8435   20.1564 O   0  0  0  0  0  0
  -21.6644   -6.8884   21.4242 O   0  0  0  0  0  0
  -22.3490  -14.5523   20.6718 O   0  0  0  0  0  0
  -24.6374  -31.8507   23.1957 C   0  0  0  0  0  0
  -25.9176  -32.4725   23.8320 C   0  0  1  0  0  0
  -27.2110  -27.2140   20.1396 C   0  0  0  0  0  0
  -25.5957  -33.8530   24.2235 N   0  0  0  0  0  0
  -23.4375  -30.4741   21.5386 C   0  0  2  0  0  0
  -24.8882  -28.9187   20.1046 C   0  0  0  0  0  0
  -22.7539  -29.4596   22.4883 C   0  0  0  0  0  0
  -18.0302  -28.1395   22.8484 C   0  0  0  0  0  0
  -24.1488  -36.7262   23.2639 C   0  0  0  0  0  0
  -25.9894  -30.7478   21.3866 C   0  0  0  0  0  0
  -26.0629  -29.3680   20.7243 C   0  0  0  0  0  0
  -27.2320  -28.5288   20.7327 C   0  0  0  0  0  0
  -26.0204  -26.8511   19.4770 C   0  0  0  0  0  0
  -24.8749  -27.6704   19.4641 C   0  0  0  0  0  0
  -23.6604  -29.8100   20.1543 C   0  0  0  0  0  0
  -25.4119  -36.3044   24.0317 C   0  0  1  0  0  0
  -20.5912  -28.3717   23.1247 C   0  0  2  0  0  0
  -20.6793  -26.9427   22.5403 C   0  0  0  0  0  0
  -19.5758  -26.6385   21.5214 C   0  0  0  0  0  0
  -18.1941  -26.7938   22.1626 C   0  0  0  0  0  0
  -19.1558  -28.8875   23.2859 C   0  0  0  0  0  0
  -18.9476  -30.1482   23.8869 C   0  0  0  0  0  0
  -17.6475  -30.6591   24.0569 C   0  0  0  0  0  0
  -25.9070  -34.9421   23.5077 C   0  0  0  0  0  0
  -16.5367  -29.9081   23.6342 C   0  0  0  0  0  0
  -16.7288  -28.6505   23.0353 C   0  0  0  0  0  0
  -26.4524  -31.6566   25.0733 C   0  0  0  0  0  0
  -25.3737  -31.3737   26.1444 C   0  0  0  0  0  0
  -27.0388  -30.2974   24.6276 C   0  0  0  0  0  0
  -27.6059  -32.4334   25.7510 C   0  0  0  0  0  0
  -27.5569  -37.1790   24.8463 C   0  0  0  0  0  0
  -21.4236  -29.3053   22.3623 N   0  0  0  0  0  0
  -26.4279  -37.3759   23.9410 N   0  0  0  0  0  0
  -24.7070  -31.0437   22.0953 N   0  0  0  0  0  0
  -23.4214  -28.8136   23.3006 O   0  0  0  0  0  0
  -28.2076  -26.1990   20.2214 O   0  0  0  0  0  0
  -26.5632  -34.8906   22.4644 O   0  0  0  0  0  0
  -23.5513  -32.1346   23.7222 O   0  0  0  0  0  0
  -32.1096  -19.1610   20.1848 C   0  0  0  0  0  0
  -31.6442  -17.8356   20.2305 C   0  0  0  0  0  0
  -29.4213  -18.7022   20.5884 C   0  0  0  0  0  0
  -31.2787  -20.2880   20.3742 C   0  0  0  0  0  0
  -30.2910  -17.5116   20.4691 C   0  0  0  0  0  0
  -29.8632  -20.1159   20.5114 C   0  0  0  0  0  0
  -27.8105  -25.0188   20.9389 C   0  0  0  0  0  0
  -28.0284  -23.6235   20.9896 C   0  0  0  0  0  0
  -28.8791  -22.6271   20.2133 C   0  0  0  0  0  0
  -32.5397  -22.1481   19.1515 C   0  0  0  0  0  0
  -33.0705  -23.5804   19.3024 C   0  0  0  0  0  0
  -33.1322  -21.6578   21.5419 C   0  0  0  0  0  0
  -31.9957  -21.6426   20.4974 C   0  0  2  0  0  0
  -34.1763  -23.6765   20.3745 C   0  0  2  0  0  0
  -33.7047  -23.0809   21.7293 C   0  0  2  0  0  0
  -34.6416  -25.1372   20.5050 C   0  0  0  0  0  0
  -34.8239  -23.0604   22.7850 C   0  0  0  0  0  0
  -28.9653  -21.3153   20.7418 N   0  0  0  0  0  0
  -29.8904  -16.0452   20.5765 N   0  0  0  0  0  0
  -29.4277  -22.9201   19.1521 O   0  0  0  0  0  0
  -27.2730  -23.0375   21.9345 O   0  0  0  0  0  0
  -31.4680  -12.6313   19.1816 H   0  0  0  0  0  0
  -30.3806  -11.5555   20.0078 H   0  0  0  0  0  0
  -29.8118  -11.7221   17.5571 H   0  0  0  0  0  0
  -29.6267  -13.4527   17.7036 H   0  0  0  0  0  0
  -27.9169  -11.2806   18.9507 H   0  0  0  0  0  0
  -27.3828  -12.4862   17.8094 H   0  0  0  0  0  0
  -27.6079  -14.2555   19.4311 H   0  0  0  0  0  0
  -28.7380  -12.2708   21.4618 H   0  0  0  0  0  0
  -28.4015  -13.9607   21.7569 H   0  0  0  0  0  0
  -25.2771   -9.5686   22.4771 H   0  0  0  0  0  0
  -24.0007   -7.4638   22.7479 H   0  0  0  0  0  0
  -21.0852   -8.8781   19.8954 H   0  0  0  0  0  0
  -22.3714  -10.9677   19.6171 H   0  0  0  0  0  0
  -21.2009   -7.6154   23.9719 H   0  0  0  0  0  0
  -21.1482   -6.0526   25.9080 H   0  0  0  0  0  0
  -22.0597   -2.7610   23.2842 H   0  0  0  0  0  0
  -22.4057  -11.9866   22.4817 H   0  0  0  0  0  0
  -21.1065  -13.1226   22.2623 H   0  0  0  0  0  0
  -24.6405  -15.8436   20.5209 H   0  0  0  0  0  0
  -26.2541  -15.6378   20.0660 H   0  0  0  0  0  0
  -26.7250  -32.5348   23.1058 H   0  0  0  0  0  0
  -25.0117  -33.9667   25.0393 H   0  0  0  0  0  0
  -22.7368  -31.2985   21.3902 H   0  0  0  0  0  0
  -23.3749  -35.9596   23.3295 H   0  0  0  0  0  0
  -24.3582  -36.8896   22.2057 H   0  0  0  0  0  0
  -23.7245  -37.6459   23.6676 H   0  0  0  0  0  0
  -26.1423  -31.5073   20.6187 H   0  0  0  0  0  0
  -26.8614  -30.7910   22.0279 H   0  0  0  0  0  0
  -28.1231  -28.8588   21.2478 H   0  0  0  0  0  0
  -25.9589  -25.8809   19.0045 H   0  0  0  0  0  0
  -23.9791  -27.3225   18.9681 H   0  0  0  0  0  0
  -23.7894  -30.5867   19.4000 H   0  0  0  0  0  0
  -22.7775  -29.2475   19.8454 H   0  0  0  0  0  0
  -25.1310  -36.1871   25.0810 H   0  0  0  0  0  0
  -21.0015  -28.3291   24.1365 H   0  0  0  0  0  0
  -20.5700  -26.2325   23.3613 H   0  0  0  0  0  0
  -21.6655  -26.7444   22.1192 H   0  0  0  0  0  0
  -19.6918  -25.6289   21.1249 H   0  0  0  0  0  0
  -19.6691  -27.3191   20.6737 H   0  0  0  0  0  0
  -17.4218  -26.6696   21.4020 H   0  0  0  0  0  0
  -18.0333  -26.0080   22.9017 H   0  0  0  0  0  0
  -19.7956  -30.7311   24.2213 H   0  0  0  0  0  0
  -17.5025  -31.6264   24.5178 H   0  0  0  0  0  0
  -15.5364  -30.2977   23.7684 H   0  0  0  0  0  0
  -15.8687  -28.0820   22.7072 H   0  0  0  0  0  0
  -24.5913  -30.7083   25.7770 H   0  0  0  0  0  0
  -24.8933  -32.2919   26.4838 H   0  0  0  0  0  0
  -25.8051  -30.8930   27.0236 H   0  0  0  0  0  0
  -26.3000  -29.6701   24.1278 H   0  0  0  0  0  0
  -27.4015  -29.7260   25.4827 H   0  0  0  0  0  0
  -27.8899  -30.4220   23.9581 H   0  0  0  0  0  0
  -27.2644  -33.3649   26.2041 H   0  0  0  0  0  0
  -28.3893  -32.6878   25.0355 H   0  0  0  0  0  0
  -28.0704  -31.8496   26.5467 H   0  0  0  0  0  0
  -28.2585  -38.0087   24.7511 H   0  0  0  0  0  0
  -28.1068  -36.2620   24.6291 H   0  0  0  0  0  0
  -27.2292  -37.1441   25.8867 H   0  0  0  0  0  0
  -20.9431  -29.8754   21.6800 H   0  0  0  0  0  0
  -26.0137  -38.2826   24.1413 H   0  0  0  0  0  0
  -33.1705  -19.3038   20.0395 H   0  0  0  0  0  0
  -32.3979  -17.0779   20.1034 H   0  0  0  0  0  0
  -28.3691  -18.5251   20.7614 H   0  0  0  0  0  0
  -27.1045  -25.3635   21.6842 H   0  0  0  0  0  0
  -33.3321  -21.4920   18.7892 H   0  0  0  0  0  0
  -31.7568  -22.1279   18.3934 H   0  0  0  0  0  0
  -32.2434  -24.2434   19.5642 H   0  0  0  0  0  0
  -33.4481  -23.9300   18.3404 H   0  0  0  0  0  0
  -33.9380  -20.9817   21.2546 H   0  0  0  0  0  0
  -32.7497  -21.2922   22.4968 H   0  0  0  0  0  0
  -31.3051  -22.3770   20.8884 H   0  0  0  0  0  0
  -35.0253  -23.0876   20.0217 H   0  0  0  0  0  0
  -32.9013  -23.7100   22.1172 H   0  0  0  0  0  0
  -33.8497  -25.7726   20.9044 H   0  0  0  0  0  0
  -34.9338  -25.5454   19.5370 H   0  0  0  0  0  0
  -35.5080  -25.2315   21.1587 H   0  0  0  0  0  0
  -35.7026  -22.5256   22.4221 H   0  0  0  0  0  0
  -34.4921  -22.5702   23.7008 H   0  0  0  0  0  0
  -35.1379  -24.0658   23.0647 H   0  0  0  0  0  0
  -28.3689  -21.1862   21.5435 H   0  0  0  0  0  0
  -28.9089  -15.8903   20.7507 H   0  0  0  0  0  0
  -27.1068  -22.1471   21.6559 H   0  0  0  0  0  0
  1 25  1  0  0  0
  1 30  2  0  0  0
  1 89  1  0  0  0
  2  3  1  0  0  0
  2 25  1  0  0  0
  2 92  1  0  0  0
  2 93  1  0  0  0
  3  4  1  0  0  0
  3 94  1  0  0  0
  3 95  1  0  0  0
  4  5  1  0  0  0
  4 96  1  0  0  0
  4 97  1  0  0  0
  5  6  1  0  0  0
  5 26  1  0  0  0
  5 98  1  0  0  0
  6 25  1  0  0  0
  6 99  1  0  0  0
  6100  1  0  0  0
  7  8  2  0  0  0
  7 26  1  0  0  0
  7 29  1  0  0  0
  8  9  1  0  0  0
  8 22  1  0  0  0
  9 10  1  0  0  0
  9 27  2  0  0  0
 10 11  2  0  0  0
 10 15  1  0  0  0
 11 12  1  0  0  0
 11101  1  0  0  0
 12 13  2  0  0  0
 12102  1  0  0  0
 13 14  1  0  0  0
 13 31  1  0  0  0
 14 15  2  0  0  0
 14103  1  0  0  0
 15104  1  0  0  0
 16 17  2  0  0  0
 16 21  1  0  0  0
 16 31  1  0  0  0
 17 18  1  0  0  0
 17105  1  0  0  0
 18 19  2  0  0  0
 18106  1  0  0  0
 19 20  1  0  0  0
 19 24  1  0  0  0
 20 21  2  0  0  0
 20107  1  0  0  0
 21 23  1  0  0  0
 22 28  1  0  0  0
 22 32  2  0  0  0
 26 27  1  0  0  0
 28108  1  0  0  0
 28109  1  0  0  0
 29110  1  0  0  0
 29111  1  0  0  0
 33 34  1  0  0  0
 33 66  1  0  0  0
 33 70  2  0  0  0
 34 36  1  0  0  0
 34 59  1  0  0  0
 34112  1  0  0  0
 35 44  2  0  0  0
 35 45  1  0  0  0
 35 68  1  0  0  0
 36 56  1  0  0  0
 36113  1  0  0  0
 37 39  1  0  0  0
 37 47  1  0  0  0
 37 66  1  0  0  0
 37114  1  0  0  0
 38 43  2  0  0  0
 38 46  1  0  0  0
 38 47  1  0  0  0
 39 64  1  0  0  0
 39 67  2  0  0  0
 40 52  1  0  0  0
 40 53  2  0  0  0
 40 58  1  0  0  0
 41115  1  0  0  0
 41116  1  0  0  0
 41117  1  0  0  0
 41 48  1  0  0  0
 42 43  1  0  0  0
 42 66  1  0  0  0
 42118  1  0  0  0
 42119  1  0  0  0
 43 44  1  0  0  0
 44120  1  0  0  0
 45 46  2  0  0  0
 45121  1  0  0  0
 46122  1  0  0  0
 47123  1  0  0  0
 47124  1  0  0  0
 48 56  1  0  0  0
 48 65  1  0  0  0
 48125  1  0  0  0
 49 50  1  0  0  0
 49 53  1  0  0  0
 49 64  1  0  0  0
 49126  1  0  0  0
 50 51  1  0  0  0
 50127  1  0  0  0
 50128  1  0  0  0
 51 52  1  0  0  0
 51129  1  0  0  0
 51130  1  0  0  0
 52131  1  0  0  0
 52132  1  0  0  0
 53 54  1  0  0  0
 54 55  2  0  0  0
 54133  1  0  0  0
 55 57  1  0  0  0
 55134  1  0  0  0
 56 69  2  0  0  0
 57 58  2  0  0  0
 57135  1  0  0  0
 58136  1  0  0  0
 59 60  1  0  0  0
 59 61  1  0  0  0
 59 62  1  0  0  0
 60137  1  0  0  0
 60138  1  0  0  0
 60139  1  0  0  0
 61140  1  0  0  0
 61141  1  0  0  0
 61142  1  0  0  0
 62143  1  0  0  0
 62144  1  0  0  0
 62145  1  0  0  0
 63 65  1  0  0  0
 63146  1  0  0  0
 63147  1  0  0  0
 63148  1  0  0  0
 64149  1  0  0  0
 65150  1  0  0  0
 68 77  1  0  0  0
 71 72  2  0  0  0
 71 74  1  0  0  0
 71151  1  0  0  0
 72 75  1  0  0  0
 72152  1  0  0  0
 73 75  2  0  0  0
 73 76  1  0  0  0
 73153  1  0  0  0
 74 76  2  0  0  0
 74 83  1  0  0  0
 75 89  1  0  0  0
 76 88  1  0  0  0
 77 78  2  0  0  0
 77154  1  0  0  0
 78 79  1  0  0  0
 78 91  1  0  0  0
 79 88  1  0  0  0
 79 90  2  0  0  0
 80 81  1  0  0  0
 80 83  1  0  0  0
 80155  1  0  0  0
 80156  1  0  0  0
 81 84  1  0  0  0
 81157  1  0  0  0
 81158  1  0  0  0
 82 83  1  0  0  0
 82 85  1  0  0  0
 82159  1  0  0  0
 82160  1  0  0  0
 83161  1  0  0  0
 84 85  1  0  0  0
 84 86  1  0  0  0
 84162  1  0  0  0
 85 87  1  0  0  0
 85163  1  0  0  0
 86164  1  0  0  0
 86165  1  0  0  0
 86166  1  0  0  0
 87167  1  0  0  0
 87168  1  0  0  0
 87169  1  0  0  0
 88170  1  0  0  0
 89171  1  0  0  0
 91172  1  0  0  0
M  ISO  4   1 100  68 101  77 101  89 100
M  END
> <chiral flag>
0

> <version>
0

> <s_m_source_file>
/data/baiqing/PycharmProjects/Reinvent-master-3.2/result/LINK_invent/BTK/process_docking_weight1_custom_product_contain_oxygen_bond_distance_aromatic_linkinvent_7_9_3/rearranged_h_0171.sdf

> <i_m_source_file_index>
41

> <r_mmod_Potential_Energy-OPLS-2005>
410.602447509766

> <r_mmod_Stretch_Energy-OPLS-2005>
182.655746459961

> <r_mmod_Bend_Energy-OPLS-2005>
266.635833740234

> <r_mmod_Torsional_Energy-OPLS-2005>
277.124328613281

> <r_mmod_Improper_Torsional_Energy-OPLS-2005>
6.20562887191772

> <r_mmod_Van_der_Waal_Energy-OPLS-2005>
159.537902832031

> <r_mmod_Electrostatic_Energy-OPLS-2005>
-383.204528808594

> <r_mmod_Solvation_Energy-OPLS-2005>
-235.992736816406

> <b_mmod_Minimization_Converged-OPLS-2005>
0

> <r_mmod_RMS_Derivative-OPLS-2005>
1.41661512851715

$$$$
41
                    3D
 Structure written by MMmdl.
160168  0  0  1  0            999 V2000
  -30.7105  -14.4689   20.6272 C   0  0  0  0  0  0
  -30.4262  -12.3275   19.4196 C   0  0  0  0  0  0
  -29.4956  -12.5263   18.2060 C   0  0  0  0  0  0
  -28.0176  -12.3764   18.6159 C   0  0  0  0  0  0
  -27.6610  -13.2085   19.8775 C   0  0  2  0  0  0
  -28.7011  -12.9848   20.9980 C   0  0  0  0  0  0
  -25.2550  -13.8119   20.5599 C   0  0  0  0  0  0
  -24.1821  -13.0414   20.9173 C   0  0  0  0  0  0
  -24.6392  -11.6891   20.8739 C   0  0  0  0  0  0
  -23.9066  -10.4282   21.0408 C   0  0  0  0  0  0
  -24.3616   -9.4203   21.9191 C   0  0  0  0  0  0
  -23.6289   -8.2240   22.0758 C   0  0  0  0  0  0
  -22.4273   -8.0275   21.3544 C   0  0  0  0  0  0
  -21.9912   -9.0242   20.4640 C   0  0  0  0  0  0
  -22.7241  -10.2124   20.3050 C   0  0  0  0  0  0
  -21.6852   -6.0735   22.5282 C   0  0  0  0  0  0
  -21.4001   -6.5634   23.8215 C   0  0  0  0  0  0
  -21.3659   -5.6786   24.9173 C   0  0  0  0  0  0
  -21.6050   -4.3051   24.7222 C   0  0  0  0  0  0
  -21.8820   -3.8145   23.4342 C   0  0  0  0  0  0
  -21.9191   -4.6963   22.3402 C   0  0  0  0  0  0
  -22.7851  -13.5231   21.1838 C   0  0  0  0  0  0
  -22.1663   -4.2157   21.0976 F   0  0  0  0  0  0
  -21.5635   -3.4537   25.7734 F   0  0  0  0  0  0
  -30.0319  -13.3016   20.4513 N   0  0  0  0  0  0
  -26.3017  -12.9312   20.3362 N   0  0  0  0  0  0
  -25.9328  -11.6474   20.5791 N   0  0  0  0  0  0
  -22.0475  -12.8225   22.0386 N   0  0  0  0  0  0
  -25.4204  -15.1796   20.3838 N   0  0  0  0  0  0
  -31.8212  -14.6718   20.1250 O   0  0  0  0  0  0
  -21.6636   -6.8874   21.4241 O   0  0  0  0  0  0
  -22.3549  -14.5549   20.6703 O   0  0  0  0  0  0
  -24.6180  -31.8659   23.2107 C   0  0  0  0  0  0
  -25.9065  -32.4810   23.8405 C   0  0  1  0  0  0
  -27.2309  -27.4088   20.1039 C   0  0  0  0  0  0
  -25.5902  -33.8610   24.2332 N   0  0  0  0  0  0
  -23.4066  -30.4905   21.5531 C   0  0  2  0  0  0
  -24.8520  -28.9602   20.1143 C   0  0  0  0  0  0
  -22.7411  -29.4667   22.5014 C   0  0  0  0  0  0
  -18.0264  -28.1375   22.8505 C   0  0  0  0  0  0
  -24.1483  -36.7298   23.2642 C   0  0  0  0  0  0
  -25.9396  -30.8266   21.3680 C   0  0  0  0  0  0
  -26.0162  -29.4620   20.7098 C   0  0  0  0  0  0
  -27.2092  -28.6955   20.6990 C   0  0  0  0  0  0
  -26.0501  -26.9493   19.4708 C   0  0  0  0  0  0
  -24.8657  -27.7036   19.4911 C   0  0  0  0  0  0
  -23.6119  -29.8230   20.1681 C   0  0  0  0  0  0
  -25.4111  -36.3105   24.0343 C   0  0  1  0  0  0
  -20.5853  -28.3667   23.1317 C   0  0  2  0  0  0
  -20.6757  -26.9400   22.5416 C   0  0  0  0  0  0
  -19.5723  -26.6382   21.5226 C   0  0  0  0  0  0
  -18.1897  -26.7928   22.1629 C   0  0  0  0  0  0
  -19.1515  -28.8841   23.2904 C   0  0  0  0  0  0
  -18.9440  -30.1455   23.8900 C   0  0  0  0  0  0
  -17.6445  -30.6591   24.0565 C   0  0  0  0  0  0
  -25.9029  -34.9469   23.5136 C   0  0  0  0  0  0
  -16.5336  -29.9083   23.6347 C   0  0  0  0  0  0
  -16.7252  -28.6498   23.0370 C   0  0  0  0  0  0
  -26.4486  -31.6596   25.0742 C   0  0  0  0  0  0
  -25.3748  -31.3681   26.1476 C   0  0  0  0  0  0
  -27.0341  -30.3035   24.6157 C   0  0  0  0  0  0
  -27.6042  -32.4335   25.7515 C   0  0  0  0  0  0
  -27.5584  -37.1803   24.8468 C   0  0  0  0  0  0
  -21.4137  -29.3043   22.3737 N   0  0  0  0  0  0
  -26.4296  -37.3791   23.9412 N   0  0  0  0  0  0
  -24.6727  -31.0747   22.1018 N   0  0  0  0  0  0
  -23.4162  -28.8198   23.3068 O   0  0  0  0  0  0
  -28.3706  -26.6174   20.1740 O   0  0  0  0  0  0
  -26.5591  -34.8926   22.4696 O   0  0  0  0  0  0
  -23.5366  -32.1420   23.7487 O   0  0  0  0  0  0
  -31.7498  -16.9916   22.1475 C   0  0  0  0  0  0
  -31.3566  -19.3976   22.2285 C   0  0  0  0  0  0
  -29.6261  -17.9091   21.3475 C   0  0  0  0  0  0
  -30.4775  -16.7808   21.5684 C   0  0  0  0  0  0
  -30.0763  -19.2335   21.6534 C   0  0  0  0  0  0
  -32.1803  -18.2877   22.4821 C   0  0  0  0  0  0
  -28.7894  -22.7782   20.8340 C   0  0  0  0  0  0
  -27.1808  -17.5971   21.9164 C   0  0  0  0  0  0
  -28.2191  -17.7027   20.7917 C   0  0  0  0  0  0
  -29.1922  -24.2771   20.8103 C   0  0  0  0  0  0
  -29.7701  -21.7478   21.4395 C   0  0  0  0  0  0
  -28.1576  -25.1844   20.0871 C   0  0  0  0  0  0
  -30.0386  -15.4414   21.2843 N   0  0  0  0  0  0
  -29.2604  -20.3635   21.4059 N   0  0  0  0  0  0
  -27.7031  -22.3944   20.3827 O   0  0  0  0  0  0
  -33.3940  -18.4688   23.0572 F   0  0  0  0  0  0
  -31.4693  -12.4385   19.1185 H   0  0  0  0  0  0
  -30.3374  -11.3129   19.8106 H   0  0  0  0  0  0
  -29.7414  -11.8116   17.4202 H   0  0  0  0  0  0
  -29.6554  -13.5172   17.7773 H   0  0  0  0  0  0
  -27.8308  -11.3185   18.8051 H   0  0  0  0  0  0
  -27.3672  -12.6569   17.7862 H   0  0  0  0  0  0
  -27.7057  -14.2583   19.5869 H   0  0  0  0  0  0
  -28.6839  -11.9453   21.3282 H   0  0  0  0  0  0
  -28.4553  -13.5731   21.8833 H   0  0  0  0  0  0
  -25.2758   -9.5690   22.4766 H   0  0  0  0  0  0
  -24.0006   -7.4639   22.7478 H   0  0  0  0  0  0
  -21.0853   -8.8749   19.8938 H   0  0  0  0  0  0
  -22.3702  -10.9656   19.6151 H   0  0  0  0  0  0
  -21.1975   -7.6139   23.9718 H   0  0  0  0  0  0
  -21.1487   -6.0512   25.9077 H   0  0  0  0  0  0
  -22.0595   -2.7606   23.2837 H   0  0  0  0  0  0
  -22.4068  -11.9874   22.4769 H   0  0  0  0  0  0
  -21.1092  -13.1260   22.2576 H   0  0  0  0  0  0
  -24.6469  -15.8287   20.4723 H   0  0  0  0  0  0
  -26.2633  -15.6120   20.0320 H   0  0  0  0  0  0
  -26.7145  -32.5511   23.1173 H   0  0  0  0  0  0
  -25.0085  -33.9781   25.0500 H   0  0  0  0  0  0
  -22.6987  -31.3096   21.4134 H   0  0  0  0  0  0
  -23.3752  -35.9623   23.3320 H   0  0  0  0  0  0
  -24.3573  -36.8895   22.2053 H   0  0  0  0  0  0
  -23.7227  -37.6503   23.6647 H   0  0  0  0  0  0
  -26.0598  -31.5972   20.6047 H   0  0  0  0  0  0
  -26.8235  -30.8729   21.9918 H   0  0  0  0  0  0
  -28.1047  -29.0745   21.1711 H   0  0  0  0  0  0
  -26.0171  -25.9961   18.9629 H   0  0  0  0  0  0
  -23.9732  -27.3117   19.0237 H   0  0  0  0  0  0
  -23.7100  -30.5959   19.4051 H   0  0  0  0  0  0
  -22.7369  -29.2358   19.8802 H   0  0  0  0  0  0
  -25.1294  -36.1973   25.0834 H   0  0  0  0  0  0
  -20.9947  -28.3222   24.1435 H   0  0  0  0  0  0
  -20.5678  -26.2269   23.3599 H   0  0  0  0  0  0
  -21.6619  -26.7448   22.1182 H   0  0  0  0  0  0
  -19.6871  -25.6291   21.1246 H   0  0  0  0  0  0
  -19.6659  -27.3211   20.6770 H   0  0  0  0  0  0
  -17.4168  -26.6706   21.4014 H   0  0  0  0  0  0
  -18.0272  -26.0059   22.9005 H   0  0  0  0  0  0
  -19.7909  -30.7286   24.2239 H   0  0  0  0  0  0
  -17.4987  -31.6275   24.5152 H   0  0  0  0  0  0
  -15.5333  -30.2977   23.7683 H   0  0  0  0  0  0
  -15.8643  -28.0824   22.7091 H   0  0  0  0  0  0
  -24.5932  -30.7024   25.7802 H   0  0  0  0  0  0
  -24.8935  -32.2822   26.4957 H   0  0  0  0  0  0
  -25.8097  -30.8817   27.0213 H   0  0  0  0  0  0
  -26.2905  -29.6761   24.1226 H   0  0  0  0  0  0
  -27.4111  -29.7312   25.4645 H   0  0  0  0  0  0
  -27.8738  -30.4353   23.9331 H   0  0  0  0  0  0
  -27.2652  -33.3643   26.2080 H   0  0  0  0  0  0
  -28.3858  -32.6878   25.0342 H   0  0  0  0  0  0
  -28.0695  -31.8461   26.5439 H   0  0  0  0  0  0
  -28.2589  -38.0118   24.7547 H   0  0  0  0  0  0
  -28.1095  -36.2646   24.6261 H   0  0  0  0  0  0
  -27.2287  -37.1407   25.8868 H   0  0  0  0  0  0
  -20.9296  -29.8753   21.6948 H   0  0  0  0  0  0
  -26.0179  -38.2865   24.1426 H   0  0  0  0  0  0
  -32.4045  -16.1596   22.3599 H   0  0  0  0  0  0
  -31.7253  -20.3750   22.5016 H   0  0  0  0  0  0
  -26.1679  -17.5652   21.5162 H   0  0  0  0  0  0
  -27.2363  -18.4556   22.5855 H   0  0  0  0  0  0
  -27.3328  -16.6992   22.5171 H   0  0  0  0  0  0
  -28.1796  -16.8152   20.1617 H   0  0  0  0  0  0
  -27.9581  -18.5208   20.1212 H   0  0  0  0  0  0
  -30.1712  -24.3716   20.3417 H   0  0  0  0  0  0
  -29.3032  -24.6065   21.8431 H   0  0  0  0  0  0
  -29.9806  -22.0317   22.4710 H   0  0  0  0  0  0
  -30.7082  -21.8092   20.8876 H   0  0  0  0  0  0
  -27.1879  -24.9320   20.5198 H   0  0  0  0  0  0
  -28.1240  -24.9089   19.0316 H   0  0  0  0  0  0
  -29.0840  -15.2166   21.5206 H   0  0  0  0  0  0
  -28.3345  -20.2560   20.9983 H   0  0  0  0  0  0
  1 25  1  0  0  0
  1 30  2  0  0  0
  1 83  1  0  0  0
  2  3  1  0  0  0
  2 25  1  0  0  0
  2 87  1  0  0  0
  2 88  1  0  0  0
  3  4  1  0  0  0
  3 89  1  0  0  0
  3 90  1  0  0  0
  4  5  1  0  0  0
  4 91  1  0  0  0
  4 92  1  0  0  0
  5  6  1  0  0  0
  5 26  1  0  0  0
  5 93  1  0  0  0
  6 25  1  0  0  0
  6 94  1  0  0  0
  6 95  1  0  0  0
  7  8  2  0  0  0
  7 26  1  0  0  0
  7 29  1  0  0  0
  8  9  1  0  0  0
  8 22  1  0  0  0
  9 10  1  0  0  0
  9 27  2  0  0  0
 10 11  2  0  0  0
 10 15  1  0  0  0
 11 12  1  0  0  0
 11 96  1  0  0  0
 12 13  2  0  0  0
 12 97  1  0  0  0
 13 14  1  0  0  0
 13 31  1  0  0  0
 14 15  2  0  0  0
 14 98  1  0  0  0
 15 99  1  0  0  0
 16 17  2  0  0  0
 16 21  1  0  0  0
 16 31  1  0  0  0
 17 18  1  0  0  0
 17100  1  0  0  0
 18 19  2  0  0  0
 18101  1  0  0  0
 19 20  1  0  0  0
 19 24  1  0  0  0
 20 21  2  0  0  0
 20102  1  0  0  0
 21 23  1  0  0  0
 22 28  1  0  0  0
 22 32  2  0  0  0
 26 27  1  0  0  0
 28103  1  0  0  0
 28104  1  0  0  0
 29105  1  0  0  0
 29106  1  0  0  0
 33 34  1  0  0  0
 33 66  1  0  0  0
 33 70  2  0  0  0
 34 36  1  0  0  0
 34 59  1  0  0  0
 34107  1  0  0  0
 35 44  2  0  0  0
 35 45  1  0  0  0
 35 68  1  0  0  0
 36 56  1  0  0  0
 36108  1  0  0  0
 37 39  1  0  0  0
 37 47  1  0  0  0
 37 66  1  0  0  0
 37109  1  0  0  0
 38 43  2  0  0  0
 38 46  1  0  0  0
 38 47  1  0  0  0
 39 64  1  0  0  0
 39 67  2  0  0  0
 40 52  1  0  0  0
 40 53  2  0  0  0
 40 58  1  0  0  0
 41110  1  0  0  0
 41111  1  0  0  0
 41112  1  0  0  0
 41 48  1  0  0  0
 42 43  1  0  0  0
 42 66  1  0  0  0
 42113  1  0  0  0
 42114  1  0  0  0
 43 44  1  0  0  0
 44115  1  0  0  0
 45 46  2  0  0  0
 45116  1  0  0  0
 46117  1  0  0  0
 47118  1  0  0  0
 47119  1  0  0  0
 48 56  1  0  0  0
 48 65  1  0  0  0
 48120  1  0  0  0
 49 50  1  0  0  0
 49 53  1  0  0  0
 49 64  1  0  0  0
 49121  1  0  0  0
 50 51  1  0  0  0
 50122  1  0  0  0
 50123  1  0  0  0
 51 52  1  0  0  0
 51124  1  0  0  0
 51125  1  0  0  0
 52126  1  0  0  0
 52127  1  0  0  0
 53 54  1  0  0  0
 54 55  2  0  0  0
 54128  1  0  0  0
 55 57  1  0  0  0
 55129  1  0  0  0
 56 69  2  0  0  0
 57 58  2  0  0  0
 57130  1  0  0  0
 58131  1  0  0  0
 59 60  1  0  0  0
 59 61  1  0  0  0
 59 62  1  0  0  0
 60132  1  0  0  0
 60133  1  0  0  0
 60134  1  0  0  0
 61135  1  0  0  0
 61136  1  0  0  0
 61137  1  0  0  0
 62138  1  0  0  0
 62139  1  0  0  0
 62140  1  0  0  0
 63 65  1  0  0  0
 63141  1  0  0  0
 63142  1  0  0  0
 63143  1  0  0  0
 64144  1  0  0  0
 65145  1  0  0  0
 68 82  1  0  0  0
 71 74  2  0  0  0
 71 76  1  0  0  0
 71146  1  0  0  0
 72 75  1  0  0  0
 72 76  2  0  0  0
 72147  1  0  0  0
 73 74  1  0  0  0
 73 75  2  0  0  0
 73 79  1  0  0  0
 74 83  1  0  0  0
 75 84  1  0  0  0
 76 86  1  0  0  0
 77 80  1  0  0  0
 77 81  1  0  0  0
 77 85  2  0  0  0
 78 79  1  0  0  0
 78148  1  0  0  0
 78149  1  0  0  0
 78150  1  0  0  0
 79151  1  0  0  0
 79152  1  0  0  0
 80 82  1  0  0  0
 80153  1  0  0  0
 80154  1  0  0  0
 81 84  1  0  0  0
 81155  1  0  0  0
 81156  1  0  0  0
 82157  1  0  0  0
 82158  1  0  0  0
 83159  1  0  0  0
 84160  1  0  0  0
M  ISO  4   1 100  68 101  82 101  83 100
M  END
> <chiral flag>
0

> <version>
0

> <s_m_source_file>
/data/baiqing/PycharmProjects/Reinvent-master-3.2/result/LINK_invent/BTK/process_docking_weight1_custom_product_contain_oxygen_bond_distance_aromatic_linkinvent_7_9_3/rearranged_h_0171.sdf

> <i_m_source_file_index>
42

> <r_mmod_Potential_Energy-OPLS-2005>
-22.2676277160645

> <r_mmod_Stretch_Energy-OPLS-2005>
46.1191673278809

> <r_mmod_Bend_Energy-OPLS-2005>
105.838653564453

> <r_mmod_Torsional_Energy-OPLS-2005>
210.599624633789

> <r_mmod_Improper_Torsional_Energy-OPLS-2005>
3.51919102668762

> <r_mmod_Van_der_Waal_Energy-OPLS-2005>
162.349868774414

> <r_mmod_Electrostatic_Energy-OPLS-2005>
-350.323669433594

> <r_mmod_Solvation_Energy-OPLS-2005>
-216.674041748047

> <b_mmod_Minimization_Converged-OPLS-2005>
0

> <r_mmod_RMS_Derivative-OPLS-2005>
1.95177745819092

$$$$
42
                    3D
 Structure written by MMmdl.
150158  0  0  1  0            999 V2000
  -30.6165  -14.8295   20.4370 C   0  0  0  0  0  0
  -30.4276  -12.5090   19.4896 C   0  0  0  0  0  0
  -29.5121  -12.5120   18.2462 C   0  0  0  0  0  0
  -28.0421  -12.3224   18.6628 C   0  0  0  0  0  0
  -27.6346  -13.2441   19.8429 C   0  0  2  0  0  0
  -28.6794  -13.2410   20.9804 C   0  0  0  0  0  0
  -25.2484  -13.8219   20.5715 C   0  0  0  0  0  0
  -24.1791  -13.0445   20.9219 C   0  0  0  0  0  0
  -24.6401  -11.6928   20.8752 C   0  0  0  0  0  0
  -23.9081  -10.4297   21.0407 C   0  0  0  0  0  0
  -24.3629   -9.4213   21.9185 C   0  0  0  0  0  0
  -23.6304   -8.2248   22.0754 C   0  0  0  0  0  0
  -22.4285   -8.0285   21.3544 C   0  0  0  0  0  0
  -21.9923   -9.0259   20.4645 C   0  0  0  0  0  0
  -22.7253  -10.2138   20.3056 C   0  0  0  0  0  0
  -21.6857   -6.0736   22.5281 C   0  0  0  0  0  0
  -21.4016   -6.5641   23.8211 C   0  0  0  0  0  0
  -21.3659   -5.6796   24.9175 C   0  0  0  0  0  0
  -21.6046   -4.3058   24.7227 C   0  0  0  0  0  0
  -21.8818   -3.8147   23.4348 C   0  0  0  0  0  0
  -21.9195   -4.6964   22.3403 C   0  0  0  0  0  0
  -22.7812  -13.5216   21.1873 C   0  0  0  0  0  0
  -22.1664   -4.2150   21.0980 F   0  0  0  0  0  0
  -21.5628   -3.4540   25.7737 F   0  0  0  0  0  0
  -29.9706  -13.6046   20.3856 N   0  0  0  0  0  0
  -26.2916  -12.9448   20.3274 N   0  0  0  0  0  0
  -25.9335  -11.6576   20.5758 N   0  0  0  0  0  0
  -22.0464  -12.8198   22.0425 N   0  0  0  0  0  0
  -25.4147  -15.1946   20.4134 N   0  0  0  0  0  0
  -31.8143  -14.8463   20.1454 O   0  0  0  0  0  0
  -21.6647   -6.8881   21.4242 O   0  0  0  0  0  0
  -22.3491  -14.5519   20.6719 O   0  0  0  0  0  0
  -24.6370  -31.8511   23.1943 C   0  0  0  0  0  0
  -25.9169  -32.4733   23.8313 C   0  0  1  0  0  0
  -27.2169  -27.2141   20.1399 C   0  0  0  0  0  0
  -25.5948  -33.8535   24.2233 N   0  0  0  0  0  0
  -23.4383  -30.4733   21.5375 C   0  0  2  0  0  0
  -24.8905  -28.9174   20.1051 C   0  0  0  0  0  0
  -22.7539  -29.4585   22.4873 C   0  0  0  0  0  0
  -18.0300  -28.1395   22.8488 C   0  0  0  0  0  0
  -24.1491  -36.7270   23.2642 C   0  0  0  0  0  0
  -25.9896  -30.7493   21.3837 C   0  0  0  0  0  0
  -26.0652  -29.3679   20.7250 C   0  0  0  0  0  0
  -27.2341  -28.5282   20.7349 C   0  0  0  0  0  0
  -26.0270  -26.8536   19.4723 C   0  0  0  0  0  0
  -24.8799  -27.6698   19.4641 C   0  0  0  0  0  0
  -23.6615  -29.8081   20.1543 C   0  0  0  0  0  0
  -25.4122  -36.3052   24.0324 C   0  0  1  0  0  0
  -20.5912  -28.3714   23.1253 C   0  0  2  0  0  0
  -20.6787  -26.9424   22.5405 C   0  0  0  0  0  0
  -19.5755  -26.6390   21.5214 C   0  0  0  0  0  0
  -18.1941  -26.7936   22.1631 C   0  0  0  0  0  0
  -19.1556  -28.8873   23.2869 C   0  0  0  0  0  0
  -18.9472  -30.1475   23.8888 C   0  0  0  0  0  0
  -17.6469  -30.6597   24.0566 C   0  0  0  0  0  0
  -25.9063  -34.9423   23.5080 C   0  0  0  0  0  0
  -16.5360  -29.9094   23.6337 C   0  0  0  0  0  0
  -16.7283  -28.6509   23.0362 C   0  0  0  0  0  0
  -26.4517  -31.6576   25.0722 C   0  0  0  0  0  0
  -25.3719  -31.3747   26.1427 C   0  0  0  0  0  0
  -27.0371  -30.2979   24.6247 C   0  0  0  0  0  0
  -27.6059  -32.4327   25.7501 C   0  0  0  0  0  0
  -27.5577  -37.1799   24.8469 C   0  0  0  0  0  0
  -21.4236  -29.3057   22.3627 N   0  0  0  0  0  0
  -26.4289  -37.3759   23.9407 N   0  0  0  0  0  0
  -24.7074  -31.0440   22.0937 N   0  0  0  0  0  0
  -23.4215  -28.8122   23.2989 O   0  0  0  0  0  0
  -28.2164  -26.1993   20.2252 O   0  0  0  0  0  0
  -26.5639  -34.8906   22.4652 O   0  0  0  0  0  0
  -23.5504  -32.1349   23.7207 O   0  0  0  0  0  0
  -31.1797  -20.2548   20.2677 C   0  0  0  0  0  0
  -31.6459  -17.8378   20.3332 C   0  0  0  0  0  0
  -29.7913  -20.0610   20.4346 C   0  0  0  0  0  0
  -30.2817  -17.4892   20.4934 C   0  0  0  0  0  0
  -32.0798  -19.1732   20.2215 C   0  0  0  0  0  0
  -29.3704  -18.6494   20.5516 C   0  0  0  0  0  0
  -27.7947  -24.9863   20.8743 C   0  0  0  0  0  0
  -28.0806  -23.6044   20.9499 C   0  0  0  0  0  0
  -29.0950  -22.6596   20.3207 C   0  0  0  0  0  0
  -28.9026  -21.2774   20.5555 N   0  0  0  0  0  0
  -29.8877  -16.0248   20.6020 N   0  0  0  0  0  0
  -30.0337  -23.0634   19.6341 O   0  0  0  0  0  0
  -27.2887  -22.9776   21.8364 O   0  0  0  0  0  0
  -33.4033  -19.4243   20.0793 F   0  0  0  0  0  0
  -28.0515  -18.4001   20.7324 F   0  0  0  0  0  0
  -31.4681  -12.6255   19.1830 H   0  0  0  0  0  0
  -30.3776  -11.5489   20.0057 H   0  0  0  0  0  0
  -29.8097  -11.7226   17.5549 H   0  0  0  0  0  0
  -29.6246  -13.4531   17.7056 H   0  0  0  0  0  0
  -27.9175  -11.2777   18.9521 H   0  0  0  0  0  0
  -27.3815  -12.4830   17.8097 H   0  0  0  0  0  0
  -27.6099  -14.2533   19.4312 H   0  0  0  0  0  0
  -28.7362  -12.2630   21.4606 H   0  0  0  0  0  0
  -28.4014  -13.9529   21.7594 H   0  0  0  0  0  0
  -25.2771   -9.5690   22.4764 H   0  0  0  0  0  0
  -24.0011   -7.4638   22.7476 H   0  0  0  0  0  0
  -21.0852   -8.8779   19.8949 H   0  0  0  0  0  0
  -22.3710  -10.9677   19.6166 H   0  0  0  0  0  0
  -21.2008   -7.6149   23.9714 H   0  0  0  0  0  0
  -21.1482   -6.0525   25.9077 H   0  0  0  0  0  0
  -22.0596   -2.7611   23.2849 H   0  0  0  0  0  0
  -22.4091  -11.9863   22.4808 H   0  0  0  0  0  0
  -21.1080  -13.1211   22.2632 H   0  0  0  0  0  0
  -24.6445  -15.8447   20.5272 H   0  0  0  0  0  0
  -26.2593  -15.6407   20.0795 H   0  0  0  0  0  0
  -26.7238  -32.5366   23.1055 H   0  0  0  0  0  0
  -25.0088  -33.9657   25.0375 H   0  0  0  0  0  0
  -22.7370  -31.2972   21.3894 H   0  0  0  0  0  0
  -23.3749  -35.9608   23.3305 H   0  0  0  0  0  0
  -24.3579  -36.8889   22.2056 H   0  0  0  0  0  0
  -23.7244  -37.6472   23.6665 H   0  0  0  0  0  0
  -26.1375  -31.5076   20.6135 H   0  0  0  0  0  0
  -26.8625  -30.7982   22.0225 H   0  0  0  0  0  0
  -28.1239  -28.8568   21.2529 H   0  0  0  0  0  0
  -25.9666  -25.8872   18.9912 H   0  0  0  0  0  0
  -23.9838  -27.3202   18.9696 H   0  0  0  0  0  0
  -23.7868  -30.5850   19.3993 H   0  0  0  0  0  0
  -22.7792  -29.2442   19.8465 H   0  0  0  0  0  0
  -25.1306  -36.1896   25.0819 H   0  0  0  0  0  0
  -21.0020  -28.3297   24.1367 H   0  0  0  0  0  0
  -20.5689  -26.2321   23.3613 H   0  0  0  0  0  0
  -21.6655  -26.7441   22.1199 H   0  0  0  0  0  0
  -19.6911  -25.6298   21.1254 H   0  0  0  0  0  0
  -19.6694  -27.3194   20.6738 H   0  0  0  0  0  0
  -17.4211  -26.6690   21.4031 H   0  0  0  0  0  0
  -18.0343  -26.0076   22.9025 H   0  0  0  0  0  0
  -19.7945  -30.7305   24.2250 H   0  0  0  0  0  0
  -17.5017  -31.6274   24.5173 H   0  0  0  0  0  0
  -15.5358  -30.2992   23.7664 H   0  0  0  0  0  0
  -15.8683  -28.0823   22.7084 H   0  0  0  0  0  0
  -24.5899  -30.7092   25.7756 H   0  0  0  0  0  0
  -24.8906  -32.2920   26.4824 H   0  0  0  0  0  0
  -25.8017  -30.8942   27.0222 H   0  0  0  0  0  0
  -26.2969  -29.6715   24.1249 H   0  0  0  0  0  0
  -27.4004  -29.7258   25.4798 H   0  0  0  0  0  0
  -27.8870  -30.4237   23.9532 H   0  0  0  0  0  0
  -27.2666  -33.3643   26.2042 H   0  0  0  0  0  0
  -28.3889  -32.6864   25.0344 H   0  0  0  0  0  0
  -28.0700  -31.8472   26.5446 H   0  0  0  0  0  0
  -28.2607  -38.0089   24.7506 H   0  0  0  0  0  0
  -28.1062  -36.2616   24.6307 H   0  0  0  0  0  0
  -27.2291  -37.1461   25.8872 H   0  0  0  0  0  0
  -20.9423  -29.8764   21.6815 H   0  0  0  0  0  0
  -26.0158  -38.2830   24.1400 H   0  0  0  0  0  0
  -31.5953  -21.2475   20.1983 H   0  0  0  0  0  0
  -32.4200  -17.0911   20.2989 H   0  0  0  0  0  0
  -26.9822  -25.2758   21.5300 H   0  0  0  0  0  0
  -27.9758  -21.0541   20.8901 H   0  0  0  0  0  0
  -28.9051  -15.8773   20.7758 H   0  0  0  0  0  0
  -27.7468  -22.1952   22.1151 H   0  0  0  0  0  0
  1 25  1  0  0  0
  1 30  2  0  0  0
  1 81  1  0  0  0
  2  3  1  0  0  0
  2 25  1  0  0  0
  2 86  1  0  0  0
  2 87  1  0  0  0
  3  4  1  0  0  0
  3 88  1  0  0  0
  3 89  1  0  0  0
  4  5  1  0  0  0
  4 90  1  0  0  0
  4 91  1  0  0  0
  5  6  1  0  0  0
  5 26  1  0  0  0
  5 92  1  0  0  0
  6 25  1  0  0  0
  6 93  1  0  0  0
  6 94  1  0  0  0
  7  8  2  0  0  0
  7 26  1  0  0  0
  7 29  1  0  0  0
  8  9  1  0  0  0
  8 22  1  0  0  0
  9 10  1  0  0  0
  9 27  2  0  0  0
 10 11  2  0  0  0
 10 15  1  0  0  0
 11 12  1  0  0  0
 11 95  1  0  0  0
 12 13  2  0  0  0
 12 96  1  0  0  0
 13 14  1  0  0  0
 13 31  1  0  0  0
 14 15  2  0  0  0
 14 97  1  0  0  0
 15 98  1  0  0  0
 16 17  2  0  0  0
 16 21  1  0  0  0
 16 31  1  0  0  0
 17 18  1  0  0  0
 17 99  1  0  0  0
 18 19  2  0  0  0
 18100  1  0  0  0
 19 20  1  0  0  0
 19 24  1  0  0  0
 20 21  2  0  0  0
 20101  1  0  0  0
 21 23  1  0  0  0
 22 28  1  0  0  0
 22 32  2  0  0  0
 26 27  1  0  0  0
 28102  1  0  0  0
 28103  1  0  0  0
 29104  1  0  0  0
 29105  1  0  0  0
 33 34  1  0  0  0
 33 66  1  0  0  0
 33 70  2  0  0  0
 34 36  1  0  0  0
 34 59  1  0  0  0
 34106  1  0  0  0
 35 44  2  0  0  0
 35 45  1  0  0  0
 35 68  1  0  0  0
 36 56  1  0  0  0
 36107  1  0  0  0
 37 39  1  0  0  0
 37 47  1  0  0  0
 37 66  1  0  0  0
 37108  1  0  0  0
 38 43  2  0  0  0
 38 46  1  0  0  0
 38 47  1  0  0  0
 39 64  1  0  0  0
 39 67  2  0  0  0
 40 52  1  0  0  0
 40 53  2  0  0  0
 40 58  1  0  0  0
 41109  1  0  0  0
 41110  1  0  0  0
 41111  1  0  0  0
 41 48  1  0  0  0
 42 43  1  0  0  0
 42 66  1  0  0  0
 42112  1  0  0  0
 42113  1  0  0  0
 43 44  1  0  0  0
 44114  1  0  0  0
 45 46  2  0  0  0
 45115  1  0  0  0
 46116  1  0  0  0
 47117  1  0  0  0
 47118  1  0  0  0
 48 56  1  0  0  0
 48 65  1  0  0  0
 48119  1  0  0  0
 49 50  1  0  0  0
 49 53  1  0  0  0
 49 64  1  0  0  0
 49120  1  0  0  0
 50 51  1  0  0  0
 50121  1  0  0  0
 50122  1  0  0  0
 51 52  1  0  0  0
 51123  1  0  0  0
 51124  1  0  0  0
 52125  1  0  0  0
 52126  1  0  0  0
 53 54  1  0  0  0
 54 55  2  0  0  0
 54127  1  0  0  0
 55 57  1  0  0  0
 55128  1  0  0  0
 56 69  2  0  0  0
 57 58  2  0  0  0
 57129  1  0  0  0
 58130  1  0  0  0
 59 60  1  0  0  0
 59 61  1  0  0  0
 59 62  1  0  0  0
 60131  1  0  0  0
 60132  1  0  0  0
 60133  1  0  0  0
 61134  1  0  0  0
 61135  1  0  0  0
 61136  1  0  0  0
 62137  1  0  0  0
 62138  1  0  0  0
 62139  1  0  0  0
 63 65  1  0  0  0
 63140  1  0  0  0
 63141  1  0  0  0
 63142  1  0  0  0
 64143  1  0  0  0
 65144  1  0  0  0
 68 77  1  0  0  0
 71 73  2  0  0  0
 71 75  1  0  0  0
 71145  1  0  0  0
 72 74  1  0  0  0
 72 75  2  0  0  0
 72146  1  0  0  0
 73 76  1  0  0  0
 73 80  1  0  0  0
 74 76  2  0  0  0
 74 81  1  0  0  0
 75 84  1  0  0  0
 76 85  1  0  0  0
 77 78  2  0  0  0
 77147  1  0  0  0
 78 79  1  0  0  0
 78 83  1  0  0  0
 79 80  1  0  0  0
 79 82  2  0  0  0
 80148  1  0  0  0
 81149  1  0  0  0
 83150  1  0  0  0
M  ISO  4   1 100  68 101  77 101  81 100
M  END
> <chiral flag>
0

> <version>
0

> <s_m_source_file>
/data/baiqing/PycharmProjects/Reinvent-master-3.2/result/LINK_invent/BTK/process_docking_weight1_custom_product_contain_oxygen_bond_distance_aromatic_linkinvent_7_9_3/rearranged_h_0171.sdf

> <i_m_source_file_index>
43

> <r_mmod_Potential_Energy-OPLS-2005>
287.405395507812

> <r_mmod_Stretch_Energy-OPLS-2005>
171.378463745117

> <r_mmod_Bend_Energy-OPLS-2005>
247.316513061523

> <r_mmod_Torsional_Energy-OPLS-2005>
235.250854492188

> <r_mmod_Improper_Torsional_Energy-OPLS-2005>
5.11825180053711

> <r_mmod_Van_der_Waal_Energy-OPLS-2005>
151.289169311523

> <r_mmod_Electrostatic_Energy-OPLS-2005>
-422.424957275391

> <r_mmod_Solvation_Energy-OPLS-2005>
-234.882415771484

> <b_mmod_Minimization_Converged-OPLS-2005>
0

> <r_mmod_RMS_Derivative-OPLS-2005>
1.11213099956512

$$$$
43
                    3D
 Structure written by MMmdl.
157166  0  0  1  0            999 V2000
  -30.6292  -14.5325   20.5751 C   0  0  0  0  0  0
  -30.4451  -12.3443   19.4223 C   0  0  0  0  0  0
  -29.5043  -12.5192   18.2086 C   0  0  0  0  0  0
  -28.0248  -12.3672   18.6184 C   0  0  0  0  0  0
  -27.6652  -13.1979   19.8781 C   0  0  2  0  0  0
  -28.7062  -12.9566   20.9943 C   0  0  0  0  0  0
  -25.2617  -13.8137   20.5667 C   0  0  0  0  0  0
  -24.1852  -13.0433   20.9168 C   0  0  0  0  0  0
  -24.6390  -11.6893   20.8719 C   0  0  0  0  0  0
  -23.9045  -10.4290   21.0397 C   0  0  0  0  0  0
  -24.3603   -9.4209   21.9177 C   0  0  0  0  0  0
  -23.6283   -8.2243   22.0756 C   0  0  0  0  0  0
  -22.4264   -8.0279   21.3546 C   0  0  0  0  0  0
  -21.9888   -9.0252   20.4649 C   0  0  0  0  0  0
  -22.7214  -10.2135   20.3053 C   0  0  0  0  0  0
  -21.6854   -6.0727   22.5273 C   0  0  0  0  0  0
  -21.4017   -6.5633   23.8207 C   0  0  0  0  0  0
  -21.3656   -5.6788   24.9168 C   0  0  0  0  0  0
  -21.6043   -4.3051   24.7222 C   0  0  0  0  0  0
  -21.8821   -3.8142   23.4344 C   0  0  0  0  0  0
  -21.9198   -4.6956   22.3397 C   0  0  0  0  0  0
  -22.7880  -13.5246   21.1837 C   0  0  0  0  0  0
  -22.1666   -4.2140   21.0975 F   0  0  0  0  0  0
  -21.5623   -3.4539   25.7737 F   0  0  0  0  0  0
  -30.0344  -13.3097   20.4557 N   0  0  0  0  0  0
  -26.3040  -12.9281   20.3347 N   0  0  0  0  0  0
  -25.9314  -11.6455   20.5739 N   0  0  0  0  0  0
  -22.0515  -12.8255   22.0399 N   0  0  0  0  0  0
  -25.4376  -15.1853   20.4073 N   0  0  0  0  0  0
  -31.7397  -14.7839   20.0930 O   0  0  0  0  0  0
  -21.6636   -6.8873   21.4236 O   0  0  0  0  0  0
  -22.3571  -14.5552   20.6683 O   0  0  0  0  0  0
  -24.6180  -31.8657   23.2072 C   0  0  0  0  0  0
  -25.9054  -32.4815   23.8384 C   0  0  1  0  0  0
  -27.2308  -27.3963   20.1110 C   0  0  0  0  0  0
  -25.5891  -33.8613   24.2310 N   0  0  0  0  0  0
  -23.4089  -30.4883   21.5482 C   0  0  2  0  0  0
  -24.8575  -28.9492   20.1154 C   0  0  0  0  0  0
  -22.7434  -29.4648   22.4969 C   0  0  0  0  0  0
  -18.0280  -28.1379   22.8491 C   0  0  0  0  0  0
  -24.1484  -36.7316   23.2638 C   0  0  0  0  0  0
  -25.9418  -30.8208   21.3659 C   0  0  0  0  0  0
  -26.0210  -29.4520   20.7131 C   0  0  0  0  0  0
  -27.2150  -28.6855   20.7037 C   0  0  0  0  0  0
  -26.0521  -26.9214   19.4984 C   0  0  0  0  0  0
  -24.8698  -27.6848   19.5026 C   0  0  0  0  0  0
  -23.6211  -29.8204   20.1638 C   0  0  0  0  0  0
  -25.4104  -36.3108   24.0336 C   0  0  1  0  0  0
  -20.5874  -28.3674   23.1308 C   0  0  2  0  0  0
  -20.6769  -26.9406   22.5416 C   0  0  0  0  0  0
  -19.5745  -26.6387   21.5212 C   0  0  0  0  0  0
  -18.1926  -26.7926   22.1625 C   0  0  0  0  0  0
  -19.1531  -28.8840   23.2897 C   0  0  0  0  0  0
  -18.9457  -30.1444   23.8911 C   0  0  0  0  0  0
  -17.6460  -30.6584   24.0565 C   0  0  0  0  0  0
  -25.9034  -34.9475   23.5125 C   0  0  0  0  0  0
  -16.5352  -29.9088   23.6323 C   0  0  0  0  0  0
  -16.7269  -28.6503   23.0349 C   0  0  0  0  0  0
  -26.4463  -31.6603   25.0727 C   0  0  0  0  0  0
  -25.3722  -31.3737   26.1476 C   0  0  0  0  0  0
  -27.0292  -30.3037   24.6125 C   0  0  0  0  0  0
  -27.6040  -32.4326   25.7485 C   0  0  0  0  0  0
  -27.5577  -37.1814   24.8463 C   0  0  0  0  0  0
  -21.4157  -29.3039   22.3711 N   0  0  0  0  0  0
  -26.4290  -37.3793   23.9405 N   0  0  0  0  0  0
  -24.6746  -31.0729   22.0989 N   0  0  0  0  0  0
  -23.4189  -28.8189   23.3024 O   0  0  0  0  0  0
  -28.3584  -26.5913   20.1158 O   0  0  0  0  0  0
  -26.5610  -34.8930   22.4694 O   0  0  0  0  0  0
  -23.5362  -32.1423   23.7441 O   0  0  0  0  0  0
  -30.3677  -19.1697   20.4214 C   0  0  0  0  0  0
  -30.6524  -17.7769   20.5230 C   0  0  0  0  0  0
  -28.4295  -17.4075   21.4014 C   0  0  0  0  0  0
  -29.1057  -19.7035   20.8005 C   0  0  0  0  0  0
  -29.6806  -16.8702   21.0205 C   0  0  0  0  0  0
  -28.1416  -18.7867   21.2897 C   0  0  0  0  0  0
  -29.4814  -23.2650   21.7207 C   0  0  0  0  0  0
  -28.9749  -21.9091   19.3444 C   0  0  0  0  0  0
  -28.7580  -21.2198   20.7191 C   0  0  2  0  0  0
  -29.1196  -24.1518   20.5071 C   0  0  2  0  0  0
  -28.2338  -25.3860   20.9210 C   0  0  0  0  0  0
  -29.3960  -21.9827   21.7975 N   0  0  0  0  0  0
  -29.8579  -15.4513   21.2055 N   0  0  0  0  0  0
  -28.5109  -23.3265   19.4165 N   0  3  0  0  0  0
  -26.9154  -19.2214   21.6698 F   0  0  0  0  0  0
  -31.4849  -12.4834   19.1192 H   0  0  0  0  0  0
  -30.3823  -11.3272   19.8125 H   0  0  0  0  0  0
  -29.7517  -11.7933   17.4333 H   0  0  0  0  0  0
  -29.6608  -13.5038   17.7640 H   0  0  0  0  0  0
  -27.8385  -11.3094   18.8084 H   0  0  0  0  0  0
  -27.3752  -12.6437   17.7877 H   0  0  0  0  0  0
  -27.7133  -14.2479   19.5909 H   0  0  0  0  0  0
  -28.7003  -11.9067   21.2910 H   0  0  0  0  0  0
  -28.4481  -13.5053   21.9015 H   0  0  0  0  0  0
  -25.2753   -9.5685   22.4744 H   0  0  0  0  0  0
  -23.9993   -7.4632   22.7476 H   0  0  0  0  0  0
  -21.0814   -8.8769   19.8961 H   0  0  0  0  0  0
  -22.3668  -10.9671   19.6160 H   0  0  0  0  0  0
  -21.2014   -7.6141   23.9706 H   0  0  0  0  0  0
  -21.1473   -6.0520   25.9070 H   0  0  0  0  0  0
  -22.0605   -2.7603   23.2851 H   0  0  0  0  0  0
  -22.4125  -11.9915   22.4787 H   0  0  0  0  0  0
  -21.1137  -13.1297   22.2600 H   0  0  0  0  0  0
  -24.6714  -15.8422   20.5087 H   0  0  0  0  0  0
  -26.2806  -15.6133   20.0479 H   0  0  0  0  0  0
  -26.7129  -32.5519   23.1152 H   0  0  0  0  0  0
  -25.0012  -33.9769   25.0435 H   0  0  0  0  0  0
  -22.6992  -31.3060   21.4068 H   0  0  0  0  0  0
  -23.3736  -35.9661   23.3320 H   0  0  0  0  0  0
  -24.3574  -36.8913   22.2048 H   0  0  0  0  0  0
  -23.7251  -37.6532   23.6643 H   0  0  0  0  0  0
  -26.0578  -31.5843   20.5953 H   0  0  0  0  0  0
  -26.8281  -30.8760   21.9867 H   0  0  0  0  0  0
  -28.1116  -29.0685   21.1717 H   0  0  0  0  0  0
  -26.0419  -25.9517   19.0218 H   0  0  0  0  0  0
  -23.9772  -27.2923   19.0354 H   0  0  0  0  0  0
  -23.7348  -30.5956   19.4052 H   0  0  0  0  0  0
  -22.7438  -29.2446   19.8639 H   0  0  0  0  0  0
  -25.1279  -36.1976   25.0829 H   0  0  0  0  0  0
  -20.9963  -28.3243   24.1430 H   0  0  0  0  0  0
  -20.5666  -26.2281   23.3605 H   0  0  0  0  0  0
  -21.6642  -26.7444   22.1212 H   0  0  0  0  0  0
  -19.6908  -25.6303   21.1226 H   0  0  0  0  0  0
  -19.6676  -27.3207   20.6749 H   0  0  0  0  0  0
  -17.4192  -26.6673   21.4033 H   0  0  0  0  0  0
  -18.0327  -26.0065   22.9016 H   0  0  0  0  0  0
  -19.7935  -30.7256   24.2289 H   0  0  0  0  0  0
  -17.5017  -31.6266   24.5166 H   0  0  0  0  0  0
  -15.5353  -30.2998   23.7639 H   0  0  0  0  0  0
  -15.8669  -28.0826   22.7061 H   0  0  0  0  0  0
  -24.5871  -30.7109   25.7820 H   0  0  0  0  0  0
  -24.8943  -32.2908   26.4934 H   0  0  0  0  0  0
  -25.8061  -30.8891   27.0231 H   0  0  0  0  0  0
  -26.2849  -29.6815   24.1141 H   0  0  0  0  0  0
  -27.4007  -29.7263   25.4601 H   0  0  0  0  0  0
  -27.8709  -30.4347   23.9321 H   0  0  0  0  0  0
  -27.2653  -33.3608   26.2102 H   0  0  0  0  0  0
  -28.3825  -32.6917   25.0297 H   0  0  0  0  0  0
  -28.0737  -31.8431   26.5369 H   0  0  0  0  0  0
  -28.2610  -38.0096   24.7496 H   0  0  0  0  0  0
  -28.1058  -36.2631   24.6299 H   0  0  0  0  0  0
  -27.2300  -37.1483   25.8869 H   0  0  0  0  0  0
  -20.9320  -29.8765   21.6936 H   0  0  0  0  0  0
  -26.0181  -38.2874   24.1397 H   0  0  0  0  0  0
  -31.1359  -19.8356   20.0558 H   0  0  0  0  0  0
  -31.6290  -17.4182   20.2283 H   0  0  0  0  0  0
  -27.6577  -16.7591   21.7908 H   0  0  0  0  0  0
  -29.8931  -23.8321   22.5603 H   0  0  0  0  0  0
  -28.4134  -21.3856   18.5695 H   0  0  0  0  0  0
  -30.0254  -21.8753   19.0516 H   0  0  0  0  0  0
  -27.6818  -21.2754   20.8933 H   0  0  0  0  0  0
  -30.0688  -24.5366   20.1339 H   0  0  0  0  0  0
  -28.5183  -25.7040   21.9255 H   0  0  0  0  0  0
  -27.1958  -25.0637   21.0193 H   0  0  0  0  0  0
  -29.0742  -15.0031   21.6543 H   0  0  0  0  0  0
  -27.5141  -23.2948   19.5575 H   0  0  0  0  0  0
  -28.6722  -23.7757   18.5291 H   0  0  0  0  0  0
  1 25  1  0  0  0
  1 30  2  0  0  0
  1 83  1  0  0  0
  2  3  1  0  0  0
  2 25  1  0  0  0
  2 86  1  0  0  0
  2 87  1  0  0  0
  3  4  1  0  0  0
  3 88  1  0  0  0
  3 89  1  0  0  0
  4  5  1  0  0  0
  4 90  1  0  0  0
  4 91  1  0  0  0
  5  6  1  0  0  0
  5 26  1  0  0  0
  5 92  1  0  0  0
  6 25  1  0  0  0
  6 93  1  0  0  0
  6 94  1  0  0  0
  7  8  2  0  0  0
  7 26  1  0  0  0
  7 29  1  0  0  0
  8  9  1  0  0  0
  8 22  1  0  0  0
  9 10  1  0  0  0
  9 27  2  0  0  0
 10 11  2  0  0  0
 10 15  1  0  0  0
 11 12  1  0  0  0
 11 95  1  0  0  0
 12 13  2  0  0  0
 12 96  1  0  0  0
 13 14  1  0  0  0
 13 31  1  0  0  0
 14 15  2  0  0  0
 14 97  1  0  0  0
 15 98  1  0  0  0
 16 17  2  0  0  0
 16 21  1  0  0  0
 16 31  1  0  0  0
 17 18  1  0  0  0
 17 99  1  0  0  0
 18 19  2  0  0  0
 18100  1  0  0  0
 19 20  1  0  0  0
 19 24  1  0  0  0
 20 21  2  0  0  0
 20101  1  0  0  0
 21 23  1  0  0  0
 22 28  1  0  0  0
 22 32  2  0  0  0
 26 27  1  0  0  0
 28102  1  0  0  0
 28103  1  0  0  0
 29104  1  0  0  0
 29105  1  0  0  0
 33 34  1  0  0  0
 33 66  1  0  0  0
 33 70  2  0  0  0
 34 36  1  0  0  0
 34 59  1  0  0  0
 34106  1  0  0  0
 35 44  2  0  0  0
 35 45  1  0  0  0
 35 68  1  0  0  0
 36 56  1  0  0  0
 36107  1  0  0  0
 37 39  1  0  0  0
 37 47  1  0  0  0
 37 66  1  0  0  0
 37108  1  0  0  0
 38 43  2  0  0  0
 38 46  1  0  0  0
 38 47  1  0  0  0
 39 64  1  0  0  0
 39 67  2  0  0  0
 40 52  1  0  0  0
 40 53  2  0  0  0
 40 58  1  0  0  0
 41109  1  0  0  0
 41110  1  0  0  0
 41111  1  0  0  0
 41 48  1  0  0  0
 42 43  1  0  0  0
 42 66  1  0  0  0
 42112  1  0  0  0
 42113  1  0  0  0
 43 44  1  0  0  0
 44114  1  0  0  0
 45 46  2  0  0  0
 45115  1  0  0  0
 46116  1  0  0  0
 47117  1  0  0  0
 47118  1  0  0  0
 48 56  1  0  0  0
 48 65  1  0  0  0
 48119  1  0  0  0
 49 50  1  0  0  0
 49 53  1  0  0  0
 49 64  1  0  0  0
 49120  1  0  0  0
 50 51  1  0  0  0
 50121  1  0  0  0
 50122  1  0  0  0
 51 52  1  0  0  0
 51123  1  0  0  0
 51124  1  0  0  0
 52125  1  0  0  0
 52126  1  0  0  0
 53 54  1  0  0  0
 54 55  2  0  0  0
 54127  1  0  0  0
 55 57  1  0  0  0
 55128  1  0  0  0
 56 69  2  0  0  0
 57 58  2  0  0  0
 57129  1  0  0  0
 58130  1  0  0  0
 59 60  1  0  0  0
 59 61  1  0  0  0
 59 62  1  0  0  0
 60131  1  0  0  0
 60132  1  0  0  0
 60133  1  0  0  0
 61134  1  0  0  0
 61135  1  0  0  0
 61136  1  0  0  0
 62137  1  0  0  0
 62138  1  0  0  0
 62139  1  0  0  0
 63 65  1  0  0  0
 63140  1  0  0  0
 63141  1  0  0  0
 63142  1  0  0  0
 64143  1  0  0  0
 65144  1  0  0  0
 68 81  1  0  0  0
 71 72  2  0  0  0
 71 74  1  0  0  0
 71145  1  0  0  0
 72 75  1  0  0  0
 72146  1  0  0  0
 73 75  2  0  0  0
 73 76  1  0  0  0
 73147  1  0  0  0
 74 76  2  0  0  0
 74 79  1  0  0  0
 75 83  1  0  0  0
 76 85  1  0  0  0
 77 80  1  0  0  0
 77 82  2  0  0  0
 77148  1  0  0  0
 78 79  1  0  0  0
 78 84  1  0  0  0
 78149  1  0  0  0
 78150  1  0  0  0
 79 82  1  0  0  0
 79151  1  0  0  0
 80 81  1  0  0  0
 80 84  1  0  0  0
 80152  1  0  0  0
 81153  1  0  0  0
 81154  1  0  0  0
 83155  1  0  0  0
 84156  1  0  0  0
 84157  1  0  0  0
M  CHG  1  84   1
M  ISO  4   1 100  68 101  81 101  83 100
M  END
> <chiral flag>
0

> <version>
0

> <s_m_source_file>
/data/baiqing/PycharmProjects/Reinvent-master-3.2/result/LINK_invent/BTK/process_docking_weight1_custom_product_contain_oxygen_bond_distance_aromatic_linkinvent_7_9_3/rearranged_h_0171.sdf

> <i_m_source_file_index>
44

> <r_mmod_Potential_Energy-OPLS-2005>
-153.602127075195

> <r_mmod_Stretch_Energy-OPLS-2005>
54.0624122619629

> <r_mmod_Bend_Energy-OPLS-2005>
121.10814666748

> <r_mmod_Torsional_Energy-OPLS-2005>
252.041213989258

> <r_mmod_Improper_Torsional_Energy-OPLS-2005>
4.1228985786438

> <r_mmod_Van_der_Waal_Energy-OPLS-2005>
158.611740112305

> <r_mmod_Electrostatic_Energy-OPLS-2005>
-289.100494384766

> <r_mmod_Solvation_Energy-OPLS-2005>
-476.300598144531

> <b_mmod_Minimization_Converged-OPLS-2005>
0

> <r_mmod_RMS_Derivative-OPLS-2005>
1.14408481121063

$$$$
44
                    3D
 Structure written by MMmdl.
164172  0  0  1  0            999 V2000
  -30.6893  -14.4784   20.5700 C   0  0  0  0  0  0
  -30.4260  -12.3113   19.4194 C   0  0  0  0  0  0
  -29.4949  -12.5081   18.2042 C   0  0  0  0  0  0
  -28.0153  -12.3676   18.6167 C   0  0  0  0  0  0
  -27.6609  -13.2053   19.8751 C   0  0  2  0  0  0
  -28.7033  -12.9805   20.9941 C   0  0  0  0  0  0
  -25.2583  -13.8152   20.5679 C   0  0  0  0  0  0
  -24.1829  -13.0429   20.9151 C   0  0  0  0  0  0
  -24.6384  -11.6898   20.8719 C   0  0  0  0  0  0
  -23.9053  -10.4287   21.0396 C   0  0  0  0  0  0
  -24.3610   -9.4207   21.9176 C   0  0  0  0  0  0
  -23.6289   -8.2242   22.0750 C   0  0  0  0  0  0
  -22.4270   -8.0279   21.3545 C   0  0  0  0  0  0
  -21.9902   -9.0248   20.4646 C   0  0  0  0  0  0
  -22.7225  -10.2127   20.3049 C   0  0  0  0  0  0
  -21.6852   -6.0735   22.5281 C   0  0  0  0  0  0
  -21.4012   -6.5639   23.8214 C   0  0  0  0  0  0
  -21.3659   -5.6790   24.9177 C   0  0  0  0  0  0
  -21.6044   -4.3053   24.7225 C   0  0  0  0  0  0
  -21.8818   -3.8147   23.4346 C   0  0  0  0  0  0
  -21.9191   -4.6964   22.3403 C   0  0  0  0  0  0
  -22.7857  -13.5236   21.1831 C   0  0  0  0  0  0
  -22.1661   -4.2151   21.0980 F   0  0  0  0  0  0
  -21.5633   -3.4536   25.7737 F   0  0  0  0  0  0
  -30.0346  -13.2917   20.4437 N   0  0  0  0  0  0
  -26.3022  -12.9322   20.3372 N   0  0  0  0  0  0
  -25.9314  -11.6482   20.5761 N   0  0  0  0  0  0
  -22.0503  -12.8230   22.0395 N   0  0  0  0  0  0
  -25.4297  -15.1874   20.4153 N   0  0  0  0  0  0
  -31.8170  -14.6673   20.1068 O   0  0  0  0  0  0
  -21.6639   -6.8875   21.4240 O   0  0  0  0  0  0
  -22.3537  -14.5544   20.6686 O   0  0  0  0  0  0
  -24.6134  -31.8679   23.2102 C   0  0  0  0  0  0
  -25.9025  -32.4825   23.8402 C   0  0  1  0  0  0
  -27.2365  -27.4389   20.1016 C   0  0  0  0  0  0
  -25.5885  -33.8627   24.2334 N   0  0  0  0  0  0
  -23.4031  -30.4895   21.5500 C   0  0  2  0  0  0
  -24.8510  -28.9513   20.1206 C   0  0  0  0  0  0
  -22.7412  -29.4654   22.4998 C   0  0  0  0  0  0
  -18.0268  -28.1380   22.8497 C   0  0  0  0  0  0
  -24.1485  -36.7324   23.2640 C   0  0  0  0  0  0
  -25.9305  -30.8351   21.3630 C   0  0  0  0  0  0
  -26.0101  -29.4670   20.7155 C   0  0  0  0  0  0
  -27.2086  -28.7176   20.7031 C   0  0  0  0  0  0
  -26.0646  -26.9323   19.5059 C   0  0  0  0  0  0
  -24.8721  -27.6821   19.5147 C   0  0  0  0  0  0
  -23.6126  -29.8176   20.1664 C   0  0  0  0  0  0
  -25.4105  -36.3120   24.0343 C   0  0  1  0  0  0
  -20.5859  -28.3665   23.1327 C   0  0  2  0  0  0
  -20.6759  -26.9403   22.5427 C   0  0  0  0  0  0
  -19.5737  -26.6390   21.5223 C   0  0  0  0  0  0
  -18.1914  -26.7929   22.1627 C   0  0  0  0  0  0
  -19.1518  -28.8838   23.2909 C   0  0  0  0  0  0
  -18.9444  -30.1444   23.8923 C   0  0  0  0  0  0
  -17.6446  -30.6589   24.0569 C   0  0  0  0  0  0
  -25.9032  -34.9483   23.5141 C   0  0  0  0  0  0
  -16.5337  -29.9093   23.6323 C   0  0  0  0  0  0
  -16.7257  -28.6506   23.0350 C   0  0  0  0  0  0
  -26.4462  -31.6602   25.0726 C   0  0  0  0  0  0
  -25.3737  -31.3697   26.1478 C   0  0  0  0  0  0
  -27.0287  -30.3047   24.6092 C   0  0  0  0  0  0
  -27.6050  -32.4314   25.7479 C   0  0  0  0  0  0
  -27.5584  -37.1808   24.8460 C   0  0  0  0  0  0
  -21.4138  -29.3033   22.3737 N   0  0  0  0  0  0
  -26.4293  -37.3802   23.9412 N   0  0  0  0  0  0
  -24.6672  -31.0785   22.0999 N   0  0  0  0  0  0
  -23.4186  -28.8203   23.3046 O   0  0  0  0  0  0
  -28.3958  -26.7015   20.0511 O   0  0  0  0  0  0
  -26.5601  -34.8930   22.4708 O   0  0  0  0  0  0
  -23.5327  -32.1424   23.7497 O   0  0  0  0  0  0
  -29.1109  -19.1175   21.0626 C   0  0  0  0  0  0
  -31.4225  -17.5115   20.9962 C   0  0  0  0  0  0
  -30.3767  -19.7453   21.0106 C   0  0  0  0  0  0
  -30.1555  -16.8855   21.0499 C   0  0  0  0  0  0
  -29.0065  -17.7074   21.0860 C   0  0  0  0  0  0
  -31.5316  -18.9197   20.9738 C   0  0  0  0  0  0
  -30.4993  -21.2216   21.0340 C   0  0  0  0  0  0
  -28.4589  -24.2512   20.4088 C   0  0  0  0  0  0
  -29.6020  -23.2721   17.5972 C   0  0  0  0  0  0
  -31.8812  -23.4625   18.6711 C   0  0  0  0  0  0
  -28.4975  -25.6621   21.0362 C   0  0  0  0  0  0
  -29.8091  -23.5275   20.1770 C   0  0  2  0  0  0
  -30.4003  -23.8652   18.7776 C   0  0  0  0  0  0
  -29.9563  -15.4687   21.1145 N   0  0  0  0  0  0
  -29.6886  -22.0454   20.3317 N   0  0  0  0  0  0
  -31.4600  -21.7866   21.7700 N   0  3  0  0  0  0
  -27.3788  -23.7223   20.1286 O   0  0  0  0  0  0
  -27.7833  -17.1269   21.1445 F   0  0  0  0  0  0
  -32.7707  -19.4702   20.9397 F   0  0  0  0  0  0
  -31.4702  -12.4151   19.1183 H   0  0  0  0  0  0
  -30.3314  -11.2990   19.8154 H   0  0  0  0  0  0
  -29.7368  -11.7833   17.4259 H   0  0  0  0  0  0
  -29.6611  -13.4936   17.7665 H   0  0  0  0  0  0
  -27.8257  -11.3113   18.8108 H   0  0  0  0  0  0
  -27.3646  -12.6439   17.7860 H   0  0  0  0  0  0
  -27.7044  -14.2540   19.5795 H   0  0  0  0  0  0
  -28.6808  -11.9415   21.3270 H   0  0  0  0  0  0
  -28.4618  -13.5709   21.8794 H   0  0  0  0  0  0
  -25.2757   -9.5686   22.4748 H   0  0  0  0  0  0
  -24.0003   -7.4632   22.7465 H   0  0  0  0  0  0
  -21.0837   -8.8756   19.8954 H   0  0  0  0  0  0
  -22.3679  -10.9661   19.6156 H   0  0  0  0  0  0
  -21.2000   -7.6146   23.9718 H   0  0  0  0  0  0
  -21.1486   -6.0522   25.9079 H   0  0  0  0  0  0
  -22.0600   -2.7611   23.2843 H   0  0  0  0  0  0
  -22.4114  -11.9886   22.4778 H   0  0  0  0  0  0
  -21.1123  -13.1260   22.2610 H   0  0  0  0  0  0
  -24.6687  -15.8419   20.5568 H   0  0  0  0  0  0
  -26.3060  -15.6479   20.2015 H   0  0  0  0  0  0
  -26.7105  -32.5545   23.1180 H   0  0  0  0  0  0
  -25.0016  -33.9798   25.0464 H   0  0  0  0  0  0
  -22.6909  -31.3052   21.4084 H   0  0  0  0  0  0
  -23.3750  -35.9655   23.3304 H   0  0  0  0  0  0
  -24.3581  -36.8933   22.2055 H   0  0  0  0  0  0
  -23.7234  -37.6531   23.6647 H   0  0  0  0  0  0
  -26.0393  -31.5992   20.5917 H   0  0  0  0  0  0
  -26.8203  -30.8926   21.9783 H   0  0  0  0  0  0
  -28.1069  -29.1166   21.1529 H   0  0  0  0  0  0
  -26.0767  -25.9608   19.0311 H   0  0  0  0  0  0
  -23.9810  -27.2792   19.0537 H   0  0  0  0  0  0
  -23.7219  -30.5897   19.4038 H   0  0  0  0  0  0
  -22.7377  -29.2347   19.8714 H   0  0  0  0  0  0
  -25.1281  -36.1992   25.0838 H   0  0  0  0  0  0
  -20.9948  -28.3226   24.1449 H   0  0  0  0  0  0
  -20.5668  -26.2274   23.3613 H   0  0  0  0  0  0
  -21.6626  -26.7452   22.1210 H   0  0  0  0  0  0
  -19.6898  -25.6306   21.1237 H   0  0  0  0  0  0
  -19.6679  -27.3214   20.6766 H   0  0  0  0  0  0
  -17.4190  -26.6686   21.4021 H   0  0  0  0  0  0
  -18.0311  -26.0068   22.9022 H   0  0  0  0  0  0
  -19.7922  -30.7250   24.2307 H   0  0  0  0  0  0
  -17.5003  -31.6273   24.5163 H   0  0  0  0  0  0
  -15.5337  -30.3004   23.7634 H   0  0  0  0  0  0
  -15.8656  -28.0830   22.7060 H   0  0  0  0  0  0
  -24.5902  -30.7055   25.7811 H   0  0  0  0  0  0
  -24.8938  -32.2846   26.4963 H   0  0  0  0  0  0
  -25.8098  -30.8835   27.0211 H   0  0  0  0  0  0
  -26.2823  -29.6812   24.1153 H   0  0  0  0  0  0
  -27.4064  -29.7278   25.4543 H   0  0  0  0  0  0
  -27.8657  -30.4374   23.9233 H   0  0  0  0  0  0
  -27.2680  -33.3600   26.2100 H   0  0  0  0  0  0
  -28.3829  -32.6895   25.0281 H   0  0  0  0  0  0
  -28.0749  -31.8409   26.5349 H   0  0  0  0  0  0
  -28.2598  -38.0111   24.7523 H   0  0  0  0  0  0
  -28.1083  -36.2644   24.6263 H   0  0  0  0  0  0
  -27.2301  -37.1436   25.8861 H   0  0  0  0  0  0
  -20.9305  -29.8758   21.6958 H   0  0  0  0  0  0
  -26.0186  -38.2882   24.1423 H   0  0  0  0  0  0
  -28.2077  -19.7075   21.1085 H   0  0  0  0  0  0
  -32.3306  -16.9298   20.9900 H   0  0  0  0  0  0
  -30.0309  -23.5793   16.6425 H   0  0  0  0  0  0
  -28.5646  -23.6077   17.5975 H   0  0  0  0  0  0
  -29.5999  -22.1819   17.6102 H   0  0  0  0  0  0
  -32.3106  -23.7960   17.7256 H   0  0  0  0  0  0
  -32.0150  -22.3822   18.7243 H   0  0  0  0  0  0
  -32.4722  -23.9129   19.4696 H   0  0  0  0  0  0
  -27.7002  -25.7427   21.7766 H   0  0  0  0  0  0
  -29.4367  -25.7857   21.5750 H   0  0  0  0  0  0
  -30.4958  -23.9128   20.9305 H   0  0  0  0  0  0
  -30.3714  -24.9513   18.6658 H   0  0  0  0  0  0
  -29.0301  -15.1919   21.4017 H   0  0  0  0  0  0
  -28.9125  -21.6232   19.8379 H   0  0  0  0  0  0
  -32.1514  -21.1927   22.2033 H   0  0  0  0  0  0
  -31.5818  -22.7827   21.8076 H   0  0  0  0  0  0
  1 25  1  0  0  0
  1 30  2  0  0  0
  1 84  1  0  0  0
  2  3  1  0  0  0
  2 25  1  0  0  0
  2 90  1  0  0  0
  2 91  1  0  0  0
  3  4  1  0  0  0
  3 92  1  0  0  0
  3 93  1  0  0  0
  4  5  1  0  0  0
  4 94  1  0  0  0
  4 95  1  0  0  0
  5  6  1  0  0  0
  5 26  1  0  0  0
  5 96  1  0  0  0
  6 25  1  0  0  0
  6 97  1  0  0  0
  6 98  1  0  0  0
  7  8  2  0  0  0
  7 26  1  0  0  0
  7 29  1  0  0  0
  8  9  1  0  0  0
  8 22  1  0  0  0
  9 10  1  0  0  0
  9 27  2  0  0  0
 10 11  2  0  0  0
 10 15  1  0  0  0
 11 12  1  0  0  0
 11 99  1  0  0  0
 12 13  2  0  0  0
 12100  1  0  0  0
 13 14  1  0  0  0
 13 31  1  0  0  0
 14 15  2  0  0  0
 14101  1  0  0  0
 15102  1  0  0  0
 16 17  2  0  0  0
 16 21  1  0  0  0
 16 31  1  0  0  0
 17 18  1  0  0  0
 17103  1  0  0  0
 18 19  2  0  0  0
 18104  1  0  0  0
 19 20  1  0  0  0
 19 24  1  0  0  0
 20 21  2  0  0  0
 20105  1  0  0  0
 21 23  1  0  0  0
 22 28  1  0  0  0
 22 32  2  0  0  0
 26 27  1  0  0  0
 28106  1  0  0  0
 28107  1  0  0  0
 29108  1  0  0  0
 29109  1  0  0  0
 33 34  1  0  0  0
 33 66  1  0  0  0
 33 70  2  0  0  0
 34 36  1  0  0  0
 34 59  1  0  0  0
 34110  1  0  0  0
 35 44  2  0  0  0
 35 45  1  0  0  0
 35 68  1  0  0  0
 36 56  1  0  0  0
 36111  1  0  0  0
 37 39  1  0  0  0
 37 47  1  0  0  0
 37 66  1  0  0  0
 37112  1  0  0  0
 38 43  2  0  0  0
 38 46  1  0  0  0
 38 47  1  0  0  0
 39 64  1  0  0  0
 39 67  2  0  0  0
 40 52  1  0  0  0
 40 53  2  0  0  0
 40 58  1  0  0  0
 41113  1  0  0  0
 41114  1  0  0  0
 41115  1  0  0  0
 41 48  1  0  0  0
 42 43  1  0  0  0
 42 66  1  0  0  0
 42116  1  0  0  0
 42117  1  0  0  0
 43 44  1  0  0  0
 44118  1  0  0  0
 45 46  2  0  0  0
 45119  1  0  0  0
 46120  1  0  0  0
 47121  1  0  0  0
 47122  1  0  0  0
 48 56  1  0  0  0
 48 65  1  0  0  0
 48123  1  0  0  0
 49 50  1  0  0  0
 49 53  1  0  0  0
 49 64  1  0  0  0
 49124  1  0  0  0
 50 51  1  0  0  0
 50125  1  0  0  0
 50126  1  0  0  0
 51 52  1  0  0  0
 51127  1  0  0  0
 51128  1  0  0  0
 52129  1  0  0  0
 52130  1  0  0  0
 53 54  1  0  0  0
 54 55  2  0  0  0
 54131  1  0  0  0
 55 57  1  0  0  0
 55132  1  0  0  0
 56 69  2  0  0  0
 57 58  2  0  0  0
 57133  1  0  0  0
 58134  1  0  0  0
 59 60  1  0  0  0
 59 61  1  0  0  0
 59 62  1  0  0  0
 60135  1  0  0  0
 60136  1  0  0  0
 60137  1  0  0  0
 61138  1  0  0  0
 61139  1  0  0  0
 61140  1  0  0  0
 62141  1  0  0  0
 62142  1  0  0  0
 62143  1  0  0  0
 63 65  1  0  0  0
 63144  1  0  0  0
 63145  1  0  0  0
 63146  1  0  0  0
 64147  1  0  0  0
 65148  1  0  0  0
 68 81  1  0  0  0
 71 73  2  0  0  0
 71 75  1  0  0  0
 71149  1  0  0  0
 72 74  1  0  0  0
 72 76  2  0  0  0
 72150  1  0  0  0
 73 76  1  0  0  0
 73 77  1  0  0  0
 74 75  2  0  0  0
 74 84  1  0  0  0
 75 88  1  0  0  0
 76 89  1  0  0  0
 77 85  1  0  0  0
 77 86  2  0  0  0
 78 81  1  0  0  0
 78 82  1  0  0  0
 78 87  2  0  0  0
 79151  1  0  0  0
 79152  1  0  0  0
 79153  1  0  0  0
 79 83  1  0  0  0
 80 83  1  0  0  0
 80154  1  0  0  0
 80155  1  0  0  0
 80156  1  0  0  0
 81157  1  0  0  0
 81158  1  0  0  0
 82 83  1  0  0  0
 82 85  1  0  0  0
 82159  1  0  0  0
 83160  1  0  0  0
 84161  1  0  0  0
 85162  1  0  0  0
 86163  1  0  0  0
 86164  1  0  0  0
M  CHG  1  86   1
M  ISO  4   1 100  68 101  81 101  84 100
M  END
> <chiral flag>
0

> <version>
0

> <s_m_source_file>
/data/baiqing/PycharmProjects/Reinvent-master-3.2/result/LINK_invent/BTK/process_docking_weight1_custom_product_contain_oxygen_bond_distance_aromatic_linkinvent_7_9_3/rearranged_h_0171.sdf

> <i_m_source_file_index>
45

> <r_mmod_Potential_Energy-OPLS-2005>
-328.280059814453

> <r_mmod_Stretch_Energy-OPLS-2005>
40.1452865600586

> <r_mmod_Bend_Energy-OPLS-2005>
99.1235809326172

> <r_mmod_Torsional_Energy-OPLS-2005>
259.958221435547

> <r_mmod_Improper_Torsional_Energy-OPLS-2005>
4.0771632194519

> <r_mmod_Van_der_Waal_Energy-OPLS-2005>
150.952301025391

> <r_mmod_Electrostatic_Energy-OPLS-2005>
-463.630187988281

> <r_mmod_Solvation_Energy-OPLS-2005>
-430.575469970703

> <b_mmod_Minimization_Converged-OPLS-2005>
0

> <r_mmod_RMS_Derivative-OPLS-2005>
0.880196094512939

$$$$
45
                    3D
 Structure written by MMmdl.
152160  0  0  1  0            999 V2000
  -30.7161  -14.4956   20.5597 C   0  0  0  0  0  0
  -30.4161  -12.3201   19.4291 C   0  0  0  0  0  0
  -29.4919  -12.4998   18.2082 C   0  0  0  0  0  0
  -28.0150  -12.3578   18.6234 C   0  0  0  0  0  0
  -27.6568  -13.2131   19.8687 C   0  0  2  0  0  0
  -28.7008  -13.0312   20.9940 C   0  0  0  0  0  0
  -25.2569  -13.8174   20.5687 C   0  0  0  0  0  0
  -24.1830  -13.0442   20.9185 C   0  0  0  0  0  0
  -24.6393  -11.6911   20.8741 C   0  0  0  0  0  0
  -23.9063  -10.4292   21.0407 C   0  0  0  0  0  0
  -24.3615   -9.4207   21.9185 C   0  0  0  0  0  0
  -23.6290   -8.2243   22.0755 C   0  0  0  0  0  0
  -22.4274   -8.0281   21.3544 C   0  0  0  0  0  0
  -21.9909   -9.0254   20.4647 C   0  0  0  0  0  0
  -22.7237  -10.2133   20.3056 C   0  0  0  0  0  0
  -21.6852   -6.0734   22.5279 C   0  0  0  0  0  0
  -21.4013   -6.5639   23.8212 C   0  0  0  0  0  0
  -21.3657   -5.6792   24.9174 C   0  0  0  0  0  0
  -21.6044   -4.3055   24.7226 C   0  0  0  0  0  0
  -21.8819   -3.8146   23.4347 C   0  0  0  0  0  0
  -21.9193   -4.6962   22.3404 C   0  0  0  0  0  0
  -22.7852  -13.5236   21.1846 C   0  0  0  0  0  0
  -22.1661   -4.2148   21.0981 F   0  0  0  0  0  0
  -21.5628   -3.4540   25.7739 F   0  0  0  0  0  0
  -30.0263  -13.3279   20.4301 N   0  0  0  0  0  0
  -26.3005  -12.9355   20.3353 N   0  0  0  0  0  0
  -25.9323  -11.6508   20.5772 N   0  0  0  0  0  0
  -22.0493  -12.8228   22.0401 N   0  0  0  0  0  0
  -25.4285  -15.1894   20.4088 N   0  0  0  0  0  0
  -31.8559  -14.6304   20.1065 O   0  0  0  0  0  0
  -21.6639   -6.8877   21.4241 O   0  0  0  0  0  0
  -22.3538  -14.5544   20.6696 O   0  0  0  0  0  0
  -24.6174  -31.8667   23.2095 C   0  0  0  0  0  0
  -25.9060  -32.4815   23.8394 C   0  0  1  0  0  0
  -27.2266  -27.4095   20.1032 C   0  0  0  0  0  0
  -25.5908  -33.8614   24.2325 N   0  0  0  0  0  0
  -23.4064  -30.4914   21.5503 C   0  0  2  0  0  0
  -24.8526  -28.9573   20.1124 C   0  0  0  0  0  0
  -22.7424  -29.4658   22.4978 C   0  0  0  0  0  0
  -18.0274  -28.1379   22.8493 C   0  0  0  0  0  0
  -24.1485  -36.7308   23.2639 C   0  0  0  0  0  0
  -25.9385  -30.8244   21.3674 C   0  0  0  0  0  0
  -26.0153  -29.4576   20.7138 C   0  0  0  0  0  0
  -27.2071  -28.6906   20.7080 C   0  0  0  0  0  0
  -26.0497  -26.9396   19.4787 C   0  0  0  0  0  0
  -24.8655  -27.6979   19.4908 C   0  0  0  0  0  0
  -23.6159  -29.8265   20.1641 C   0  0  0  0  0  0
  -25.4106  -36.3107   24.0339 C   0  0  1  0  0  0
  -20.5869  -28.3671   23.1307 C   0  0  2  0  0  0
  -20.6768  -26.9405   22.5412 C   0  0  0  0  0  0
  -19.5745  -26.6388   21.5210 C   0  0  0  0  0  0
  -18.1923  -26.7927   22.1622 C   0  0  0  0  0  0
  -19.1526  -28.8841   23.2899 C   0  0  0  0  0  0
  -18.9453  -30.1446   23.8911 C   0  0  0  0  0  0
  -17.6455  -30.6587   24.0565 C   0  0  0  0  0  0
  -25.9036  -34.9473   23.5128 C   0  0  0  0  0  0
  -16.5345  -29.9088   23.6330 C   0  0  0  0  0  0
  -16.7263  -28.6504   23.0354 C   0  0  0  0  0  0
  -26.4480  -31.6597   25.0727 C   0  0  0  0  0  0
  -25.3742  -31.3698   26.1470 C   0  0  0  0  0  0
  -27.0317  -30.3040   24.6113 C   0  0  0  0  0  0
  -27.6056  -32.4316   25.7488 C   0  0  0  0  0  0
  -27.5577  -37.1810   24.8468 C   0  0  0  0  0  0
  -21.4150  -29.3037   22.3713 N   0  0  0  0  0  0
  -26.4291  -37.3792   23.9410 N   0  0  0  0  0  0
  -24.6725  -31.0752   22.1006 N   0  0  0  0  0  0
  -23.4185  -28.8199   23.3029 O   0  0  0  0  0  0
  -28.3580  -26.6122   20.1212 O   0  0  0  0  0  0
  -26.5597  -34.8925   22.4689 O   0  0  0  0  0  0
  -23.5362  -32.1427   23.7477 O   0  0  0  0  0  0
  -31.8275  -17.0864   21.7879 C   0  0  0  0  0  0
  -32.3187  -18.3811   22.0278 C   0  0  0  0  0  0
  -29.7240  -18.0393   21.0030 C   0  0  0  0  0  0
  -30.5287  -16.8901   21.2626 C   0  0  0  0  0  0
  -30.2272  -19.3584   21.2117 C   0  0  0  0  0  0
  -31.5291  -19.5093   21.7496 C   0  0  0  0  0  0
  -28.1755  -25.2818   20.4734 C   0  0  0  0  0  0
  -29.0521  -24.2844   20.2045 C   0  0  0  0  0  0
  -28.7435  -22.8552   20.6010 C   0  0  0  0  0  0
  -29.7865  -21.6797   20.3815 C   0  0  0  0  0  0
  -29.4121  -20.5177   20.9726 N   0  0  0  0  0  0
  -30.0275  -15.5577   21.0459 N   0  0  0  0  0  0
  -27.6552  -22.5679   21.1194 O   0  0  0  0  0  0
  -30.8053  -21.7837   19.6878 O   0  0  0  0  0  0
  -30.1990  -24.5750   19.5726 O   0  0  0  0  0  0
  -32.0204  -20.7359   22.0517 F   0  0  0  0  0  0
  -31.4614  -12.4054   19.1268 H   0  0  0  0  0  0
  -30.3106  -11.3171   19.8458 H   0  0  0  0  0  0
  -29.7355  -11.7658   17.4389 H   0  0  0  0  0  0
  -29.6568  -13.4805   17.7592 H   0  0  0  0  0  0
  -27.8327  -11.3034   18.8342 H   0  0  0  0  0  0
  -27.3621  -12.6161   17.7888 H   0  0  0  0  0  0
  -27.6898  -14.2553   19.5505 H   0  0  0  0  0  0
  -28.6823  -12.0073   21.3701 H   0  0  0  0  0  0
  -28.4655  -13.6642   21.8507 H   0  0  0  0  0  0
  -25.2762   -9.5683   22.4758 H   0  0  0  0  0  0
  -23.9999   -7.4636   22.7475 H   0  0  0  0  0  0
  -21.0840   -8.8773   19.8955 H   0  0  0  0  0  0
  -22.3697  -10.9671   19.6163 H   0  0  0  0  0  0
  -21.2005   -7.6148   23.9714 H   0  0  0  0  0  0
  -21.1478   -6.0523   25.9077 H   0  0  0  0  0  0
  -22.0601   -2.7609   23.2849 H   0  0  0  0  0  0
  -22.4104  -11.9886   22.4787 H   0  0  0  0  0  0
  -21.1111  -13.1253   22.2606 H   0  0  0  0  0  0
  -24.6606  -15.8438   20.5137 H   0  0  0  0  0  0
  -26.2772  -15.6277   20.0739 H   0  0  0  0  0  0
  -26.7131  -32.5520   23.1157 H   0  0  0  0  0  0
  -25.0070  -33.9774   25.0478 H   0  0  0  0  0  0
  -22.6963  -31.3095   21.4116 H   0  0  0  0  0  0
  -23.3743  -35.9646   23.3318 H   0  0  0  0  0  0
  -24.3577  -36.8903   22.2049 H   0  0  0  0  0  0
  -23.7241  -37.6520   23.6640 H   0  0  0  0  0  0
  -26.0548  -31.5895   20.5986 H   0  0  0  0  0  0
  -26.8252  -30.8768   21.9872 H   0  0  0  0  0  0
  -28.1024  -29.0669   21.1824 H   0  0  0  0  0  0
  -26.0411  -25.9747   18.9915 H   0  0  0  0  0  0
  -23.9737  -27.3079   19.0194 H   0  0  0  0  0  0
  -23.7263  -30.6031   19.4064 H   0  0  0  0  0  0
  -22.7387  -29.2491   19.8662 H   0  0  0  0  0  0
  -25.1283  -36.1973   25.0832 H   0  0  0  0  0  0
  -20.9959  -28.3239   24.1428 H   0  0  0  0  0  0
  -20.5671  -26.2280   23.3603 H   0  0  0  0  0  0
  -21.6638  -26.7452   22.1201 H   0  0  0  0  0  0
  -19.6909  -25.6303   21.1231 H   0  0  0  0  0  0
  -19.6683  -27.3207   20.6748 H   0  0  0  0  0  0
  -17.4194  -26.6677   21.4023 H   0  0  0  0  0  0
  -18.0325  -26.0063   22.9013 H   0  0  0  0  0  0
  -19.7929  -30.7257   24.2289 H   0  0  0  0  0  0
  -17.5012  -31.6270   24.5164 H   0  0  0  0  0  0
  -15.5347  -30.2995   23.7650 H   0  0  0  0  0  0
  -15.8661  -28.0826   22.7068 H   0  0  0  0  0  0
  -24.5922  -30.7041   25.7801 H   0  0  0  0  0  0
  -24.8928  -32.2848   26.4929 H   0  0  0  0  0  0
  -25.8094  -30.8858   27.0223 H   0  0  0  0  0  0
  -26.2866  -29.6793   24.1174 H   0  0  0  0  0  0
  -27.4095  -29.7285   25.4574 H   0  0  0  0  0  0
  -27.8697  -30.4361   23.9264 H   0  0  0  0  0  0
  -27.2681  -33.3610   26.2089 H   0  0  0  0  0  0
  -28.3854  -32.6885   25.0306 H   0  0  0  0  0  0
  -28.0739  -31.8425   26.5383 H   0  0  0  0  0  0
  -28.2608  -38.0096   24.7508 H   0  0  0  0  0  0
  -28.1060  -36.2628   24.6304 H   0  0  0  0  0  0
  -27.2295  -37.1472   25.8872 H   0  0  0  0  0  0
  -20.9314  -29.8756   21.6928 H   0  0  0  0  0  0
  -26.0181  -38.2872   24.1405 H   0  0  0  0  0  0
  -32.4625  -16.2456   22.0281 H   0  0  0  0  0  0
  -33.3064  -18.5119   22.4446 H   0  0  0  0  0  0
  -28.7212  -17.9115   20.6212 H   0  0  0  0  0  0
  -27.2413  -25.1101   20.9950 H   0  0  0  0  0  0
  -28.4730  -20.5226   21.3498 H   0  0  0  0  0  0
  -29.0458  -15.4020   21.2175 H   0  0  0  0  0  0
  -30.1921  -25.5105   19.4130 H   0  0  0  0  0  0
  1 25  1  0  0  0
  1 30  2  0  0  0
  1 82  1  0  0  0
  2  3  1  0  0  0
  2 25  1  0  0  0
  2 87  1  0  0  0
  2 88  1  0  0  0
  3  4  1  0  0  0
  3 89  1  0  0  0
  3 90  1  0  0  0
  4  5  1  0  0  0
  4 91  1  0  0  0
  4 92  1  0  0  0
  5  6  1  0  0  0
  5 26  1  0  0  0
  5 93  1  0  0  0
  6 25  1  0  0  0
  6 94  1  0  0  0
  6 95  1  0  0  0
  7  8  2  0  0  0
  7 26  1  0  0  0
  7 29  1  0  0  0
  8  9  1  0  0  0
  8 22  1  0  0  0
  9 10  1  0  0  0
  9 27  2  0  0  0
 10 11  2  0  0  0
 10 15  1  0  0  0
 11 12  1  0  0  0
 11 96  1  0  0  0
 12 13  2  0  0  0
 12 97  1  0  0  0
 13 14  1  0  0  0
 13 31  1  0  0  0
 14 15  2  0  0  0
 14 98  1  0  0  0
 15 99  1  0  0  0
 16 17  2  0  0  0
 16 21  1  0  0  0
 16 31  1  0  0  0
 17 18  1  0  0  0
 17100  1  0  0  0
 18 19  2  0  0  0
 18101  1  0  0  0
 19 20  1  0  0  0
 19 24  1  0  0  0
 20 21  2  0  0  0
 20102  1  0  0  0
 21 23  1  0  0  0
 22 28  1  0  0  0
 22 32  2  0  0  0
 26 27  1  0  0  0
 28103  1  0  0  0
 28104  1  0  0  0
 29105  1  0  0  0
 29106  1  0  0  0
 33 34  1  0  0  0
 33 66  1  0  0  0
 33 70  2  0  0  0
 34 36  1  0  0  0
 34 59  1  0  0  0
 34107  1  0  0  0
 35 44  2  0  0  0
 35 45  1  0  0  0
 35 68  1  0  0  0
 36 56  1  0  0  0
 36108  1  0  0  0
 37 39  1  0  0  0
 37 47  1  0  0  0
 37 66  1  0  0  0
 37109  1  0  0  0
 38 43  2  0  0  0
 38 46  1  0  0  0
 38 47  1  0  0  0
 39 64  1  0  0  0
 39 67  2  0  0  0
 40 52  1  0  0  0
 40 53  2  0  0  0
 40 58  1  0  0  0
 41110  1  0  0  0
 41111  1  0  0  0
 41112  1  0  0  0
 41 48  1  0  0  0
 42 43  1  0  0  0
 42 66  1  0  0  0
 42113  1  0  0  0
 42114  1  0  0  0
 43 44  1  0  0  0
 44115  1  0  0  0
 45 46  2  0  0  0
 45116  1  0  0  0
 46117  1  0  0  0
 47118  1  0  0  0
 47119  1  0  0  0
 48 56  1  0  0  0
 48 65  1  0  0  0
 48120  1  0  0  0
 49 50  1  0  0  0
 49 53  1  0  0  0
 49 64  1  0  0  0
 49121  1  0  0  0
 50 51  1  0  0  0
 50122  1  0  0  0
 50123  1  0  0  0
 51 52  1  0  0  0
 51124  1  0  0  0
 51125  1  0  0  0
 52126  1  0  0  0
 52127  1  0  0  0
 53 54  1  0  0  0
 54 55  2  0  0  0
 54128  1  0  0  0
 55 57  1  0  0  0
 55129  1  0  0  0
 56 69  2  0  0  0
 57 58  2  0  0  0
 57130  1  0  0  0
 58131  1  0  0  0
 59 60  1  0  0  0
 59 61  1  0  0  0
 59 62  1  0  0  0
 60132  1  0  0  0
 60133  1  0  0  0
 60134  1  0  0  0
 61135  1  0  0  0
 61136  1  0  0  0
 61137  1  0  0  0
 62138  1  0  0  0
 62139  1  0  0  0
 62140  1  0  0  0
 63 65  1  0  0  0
 63141  1  0  0  0
 63142  1  0  0  0
 63143  1  0  0  0
 64144  1  0  0  0
 65145  1  0  0  0
 68 77  1  0  0  0
 71 72  2  0  0  0
 71 74  1  0  0  0
 71146  1  0  0  0
 72 76  1  0  0  0
 72147  1  0  0  0
 73 74  2  0  0  0
 73 75  1  0  0  0
 73148  1  0  0  0
 74 82  1  0  0  0
 75 76  2  0  0  0
 75 81  1  0  0  0
 76 86  1  0  0  0
 77 78  2  0  0  0
 77149  1  0  0  0
 78 79  1  0  0  0
 78 85  1  0  0  0
 79 80  1  0  0  0
 79 83  2  0  0  0
 80 81  1  0  0  0
 80 84  2  0  0  0
 81150  1  0  0  0
 82151  1  0  0  0
 85152  1  0  0  0
M  ISO  4   1 100  68 101  77 101  82 100
M  END
> <chiral flag>
0

> <version>
0

> <s_m_source_file>
/data/baiqing/PycharmProjects/Reinvent-master-3.2/result/LINK_invent/BTK/process_docking_weight1_custom_product_contain_oxygen_bond_distance_aromatic_linkinvent_7_9_3/rearranged_h_0171.sdf

> <i_m_source_file_index>
46

> <r_mmod_Potential_Energy-OPLS-2005>
33.2643356323242

> <r_mmod_Stretch_Energy-OPLS-2005>
50.2734260559082

> <r_mmod_Bend_Energy-OPLS-2005>
100.480781555176

> <r_mmod_Torsional_Energy-OPLS-2005>
235.27018737793

> <r_mmod_Improper_Torsional_Energy-OPLS-2005>
4.49998092651367

> <r_mmod_Van_der_Waal_Energy-OPLS-2005>
166.701690673828

> <r_mmod_Electrostatic_Energy-OPLS-2005>
-304.503662109375

> <r_mmod_Solvation_Energy-OPLS-2005>
-237.876998901367

> <b_mmod_Minimization_Converged-OPLS-2005>
0

> <r_mmod_RMS_Derivative-OPLS-2005>
0.341566652059555

$$$$
46
                    3D
 Structure written by MMmdl.
158166  0  0  1  0            999 V2000
  -30.7158  -14.6092   20.5830 C   0  0  0  0  0  0
  -30.4009  -12.4083   19.4801 C   0  0  0  0  0  0
  -29.4990  -12.4856   18.2350 C   0  0  0  0  0  0
  -28.0214  -12.3211   18.6393 C   0  0  0  0  0  0
  -27.6257  -13.2182   19.8441 C   0  0  2  0  0  0
  -28.6577  -13.1623   20.9870 C   0  0  0  0  0  0
  -25.2505  -13.8183   20.5757 C   0  0  0  0  0  0
  -24.1757  -13.0420   20.9206 C   0  0  0  0  0  0
  -24.6333  -11.6893   20.8737 C   0  0  0  0  0  0
  -23.9033  -10.4278   21.0421 C   0  0  0  0  0  0
  -24.3608   -9.4179   21.9174 C   0  0  0  0  0  0
  -23.6276   -8.2217   22.0741 C   0  0  0  0  0  0
  -22.4251   -8.0272   21.3546 C   0  0  0  0  0  0
  -21.9901   -9.0246   20.4646 C   0  0  0  0  0  0
  -22.7230  -10.2117   20.3047 C   0  0  0  0  0  0
  -21.6837   -6.0727   22.5295 C   0  0  0  0  0  0
  -21.3996   -6.5641   23.8229 C   0  0  0  0  0  0
  -21.3650   -5.6788   24.9200 C   0  0  0  0  0  0
  -21.6051   -4.3050   24.7233 C   0  0  0  0  0  0
  -21.8820   -3.8155   23.4348 C   0  0  0  0  0  0
  -21.9176   -4.6965   22.3415 C   0  0  0  0  0  0
  -22.7802  -13.5243   21.1884 C   0  0  0  0  0  0
  -22.1649   -4.2157   21.0986 F   0  0  0  0  0  0
  -21.5630   -3.4534   25.7744 F   0  0  0  0  0  0
  -29.9641  -13.4768   20.4067 N   0  0  0  0  0  0
  -26.2812  -12.9314   20.3225 N   0  0  0  0  0  0
  -25.9233  -11.6476   20.5696 N   0  0  0  0  0  0
  -22.0465  -12.8200   22.0431 N   0  0  0  0  0  0
  -25.4417  -15.1895   20.4377 N   0  0  0  0  0  0
  -31.8996  -14.5856   20.2663 O   0  0  0  0  0  0
  -21.6604   -6.8867   21.4247 O   0  0  0  0  0  0
  -22.3498  -14.5540   20.6722 O   0  0  0  0  0  0
  -24.6419  -31.8631   23.2025 C   0  0  0  0  0  0
  -25.9271  -32.4842   23.8347 C   0  0  1  0  0  0
  -27.1983  -27.3077   20.0672 C   0  0  0  0  0  0
  -25.6028  -33.8644   24.2253 N   0  0  0  0  0  0
  -23.4297  -30.4906   21.5605 C   0  0  2  0  0  0
  -24.8576  -28.9522   20.1217 C   0  0  0  0  0  0
  -22.7551  -29.4641   22.5004 C   0  0  0  0  0  0
  -18.0322  -28.1414   22.8472 C   0  0  0  0  0  0
  -24.1479  -36.7290   23.2620 C   0  0  0  0  0  0
  -25.9764  -30.7839   21.3752 C   0  0  0  0  0  0
  -26.0419  -29.4123   20.7120 C   0  0  0  0  0  0
  -27.2207  -28.6034   20.6762 C   0  0  0  0  0  0
  -25.9665  -26.8934   19.5004 C   0  0  0  0  0  0
  -24.8190  -27.6922   19.5162 C   0  0  0  0  0  0
  -23.6382  -29.8457   20.1725 C   0  0  0  0  0  0
  -25.4119  -36.3137   24.0299 C   0  0  1  0  0  0
  -20.5921  -28.3715   23.1235 C   0  0  2  0  0  0
  -20.6796  -26.9437   22.5370 C   0  0  0  0  0  0
  -19.5767  -26.6404   21.5172 C   0  0  0  0  0  0
  -18.1964  -26.7957   22.1603 C   0  0  0  0  0  0
  -19.1574  -28.8880   23.2850 C   0  0  0  0  0  0
  -18.9481  -30.1481   23.8860 C   0  0  0  0  0  0
  -17.6473  -30.6590   24.0581 C   0  0  0  0  0  0
  -25.9090  -34.9530   23.5062 C   0  0  0  0  0  0
  -16.5366  -29.9092   23.6344 C   0  0  0  0  0  0
  -16.7307  -28.6532   23.0326 C   0  0  0  0  0  0
  -26.4636  -31.6658   25.0751 C   0  0  0  0  0  0
  -25.3816  -31.3752   26.1400 C   0  0  0  0  0  0
  -27.0347  -30.3031   24.6207 C   0  0  0  0  0  0
  -27.6192  -32.4393   25.7551 C   0  0  0  0  0  0
  -27.5556  -37.1805   24.8461 C   0  0  0  0  0  0
  -21.4273  -29.3054   22.3675 N   0  0  0  0  0  0
  -26.4282  -37.3843   23.9413 N   0  0  0  0  0  0
  -24.7044  -31.0591   22.1033 N   0  0  0  0  0  0
  -23.4229  -28.8169   23.3124 O   0  0  0  0  0  0
  -28.2837  -26.4133   20.0372 O   0  0  0  0  0  0
  -26.5641  -34.9010   22.4628 O   0  0  0  0  0  0
  -23.5592  -32.1436   23.7329 O   0  0  0  0  0  0
  -29.1043  -19.3226   20.2466 C   0  0  0  0  0  0
  -30.9054  -20.9612   20.2615 C   0  0  0  0  0  0
  -30.0310  -18.2154   20.3068 C   0  0  0  0  0  0
  -31.4210  -18.5612   20.1888 C   0  0  0  0  0  0
  -29.5222  -20.7012   20.2140 C   0  0  0  0  0  0
  -31.8319  -19.9135   20.2382 C   0  0  0  0  0  0
  -28.2163  -25.3980   19.0687 C   0  0  0  0  0  0
  -29.5239  -16.7473   20.3226 C   0  0  0  0  0  0
  -28.3464  -24.0259   19.0941 C   0  0  0  0  0  0
  -28.7880  -23.1520   20.2125 C   0  0  0  0  0  0
  -33.4385  -17.1750   20.9866 C   0  0  0  0  0  0
  -32.5179  -17.5670   19.8244 C   0  0  0  0  0  0
  -28.6205  -21.8125   19.9526 N   0  0  0  0  0  0
  -30.1997  -15.7982   21.0401 N   0  0  0  0  0  0
  -28.4636  -16.4915   19.7476 O   0  0  0  0  0  0
  -29.2600  -23.5532   21.2762 O   0  0  0  0  0  0
  -28.0528  -23.3940   17.9406 O   0  0  0  0  0  0
  -33.1505  -20.2242   20.1772 F   0  0  0  0  0  0
  -31.4494  -12.5000   19.1855 H   0  0  0  0  0  0
  -30.3169  -11.4342   19.9635 H   0  0  0  0  0  0
  -29.7774  -11.7091   17.5210 H   0  0  0  0  0  0
  -29.6552  -13.4396   17.7295 H   0  0  0  0  0  0
  -27.8687  -11.2735   18.8944 H   0  0  0  0  0  0
  -27.3708  -12.5235   17.7883 H   0  0  0  0  0  0
  -27.6122  -14.2308   19.4517 H   0  0  0  0  0  0
  -28.6613  -12.1742   21.4493 H   0  0  0  0  0  0
  -28.3908  -13.8674   21.7748 H   0  0  0  0  0  0
  -25.2766   -9.5623   22.4735 H   0  0  0  0  0  0
  -23.9983   -7.4596   22.7429 H   0  0  0  0  0  0
  -21.0843   -8.8773   19.8956 H   0  0  0  0  0  0
  -22.3719  -10.9640   19.6154 H   0  0  0  0  0  0
  -21.1977   -7.6149   23.9742 H   0  0  0  0  0  0
  -21.1478   -6.0514   25.9098 H   0  0  0  0  0  0
  -22.0600   -2.7612   23.2853 H   0  0  0  0  0  0
  -22.4100  -11.9874   22.4793 H   0  0  0  0  0  0
  -21.1099  -13.1221   22.2647 H   0  0  0  0  0  0
  -24.7299  -15.8760   20.6599 H   0  0  0  0  0  0
  -26.3330  -15.6102   20.1866 H   0  0  0  0  0  0
  -26.7363  -32.5552   23.1113 H   0  0  0  0  0  0
  -25.0221  -33.9791   25.0423 H   0  0  0  0  0  0
  -22.7280  -31.3164   21.4303 H   0  0  0  0  0  0
  -23.3768  -35.9605   23.3327 H   0  0  0  0  0  0
  -24.3519  -36.8887   22.2022 H   0  0  0  0  0  0
  -23.7212  -37.6489   23.6627 H   0  0  0  0  0  0
  -26.1083  -31.5438   20.6046 H   0  0  0  0  0  0
  -26.8584  -30.8306   22.0059 H   0  0  0  0  0  0
  -28.1368  -28.9568   21.1267 H   0  0  0  0  0  0
  -25.8387  -25.9239   19.0441 H   0  0  0  0  0  0
  -23.9041  -27.3158   19.0817 H   0  0  0  0  0  0
  -23.7855  -30.6356   19.4318 H   0  0  0  0  0  0
  -22.7457  -29.3019   19.8569 H   0  0  0  0  0  0
  -25.1312  -36.1954   25.0781 H   0  0  0  0  0  0
  -21.0006  -28.3266   24.1349 H   0  0  0  0  0  0
  -20.5664  -26.2334   23.3585 H   0  0  0  0  0  0
  -21.6666  -26.7464   22.1151 H   0  0  0  0  0  0
  -19.6916  -25.6305   21.1233 H   0  0  0  0  0  0
  -19.6696  -27.3182   20.6666 H   0  0  0  0  0  0
  -17.4219  -26.6714   21.4030 H   0  0  0  0  0  0
  -18.0372  -26.0116   22.9008 H   0  0  0  0  0  0
  -19.7952  -30.7343   24.2179 H   0  0  0  0  0  0
  -17.5025  -31.6261   24.5219 H   0  0  0  0  0  0
  -15.5363  -30.2984   23.7658 H   0  0  0  0  0  0
  -15.8727  -28.0858   22.6977 H   0  0  0  0  0  0
  -24.6061  -30.7096   25.7584 H   0  0  0  0  0  0
  -24.8935  -32.2863   26.4838 H   0  0  0  0  0  0
  -25.8053  -30.8861   27.0170 H   0  0  0  0  0  0
  -26.2777  -29.6908   24.1268 H   0  0  0  0  0  0
  -27.3928  -29.7271   25.4753 H   0  0  0  0  0  0
  -27.8802  -30.4156   23.9425 H   0  0  0  0  0  0
  -27.2795  -33.3708   26.2086 H   0  0  0  0  0  0
  -28.4019  -32.6930   25.0398 H   0  0  0  0  0  0
  -28.0878  -31.8578   26.5508 H   0  0  0  0  0  0
  -28.2612  -38.0065   24.7522 H   0  0  0  0  0  0
  -28.1039  -36.2621   24.6290 H   0  0  0  0  0  0
  -27.2286  -37.1417   25.8867 H   0  0  0  0  0  0
  -20.9507  -29.8834   21.6896 H   0  0  0  0  0  0
  -26.0182  -38.2927   24.1439 H   0  0  0  0  0  0
  -28.0477  -19.1004   20.1620 H   0  0  0  0  0  0
  -31.2828  -21.9732   20.2028 H   0  0  0  0  0  0
  -27.9534  -25.8463   18.1190 H   0  0  0  0  0  0
  -34.0458  -16.3134   20.7052 H   0  0  0  0  0  0
  -32.8886  -16.9138   21.8896 H   0  0  0  0  0  0
  -34.1230  -17.9887   21.2292 H   0  0  0  0  0  0
  -33.1477  -18.0164   19.0538 H   0  0  0  0  0  0
  -32.0987  -16.7181   19.3006 H   0  0  0  0  0  0
  -27.9598  -21.6473   19.2035 H   0  0  0  0  0  0
  -30.9078  -16.2825   21.5664 H   0  0  0  0  0  0
  -27.7764  -24.0444   17.3078 H   0  0  0  0  0  0
  1 25  1  0  0  0
  1 30  2  0  0  0
  1 84  1  0  0  0
  2  3  1  0  0  0
  2 25  1  0  0  0
  2 89  1  0  0  0
  2 90  1  0  0  0
  3  4  1  0  0  0
  3 91  1  0  0  0
  3 92  1  0  0  0
  4  5  1  0  0  0
  4 93  1  0  0  0
  4 94  1  0  0  0
  5  6  1  0  0  0
  5 26  1  0  0  0
  5 95  1  0  0  0
  6 25  1  0  0  0
  6 96  1  0  0  0
  6 97  1  0  0  0
  7  8  2  0  0  0
  7 26  1  0  0  0
  7 29  1  0  0  0
  8  9  1  0  0  0
  8 22  1  0  0  0
  9 10  1  0  0  0
  9 27  2  0  0  0
 10 11  2  0  0  0
 10 15  1  0  0  0
 11 12  1  0  0  0
 11 98  1  0  0  0
 12 13  2  0  0  0
 12 99  1  0  0  0
 13 14  1  0  0  0
 13 31  1  0  0  0
 14 15  2  0  0  0
 14100  1  0  0  0
 15101  1  0  0  0
 16 17  2  0  0  0
 16 21  1  0  0  0
 16 31  1  0  0  0
 17 18  1  0  0  0
 17102  1  0  0  0
 18 19  2  0  0  0
 18103  1  0  0  0
 19 20  1  0  0  0
 19 24  1  0  0  0
 20 21  2  0  0  0
 20104  1  0  0  0
 21 23  1  0  0  0
 22 28  1  0  0  0
 22 32  2  0  0  0
 26 27  1  0  0  0
 28105  1  0  0  0
 28106  1  0  0  0
 29107  1  0  0  0
 29108  1  0  0  0
 33 34  1  0  0  0
 33 66  1  0  0  0
 33 70  2  0  0  0
 34 36  1  0  0  0
 34 59  1  0  0  0
 34109  1  0  0  0
 35 44  2  0  0  0
 35 45  1  0  0  0
 35 68  1  0  0  0
 36 56  1  0  0  0
 36110  1  0  0  0
 37 39  1  0  0  0
 37 47  1  0  0  0
 37 66  1  0  0  0
 37111  1  0  0  0
 38 43  2  0  0  0
 38 46  1  0  0  0
 38 47  1  0  0  0
 39 64  1  0  0  0
 39 67  2  0  0  0
 40 52  1  0  0  0
 40 53  2  0  0  0
 40 58  1  0  0  0
 41112  1  0  0  0
 41113  1  0  0  0
 41114  1  0  0  0
 41 48  1  0  0  0
 42 43  1  0  0  0
 42 66  1  0  0  0
 42115  1  0  0  0
 42116  1  0  0  0
 43 44  1  0  0  0
 44117  1  0  0  0
 45 46  2  0  0  0
 45118  1  0  0  0
 46119  1  0  0  0
 47120  1  0  0  0
 47121  1  0  0  0
 48 56  1  0  0  0
 48 65  1  0  0  0
 48122  1  0  0  0
 49 50  1  0  0  0
 49 53  1  0  0  0
 49 64  1  0  0  0
 49123  1  0  0  0
 50 51  1  0  0  0
 50124  1  0  0  0
 50125  1  0  0  0
 51 52  1  0  0  0
 51126  1  0  0  0
 51127  1  0  0  0
 52128  1  0  0  0
 52129  1  0  0  0
 53 54  1  0  0  0
 54 55  2  0  0  0
 54130  1  0  0  0
 55 57  1  0  0  0
 55131  1  0  0  0
 56 69  2  0  0  0
 57 58  2  0  0  0
 57132  1  0  0  0
 58133  1  0  0  0
 59 60  1  0  0  0
 59 61  1  0  0  0
 59 62  1  0  0  0
 60134  1  0  0  0
 60135  1  0  0  0
 60136  1  0  0  0
 61137  1  0  0  0
 61138  1  0  0  0
 61139  1  0  0  0
 62140  1  0  0  0
 62141  1  0  0  0
 62142  1  0  0  0
 63 65  1  0  0  0
 63143  1  0  0  0
 63144  1  0  0  0
 63145  1  0  0  0
 64146  1  0  0  0
 65147  1  0  0  0
 68 77  1  0  0  0
 71 73  2  0  0  0
 71 75  1  0  0  0
 71148  1  0  0  0
 72 75  2  0  0  0
 72 76  1  0  0  0
 72149  1  0  0  0
 73 74  1  0  0  0
 73 78  1  0  0  0
 74 76  2  0  0  0
 74 82  1  0  0  0
 75 83  1  0  0  0
 76 88  1  0  0  0
 77 79  2  0  0  0
 77150  1  0  0  0
 78 84  1  0  0  0
 78 85  2  0  0  0
 79 80  1  0  0  0
 79 87  1  0  0  0
 80 83  1  0  0  0
 80 86  2  0  0  0
 81 82  1  0  0  0
 81151  1  0  0  0
 81152  1  0  0  0
 81153  1  0  0  0
 82154  1  0  0  0
 82155  1  0  0  0
 83156  1  0  0  0
 84157  1  0  0  0
 87158  1  0  0  0
M  ISO  4   1 100  68 101  77 101  84 100
M  END
> <chiral flag>
0

> <version>
0

> <s_m_source_file>
/data/baiqing/PycharmProjects/Reinvent-master-3.2/result/LINK_invent/BTK/process_docking_weight1_custom_product_contain_oxygen_bond_distance_aromatic_linkinvent_7_9_3/rearranged_h_0171.sdf

> <i_m_source_file_index>
47

> <r_mmod_Potential_Energy-OPLS-2005>
102.14363861084

> <r_mmod_Stretch_Energy-OPLS-2005>
78.2867660522461

> <r_mmod_Bend_Energy-OPLS-2005>
181.992340087891

> <r_mmod_Torsional_Energy-OPLS-2005>
343.985565185547

> <r_mmod_Improper_Torsional_Energy-OPLS-2005>
10.9332695007324

> <r_mmod_Van_der_Waal_Energy-OPLS-2005>
168.043792724609

> <r_mmod_Electrostatic_Energy-OPLS-2005>
-526.618347167969

> <r_mmod_Solvation_Energy-OPLS-2005>
-217.483383178711

> <b_mmod_Minimization_Converged-OPLS-2005>
0

> <r_mmod_RMS_Derivative-OPLS-2005>
6.25219202041626

$$$$
47
                    3D
 Structure written by MMmdl.
164172  0  0  1  0            999 V2000
  -30.7190  -14.4158   20.5739 C   0  0  0  0  0  0
  -30.4172  -12.2741   19.4123 C   0  0  0  0  0  0
  -29.4885  -12.5035   18.2023 C   0  0  0  0  0  0
  -28.0110  -12.3632   18.6170 C   0  0  0  0  0  0
  -27.6632  -13.1934   19.8805 C   0  0  2  0  0  0
  -28.7052  -12.9603   20.9995 C   0  0  0  0  0  0
  -25.2612  -13.8133   20.5674 C   0  0  0  0  0  0
  -24.1849  -13.0434   20.9177 C   0  0  0  0  0  0
  -24.6379  -11.6894   20.8749 C   0  0  0  0  0  0
  -23.9040  -10.4291   21.0419 C   0  0  0  0  0  0
  -24.3594   -9.4211   21.9198 C   0  0  0  0  0  0
  -23.6275   -8.2244   22.0766 C   0  0  0  0  0  0
  -22.4259   -8.0282   21.3551 C   0  0  0  0  0  0
  -21.9896   -9.0252   20.4650 C   0  0  0  0  0  0
  -22.7217  -10.2136   20.3064 C   0  0  0  0  0  0
  -21.6842   -6.0734   22.5274 C   0  0  0  0  0  0
  -21.4009   -6.5639   23.8207 C   0  0  0  0  0  0
  -21.3659   -5.6794   24.9173 C   0  0  0  0  0  0
  -21.6044   -4.3056   24.7224 C   0  0  0  0  0  0
  -21.8822   -3.8151   23.4343 C   0  0  0  0  0  0
  -21.9189   -4.6966   22.3399 C   0  0  0  0  0  0
  -22.7876  -13.5257   21.1832 C   0  0  0  0  0  0
  -22.1659   -4.2154   21.0974 F   0  0  0  0  0  0
  -21.5632   -3.4542   25.7738 F   0  0  0  0  0  0
  -30.0428  -13.2454   20.4490 N   0  0  0  0  0  0
  -26.3028  -12.9268   20.3387 N   0  0  0  0  0  0
  -25.9298  -11.6444   20.5783 N   0  0  0  0  0  0
  -22.0504  -12.8250   22.0382 N   0  0  0  0  0  0
  -25.4366  -15.1845   20.4059 N   0  0  0  0  0  0
  -31.8449  -14.6066   20.1046 O   0  0  0  0  0  0
  -21.6629   -6.8876   21.4235 O   0  0  0  0  0  0
  -22.3575  -14.5570   20.6685 O   0  0  0  0  0  0
  -24.6105  -31.8698   23.2114 C   0  0  0  0  0  0
  -25.9018  -32.4826   23.8404 C   0  0  1  0  0  0
  -27.2432  -27.4728   20.0797 C   0  0  0  0  0  0
  -25.5888  -33.8627   24.2330 N   0  0  0  0  0  0
  -23.3956  -30.4924   21.5519 C   0  0  2  0  0  0
  -24.8413  -28.9586   20.1165 C   0  0  0  0  0  0
  -22.7375  -29.4666   22.5010 C   0  0  0  0  0  0
  -18.0263  -28.1370   22.8506 C   0  0  0  0  0  0
  -24.1478  -36.7318   23.2636 C   0  0  0  0  0  0
  -25.9198  -30.8437   21.3604 C   0  0  0  0  0  0
  -25.9962  -29.4795   20.7108 C   0  0  0  0  0  0
  -27.1953  -28.7402   20.6944 C   0  0  0  0  0  0
  -26.0671  -26.9503   19.4912 C   0  0  0  0  0  0
  -24.8691  -27.6903   19.5090 C   0  0  0  0  0  0
  -23.6008  -29.8203   20.1670 C   0  0  0  0  0  0
  -25.4096  -36.3112   24.0339 C   0  0  1  0  0  0
  -20.5850  -28.3657   23.1329 C   0  0  2  0  0  0
  -20.6748  -26.9397   22.5419 C   0  0  0  0  0  0
  -19.5725  -26.6381   21.5216 C   0  0  0  0  0  0
  -18.1904  -26.7922   22.1625 C   0  0  0  0  0  0
  -19.1513  -28.8829   23.2916 C   0  0  0  0  0  0
  -18.9444  -30.1438   23.8921 C   0  0  0  0  0  0
  -17.6448  -30.6585   24.0567 C   0  0  0  0  0  0
  -25.9036  -34.9481   23.5133 C   0  0  0  0  0  0
  -16.5340  -29.9086   23.6328 C   0  0  0  0  0  0
  -16.7257  -28.6500   23.0358 C   0  0  0  0  0  0
  -26.4462  -31.6601   25.0726 C   0  0  0  0  0  0
  -25.3743  -31.3690   26.1480 C   0  0  0  0  0  0
  -27.0295  -30.3051   24.6088 C   0  0  0  0  0  0
  -27.6041  -32.4316   25.7485 C   0  0  0  0  0  0
  -27.5594  -37.1787   24.8445 C   0  0  0  0  0  0
  -21.4111  -29.3029   22.3741 N   0  0  0  0  0  0
  -26.4274  -37.3807   23.9439 N   0  0  0  0  0  0
  -24.6599  -31.0823   22.1003 N   0  0  0  0  0  0
  -23.4161  -28.8214   23.3044 O   0  0  0  0  0  0
  -28.4527  -26.8194   20.0820 O   0  0  0  0  0  0
  -26.5599  -34.8931   22.4695 O   0  0  0  0  0  0
  -23.5312  -32.1444   23.7531 O   0  0  0  0  0  0
  -30.5428  -19.3157   19.5678 C   0  0  0  0  0  0
  -29.7376  -18.3832   18.8908 C   0  0  0  0  0  0
  -31.1522  -18.9796   20.8007 C   0  0  0  0  0  0
  -30.1718  -16.7374   20.6371 C   0  0  0  0  0  0
  -29.5493  -17.0984   19.4235 C   0  0  0  0  0  0
  -30.9594  -17.6816   21.3317 C   0  0  0  0  0  0
  -31.4961  -22.2474   20.8229 C   0  0  0  0  0  0
  -30.0063  -25.0590   19.5768 C   0  0  0  0  0  0
  -34.9155  -20.5354   21.6292 C   0  0  0  0  0  0
  -31.4996  -23.0702   19.5273 C   0  0  0  0  0  0
  -28.5594  -25.5489   19.4510 C   0  0  0  0  0  0
  -33.7667  -21.5534   21.6705 C   0  0  0  0  0  0
  -32.5133  -21.0881   20.9048 C   0  0  1  0  0  0
  -30.0235  -15.4157   21.1227 N   0  0  0  0  0  0
  -31.9479  -19.8851   21.5225 N   0  0  0  0  0  0
  -30.2234  -23.7629   19.3398 N   0  0  0  0  0  0
  -30.7029  -22.5066   21.7356 O   0  0  0  0  0  0
  -30.9151  -25.8334   19.8921 O   0  0  0  0  0  0
  -28.7875  -16.2027   18.7511 F   0  0  0  0  0  0
  -31.5482  -17.3419   22.5070 F   0  0  0  0  0  0
  -31.4619  -12.3643   19.1100 H   0  0  0  0  0  0
  -30.3058  -11.2586   19.7948 H   0  0  0  0  0  0
  -29.7233  -11.7940   17.4084 H   0  0  0  0  0  0
  -29.6588  -13.4979   17.7859 H   0  0  0  0  0  0
  -27.8188  -11.3064   18.8054 H   0  0  0  0  0  0
  -27.3592  -12.6473   17.7901 H   0  0  0  0  0  0
  -27.7087  -14.2409   19.5933 H   0  0  0  0  0  0
  -28.6681  -11.9247   21.3405 H   0  0  0  0  0  0
  -28.4737  -13.5609   21.8800 H   0  0  0  0  0  0
  -25.2739   -9.5688   22.4781 H   0  0  0  0  0  0
  -23.9981   -7.4638   22.7489 H   0  0  0  0  0  0
  -21.0832   -8.8768   19.8948 H   0  0  0  0  0  0
  -22.3678  -10.9681   19.6179 H   0  0  0  0  0  0
  -21.2001   -7.6148   23.9710 H   0  0  0  0  0  0
  -21.1480   -6.0528   25.9074 H   0  0  0  0  0  0
  -22.0605   -2.7612   23.2841 H   0  0  0  0  0  0
  -22.4098  -11.9898   22.4759 H   0  0  0  0  0  0
  -21.1131  -13.1299   22.2582 H   0  0  0  0  0  0
  -24.6697  -15.8414   20.5038 H   0  0  0  0  0  0
  -26.2850  -15.6150   20.0588 H   0  0  0  0  0  0
  -26.7097  -32.5546   23.1178 H   0  0  0  0  0  0
  -25.0034  -33.9796   25.0470 H   0  0  0  0  0  0
  -22.6830  -31.3077   21.4119 H   0  0  0  0  0  0
  -23.3771  -35.9612   23.3209 H   0  0  0  0  0  0
  -24.3593  -36.9034   22.2069 H   0  0  0  0  0  0
  -23.7174  -37.6469   23.6714 H   0  0  0  0  0  0
  -26.0270  -31.6091   20.5904 H   0  0  0  0  0  0
  -26.8106  -30.8985   21.9747 H   0  0  0  0  0  0
  -28.0912  -29.1444   21.1451 H   0  0  0  0  0  0
  -26.0561  -25.9828   19.0105 H   0  0  0  0  0  0
  -23.9792  -27.2815   19.0503 H   0  0  0  0  0  0
  -23.7018  -30.5929   19.4038 H   0  0  0  0  0  0
  -22.7265  -29.2347   19.8767 H   0  0  0  0  0  0
  -25.1256  -36.1969   25.0826 H   0  0  0  0  0  0
  -20.9951  -28.3225   24.1445 H   0  0  0  0  0  0
  -20.5654  -26.2262   23.3602 H   0  0  0  0  0  0
  -21.6619  -26.7429   22.1215 H   0  0  0  0  0  0
  -19.6880  -25.6300   21.1224 H   0  0  0  0  0  0
  -19.6661  -27.3207   20.6759 H   0  0  0  0  0  0
  -17.4178  -26.6700   21.4020 H   0  0  0  0  0  0
  -18.0283  -26.0049   22.9000 H   0  0  0  0  0  0
  -19.7922  -30.7248   24.2296 H   0  0  0  0  0  0
  -17.5004  -31.6266   24.5168 H   0  0  0  0  0  0
  -15.5344  -30.2998   23.7627 H   0  0  0  0  0  0
  -15.8661  -28.0818   22.7069 H   0  0  0  0  0  0
  -24.5883  -30.7081   25.7802 H   0  0  0  0  0  0
  -24.8980  -32.2845   26.5001 H   0  0  0  0  0  0
  -25.8103  -30.8785   27.0193 H   0  0  0  0  0  0
  -26.2830  -29.6794   24.1177 H   0  0  0  0  0  0
  -27.4114  -29.7297   25.4533 H   0  0  0  0  0  0
  -27.8640  -30.4377   23.9193 H   0  0  0  0  0  0
  -27.2681  -33.3635   26.2046 H   0  0  0  0  0  0
  -28.3867  -32.6842   25.0319 H   0  0  0  0  0  0
  -28.0686  -31.8443   26.5417 H   0  0  0  0  0  0
  -28.2526  -38.0172   24.7635 H   0  0  0  0  0  0
  -28.1181  -36.2713   24.6088 H   0  0  0  0  0  0
  -27.2335  -37.1220   25.8847 H   0  0  0  0  0  0
  -20.9260  -29.8770   21.6986 H   0  0  0  0  0  0
  -26.0157  -38.2861   24.1537 H   0  0  0  0  0  0
  -30.6650  -20.2847   19.1141 H   0  0  0  0  0  0
  -29.2709  -18.6513   17.9544 H   0  0  0  0  0  0
  -35.8002  -20.9315   22.1285 H   0  0  0  0  0  0
  -35.1955  -20.2966   20.6027 H   0  0  0  0  0  0
  -34.6452  -19.6040   22.1276 H   0  0  0  0  0  0
  -31.6628  -22.4082   18.6768 H   0  0  0  0  0  0
  -32.3460  -23.7582   19.5507 H   0  0  0  0  0  0
  -27.8920  -24.8306   19.9306 H   0  0  0  0  0  0
  -28.3007  -25.6175   18.3934 H   0  0  0  0  0  0
  -34.1285  -22.4899   21.2406 H   0  0  0  0  0  0
  -33.5142  -21.7817   22.7080 H   0  0  0  0  0  0
  -32.8219  -20.8308   19.8902 H   0  0  0  0  0  0
  -29.1070  -15.1628   21.4563 H   0  0  0  0  0  0
  -32.3399  -19.5648   22.4018 H   0  0  0  0  0  0
  -29.4222  -23.1891   19.1140 H   0  0  0  0  0  0
  1 25  1  0  0  0
  1 30  2  0  0  0
  1 84  1  0  0  0
  2  3  1  0  0  0
  2 25  1  0  0  0
  2 91  1  0  0  0
  2 92  1  0  0  0
  3  4  1  0  0  0
  3 93  1  0  0  0
  3 94  1  0  0  0
  4  5  1  0  0  0
  4 95  1  0  0  0
  4 96  1  0  0  0
  5  6  1  0  0  0
  5 26  1  0  0  0
  5 97  1  0  0  0
  6 25  1  0  0  0
  6 98  1  0  0  0
  6 99  1  0  0  0
  7  8  2  0  0  0
  7 26  1  0  0  0
  7 29  1  0  0  0
  8  9  1  0  0  0
  8 22  1  0  0  0
  9 10  1  0  0  0
  9 27  2  0  0  0
 10 11  2  0  0  0
 10 15  1  0  0  0
 11 12  1  0  0  0
 11100  1  0  0  0
 12 13  2  0  0  0
 12101  1  0  0  0
 13 14  1  0  0  0
 13 31  1  0  0  0
 14 15  2  0  0  0
 14102  1  0  0  0
 15103  1  0  0  0
 16 17  2  0  0  0
 16 21  1  0  0  0
 16 31  1  0  0  0
 17 18  1  0  0  0
 17104  1  0  0  0
 18 19  2  0  0  0
 18105  1  0  0  0
 19 20  1  0  0  0
 19 24  1  0  0  0
 20 21  2  0  0  0
 20106  1  0  0  0
 21 23  1  0  0  0
 22 28  1  0  0  0
 22 32  2  0  0  0
 26 27  1  0  0  0
 28107  1  0  0  0
 28108  1  0  0  0
 29109  1  0  0  0
 29110  1  0  0  0
 33 34  1  0  0  0
 33 66  1  0  0  0
 33 70  2  0  0  0
 34 36  1  0  0  0
 34 59  1  0  0  0
 34111  1  0  0  0
 35 44  2  0  0  0
 35 45  1  0  0  0
 35 68  1  0  0  0
 36 56  1  0  0  0
 36112  1  0  0  0
 37 39  1  0  0  0
 37 47  1  0  0  0
 37 66  1  0  0  0
 37113  1  0  0  0
 38 43  2  0  0  0
 38 46  1  0  0  0
 38 47  1  0  0  0
 39 64  1  0  0  0
 39 67  2  0  0  0
 40 52  1  0  0  0
 40 53  2  0  0  0
 40 58  1  0  0  0
 41114  1  0  0  0
 41115  1  0  0  0
 41116  1  0  0  0
 41 48  1  0  0  0
 42 43  1  0  0  0
 42 66  1  0  0  0
 42117  1  0  0  0
 42118  1  0  0  0
 43 44  1  0  0  0
 44119  1  0  0  0
 45 46  2  0  0  0
 45120  1  0  0  0
 46121  1  0  0  0
 47122  1  0  0  0
 47123  1  0  0  0
 48 56  1  0  0  0
 48 65  1  0  0  0
 48124  1  0  0  0
 49 50  1  0  0  0
 49 53  1  0  0  0
 49 64  1  0  0  0
 49125  1  0  0  0
 50 51  1  0  0  0
 50126  1  0  0  0
 50127  1  0  0  0
 51 52  1  0  0  0
 51128  1  0  0  0
 51129  1  0  0  0
 52130  1  0  0  0
 52131  1  0  0  0
 53 54  1  0  0  0
 54 55  2  0  0  0
 54132  1  0  0  0
 55 57  1  0  0  0
 55133  1  0  0  0
 56 69  2  0  0  0
 57 58  2  0  0  0
 57134  1  0  0  0
 58135  1  0  0  0
 59 60  1  0  0  0
 59 61  1  0  0  0
 59 62  1  0  0  0
 60136  1  0  0  0
 60137  1  0  0  0
 60138  1  0  0  0
 61139  1  0  0  0
 61140  1  0  0  0
 61141  1  0  0  0
 62142  1  0  0  0
 62143  1  0  0  0
 62144  1  0  0  0
 63 65  1  0  0  0
 63145  1  0  0  0
 63146  1  0  0  0
 63147  1  0  0  0
 64148  1  0  0  0
 65149  1  0  0  0
 68 81  1  0  0  0
 71 72  2  0  0  0
 71 73  1  0  0  0
 71150  1  0  0  0
 72 75  1  0  0  0
 72151  1  0  0  0
 73 76  2  0  0  0
 73 85  1  0  0  0
 74 75  2  0  0  0
 74 76  1  0  0  0
 74 84  1  0  0  0
 75 89  1  0  0  0
 76 90  1  0  0  0
 77 80  1  0  0  0
 77 83  1  0  0  0
 77 87  2  0  0  0
 78 81  1  0  0  0
 78 86  1  0  0  0
 78 88  2  0  0  0
 79 82  1  0  0  0
 79152  1  0  0  0
 79153  1  0  0  0
 79154  1  0  0  0
 80 86  1  0  0  0
 80155  1  0  0  0
 80156  1  0  0  0
 81157  1  0  0  0
 81158  1  0  0  0
 82159  1  0  0  0
 82160  1  0  0  0
 82 83  1  0  0  0
 83 85  1  0  0  0
 83161  1  0  0  0
 84162  1  0  0  0
 85163  1  0  0  0
 86164  1  0  0  0
M  ISO  4   1 100  68 101  81 101  84 100
M  END
> <chiral flag>
0

> <version>
0

> <s_m_source_file>
/data/baiqing/PycharmProjects/Reinvent-master-3.2/result/LINK_invent/BTK/process_docking_weight1_custom_product_contain_oxygen_bond_distance_aromatic_linkinvent_7_9_3/rearranged_h_0171.sdf

> <i_m_source_file_index>
48

> <r_mmod_Potential_Energy-OPLS-2005>
-150.865646362305

> <r_mmod_Stretch_Energy-OPLS-2005>
32.7829246520996

> <r_mmod_Bend_Energy-OPLS-2005>
103.390167236328

> <r_mmod_Torsional_Energy-OPLS-2005>
236.123641967773

> <r_mmod_Improper_Torsional_Energy-OPLS-2005>
6.74936389923096

> <r_mmod_Van_der_Waal_Energy-OPLS-2005>
161.221221923828

> <r_mmod_Electrostatic_Energy-OPLS-2005>
-431.446166992188

> <r_mmod_Solvation_Energy-OPLS-2005>
-270.042358398438

> <b_mmod_Minimization_Converged-OPLS-2005>
0

> <r_mmod_RMS_Derivative-OPLS-2005>
1.08025801181793

$$$$
48
                    3D
 Structure written by MMmdl.
149157  0  0  1  0            999 V2000
  -30.5896  -14.7002   20.4907 C   0  0  0  0  0  0
  -30.4470  -12.4300   19.4615 C   0  0  0  0  0  0
  -29.5142  -12.5143   18.2311 C   0  0  0  0  0  0
  -28.0380  -12.3400   18.6425 C   0  0  0  0  0  0
  -27.6525  -13.2179   19.8622 C   0  0  2  0  0  0
  -28.6974  -13.0917   20.9944 C   0  0  0  0  0  0
  -25.2562  -13.8167   20.5681 C   0  0  0  0  0  0
  -24.1832  -13.0435   20.9198 C   0  0  0  0  0  0
  -24.6399  -11.6905   20.8742 C   0  0  0  0  0  0
  -23.9066  -10.4290   21.0405 C   0  0  0  0  0  0
  -24.3617   -9.4205   21.9183 C   0  0  0  0  0  0
  -23.6289   -8.2244   22.0755 C   0  0  0  0  0  0
  -22.4272   -8.0281   21.3546 C   0  0  0  0  0  0
  -21.9905   -9.0256   20.4649 C   0  0  0  0  0  0
  -22.7236  -10.2134   20.3057 C   0  0  0  0  0  0
  -21.6855   -6.0732   22.5277 C   0  0  0  0  0  0
  -21.4017   -6.5637   23.8209 C   0  0  0  0  0  0
  -21.3658   -5.6790   24.9172 C   0  0  0  0  0  0
  -21.6042   -4.3053   24.7224 C   0  0  0  0  0  0
  -21.8820   -3.8144   23.4345 C   0  0  0  0  0  0
  -21.9193   -4.6960   22.3401 C   0  0  0  0  0  0
  -22.7855  -13.5232   21.1854 C   0  0  0  0  0  0
  -22.1662   -4.2146   21.0979 F   0  0  0  0  0  0
  -21.5626   -3.4537   25.7737 F   0  0  0  0  0  0
  -30.0074  -13.4562   20.4311 N   0  0  0  0  0  0
  -26.2986  -12.9347   20.3307 N   0  0  0  0  0  0
  -25.9328  -11.6503   20.5753 N   0  0  0  0  0  0
  -22.0492  -12.8231   22.0409 N   0  0  0  0  0  0
  -25.4272  -15.1889   20.4071 N   0  0  0  0  0  0
  -31.7477  -14.8804   20.1035 O   0  0  0  0  0  0
  -21.6640   -6.8876   21.4239 O   0  0  0  0  0  0
  -22.3543  -14.5536   20.6694 O   0  0  0  0  0  0
  -24.6283  -31.8571   23.2004 C   0  0  0  0  0  0
  -25.9119  -32.4765   23.8344 C   0  0  1  0  0  0
  -27.2270  -27.2915   20.1278 C   0  0  0  0  0  0
  -25.5923  -33.8566   24.2270 N   0  0  0  0  0  0
  -23.4248  -30.4788   21.5430 C   0  0  2  0  0  0
  -24.8745  -28.9283   20.1118 C   0  0  0  0  0  0
  -22.7491  -29.4604   22.4924 C   0  0  0  0  0  0
  -18.0288  -28.1387   22.8486 C   0  0  0  0  0  0
  -24.1489  -36.7290   23.2637 C   0  0  0  0  0  0
  -25.9678  -30.7784   21.3775 C   0  0  0  0  0  0
  -26.0434  -29.4018   20.7228 C   0  0  0  0  0  0
  -27.2232  -28.5941   20.7235 C   0  0  0  0  0  0
  -26.0394  -26.8805   19.4840 C   0  0  0  0  0  0
  -24.8751  -27.6732   19.4831 C   0  0  0  0  0  0
  -23.6430  -29.8116   20.1592 C   0  0  0  0  0  0
  -25.4112  -36.3076   24.0329 C   0  0  1  0  0  0
  -20.5889  -28.3693   23.1277 C   0  0  2  0  0  0
  -20.6777  -26.9413   22.5408 C   0  0  0  0  0  0
  -19.5752  -26.6383   21.5212 C   0  0  0  0  0  0
  -18.1932  -26.7929   22.1626 C   0  0  0  0  0  0
  -19.1541  -28.8858   23.2875 C   0  0  0  0  0  0
  -18.9463  -30.1458   23.8894 C   0  0  0  0  0  0
  -17.6462  -30.6588   24.0561 C   0  0  0  0  0  0
  -25.9051  -34.9445   23.5103 C   0  0  0  0  0  0
  -16.5353  -29.9085   23.6329 C   0  0  0  0  0  0
  -16.7274  -28.6502   23.0353 C   0  0  0  0  0  0
  -26.4496  -31.6582   25.0722 C   0  0  0  0  0  0
  -25.3725  -31.3736   26.1450 C   0  0  0  0  0  0
  -27.0334  -30.2997   24.6196 C   0  0  0  0  0  0
  -27.6056  -32.4316   25.7491 C   0  0  0  0  0  0
  -27.5582  -37.1795   24.8460 C   0  0  0  0  0  0
  -21.4200  -29.3042   22.3669 N   0  0  0  0  0  0
  -26.4288  -37.3774   23.9412 N   0  0  0  0  0  0
  -24.6924  -31.0554   22.0971 N   0  0  0  0  0  0
  -23.4199  -28.8145   23.3017 O   0  0  0  0  0  0
  -28.3239  -26.4076   20.1485 O   0  0  0  0  0  0
  -26.5623  -34.8917   22.4672 O   0  0  0  0  0  0
  -23.5439  -32.1383   23.7311 O   0  0  0  0  0  0
  -30.8256  -17.9884   20.0999 C   0  0  0  0  0  0
  -28.6807  -17.9878   21.1175 C   0  0  0  0  0  0
  -29.7907  -17.2101   20.6858 C   0  0  0  0  0  0
  -30.6985  -19.4125   19.9790 C   0  0  0  0  0  0
  -29.5374  -20.1040   20.4383 C   0  0  0  0  0  0
  -28.1001  -25.0329   20.4384 C   0  0  0  0  0  0
  -28.9377  -23.9592   20.1961 C   0  0  0  0  0  0
  -28.5742  -22.5405   20.5605 C   0  0  0  0  0  0
  -28.5526  -19.3483   21.0048 N   0  0  0  0  0  0
  -29.7592  -15.7382   20.8546 N   0  0  0  0  0  0
  -29.5046  -21.5691   20.2582 N   0  0  0  0  0  0
  -27.5023  -22.2552   21.1008 O   0  0  0  0  0  0
  -30.1240  -24.1831   19.6120 O   0  0  0  0  0  0
  -31.7048  -20.1217   19.4100 F   0  0  0  0  0  0
  -31.4855  -12.5721   19.1576 H   0  0  0  0  0  0
  -30.4009  -11.4380   19.9135 H   0  0  0  0  0  0
  -29.7894  -11.7566   17.4961 H   0  0  0  0  0  0
  -29.6448  -13.4791   17.7382 H   0  0  0  0  0  0
  -27.8852  -11.2873   18.8834 H   0  0  0  0  0  0
  -27.3824  -12.5563   17.7980 H   0  0  0  0  0  0
  -27.6639  -14.2496   19.5105 H   0  0  0  0  0  0
  -28.7242  -12.0719   21.3814 H   0  0  0  0  0  0
  -28.4320  -13.7231   21.8438 H   0  0  0  0  0  0
  -25.2763   -9.5679   22.4754 H   0  0  0  0  0  0
  -23.9998   -7.4635   22.7475 H   0  0  0  0  0  0
  -21.0835   -8.8775   19.8957 H   0  0  0  0  0  0
  -22.3695  -10.9672   19.6165 H   0  0  0  0  0  0
  -21.2013   -7.6145   23.9711 H   0  0  0  0  0  0
  -21.1478   -6.0521   25.9073 H   0  0  0  0  0  0
  -22.0601   -2.7605   23.2849 H   0  0  0  0  0  0
  -22.4102  -11.9894   22.4806 H   0  0  0  0  0  0
  -21.1110  -13.1264   22.2609 H   0  0  0  0  0  0
  -24.6516  -15.8365   20.4955 H   0  0  0  0  0  0
  -26.2569  -15.6182   20.0194 H   0  0  0  0  0  0
  -26.7186  -32.5430   23.1090 H   0  0  0  0  0  0
  -25.0059  -33.9706   25.0408 H   0  0  0  0  0  0
  -22.7198  -31.2998   21.3972 H   0  0  0  0  0  0
  -23.3755  -35.9618   23.3286 H   0  0  0  0  0  0
  -24.3584  -36.8925   22.2055 H   0  0  0  0  0  0
  -23.7235  -37.6485   23.6669 H   0  0  0  0  0  0
  -26.1015  -31.5390   20.6071 H   0  0  0  0  0  0
  -26.8471  -30.8300   22.0079 H   0  0  0  0  0  0
  -28.1200  -28.9503   21.2110 H   0  0  0  0  0  0
  -26.0013  -25.9189   18.9922 H   0  0  0  0  0  0
  -23.9815  -27.3060   18.9973 H   0  0  0  0  0  0
  -23.7643  -30.5873   19.4022 H   0  0  0  0  0  0
  -22.7627  -29.2420   19.8559 H   0  0  0  0  0  0
  -25.1289  -36.1927   25.0822 H   0  0  0  0  0  0
  -20.9976  -28.3270   24.1399 H   0  0  0  0  0  0
  -20.5680  -26.2300   23.3609 H   0  0  0  0  0  0
  -21.6647  -26.7444   22.1201 H   0  0  0  0  0  0
  -19.6913  -25.6293   21.1243 H   0  0  0  0  0  0
  -19.6686  -27.3192   20.6741 H   0  0  0  0  0  0
  -17.4199  -26.6669   21.4033 H   0  0  0  0  0  0
  -18.0337  -26.0074   22.9027 H   0  0  0  0  0  0
  -19.7938  -30.7276   24.2262 H   0  0  0  0  0  0
  -17.5016  -31.6269   24.5161 H   0  0  0  0  0  0
  -15.5354  -30.2987   23.7656 H   0  0  0  0  0  0
  -15.8673  -28.0819   22.7073 H   0  0  0  0  0  0
  -24.5872  -30.7120   25.7776 H   0  0  0  0  0  0
  -24.8953  -32.2912   26.4899 H   0  0  0  0  0  0
  -25.8037  -30.8881   27.0213 H   0  0  0  0  0  0
  -26.2910  -29.6747   24.1216 H   0  0  0  0  0  0
  -27.4013  -29.7256   25.4712 H   0  0  0  0  0  0
  -27.8792  -30.4270   23.9435 H   0  0  0  0  0  0
  -27.2669  -33.3621   26.2063 H   0  0  0  0  0  0
  -28.3867  -32.6868   25.0317 H   0  0  0  0  0  0
  -28.0720  -31.8443   26.5411 H   0  0  0  0  0  0
  -28.2583  -38.0109   24.7530 H   0  0  0  0  0  0
  -28.1094  -36.2642   24.6252 H   0  0  0  0  0  0
  -27.2305  -37.1405   25.8863 H   0  0  0  0  0  0
  -20.9382  -29.8763   21.6874 H   0  0  0  0  0  0
  -26.0169  -38.2845   24.1425 H   0  0  0  0  0  0
  -31.7207  -17.5108   19.7313 H   0  0  0  0  0  0
  -27.8365  -17.4918   21.5740 H   0  0  0  0  0  0
  -27.1390  -24.8821   20.9139 H   0  0  0  0  0  0
  -28.8836  -15.3906   21.2182 H   0  0  0  0  0  0
  -30.3338  -21.9437   19.8186 H   0  0  0  0  0  0
  -30.1808  -25.1182   19.4581 H   0  0  0  0  0  0
  1 25  1  0  0  0
  1 30  2  0  0  0
  1 80  1  0  0  0
  2  3  1  0  0  0
  2 25  1  0  0  0
  2 85  1  0  0  0
  2 86  1  0  0  0
  3  4  1  0  0  0
  3 87  1  0  0  0
  3 88  1  0  0  0
  4  5  1  0  0  0
  4 89  1  0  0  0
  4 90  1  0  0  0
  5  6  1  0  0  0
  5 26  1  0  0  0
  5 91  1  0  0  0
  6 25  1  0  0  0
  6 92  1  0  0  0
  6 93  1  0  0  0
  7  8  2  0  0  0
  7 26  1  0  0  0
  7 29  1  0  0  0
  8  9  1  0  0  0
  8 22  1  0  0  0
  9 10  1  0  0  0
  9 27  2  0  0  0
 10 11  2  0  0  0
 10 15  1  0  0  0
 11 12  1  0  0  0
 11 94  1  0  0  0
 12 13  2  0  0  0
 12 95  1  0  0  0
 13 14  1  0  0  0
 13 31  1  0  0  0
 14 15  2  0  0  0
 14 96  1  0  0  0
 15 97  1  0  0  0
 16 17  2  0  0  0
 16 21  1  0  0  0
 16 31  1  0  0  0
 17 18  1  0  0  0
 17 98  1  0  0  0
 18 19  2  0  0  0
 18 99  1  0  0  0
 19 20  1  0  0  0
 19 24  1  0  0  0
 20 21  2  0  0  0
 20100  1  0  0  0
 21 23  1  0  0  0
 22 28  1  0  0  0
 22 32  2  0  0  0
 26 27  1  0  0  0
 28101  1  0  0  0
 28102  1  0  0  0
 29103  1  0  0  0
 29104  1  0  0  0
 33 34  1  0  0  0
 33 66  1  0  0  0
 33 70  2  0  0  0
 34 36  1  0  0  0
 34 59  1  0  0  0
 34105  1  0  0  0
 35 44  2  0  0  0
 35 45  1  0  0  0
 35 68  1  0  0  0
 36 56  1  0  0  0
 36106  1  0  0  0
 37 39  1  0  0  0
 37 47  1  0  0  0
 37 66  1  0  0  0
 37107  1  0  0  0
 38 43  2  0  0  0
 38 46  1  0  0  0
 38 47  1  0  0  0
 39 64  1  0  0  0
 39 67  2  0  0  0
 40 52  1  0  0  0
 40 53  2  0  0  0
 40 58  1  0  0  0
 41108  1  0  0  0
 41109  1  0  0  0
 41110  1  0  0  0
 41 48  1  0  0  0
 42 43  1  0  0  0
 42 66  1  0  0  0
 42111  1  0  0  0
 42112  1  0  0  0
 43 44  1  0  0  0
 44113  1  0  0  0
 45 46  2  0  0  0
 45114  1  0  0  0
 46115  1  0  0  0
 47116  1  0  0  0
 47117  1  0  0  0
 48 56  1  0  0  0
 48 65  1  0  0  0
 48118  1  0  0  0
 49 50  1  0  0  0
 49 53  1  0  0  0
 49 64  1  0  0  0
 49119  1  0  0  0
 50 51  1  0  0  0
 50120  1  0  0  0
 50121  1  0  0  0
 51 52  1  0  0  0
 51122  1  0  0  0
 51123  1  0  0  0
 52124  1  0  0  0
 52125  1  0  0  0
 53 54  1  0  0  0
 54 55  2  0  0  0
 54126  1  0  0  0
 55 57  1  0  0  0
 55127  1  0  0  0
 56 69  2  0  0  0
 57 58  2  0  0  0
 57128  1  0  0  0
 58129  1  0  0  0
 59 60  1  0  0  0
 59 61  1  0  0  0
 59 62  1  0  0  0
 60130  1  0  0  0
 60131  1  0  0  0
 60132  1  0  0  0
 61133  1  0  0  0
 61134  1  0  0  0
 61135  1  0  0  0
 62136  1  0  0  0
 62137  1  0  0  0
 62138  1  0  0  0
 63 65  1  0  0  0
 63139  1  0  0  0
 63140  1  0  0  0
 63141  1  0  0  0
 64142  1  0  0  0
 65143  1  0  0  0
 68 76  1  0  0  0
 71 73  2  0  0  0
 71 74  1  0  0  0
 71144  1  0  0  0
 72 73  1  0  0  0
 72 79  2  0  0  0
 72145  1  0  0  0
 73 80  1  0  0  0
 74 75  2  0  0  0
 74 84  1  0  0  0
 75 79  1  0  0  0
 75 81  1  0  0  0
 76 77  2  0  0  0
 76146  1  0  0  0
 77 78  1  0  0  0
 77 83  1  0  0  0
 78 81  1  0  0  0
 78 82  2  0  0  0
 80147  1  0  0  0
 81148  1  0  0  0
 83149  1  0  0  0
M  ISO  4   1 100  68 101  76 101  80 100
M  END
> <chiral flag>
0

> <version>
0

> <s_m_source_file>
/data/baiqing/PycharmProjects/Reinvent-master-3.2/result/LINK_invent/BTK/process_docking_weight1_custom_product_contain_oxygen_bond_distance_aromatic_linkinvent_7_9_3/rearranged_h_0171.sdf

> <i_m_source_file_index>
49

> <r_mmod_Potential_Energy-OPLS-2005>
-153.889251708984

> <r_mmod_Stretch_Energy-OPLS-2005>
92.8927536010742

> <r_mmod_Bend_Energy-OPLS-2005>
146.847702026367

> <r_mmod_Torsional_Energy-OPLS-2005>
197.890487670898

> <r_mmod_Improper_Torsional_Energy-OPLS-2005>
3.99383687973022

> <r_mmod_Van_der_Waal_Energy-OPLS-2005>
145.466796875

> <r_mmod_Electrostatic_Energy-OPLS-2005>
-571.767456054688

> <r_mmod_Solvation_Energy-OPLS-2005>
-236.277984619141

> <b_mmod_Minimization_Converged-OPLS-2005>
0

> <r_mmod_RMS_Derivative-OPLS-2005>
0.38497605919838

$$$$
49
                    3D
 Structure written by MMmdl.
165174  0  0  1  0            999 V2000
  -30.6746  -14.4886   20.5706 C   0  0  0  0  0  0
  -30.4209  -12.3123   19.4281 C   0  0  0  0  0  0
  -29.4958  -12.5215   18.2109 C   0  0  0  0  0  0
  -28.0178  -12.3669   18.6196 C   0  0  0  0  0  0
  -27.6612  -13.2027   19.8787 C   0  0  2  0  0  0
  -28.6997  -12.9792   21.0019 C   0  0  0  0  0  0
  -25.2590  -13.8161   20.5680 C   0  0  0  0  0  0
  -24.1843  -13.0438   20.9178 C   0  0  0  0  0  0
  -24.6395  -11.6902   20.8729 C   0  0  0  0  0  0
  -23.9062  -10.4290   21.0388 C   0  0  0  0  0  0
  -24.3615   -9.4209   21.9173 C   0  0  0  0  0  0
  -23.6293   -8.2243   22.0748 C   0  0  0  0  0  0
  -22.4275   -8.0276   21.3537 C   0  0  0  0  0  0
  -21.9910   -9.0241   20.4635 C   0  0  0  0  0  0
  -22.7232  -10.2127   20.3043 C   0  0  0  0  0  0
  -21.6854   -6.0736   22.5273 C   0  0  0  0  0  0
  -21.4015   -6.5635   23.8210 C   0  0  0  0  0  0
  -21.3668   -5.6788   24.9173 C   0  0  0  0  0  0
  -21.6048   -4.3050   24.7220 C   0  0  0  0  0  0
  -21.8818   -3.8147   23.4340 C   0  0  0  0  0  0
  -21.9191   -4.6966   22.3398 C   0  0  0  0  0  0
  -22.7860  -13.5225   21.1838 C   0  0  0  0  0  0
  -22.1652   -4.2154   21.0975 F   0  0  0  0  0  0
  -21.5643   -3.4537   25.7736 F   0  0  0  0  0  0
  -30.0317  -13.2926   20.4562 N   0  0  0  0  0  0
  -26.3020  -12.9308   20.3374 N   0  0  0  0  0  0
  -25.9320  -11.6473   20.5770 N   0  0  0  0  0  0
  -22.0499  -12.8219   22.0397 N   0  0  0  0  0  0
  -25.4329  -15.1882   20.4094 N   0  0  0  0  0  0
  -31.8037  -14.6690   20.0994 O   0  0  0  0  0  0
  -21.6637   -6.8874   21.4235 O   0  0  0  0  0  0
  -22.3539  -14.5534   20.6698 O   0  0  0  0  0  0
  -24.6148  -31.8685   23.2116 C   0  0  0  0  0  0
  -25.9042  -32.4829   23.8402 C   0  0  1  0  0  0
  -27.2315  -27.4334   20.1149 C   0  0  0  0  0  0
  -25.5901  -33.8622   24.2353 N   0  0  0  0  0  0
  -23.4032  -30.4926   21.5510 C   0  0  2  0  0  0
  -24.8503  -28.9548   20.1178 C   0  0  0  0  0  0
  -22.7388  -29.4679   22.4986 C   0  0  0  0  0  0
  -18.0269  -28.1373   22.8497 C   0  0  0  0  0  0
  -24.1485  -36.7299   23.2653 C   0  0  0  0  0  0
  -25.9317  -30.8366   21.3617 C   0  0  0  0  0  0
  -26.0104  -29.4701   20.7121 C   0  0  0  0  0  0
  -27.2060  -28.7167   20.7067 C   0  0  0  0  0  0
  -26.0618  -26.9300   19.5131 C   0  0  0  0  0  0
  -24.8709  -27.6826   19.5165 C   0  0  0  0  0  0
  -23.6121  -29.8227   20.1672 C   0  0  0  0  0  0
  -25.4106  -36.3113   24.0358 C   0  0  1  0  0  0
  -20.5862  -28.3664   23.1311 C   0  0  2  0  0  0
  -20.6772  -26.9402   22.5413 C   0  0  0  0  0  0
  -19.5745  -26.6393   21.5211 C   0  0  0  0  0  0
  -18.1916  -26.7926   22.1614 C   0  0  0  0  0  0
  -19.1518  -28.8827   23.2909 C   0  0  0  0  0  0
  -18.9449  -30.1427   23.8928 C   0  0  0  0  0  0
  -17.6454  -30.6585   24.0550 C   0  0  0  0  0  0
  -25.9022  -34.9479   23.5145 C   0  0  0  0  0  0
  -16.5345  -29.9091   23.6323 C   0  0  0  0  0  0
  -16.7259  -28.6499   23.0364 C   0  0  0  0  0  0
  -26.4482  -31.6595   25.0720 C   0  0  0  0  0  0
  -25.3758  -31.3647   26.1459 C   0  0  0  0  0  0
  -27.0344  -30.3061   24.6078 C   0  0  0  0  0  0
  -27.6064  -32.4315   25.7469 C   0  0  0  0  0  0
  -27.5576  -37.1805   24.8475 C   0  0  0  0  0  0
  -21.4117  -29.3040   22.3707 N   0  0  0  0  0  0
  -26.4294  -37.3793   23.9417 N   0  0  0  0  0  0
  -24.6684  -31.0788   22.1015 N   0  0  0  0  0  0
  -23.4149  -28.8219   23.3037 O   0  0  0  0  0  0
  -28.3790  -26.6731   20.1184 O   0  0  0  0  0  0
  -26.5570  -34.8927   22.4698 O   0  0  0  0  0  0
  -23.5344  -32.1443   23.7522 O   0  0  0  0  0  0
  -30.8204  -18.9087   20.2029 C   0  0  0  0  0  0
  -29.8002  -19.3831   21.0134 C   0  0  0  0  0  0
  -30.0476  -16.8937   20.9888 C   0  0  0  0  0  0
  -28.6545  -22.9604   21.2223 C   0  0  0  0  0  0
  -28.7449  -21.5384   20.5724 C   0  0  0  0  0  0
  -32.9982  -22.0585   18.0244 C   0  0  0  0  0  0
  -33.6289  -21.4766   19.3006 C   0  0  0  0  0  0
  -32.2646  -20.9728   17.2192 C   0  0  0  0  0  0
  -32.5765  -20.7673   20.1696 C   0  0  0  0  0  0
  -31.2113  -20.2558   18.0796 C   0  0  0  0  0  0
  -31.8231  -19.6813   19.3724 C   0  0  0  0  0  0
  -28.4093  -24.1703   20.2891 C   0  0  0  0  0  0
  -28.3549  -25.5436   21.0142 C   0  0  0  0  0  0
  -30.9234  -17.5071   20.1874 N   0  0  0  0  0  0
  -29.4786  -20.6779   21.3086 N   0  0  0  0  0  0
  -29.9524  -15.4744   21.1498 N   0  0  0  0  0  0
  -28.7859  -23.1115   22.4433 O   0  0  0  0  0  0
  -28.1870  -21.2516   19.5086 O   0  0  0  0  0  0
  -28.9790  -18.0398   21.7992 S   0  0  0  0  0  0
  -31.4670  -12.4067   19.1325 H   0  0  0  0  0  0
  -30.3134  -11.2985   19.8177 H   0  0  0  0  0  0
  -29.7466  -11.8166   17.4167 H   0  0  0  0  0  0
  -29.6577  -13.5169   17.7956 H   0  0  0  0  0  0
  -27.8328  -11.3087   18.8095 H   0  0  0  0  0  0
  -27.3672  -12.6413   17.7884 H   0  0  0  0  0  0
  -27.7066  -14.2518   19.5850 H   0  0  0  0  0  0
  -28.6799  -11.9415   21.3392 H   0  0  0  0  0  0
  -28.4548  -13.5712   21.8841 H   0  0  0  0  0  0
  -25.2766   -9.5689   22.4742 H   0  0  0  0  0  0
  -24.0006   -7.4638   22.7475 H   0  0  0  0  0  0
  -21.0845   -8.8746   19.8936 H   0  0  0  0  0  0
  -22.3686  -10.9656   19.6146 H   0  0  0  0  0  0
  -21.1996   -7.6139   23.9713 H   0  0  0  0  0  0
  -21.1503   -6.0518   25.9076 H   0  0  0  0  0  0
  -22.0598   -2.7610   23.2838 H   0  0  0  0  0  0
  -22.4094  -11.9863   22.4767 H   0  0  0  0  0  0
  -21.1114  -13.1234   22.2597 H   0  0  0  0  0  0
  -24.6670  -15.8450   20.5170 H   0  0  0  0  0  0
  -26.2878  -15.6278   20.0925 H   0  0  0  0  0  0
  -26.7113  -32.5556   23.1170 H   0  0  0  0  0  0
  -25.0076  -33.9791   25.0516 H   0  0  0  0  0  0
  -22.6948  -31.3119   21.4087 H   0  0  0  0  0  0
  -23.3755  -35.9622   23.3322 H   0  0  0  0  0  0
  -24.3588  -36.8902   22.2070 H   0  0  0  0  0  0
  -23.7219  -37.6504   23.6654 H   0  0  0  0  0  0
  -26.0467  -31.6043   20.5942 H   0  0  0  0  0  0
  -26.8198  -30.8919   21.9793 H   0  0  0  0  0  0
  -28.1012  -29.1099   21.1685 H   0  0  0  0  0  0
  -26.0735  -25.9546   19.0484 H   0  0  0  0  0  0
  -23.9776  -27.2765   19.0634 H   0  0  0  0  0  0
  -23.7222  -30.5991   19.4092 H   0  0  0  0  0  0
  -22.7350  -29.2446   19.8703 H   0  0  0  0  0  0
  -25.1285  -36.1992   25.0855 H   0  0  0  0  0  0
  -20.9966  -28.3244   24.1427 H   0  0  0  0  0  0
  -20.5698  -26.2264   23.3600 H   0  0  0  0  0  0
  -21.6636  -26.7469   22.1176 H   0  0  0  0  0  0
  -19.6915  -25.6316   21.1219 H   0  0  0  0  0  0
  -19.6696  -27.3219   20.6755 H   0  0  0  0  0  0
  -17.4199  -26.6689   21.4007 H   0  0  0  0  0  0
  -18.0295  -26.0061   22.8996 H   0  0  0  0  0  0
  -19.7927  -30.7225   24.2324 H   0  0  0  0  0  0
  -17.5016  -31.6279   24.5132 H   0  0  0  0  0  0
  -15.5347  -30.3002   23.7641 H   0  0  0  0  0  0
  -15.8649  -28.0817   22.7103 H   0  0  0  0  0  0
  -24.5975  -30.6950   25.7773 H   0  0  0  0  0  0
  -24.8885  -32.2768   26.4923 H   0  0  0  0  0  0
  -25.8137  -30.8815   27.0204 H   0  0  0  0  0  0
  -26.2890  -29.6756   24.1218 H   0  0  0  0  0  0
  -27.4237  -29.7353   25.4517 H   0  0  0  0  0  0
  -27.8655  -30.4401   23.9149 H   0  0  0  0  0  0
  -27.2717  -33.3634   26.2030 H   0  0  0  0  0  0
  -28.3878  -32.6836   25.0289 H   0  0  0  0  0  0
  -28.0719  -31.8436   26.5394 H   0  0  0  0  0  0
  -28.2603  -38.0094   24.7523 H   0  0  0  0  0  0
  -28.1066  -36.2628   24.6310 H   0  0  0  0  0  0
  -27.2281  -37.1452   25.8873 H   0  0  0  0  0  0
  -20.9273  -29.8720   21.6896 H   0  0  0  0  0  0
  -26.0190  -38.2877   24.1410 H   0  0  0  0  0  0
  -33.7697  -22.5188   17.4060 H   0  0  0  0  0  0
  -32.3024  -22.8553   18.2904 H   0  0  0  0  0  0
  -34.1087  -22.2703   19.8752 H   0  0  0  0  0  0
  -34.4174  -20.7735   19.0312 H   0  0  0  0  0  0
  -32.9844  -20.2477   16.8366 H   0  0  0  0  0  0
  -31.7856  -21.4192   16.3465 H   0  0  0  0  0  0
  -31.8829  -21.5123   20.5563 H   0  0  0  0  0  0
  -33.0607  -20.3180   21.0379 H   0  0  0  0  0  0
  -30.7425  -19.4571   17.5024 H   0  0  0  0  0  0
  -30.4210  -20.9630   18.3215 H   0  0  0  0  0  0
  -32.5900  -18.9763   19.0461 H   0  0  0  0  0  0
  -27.4812  -24.0009   19.7445 H   0  0  0  0  0  0
  -29.2096  -24.1821   19.5506 H   0  0  0  0  0  0
  -29.2230  -25.6462   21.6677 H   0  0  0  0  0  0
  -27.4864  -25.5777   21.6769 H   0  0  0  0  0  0
  -29.7900  -21.0482   22.1982 H   0  0  0  0  0  0
  -29.1241  -15.1588   21.6293 H   0  0  0  0  0  0
  1 25  1  0  0  0
  1 30  2  0  0  0
  1 86  1  0  0  0
  2  3  1  0  0  0
  2 25  1  0  0  0
  2 90  1  0  0  0
  2 91  1  0  0  0
  3  4  1  0  0  0
  3 92  1  0  0  0
  3 93  1  0  0  0
  4  5  1  0  0  0
  4 94  1  0  0  0
  4 95  1  0  0  0
  5  6  1  0  0  0
  5 26  1  0  0  0
  5 96  1  0  0  0
  6 25  1  0  0  0
  6 97  1  0  0  0
  6 98  1  0  0  0
  7  8  2  0  0  0
  7 26  1  0  0  0
  7 29  1  0  0  0
  8  9  1  0  0  0
  8 22  1  0  0  0
  9 10  1  0  0  0
  9 27  2  0  0  0
 10 11  2  0  0  0
 10 15  1  0  0  0
 11 12  1  0  0  0
 11 99  1  0  0  0
 12 13  2  0  0  0
 12100  1  0  0  0
 13 14  1  0  0  0
 13 31  1  0  0  0
 14 15  2  0  0  0
 14101  1  0  0  0
 15102  1  0  0  0
 16 17  2  0  0  0
 16 21  1  0  0  0
 16 31  1  0  0  0
 17 18  1  0  0  0
 17103  1  0  0  0
 18 19  2  0  0  0
 18104  1  0  0  0
 19 20  1  0  0  0
 19 24  1  0  0  0
 20 21  2  0  0  0
 20105  1  0  0  0
 21 23  1  0  0  0
 22 28  1  0  0  0
 22 32  2  0  0  0
 26 27  1  0  0  0
 28106  1  0  0  0
 28107  1  0  0  0
 29108  1  0  0  0
 29109  1  0  0  0
 33 34  1  0  0  0
 33 66  1  0  0  0
 33 70  2  0  0  0
 34 36  1  0  0  0
 34 59  1  0  0  0
 34110  1  0  0  0
 35 44  2  0  0  0
 35 45  1  0  0  0
 35 68  1  0  0  0
 36 56  1  0  0  0
 36111  1  0  0  0
 37 39  1  0  0  0
 37 47  1  0  0  0
 37 66  1  0  0  0
 37112  1  0  0  0
 38 43  2  0  0  0
 38 46  1  0  0  0
 38 47  1  0  0  0
 39 64  1  0  0  0
 39 67  2  0  0  0
 40 52  1  0  0  0
 40 53  2  0  0  0
 40 58  1  0  0  0
 41113  1  0  0  0
 41114  1  0  0  0
 41115  1  0  0  0
 41 48  1  0  0  0
 42 43  1  0  0  0
 42 66  1  0  0  0
 42116  1  0  0  0
 42117  1  0  0  0
 43 44  1  0  0  0
 44118  1  0  0  0
 45 46  2  0  0  0
 45119  1  0  0  0
 46120  1  0  0  0
 47121  1  0  0  0
 47122  1  0  0  0
 48 56  1  0  0  0
 48 65  1  0  0  0
 48123  1  0  0  0
 49 50  1  0  0  0
 49 53  1  0  0  0
 49 64  1  0  0  0
 49124  1  0  0  0
 50 51  1  0  0  0
 50125  1  0  0  0
 50126  1  0  0  0
 51 52  1  0  0  0
 51127  1  0  0  0
 51128  1  0  0  0
 52129  1  0  0  0
 52130  1  0  0  0
 53 54  1  0  0  0
 54 55  2  0  0  0
 54131  1  0  0  0
 55 57  1  0  0  0
 55132  1  0  0  0
 56 69  2  0  0  0
 57 58  2  0  0  0
 57133  1  0  0  0
 58134  1  0  0  0
 59 60  1  0  0  0
 59 61  1  0  0  0
 59 62  1  0  0  0
 60135  1  0  0  0
 60136  1  0  0  0
 60137  1  0  0  0
 61138  1  0  0  0
 61139  1  0  0  0
 61140  1  0  0  0
 62141  1  0  0  0
 62142  1  0  0  0
 62143  1  0  0  0
 63 65  1  0  0  0
 63144  1  0  0  0
 63145  1  0  0  0
 63146  1  0  0  0
 64147  1  0  0  0
 65148  1  0  0  0
 68 83  1  0  0  0
 71 72  2  0  0  0
 71 84  1  0  0  0
 71 81  1  0  0  0
 72 85  1  0  0  0
 72 89  1  0  0  0
 73 84  2  0  0  0
 73 86  1  0  0  0
 73 89  1  0  0  0
 74 75  1  0  0  0
 74 82  1  0  0  0
 74 87  2  0  0  0
 75 85  1  0  0  0
 75 88  2  0  0  0
 76 77  1  0  0  0
 76 78  1  0  0  0
 76149  1  0  0  0
 76150  1  0  0  0
 77 79  1  0  0  0
 77151  1  0  0  0
 77152  1  0  0  0
 78 80  1  0  0  0
 78153  1  0  0  0
 78154  1  0  0  0
 79 81  1  0  0  0
 79155  1  0  0  0
 79156  1  0  0  0
 80 81  1  0  0  0
 80157  1  0  0  0
 80158  1  0  0  0
 81159  1  0  0  0
 82 83  1  0  0  0
 82160  1  0  0  0
 82161  1  0  0  0
 83162  1  0  0  0
 83163  1  0  0  0
 85164  1  0  0  0
 86165  1  0  0  0
M  ISO  4   1 100  68 101  83 101  86 100
M  END
> <chiral flag>
0

> <version>
0

> <s_m_source_file>
/data/baiqing/PycharmProjects/Reinvent-master-3.2/result/LINK_invent/BTK/process_docking_weight1_custom_product_contain_oxygen_bond_distance_aromatic_linkinvent_7_9_3/rearranged_h_0171.sdf

> <i_m_source_file_index>
50

> <r_mmod_Potential_Energy-OPLS-2005>
-57.032039642334

> <r_mmod_Stretch_Energy-OPLS-2005>
40.1360549926758

> <r_mmod_Bend_Energy-OPLS-2005>
107.751029968262

> <r_mmod_Torsional_Energy-OPLS-2005>
276.433776855469

> <r_mmod_Improper_Torsional_Energy-OPLS-2005>
3.31502890586853

> <r_mmod_Van_der_Waal_Energy-OPLS-2005>
123.868988037109

> <r_mmod_Electrostatic_Energy-OPLS-2005>
-380.655212402344

> <r_mmod_Solvation_Energy-OPLS-2005>
-241.264801025391

> <b_mmod_Minimization_Converged-OPLS-2005>
0

> <r_mmod_RMS_Derivative-OPLS-2005>
1.95594596862793

$$$$
50
                    3D
 Structure written by MMmdl.
163171  0  0  1  0            999 V2000
  -30.6083  -14.5801   20.5379 C   0  0  0  0  0  0
  -30.4468  -12.3622   19.4252 C   0  0  0  0  0  0
  -29.5054  -12.4968   18.2067 C   0  0  0  0  0  0
  -28.0273  -12.3326   18.6244 C   0  0  0  0  0  0
  -27.6563  -13.1936   19.8614 C   0  0  2  0  0  0
  -28.7027  -13.0038   20.9833 C   0  0  0  0  0  0
  -25.2609  -13.8103   20.5675 C   0  0  0  0  0  0
  -24.1846  -13.0409   20.9178 C   0  0  0  0  0  0
  -24.6376  -11.6870   20.8729 C   0  0  0  0  0  0
  -23.9038  -10.4269   21.0407 C   0  0  0  0  0  0
  -24.3598   -9.4192   21.9184 C   0  0  0  0  0  0
  -23.6277   -8.2231   22.0763 C   0  0  0  0  0  0
  -22.4260   -8.0270   21.3556 C   0  0  0  0  0  0
  -21.9893   -9.0233   20.4649 C   0  0  0  0  0  0
  -22.7219  -10.2107   20.3054 C   0  0  0  0  0  0
  -21.6843   -6.0733   22.5290 C   0  0  0  0  0  0
  -21.4005   -6.5636   23.8219 C   0  0  0  0  0  0
  -21.3658   -5.6790   24.9177 C   0  0  0  0  0  0
  -21.6044   -4.3055   24.7226 C   0  0  0  0  0  0
  -21.8818   -3.8148   23.4344 C   0  0  0  0  0  0
  -21.9184   -4.6962   22.3407 C   0  0  0  0  0  0
  -22.7881  -13.5240   21.1836 C   0  0  0  0  0  0
  -22.1658   -4.2149   21.0984 F   0  0  0  0  0  0
  -21.5629   -3.4539   25.7740 F   0  0  0  0  0  0
  -30.0162  -13.3561   20.4221 N   0  0  0  0  0  0
  -26.3001  -12.9238   20.3293 N   0  0  0  0  0  0
  -25.9292  -11.6417   20.5741 N   0  0  0  0  0  0
  -22.0501  -12.8239   22.0379 N   0  0  0  0  0  0
  -25.4355  -15.1832   20.4131 N   0  0  0  0  0  0
  -31.7788  -14.7884   20.2051 O   0  0  0  0  0  0
  -21.6632   -6.8866   21.4245 O   0  0  0  0  0  0
  -22.3587  -14.5561   20.6693 O   0  0  0  0  0  0
  -24.6213  -31.8639   23.2019 C   0  0  0  0  0  0
  -25.9082  -32.4825   23.8352 C   0  0  1  0  0  0
  -27.2479  -27.3830   20.1365 C   0  0  0  0  0  0
  -25.5958  -33.8625   24.2321 N   0  0  0  0  0  0
  -23.4132  -30.4812   21.5435 C   0  0  2  0  0  0
  -24.8690  -28.9372   20.1150 C   0  0  0  0  0  0
  -22.7458  -29.4608   22.4959 C   0  0  0  0  0  0
  -18.0272  -28.1384   22.8497 C   0  0  0  0  0  0
  -24.1470  -36.7292   23.2643 C   0  0  0  0  0  0
  -25.9419  -30.8238   21.3497 C   0  0  0  0  0  0
  -26.0284  -29.4460   20.7155 C   0  0  0  0  0  0
  -27.2249  -28.6794   20.7155 C   0  0  0  0  0  0
  -26.0743  -26.9039   19.5181 C   0  0  0  0  0  0
  -24.8912  -27.6716   19.5026 C   0  0  0  0  0  0
  -23.6275  -29.8047   20.1618 C   0  0  0  0  0  0
  -25.4096  -36.3102   24.0341 C   0  0  1  0  0  0
  -20.5879  -28.3662   23.1315 C   0  0  2  0  0  0
  -20.6754  -26.9392   22.5415 C   0  0  0  0  0  0
  -19.5734  -26.6362   21.5220 C   0  0  0  0  0  0
  -18.1904  -26.7933   22.1601 C   0  0  0  0  0  0
  -19.1531  -28.8841   23.2900 C   0  0  0  0  0  0
  -18.9468  -30.1461   23.8896 C   0  0  0  0  0  0
  -17.6474  -30.6597   24.0579 C   0  0  0  0  0  0
  -25.9030  -34.9479   23.5106 C   0  0  0  0  0  0
  -16.5365  -29.9088   23.6338 C   0  0  0  0  0  0
  -16.7275  -28.6509   23.0349 C   0  0  0  0  0  0
  -26.4489  -31.6635   25.0699 C   0  0  0  0  0  0
  -25.3750  -31.3768   26.1459 C   0  0  0  0  0  0
  -27.0346  -30.3114   24.6018 C   0  0  0  0  0  0
  -27.6069  -32.4355   25.7472 C   0  0  0  0  0  0
  -27.5572  -37.1792   24.8476 C   0  0  0  0  0  0
  -21.4176  -29.3063   22.3763 N   0  0  0  0  0  0
  -26.4272  -37.3802   23.9437 N   0  0  0  0  0  0
  -24.6794  -31.0699   22.0938 N   0  0  0  0  0  0
  -23.4215  -28.8123   23.2991 O   0  0  0  0  0  0
  -28.3865  -26.5889   20.1364 O   0  0  0  0  0  0
  -26.5547  -34.8949   22.4630 O   0  0  0  0  0  0
  -23.5391  -32.1370   23.7394 O   0  0  0  0  0  0
  -29.4635  -16.8014   22.8065 C   0  0  0  0  0  0
  -29.3700  -17.9911   23.5461 C   0  0  0  0  0  0
  -30.0726  -18.1012   20.8374 C   0  0  0  0  0  0
  -30.0021  -19.3335   21.5796 C   0  0  0  0  0  0
  -29.8280  -16.8298   21.4486 C   0  0  0  0  0  0
  -29.6409  -19.2417   22.9550 C   0  0  0  0  0  0
  -28.8314  -24.0835   20.4052 C   0  0  0  0  0  0
  -31.5081  -20.5677   19.8970 C   0  0  0  0  0  0
  -27.4132  -22.4911   21.8164 C   0  0  0  0  0  0
  -28.3578  -25.4391   21.0398 C   0  0  0  0  0  0
  -30.4148  -20.7213   20.9720 C   0  0  1  0  0  0
  -28.8320  -22.7730   21.2872 C   0  0  1  0  0  0
  -29.5467  -20.3636   23.7811 N   0  0  0  0  0  0
  -29.7155  -15.5876   20.7322 N   0  0  0  0  0  0
  -29.3157  -21.6139   20.4570 N   0  3  0  0  0  0
  -29.2089  -24.0557   19.2278 O   0  0  0  0  0  0
  -31.4861  -12.5077   19.1252 H   0  0  0  0  0  0
  -30.3927  -11.3555   19.8433 H   0  0  0  0  0  0
  -29.7619  -11.7542   17.4501 H   0  0  0  0  0  0
  -29.6485  -13.4716   17.7364 H   0  0  0  0  0  0
  -27.8678  -11.2772   18.8519 H   0  0  0  0  0  0
  -27.3672  -12.5664   17.7877 H   0  0  0  0  0  0
  -27.6807  -14.2322   19.5325 H   0  0  0  0  0  0
  -28.7095  -11.9668   21.3245 H   0  0  0  0  0  0
  -28.4586  -13.6007   21.8639 H   0  0  0  0  0  0
  -25.2744   -9.5673   22.4760 H   0  0  0  0  0  0
  -23.9983   -7.4629   22.7490 H   0  0  0  0  0  0
  -21.0823   -8.8736   19.8955 H   0  0  0  0  0  0
  -22.3674  -10.9644   19.6155 H   0  0  0  0  0  0
  -21.1997   -7.6138   23.9719 H   0  0  0  0  0  0
  -21.1484   -6.0522   25.9078 H   0  0  0  0  0  0
  -22.0594   -2.7607   23.2852 H   0  0  0  0  0  0
  -22.4094  -11.9873   22.4740 H   0  0  0  0  0  0
  -21.1129  -13.1296   22.2579 H   0  0  0  0  0  0
  -24.6694  -15.8354   20.5365 H   0  0  0  0  0  0
  -26.2808  -15.6294   20.0818 H   0  0  0  0  0  0
  -26.7169  -32.5546   23.1143 H   0  0  0  0  0  0
  -25.0354  -33.9801   25.0632 H   0  0  0  0  0  0
  -22.7055  -31.2997   21.3939 H   0  0  0  0  0  0
  -23.3760  -35.9602   23.3304 H   0  0  0  0  0  0
  -24.3567  -36.8882   22.2057 H   0  0  0  0  0  0
  -23.7165  -37.6480   23.6645 H   0  0  0  0  0  0
  -26.0234  -31.5715   20.5582 H   0  0  0  0  0  0
  -26.8425  -30.9132   21.9469 H   0  0  0  0  0  0
  -28.1236  -29.0709   21.1726 H   0  0  0  0  0  0
  -26.0749  -25.9302   19.0486 H   0  0  0  0  0  0
  -24.0064  -27.2797   19.0203 H   0  0  0  0  0  0
  -23.7302  -30.5745   19.3954 H   0  0  0  0  0  0
  -22.7537  -29.2182   19.8707 H   0  0  0  0  0  0
  -25.1236  -36.1972   25.0829 H   0  0  0  0  0  0
  -20.9979  -28.3213   24.1424 H   0  0  0  0  0  0
  -20.5627  -26.2275   23.3605 H   0  0  0  0  0  0
  -21.6615  -26.7370   22.1231 H   0  0  0  0  0  0
  -19.6874  -25.6259   21.1263 H   0  0  0  0  0  0
  -19.6701  -27.3180   20.6772 H   0  0  0  0  0  0
  -17.4187  -26.6777   21.3982 H   0  0  0  0  0  0
  -18.0229  -26.0045   22.8948 H   0  0  0  0  0  0
  -19.7959  -30.7290   24.2232 H   0  0  0  0  0  0
  -17.5037  -31.6276   24.5171 H   0  0  0  0  0  0
  -15.5380  -30.3010   23.7650 H   0  0  0  0  0  0
  -15.8658  -28.0850   22.7045 H   0  0  0  0  0  0
  -24.6028  -30.6945   25.7871 H   0  0  0  0  0  0
  -24.8808  -32.2928   26.4734 H   0  0  0  0  0  0
  -25.8117  -30.9154   27.0325 H   0  0  0  0  0  0
  -26.2888  -29.6873   24.1093 H   0  0  0  0  0  0
  -27.4240  -29.7330   25.4405 H   0  0  0  0  0  0
  -27.8623  -30.4511   23.9060 H   0  0  0  0  0  0
  -27.2755  -33.3763   26.1882 H   0  0  0  0  0  0
  -28.3991  -32.6730   25.0358 H   0  0  0  0  0  0
  -28.0605  -31.8565   26.5530 H   0  0  0  0  0  0
  -28.2579  -38.0109   24.7541 H   0  0  0  0  0  0
  -28.1056  -36.2625   24.6242 H   0  0  0  0  0  0
  -27.2297  -37.1371   25.8886 H   0  0  0  0  0  0
  -20.9323  -29.8923   21.7116 H   0  0  0  0  0  0
  -26.0157  -38.2861   24.1500 H   0  0  0  0  0  0
  -29.2250  -15.8642   23.2899 H   0  0  0  0  0  0
  -29.0907  -17.9217   24.5889 H   0  0  0  0  0  0
  -30.3162  -18.1230   19.7846 H   0  0  0  0  0  0
  -32.3191  -19.9317   20.2532 H   0  0  0  0  0  0
  -31.9506  -21.5336   19.6485 H   0  0  0  0  0  0
  -31.1188  -20.1316   18.9780 H   0  0  0  0  0  0
  -27.0879  -23.2725   22.5024 H   0  0  0  0  0  0
  -27.3701  -21.5504   22.3657 H   0  0  0  0  0  0
  -26.6896  -22.4348   21.0019 H   0  0  0  0  0  0
  -29.0305  -25.6567   21.8702 H   0  0  0  0  0  0
  -27.3650  -25.3102   21.4729 H   0  0  0  0  0  0
  -30.9117  -21.2701   21.7713 H   0  0  0  0  0  0
  -29.5023  -22.9266   22.1344 H   0  0  0  0  0  0
  -29.3369  -20.1684   24.7556 H   0  0  0  0  0  0
  -30.2951  -21.0454   23.7323 H   0  0  0  0  0  0
  -28.7824  -15.2074   20.7600 H   0  0  0  0  0  0
  -28.5353  -21.0596   20.1498 H   0  0  0  0  0  0
  -29.6777  -22.0819   19.6377 H   0  0  0  0  0  0
  1 25  1  0  0  0
  1 30  2  0  0  0
  1 84  1  0  0  0
  2  3  1  0  0  0
  2 25  1  0  0  0
  2 87  1  0  0  0
  2 88  1  0  0  0
  3  4  1  0  0  0
  3 89  1  0  0  0
  3 90  1  0  0  0
  4  5  1  0  0  0
  4 91  1  0  0  0
  4 92  1  0  0  0
  5  6  1  0  0  0
  5 26  1  0  0  0
  5 93  1  0  0  0
  6 25  1  0  0  0
  6 94  1  0  0  0
  6 95  1  0  0  0
  7  8  2  0  0  0
  7 26  1  0  0  0
  7 29  1  0  0  0
  8  9  1  0  0  0
  8 22  1  0  0  0
  9 10  1  0  0  0
  9 27  2  0  0  0
 10 11  2  0  0  0
 10 15  1  0  0  0
 11 12  1  0  0  0
 11 96  1  0  0  0
 12 13  2  0  0  0
 12 97  1  0  0  0
 13 14  1  0  0  0
 13 31  1  0  0  0
 14 15  2  0  0  0
 14 98  1  0  0  0
 15 99  1  0  0  0
 16 17  2  0  0  0
 16 21  1  0  0  0
 16 31  1  0  0  0
 17 18  1  0  0  0
 17100  1  0  0  0
 18 19  2  0  0  0
 18101  1  0  0  0
 19 20  1  0  0  0
 19 24  1  0  0  0
 20 21  2  0  0  0
 20102  1  0  0  0
 21 23  1  0  0  0
 22 28  1  0  0  0
 22 32  2  0  0  0
 26 27  1  0  0  0
 28103  1  0  0  0
 28104  1  0  0  0
 29105  1  0  0  0
 29106  1  0  0  0
 33 34  1  0  0  0
 33 66  1  0  0  0
 33 70  2  0  0  0
 34 36  1  0  0  0
 34 59  1  0  0  0
 34107  1  0  0  0
 35 44  2  0  0  0
 35 45  1  0  0  0
 35 68  1  0  0  0
 36 56  1  0  0  0
 36108  1  0  0  0
 37 39  1  0  0  0
 37 47  1  0  0  0
 37 66  1  0  0  0
 37109  1  0  0  0
 38 43  2  0  0  0
 38 46  1  0  0  0
 38 47  1  0  0  0
 39 64  1  0  0  0
 39 67  2  0  0  0
 40 52  1  0  0  0
 40 53  2  0  0  0
 40 58  1  0  0  0
 41110  1  0  0  0
 41111  1  0  0  0
 41112  1  0  0  0
 41 48  1  0  0  0
 42 43  1  0  0  0
 42 66  1  0  0  0
 42113  1  0  0  0
 42114  1  0  0  0
 43 44  1  0  0  0
 44115  1  0  0  0
 45 46  2  0  0  0
 45116  1  0  0  0
 46117  1  0  0  0
 47118  1  0  0  0
 47119  1  0  0  0
 48 56  1  0  0  0
 48 65  1  0  0  0
 48120  1  0  0  0
 49 50  1  0  0  0
 49 53  1  0  0  0
 49 64  1  0  0  0
 49121  1  0  0  0
 50 51  1  0  0  0
 50122  1  0  0  0
 50123  1  0  0  0
 51 52  1  0  0  0
 51124  1  0  0  0
 51125  1  0  0  0
 52126  1  0  0  0
 52127  1  0  0  0
 53 54  1  0  0  0
 54 55  2  0  0  0
 54128  1  0  0  0
 55 57  1  0  0  0
 55129  1  0  0  0
 56 69  2  0  0  0
 57 58  2  0  0  0
 57130  1  0  0  0
 58131  1  0  0  0
 59 60  1  0  0  0
 59 61  1  0  0  0
 59 62  1  0  0  0
 60132  1  0  0  0
 60133  1  0  0  0
 60134  1  0  0  0
 61135  1  0  0  0
 61136  1  0  0  0
 61137  1  0  0  0
 62138  1  0  0  0
 62139  1  0  0  0
 62140  1  0  0  0
 63 65  1  0  0  0
 63141  1  0  0  0
 63142  1  0  0  0
 63143  1  0  0  0
 64144  1  0  0  0
 65145  1  0  0  0
 68 80  1  0  0  0
 71 72  2  0  0  0
 71 75  1  0  0  0
 71146  1  0  0  0
 72 76  1  0  0  0
 72147  1  0  0  0
 73 74  1  0  0  0
 73 75  2  0  0  0
 73148  1  0  0  0
 74 76  2  0  0  0
 74 81  1  0  0  0
 75 84  1  0  0  0
 76 83  1  0  0  0
 77 80  1  0  0  0
 77 82  1  0  0  0
 77 86  2  0  0  0
 78149  1  0  0  0
 78150  1  0  0  0
 78151  1  0  0  0
 78 81  1  0  0  0
 79152  1  0  0  0
 79153  1  0  0  0
 79154  1  0  0  0
 79 82  1  0  0  0
 80155  1  0  0  0
 80156  1  0  0  0
 81 85  1  0  0  0
 81157  1  0  0  0
 82 85  1  0  0  0
 82158  1  0  0  0
 83159  1  0  0  0
 83160  1  0  0  0
 84161  1  0  0  0
 85162  1  0  0  0
 85163  1  0  0  0
M  CHG  1  85   1
M  ISO  4   1 100  68 101  80 101  84 100
M  END
> <chiral flag>
0

> <version>
0

> <s_m_source_file>
/data/baiqing/PycharmProjects/Reinvent-master-3.2/result/LINK_invent/BTK/process_docking_weight1_custom_product_contain_oxygen_bond_distance_aromatic_linkinvent_7_9_3/rearranged_h_0171.sdf

> <i_m_source_file_index>
51

> <r_mmod_Potential_Energy-OPLS-2005>
-215.253067016602

> <r_mmod_Stretch_Energy-OPLS-2005>
61.9732360839844

> <r_mmod_Bend_Energy-OPLS-2005>
123.528060913086

> <r_mmod_Torsional_Energy-OPLS-2005>
290.769409179688

> <r_mmod_Improper_Torsional_Energy-OPLS-2005>
16.3559246063232

> <r_mmod_Van_der_Waal_Energy-OPLS-2005>
136.075653076172

> <r_mmod_Electrostatic_Energy-OPLS-2005>
-406.581024169922

> <r_mmod_Solvation_Energy-OPLS-2005>
-468.171752929688

> <b_mmod_Minimization_Converged-OPLS-2005>
0

> <r_mmod_RMS_Derivative-OPLS-2005>
3.12800598144531

$$$$
51
                    3D
 Structure written by MMmdl.
158166  0  0  1  0            999 V2000
  -30.6591  -14.5551   20.5371 C   0  0  0  0  0  0
  -30.4312  -12.3510   19.4288 C   0  0  0  0  0  0
  -29.4979  -12.5005   18.2087 C   0  0  0  0  0  0
  -28.0210  -12.3475   18.6255 C   0  0  0  0  0  0
  -27.6545  -13.2086   19.8637 C   0  0  2  0  0  0
  -28.7001  -13.0342   20.9880 C   0  0  0  0  0  0
  -25.2570  -13.8160   20.5671 C   0  0  0  0  0  0
  -24.1834  -13.0437   20.9194 C   0  0  0  0  0  0
  -24.6392  -11.6903   20.8748 C   0  0  0  0  0  0
  -23.9062  -10.4290   21.0416 C   0  0  0  0  0  0
  -24.3614   -9.4205   21.9193 C   0  0  0  0  0  0
  -23.6290   -8.2240   22.0756 C   0  0  0  0  0  0
  -22.4271   -8.0283   21.3545 C   0  0  0  0  0  0
  -21.9911   -9.0257   20.4646 C   0  0  0  0  0  0
  -22.7238  -10.2137   20.3060 C   0  0  0  0  0  0
  -21.6849   -6.0739   22.5282 C   0  0  0  0  0  0
  -21.4010   -6.5641   23.8216 C   0  0  0  0  0  0
  -21.3661   -5.6793   24.9178 C   0  0  0  0  0  0
  -21.6043   -4.3056   24.7227 C   0  0  0  0  0  0
  -21.8820   -3.8150   23.4346 C   0  0  0  0  0  0
  -21.9190   -4.6967   22.3402 C   0  0  0  0  0  0
  -22.7857  -13.5235   21.1861 C   0  0  0  0  0  0
  -22.1660   -4.2152   21.0980 F   0  0  0  0  0  0
  -21.5630   -3.4540   25.7740 F   0  0  0  0  0  0
  -30.0176  -13.3570   20.4204 N   0  0  0  0  0  0
  -26.2992  -12.9327   20.3319 N   0  0  0  0  0  0
  -25.9316  -11.6491   20.5759 N   0  0  0  0  0  0
  -22.0496  -12.8219   22.0407 N   0  0  0  0  0  0
  -25.4279  -15.1882   20.4065 N   0  0  0  0  0  0
  -31.8282  -14.7135   20.1736 O   0  0  0  0  0  0
  -21.6637   -6.8880   21.4241 O   0  0  0  0  0  0
  -22.3550  -14.5549   20.6716 O   0  0  0  0  0  0
  -24.6181  -31.8641   23.2066 C   0  0  0  0  0  0
  -25.9057  -32.4801   23.8377 C   0  0  1  0  0  0
  -27.2329  -27.3884   20.1156 C   0  0  0  0  0  0
  -25.5900  -33.8600   24.2311 N   0  0  0  0  0  0
  -23.4088  -30.4851   21.5489 C   0  0  2  0  0  0
  -24.8567  -28.9403   20.1210 C   0  0  0  0  0  0
  -22.7427  -29.4639   22.4993 C   0  0  0  0  0  0
  -18.0271  -28.1368   22.8493 C   0  0  0  0  0  0
  -24.1487  -36.7312   23.2642 C   0  0  0  0  0  0
  -25.9410  -30.8173   21.3642 C   0  0  0  0  0  0
  -26.0200  -29.4453   20.7174 C   0  0  0  0  0  0
  -27.2144  -28.6796   20.7057 C   0  0  0  0  0  0
  -26.0528  -26.9067   19.5142 C   0  0  0  0  0  0
  -24.8702  -27.6724   19.5139 C   0  0  0  0  0  0
  -23.6197  -29.8119   20.1664 C   0  0  0  0  0  0
  -25.4108  -36.3103   24.0339 C   0  0  1  0  0  0
  -20.5861  -28.3665   23.1313 C   0  0  2  0  0  0
  -20.6759  -26.9403   22.5415 C   0  0  0  0  0  0
  -19.5741  -26.6383   21.5209 C   0  0  0  0  0  0
  -18.1918  -26.7915   22.1619 C   0  0  0  0  0  0
  -19.1519  -28.8835   23.2893 C   0  0  0  0  0  0
  -18.9450  -30.1439   23.8907 C   0  0  0  0  0  0
  -17.6454  -30.6582   24.0560 C   0  0  0  0  0  0
  -25.9037  -34.9466   23.5127 C   0  0  0  0  0  0
  -16.5343  -29.9082   23.6328 C   0  0  0  0  0  0
  -16.7258  -28.6493   23.0360 C   0  0  0  0  0  0
  -26.4479  -31.6584   25.0711 C   0  0  0  0  0  0
  -25.3744  -31.3672   26.1454 C   0  0  0  0  0  0
  -27.0325  -30.3032   24.6093 C   0  0  0  0  0  0
  -27.6047  -32.4311   25.7476 C   0  0  0  0  0  0
  -27.5582  -37.1808   24.8467 C   0  0  0  0  0  0
  -21.4151  -29.3030   22.3727 N   0  0  0  0  0  0
  -26.4295  -37.3788   23.9407 N   0  0  0  0  0  0
  -24.6748  -31.0708   22.0982 N   0  0  0  0  0  0
  -23.4180  -28.8181   23.3051 O   0  0  0  0  0  0
  -28.3832  -26.6189   20.0623 O   0  0  0  0  0  0
  -26.5606  -34.8925   22.4694 O   0  0  0  0  0  0
  -23.5362  -32.1409   23.7435 O   0  0  0  0  0  0
  -31.5239  -18.6523   22.3108 C   0  0  0  0  0  0
  -30.9261  -19.6950   21.5740 C   0  0  0  0  0  0
  -31.1920  -17.3074   22.0530 C   0  0  0  0  0  0
  -29.9669  -19.4154   20.5770 C   0  0  0  0  0  0
  -30.2402  -16.9829   21.0623 C   0  0  0  0  0  0
  -29.6136  -18.0471   20.3444 C   0  0  0  0  0  0
  -28.3678  -24.0734   20.2488 C   0  0  0  0  0  0
  -28.8500  -22.7757   22.4289 C   0  0  0  0  0  0
  -29.4607  -20.5721   19.6754 C   0  0  0  0  0  0
  -28.4526  -25.4688   20.9517 C   0  0  0  0  0  0
  -29.0717  -22.8262   20.9034 C   0  0  1  0  0  0
  -29.8645  -15.6092   20.8517 N   0  0  0  0  0  0
  -28.5265  -21.5927   20.2513 N   0  3  0  0  0  0
  -27.7463  -23.9568   19.1864 O   0  0  0  0  0  0
  -28.6922  -17.7427   19.3982 F   0  0  0  0  0  0
  -31.4730  -12.4698   19.1262 H   0  0  0  0  0  0
  -30.3541  -11.3494   19.8541 H   0  0  0  0  0  0
  -29.7497  -11.7601   17.4483 H   0  0  0  0  0  0
  -29.6487  -13.4768   17.7452 H   0  0  0  0  0  0
  -27.8489  -11.2935   18.8462 H   0  0  0  0  0  0
  -27.3659  -12.5921   17.7888 H   0  0  0  0  0  0
  -27.6811  -14.2475   19.5348 H   0  0  0  0  0  0
  -28.6977  -12.0083   21.3589 H   0  0  0  0  0  0
  -28.4611  -13.6609   21.8489 H   0  0  0  0  0  0
  -25.2759   -9.5682   22.4768 H   0  0  0  0  0  0
  -23.9999   -7.4632   22.7475 H   0  0  0  0  0  0
  -21.0843   -8.8778   19.8950 H   0  0  0  0  0  0
  -22.3701  -10.9678   19.6169 H   0  0  0  0  0  0
  -21.2002   -7.6151   23.9720 H   0  0  0  0  0  0
  -21.1481   -6.0525   25.9082 H   0  0  0  0  0  0
  -22.0597   -2.7610   23.2847 H   0  0  0  0  0  0
  -22.4104  -11.9864   22.4773 H   0  0  0  0  0  0
  -21.1119  -13.1254   22.2627 H   0  0  0  0  0  0
  -24.6558  -15.8377   20.5086 H   0  0  0  0  0  0
  -26.2667  -15.6276   20.0492 H   0  0  0  0  0  0
  -26.7128  -32.5507   23.1135 H   0  0  0  0  0  0
  -25.0043  -33.9751   25.0453 H   0  0  0  0  0  0
  -22.6993  -31.3026   21.4057 H   0  0  0  0  0  0
  -23.3745  -35.9651   23.3308 H   0  0  0  0  0  0
  -24.3580  -36.8925   22.2055 H   0  0  0  0  0  0
  -23.7243  -37.6520   23.6655 H   0  0  0  0  0  0
  -26.0536  -31.5781   20.5902 H   0  0  0  0  0  0
  -26.8279  -30.8760   21.9831 H   0  0  0  0  0  0
  -28.1164  -29.0707   21.1560 H   0  0  0  0  0  0
  -26.0474  -25.9375   19.0366 H   0  0  0  0  0  0
  -23.9778  -27.2793   19.0457 H   0  0  0  0  0  0
  -23.7286  -30.5831   19.4028 H   0  0  0  0  0  0
  -22.7427  -29.2311   19.8742 H   0  0  0  0  0  0
  -25.1281  -36.1973   25.0833 H   0  0  0  0  0  0
  -20.9939  -28.3232   24.1437 H   0  0  0  0  0  0
  -20.5670  -26.2269   23.3597 H   0  0  0  0  0  0
  -21.6629  -26.7449   22.1202 H   0  0  0  0  0  0
  -19.6907  -25.6298   21.1231 H   0  0  0  0  0  0
  -19.6683  -27.3197   20.6741 H   0  0  0  0  0  0
  -17.4190  -26.6667   21.4019 H   0  0  0  0  0  0
  -18.0317  -26.0046   22.9003 H   0  0  0  0  0  0
  -19.7930  -30.7239   24.2290 H   0  0  0  0  0  0
  -17.5017  -31.6270   24.5149 H   0  0  0  0  0  0
  -15.5345  -30.2994   23.7645 H   0  0  0  0  0  0
  -15.8651  -28.0812   22.7087 H   0  0  0  0  0  0
  -24.5924  -30.7015   25.7781 H   0  0  0  0  0  0
  -24.8921  -32.2812   26.4927 H   0  0  0  0  0  0
  -25.8098  -30.8824   27.0201 H   0  0  0  0  0  0
  -26.2872  -29.6765   24.1176 H   0  0  0  0  0  0
  -27.4136  -29.7289   25.4547 H   0  0  0  0  0  0
  -27.8686  -30.4357   23.9220 H   0  0  0  0  0  0
  -27.2669  -33.3612   26.2060 H   0  0  0  0  0  0
  -28.3851  -32.6867   25.0296 H   0  0  0  0  0  0
  -28.0722  -31.8430   26.5384 H   0  0  0  0  0  0
  -28.2597  -38.0108   24.7522 H   0  0  0  0  0  0
  -28.1080  -36.2637   24.6288 H   0  0  0  0  0  0
  -27.2297  -37.1455   25.8871 H   0  0  0  0  0  0
  -20.9321  -29.8757   21.6946 H   0  0  0  0  0  0
  -26.0186  -38.2872   24.1397 H   0  0  0  0  0  0
  -32.2578  -18.8845   23.0705 H   0  0  0  0  0  0
  -31.2357  -20.7139   21.7619 H   0  0  0  0  0  0
  -31.6653  -16.5267   22.6320 H   0  0  0  0  0  0
  -29.3354  -23.6136   22.9300 H   0  0  0  0  0  0
  -29.2704  -21.8675   22.8606 H   0  0  0  0  0  0
  -27.7908  -22.8025   22.6879 H   0  0  0  0  0  0
  -28.9403  -20.1215   18.8297 H   0  0  0  0  0  0
  -30.3214  -21.0768   19.2351 H   0  0  0  0  0  0
  -29.3983  -25.5237   21.4906 H   0  0  0  0  0  0
  -27.6652  -25.5277   21.7041 H   0  0  0  0  0  0
  -30.1400  -22.8934   20.6968 H   0  0  0  0  0  0
  -28.8773  -15.4118   20.8909 H   0  0  0  0  0  0
  -27.8276  -21.1542   20.8261 H   0  0  0  0  0  0
  -28.0359  -21.9890   19.4592 H   0  0  0  0  0  0
  1 25  1  0  0  0
  1 30  2  0  0  0
  1 82  1  0  0  0
  2  3  1  0  0  0
  2 25  1  0  0  0
  2 86  1  0  0  0
  2 87  1  0  0  0
  3  4  1  0  0  0
  3 88  1  0  0  0
  3 89  1  0  0  0
  4  5  1  0  0  0
  4 90  1  0  0  0
  4 91  1  0  0  0
  5  6  1  0  0  0
  5 26  1  0  0  0
  5 92  1  0  0  0
  6 25  1  0  0  0
  6 93  1  0  0  0
  6 94  1  0  0  0
  7  8  2  0  0  0
  7 26  1  0  0  0
  7 29  1  0  0  0
  8  9  1  0  0  0
  8 22  1  0  0  0
  9 10  1  0  0  0
  9 27  2  0  0  0
 10 11  2  0  0  0
 10 15  1  0  0  0
 11 12  1  0  0  0
 11 95  1  0  0  0
 12 13  2  0  0  0
 12 96  1  0  0  0
 13 14  1  0  0  0
 13 31  1  0  0  0
 14 15  2  0  0  0
 14 97  1  0  0  0
 15 98  1  0  0  0
 16 17  2  0  0  0
 16 21  1  0  0  0
 16 31  1  0  0  0
 17 18  1  0  0  0
 17 99  1  0  0  0
 18 19  2  0  0  0
 18100  1  0  0  0
 19 20  1  0  0  0
 19 24  1  0  0  0
 20 21  2  0  0  0
 20101  1  0  0  0
 21 23  1  0  0  0
 22 28  1  0  0  0
 22 32  2  0  0  0
 26 27  1  0  0  0
 28102  1  0  0  0
 28103  1  0  0  0
 29104  1  0  0  0
 29105  1  0  0  0
 33 34  1  0  0  0
 33 66  1  0  0  0
 33 70  2  0  0  0
 34 36  1  0  0  0
 34 59  1  0  0  0
 34106  1  0  0  0
 35 44  2  0  0  0
 35 45  1  0  0  0
 35 68  1  0  0  0
 36 56  1  0  0  0
 36107  1  0  0  0
 37 39  1  0  0  0
 37 47  1  0  0  0
 37 66  1  0  0  0
 37108  1  0  0  0
 38 43  2  0  0  0
 38 46  1  0  0  0
 38 47  1  0  0  0
 39 64  1  0  0  0
 39 67  2  0  0  0
 40 52  1  0  0  0
 40 53  2  0  0  0
 40 58  1  0  0  0
 41109  1  0  0  0
 41110  1  0  0  0
 41111  1  0  0  0
 41 48  1  0  0  0
 42 43  1  0  0  0
 42 66  1  0  0  0
 42112  1  0  0  0
 42113  1  0  0  0
 43 44  1  0  0  0
 44114  1  0  0  0
 45 46  2  0  0  0
 45115  1  0  0  0
 46116  1  0  0  0
 47117  1  0  0  0
 47118  1  0  0  0
 48 56  1  0  0  0
 48 65  1  0  0  0
 48119  1  0  0  0
 49 50  1  0  0  0
 49 53  1  0  0  0
 49 64  1  0  0  0
 49120  1  0  0  0
 50 51  1  0  0  0
 50121  1  0  0  0
 50122  1  0  0  0
 51 52  1  0  0  0
 51123  1  0  0  0
 51124  1  0  0  0
 52125  1  0  0  0
 52126  1  0  0  0
 53 54  1  0  0  0
 54 55  2  0  0  0
 54127  1  0  0  0
 55 57  1  0  0  0
 55128  1  0  0  0
 56 69  2  0  0  0
 57 58  2  0  0  0
 57129  1  0  0  0
 58130  1  0  0  0
 59 60  1  0  0  0
 59 61  1  0  0  0
 59 62  1  0  0  0
 60131  1  0  0  0
 60132  1  0  0  0
 60133  1  0  0  0
 61134  1  0  0  0
 61135  1  0  0  0
 61136  1  0  0  0
 62137  1  0  0  0
 62138  1  0  0  0
 62139  1  0  0  0
 63 65  1  0  0  0
 63140  1  0  0  0
 63141  1  0  0  0
 63142  1  0  0  0
 64143  1  0  0  0
 65144  1  0  0  0
 68 80  1  0  0  0
 71 72  2  0  0  0
 71 73  1  0  0  0
 71145  1  0  0  0
 72 74  1  0  0  0
 72146  1  0  0  0
 73 75  2  0  0  0
 73147  1  0  0  0
 74 76  2  0  0  0
 74 79  1  0  0  0
 75 76  1  0  0  0
 75 82  1  0  0  0
 76 85  1  0  0  0
 77 80  1  0  0  0
 77 81  1  0  0  0
 77 84  2  0  0  0
 78148  1  0  0  0
 78149  1  0  0  0
 78150  1  0  0  0
 78 81  1  0  0  0
 79 83  1  0  0  0
 79151  1  0  0  0
 79152  1  0  0  0
 80153  1  0  0  0
 80154  1  0  0  0
 81 83  1  0  0  0
 81155  1  0  0  0
 82156  1  0  0  0
 83157  1  0  0  0
 83158  1  0  0  0
M  CHG  1  83   1
M  ISO  4   1 100  68 101  80 101  82 100
M  END
> <chiral flag>
0

> <version>
0

> <s_m_source_file>
/data/baiqing/PycharmProjects/Reinvent-master-3.2/result/LINK_invent/BTK/process_docking_weight1_custom_product_contain_oxygen_bond_distance_aromatic_linkinvent_7_9_3/rearranged_h_0171.sdf

> <i_m_source_file_index>
52

> <r_mmod_Potential_Energy-OPLS-2005>
-287.501525878906

> <r_mmod_Stretch_Energy-OPLS-2005>
51.8749580383301

> <r_mmod_Bend_Energy-OPLS-2005>
111.126777648926

> <r_mmod_Torsional_Energy-OPLS-2005>
266.517791748047

> <r_mmod_Improper_Torsional_Energy-OPLS-2005>
6.05645036697388

> <r_mmod_Van_der_Waal_Energy-OPLS-2005>
137.668258666992

> <r_mmod_Electrostatic_Energy-OPLS-2005>
-404.077423095703

> <r_mmod_Solvation_Energy-OPLS-2005>
-480.604797363281

> <b_mmod_Minimization_Converged-OPLS-2005>
0

> <r_mmod_RMS_Derivative-OPLS-2005>
0.703182220458984

$$$$
52
                    3D
 Structure written by MMmdl.
162170  0  0  1  0            999 V2000
  -30.7652  -14.3917   20.6407 C   0  0  0  0  0  0
  -30.4095  -12.2873   19.4054 C   0  0  0  0  0  0
  -29.4843  -12.5208   18.1968 C   0  0  0  0  0  0
  -28.0074  -12.3829   18.6116 C   0  0  0  0  0  0
  -27.6642  -13.2083   19.8806 C   0  0  2  0  0  0
  -28.7048  -12.9688   20.9983 C   0  0  0  0  0  0
  -25.2593  -13.8168   20.5682 C   0  0  0  0  0  0
  -24.1843  -13.0444   20.9167 C   0  0  0  0  0  0
  -24.6396  -11.6912   20.8729 C   0  0  0  0  0  0
  -23.9059  -10.4294   21.0398 C   0  0  0  0  0  0
  -24.3612   -9.4211   21.9181 C   0  0  0  0  0  0
  -23.6290   -8.2244   22.0755 C   0  0  0  0  0  0
  -22.4271   -8.0276   21.3543 C   0  0  0  0  0  0
  -21.9904   -9.0249   20.4645 C   0  0  0  0  0  0
  -22.7230  -10.2132   20.3051 C   0  0  0  0  0  0
  -21.6854   -6.0735   22.5279 C   0  0  0  0  0  0
  -21.4013   -6.5641   23.8213 C   0  0  0  0  0  0
  -21.3660   -5.6793   24.9174 C   0  0  0  0  0  0
  -21.6042   -4.3053   24.7223 C   0  0  0  0  0  0
  -21.8822   -3.8146   23.4345 C   0  0  0  0  0  0
  -21.9194   -4.6964   22.3401 C   0  0  0  0  0  0
  -22.7864  -13.5242   21.1828 C   0  0  0  0  0  0
  -22.1663   -4.2153   21.0976 F   0  0  0  0  0  0
  -21.5629   -3.4534   25.7734 F   0  0  0  0  0  0
  -30.0428  -13.2558   20.4509 N   0  0  0  0  0  0
  -26.3036  -12.9343   20.3392 N   0  0  0  0  0  0
  -25.9324  -11.6496   20.5764 N   0  0  0  0  0  0
  -22.0498  -12.8244   22.0384 N   0  0  0  0  0  0
  -25.4310  -15.1883   20.4086 N   0  0  0  0  0  0
  -31.8225  -14.6114   20.0414 O   0  0  0  0  0  0
  -21.6638   -6.8875   21.4237 O   0  0  0  0  0  0
  -22.3557  -14.5546   20.6670 O   0  0  0  0  0  0
  -24.6141  -31.8685   23.2130 C   0  0  0  0  0  0
  -25.9041  -32.4820   23.8417 C   0  0  1  0  0  0
  -27.2289  -27.4351   20.0885 C   0  0  0  0  0  0
  -25.5906  -33.8622   24.2348 N   0  0  0  0  0  0
  -23.4009  -30.4953   21.5526 C   0  0  2  0  0  0
  -24.8437  -28.9647   20.1160 C   0  0  0  0  0  0
  -22.7403  -29.4664   22.4982 C   0  0  0  0  0  0
  -18.0272  -28.1376   22.8500 C   0  0  0  0  0  0
  -24.1484  -36.7307   23.2639 C   0  0  0  0  0  0
  -25.9323  -30.8300   21.3719 C   0  0  0  0  0  0
  -26.0041  -29.4663   20.7174 C   0  0  0  0  0  0
  -27.1953  -28.7069   20.7052 C   0  0  0  0  0  0
  -26.0487  -26.9583   19.4656 C   0  0  0  0  0  0
  -24.8609  -27.7089   19.4904 C   0  0  0  0  0  0
  -23.6084  -29.8325   20.1655 C   0  0  0  0  0  0
  -25.4105  -36.3107   24.0340 C   0  0  1  0  0  0
  -20.5865  -28.3652   23.1320 C   0  0  2  0  0  0
  -20.6762  -26.9390   22.5413 C   0  0  0  0  0  0
  -19.5736  -26.6387   21.5213 C   0  0  0  0  0  0
  -18.1917  -26.7929   22.1625 C   0  0  0  0  0  0
  -19.1523  -28.8833   23.2911 C   0  0  0  0  0  0
  -18.9450  -30.1445   23.8910 C   0  0  0  0  0  0
  -17.6452  -30.6585   24.0565 C   0  0  0  0  0  0
  -25.9029  -34.9472   23.5134 C   0  0  0  0  0  0
  -16.5344  -29.9089   23.6329 C   0  0  0  0  0  0
  -16.7258  -28.6506   23.0352 C   0  0  0  0  0  0
  -26.4476  -31.6606   25.0745 C   0  0  0  0  0  0
  -25.3751  -31.3715   26.1500 C   0  0  0  0  0  0
  -27.0314  -30.3046   24.6138 C   0  0  0  0  0  0
  -27.6044  -32.4336   25.7507 C   0  0  0  0  0  0
  -27.5578  -37.1813   24.8465 C   0  0  0  0  0  0
  -21.4131  -29.3028   22.3730 N   0  0  0  0  0  0
  -26.4288  -37.3793   23.9408 N   0  0  0  0  0  0
  -24.6666  -31.0799   22.1027 N   0  0  0  0  0  0
  -23.4188  -28.8194   23.3007 O   0  0  0  0  0  0
  -28.4163  -26.7282   20.1047 O   0  0  0  0  0  0
  -26.5584  -34.8917   22.4695 O   0  0  0  0  0  0
  -23.5337  -32.1429   23.7536 O   0  0  0  0  0  0
  -29.9795  -17.6840   22.0009 C   0  0  0  0  0  0
  -31.9148  -19.0486   22.5926 C   0  0  0  0  0  0
  -32.1985  -16.6780   22.1150 C   0  0  0  0  0  0
  -30.5257  -18.9460   22.3413 C   0  0  0  0  0  0
  -30.8126  -16.5482   21.8564 C   0  0  0  0  0  0
  -32.7447  -17.9207   22.4789 C   0  0  0  0  0  0
  -29.0602  -24.5344   20.9896 C   0  0  0  0  0  0
  -29.9101  -21.3714   22.3058 C   0  0  0  0  0  0
  -27.4920  -21.6694   23.0970 C   0  0  0  0  0  0
  -29.2355  -23.2773   23.8191 C   0  0  0  0  0  0
  -28.4225  -23.1679   21.3197 C   0  0  0  0  0  0
  -28.3833  -25.3133   19.8550 C   0  0  0  0  0  0
  -28.7857  -22.3896   22.6317 C   0  0  0  0  0  0
  -29.6451  -20.0601   22.4724 N   0  0  0  0  0  0
  -30.2361  -15.2955   21.4854 N   0  0  0  0  0  0
  -30.0724  -24.9704   21.5461 O   0  0  0  0  0  0
  -30.9894  -21.7886   21.8798 O   0  0  0  0  0  0
  -34.0728  -18.0298   22.7239 F   0  0  0  0  0  0
  -31.4549  -12.3683   19.1023 H   0  0  0  0  0  0
  -30.2927  -11.2704   19.7833 H   0  0  0  0  0  0
  -29.7181  -11.8126   17.4006 H   0  0  0  0  0  0
  -29.6598  -13.5152   17.7830 H   0  0  0  0  0  0
  -27.8099  -11.3254   18.7902 H   0  0  0  0  0  0
  -27.3573  -12.6778   17.7868 H   0  0  0  0  0  0
  -27.7167  -14.2611   19.6012 H   0  0  0  0  0  0
  -28.6684  -11.9299   21.3294 H   0  0  0  0  0  0
  -28.4641  -13.5608   21.8818 H   0  0  0  0  0  0
  -25.2762   -9.5693   22.4751 H   0  0  0  0  0  0
  -24.0006   -7.4640   22.7476 H   0  0  0  0  0  0
  -21.0835   -8.8757   19.8953 H   0  0  0  0  0  0
  -22.3682  -10.9663   19.6156 H   0  0  0  0  0  0
  -21.2002   -7.6150   23.9719 H   0  0  0  0  0  0
  -21.1482   -6.0519   25.9080 H   0  0  0  0  0  0
  -22.0599   -2.7607   23.2838 H   0  0  0  0  0  0
  -22.4102  -11.9903   22.4782 H   0  0  0  0  0  0
  -21.1113  -13.1274   22.2571 H   0  0  0  0  0  0
  -24.6641  -15.8436   20.5121 H   0  0  0  0  0  0
  -26.2858  -15.6264   20.0881 H   0  0  0  0  0  0
  -26.7109  -32.5518   23.1173 H   0  0  0  0  0  0
  -25.0087  -33.9798   25.0515 H   0  0  0  0  0  0
  -22.6890  -31.3118   21.4168 H   0  0  0  0  0  0
  -23.3743  -35.9643   23.3315 H   0  0  0  0  0  0
  -24.3574  -36.8902   22.2046 H   0  0  0  0  0  0
  -23.7242  -37.6522   23.6642 H   0  0  0  0  0  0
  -26.0580  -31.5972   20.6068 H   0  0  0  0  0  0
  -26.8163  -30.8735   21.9961 H   0  0  0  0  0  0
  -28.0901  -29.0897   21.1761 H   0  0  0  0  0  0
  -26.0108  -26.0244   18.9267 H   0  0  0  0  0  0
  -23.9717  -27.3240   19.0102 H   0  0  0  0  0  0
  -23.7207  -30.6091   19.4079 H   0  0  0  0  0  0
  -22.7305  -29.2561   19.8665 H   0  0  0  0  0  0
  -25.1290  -36.1966   25.0833 H   0  0  0  0  0  0
  -20.9969  -28.3207   24.1434 H   0  0  0  0  0  0
  -20.5672  -26.2250   23.3593 H   0  0  0  0  0  0
  -21.6632  -26.7433   22.1197 H   0  0  0  0  0  0
  -19.6881  -25.6306   21.1218 H   0  0  0  0  0  0
  -19.6677  -27.3216   20.6760 H   0  0  0  0  0  0
  -17.4189  -26.6683   21.4019 H   0  0  0  0  0  0
  -18.0305  -26.0072   22.9015 H   0  0  0  0  0  0
  -19.7924  -30.7264   24.2278 H   0  0  0  0  0  0
  -17.5005  -31.6263   24.5168 H   0  0  0  0  0  0
  -15.5345  -30.2994   23.7657 H   0  0  0  0  0  0
  -15.8651  -28.0831   22.7061 H   0  0  0  0  0  0
  -24.5908  -30.7073   25.7849 H   0  0  0  0  0  0
  -24.8966  -32.2877   26.4970 H   0  0  0  0  0  0
  -25.8115  -30.8871   27.0244 H   0  0  0  0  0  0
  -26.2864  -29.6796   24.1194 H   0  0  0  0  0  0
  -27.4080  -29.7285   25.4603 H   0  0  0  0  0  0
  -27.8707  -30.4361   23.9302 H   0  0  0  0  0  0
  -27.2648  -33.3615   26.2123 H   0  0  0  0  0  0
  -28.3838  -32.6932   25.0332 H   0  0  0  0  0  0
  -28.0737  -31.8444   26.5396 H   0  0  0  0  0  0
  -28.2610  -38.0097   24.7515 H   0  0  0  0  0  0
  -28.1067  -36.2635   24.6299 H   0  0  0  0  0  0
  -27.2300  -37.1470   25.8869 H   0  0  0  0  0  0
  -20.9271  -29.8762   21.6973 H   0  0  0  0  0  0
  -26.0174  -38.2870   24.1411 H   0  0  0  0  0  0
  -28.9171  -17.5928   21.8206 H   0  0  0  0  0  0
  -32.3644  -19.9843   22.8886 H   0  0  0  0  0  0
  -32.8617  -15.8286   22.0407 H   0  0  0  0  0  0
  -27.6514  -21.0737   23.9978 H   0  0  0  0  0  0
  -27.0872  -21.0120   22.3261 H   0  0  0  0  0  0
  -26.7116  -22.3914   23.3397 H   0  0  0  0  0  0
  -29.2561  -22.7098   24.7507 H   0  0  0  0  0  0
  -28.5606  -24.1208   23.9675 H   0  0  0  0  0  0
  -30.2416  -23.6755   23.6874 H   0  0  0  0  0  0
  -28.5957  -22.5242   20.4560 H   0  0  0  0  0  0
  -27.3473  -23.3445   21.3154 H   0  0  0  0  0  0
  -27.3845  -24.8990   19.7581 H   0  0  0  0  0  0
  -28.9086  -25.1039   18.9235 H   0  0  0  0  0  0
  -28.6826  -19.8490   22.6988 H   0  0  0  0  0  0
  -29.3053  -15.0943   21.8200 H   0  0  0  0  0  0
  1 25  1  0  0  0
  1 30  2  0  0  0
  1 85  1  0  0  0
  2  3  1  0  0  0
  2 25  1  0  0  0
  2 89  1  0  0  0
  2 90  1  0  0  0
  3  4  1  0  0  0
  3 91  1  0  0  0
  3 92  1  0  0  0
  4  5  1  0  0  0
  4 93  1  0  0  0
  4 94  1  0  0  0
  5  6  1  0  0  0
  5 26  1  0  0  0
  5 95  1  0  0  0
  6 25  1  0  0  0
  6 96  1  0  0  0
  6 97  1  0  0  0
  7  8  2  0  0  0
  7 26  1  0  0  0
  7 29  1  0  0  0
  8  9  1  0  0  0
  8 22  1  0  0  0
  9 10  1  0  0  0
  9 27  2  0  0  0
 10 11  2  0  0  0
 10 15  1  0  0  0
 11 12  1  0  0  0
 11 98  1  0  0  0
 12 13  2  0  0  0
 12 99  1  0  0  0
 13 14  1  0  0  0
 13 31  1  0  0  0
 14 15  2  0  0  0
 14100  1  0  0  0
 15101  1  0  0  0
 16 17  2  0  0  0
 16 21  1  0  0  0
 16 31  1  0  0  0
 17 18  1  0  0  0
 17102  1  0  0  0
 18 19  2  0  0  0
 18103  1  0  0  0
 19 20  1  0  0  0
 19 24  1  0  0  0
 20 21  2  0  0  0
 20104  1  0  0  0
 21 23  1  0  0  0
 22 28  1  0  0  0
 22 32  2  0  0  0
 26 27  1  0  0  0
 28105  1  0  0  0
 28106  1  0  0  0
 29107  1  0  0  0
 29108  1  0  0  0
 33 34  1  0  0  0
 33 66  1  0  0  0
 33 70  2  0  0  0
 34 36  1  0  0  0
 34 59  1  0  0  0
 34109  1  0  0  0
 35 44  2  0  0  0
 35 45  1  0  0  0
 35 68  1  0  0  0
 36 56  1  0  0  0
 36110  1  0  0  0
 37 39  1  0  0  0
 37 47  1  0  0  0
 37 66  1  0  0  0
 37111  1  0  0  0
 38 43  2  0  0  0
 38 46  1  0  0  0
 38 47  1  0  0  0
 39 64  1  0  0  0
 39 67  2  0  0  0
 40 52  1  0  0  0
 40 53  2  0  0  0
 40 58  1  0  0  0
 41112  1  0  0  0
 41113  1  0  0  0
 41114  1  0  0  0
 41 48  1  0  0  0
 42 43  1  0  0  0
 42 66  1  0  0  0
 42115  1  0  0  0
 42116  1  0  0  0
 43 44  1  0  0  0
 44117  1  0  0  0
 45 46  2  0  0  0
 45118  1  0  0  0
 46119  1  0  0  0
 47120  1  0  0  0
 47121  1  0  0  0
 48 56  1  0  0  0
 48 65  1  0  0  0
 48122  1  0  0  0
 49 50  1  0  0  0
 49 53  1  0  0  0
 49 64  1  0  0  0
 49123  1  0  0  0
 50 51  1  0  0  0
 50124  1  0  0  0
 50125  1  0  0  0
 51 52  1  0  0  0
 51126  1  0  0  0
 51127  1  0  0  0
 52128  1  0  0  0
 52129  1  0  0  0
 53 54  1  0  0  0
 54 55  2  0  0  0
 54130  1  0  0  0
 55 57  1  0  0  0
 55131  1  0  0  0
 56 69  2  0  0  0
 57 58  2  0  0  0
 57132  1  0  0  0
 58133  1  0  0  0
 59 60  1  0  0  0
 59 61  1  0  0  0
 59 62  1  0  0  0
 60134  1  0  0  0
 60135  1  0  0  0
 60136  1  0  0  0
 61137  1  0  0  0
 61138  1  0  0  0
 61139  1  0  0  0
 62140  1  0  0  0
 62141  1  0  0  0
 62142  1  0  0  0
 63 65  1  0  0  0
 63143  1  0  0  0
 63144  1  0  0  0
 63145  1  0  0  0
 64146  1  0  0  0
 65147  1  0  0  0
 68 82  1  0  0  0
 71 74  2  0  0  0
 71 75  1  0  0  0
 71148  1  0  0  0
 72 74  1  0  0  0
 72 76  2  0  0  0
 72149  1  0  0  0
 73 75  2  0  0  0
 73 76  1  0  0  0
 73150  1  0  0  0
 74 84  1  0  0  0
 75 85  1  0  0  0
 76 88  1  0  0  0
 77 81  1  0  0  0
 77 82  1  0  0  0
 77 86  2  0  0  0
 78 83  1  0  0  0
 78 84  1  0  0  0
 78 87  2  0  0  0
 79151  1  0  0  0
 79152  1  0  0  0
 79153  1  0  0  0
 79 83  1  0  0  0
 80 83  1  0  0  0
 80154  1  0  0  0
 80155  1  0  0  0
 80156  1  0  0  0
 81 83  1  0  0  0
 81157  1  0  0  0
 81158  1  0  0  0
 82159  1  0  0  0
 82160  1  0  0  0
 84161  1  0  0  0
 85162  1  0  0  0
M  ISO  4   1 100  68 101  82 101  85 100
M  END
> <chiral flag>
0

> <version>
0

> <s_m_source_file>
/data/baiqing/PycharmProjects/Reinvent-master-3.2/result/LINK_invent/BTK/process_docking_weight1_custom_product_contain_oxygen_bond_distance_aromatic_linkinvent_7_9_3/rearranged_h_0171.sdf

> <i_m_source_file_index>
53

> <r_mmod_Potential_Energy-OPLS-2005>
-42.1617851257324

> <r_mmod_Stretch_Energy-OPLS-2005>
39.7877388000488

> <r_mmod_Bend_Energy-OPLS-2005>
116.715911865234

> <r_mmod_Torsional_Energy-OPLS-2005>
237.160186767578

> <r_mmod_Improper_Torsional_Energy-OPLS-2005>
2.31135320663452

> <r_mmod_Van_der_Waal_Energy-OPLS-2005>
178.538299560547

> <r_mmod_Electrostatic_Energy-OPLS-2005>
-369.069213867188

> <r_mmod_Solvation_Energy-OPLS-2005>
-257.133087158203

> <b_mmod_Minimization_Converged-OPLS-2005>
0

> <r_mmod_RMS_Derivative-OPLS-2005>
1.1331102848053

$$$$
53
                    3D
 Structure written by MMmdl.
156164  0  0  1  0            999 V2000
  -30.6172  -14.7278   20.4579 C   0  0  0  0  0  0
  -30.4148  -12.4386   19.4551 C   0  0  0  0  0  0
  -29.4961  -12.4981   18.2131 C   0  0  0  0  0  0
  -28.0172  -12.3422   18.6204 C   0  0  0  0  0  0
  -27.6346  -13.2281   19.8382 C   0  0  2  0  0  0
  -28.6832  -13.1490   20.9689 C   0  0  0  0  0  0
  -25.2505  -13.8183   20.5679 C   0  0  0  0  0  0
  -24.1809  -13.0442   20.9218 C   0  0  0  0  0  0
  -24.6389  -11.6905   20.8747 C   0  0  0  0  0  0
  -23.9079  -10.4290   21.0407 C   0  0  0  0  0  0
  -24.3631   -9.4194   21.9176 C   0  0  0  0  0  0
  -23.6301   -8.2241   22.0751 C   0  0  0  0  0  0
  -22.4274   -8.0279   21.3556 C   0  0  0  0  0  0
  -21.9933   -9.0252   20.4644 C   0  0  0  0  0  0
  -22.7270  -10.2123   20.3038 C   0  0  0  0  0  0
  -21.6855   -6.0739   22.5290 C   0  0  0  0  0  0
  -21.4018   -6.5649   23.8218 C   0  0  0  0  0  0
  -21.3653   -5.6797   24.9191 C   0  0  0  0  0  0
  -21.6032   -4.3059   24.7232 C   0  0  0  0  0  0
  -21.8824   -3.8152   23.4362 C   0  0  0  0  0  0
  -21.9200   -4.6978   22.3414 C   0  0  0  0  0  0
  -22.7835  -13.5231   21.1861 C   0  0  0  0  0  0
  -22.1663   -4.2160   21.0995 F   0  0  0  0  0  0
  -21.5621   -3.4540   25.7748 F   0  0  0  0  0  0
  -29.9790  -13.5070   20.3845 N   0  0  0  0  0  0
  -26.2897  -12.9372   20.3216 N   0  0  0  0  0  0
  -25.9305  -11.6519   20.5706 N   0  0  0  0  0  0
  -22.0489  -12.8212   22.0392 N   0  0  0  0  0  0
  -25.4276  -15.1914   20.4124 N   0  0  0  0  0  0
  -31.8128  -14.7973   20.1587 O   0  0  0  0  0  0
  -21.6636   -6.8887   21.4244 O   0  0  0  0  0  0
  -22.3539  -14.5549   20.6704 O   0  0  0  0  0  0
  -24.6311  -31.8538   23.1941 C   0  0  0  0  0  0
  -25.9134  -32.4735   23.8300 C   0  0  1  0  0  0
  -27.2455  -27.2699   20.1223 C   0  0  0  0  0  0
  -25.5937  -33.8532   24.2187 N   0  0  0  0  0  0
  -23.4271  -30.4721   21.5375 C   0  0  2  0  0  0
  -24.8767  -28.9102   20.1047 C   0  0  0  0  0  0
  -22.7480  -29.4597   22.4918 C   0  0  0  0  0  0
  -18.0299  -28.1364   22.8481 C   0  0  0  0  0  0
  -24.1518  -36.7244   23.2650 C   0  0  0  0  0  0
  -25.9750  -30.7626   21.3771 C   0  0  0  0  0  0
  -26.0464  -29.3899   20.7077 C   0  0  0  0  0  0
  -27.2261  -28.5812   20.7033 C   0  0  0  0  0  0
  -26.0491  -26.8436   19.5026 C   0  0  0  0  0  0
  -24.8852  -27.6417   19.4943 C   0  0  0  0  0  0
  -23.6427  -29.7950   20.1566 C   0  0  0  0  0  0
  -25.4150  -36.3049   24.0315 C   0  0  1  0  0  0
  -20.5894  -28.3665   23.1274 C   0  0  2  0  0  0
  -20.6799  -26.9372   22.5408 C   0  0  0  0  0  0
  -19.5772  -26.6360   21.5217 C   0  0  0  0  0  0
  -18.1933  -26.7917   22.1613 C   0  0  0  0  0  0
  -19.1546  -28.8825   23.2883 C   0  0  0  0  0  0
  -18.9481  -30.1440   23.8854 C   0  0  0  0  0  0
  -17.6478  -30.6566   24.0531 C   0  0  0  0  0  0
  -25.9094  -34.9427   23.5069 C   0  0  0  0  0  0
  -16.5357  -29.9044   23.6348 C   0  0  0  0  0  0
  -16.7286  -28.6477   23.0350 C   0  0  0  0  0  0
  -26.4469  -31.6597   25.0719 C   0  0  0  0  0  0
  -25.3657  -31.3811   26.1428 C   0  0  0  0  0  0
  -27.0313  -30.2994   24.6294 C   0  0  0  0  0  0
  -27.5991  -32.4386   25.7483 C   0  0  0  0  0  0
  -27.5598  -37.1783   24.8465 C   0  0  0  0  0  0
  -21.4186  -29.3027   22.3657 N   0  0  0  0  0  0
  -26.4318  -37.3751   23.9404 N   0  0  0  0  0  0
  -24.6962  -31.0512   22.0903 N   0  0  0  0  0  0
  -23.4205  -28.8146   23.3008 O   0  0  0  0  0  0
  -28.3772  -26.4281   20.2237 O   0  0  0  0  0  0
  -26.5686  -34.8904   22.4654 O   0  0  0  0  0  0
  -23.5477  -32.1352   23.7258 O   0  0  0  0  0  0
  -29.3747  -18.4816   20.5405 C   0  0  0  0  0  0
  -31.5273  -17.6257   21.2299 C   0  0  0  0  0  0
  -31.0631  -20.0533   21.3419 C   0  0  0  0  0  0
  -30.2344  -17.3198   20.7651 C   0  0  0  0  0  0
  -29.7625  -19.8782   20.7760 C   0  0  0  0  0  0
  -31.9254  -18.9415   21.5185 C   0  0  0  0  0  0
  -31.5900  -21.3575   21.8335 C   0  0  0  0  0  0
  -28.5895  -23.7608   20.5140 C   0  0  0  0  0  0
  -30.8157  -22.0205   22.9685 C   0  0  0  0  0  0
  -29.2132  -22.3840   19.9518 C   0  0  0  0  0  0
  -28.5110  -25.0717   19.5878 C   0  0  0  0  0  0
  -29.8456  -15.8826   20.6104 N   0  0  0  0  0  0
  -28.8674  -21.0110   20.5391 N   0  0  0  0  0  0
  -32.6125  -21.9010   21.4035 O   0  0  0  0  0  0
  -28.2009  -23.8113   21.6845 O   0  0  0  0  0  0
  -33.1644  -19.1130   22.0425 F   0  0  0  0  0  0
  -31.4588  -12.5414   19.1563 H   0  0  0  0  0  0
  -30.3337  -11.4592   19.9299 H   0  0  0  0  0  0
  -29.7694  -11.7170   17.5005 H   0  0  0  0  0  0
  -29.6376  -13.4470   17.6908 H   0  0  0  0  0  0
  -27.8508  -11.2912   18.8589 H   0  0  0  0  0  0
  -27.3691  -12.5631   17.7707 H   0  0  0  0  0  0
  -27.6299  -14.2521   19.4656 H   0  0  0  0  0  0
  -28.7138  -12.1409   21.3880 H   0  0  0  0  0  0
  -28.4223  -13.8173   21.7890 H   0  0  0  0  0  0
  -25.2778   -9.5678   22.4749 H   0  0  0  0  0  0
  -24.0019   -7.4636   22.7462 H   0  0  0  0  0  0
  -21.0875   -8.8777   19.8938 H   0  0  0  0  0  0
  -22.3744  -10.9664   19.6137 H   0  0  0  0  0  0
  -21.2001   -7.6150   23.9741 H   0  0  0  0  0  0
  -21.1462   -6.0519   25.9095 H   0  0  0  0  0  0
  -22.0604   -2.7615   23.2863 H   0  0  0  0  0  0
  -22.4119  -11.9884   22.4790 H   0  0  0  0  0  0
  -21.1079  -13.1193   22.2504 H   0  0  0  0  0  0
  -24.6729  -15.8560   20.5423 H   0  0  0  0  0  0
  -26.2711  -15.6225   20.0567 H   0  0  0  0  0  0
  -26.7184  -32.5306   23.1021 H   0  0  0  0  0  0
  -25.0014  -33.9654   25.0289 H   0  0  0  0  0  0
  -22.7257  -31.2959   21.3872 H   0  0  0  0  0  0
  -23.3796  -35.9564   23.3336 H   0  0  0  0  0  0
  -24.3592  -36.8849   22.2056 H   0  0  0  0  0  0
  -23.7260  -37.6441   23.6663 H   0  0  0  0  0  0
  -26.1432  -31.5404   20.6299 H   0  0  0  0  0  0
  -26.8387  -30.7815   22.0305 H   0  0  0  0  0  0
  -28.1229  -28.9444   21.1865 H   0  0  0  0  0  0
  -25.9823  -25.8624   19.0600 H   0  0  0  0  0  0
  -23.9841  -27.2540   19.0348 H   0  0  0  0  0  0
  -23.7533  -30.5714   19.3992 H   0  0  0  0  0  0
  -22.7619  -29.2235   19.8596 H   0  0  0  0  0  0
  -25.1354  -36.1880   25.0814 H   0  0  0  0  0  0
  -20.9994  -28.3243   24.1392 H   0  0  0  0  0  0
  -20.5735  -26.2232   23.3606 H   0  0  0  0  0  0
  -21.6653  -26.7435   22.1151 H   0  0  0  0  0  0
  -19.6931  -25.6271   21.1231 H   0  0  0  0  0  0
  -19.6720  -27.3176   20.6750 H   0  0  0  0  0  0
  -17.4214  -26.6684   21.3996 H   0  0  0  0  0  0
  -18.0311  -26.0044   22.9005 H   0  0  0  0  0  0
  -19.7953  -30.7273   24.2184 H   0  0  0  0  0  0
  -17.5025  -31.6244   24.5119 H   0  0  0  0  0  0
  -15.5340  -30.2909   23.7717 H   0  0  0  0  0  0
  -15.8699  -28.0778   22.7071 H   0  0  0  0  0  0
  -24.5834  -30.7149   25.7774 H   0  0  0  0  0  0
  -24.8830  -32.2999   26.4778 H   0  0  0  0  0  0
  -25.7948  -30.9053   27.0249 H   0  0  0  0  0  0
  -26.2919  -29.6747   24.1262 H   0  0  0  0  0  0
  -27.3859  -29.7299   25.4889 H   0  0  0  0  0  0
  -27.8864  -30.4211   23.9626 H   0  0  0  0  0  0
  -27.2576  -33.3730   26.1955 H   0  0  0  0  0  0
  -28.3829  -32.6894   25.0316 H   0  0  0  0  0  0
  -28.0606  -31.8587   26.5482 H   0  0  0  0  0  0
  -28.2597  -38.0098   24.7545 H   0  0  0  0  0  0
  -28.1120  -36.2633   24.6278 H   0  0  0  0  0  0
  -27.2305  -37.1387   25.8861 H   0  0  0  0  0  0
  -20.9362  -29.8724   21.6831 H   0  0  0  0  0  0
  -26.0207  -38.2830   24.1404 H   0  0  0  0  0  0
  -28.3743  -18.2837   20.1857 H   0  0  0  0  0  0
  -32.2438  -16.8460   21.4336 H   0  0  0  0  0  0
  -29.7795  -21.6854   22.9761 H   0  0  0  0  0  0
  -30.8186  -23.1016   22.8299 H   0  0  0  0  0  0
  -31.2640  -21.7794   23.9350 H   0  0  0  0  0  0
  -28.9373  -22.3515   18.8982 H   0  0  0  0  0  0
  -30.2903  -22.5122   19.9378 H   0  0  0  0  0  0
  -27.7825  -24.9119   18.7992 H   0  0  0  0  0  0
  -29.4661  -25.1014   19.0670 H   0  0  0  0  0  0
  -28.8533  -15.7036   20.6292 H   0  0  0  0  0  0
  -27.8874  -20.7749   20.4101 H   0  0  0  0  0  0
  1 25  1  0  0  0
  1 30  2  0  0  0
  1 82  1  0  0  0
  2  3  1  0  0  0
  2 25  1  0  0  0
  2 87  1  0  0  0
  2 88  1  0  0  0
  3  4  1  0  0  0
  3 89  1  0  0  0
  3 90  1  0  0  0
  4  5  1  0  0  0
  4 91  1  0  0  0
  4 92  1  0  0  0
  5  6  1  0  0  0
  5 26  1  0  0  0
  5 93  1  0  0  0
  6 25  1  0  0  0
  6 94  1  0  0  0
  6 95  1  0  0  0
  7  8  2  0  0  0
  7 26  1  0  0  0
  7 29  1  0  0  0
  8  9  1  0  0  0
  8 22  1  0  0  0
  9 10  1  0  0  0
  9 27  2  0  0  0
 10 11  2  0  0  0
 10 15  1  0  0  0
 11 12  1  0  0  0
 11 96  1  0  0  0
 12 13  2  0  0  0
 12 97  1  0  0  0
 13 14  1  0  0  0
 13 31  1  0  0  0
 14 15  2  0  0  0
 14 98  1  0  0  0
 15 99  1  0  0  0
 16 17  2  0  0  0
 16 21  1  0  0  0
 16 31  1  0  0  0
 17 18  1  0  0  0
 17100  1  0  0  0
 18 19  2  0  0  0
 18101  1  0  0  0
 19 20  1  0  0  0
 19 24  1  0  0  0
 20 21  2  0  0  0
 20102  1  0  0  0
 21 23  1  0  0  0
 22 28  1  0  0  0
 22 32  2  0  0  0
 26 27  1  0  0  0
 28103  1  0  0  0
 28104  1  0  0  0
 29105  1  0  0  0
 29106  1  0  0  0
 33 34  1  0  0  0
 33 66  1  0  0  0
 33 70  2  0  0  0
 34 36  1  0  0  0
 34 59  1  0  0  0
 34107  1  0  0  0
 35 44  2  0  0  0
 35 45  1  0  0  0
 35 68  1  0  0  0
 36 56  1  0  0  0
 36108  1  0  0  0
 37 39  1  0  0  0
 37 47  1  0  0  0
 37 66  1  0  0  0
 37109  1  0  0  0
 38 43  2  0  0  0
 38 46  1  0  0  0
 38 47  1  0  0  0
 39 64  1  0  0  0
 39 67  2  0  0  0
 40 52  1  0  0  0
 40 53  2  0  0  0
 40 58  1  0  0  0
 41110  1  0  0  0
 41111  1  0  0  0
 41112  1  0  0  0
 41 48  1  0  0  0
 42 43  1  0  0  0
 42 66  1  0  0  0
 42113  1  0  0  0
 42114  1  0  0  0
 43 44  1  0  0  0
 44115  1  0  0  0
 45 46  2  0  0  0
 45116  1  0  0  0
 46117  1  0  0  0
 47118  1  0  0  0
 47119  1  0  0  0
 48 56  1  0  0  0
 48 65  1  0  0  0
 48120  1  0  0  0
 49 50  1  0  0  0
 49 53  1  0  0  0
 49 64  1  0  0  0
 49121  1  0  0  0
 50 51  1  0  0  0
 50122  1  0  0  0
 50123  1  0  0  0
 51 52  1  0  0  0
 51124  1  0  0  0
 51125  1  0  0  0
 52126  1  0  0  0
 52127  1  0  0  0
 53 54  1  0  0  0
 54 55  2  0  0  0
 54128  1  0  0  0
 55 57  1  0  0  0
 55129  1  0  0  0
 56 69  2  0  0  0
 57 58  2  0  0  0
 57130  1  0  0  0
 58131  1  0  0  0
 59 60  1  0  0  0
 59 61  1  0  0  0
 59 62  1  0  0  0
 60132  1  0  0  0
 60133  1  0  0  0
 60134  1  0  0  0
 61135  1  0  0  0
 61136  1  0  0  0
 61137  1  0  0  0
 62138  1  0  0  0
 62139  1  0  0  0
 62140  1  0  0  0
 63 65  1  0  0  0
 63141  1  0  0  0
 63142  1  0  0  0
 63143  1  0  0  0
 64144  1  0  0  0
 65145  1  0  0  0
 68 81  1  0  0  0
 71 74  2  0  0  0
 71 75  1  0  0  0
 71146  1  0  0  0
 72 74  1  0  0  0
 72 76  2  0  0  0
 72147  1  0  0  0
 73 75  2  0  0  0
 73 76  1  0  0  0
 73 77  1  0  0  0
 74 82  1  0  0  0
 75 83  1  0  0  0
 76 86  1  0  0  0
 77 79  1  0  0  0
 77 84  2  0  0  0
 78 80  1  0  0  0
 78 81  1  0  0  0
 78 85  2  0  0  0
 79148  1  0  0  0
 79149  1  0  0  0
 79150  1  0  0  0
 80 83  1  0  0  0
 80151  1  0  0  0
 80152  1  0  0  0
 81153  1  0  0  0
 81154  1  0  0  0
 82155  1  0  0  0
 83156  1  0  0  0
M  ISO  4   1 100  68 101  81 101  82 100
M  END
> <chiral flag>
0

> <version>
0

> <s_m_source_file>
/data/baiqing/PycharmProjects/Reinvent-master-3.2/result/LINK_invent/BTK/process_docking_weight1_custom_product_contain_oxygen_bond_distance_aromatic_linkinvent_7_9_3/rearranged_h_0171.sdf

> <i_m_source_file_index>
54

> <r_mmod_Potential_Energy-OPLS-2005>
355.593963623047

> <r_mmod_Stretch_Energy-OPLS-2005>
137.733795166016

> <r_mmod_Bend_Energy-OPLS-2005>
190.860122680664

> <r_mmod_Torsional_Energy-OPLS-2005>
258.380889892578

> <r_mmod_Improper_Torsional_Energy-OPLS-2005>
8.23915958404541

> <r_mmod_Van_der_Waal_Energy-OPLS-2005>
142.691802978516

> <r_mmod_Electrostatic_Energy-OPLS-2005>
-202.670867919922

> <r_mmod_Solvation_Energy-OPLS-2005>
-257.303253173828

> <b_mmod_Minimization_Converged-OPLS-2005>
0

> <r_mmod_RMS_Derivative-OPLS-2005>
5.01623773574829

$$$$
54
                    3D
 Structure written by MMmdl.
149157  0  0  1  0            999 V2000
  -30.5009  -14.9674   20.4524 C   0  0  0  0  0  0
  -30.4442  -12.6025   19.5120 C   0  0  0  0  0  0
  -29.5154  -12.5310   18.2708 C   0  0  0  0  0  0
  -28.0484  -12.3146   18.6866 C   0  0  0  0  0  0
  -27.6303  -13.2438   19.8538 C   0  0  2  0  0  0
  -28.6725  -13.2506   20.9929 C   0  0  0  0  0  0
  -25.2469  -13.8210   20.5718 C   0  0  0  0  0  0
  -24.1759  -13.0473   20.9198 C   0  0  0  0  0  0
  -24.6370  -11.6952   20.8832 C   0  0  0  0  0  0
  -23.9062  -10.4324   21.0459 C   0  0  0  0  0  0
  -24.3615   -9.4226   21.9213 C   0  0  0  0  0  0
  -23.6289   -8.2260   22.0785 C   0  0  0  0  0  0
  -22.4274   -8.0283   21.3552 C   0  0  0  0  0  0
  -21.9898   -9.0279   20.4671 C   0  0  0  0  0  0
  -22.7251  -10.2168   20.3092 C   0  0  0  0  0  0
  -21.6849   -6.0739   22.5284 C   0  0  0  0  0  0
  -21.4016   -6.5656   23.8220 C   0  0  0  0  0  0
  -21.3654   -5.6822   24.9180 C   0  0  0  0  0  0
  -21.6033   -4.3066   24.7232 C   0  0  0  0  0  0
  -21.8821   -3.8155   23.4350 C   0  0  0  0  0  0
  -21.9195   -4.6964   22.3421 C   0  0  0  0  0  0
  -22.7782  -13.5245   21.1871 C   0  0  0  0  0  0
  -22.1655   -4.2169   21.0994 F   0  0  0  0  0  0
  -21.5624   -3.4552   25.7749 F   0  0  0  0  0  0
  -29.9492  -13.6850   20.4086 N   0  0  0  0  0  0
  -26.2889  -12.9444   20.3345 N   0  0  0  0  0  0
  -25.9294  -11.6578   20.5818 N   0  0  0  0  0  0
  -22.0444  -12.8254   22.0436 N   0  0  0  0  0  0
  -25.4248  -15.1941   20.4127 N   0  0  0  0  0  0
  -31.6814  -15.0854   20.0982 O   0  0  0  0  0  0
  -21.6632   -6.8877   21.4243 O   0  0  0  0  0  0
  -22.3485  -14.5577   20.6730 O   0  0  0  0  0  0
  -24.6401  -31.8469   23.1932 C   0  0  0  0  0  0
  -25.9188  -32.4693   23.8286 C   0  0  1  0  0  0
  -27.2121  -27.1396   20.1369 C   0  0  0  0  0  0
  -25.5988  -33.8504   24.2214 N   0  0  0  0  0  0
  -23.4432  -30.4683   21.5375 C   0  0  2  0  0  0
  -24.8934  -28.9020   20.1060 C   0  0  0  0  0  0
  -22.7562  -29.4538   22.4859 C   0  0  0  0  0  0
  -18.0301  -28.1331   22.8541 C   0  0  0  0  0  0
  -24.1503  -36.7220   23.2638 C   0  0  0  0  0  0
  -26.0017  -30.7175   21.4009 C   0  0  0  0  0  0
  -26.0675  -29.3309   20.7349 C   0  0  0  0  0  0
  -27.2224  -28.4618   20.7415 C   0  0  0  0  0  0
  -26.0195  -26.8290   19.4444 C   0  0  0  0  0  0
  -24.8818  -27.6651   19.4481 C   0  0  0  0  0  0
  -23.6715  -29.8054   20.1535 C   0  0  0  0  0  0
  -25.4124  -36.3006   24.0320 C   0  0  1  0  0  0
  -20.5919  -28.3657   23.1249 C   0  0  2  0  0  0
  -20.6785  -26.9348   22.5434 C   0  0  0  0  0  0
  -19.5762  -26.6357   21.5231 C   0  0  0  0  0  0
  -18.1938  -26.7894   22.1661 C   0  0  0  0  0  0
  -19.1563  -28.8820   23.2886 C   0  0  0  0  0  0
  -18.9480  -30.1419   23.8898 C   0  0  0  0  0  0
  -17.6466  -30.6586   24.0557 C   0  0  0  0  0  0
  -25.9084  -34.9392   23.5060 C   0  0  0  0  0  0
  -16.5364  -29.9070   23.6340 C   0  0  0  0  0  0
  -16.7297  -28.6467   23.0384 C   0  0  0  0  0  0
  -26.4514  -31.6567   25.0721 C   0  0  0  0  0  0
  -25.3704  -31.3789   26.1426 C   0  0  0  0  0  0
  -27.0389  -30.2950   24.6361 C   0  0  0  0  0  0
  -27.6021  -32.4347   25.7485 C   0  0  0  0  0  0
  -27.5567  -37.1759   24.8468 C   0  0  0  0  0  0
  -21.4244  -29.3011   22.3633 N   0  0  0  0  0  0
  -26.4280  -37.3728   23.9414 N   0  0  0  0  0  0
  -24.7124  -31.0345   22.0952 N   0  0  0  0  0  0
  -23.4253  -28.8039   23.2949 O   0  0  0  0  0  0
  -28.2664  -26.1559   20.2475 O   0  0  0  0  0  0
  -26.5640  -34.8870   22.4621 O   0  0  0  0  0  0
  -23.5536  -32.1317   23.7202 O   0  0  0  0  0  0
  -28.6593  -19.7009   21.4485 C   0  0  0  0  0  0
  -29.2683  -20.2893   20.3503 C   0  0  0  0  0  0
  -29.6191  -17.6063   20.7377 C   0  0  0  0  0  0
  -27.7574  -20.4466   22.3842 C   0  0  0  0  0  0
  -28.2119  -24.6726   19.7491 C   0  0  0  0  0  0
  -28.6285  -23.2323   20.5317 C   0  0  1  0  0  0
  -29.1300  -21.8169   19.7553 C   0  0  0  0  0  0
  -28.8539  -18.2814   21.6334 N   0  0  0  0  0  0
  -29.6649  -16.0690   20.7834 N   0  0  0  0  0  0
  -29.5292  -23.5137   21.4745 F   0  0  0  0  0  0
  -28.2989  -21.7596   18.7186 F   0  0  0  0  0  0
  -30.3056  -22.1792   19.2439 F   0  0  0  0  0  0
  -30.1787  -18.8968   19.5583 S   0  0  0  0  0  0
  -31.4746  -12.7709   19.1968 H   0  0  0  0  0  0
  -30.4456  -11.6521   20.0443 H   0  0  0  0  0  0
  -29.8298  -11.7271   17.6055 H   0  0  0  0  0  0
  -29.5934  -13.4540   17.6920 H   0  0  0  0  0  0
  -27.9350  -11.2724   18.9884 H   0  0  0  0  0  0
  -27.3836  -12.4535   17.8326 H   0  0  0  0  0  0
  -27.5988  -14.2487   19.4312 H   0  0  0  0  0  0
  -28.7621  -12.2633   21.4419 H   0  0  0  0  0  0
  -28.3624  -13.9187   21.7987 H   0  0  0  0  0  0
  -25.2763   -9.5689   22.4790 H   0  0  0  0  0  0
  -23.9996   -7.4647   22.7500 H   0  0  0  0  0  0
  -21.0817   -8.8823   19.8972 H   0  0  0  0  0  0
  -22.3702  -10.9723   19.6203 H   0  0  0  0  0  0
  -21.2007   -7.6166   23.9720 H   0  0  0  0  0  0
  -21.1455   -6.0547   25.9085 H   0  0  0  0  0  0
  -22.0587   -2.7622   23.2875 H   0  0  0  0  0  0
  -22.4084  -11.9891   22.4764 H   0  0  0  0  0  0
  -21.1109  -13.1336   22.2764 H   0  0  0  0  0  0
  -24.6670  -15.8612   20.4949 H   0  0  0  0  0  0
  -26.2814  -15.6114   20.0758 H   0  0  0  0  0  0
  -26.7213  -32.5281   23.0969 H   0  0  0  0  0  0
  -25.0113  -33.9621   25.0348 H   0  0  0  0  0  0
  -22.7433  -31.2926   21.3874 H   0  0  0  0  0  0
  -23.3784  -35.9547   23.3292 H   0  0  0  0  0  0
  -24.3611  -36.8861   22.2071 H   0  0  0  0  0  0
  -23.7259  -37.6407   23.6675 H   0  0  0  0  0  0
  -26.1809  -31.4799   20.6396 H   0  0  0  0  0  0
  -26.8630  -30.7502   22.0571 H   0  0  0  0  0  0
  -28.1058  -28.7823   21.2748 H   0  0  0  0  0  0
  -25.9127  -25.9103   18.8944 H   0  0  0  0  0  0
  -23.9837  -27.3481   18.9329 H   0  0  0  0  0  0
  -23.8103  -30.5887   19.4066 H   0  0  0  0  0  0
  -22.7862  -29.2540   19.8335 H   0  0  0  0  0  0
  -25.1326  -36.1811   25.0820 H   0  0  0  0  0  0
  -21.0025  -28.3259   24.1358 H   0  0  0  0  0  0
  -20.5690  -26.2235   23.3634 H   0  0  0  0  0  0
  -21.6635  -26.7383   22.1188 H   0  0  0  0  0  0
  -19.6893  -25.6263   21.1257 H   0  0  0  0  0  0
  -19.6665  -27.3218   20.6815 H   0  0  0  0  0  0
  -17.4196  -26.6629   21.4076 H   0  0  0  0  0  0
  -18.0322  -26.0051   22.9082 H   0  0  0  0  0  0
  -19.7959  -30.7231   24.2270 H   0  0  0  0  0  0
  -17.5021  -31.6265   24.5135 H   0  0  0  0  0  0
  -15.5339  -30.2920   23.7673 H   0  0  0  0  0  0
  -15.8705  -28.0774   22.7089 H   0  0  0  0  0  0
  -24.5855  -30.7160   25.7770 H   0  0  0  0  0  0
  -24.8925  -32.2994   26.4795 H   0  0  0  0  0  0
  -25.7994  -30.8993   27.0237 H   0  0  0  0  0  0
  -26.3040  -29.6663   24.1324 H   0  0  0  0  0  0
  -27.3920  -29.7274   25.4992 H   0  0  0  0  0  0
  -27.8982  -30.4176   23.9754 H   0  0  0  0  0  0
  -27.2573  -33.3649   26.2021 H   0  0  0  0  0  0
  -28.3819  -32.6930   25.0301 H   0  0  0  0  0  0
  -28.0684  -31.8509   26.5442 H   0  0  0  0  0  0
  -28.2565  -38.0059   24.7488 H   0  0  0  0  0  0
  -28.1057  -36.2590   24.6304 H   0  0  0  0  0  0
  -27.2271  -37.1411   25.8859 H   0  0  0  0  0  0
  -20.9365  -29.8757   21.6904 H   0  0  0  0  0  0
  -26.0134  -38.2794   24.1418 H   0  0  0  0  0  0
  -26.9155  -20.8722   21.8384 H   0  0  0  0  0  0
  -28.2809  -21.2735   22.8684 H   0  0  0  0  0  0
  -27.3385  -19.8109   23.1631 H   0  0  0  0  0  0
  -27.2088  -24.4564   19.3968 H   0  0  0  0  0  0
  -28.8028  -24.6909   18.8335 H   0  0  0  0  0  0
  -27.7279  -22.9627   21.0831 H   0  0  0  0  0  0
  -28.8035  -15.7124   21.1608 H   0  0  0  0  0  0
  1 25  1  0  0  0
  1 30  2  0  0  0
  1 79  1  0  0  0
  2  3  1  0  0  0
  2 25  1  0  0  0
  2 84  1  0  0  0
  2 85  1  0  0  0
  3  4  1  0  0  0
  3 86  1  0  0  0
  3 87  1  0  0  0
  4  5  1  0  0  0
  4 88  1  0  0  0
  4 89  1  0  0  0
  5  6  1  0  0  0
  5 26  1  0  0  0
  5 90  1  0  0  0
  6 25  1  0  0  0
  6 91  1  0  0  0
  6 92  1  0  0  0
  7  8  2  0  0  0
  7 26  1  0  0  0
  7 29  1  0  0  0
  8  9  1  0  0  0
  8 22  1  0  0  0
  9 10  1  0  0  0
  9 27  2  0  0  0
 10 11  2  0  0  0
 10 15  1  0  0  0
 11 12  1  0  0  0
 11 93  1  0  0  0
 12 13  2  0  0  0
 12 94  1  0  0  0
 13 14  1  0  0  0
 13 31  1  0  0  0
 14 15  2  0  0  0
 14 95  1  0  0  0
 15 96  1  0  0  0
 16 17  2  0  0  0
 16 21  1  0  0  0
 16 31  1  0  0  0
 17 18  1  0  0  0
 17 97  1  0  0  0
 18 19  2  0  0  0
 18 98  1  0  0  0
 19 20  1  0  0  0
 19 24  1  0  0  0
 20 21  2  0  0  0
 20 99  1  0  0  0
 21 23  1  0  0  0
 22 28  1  0  0  0
 22 32  2  0  0  0
 26 27  1  0  0  0
 28100  1  0  0  0
 28101  1  0  0  0
 29102  1  0  0  0
 29103  1  0  0  0
 33 34  1  0  0  0
 33 66  1  0  0  0
 33 70  2  0  0  0
 34 36  1  0  0  0
 34 59  1  0  0  0
 34104  1  0  0  0
 35 44  2  0  0  0
 35 45  1  0  0  0
 35 68  1  0  0  0
 36 56  1  0  0  0
 36105  1  0  0  0
 37 39  1  0  0  0
 37 47  1  0  0  0
 37 66  1  0  0  0
 37106  1  0  0  0
 38 43  2  0  0  0
 38 46  1  0  0  0
 38 47  1  0  0  0
 39 64  1  0  0  0
 39 67  2  0  0  0
 40 52  1  0  0  0
 40 53  2  0  0  0
 40 58  1  0  0  0
 41107  1  0  0  0
 41108  1  0  0  0
 41109  1  0  0  0
 41 48  1  0  0  0
 42 43  1  0  0  0
 42 66  1  0  0  0
 42110  1  0  0  0
 42111  1  0  0  0
 43 44  1  0  0  0
 44112  1  0  0  0
 45 46  2  0  0  0
 45113  1  0  0  0
 46114  1  0  0  0
 47115  1  0  0  0
 47116  1  0  0  0
 48 56  1  0  0  0
 48 65  1  0  0  0
 48117  1  0  0  0
 49 50  1  0  0  0
 49 53  1  0  0  0
 49 64  1  0  0  0
 49118  1  0  0  0
 50 51  1  0  0  0
 50119  1  0  0  0
 50120  1  0  0  0
 51 52  1  0  0  0
 51121  1  0  0  0
 51122  1  0  0  0
 52123  1  0  0  0
 52124  1  0  0  0
 53 54  1  0  0  0
 54 55  2  0  0  0
 54125  1  0  0  0
 55 57  1  0  0  0
 55126  1  0  0  0
 56 69  2  0  0  0
 57 58  2  0  0  0
 57127  1  0  0  0
 58128  1  0  0  0
 59 60  1  0  0  0
 59 61  1  0  0  0
 59 62  1  0  0  0
 60129  1  0  0  0
 60130  1  0  0  0
 60131  1  0  0  0
 61132  1  0  0  0
 61133  1  0  0  0
 61134  1  0  0  0
 62135  1  0  0  0
 62136  1  0  0  0
 62137  1  0  0  0
 63 65  1  0  0  0
 63138  1  0  0  0
 63139  1  0  0  0
 63140  1  0  0  0
 64141  1  0  0  0
 65142  1  0  0  0
 68 75  1  0  0  0
 71 72  2  0  0  0
 71 74  1  0  0  0
 71 78  1  0  0  0
 72 77  1  0  0  0
 72 83  1  0  0  0
 73 78  2  0  0  0
 73 79  1  0  0  0
 73 83  1  0  0  0
 74143  1  0  0  0
 74144  1  0  0  0
 74145  1  0  0  0
 75 76  1  0  0  0
 75146  1  0  0  0
 75147  1  0  0  0
 76 77  1  0  0  0
 76 80  1  0  0  0
 76148  1  0  0  0
 77 81  1  0  0  0
 77 82  1  0  0  0
 79149  1  0  0  0
M  ISO  4   1 100  68 101  75 101  79 100
M  END
> <chiral flag>
0

> <version>
0

> <s_m_source_file>
/data/baiqing/PycharmProjects/Reinvent-master-3.2/result/LINK_invent/BTK/process_docking_weight1_custom_product_contain_oxygen_bond_distance_aromatic_linkinvent_7_9_3/rearranged_h_0171.sdf

> <i_m_source_file_index>
55

> <r_mmod_Potential_Energy-OPLS-2005>
473.368377685547

> <r_mmod_Stretch_Energy-OPLS-2005>
249.404434204102

> <r_mmod_Bend_Energy-OPLS-2005>
299.995971679688

> <r_mmod_Torsional_Energy-OPLS-2005>
218.218780517578

> <r_mmod_Improper_Torsional_Energy-OPLS-2005>
4.22559118270874

> <r_mmod_Van_der_Waal_Energy-OPLS-2005>
112.380058288574

> <r_mmod_Electrostatic_Energy-OPLS-2005>
-399.260406494141

> <r_mmod_Solvation_Energy-OPLS-2005>
-211.727569580078

> <b_mmod_Minimization_Converged-OPLS-2005>
0

> <r_mmod_RMS_Derivative-OPLS-2005>
5.87269353866577

$$$$
55
                    3D
 Structure written by MMmdl.
151159  0  0  1  0            999 V2000
  -30.6254  -14.7667   20.4668 C   0  0  0  0  0  0
  -30.4313  -12.4736   19.4788 C   0  0  0  0  0  0
  -29.5099  -12.5162   18.2401 C   0  0  0  0  0  0
  -28.0373  -12.3376   18.6546 C   0  0  0  0  0  0
  -27.6419  -13.2376   19.8551 C   0  0  2  0  0  0
  -28.6883  -13.1860   20.9910 C   0  0  0  0  0  0
  -25.2510  -13.8208   20.5720 C   0  0  0  0  0  0
  -24.1802  -13.0437   20.9199 C   0  0  0  0  0  0
  -24.6394  -11.6916   20.8738 C   0  0  0  0  0  0
  -23.9064  -10.4290   21.0389 C   0  0  0  0  0  0
  -24.3611   -9.4211   21.9168 C   0  0  0  0  0  0
  -23.6292   -8.2246   22.0747 C   0  0  0  0  0  0
  -22.4279   -8.0278   21.3534 C   0  0  0  0  0  0
  -21.9903   -9.0249   20.4637 C   0  0  0  0  0  0
  -22.7230  -10.2127   20.3045 C   0  0  0  0  0  0
  -21.6863   -6.0727   22.5270 C   0  0  0  0  0  0
  -21.4017   -6.5634   23.8198 C   0  0  0  0  0  0
  -21.3665   -5.6792   24.9167 C   0  0  0  0  0  0
  -21.6042   -4.3053   24.7221 C   0  0  0  0  0  0
  -21.8825   -3.8138   23.4346 C   0  0  0  0  0  0
  -21.9194   -4.6953   22.3397 C   0  0  0  0  0  0
  -22.7816  -13.5214   21.1859 C   0  0  0  0  0  0
  -22.1668   -4.2136   21.0976 F   0  0  0  0  0  0
  -21.5627   -3.4540   25.7736 F   0  0  0  0  0  0
  -29.9855  -13.5452   20.4033 N   0  0  0  0  0  0
  -26.2946  -12.9425   20.3315 N   0  0  0  0  0  0
  -25.9334  -11.6557   20.5761 N   0  0  0  0  0  0
  -22.0474  -12.8197   22.0415 N   0  0  0  0  0  0
  -25.4190  -15.1939   20.4169 N   0  0  0  0  0  0
  -31.8131  -14.8252   20.1372 O   0  0  0  0  0  0
  -21.6653   -6.8872   21.4231 O   0  0  0  0  0  0
  -22.3489  -14.5515   20.6712 O   0  0  0  0  0  0
  -24.6335  -31.8555   23.1959 C   0  0  0  0  0  0
  -25.9165  -32.4751   23.8308 C   0  0  1  0  0  0
  -27.2206  -27.2527   20.1334 C   0  0  0  0  0  0
  -25.5957  -33.8552   24.2244 N   0  0  0  0  0  0
  -23.4309  -30.4757   21.5408 C   0  0  2  0  0  0
  -24.8835  -28.9240   20.1055 C   0  0  0  0  0  0
  -22.7520  -29.4605   22.4917 C   0  0  0  0  0  0
  -18.0308  -28.1393   22.8501 C   0  0  0  0  0  0
  -24.1493  -36.7274   23.2630 C   0  0  0  0  0  0
  -25.9781  -30.7634   21.3806 C   0  0  0  0  0  0
  -26.0560  -29.3863   20.7206 C   0  0  0  0  0  0
  -27.2312  -28.5622   20.7266 C   0  0  0  0  0  0
  -26.0322  -26.8648   19.4824 C   0  0  0  0  0  0
  -24.8780  -27.6718   19.4731 C   0  0  0  0  0  0
  -23.6505  -29.8084   20.1573 C   0  0  0  0  0  0
  -25.4116  -36.3062   24.0320 C   0  0  1  0  0  0
  -20.5905  -28.3715   23.1273 C   0  0  2  0  0  0
  -20.6788  -26.9428   22.5411 C   0  0  0  0  0  0
  -19.5758  -26.6386   21.5220 C   0  0  0  0  0  0
  -18.1947  -26.7936   22.1637 C   0  0  0  0  0  0
  -19.1557  -28.8875   23.2877 C   0  0  0  0  0  0
  -18.9475  -30.1480   23.8890 C   0  0  0  0  0  0
  -17.6473  -30.6594   24.0569 C   0  0  0  0  0  0
  -25.9072  -34.9441   23.5080 C   0  0  0  0  0  0
  -16.5367  -29.9087   23.6345 C   0  0  0  0  0  0
  -16.7293  -28.6502   23.0370 C   0  0  0  0  0  0
  -26.4523  -31.6576   25.0704 C   0  0  0  0  0  0
  -25.3725  -31.3754   26.1409 C   0  0  0  0  0  0
  -27.0368  -30.2976   24.6218 C   0  0  0  0  0  0
  -27.6057  -32.4324   25.7499 C   0  0  0  0  0  0
  -27.5586  -37.1779   24.8457 C   0  0  0  0  0  0
  -21.4222  -29.3045   22.3653 N   0  0  0  0  0  0
  -26.4284  -37.3766   23.9421 N   0  0  0  0  0  0
  -24.6995  -31.0489   22.0956 N   0  0  0  0  0  0
  -23.4215  -28.8162   23.3027 O   0  0  0  0  0  0
  -28.2359  -26.2677   20.2163 O   0  0  0  0  0  0
  -26.5628  -34.8934   22.4645 O   0  0  0  0  0  0
  -23.5480  -32.1409   23.7235 O   0  0  0  0  0  0
  -31.0478  -20.1725   20.7170 C   0  0  0  0  0  0
  -31.6090  -17.7728   20.7773 C   0  0  0  0  0  0
  -29.6692  -19.9016   20.6006 C   0  0  0  0  0  0
  -30.2527  -17.3795   20.6660 C   0  0  0  0  0  0
  -29.2976  -18.4844   20.5842 C   0  0  0  0  0  0
  -31.9959  -19.1308   20.8017 C   0  0  0  0  0  0
  -27.9077  -25.1552   21.0439 C   0  0  0  0  0  0
  -28.1443  -23.7750   21.1481 C   0  0  0  0  0  0
  -28.9485  -22.6969   20.3724 C   0  0  0  0  0  0
  -28.6165  -21.1151   20.5767 C   0  0  0  0  0  0
  -29.8775  -15.9254   20.6844 N   0  0  0  0  0  0
  -29.8217  -23.0098   19.5591 O   0  0  0  0  0  0
  -27.5269  -23.2195   22.2014 O   0  0  0  0  0  0
  -27.9831  -18.1731   20.4956 F   0  0  0  0  0  0
  -33.6685  -19.5294   20.9569 Cl  0  0  0  0  0  0
  -31.4715  -12.5938   19.1715 H   0  0  0  0  0  0
  -30.3794  -11.5002   19.9690 H   0  0  0  0  0  0
  -29.7958  -11.7404   17.5284 H   0  0  0  0  0  0
  -29.6335  -13.4688   17.7213 H   0  0  0  0  0  0
  -27.8951  -11.2889   18.9158 H   0  0  0  0  0  0
  -27.3806  -12.5313   17.8060 H   0  0  0  0  0  0
  -27.6312  -14.2583   19.4717 H   0  0  0  0  0  0
  -28.7322  -12.1921   21.4395 H   0  0  0  0  0  0
  -28.4217  -13.8731   21.7960 H   0  0  0  0  0  0
  -25.2750   -9.5703   22.4745 H   0  0  0  0  0  0
  -24.0007   -7.4643   22.7472 H   0  0  0  0  0  0
  -21.0832   -8.8750   19.8947 H   0  0  0  0  0  0
  -22.3665  -10.9661   19.6161 H   0  0  0  0  0  0
  -21.2019   -7.6145   23.9696 H   0  0  0  0  0  0
  -21.1481   -6.0525   25.9065 H   0  0  0  0  0  0
  -22.0601   -2.7599   23.2847 H   0  0  0  0  0  0
  -22.4116  -11.9874   22.4812 H   0  0  0  0  0  0
  -21.1082  -13.1192   22.2616 H   0  0  0  0  0  0
  -24.6525  -15.8462   20.5436 H   0  0  0  0  0  0
  -26.2686  -15.6420   20.0963 H   0  0  0  0  0  0
  -26.7228  -32.5418   23.1047 H   0  0  0  0  0  0
  -25.0108  -33.9682   25.0388 H   0  0  0  0  0  0
  -22.7261  -31.2964   21.3919 H   0  0  0  0  0  0
  -23.3770  -35.9590   23.3278 H   0  0  0  0  0  0
  -24.3579  -36.8921   22.2047 H   0  0  0  0  0  0
  -23.7252  -37.6468   23.6673 H   0  0  0  0  0  0
  -26.1160  -31.5266   20.6143 H   0  0  0  0  0  0
  -26.8524  -30.8105   22.0168 H   0  0  0  0  0  0
  -28.1237  -28.8974   21.2352 H   0  0  0  0  0  0
  -25.9824  -25.8906   19.0155 H   0  0  0  0  0  0
  -23.9817  -27.3113   18.9873 H   0  0  0  0  0  0
  -23.7700  -30.5847   19.4008 H   0  0  0  0  0  0
  -22.7691  -29.2385   19.8558 H   0  0  0  0  0  0
  -25.1294  -36.1877   25.0806 H   0  0  0  0  0  0
  -20.9998  -28.3304   24.1391 H   0  0  0  0  0  0
  -20.5710  -26.2320   23.3620 H   0  0  0  0  0  0
  -21.6654  -26.7467   22.1181 H   0  0  0  0  0  0
  -19.6918  -25.6293   21.1261 H   0  0  0  0  0  0
  -19.6682  -27.3194   20.6745 H   0  0  0  0  0  0
  -17.4206  -26.6715   21.4045 H   0  0  0  0  0  0
  -18.0336  -26.0067   22.9016 H   0  0  0  0  0  0
  -19.7950  -30.7309   24.2232 H   0  0  0  0  0  0
  -17.5025  -31.6273   24.5171 H   0  0  0  0  0  0
  -15.5368  -30.2979   23.7664 H   0  0  0  0  0  0
  -15.8697  -28.0811   22.7083 H   0  0  0  0  0  0
  -24.5893  -30.7113   25.7744 H   0  0  0  0  0  0
  -24.8925  -32.2932   26.4801 H   0  0  0  0  0  0
  -25.8009  -30.8954   27.0209 H   0  0  0  0  0  0
  -26.2961  -29.6717   24.1223 H   0  0  0  0  0  0
  -27.4011  -29.7251   25.4758 H   0  0  0  0  0  0
  -27.8857  -30.4228   23.9495 H   0  0  0  0  0  0
  -27.2641  -33.3626   26.2055 H   0  0  0  0  0  0
  -28.3889  -32.6885   25.0350 H   0  0  0  0  0  0
  -28.0698  -31.8462   26.5443 H   0  0  0  0  0  0
  -28.2551  -38.0127   24.7553 H   0  0  0  0  0  0
  -28.1135  -36.2653   24.6203 H   0  0  0  0  0  0
  -27.2308  -37.1331   25.8861 H   0  0  0  0  0  0
  -20.9424  -29.8733   21.6820 H   0  0  0  0  0  0
  -26.0158  -38.2828   24.1458 H   0  0  0  0  0  0
  -31.4004  -21.1922   20.7571 H   0  0  0  0  0  0
  -32.3939  -17.0384   20.8658 H   0  0  0  0  0  0
  -27.2701  -25.5537   21.8244 H   0  0  0  0  0  0
  -28.0515  -21.0106   21.5016 H   0  0  0  0  0  0
  -27.8998  -20.8743   19.7925 H   0  0  0  0  0  0
  -28.8968  -15.7556   20.8447 H   0  0  0  0  0  0
  -27.0701  -23.9085   22.6652 H   0  0  0  0  0  0
  1 25  1  0  0  0
  1 30  2  0  0  0
  1 81  1  0  0  0
  2  3  1  0  0  0
  2 25  1  0  0  0
  2 86  1  0  0  0
  2 87  1  0  0  0
  3  4  1  0  0  0
  3 88  1  0  0  0
  3 89  1  0  0  0
  4  5  1  0  0  0
  4 90  1  0  0  0
  4 91  1  0  0  0
  5  6  1  0  0  0
  5 26  1  0  0  0
  5 92  1  0  0  0
  6 25  1  0  0  0
  6 93  1  0  0  0
  6 94  1  0  0  0
  7  8  2  0  0  0
  7 26  1  0  0  0
  7 29  1  0  0  0
  8  9  1  0  0  0
  8 22  1  0  0  0
  9 10  1  0  0  0
  9 27  2  0  0  0
 10 11  2  0  0  0
 10 15  1  0  0  0
 11 12  1  0  0  0
 11 95  1  0  0  0
 12 13  2  0  0  0
 12 96  1  0  0  0
 13 14  1  0  0  0
 13 31  1  0  0  0
 14 15  2  0  0  0
 14 97  1  0  0  0
 15 98  1  0  0  0
 16 17  2  0  0  0
 16 21  1  0  0  0
 16 31  1  0  0  0
 17 18  1  0  0  0
 17 99  1  0  0  0
 18 19  2  0  0  0
 18100  1  0  0  0
 19 20  1  0  0  0
 19 24  1  0  0  0
 20 21  2  0  0  0
 20101  1  0  0  0
 21 23  1  0  0  0
 22 28  1  0  0  0
 22 32  2  0  0  0
 26 27  1  0  0  0
 28102  1  0  0  0
 28103  1  0  0  0
 29104  1  0  0  0
 29105  1  0  0  0
 33 34  1  0  0  0
 33 66  1  0  0  0
 33 70  2  0  0  0
 34 36  1  0  0  0
 34 59  1  0  0  0
 34106  1  0  0  0
 35 44  2  0  0  0
 35 45  1  0  0  0
 35 68  1  0  0  0
 36 56  1  0  0  0
 36107  1  0  0  0
 37 39  1  0  0  0
 37 47  1  0  0  0
 37 66  1  0  0  0
 37108  1  0  0  0
 38 43  2  0  0  0
 38 46  1  0  0  0
 38 47  1  0  0  0
 39 64  1  0  0  0
 39 67  2  0  0  0
 40 52  1  0  0  0
 40 53  2  0  0  0
 40 58  1  0  0  0
 41109  1  0  0  0
 41110  1  0  0  0
 41111  1  0  0  0
 41 48  1  0  0  0
 42 43  1  0  0  0
 42 66  1  0  0  0
 42112  1  0  0  0
 42113  1  0  0  0
 43 44  1  0  0  0
 44114  1  0  0  0
 45 46  2  0  0  0
 45115  1  0  0  0
 46116  1  0  0  0
 47117  1  0  0  0
 47118  1  0  0  0
 48 56  1  0  0  0
 48 65  1  0  0  0
 48119  1  0  0  0
 49 50  1  0  0  0
 49 53  1  0  0  0
 49 64  1  0  0  0
 49120  1  0  0  0
 50 51  1  0  0  0
 50121  1  0  0  0
 50122  1  0  0  0
 51 52  1  0  0  0
 51123  1  0  0  0
 51124  1  0  0  0
 52125  1  0  0  0
 52126  1  0  0  0
 53 54  1  0  0  0
 54 55  2  0  0  0
 54127  1  0  0  0
 55 57  1  0  0  0
 55128  1  0  0  0
 56 69  2  0  0  0
 57 58  2  0  0  0
 57129  1  0  0  0
 58130  1  0  0  0
 59 60  1  0  0  0
 59 61  1  0  0  0
 59 62  1  0  0  0
 60131  1  0  0  0
 60132  1  0  0  0
 60133  1  0  0  0
 61134  1  0  0  0
 61135  1  0  0  0
 61136  1  0  0  0
 62137  1  0  0  0
 62138  1  0  0  0
 62139  1  0  0  0
 63 65  1  0  0  0
 63140  1  0  0  0
 63141  1  0  0  0
 63142  1  0  0  0
 64143  1  0  0  0
 65144  1  0  0  0
 68 77  1  0  0  0
 71 73  2  0  0  0
 71 76  1  0  0  0
 71145  1  0  0  0
 72 74  1  0  0  0
 72 76  2  0  0  0
 72146  1  0  0  0
 73 75  1  0  0  0
 73 80  1  0  0  0
 74 75  2  0  0  0
 74 81  1  0  0  0
 75 84  1  0  0  0
 76 85  1  0  0  0
 77 78  2  0  0  0
 77147  1  0  0  0
 78 79  1  0  0  0
 78 83  1  0  0  0
 79 80  1  0  0  0
 79 82  2  0  0  0
 80148  1  0  0  0
 80149  1  0  0  0
 81150  1  0  0  0
 83151  1  0  0  0
M  ISO  4   1 100  68 101  77 101  81 100
M  END
> <chiral flag>
0

> <version>
0

> <s_m_source_file>
/data/baiqing/PycharmProjects/Reinvent-master-3.2/result/LINK_invent/BTK/process_docking_weight1_custom_product_contain_oxygen_bond_distance_aromatic_linkinvent_7_9_3/rearranged_h_0171.sdf

> <i_m_source_file_index>
56

> <r_mmod_Potential_Energy-OPLS-2005>
243.326126098633

> <r_mmod_Stretch_Energy-OPLS-2005>
139.972442626953

> <r_mmod_Bend_Energy-OPLS-2005>
229.000900268555

> <r_mmod_Torsional_Energy-OPLS-2005>
216.630676269531

> <r_mmod_Improper_Torsional_Energy-OPLS-2005>
5.24265384674072

> <r_mmod_Van_der_Waal_Energy-OPLS-2005>
140.834487915039

> <r_mmod_Electrostatic_Energy-OPLS-2005>
-372.861511230469

> <r_mmod_Solvation_Energy-OPLS-2005>
-217.958892822266

> <b_mmod_Minimization_Converged-OPLS-2005>
0

> <r_mmod_RMS_Derivative-OPLS-2005>
2.17321920394897

$$$$
56
                    3D
 Structure written by MMmdl.
166175  0  0  1  0            999 V2000
  -28.9793  -16.5611   20.8004 C   0  0  0  0  0  0
  -30.0716  -13.9681   19.7725 C   0  0  0  0  0  0
  -29.5226  -13.0554   18.5717 C   0  0  0  0  0  0
  -28.2023  -12.3676   18.9265 C   0  0  0  0  0  0
  -27.4656  -13.3366   19.8544 C   0  0  2  0  0  0
  -28.2474  -13.8734   21.0687 C   0  0  0  0  0  0
  -25.1571  -13.8191   20.5646 C   0  0  0  0  0  0
  -24.1174  -13.0290   20.9334 C   0  0  0  0  0  0
  -24.5983  -11.6825   20.8778 C   0  0  0  0  0  0
  -23.8845  -10.4197   21.0446 C   0  0  0  0  0  0
  -24.3508   -9.4160   21.9200 C   0  0  0  0  0  0
  -23.6242   -8.2171   22.0757 C   0  0  0  0  0  0
  -22.4222   -8.0196   21.3545 C   0  0  0  0  0  0
  -21.9800   -9.0131   20.4641 C   0  0  0  0  0  0
  -22.7064  -10.2025   20.3061 C   0  0  0  0  0  0
  -21.6827   -6.0696   22.5293 C   0  0  0  0  0  0
  -21.3996   -6.5625   23.8218 C   0  0  0  0  0  0
  -21.3644   -5.6785   24.9183 C   0  0  0  0  0  0
  -21.6040   -4.3048   24.7237 C   0  0  0  0  0  0
  -21.8822   -3.8131   23.4363 C   0  0  0  0  0  0
  -21.9187   -4.6934   22.3417 C   0  0  0  0  0  0
  -22.7280  -13.5062   21.2029 C   0  0  0  0  0  0
  -22.1659   -4.2132   21.0990 F   0  0  0  0  0  0
  -21.5625   -3.4535   25.7750 F   0  0  0  0  0  0
  -29.0430  -14.9910   20.5301 N   0  0  0  0  0  0
  -26.1790  -12.9421   20.2910 N   0  0  0  0  0  0
  -25.8839  -11.6512   20.5528 N   0  0  0  0  0  0
  -22.0010  -12.8070   22.0627 N   0  0  0  0  0  0
  -25.3182  -15.1979   20.4027 N   0  0  0  0  0  0
  -30.2595  -16.6278   20.5930 O   0  0  0  0  0  0
  -21.6600   -6.8803   21.4241 O   0  0  0  0  0  0
  -22.3050  -14.5402   20.6868 O   0  0  0  0  0  0
  -24.6823  -31.8625   23.2087 C   0  0  0  0  0  0
  -25.9440  -32.5000   23.8530 C   0  0  1  0  0  0
  -27.1506  -27.4454   19.9712 C   0  0  0  0  0  0
  -25.5981  -33.8724   24.2349 N   0  0  0  0  0  0
  -23.6901  -30.2077   21.6740 C   0  0  2  0  0  0
  -25.0078  -29.1656   19.9164 C   0  0  0  0  0  0
  -23.7728  -28.8061   22.4711 C   0  0  0  0  0  0
  -18.1038  -27.6550   22.8861 C   0  0  0  0  0  0
  -24.1472  -36.7378   23.2607 C   0  0  0  0  0  0
  -26.0996  -30.8343   21.4256 C   0  0  0  0  0  0
  -26.1495  -29.5297   20.6472 C   0  0  0  0  0  0
  -27.2313  -28.6313   20.7324 C   0  0  0  0  0  0
  -26.1408  -27.2774   19.0234 C   0  0  0  0  0  0
  -24.9903  -28.0482   19.0914 C   0  0  0  0  0  0
  -23.7959  -29.9929   20.1350 C   0  0  0  0  0  0
  -25.4093  -36.3184   24.0313 C   0  0  1  0  0  0
  -20.9311  -26.7101   22.7940 C   0  0  2  0  0  0
  -20.2466  -25.6477   22.0753 C   0  0  0  0  0  0
  -19.1219  -26.1801   21.2100 C   0  0  0  0  0  0
  -17.8984  -26.4611   22.0436 C   0  0  0  0  0  0
  -19.4631  -27.9007   23.3075 C   0  0  0  0  0  0
  -19.3853  -29.2951   23.8937 C   0  0  0  0  0  0
  -18.2217  -30.1593   24.0381 C   0  0  0  0  0  0
  -25.9051  -34.9560   23.5118 C   0  0  0  0  0  0
  -16.9497  -29.7271   23.6477 C   0  0  0  0  0  0
  -16.9223  -28.4575   23.0693 C   0  0  0  0  0  0
  -26.4803  -31.6852   25.0941 C   0  0  0  0  0  0
  -25.3907  -31.3567   26.1417 C   0  0  0  0  0  0
  -27.1473  -30.3580   24.6618 C   0  0  0  0  0  0
  -27.5971  -32.4884   25.7964 C   0  0  0  0  0  0
  -27.5575  -37.1838   24.8458 C   0  0  0  0  0  0
  -23.0769  -27.5340   22.2900 N   0  0  0  0  0  0
  -26.4276  -37.3874   23.9422 N   0  0  0  0  0  0
  -24.8143  -31.0550   22.1195 N   0  0  0  0  0  0
  -24.4095  -28.8339   23.4911 O   0  0  0  0  0  0
  -27.7506  -26.2810   20.3178 O   0  0  0  0  0  0
  -26.5605  -34.8995   22.4676 O   0  0  0  0  0  0
  -23.5815  -32.1051   23.7292 O   0  0  0  0  0  0
  -25.1692  -19.2981   21.4080 C   0  0  0  0  0  0
  -23.9950  -20.1412   21.5854 C   0  0  0  0  0  0
  -26.5624  -19.6303   21.4776 C   0  0  0  0  0  0
  -24.7662  -22.4342   22.0533 C   0  0  0  0  0  0
  -25.6320  -24.6673   20.1016 C   0  0  0  0  0  0
  -23.0998  -25.9152   23.9773 C   0  0  0  0  0  0
  -22.0114  -28.0446   24.1698 C   0  0  0  0  0  0
  -21.9182  -26.8636   20.4565 C   0  0  0  0  0  0
  -23.6905  -24.4925   22.3693 C   0  0  1  0  0  0
  -21.2479  -28.6259   21.7024 C   0  0  1  0  0  0
  -20.1024  -29.5547   21.1323 C   0  0  0  0  0  0
  -24.0856  -25.0421   19.8316 C   0  0  0  0  0  0
  -26.6868  -25.4721   20.9997 C   0  0  0  0  0  0
  -23.8138  -21.4949   21.8753 N   0  0  0  0  0  0
  -26.1387  -21.3466   21.8216 N   0  0  0  0  0  0
  -27.6986  -17.8626   21.1246 N   0  0  0  0  0  0
  -23.1922  -25.4956   20.9655 N   0  3  1  0  0  0
  -26.0617  -23.6778   19.5055 O   0  0  0  0  0  0
  -30.8795  -14.5687   19.3515 H   0  0  0  0  0  0
  -30.5910  -13.3407   20.5008 H   0  0  0  0  0  0
  -30.2707  -12.3280   18.2547 H   0  0  0  0  0  0
  -29.3495  -13.7042   17.7117 H   0  0  0  0  0  0
  -28.3999  -11.4296   19.4479 H   0  0  0  0  0  0
  -27.6204  -12.1337   18.0339 H   0  0  0  0  0  0
  -27.2658  -14.1763   19.1856 H   0  0  0  0  0  0
  -28.7947  -13.0987   21.6087 H   0  0  0  0  0  0
  -27.5806  -14.3123   21.8123 H   0  0  0  0  0  0
  -25.2643   -9.5698   22.4771 H   0  0  0  0  0  0
  -23.9977   -7.4569   22.7473 H   0  0  0  0  0  0
  -21.0733   -8.8602   19.8958 H   0  0  0  0  0  0
  -22.3490  -10.9560   19.6188 H   0  0  0  0  0  0
  -21.1985   -7.6136   23.9712 H   0  0  0  0  0  0
  -21.1462   -6.0521   25.9083 H   0  0  0  0  0  0
  -22.0617   -2.7598   23.2862 H   0  0  0  0  0  0
  -22.3660  -11.9719   22.4974 H   0  0  0  0  0  0
  -21.0656  -13.1116   22.2924 H   0  0  0  0  0  0
  -24.4518  -15.7251   20.3719 H   0  0  0  0  0  0
  -25.9612  -15.4929   19.6789 H   0  0  0  0  0  0
  -26.7599  -32.5738   23.1383 H   0  0  0  0  0  0
  -25.0055  -33.9863   25.0438 H   0  0  0  0  0  0
  -22.8010  -30.7924   21.9170 H   0  0  0  0  0  0
  -23.3734  -35.9714   23.3272 H   0  0  0  0  0  0
  -24.3543  -36.8985   22.2018 H   0  0  0  0  0  0
  -23.7235  -37.6585   23.6617 H   0  0  0  0  0  0
  -26.2730  -31.6627   20.7385 H   0  0  0  0  0  0
  -26.9563  -30.8070   22.0887 H   0  0  0  0  0  0
  -28.0358  -28.7845   21.4399 H   0  0  0  0  0  0
  -26.1750  -26.4502   18.3276 H   0  0  0  0  0  0
  -24.1619  -27.8531   18.4257 H   0  0  0  0  0  0
  -23.9297  -30.9527   19.6331 H   0  0  0  0  0  0
  -22.9516  -29.5422   19.6204 H   0  0  0  0  0  0
  -25.1264  -36.2035   25.0801 H   0  0  0  0  0  0
  -20.8822  -26.1306   23.7215 H   0  0  0  0  0  0
  -20.8737  -24.9454   21.5413 H   0  0  0  0  0  0
  -19.7628  -24.9470   22.7661 H   0  0  0  0  0  0
  -19.3426  -27.0497   20.5982 H   0  0  0  0  0  0
  -18.8524  -25.3953   20.5024 H   0  0  0  0  0  0
  -17.0599  -26.6253   21.3647 H   0  0  0  0  0  0
  -17.6242  -25.6117   22.6685 H   0  0  0  0  0  0
  -20.3003  -29.7778   24.1926 H   0  0  0  0  0  0
  -18.3448  -31.1511   24.4489 H   0  0  0  0  0  0
  -16.0653  -30.3424   23.7478 H   0  0  0  0  0  0
  -15.9702  -28.1030   22.6974 H   0  0  0  0  0  0
  -24.6466  -30.6602   25.7547 H   0  0  0  0  0  0
  -24.8655  -32.2520   26.4736 H   0  0  0  0  0  0
  -25.8223  -30.8883   27.0273 H   0  0  0  0  0  0
  -26.4971  -29.7045   24.0979 H   0  0  0  0  0  0
  -27.4797  -29.7876   25.5308 H   0  0  0  0  0  0
  -28.0339  -30.5358   24.0522 H   0  0  0  0  0  0
  -27.2200  -33.4049   26.2520 H   0  0  0  0  0  0
  -28.3846  -32.7748   25.0983 H   0  0  0  0  0  0
  -28.0662  -31.9134   26.5956 H   0  0  0  0  0  0
  -28.2613  -38.0119   24.7537 H   0  0  0  0  0  0
  -28.1047  -36.2663   24.6240 H   0  0  0  0  0  0
  -27.2290  -37.1448   25.8855 H   0  0  0  0  0  0
  -23.0414  -27.5386   21.2875 H   0  0  0  0  0  0
  -26.0163  -38.2951   24.1431 H   0  0  0  0  0  0
  -24.9400  -18.2667   21.1840 H   0  0  0  0  0  0
  -23.0452  -19.6426   21.4607 H   0  0  0  0  0  0
  -22.6472  -25.2872   24.7453 H   0  0  0  0  0  0
  -24.0651  -26.1330   24.4356 H   0  0  0  0  0  0
  -22.5224  -28.8329   24.7251 H   0  0  0  0  0  0
  -21.2445  -27.8977   24.9344 H   0  0  0  0  0  0
  -22.4241  -27.3586   19.6340 H   0  0  0  0  0  0
  -21.1540  -26.4001   19.8374 H   0  0  0  0  0  0
  -22.7574  -23.9370   22.4443 H   0  0  0  0  0  0
  -21.7525  -29.3512   21.1887 H   0  0  0  0  0  0
  -19.0880  -29.1806   21.1937 H   0  0  0  0  0  0
  -20.2187  -29.7322   20.0604 H   0  0  0  0  0  0
  -20.1126  -30.5402   21.6028 H   0  0  0  0  0  0
  -23.6171  -24.1310   19.4627 H   0  0  0  0  0  0
  -24.0077  -25.7209   18.9883 H   0  0  0  0  0  0
  -27.2012  -24.7283   21.6093 H   0  0  0  0  0  0
  -26.1469  -26.0955   21.7149 H   0  0  0  0  0  0
  -26.9517  -17.1826   21.1401 H   0  0  0  0  0  0
  -23.7892  -26.2098   21.3544 H   0  0  0  0  0  0
  1 25  1  0  0  0
  1 30  2  0  0  0
  1 86  1  0  0  0
  2  3  1  0  0  0
  2 25  1  0  0  0
  2 89  1  0  0  0
  2 90  1  0  0  0
  3  4  1  0  0  0
  3 91  1  0  0  0
  3 92  1  0  0  0
  4  5  1  0  0  0
  4 93  1  0  0  0
  4 94  1  0  0  0
  5  6  1  0  0  0
  5 26  1  0  0  0
  5 95  1  0  0  0
  6 25  1  0  0  0
  6 96  1  0  0  0
  6 97  1  0  0  0
  7  8  2  0  0  0
  7 26  1  0  0  0
  7 29  1  0  0  0
  8  9  1  0  0  0
  8 22  1  0  0  0
  9 10  1  0  0  0
  9 27  2  0  0  0
 10 11  2  0  0  0
 10 15  1  0  0  0
 11 12  1  0  0  0
 11 98  1  0  0  0
 12 13  2  0  0  0
 12 99  1  0  0  0
 13 14  1  0  0  0
 13 31  1  0  0  0
 14 15  2  0  0  0
 14100  1  0  0  0
 15101  1  0  0  0
 16 17  2  0  0  0
 16 21  1  0  0  0
 16 31  1  0  0  0
 17 18  1  0  0  0
 17102  1  0  0  0
 18 19  2  0  0  0
 18103  1  0  0  0
 19 20  1  0  0  0
 19 24  1  0  0  0
 20 21  2  0  0  0
 20104  1  0  0  0
 21 23  1  0  0  0
 22 28  1  0  0  0
 22 32  2  0  0  0
 26 27  1  0  0  0
 28105  1  0  0  0
 28106  1  0  0  0
 29107  1  0  0  0
 29108  1  0  0  0
 33 34  1  0  0  0
 33 66  1  0  0  0
 33 70  2  0  0  0
 34 36  1  0  0  0
 34 59  1  0  0  0
 34109  1  0  0  0
 35 44  2  0  0  0
 35 45  1  0  0  0
 35 68  1  0  0  0
 36 56  1  0  0  0
 36110  1  0  0  0
 37 39  1  0  0  0
 37 47  1  0  0  0
 37 66  1  0  0  0
 37111  1  0  0  0
 38 43  2  0  0  0
 38 46  1  0  0  0
 38 47  1  0  0  0
 39 64  1  0  0  0
 39 67  2  0  0  0
 40 52  1  0  0  0
 40 53  2  0  0  0
 40 58  1  0  0  0
 41112  1  0  0  0
 41113  1  0  0  0
 41114  1  0  0  0
 41 48  1  0  0  0
 42 43  1  0  0  0
 42 66  1  0  0  0
 42115  1  0  0  0
 42116  1  0  0  0
 43 44  1  0  0  0
 44117  1  0  0  0
 45 46  2  0  0  0
 45118  1  0  0  0
 46119  1  0  0  0
 47120  1  0  0  0
 47121  1  0  0  0
 48 56  1  0  0  0
 48 65  1  0  0  0
 48122  1  0  0  0
 49 50  1  0  0  0
 49 53  1  0  0  0
 49 64  1  0  0  0
 49123  1  0  0  0
 50 51  1  0  0  0
 50124  1  0  0  0
 50125  1  0  0  0
 51 52  1  0  0  0
 51126  1  0  0  0
 51127  1  0  0  0
 52128  1  0  0  0
 52129  1  0  0  0
 53 54  1  0  0  0
 54 55  2  0  0  0
 54130  1  0  0  0
 55 57  1  0  0  0
 55131  1  0  0  0
 56 69  2  0  0  0
 57 58  2  0  0  0
 57132  1  0  0  0
 58133  1  0  0  0
 59 60  1  0  0  0
 59 61  1  0  0  0
 59 62  1  0  0  0
 60134  1  0  0  0
 60135  1  0  0  0
 60136  1  0  0  0
 61137  1  0  0  0
 61138  1  0  0  0
 61139  1  0  0  0
 62140  1  0  0  0
 62141  1  0  0  0
 62142  1  0  0  0
 63 65  1  0  0  0
 63143  1  0  0  0
 63144  1  0  0  0
 63145  1  0  0  0
 64146  1  0  0  0
 65147  1  0  0  0
 68 83  1  0  0  0
 71 72  2  0  0  0
 71 73  1  0  0  0
 71148  1  0  0  0
 72 84  1  0  0  0
 72149  1  0  0  0
 73 85  2  0  0  0
 73 86  1  0  0  0
 74 84  2  0  0  0
 74 85  1  0  0  0
 74 79  1  0  0  0
 75 82  1  0  0  0
 75 83  1  0  0  0
 75 88  2  0  0  0
 76 77  1  0  0  0
 76 79  1  0  0  0
 76150  1  0  0  0
 76151  1  0  0  0
 77 80  1  0  0  0
 77152  1  0  0  0
 77153  1  0  0  0
 78 80  1  0  0  0
 78 87  1  0  0  0
 78154  1  0  0  0
 78155  1  0  0  0
 79 87  1  0  0  0
 79156  1  0  0  0
 80 81  1  0  0  0
 80157  1  0  0  0
 81158  1  0  0  0
 81159  1  0  0  0
 81160  1  0  0  0
 82161  1  0  0  0
 82162  1  0  0  0
 82 87  1  0  0  0
 83163  1  0  0  0
 83164  1  0  0  0
 86165  1  0  0  0
 87166  1  0  0  0
M  CHG  1  87   1
M  ISO  4   1 100  68 101  83 101  86 100
M  END
> <chiral flag>
0

> <version>
0

> <s_m_source_file>
/data/baiqing/PycharmProjects/Reinvent-master-3.2/result/LINK_invent/BTK/process_docking_weight1_custom_product_contain_oxygen_bond_distance_aromatic_linkinvent_7_9_3/rearranged_h_0171.sdf

> <i_m_source_file_index>
57

> <r_mmod_Potential_Energy-OPLS-2005>
16524.345703125

> <r_mmod_Stretch_Energy-OPLS-2005>
8805.2021484375

> <r_mmod_Bend_Energy-OPLS-2005>
1990.57958984375

> <r_mmod_Torsional_Energy-OPLS-2005>
447.734985351562

> <r_mmod_Improper_Torsional_Energy-OPLS-2005>
23.5855941772461

> <r_mmod_Van_der_Waal_Energy-OPLS-2005>
2172.45288085938

> <r_mmod_Electrostatic_Energy-OPLS-2005>
-685.525207519531

> <r_mmod_Solvation_Energy-OPLS-2005>
-527.007507324219

> <b_mmod_Minimization_Converged-OPLS-2005>
0

> <r_mmod_RMS_Derivative-OPLS-2005>
4.30111122131348

$$$$
57
                    3D
 Structure written by MMmdl.
158166  0  0  1  0            999 V2000
  -30.7236  -14.4875   20.5618 C   0  0  0  0  0  0
  -30.4153  -12.3164   19.4302 C   0  0  0  0  0  0
  -29.4931  -12.5032   18.2091 C   0  0  0  0  0  0
  -28.0154  -12.3630   18.6222 C   0  0  0  0  0  0
  -27.6581  -13.2147   19.8705 C   0  0  2  0  0  0
  -28.7018  -13.0290   20.9959 C   0  0  0  0  0  0
  -25.2574  -13.8179   20.5693 C   0  0  0  0  0  0
  -24.1832  -13.0445   20.9176 C   0  0  0  0  0  0
  -24.6398  -11.6915   20.8732 C   0  0  0  0  0  0
  -23.9064  -10.4294   21.0400 C   0  0  0  0  0  0
  -24.3615   -9.4213   21.9183 C   0  0  0  0  0  0
  -23.6292   -8.2248   22.0754 C   0  0  0  0  0  0
  -22.4273   -8.0282   21.3546 C   0  0  0  0  0  0
  -21.9910   -9.0253   20.4645 C   0  0  0  0  0  0
  -22.7237  -10.2134   20.3053 C   0  0  0  0  0  0
  -21.6855   -6.0738   22.5280 C   0  0  0  0  0  0
  -21.4013   -6.5640   23.8214 C   0  0  0  0  0  0
  -21.3658   -5.6793   24.9175 C   0  0  0  0  0  0
  -21.6043   -4.3055   24.7224 C   0  0  0  0  0  0
  -21.8820   -3.8148   23.4344 C   0  0  0  0  0  0
  -21.9192   -4.6966   22.3401 C   0  0  0  0  0  0
  -22.7853  -13.5240   21.1839 C   0  0  0  0  0  0
  -22.1664   -4.2152   21.0980 F   0  0  0  0  0  0
  -21.5627   -3.4539   25.7736 F   0  0  0  0  0  0
  -30.0302  -13.3216   20.4356 N   0  0  0  0  0  0
  -26.3012  -12.9366   20.3358 N   0  0  0  0  0  0
  -25.9329  -11.6518   20.5767 N   0  0  0  0  0  0
  -22.0487  -12.8229   22.0387 N   0  0  0  0  0  0
  -25.4284  -15.1903   20.4127 N   0  0  0  0  0  0
  -31.8525  -14.6249   20.0863 O   0  0  0  0  0  0
  -21.6640   -6.8879   21.4242 O   0  0  0  0  0  0
  -22.3539  -14.5546   20.6689 O   0  0  0  0  0  0
  -24.6161  -31.8670   23.2089 C   0  0  0  0  0  0
  -25.9046  -32.4819   23.8394 C   0  0  1  0  0  0
  -27.2321  -27.4261   20.0995 C   0  0  0  0  0  0
  -25.5895  -33.8616   24.2329 N   0  0  0  0  0  0
  -23.4055  -30.4903   21.5493 C   0  0  2  0  0  0
  -24.8543  -28.9576   20.1107 C   0  0  0  0  0  0
  -22.7424  -29.4650   22.4975 C   0  0  0  0  0  0
  -18.0271  -28.1383   22.8492 C   0  0  0  0  0  0
  -24.1484  -36.7308   23.2639 C   0  0  0  0  0  0
  -25.9356  -30.8314   21.3621 C   0  0  0  0  0  0
  -26.0158  -29.4661   20.7077 C   0  0  0  0  0  0
  -27.2124  -28.7084   20.6982 C   0  0  0  0  0  0
  -26.0591  -26.9391   19.4872 C   0  0  0  0  0  0
  -24.8715  -27.6941   19.4948 C   0  0  0  0  0  0
  -23.6147  -29.8233   20.1637 C   0  0  0  0  0  0
  -25.4106  -36.3107   24.0341 C   0  0  1  0  0  0
  -20.5867  -28.3666   23.1314 C   0  0  2  0  0  0
  -20.6763  -26.9402   22.5416 C   0  0  0  0  0  0
  -19.5740  -26.6392   21.5212 C   0  0  0  0  0  0
  -18.1919  -26.7929   22.1623 C   0  0  0  0  0  0
  -19.1524  -28.8841   23.2899 C   0  0  0  0  0  0
  -18.9450  -30.1447   23.8908 C   0  0  0  0  0  0
  -17.6452  -30.6584   24.0568 C   0  0  0  0  0  0
  -25.9034  -34.9473   23.5133 C   0  0  0  0  0  0
  -16.5343  -29.9086   23.6331 C   0  0  0  0  0  0
  -16.7260  -28.6505   23.0349 C   0  0  0  0  0  0
  -26.4474  -31.6591   25.0716 C   0  0  0  0  0  0
  -25.3742  -31.3683   26.1462 C   0  0  0  0  0  0
  -27.0307  -30.3040   24.6074 C   0  0  0  0  0  0
  -27.6048  -32.4307   25.7482 C   0  0  0  0  0  0
  -27.5579  -37.1812   24.8468 C   0  0  0  0  0  0
  -21.4147  -29.3032   22.3720 N   0  0  0  0  0  0
  -26.4291  -37.3791   23.9409 N   0  0  0  0  0  0
  -24.6710  -31.0767   22.0989 N   0  0  0  0  0  0
  -23.4193  -28.8187   23.3016 O   0  0  0  0  0  0
  -28.3469  -26.6167   20.1407 O   0  0  0  0  0  0
  -26.5591  -34.8923   22.4692 O   0  0  0  0  0  0
  -23.5350  -32.1418   23.7483 O   0  0  0  0  0  0
  -31.3035  -19.6160   21.4972 C   0  0  0  0  0  0
  -31.8681  -17.2462   21.3674 C   0  0  0  0  0  0
  -29.9307  -19.3191   21.3496 C   0  0  0  0  0  0
  -30.5028  -16.9034   21.2021 C   0  0  0  0  0  0
  -32.2620  -18.5892   21.5045 C   0  0  0  0  0  0
  -29.5414  -17.9512   21.2011 C   0  0  0  0  0  0
  -28.9564  -20.4322   21.4709 C   0  0  0  0  0  0
  -28.8916  -24.2129   20.7122 C   0  0  0  0  0  0
  -28.6018  -23.2359   23.0492 C   0  0  0  0  0  0
  -28.1699  -25.5354   21.0832 C   0  0  0  0  0  0
  -28.4816  -22.9505   21.5306 C   0  0  2  0  0  0
  -30.0549  -15.5365   21.0917 N   0  0  0  0  0  0
  -29.2560  -21.7229   21.1652 N   0  0  0  0  0  0
  -27.7490  -20.1969   21.9878 N   0  3  0  0  0  0
  -29.7532  -24.1748   19.8279 O   0  0  0  0  0  0
  -33.5713  -18.8957   21.6686 F   0  0  0  0  0  0
  -28.2304  -17.6165   21.0914 F   0  0  0  0  0  0
  -31.4613  -12.3969   19.1288 H   0  0  0  0  0  0
  -30.3046  -11.3126   19.8437 H   0  0  0  0  0  0
  -29.7368  -11.7726   17.4364 H   0  0  0  0  0  0
  -29.6608  -13.4858   17.7643 H   0  0  0  0  0  0
  -27.8300  -11.3083   18.8286 H   0  0  0  0  0  0
  -27.3638  -12.6267   17.7884 H   0  0  0  0  0  0
  -27.6921  -14.2581   19.5558 H   0  0  0  0  0  0
  -28.6801  -12.0041   21.3701 H   0  0  0  0  0  0
  -28.4652  -13.6599   21.8542 H   0  0  0  0  0  0
  -25.2763   -9.5690   22.4756 H   0  0  0  0  0  0
  -24.0002   -7.4640   22.7478 H   0  0  0  0  0  0
  -21.0841   -8.8766   19.8952 H   0  0  0  0  0  0
  -22.3693  -10.9668   19.6154 H   0  0  0  0  0  0
  -21.2006   -7.6151   23.9716 H   0  0  0  0  0  0
  -21.1478   -6.0524   25.9078 H   0  0  0  0  0  0
  -22.0599   -2.7612   23.2843 H   0  0  0  0  0  0
  -22.4091  -11.9881   22.4767 H   0  0  0  0  0  0
  -21.1106  -13.1260   22.2587 H   0  0  0  0  0  0
  -24.6617  -15.8438   20.5288 H   0  0  0  0  0  0
  -26.2863  -15.6384   20.1170 H   0  0  0  0  0  0
  -26.7120  -32.5532   23.1166 H   0  0  0  0  0  0
  -25.0063  -33.9778   25.0483 H   0  0  0  0  0  0
  -22.6941  -31.3072   21.4106 H   0  0  0  0  0  0
  -23.3744  -35.9642   23.3312 H   0  0  0  0  0  0
  -24.3580  -36.8905   22.2051 H   0  0  0  0  0  0
  -23.7236  -37.6519   23.6642 H   0  0  0  0  0  0
  -26.0474  -31.5966   20.5929 H   0  0  0  0  0  0
  -26.8244  -30.8879   21.9788 H   0  0  0  0  0  0
  -28.1064  -29.0902   21.1712 H   0  0  0  0  0  0
  -26.0600  -25.9651   19.0182 H   0  0  0  0  0  0
  -23.9796  -27.2983   19.0279 H   0  0  0  0  0  0
  -23.7211  -30.5983   19.4040 H   0  0  0  0  0  0
  -22.7391  -29.2424   19.8685 H   0  0  0  0  0  0
  -25.1286  -36.1975   25.0835 H   0  0  0  0  0  0
  -20.9967  -28.3229   24.1432 H   0  0  0  0  0  0
  -20.5673  -26.2268   23.3599 H   0  0  0  0  0  0
  -21.6631  -26.7447   22.1205 H   0  0  0  0  0  0
  -19.6898  -25.6309   21.1221 H   0  0  0  0  0  0
  -19.6680  -27.3220   20.6755 H   0  0  0  0  0  0
  -17.4194  -26.6682   21.4017 H   0  0  0  0  0  0
  -18.0314  -26.0069   22.9017 H   0  0  0  0  0  0
  -19.7926  -30.7261   24.2281 H   0  0  0  0  0  0
  -17.5008  -31.6265   24.5171 H   0  0  0  0  0  0
  -15.5345  -30.2994   23.7650 H   0  0  0  0  0  0
  -15.8658  -28.0832   22.7055 H   0  0  0  0  0  0
  -24.5921  -30.7024   25.7799 H   0  0  0  0  0  0
  -24.8924  -32.2828   26.4928 H   0  0  0  0  0  0
  -25.8102  -30.8843   27.0210 H   0  0  0  0  0  0
  -26.2848  -29.6799   24.1139 H   0  0  0  0  0  0
  -27.4106  -29.7269   25.4514 H   0  0  0  0  0  0
  -27.8667  -30.4375   23.9204 H   0  0  0  0  0  0
  -27.2677  -33.3604   26.2079 H   0  0  0  0  0  0
  -28.3854  -32.6870   25.0307 H   0  0  0  0  0  0
  -28.0724  -31.8416   26.5382 H   0  0  0  0  0  0
  -28.2607  -38.0102   24.7514 H   0  0  0  0  0  0
  -28.1065  -36.2632   24.6300 H   0  0  0  0  0  0
  -27.2295  -37.1473   25.8871 H   0  0  0  0  0  0
  -20.9307  -29.8756   21.6944 H   0  0  0  0  0  0
  -26.0179  -38.2869   24.1405 H   0  0  0  0  0  0
  -31.6427  -20.6307   21.6451 H   0  0  0  0  0  0
  -32.6395  -16.4943   21.4130 H   0  0  0  0  0  0
  -27.6482  -23.5787   23.4518 H   0  0  0  0  0  0
  -29.3456  -24.0020   23.2746 H   0  0  0  0  0  0
  -28.8873  -22.3536   23.6227 H   0  0  0  0  0  0
  -28.5416  -25.8720   22.0509 H   0  0  0  0  0  0
  -27.1143  -25.2995   21.2251 H   0  0  0  0  0  0
  -27.4347  -22.7452   21.3015 H   0  0  0  0  0  0
  -29.0882  -15.3700   21.3244 H   0  0  0  0  0  0
  -30.0938  -21.8948   20.6196 H   0  0  0  0  0  0
  -27.4652  -19.2383   22.1365 H   0  0  0  0  0  0
  -27.0829  -20.9362   22.1296 H   0  0  0  0  0  0
  1 25  1  0  0  0
  1 30  2  0  0  0
  1 82  1  0  0  0
  2  3  1  0  0  0
  2 25  1  0  0  0
  2 88  1  0  0  0
  2 89  1  0  0  0
  3  4  1  0  0  0
  3 90  1  0  0  0
  3 91  1  0  0  0
  4  5  1  0  0  0
  4 92  1  0  0  0
  4 93  1  0  0  0
  5  6  1  0  0  0
  5 26  1  0  0  0
  5 94  1  0  0  0
  6 25  1  0  0  0
  6 95  1  0  0  0
  6 96  1  0  0  0
  7  8  2  0  0  0
  7 26  1  0  0  0
  7 29  1  0  0  0
  8  9  1  0  0  0
  8 22  1  0  0  0
  9 10  1  0  0  0
  9 27  2  0  0  0
 10 11  2  0  0  0
 10 15  1  0  0  0
 11 12  1  0  0  0
 11 97  1  0  0  0
 12 13  2  0  0  0
 12 98  1  0  0  0
 13 14  1  0  0  0
 13 31  1  0  0  0
 14 15  2  0  0  0
 14 99  1  0  0  0
 15100  1  0  0  0
 16 17  2  0  0  0
 16 21  1  0  0  0
 16 31  1  0  0  0
 17 18  1  0  0  0
 17101  1  0  0  0
 18 19  2  0  0  0
 18102  1  0  0  0
 19 20  1  0  0  0
 19 24  1  0  0  0
 20 21  2  0  0  0
 20103  1  0  0  0
 21 23  1  0  0  0
 22 28  1  0  0  0
 22 32  2  0  0  0
 26 27  1  0  0  0
 28104  1  0  0  0
 28105  1  0  0  0
 29106  1  0  0  0
 29107  1  0  0  0
 33 34  1  0  0  0
 33 66  1  0  0  0
 33 70  2  0  0  0
 34 36  1  0  0  0
 34 59  1  0  0  0
 34108  1  0  0  0
 35 44  2  0  0  0
 35 45  1  0  0  0
 35 68  1  0  0  0
 36 56  1  0  0  0
 36109  1  0  0  0
 37 39  1  0  0  0
 37 47  1  0  0  0
 37 66  1  0  0  0
 37110  1  0  0  0
 38 43  2  0  0  0
 38 46  1  0  0  0
 38 47  1  0  0  0
 39 64  1  0  0  0
 39 67  2  0  0  0
 40 52  1  0  0  0
 40 53  2  0  0  0
 40 58  1  0  0  0
 41111  1  0  0  0
 41112  1  0  0  0
 41113  1  0  0  0
 41 48  1  0  0  0
 42 43  1  0  0  0
 42 66  1  0  0  0
 42114  1  0  0  0
 42115  1  0  0  0
 43 44  1  0  0  0
 44116  1  0  0  0
 45 46  2  0  0  0
 45117  1  0  0  0
 46118  1  0  0  0
 47119  1  0  0  0
 47120  1  0  0  0
 48 56  1  0  0  0
 48 65  1  0  0  0
 48121  1  0  0  0
 49 50  1  0  0  0
 49 53  1  0  0  0
 49 64  1  0  0  0
 49122  1  0  0  0
 50 51  1  0  0  0
 50123  1  0  0  0
 50124  1  0  0  0
 51 52  1  0  0  0
 51125  1  0  0  0
 51126  1  0  0  0
 52127  1  0  0  0
 52128  1  0  0  0
 53 54  1  0  0  0
 54 55  2  0  0  0
 54129  1  0  0  0
 55 57  1  0  0  0
 55130  1  0  0  0
 56 69  2  0  0  0
 57 58  2  0  0  0
 57131  1  0  0  0
 58132  1  0  0  0
 59 60  1  0  0  0
 59 61  1  0  0  0
 59 62  1  0  0  0
 60133  1  0  0  0
 60134  1  0  0  0
 60135  1  0  0  0
 61136  1  0  0  0
 61137  1  0  0  0
 61138  1  0  0  0
 62139  1  0  0  0
 62140  1  0  0  0
 62141  1  0  0  0
 63 65  1  0  0  0
 63142  1  0  0  0
 63143  1  0  0  0
 63144  1  0  0  0
 64145  1  0  0  0
 65146  1  0  0  0
 68 80  1  0  0  0
 71 73  2  0  0  0
 71 75  1  0  0  0
 71147  1  0  0  0
 72 74  1  0  0  0
 72 75  2  0  0  0
 72148  1  0  0  0
 73 76  1  0  0  0
 73 77  1  0  0  0
 74 76  2  0  0  0
 74 82  1  0  0  0
 75 86  1  0  0  0
 76 87  1  0  0  0
 77 83  1  0  0  0
 77 84  2  0  0  0
 78 80  1  0  0  0
 78 81  1  0  0  0
 78 85  2  0  0  0
 79149  1  0  0  0
 79150  1  0  0  0
 79151  1  0  0  0
 79 81  1  0  0  0
 80152  1  0  0  0
 80153  1  0  0  0
 81 83  1  0  0  0
 81154  1  0  0  0
 82155  1  0  0  0
 83156  1  0  0  0
 84157  1  0  0  0
 84158  1  0  0  0
M  CHG  1  84   1
M  ISO  4   1 100  68 101  80 101  82 100
M  END
> <chiral flag>
0

> <version>
0

> <s_m_source_file>
/data/baiqing/PycharmProjects/Reinvent-master-3.2/result/LINK_invent/BTK/process_docking_weight1_custom_product_contain_oxygen_bond_distance_aromatic_linkinvent_7_9_3/rearranged_h_0171.sdf

> <i_m_source_file_index>
58

> <r_mmod_Potential_Energy-OPLS-2005>
-334.577880859375

> <r_mmod_Stretch_Energy-OPLS-2005>
45.5238571166992

> <r_mmod_Bend_Energy-OPLS-2005>
98.3548583984375

> <r_mmod_Torsional_Energy-OPLS-2005>
238.191436767578

> <r_mmod_Improper_Torsional_Energy-OPLS-2005>
4.65830898284912

> <r_mmod_Van_der_Waal_Energy-OPLS-2005>
163.063812255859

> <r_mmod_Electrostatic_Energy-OPLS-2005>
-450.543273925781

> <r_mmod_Solvation_Energy-OPLS-2005>
-450.966247558594

> <b_mmod_Minimization_Converged-OPLS-2005>
0

> <r_mmod_RMS_Derivative-OPLS-2005>
0.698028564453125

$$$$
58
                    3D
 Structure written by MMmdl.
157165  0  0  1  0            999 V2000
  -30.6018  -14.7372   20.4369 C   0  0  0  0  0  0
  -30.4275  -12.4414   19.4811 C   0  0  0  0  0  0
  -29.5100  -12.5105   18.2396 C   0  0  0  0  0  0
  -28.0340  -12.3416   18.6473 C   0  0  0  0  0  0
  -27.6426  -13.2347   19.8550 C   0  0  2  0  0  0
  -28.6854  -13.1569   20.9930 C   0  0  0  0  0  0
  -25.2499  -13.8210   20.5697 C   0  0  0  0  0  0
  -24.1792  -13.0449   20.9200 C   0  0  0  0  0  0
  -24.6384  -11.6925   20.8739 C   0  0  0  0  0  0
  -23.9059  -10.4298   21.0395 C   0  0  0  0  0  0
  -24.3610   -9.4210   21.9165 C   0  0  0  0  0  0
  -23.6288   -8.2245   22.0745 C   0  0  0  0  0  0
  -22.4274   -8.0275   21.3537 C   0  0  0  0  0  0
  -21.9901   -9.0250   20.4642 C   0  0  0  0  0  0
  -22.7231  -10.2131   20.3048 C   0  0  0  0  0  0
  -21.6856   -6.0717   22.5272 C   0  0  0  0  0  0
  -21.4019   -6.5626   23.8201 C   0  0  0  0  0  0
  -21.3665   -5.6783   24.9164 C   0  0  0  0  0  0
  -21.6047   -4.3046   24.7222 C   0  0  0  0  0  0
  -21.8820   -3.8131   23.4348 C   0  0  0  0  0  0
  -21.9195   -4.6942   22.3400 C   0  0  0  0  0  0
  -22.7815  -13.5228   21.1856 C   0  0  0  0  0  0
  -22.1662   -4.2128   21.0981 F   0  0  0  0  0  0
  -21.5632   -3.4534   25.7740 F   0  0  0  0  0  0
  -29.9900  -13.5037   20.4189 N   0  0  0  0  0  0
  -26.2933  -12.9419   20.3296 N   0  0  0  0  0  0
  -25.9320  -11.6559   20.5750 N   0  0  0  0  0  0
  -22.0464  -12.8227   22.0423 N   0  0  0  0  0  0
  -25.4192  -15.1938   20.4137 N   0  0  0  0  0  0
  -31.7847  -14.8304   20.0944 O   0  0  0  0  0  0
  -21.6648   -6.8867   21.4240 O   0  0  0  0  0  0
  -22.3492  -14.5520   20.6681 O   0  0  0  0  0  0
  -24.6305  -31.8538   23.1949 C   0  0  0  0  0  0
  -25.9126  -32.4742   23.8295 C   0  0  1  0  0  0
  -27.2290  -27.2593   20.1314 C   0  0  0  0  0  0
  -25.5919  -33.8544   24.2233 N   0  0  0  0  0  0
  -23.4272  -30.4736   21.5379 C   0  0  2  0  0  0
  -24.8744  -28.9125   20.1086 C   0  0  0  0  0  0
  -22.7495  -29.4603   22.4916 C   0  0  0  0  0  0
  -18.0284  -28.1390   22.8493 C   0  0  0  0  0  0
  -24.1488  -36.7282   23.2644 C   0  0  0  0  0  0
  -25.9706  -30.7657   21.3724 C   0  0  0  0  0  0
  -26.0426  -29.3859   20.7174 C   0  0  0  0  0  0
  -27.2171  -28.5704   20.7183 C   0  0  0  0  0  0
  -26.0348  -26.8436   19.5028 C   0  0  0  0  0  0
  -24.8760  -27.6498   19.4914 C   0  0  0  0  0  0
  -23.6445  -29.8004   20.1550 C   0  0  0  0  0  0
  -25.4117  -36.3070   24.0327 C   0  0  1  0  0  0
  -20.5894  -28.3699   23.1277 C   0  0  2  0  0  0
  -20.6781  -26.9416   22.5413 C   0  0  0  0  0  0
  -19.5757  -26.6385   21.5215 C   0  0  0  0  0  0
  -18.1936  -26.7934   22.1628 C   0  0  0  0  0  0
  -19.1542  -28.8862   23.2879 C   0  0  0  0  0  0
  -18.9463  -30.1463   23.8896 C   0  0  0  0  0  0
  -17.6466  -30.6595   24.0563 C   0  0  0  0  0  0
  -25.9056  -34.9437   23.5088 C   0  0  0  0  0  0
  -16.5357  -29.9095   23.6329 C   0  0  0  0  0  0
  -16.7274  -28.6508   23.0359 C   0  0  0  0  0  0
  -26.4490  -31.6575   25.0694 C   0  0  0  0  0  0
  -25.3712  -31.3728   26.1417 C   0  0  0  0  0  0
  -27.0332  -30.2988   24.6182 C   0  0  0  0  0  0
  -27.6044  -32.4312   25.7477 C   0  0  0  0  0  0
  -27.5569  -37.1814   24.8477 C   0  0  0  0  0  0
  -21.4205  -29.3042   22.3663 N   0  0  0  0  0  0
  -26.4300  -37.3760   23.9393 N   0  0  0  0  0  0
  -24.6951  -31.0502   22.0913 N   0  0  0  0  0  0
  -23.4195  -28.8156   23.3025 O   0  0  0  0  0  0
  -28.3594  -26.4162   20.2209 O   0  0  0  0  0  0
  -26.5636  -34.8915   22.4664 O   0  0  0  0  0  0
  -23.5461  -32.1351   23.7260 O   0  0  0  0  0  0
  -30.4214  -17.2858   18.7211 C   0  0  0  0  0  0
  -30.3998  -18.4821   17.9839 C   0  0  0  0  0  0
  -29.3997  -18.4782   20.5786 C   0  0  0  0  0  0
  -29.9091  -17.2179   20.0352 C   0  0  0  0  0  0
  -29.4080  -19.7502   19.8509 C   0  0  0  0  0  0
  -29.8876  -19.6788   18.5162 C   0  0  0  0  0  0
  -29.2125  -22.3659   20.0649 C   0  0  0  0  0  0
  -28.9429  -23.9973   21.9749 C   0  0  0  0  0  0
  -26.8920  -23.2781   20.7235 C   0  0  0  0  0  0
  -28.4684  -25.0163   19.6732 C   0  0  0  0  0  0
  -28.3793  -23.6575   20.5800 C   0  0  0  0  0  0
  -28.8655  -21.0473   20.3630 N   0  0  0  0  0  0
  -29.8375  -15.8754   20.6800 N   0  0  0  0  0  0
  -30.2623  -22.6007   19.4635 O   0  0  0  0  0  0
  -29.8106  -20.7423   17.6821 F   0  0  0  0  0  0
  -31.4710  -12.5546   19.1816 H   0  0  0  0  0  0
  -30.3603  -11.4618   19.9573 H   0  0  0  0  0  0
  -29.7895  -11.7412   17.5181 H   0  0  0  0  0  0
  -29.6440  -13.4684   17.7337 H   0  0  0  0  0  0
  -27.8832  -11.2921   18.9005 H   0  0  0  0  0  0
  -27.3819  -12.5470   17.7976 H   0  0  0  0  0  0
  -27.6414  -14.2592   19.4823 H   0  0  0  0  0  0
  -28.7162  -12.1560   21.4259 H   0  0  0  0  0  0
  -28.4245  -13.8351   21.8059 H   0  0  0  0  0  0
  -25.2754   -9.5695   22.4739 H   0  0  0  0  0  0
  -23.9999   -7.4643   22.7473 H   0  0  0  0  0  0
  -21.0822   -8.8762   19.8965 H   0  0  0  0  0  0
  -22.3669  -10.9657   19.6159 H   0  0  0  0  0  0
  -21.2014   -7.6132   23.9701 H   0  0  0  0  0  0
  -21.1487   -6.0512   25.9069 H   0  0  0  0  0  0
  -22.0598   -2.7592   23.2854 H   0  0  0  0  0  0
  -22.4086  -11.9912   22.4841 H   0  0  0  0  0  0
  -21.1071  -13.1236   22.2614 H   0  0  0  0  0  0
  -24.6529  -15.8481   20.5294 H   0  0  0  0  0  0
  -26.2686  -15.6347   20.0851 H   0  0  0  0  0  0
  -26.7200  -32.5386   23.1046 H   0  0  0  0  0  0
  -25.0050  -33.9668   25.0366 H   0  0  0  0  0  0
  -22.7234  -31.2950   21.3896 H   0  0  0  0  0  0
  -23.3739  -35.9633   23.3354 H   0  0  0  0  0  0
  -24.3566  -36.8852   22.2049 H   0  0  0  0  0  0
  -23.7267  -37.6506   23.6640 H   0  0  0  0  0  0
  -26.1074  -31.5248   20.6006 H   0  0  0  0  0  0
  -26.8496  -30.8173   22.0038 H   0  0  0  0  0  0
  -28.1110  -28.9286   21.2089 H   0  0  0  0  0  0
  -25.9600  -25.8701   19.0438 H   0  0  0  0  0  0
  -23.9788  -27.2790   19.0160 H   0  0  0  0  0  0
  -23.7664  -30.5736   19.3954 H   0  0  0  0  0  0
  -22.7629  -29.2321   19.8535 H   0  0  0  0  0  0
  -25.1314  -36.1916   25.0823 H   0  0  0  0  0  0
  -20.9986  -28.3276   24.1400 H   0  0  0  0  0  0
  -20.5681  -26.2304   23.3614 H   0  0  0  0  0  0
  -21.6649  -26.7441   22.1206 H   0  0  0  0  0  0
  -19.6912  -25.6290   21.1251 H   0  0  0  0  0  0
  -19.6696  -27.3196   20.6744 H   0  0  0  0  0  0
  -17.4203  -26.6679   21.4034 H   0  0  0  0  0  0
  -18.0341  -26.0075   22.9024 H   0  0  0  0  0  0
  -19.7938  -30.7282   24.2266 H   0  0  0  0  0  0
  -17.5016  -31.6273   24.5161 H   0  0  0  0  0  0
  -15.5358  -30.2993   23.7653 H   0  0  0  0  0  0
  -15.8676  -28.0822   22.7080 H   0  0  0  0  0  0
  -24.5909  -30.7044   25.7758 H   0  0  0  0  0  0
  -24.8874  -32.2894   26.4802 H   0  0  0  0  0  0
  -25.8032  -30.8943   27.0216 H   0  0  0  0  0  0
  -26.2909  -29.6744   24.1195 H   0  0  0  0  0  0
  -27.4000  -29.7244   25.4700 H   0  0  0  0  0  0
  -27.8797  -30.4265   23.9430 H   0  0  0  0  0  0
  -27.2651  -33.3622   26.2037 H   0  0  0  0  0  0
  -28.3870  -32.6852   25.0314 H   0  0  0  0  0  0
  -28.0697  -31.8438   26.5406 H   0  0  0  0  0  0
  -28.2640  -38.0057   24.7448 H   0  0  0  0  0  0
  -28.1010  -36.2584   24.6411 H   0  0  0  0  0  0
  -27.2273  -37.1599   25.8879 H   0  0  0  0  0  0
  -20.9387  -29.8735   21.6844 H   0  0  0  0  0  0
  -26.0180  -38.2847   24.1338 H   0  0  0  0  0  0
  -30.7945  -16.4010   18.2261 H   0  0  0  0  0  0
  -30.7513  -18.4767   16.9626 H   0  0  0  0  0  0
  -28.9846  -18.4698   21.5758 H   0  0  0  0  0  0
  -28.9163  -23.1362   22.6447 H   0  0  0  0  0  0
  -28.3695  -24.7934   22.4515 H   0  0  0  0  0  0
  -29.9788  -24.3337   21.9147 H   0  0  0  0  0  0
  -26.7385  -22.4538   21.4206 H   0  0  0  0  0  0
  -26.4676  -22.9851   19.7630 H   0  0  0  0  0  0
  -26.3075  -24.1213   21.0925 H   0  0  0  0  0  0
  -27.8325  -24.9026   18.7974 H   0  0  0  0  0  0
  -29.4667  -25.0225   19.2359 H   0  0  0  0  0  0
  -28.1042  -20.9609   21.0208 H   0  0  0  0  0  0
  -28.9880  -15.6981   21.1954 H   0  0  0  0  0  0
  1 25  1  0  0  0
  1 30  2  0  0  0
  1 83  1  0  0  0
  2  3  1  0  0  0
  2 25  1  0  0  0
  2 86  1  0  0  0
  2 87  1  0  0  0
  3  4  1  0  0  0
  3 88  1  0  0  0
  3 89  1  0  0  0
  4  5  1  0  0  0
  4 90  1  0  0  0
  4 91  1  0  0  0
  5  6  1  0  0  0
  5 26  1  0  0  0
  5 92  1  0  0  0
  6 25  1  0  0  0
  6 93  1  0  0  0
  6 94  1  0  0  0
  7  8  2  0  0  0
  7 26  1  0  0  0
  7 29  1  0  0  0
  8  9  1  0  0  0
  8 22  1  0  0  0
  9 10  1  0  0  0
  9 27  2  0  0  0
 10 11  2  0  0  0
 10 15  1  0  0  0
 11 12  1  0  0  0
 11 95  1  0  0  0
 12 13  2  0  0  0
 12 96  1  0  0  0
 13 14  1  0  0  0
 13 31  1  0  0  0
 14 15  2  0  0  0
 14 97  1  0  0  0
 15 98  1  0  0  0
 16 17  2  0  0  0
 16 21  1  0  0  0
 16 31  1  0  0  0
 17 18  1  0  0  0
 17 99  1  0  0  0
 18 19  2  0  0  0
 18100  1  0  0  0
 19 20  1  0  0  0
 19 24  1  0  0  0
 20 21  2  0  0  0
 20101  1  0  0  0
 21 23  1  0  0  0
 22 28  1  0  0  0
 22 32  2  0  0  0
 26 27  1  0  0  0
 28102  1  0  0  0
 28103  1  0  0  0
 29104  1  0  0  0
 29105  1  0  0  0
 33 34  1  0  0  0
 33 66  1  0  0  0
 33 70  2  0  0  0
 34 36  1  0  0  0
 34 59  1  0  0  0
 34106  1  0  0  0
 35 44  2  0  0  0
 35 45  1  0  0  0
 35 68  1  0  0  0
 36 56  1  0  0  0
 36107  1  0  0  0
 37 39  1  0  0  0
 37 47  1  0  0  0
 37 66  1  0  0  0
 37108  1  0  0  0
 38 43  2  0  0  0
 38 46  1  0  0  0
 38 47  1  0  0  0
 39 64  1  0  0  0
 39 67  2  0  0  0
 40 52  1  0  0  0
 40 53  2  0  0  0
 40 58  1  0  0  0
 41109  1  0  0  0
 41110  1  0  0  0
 41111  1  0  0  0
 41 48  1  0  0  0
 42 43  1  0  0  0
 42 66  1  0  0  0
 42112  1  0  0  0
 42113  1  0  0  0
 43 44  1  0  0  0
 44114  1  0  0  0
 45 46  2  0  0  0
 45115  1  0  0  0
 46116  1  0  0  0
 47117  1  0  0  0
 47118  1  0  0  0
 48 56  1  0  0  0
 48 65  1  0  0  0
 48119  1  0  0  0
 49 50  1  0  0  0
 49 53  1  0  0  0
 49 64  1  0  0  0
 49120  1  0  0  0
 50 51  1  0  0  0
 50121  1  0  0  0
 50122  1  0  0  0
 51 52  1  0  0  0
 51123  1  0  0  0
 51124  1  0  0  0
 52125  1  0  0  0
 52126  1  0  0  0
 53 54  1  0  0  0
 54 55  2  0  0  0
 54127  1  0  0  0
 55 57  1  0  0  0
 55128  1  0  0  0
 56 69  2  0  0  0
 57 58  2  0  0  0
 57129  1  0  0  0
 58130  1  0  0  0
 59 60  1  0  0  0
 59 61  1  0  0  0
 59 62  1  0  0  0
 60131  1  0  0  0
 60132  1  0  0  0
 60133  1  0  0  0
 61134  1  0  0  0
 61135  1  0  0  0
 61136  1  0  0  0
 62137  1  0  0  0
 62138  1  0  0  0
 62139  1  0  0  0
 63 65  1  0  0  0
 63140  1  0  0  0
 63141  1  0  0  0
 63142  1  0  0  0
 64143  1  0  0  0
 65144  1  0  0  0
 68 80  1  0  0  0
 71 72  2  0  0  0
 71 74  1  0  0  0
 71145  1  0  0  0
 72 76  1  0  0  0
 72146  1  0  0  0
 73 74  2  0  0  0
 73 75  1  0  0  0
 73147  1  0  0  0
 74 83  1  0  0  0
 75 76  2  0  0  0
 75 82  1  0  0  0
 76 85  1  0  0  0
 77 81  1  0  0  0
 77 82  1  0  0  0
 77 84  2  0  0  0
 78148  1  0  0  0
 78149  1  0  0  0
 78150  1  0  0  0
 78 81  1  0  0  0
 79 81  1  0  0  0
 79151  1  0  0  0
 79152  1  0  0  0
 79153  1  0  0  0
 80 81  1  0  0  0
 80154  1  0  0  0
 80155  1  0  0  0
 82156  1  0  0  0
 83157  1  0  0  0
M  ISO  4   1 100  68 101  80 101  83 100
M  END
> <chiral flag>
0

> <version>
0

> <s_m_source_file>
/data/baiqing/PycharmProjects/Reinvent-master-3.2/result/LINK_invent/BTK/process_docking_weight1_custom_product_contain_oxygen_bond_distance_aromatic_linkinvent_7_9_3/rearranged_h_0171.sdf

> <i_m_source_file_index>
59

> <r_mmod_Potential_Energy-OPLS-2005>
170.687133789062

> <r_mmod_Stretch_Energy-OPLS-2005>
137.670028686523

> <r_mmod_Bend_Energy-OPLS-2005>
179.008056640625

> <r_mmod_Torsional_Energy-OPLS-2005>
265.823669433594

> <r_mmod_Improper_Torsional_Energy-OPLS-2005>
5.96686172485352

> <r_mmod_Van_der_Waal_Energy-OPLS-2005>
143.08381652832

> <r_mmod_Electrostatic_Energy-OPLS-2005>
-406.572082519531

> <r_mmod_Solvation_Energy-OPLS-2005>
-235.513137817383

> <b_mmod_Minimization_Converged-OPLS-2005>
0

> <r_mmod_RMS_Derivative-OPLS-2005>
1.57156181335449

$$$$
59
                    3D
 Structure written by MMmdl.
156164  0  0  1  0            999 V2000
  -30.5921  -14.7926   20.4283 C   0  0  0  0  0  0
  -30.4351  -12.4762   19.4911 C   0  0  0  0  0  0
  -29.5180  -12.5076   18.2467 C   0  0  0  0  0  0
  -28.0428  -12.3229   18.6532 C   0  0  0  0  0  0
  -27.6371  -13.2340   19.8411 C   0  0  2  0  0  0
  -28.6779  -13.1941   20.9794 C   0  0  0  0  0  0
  -25.2499  -13.8199   20.5687 C   0  0  0  0  0  0
  -24.1796  -13.0440   20.9205 C   0  0  0  0  0  0
  -24.6388  -11.6919   20.8739 C   0  0  0  0  0  0
  -23.9068  -10.4294   21.0404 C   0  0  0  0  0  0
  -24.3618   -9.4210   21.9183 C   0  0  0  0  0  0
  -23.6293   -8.2245   22.0754 C   0  0  0  0  0  0
  -22.4273   -8.0282   21.3547 C   0  0  0  0  0  0
  -21.9908   -9.0255   20.4649 C   0  0  0  0  0  0
  -22.7238  -10.2134   20.3057 C   0  0  0  0  0  0
  -21.6854   -6.0733   22.5277 C   0  0  0  0  0  0
  -21.4017   -6.5636   23.8211 C   0  0  0  0  0  0
  -21.3662   -5.6789   24.9174 C   0  0  0  0  0  0
  -21.6045   -4.3052   24.7225 C   0  0  0  0  0  0
  -21.8819   -3.8144   23.4346 C   0  0  0  0  0  0
  -21.9194   -4.6962   22.3402 C   0  0  0  0  0  0
  -22.7818  -13.5223   21.1871 C   0  0  0  0  0  0
  -22.1662   -4.2146   21.0980 F   0  0  0  0  0  0
  -21.5629   -3.4537   25.7739 F   0  0  0  0  0  0
  -29.9814  -13.5519   20.4072 N   0  0  0  0  0  0
  -26.2913  -12.9404   20.3228 N   0  0  0  0  0  0
  -25.9314  -11.6546   20.5721 N   0  0  0  0  0  0
  -22.0467  -12.8214   22.0429 N   0  0  0  0  0  0
  -25.4189  -15.1924   20.4125 N   0  0  0  0  0  0
  -31.7957  -14.8498   20.1571 O   0  0  0  0  0  0
  -21.6642   -6.8876   21.4239 O   0  0  0  0  0  0
  -22.3501  -14.5528   20.6718 O   0  0  0  0  0  0
  -24.6329  -31.8533   23.1961 C   0  0  0  0  0  0
  -25.9144  -32.4745   23.8317 C   0  0  1  0  0  0
  -27.2190  -27.2444   20.1435 C   0  0  0  0  0  0
  -25.5927  -33.8548   24.2239 N   0  0  0  0  0  0
  -23.4311  -30.4744   21.5398 C   0  0  2  0  0  0
  -24.8798  -28.9141   20.1146 C   0  0  0  0  0  0
  -22.7511  -29.4595   22.4907 C   0  0  0  0  0  0
  -18.0292  -28.1388   22.8484 C   0  0  0  0  0  0
  -24.1489  -36.7282   23.2642 C   0  0  0  0  0  0
  -25.9781  -30.7619   21.3779 C   0  0  0  0  0  0
  -26.0527  -29.3810   20.7234 C   0  0  0  0  0  0
  -27.2291  -28.5607   20.7218 C   0  0  0  0  0  0
  -26.0265  -26.8465   19.5057 C   0  0  0  0  0  0
  -24.8725  -27.6552   19.4931 C   0  0  0  0  0  0
  -23.6517  -29.8043   20.1580 C   0  0  0  0  0  0
  -25.4116  -36.3065   24.0325 C   0  0  1  0  0  0
  -20.5898  -28.3704   23.1262 C   0  0  2  0  0  0
  -20.6780  -26.9419   22.5408 C   0  0  0  0  0  0
  -19.5755  -26.6384   21.5211 C   0  0  0  0  0  0
  -18.1935  -26.7928   22.1625 C   0  0  0  0  0  0
  -19.1547  -28.8863   23.2867 C   0  0  0  0  0  0
  -18.9468  -30.1461   23.8891 C   0  0  0  0  0  0
  -17.6467  -30.6590   24.0561 C   0  0  0  0  0  0
  -25.9059  -34.9435   23.5089 C   0  0  0  0  0  0
  -16.5357  -29.9087   23.6332 C   0  0  0  0  0  0
  -16.7278  -28.6502   23.0356 C   0  0  0  0  0  0
  -26.4502  -31.6578   25.0719 C   0  0  0  0  0  0
  -25.3717  -31.3740   26.1437 C   0  0  0  0  0  0
  -27.0353  -30.2988   24.6224 C   0  0  0  0  0  0
  -27.6050  -32.4327   25.7493 C   0  0  0  0  0  0
  -27.5577  -37.1796   24.8464 C   0  0  0  0  0  0
  -21.4216  -29.3047   22.3649 N   0  0  0  0  0  0
  -26.4289  -37.3766   23.9408 N   0  0  0  0  0  0
  -24.6998  -31.0484   22.0942 N   0  0  0  0  0  0
  -23.4200  -28.8142   23.3021 O   0  0  0  0  0  0
  -28.2985  -26.3288   20.1481 O   0  0  0  0  0  0
  -26.5641  -34.8915   22.4666 O   0  0  0  0  0  0
  -23.5475  -32.1363   23.7246 O   0  0  0  0  0  0
  -28.9482  -20.5087   19.0506 C   0  0  0  0  0  0
  -29.5017  -19.8886   21.1238 C   0  0  0  0  0  0
  -29.0666  -21.0285   20.3092 C   0  0  0  0  0  0
  -29.6054  -18.7443   20.3103 C   0  0  0  0  0  0
  -30.1976  -17.3598   20.3977 C   0  0  0  0  0  0
  -29.7364  -16.0496   20.5307 C   0  0  0  0  0  0
  -28.6228  -23.6351   20.0491 C   0  0  0  0  0  0
  -31.1209  -20.7035   22.8853 C   0  0  0  0  0  0
  -28.6954  -25.0965   22.2039 C   0  0  0  0  0  0
  -29.8220  -19.9410   22.5967 C   0  0  0  0  0  0
  -28.0950  -24.9752   20.7941 C   0  0  1  0  0  0
  -28.7741  -22.4310   20.7399 N   0  0  0  0  0  0
  -28.8695  -23.6999   18.8421 O   0  0  0  0  0  0
  -29.2771  -19.1646   19.0404 O   0  0  0  0  0  0
  -31.4767  -12.5985   19.1903 H   0  0  0  0  0  0
  -30.3817  -11.5059   19.9874 H   0  0  0  0  0  0
  -29.8114  -11.7297   17.5407 H   0  0  0  0  0  0
  -29.6392  -13.4580   17.7244 H   0  0  0  0  0  0
  -27.9068  -11.2765   18.9287 H   0  0  0  0  0  0
  -27.3885  -12.4997   17.7989 H   0  0  0  0  0  0
  -27.6215  -14.2474   19.4415 H   0  0  0  0  0  0
  -28.7188  -12.2036   21.4344 H   0  0  0  0  0  0
  -28.4035  -13.8838   21.7790 H   0  0  0  0  0  0
  -25.2763   -9.5689   22.4759 H   0  0  0  0  0  0
  -24.0004   -7.4637   22.7470 H   0  0  0  0  0  0
  -21.0839   -8.8776   19.8953 H   0  0  0  0  0  0
  -22.3695  -10.9673   19.6168 H   0  0  0  0  0  0
  -21.2009   -7.6144   23.9714 H   0  0  0  0  0  0
  -21.1484   -6.0520   25.9077 H   0  0  0  0  0  0
  -22.0596   -2.7606   23.2847 H   0  0  0  0  0  0
  -22.4088  -11.9881   22.4823 H   0  0  0  0  0  0
  -21.1087  -13.1242   22.2639 H   0  0  0  0  0  0
  -24.6514  -15.8454   20.5273 H   0  0  0  0  0  0
  -26.2677  -15.6345   20.0836 H   0  0  0  0  0  0
  -26.7212  -32.5392   23.1060 H   0  0  0  0  0  0
  -25.0046  -33.9679   25.0364 H   0  0  0  0  0  0
  -22.7284  -31.2970   21.3906 H   0  0  0  0  0  0
  -23.3752  -35.9613   23.3300 H   0  0  0  0  0  0
  -24.3578  -36.8914   22.2057 H   0  0  0  0  0  0
  -23.7242  -37.6480   23.6675 H   0  0  0  0  0  0
  -26.1181  -31.5201   20.6063 H   0  0  0  0  0  0
  -26.8547  -30.8131   22.0122 H   0  0  0  0  0  0
  -28.1298  -28.9150   21.2032 H   0  0  0  0  0  0
  -25.9802  -25.8794   19.0249 H   0  0  0  0  0  0
  -23.9754  -27.2928   19.0095 H   0  0  0  0  0  0
  -23.7791  -30.5784   19.4005 H   0  0  0  0  0  0
  -22.7695  -29.2390   19.8527 H   0  0  0  0  0  0
  -25.1300  -36.1907   25.0817 H   0  0  0  0  0  0
  -20.9988  -28.3285   24.1383 H   0  0  0  0  0  0
  -20.5677  -26.2315   23.3615 H   0  0  0  0  0  0
  -21.6647  -26.7439   22.1203 H   0  0  0  0  0  0
  -19.6918  -25.6293   21.1247 H   0  0  0  0  0  0
  -19.6689  -27.3190   20.6736 H   0  0  0  0  0  0
  -17.4202  -26.6670   21.4030 H   0  0  0  0  0  0
  -18.0340  -26.0072   22.9024 H   0  0  0  0  0  0
  -19.7944  -30.7276   24.2260 H   0  0  0  0  0  0
  -17.5023  -31.6269   24.5163 H   0  0  0  0  0  0
  -15.5358  -30.2988   23.7660 H   0  0  0  0  0  0
  -15.8676  -28.0818   22.7081 H   0  0  0  0  0  0
  -24.5877  -30.7111   25.7757 H   0  0  0  0  0  0
  -24.8931  -32.2918   26.4862 H   0  0  0  0  0  0
  -25.8022  -30.8904   27.0215 H   0  0  0  0  0  0
  -26.2943  -29.6730   24.1237 H   0  0  0  0  0  0
  -27.4008  -29.7260   25.4757 H   0  0  0  0  0  0
  -27.8832  -30.4250   23.9489 H   0  0  0  0  0  0
  -27.2649  -33.3629   26.2057 H   0  0  0  0  0  0
  -28.3865  -32.6887   25.0326 H   0  0  0  0  0  0
  -28.0715  -31.8466   26.5421 H   0  0  0  0  0  0
  -28.2594  -38.0093   24.7510 H   0  0  0  0  0  0
  -28.1074  -36.2625   24.6291 H   0  0  0  0  0  0
  -27.2297  -37.1445   25.8868 H   0  0  0  0  0  0
  -20.9408  -29.8759   21.6839 H   0  0  0  0  0  0
  -26.0167  -38.2839   24.1407 H   0  0  0  0  0  0
  -28.6585  -20.9214   18.0938 H   0  0  0  0  0  0
  -31.2702  -17.4147   20.2730 H   0  0  0  0  0  0
  -28.6744  -15.9282   20.6735 H   0  0  0  0  0  0
  -31.3288  -20.7251   23.9552 H   0  0  0  0  0  0
  -31.0631  -21.7361   22.5398 H   0  0  0  0  0  0
  -31.9719  -20.2336   22.3914 H   0  0  0  0  0  0
  -28.5130  -24.2061   22.8052 H   0  0  0  0  0  0
  -28.2563  -25.9383   22.7395 H   0  0  0  0  0  0
  -29.7727  -25.2577   22.1580 H   0  0  0  0  0  0
  -29.8961  -18.9234   22.9829 H   0  0  0  0  0  0
  -28.9881  -20.4095   23.1205 H   0  0  0  0  0  0
  -27.0244  -24.8108   20.9205 H   0  0  0  0  0  0
  -28.6382  -22.5370   21.7354 H   0  0  0  0  0  0
  1 25  1  0  0  0
  1 30  2  0  0  0
  1 76  1  0  0  0
  2  3  1  0  0  0
  2 25  1  0  0  0
  2 85  1  0  0  0
  2 86  1  0  0  0
  3  4  1  0  0  0
  3 87  1  0  0  0
  3 88  1  0  0  0
  4  5  1  0  0  0
  4 89  1  0  0  0
  4 90  1  0  0  0
  5  6  1  0  0  0
  5 26  1  0  0  0
  5 91  1  0  0  0
  6 25  1  0  0  0
  6 92  1  0  0  0
  6 93  1  0  0  0
  7  8  2  0  0  0
  7 26  1  0  0  0
  7 29  1  0  0  0
  8  9  1  0  0  0
  8 22  1  0  0  0
  9 10  1  0  0  0
  9 27  2  0  0  0
 10 11  2  0  0  0
 10 15  1  0  0  0
 11 12  1  0  0  0
 11 94  1  0  0  0
 12 13  2  0  0  0
 12 95  1  0  0  0
 13 14  1  0  0  0
 13 31  1  0  0  0
 14 15  2  0  0  0
 14 96  1  0  0  0
 15 97  1  0  0  0
 16 17  2  0  0  0
 16 21  1  0  0  0
 16 31  1  0  0  0
 17 18  1  0  0  0
 17 98  1  0  0  0
 18 19  2  0  0  0
 18 99  1  0  0  0
 19 20  1  0  0  0
 19 24  1  0  0  0
 20 21  2  0  0  0
 20100  1  0  0  0
 21 23  1  0  0  0
 22 28  1  0  0  0
 22 32  2  0  0  0
 26 27  1  0  0  0
 28101  1  0  0  0
 28102  1  0  0  0
 29103  1  0  0  0
 29104  1  0  0  0
 33 34  1  0  0  0
 33 66  1  0  0  0
 33 70  2  0  0  0
 34 36  1  0  0  0
 34 59  1  0  0  0
 34105  1  0  0  0
 35 44  2  0  0  0
 35 45  1  0  0  0
 35 68  1  0  0  0
 36 56  1  0  0  0
 36106  1  0  0  0
 37 39  1  0  0  0
 37 47  1  0  0  0
 37 66  1  0  0  0
 37107  1  0  0  0
 38 43  2  0  0  0
 38 46  1  0  0  0
 38 47  1  0  0  0
 39 64  1  0  0  0
 39 67  2  0  0  0
 40 52  1  0  0  0
 40 53  2  0  0  0
 40 58  1  0  0  0
 41108  1  0  0  0
 41109  1  0  0  0
 41110  1  0  0  0
 41 48  1  0  0  0
 42 43  1  0  0  0
 42 66  1  0  0  0
 42111  1  0  0  0
 42112  1  0  0  0
 43 44  1  0  0  0
 44113  1  0  0  0
 45 46  2  0  0  0
 45114  1  0  0  0
 46115  1  0  0  0
 47116  1  0  0  0
 47117  1  0  0  0
 48 56  1  0  0  0
 48 65  1  0  0  0
 48118  1  0  0  0
 49 50  1  0  0  0
 49 53  1  0  0  0
 49 64  1  0  0  0
 49119  1  0  0  0
 50 51  1  0  0  0
 50120  1  0  0  0
 50121  1  0  0  0
 51 52  1  0  0  0
 51122  1  0  0  0
 51123  1  0  0  0
 52124  1  0  0  0
 52125  1  0  0  0
 53 54  1  0  0  0
 54 55  2  0  0  0
 54126  1  0  0  0
 55 57  1  0  0  0
 55127  1  0  0  0
 56 69  2  0  0  0
 57 58  2  0  0  0
 57128  1  0  0  0
 58129  1  0  0  0
 59 60  1  0  0  0
 59 61  1  0  0  0
 59 62  1  0  0  0
 60130  1  0  0  0
 60131  1  0  0  0
 60132  1  0  0  0
 61133  1  0  0  0
 61134  1  0  0  0
 61135  1  0  0  0
 62136  1  0  0  0
 62137  1  0  0  0
 62138  1  0  0  0
 63 65  1  0  0  0
 63139  1  0  0  0
 63140  1  0  0  0
 63141  1  0  0  0
 64142  1  0  0  0
 65143  1  0  0  0
 68 81  1  0  0  0
 71 73  2  0  0  0
 71 84  1  0  0  0
 71144  1  0  0  0
 72 73  1  0  0  0
 72 74  2  0  0  0
 72 80  1  0  0  0
 73 82  1  0  0  0
 74 75  1  0  0  0
 74 84  1  0  0  0
 75 76  2  0  0  0
 75145  1  0  0  0
 76146  1  0  0  0
 77 81  1  0  0  0
 77 82  1  0  0  0
 77 83  2  0  0  0
 78 80  1  0  0  0
 78147  1  0  0  0
 78148  1  0  0  0
 78149  1  0  0  0
 79150  1  0  0  0
 79151  1  0  0  0
 79152  1  0  0  0
 79 81  1  0  0  0
 80153  1  0  0  0
 80154  1  0  0  0
 81155  1  0  0  0
 82156  1  0  0  0
M  ISO  4   1 100  68 101  76 100  81 101
M  END
> <chiral flag>
0

> <version>
0

> <s_m_source_file>
/data/baiqing/PycharmProjects/Reinvent-master-3.2/result/LINK_invent/BTK/process_docking_weight1_custom_product_contain_oxygen_bond_distance_aromatic_linkinvent_7_9_3/rearranged_h_0171.sdf

> <i_m_source_file_index>
60

> <r_mmod_Potential_Energy-OPLS-2005>
190.186264038086

> <r_mmod_Stretch_Energy-OPLS-2005>
131.148513793945

> <r_mmod_Bend_Energy-OPLS-2005>
175.037185668945

> <r_mmod_Torsional_Energy-OPLS-2005>
253.377426147461

> <r_mmod_Improper_Torsional_Energy-OPLS-2005>
7.12740564346313

> <r_mmod_Van_der_Waal_Energy-OPLS-2005>
109.394424438477

> <r_mmod_Electrostatic_Energy-OPLS-2005>
-365.166564941406

> <r_mmod_Solvation_Energy-OPLS-2005>
-222.710357666016

> <b_mmod_Minimization_Converged-OPLS-2005>
0

> <r_mmod_RMS_Derivative-OPLS-2005>
0.443145155906677

$$$$
60
                    3D
 Structure written by MMmdl.
151159  0  0  1  0            999 V2000
  -30.6656  -14.5472   20.5487 C   0  0  0  0  0  0
  -30.4271  -12.3490   19.4315 C   0  0  0  0  0  0
  -29.4975  -12.5026   18.2102 C   0  0  0  0  0  0
  -28.0209  -12.3438   18.6251 C   0  0  0  0  0  0
  -27.6537  -13.2063   19.8617 C   0  0  2  0  0  0
  -28.6954  -13.0288   20.9871 C   0  0  0  0  0  0
  -25.2570  -13.8159   20.5643 C   0  0  0  0  0  0
  -24.1821  -13.0443   20.9162 C   0  0  0  0  0  0
  -24.6367  -11.6906   20.8718 C   0  0  0  0  0  0
  -23.9043  -10.4290   21.0390 C   0  0  0  0  0  0
  -24.3601   -9.4212   21.9175 C   0  0  0  0  0  0
  -23.6279   -8.2251   22.0765 C   0  0  0  0  0  0
  -22.4266   -8.0274   21.3552 C   0  0  0  0  0  0
  -21.9893   -9.0244   20.4651 C   0  0  0  0  0  0
  -22.7214  -10.2124   20.3045 C   0  0  0  0  0  0
  -21.6850   -6.0721   22.5279 C   0  0  0  0  0  0
  -21.4010   -6.5632   23.8209 C   0  0  0  0  0  0
  -21.3660   -5.6788   24.9169 C   0  0  0  0  0  0
  -21.6051   -4.3054   24.7221 C   0  0  0  0  0  0
  -21.8821   -3.8140   23.4350 C   0  0  0  0  0  0
  -21.9195   -4.6956   22.3400 C   0  0  0  0  0  0
  -22.7849  -13.5251   21.1826 C   0  0  0  0  0  0
  -22.1663   -4.2139   21.0981 F   0  0  0  0  0  0
  -21.5636   -3.4539   25.7741 F   0  0  0  0  0  0
  -30.0161  -13.3539   20.4267 N   0  0  0  0  0  0
  -26.2975  -12.9317   20.3283 N   0  0  0  0  0  0
  -25.9290  -11.6480   20.5739 N   0  0  0  0  0  0
  -22.0475  -12.8243   22.0371 N   0  0  0  0  0  0
  -25.4321  -15.1877   20.4039 N   0  0  0  0  0  0
  -31.8128  -14.7158   20.1250 O   0  0  0  0  0  0
  -21.6640   -6.8867   21.4242 O   0  0  0  0  0  0
  -22.3548  -14.5557   20.6669 O   0  0  0  0  0  0
  -24.6217  -31.8637   23.2024 C   0  0  0  0  0  0
  -25.9080  -32.4797   23.8348 C   0  0  1  0  0  0
  -27.2368  -27.3759   20.0859 C   0  0  0  0  0  0
  -25.5914  -33.8595   24.2272 N   0  0  0  0  0  0
  -23.4127  -30.4854   21.5430 C   0  0  2  0  0  0
  -24.8569  -28.9394   20.1141 C   0  0  0  0  0  0
  -22.7443  -29.4651   22.4943 C   0  0  0  0  0  0
  -18.0280  -28.1393   22.8471 C   0  0  0  0  0  0
  -24.1495  -36.7291   23.2636 C   0  0  0  0  0  0
  -25.9491  -30.8104   21.3625 C   0  0  0  0  0  0
  -26.0232  -29.4404   20.7051 C   0  0  0  0  0  0
  -27.2125  -28.6668   20.6835 C   0  0  0  0  0  0
  -26.0404  -26.8975   19.5047 C   0  0  0  0  0  0
  -24.8631  -27.6693   19.5133 C   0  0  0  0  0  0
  -23.6222  -29.8130   20.1608 C   0  0  0  0  0  0
  -25.4123  -36.3087   24.0325 C   0  0  1  0  0  0
  -20.5881  -28.3679   23.1296 C   0  0  2  0  0  0
  -20.6778  -26.9412   22.5406 C   0  0  0  0  0  0
  -19.5756  -26.6405   21.5206 C   0  0  0  0  0  0
  -18.1926  -26.7937   22.1613 C   0  0  0  0  0  0
  -19.1538  -28.8843   23.2873 C   0  0  0  0  0  0
  -18.9469  -30.1443   23.8896 C   0  0  0  0  0  0
  -17.6473  -30.6592   24.0558 C   0  0  0  0  0  0
  -25.9061  -34.9461   23.5102 C   0  0  0  0  0  0
  -16.5354  -29.9099   23.6337 C   0  0  0  0  0  0
  -16.7269  -28.6515   23.0349 C   0  0  0  0  0  0
  -26.4466  -31.6603   25.0716 C   0  0  0  0  0  0
  -25.3689  -31.3780   26.1440 C   0  0  0  0  0  0
  -27.0304  -30.3029   24.6164 C   0  0  0  0  0  0
  -27.6030  -32.4345   25.7483 C   0  0  0  0  0  0
  -27.5577  -37.1799   24.8467 C   0  0  0  0  0  0
  -21.4167  -29.3037   22.3671 N   0  0  0  0  0  0
  -26.4301  -37.3783   23.9403 N   0  0  0  0  0  0
  -24.6798  -31.0684   22.0939 N   0  0  0  0  0  0
  -23.4187  -28.8194   23.3020 O   0  0  0  0  0  0
  -28.4117  -26.6305   20.1069 O   0  0  0  0  0  0
  -26.5627  -34.8922   22.4674 O   0  0  0  0  0  0
  -23.5391  -32.1405   23.7373 O   0  0  0  0  0  0
  -29.2421  -18.2388   19.3169 C   0  0  0  0  0  0
  -28.8551  -19.6073   19.1458 C   0  0  0  0  0  0
  -29.7619  -18.1041   20.5804 C   0  0  0  0  0  0
  -29.1460  -20.2259   20.3302 C   0  0  0  0  0  0
  -28.4982  -24.0942   20.3406 C   0  0  0  0  0  0
  -30.4035  -16.9524   21.3506 C   0  0  0  0  0  0
  -28.7029  -22.6719   19.7157 C   0  0  0  0  0  0
  -28.5296  -25.3510   19.4102 C   0  0  0  0  0  0
  -28.9272  -21.5755   20.6930 N   0  0  0  0  0  0
  -29.9353  -15.5783   21.0388 N   0  0  0  0  0  0
  -28.3377  -24.2095   21.5610 O   0  0  0  0  0  0
  -29.6917  -19.3314   21.2176 O   0  0  0  0  0  0
  -31.4689  -12.4639   19.1285 H   0  0  0  0  0  0
  -30.3505  -11.3466   19.8555 H   0  0  0  0  0  0
  -29.7526  -11.7643   17.4488 H   0  0  0  0  0  0
  -29.6475  -13.4819   17.7512 H   0  0  0  0  0  0
  -27.8525  -11.2891   18.8489 H   0  0  0  0  0  0
  -27.3653  -12.5849   17.7871 H   0  0  0  0  0  0
  -27.6846  -14.2459   19.5356 H   0  0  0  0  0  0
  -28.6929  -11.9993   21.3491 H   0  0  0  0  0  0
  -28.4458  -13.6454   21.8520 H   0  0  0  0  0  0
  -25.2741   -9.5699   22.4743 H   0  0  0  0  0  0
  -23.9991   -7.4649   22.7488 H   0  0  0  0  0  0
  -21.0831   -8.8742   19.8952 H   0  0  0  0  0  0
  -22.3663  -10.9654   19.6148 H   0  0  0  0  0  0
  -21.1993   -7.6137   23.9707 H   0  0  0  0  0  0
  -21.1484   -6.0515   25.9071 H   0  0  0  0  0  0
  -22.0600   -2.7601   23.2847 H   0  0  0  0  0  0
  -22.4074  -11.9897   22.4752 H   0  0  0  0  0  0
  -21.1092  -13.1278   22.2562 H   0  0  0  0  0  0
  -24.6698  -15.8473   20.5105 H   0  0  0  0  0  0
  -26.2806  -15.6174   20.0580 H   0  0  0  0  0  0
  -26.7140  -32.5462   23.1084 H   0  0  0  0  0  0
  -25.0068  -33.9749   25.0416 H   0  0  0  0  0  0
  -22.7049  -31.3029   21.3970 H   0  0  0  0  0  0
  -23.3758  -35.9629   23.3336 H   0  0  0  0  0  0
  -24.3576  -36.8886   22.2046 H   0  0  0  0  0  0
  -23.7259  -37.6509   23.6633 H   0  0  0  0  0  0
  -26.0789  -31.5768   20.5964 H   0  0  0  0  0  0
  -26.8312  -30.8562   21.9903 H   0  0  0  0  0  0
  -28.1161  -29.0559   21.1306 H   0  0  0  0  0  0
  -25.9770  -25.9187   19.0567 H   0  0  0  0  0  0
  -23.9621  -27.2709   19.0665 H   0  0  0  0  0  0
  -23.7307  -30.5847   19.3992 H   0  0  0  0  0  0
  -22.7444  -29.2348   19.8657 H   0  0  0  0  0  0
  -25.1299  -36.1944   25.0822 H   0  0  0  0  0  0
  -20.9962  -28.3262   24.1423 H   0  0  0  0  0  0
  -20.5717  -26.2270   23.3589 H   0  0  0  0  0  0
  -21.6637  -26.7480   22.1160 H   0  0  0  0  0  0
  -19.6932  -25.6330   21.1209 H   0  0  0  0  0  0
  -19.6712  -27.3226   20.6752 H   0  0  0  0  0  0
  -17.4205  -26.6679   21.4014 H   0  0  0  0  0  0
  -18.0315  -26.0092   22.9019 H   0  0  0  0  0  0
  -19.7949  -30.7257   24.2252 H   0  0  0  0  0  0
  -17.5041  -31.6263   24.5171 H   0  0  0  0  0  0
  -15.5354  -30.3001   23.7679 H   0  0  0  0  0  0
  -15.8667  -28.0843   22.7070 H   0  0  0  0  0  0
  -24.5873  -30.7106   25.7791 H   0  0  0  0  0  0
  -24.8842  -32.2956   26.4789 H   0  0  0  0  0  0
  -25.7993  -30.9029   27.0262 H   0  0  0  0  0  0
  -26.2871  -29.6789   24.1191 H   0  0  0  0  0  0
  -27.4008  -29.7286   25.4664 H   0  0  0  0  0  0
  -27.8724  -30.4316   23.9367 H   0  0  0  0  0  0
  -27.2648  -33.3668   26.2018 H   0  0  0  0  0  0
  -28.3852  -32.6890   25.0319 H   0  0  0  0  0  0
  -28.0670  -31.8498   26.5437 H   0  0  0  0  0  0
  -28.2604  -38.0081   24.7506 H   0  0  0  0  0  0
  -28.1066  -36.2622   24.6308 H   0  0  0  0  0  0
  -27.2286  -37.1455   25.8865 H   0  0  0  0  0  0
  -20.9331  -29.8752   21.6884 H   0  0  0  0  0  0
  -26.0190  -38.2867   24.1418 H   0  0  0  0  0  0
  -29.1690  -17.4427   18.5877 H   0  0  0  0  0  0
  -28.4179  -20.0596   18.2672 H   0  0  0  0  0  0
  -30.2417  -17.1074   22.4183 H   0  0  0  0  0  0
  -31.4852  -17.0105   21.2207 H   0  0  0  0  0  0
  -29.5493  -22.7123   19.0291 H   0  0  0  0  0  0
  -27.8237  -22.4420   19.1123 H   0  0  0  0  0  0
  -27.8297  -25.2424   18.5846 H   0  0  0  0  0  0
  -29.5129  -25.3572   18.9400 H   0  0  0  0  0  0
  -29.0792  -21.8955   21.6466 H   0  0  0  0  0  0
  -28.9893  -15.3604   21.3114 H   0  0  0  0  0  0
  1 25  1  0  0  0
  1 30  2  0  0  0
  1 80  1  0  0  0
  2  3  1  0  0  0
  2 25  1  0  0  0
  2 83  1  0  0  0
  2 84  1  0  0  0
  3  4  1  0  0  0
  3 85  1  0  0  0
  3 86  1  0  0  0
  4  5  1  0  0  0
  4 87  1  0  0  0
  4 88  1  0  0  0
  5  6  1  0  0  0
  5 26  1  0  0  0
  5 89  1  0  0  0
  6 25  1  0  0  0
  6 90  1  0  0  0
  6 91  1  0  0  0
  7  8  2  0  0  0
  7 26  1  0  0  0
  7 29  1  0  0  0
  8  9  1  0  0  0
  8 22  1  0  0  0
  9 10  1  0  0  0
  9 27  2  0  0  0
 10 11  2  0  0  0
 10 15  1  0  0  0
 11 12  1  0  0  0
 11 92  1  0  0  0
 12 13  2  0  0  0
 12 93  1  0  0  0
 13 14  1  0  0  0
 13 31  1  0  0  0
 14 15  2  0  0  0
 14 94  1  0  0  0
 15 95  1  0  0  0
 16 17  2  0  0  0
 16 21  1  0  0  0
 16 31  1  0  0  0
 17 18  1  0  0  0
 17 96  1  0  0  0
 18 19  2  0  0  0
 18 97  1  0  0  0
 19 20  1  0  0  0
 19 24  1  0  0  0
 20 21  2  0  0  0
 20 98  1  0  0  0
 21 23  1  0  0  0
 22 28  1  0  0  0
 22 32  2  0  0  0
 26 27  1  0  0  0
 28 99  1  0  0  0
 28100  1  0  0  0
 29101  1  0  0  0
 29102  1  0  0  0
 33 34  1  0  0  0
 33 66  1  0  0  0
 33 70  2  0  0  0
 34 36  1  0  0  0
 34 59  1  0  0  0
 34103  1  0  0  0
 35 44  2  0  0  0
 35 45  1  0  0  0
 35 68  1  0  0  0
 36 56  1  0  0  0
 36104  1  0  0  0
 37 39  1  0  0  0
 37 47  1  0  0  0
 37 66  1  0  0  0
 37105  1  0  0  0
 38 43  2  0  0  0
 38 46  1  0  0  0
 38 47  1  0  0  0
 39 64  1  0  0  0
 39 67  2  0  0  0
 40 52  1  0  0  0
 40 53  2  0  0  0
 40 58  1  0  0  0
 41106  1  0  0  0
 41107  1  0  0  0
 41108  1  0  0  0
 41 48  1  0  0  0
 42 43  1  0  0  0
 42 66  1  0  0  0
 42109  1  0  0  0
 42110  1  0  0  0
 43 44  1  0  0  0
 44111  1  0  0  0
 45 46  2  0  0  0
 45112  1  0  0  0
 46113  1  0  0  0
 47114  1  0  0  0
 47115  1  0  0  0
 48 56  1  0  0  0
 48 65  1  0  0  0
 48116  1  0  0  0
 49 50  1  0  0  0
 49 53  1  0  0  0
 49 64  1  0  0  0
 49117  1  0  0  0
 50 51  1  0  0  0
 50118  1  0  0  0
 50119  1  0  0  0
 51 52  1  0  0  0
 51120  1  0  0  0
 51121  1  0  0  0
 52122  1  0  0  0
 52123  1  0  0  0
 53 54  1  0  0  0
 54 55  2  0  0  0
 54124  1  0  0  0
 55 57  1  0  0  0
 55125  1  0  0  0
 56 69  2  0  0  0
 57 58  2  0  0  0
 57126  1  0  0  0
 58127  1  0  0  0
 59 60  1  0  0  0
 59 61  1  0  0  0
 59 62  1  0  0  0
 60128  1  0  0  0
 60129  1  0  0  0
 60130  1  0  0  0
 61131  1  0  0  0
 61132  1  0  0  0
 61133  1  0  0  0
 62134  1  0  0  0
 62135  1  0  0  0
 62136  1  0  0  0
 63 65  1  0  0  0
 63137  1  0  0  0
 63138  1  0  0  0
 63139  1  0  0  0
 64140  1  0  0  0
 65141  1  0  0  0
 68 78  1  0  0  0
 71 72  1  0  0  0
 71 73  2  0  0  0
 71142  1  0  0  0
 72 74  2  0  0  0
 72143  1  0  0  0
 73 76  1  0  0  0
 73 82  1  0  0  0
 74 79  1  0  0  0
 74 82  1  0  0  0
 75 77  1  0  0  0
 75 78  1  0  0  0
 75 81  2  0  0  0
 76 80  1  0  0  0
 76144  1  0  0  0
 76145  1  0  0  0
 77 79  1  0  0  0
 77146  1  0  0  0
 77147  1  0  0  0
 78148  1  0  0  0
 78149  1  0  0  0
 79150  1  0  0  0
 80151  1  0  0  0
M  ISO  4   1 100  68 101  78 101  80 100
M  END
> <chiral flag>
0

> <version>
0

> <s_m_source_file>
/data/baiqing/PycharmProjects/Reinvent-master-3.2/result/LINK_invent/BTK/process_docking_weight1_custom_product_contain_oxygen_bond_distance_aromatic_linkinvent_7_9_3/rearranged_h_0171.sdf

> <i_m_source_file_index>
61

> <r_mmod_Potential_Energy-OPLS-2005>
-151.395431518555

> <r_mmod_Stretch_Energy-OPLS-2005>
51.02734375

> <r_mmod_Bend_Energy-OPLS-2005>
124.293907165527

> <r_mmod_Torsional_Energy-OPLS-2005>
186.248672485352

> <r_mmod_Improper_Torsional_Energy-OPLS-2005>
3.47074699401855

> <r_mmod_Van_der_Waal_Energy-OPLS-2005>
124.719711303711

> <r_mmod_Electrostatic_Energy-OPLS-2005>
-416.508239746094

> <r_mmod_Solvation_Energy-OPLS-2005>
-248.977355957031

> <b_mmod_Minimization_Converged-OPLS-2005>
0

> <r_mmod_RMS_Derivative-OPLS-2005>
2.58687424659729

$$$$
61
                    3D
 Structure written by MMmdl.
157165  0  0  1  0            999 V2000
  -30.6842  -14.8295   20.5192 C   0  0  0  0  0  0
  -30.4084  -12.5558   19.4693 C   0  0  0  0  0  0
  -29.4892  -12.5482   18.2309 C   0  0  0  0  0  0
  -28.0200  -12.3472   18.6382 C   0  0  0  0  0  0
  -27.6199  -13.2422   19.8382 C   0  0  2  0  0  0
  -28.6661  -13.1500   20.9587 C   0  0  0  0  0  0
  -25.2331  -13.8166   20.5554 C   0  0  0  0  0  0
  -24.1697  -13.0416   20.9179 C   0  0  0  0  0  0
  -24.6340  -11.6898   20.8761 C   0  0  0  0  0  0
  -23.9035  -10.4279   21.0427 C   0  0  0  0  0  0
  -24.3602   -9.4195   21.9200 C   0  0  0  0  0  0
  -23.6279   -8.2224   22.0749 C   0  0  0  0  0  0
  -22.4260   -8.0263   21.3539 C   0  0  0  0  0  0
  -21.9898   -9.0230   20.4634 C   0  0  0  0  0  0
  -22.7221  -10.2109   20.3057 C   0  0  0  0  0  0
  -21.6834   -6.0720   22.5284 C   0  0  0  0  0  0
  -21.3995   -6.5631   23.8217 C   0  0  0  0  0  0
  -21.3663   -5.6787   24.9188 C   0  0  0  0  0  0
  -21.6050   -4.3048   24.7243 C   0  0  0  0  0  0
  -21.8818   -3.8135   23.4365 C   0  0  0  0  0  0
  -21.9188   -4.6947   22.3418 C   0  0  0  0  0  0
  -22.7725  -13.5167   21.1902 C   0  0  0  0  0  0
  -22.1659   -4.2133   21.0996 F   0  0  0  0  0  0
  -21.5642   -3.4544   25.7759 F   0  0  0  0  0  0
  -29.9409  -13.6441   20.3963 N   0  0  0  0  0  0
  -26.2793  -12.9418   20.3213 N   0  0  0  0  0  0
  -25.9260  -11.6548   20.5720 N   0  0  0  0  0  0
  -22.0393  -12.8142   22.0457 N   0  0  0  0  0  0
  -25.3921  -15.1875   20.3806 N   0  0  0  0  0  0
  -31.8669  -14.6956   20.1739 O   0  0  0  0  0  0
  -21.6618   -6.8866   21.4243 O   0  0  0  0  0  0
  -22.3393  -14.5484   20.6762 O   0  0  0  0  0  0
  -24.6379  -31.8512   23.1988 C   0  0  0  0  0  0
  -25.9169  -32.4739   23.8374 C   0  0  1  0  0  0
  -27.1990  -27.2052   20.1211 C   0  0  0  0  0  0
  -25.5943  -33.8558   24.2275 N   0  0  0  0  0  0
  -23.4369  -30.4749   21.5468 C   0  0  2  0  0  0
  -24.8798  -28.9264   20.1090 C   0  0  0  0  0  0
  -22.7525  -29.4562   22.4934 C   0  0  0  0  0  0
  -18.0289  -28.1335   22.8525 C   0  0  0  0  0  0
  -24.1484  -36.7282   23.2643 C   0  0  0  0  0  0
  -25.9901  -30.7423   21.3910 C   0  0  0  0  0  0
  -26.0571  -29.3628   20.7299 C   0  0  0  0  0  0
  -27.2187  -28.5113   20.7351 C   0  0  0  0  0  0
  -26.0011  -26.8733   19.4433 C   0  0  0  0  0  0
  -24.8588  -27.6904   19.4556 C   0  0  0  0  0  0
  -23.6549  -29.8189   20.1605 C   0  0  0  0  0  0
  -25.4114  -36.3079   24.0335 C   0  0  1  0  0  0
  -20.5889  -28.3659   23.1244 C   0  0  2  0  0  0
  -20.6787  -26.9396   22.5343 C   0  0  0  0  0  0
  -19.5767  -26.6367   21.5169 C   0  0  0  0  0  0
  -18.1943  -26.7932   22.1573 C   0  0  0  0  0  0
  -19.1539  -28.8801   23.2902 C   0  0  0  0  0  0
  -18.9468  -30.1367   23.8969 C   0  0  0  0  0  0
  -17.6482  -30.6528   24.0614 C   0  0  0  0  0  0
  -25.9053  -34.9435   23.5105 C   0  0  0  0  0  0
  -16.5364  -29.9064   23.6335 C   0  0  0  0  0  0
  -16.7272  -28.6451   23.0387 C   0  0  0  0  0  0
  -26.4512  -31.6587   25.0792 C   0  0  0  0  0  0
  -25.3711  -31.3741   26.1498 C   0  0  0  0  0  0
  -27.0379  -30.3001   24.6319 C   0  0  0  0  0  0
  -27.6060  -32.4345   25.7562 C   0  0  0  0  0  0
  -27.5579  -37.1816   24.8475 C   0  0  0  0  0  0
  -21.4214  -29.3045   22.3697 N   0  0  0  0  0  0
  -26.4294  -37.3776   23.9400 N   0  0  0  0  0  0
  -24.7085  -31.0416   22.1010 N   0  0  0  0  0  0
  -23.4195  -28.8063   23.3037 O   0  0  0  0  0  0
  -28.2386  -26.2275   20.1981 O   0  0  0  0  0  0
  -26.5635  -34.8920   22.4683 O   0  0  0  0  0  0
  -23.5507  -32.1381   23.7216 O   0  0  0  0  0  0
  -26.5189  -17.7640   22.3464 C   0  0  0  0  0  0
  -27.0738  -16.5439   22.7273 C   0  0  0  0  0  0
  -27.2702  -18.6281   21.5422 C   0  0  0  0  0  0
  -28.3086  -16.1510   22.1935 C   0  0  0  0  0  0
  -28.5469  -18.2973   21.0099 C   0  0  0  0  0  0
  -29.0277  -16.8891   21.2286 C   0  0  0  0  0  0
  -28.1663  -22.1311   19.6197 C   0  0  0  0  0  0
  -28.3533  -20.7376   19.6662 C   0  0  0  0  0  0
  -28.6711  -23.4610   20.2428 C   0  0  0  0  0  0
  -31.3999  -17.1470   20.7521 C   0  0  0  0  0  0
  -29.2400  -19.6281   20.4094 C   0  0  0  0  0  0
  -27.8691  -24.8012   19.8093 C   0  0  0  0  0  0
  -30.2731  -16.1897   20.7934 N   0  0  0  0  0  0
  -29.6215  -23.5259   21.0292 O   0  0  0  0  0  0
  -27.5981  -20.0232   18.8149 O   0  0  0  0  0  0
  -31.4369  -12.6712   19.1239 H   0  0  0  0  0  0
  -30.3991  -11.5812   19.9579 H   0  0  0  0  0  0
  -29.7969  -11.7673   17.5358 H   0  0  0  0  0  0
  -29.5906  -13.4954   17.7005 H   0  0  0  0  0  0
  -27.8958  -11.2992   18.9097 H   0  0  0  0  0  0
  -27.3571  -12.5187   17.7884 H   0  0  0  0  0  0
  -27.6092  -14.2695   19.4752 H   0  0  0  0  0  0
  -28.7512  -12.1084   21.2704 H   0  0  0  0  0  0
  -28.3109  -13.6130   21.8601 H   0  0  0  0  0  0
  -25.2745   -9.5671   22.4781 H   0  0  0  0  0  0
  -23.9989   -7.4607   22.7470 H   0  0  0  0  0  0
  -21.0827   -8.8749   19.8931 H   0  0  0  0  0  0
  -22.3693  -10.9650   19.6161 H   0  0  0  0  0  0
  -21.1962   -7.6134   23.9727 H   0  0  0  0  0  0
  -21.1489   -6.0515   25.9095 H   0  0  0  0  0  0
  -22.0592   -2.7592   23.2881 H   0  0  0  0  0  0
  -22.3988  -11.9756   22.4782 H   0  0  0  0  0  0
  -21.1033  -13.1166   22.2761 H   0  0  0  0  0  0
  -24.6436  -15.8493   20.5517 H   0  0  0  0  0  0
  -26.2893  -15.6355   20.2410 H   0  0  0  0  0  0
  -26.7236  -32.5355   23.1120 H   0  0  0  0  0  0
  -25.0106  -33.9694   25.0430 H   0  0  0  0  0  0
  -22.7402  -31.3024   21.4050 H   0  0  0  0  0  0
  -23.3747  -35.9612   23.3318 H   0  0  0  0  0  0
  -24.3565  -36.8894   22.2054 H   0  0  0  0  0  0
  -23.7234  -37.6493   23.6649 H   0  0  0  0  0  0
  -26.1409  -31.4980   20.6182 H   0  0  0  0  0  0
  -26.8602  -30.7867   22.0343 H   0  0  0  0  0  0
  -28.1126  -28.8242   21.2567 H   0  0  0  0  0  0
  -25.8865  -25.9472   18.9019 H   0  0  0  0  0  0
  -23.9622  -27.3564   18.9520 H   0  0  0  0  0  0
  -23.7971  -30.6043   19.4190 H   0  0  0  0  0  0
  -22.7679  -29.2689   19.8384 H   0  0  0  0  0  0
  -25.1286  -36.1954   25.0829 H   0  0  0  0  0  0
  -21.0010  -28.3194   24.1338 H   0  0  0  0  0  0
  -20.5739  -26.2278   23.3555 H   0  0  0  0  0  0
  -21.6610  -26.7468   22.1045 H   0  0  0  0  0  0
  -19.6723  -27.3112   20.6654 H   0  0  0  0  0  0
  -19.6873  -25.6263   21.1229 H   0  0  0  0  0  0
  -17.4266  -26.6869   21.3897 H   0  0  0  0  0  0
  -18.0274  -25.9940   22.8814 H   0  0  0  0  0  0
  -19.7920  -30.7131   24.2449 H   0  0  0  0  0  0
  -17.5094  -31.6178   24.5278 H   0  0  0  0  0  0
  -15.5394  -30.3042   23.7636 H   0  0  0  0  0  0
  -15.8674  -28.0745   22.7115 H   0  0  0  0  0  0
  -24.5892  -30.7088   25.7821 H   0  0  0  0  0  0
  -24.8906  -32.2913   26.4918 H   0  0  0  0  0  0
  -25.8019  -30.8934   27.0289 H   0  0  0  0  0  0
  -26.3005  -29.6753   24.1284 H   0  0  0  0  0  0
  -27.3968  -29.7272   25.4878 H   0  0  0  0  0  0
  -27.8906  -30.4273   23.9649 H   0  0  0  0  0  0
  -27.2662  -33.3641   26.2136 H   0  0  0  0  0  0
  -28.3865  -32.6921   25.0389 H   0  0  0  0  0  0
  -28.0731  -31.8489   26.5488 H   0  0  0  0  0  0
  -28.2618  -38.0095   24.7487 H   0  0  0  0  0  0
  -28.1055  -36.2629   24.6333 H   0  0  0  0  0  0
  -27.2291  -37.1502   25.8880 H   0  0  0  0  0  0
  -20.9368  -29.8822   21.6976 H   0  0  0  0  0  0
  -26.0182  -38.2852   24.1404 H   0  0  0  0  0  0
  -25.5525  -18.0673   22.7288 H   0  0  0  0  0  0
  -26.5497  -15.9096   23.4278 H   0  0  0  0  0  0
  -26.8398  -19.6069   21.3841 H   0  0  0  0  0  0
  -28.7744  -15.2930   22.6353 H   0  0  0  0  0  0
  -27.4049  -22.3954   18.9014 H   0  0  0  0  0  0
  -31.1884  -18.0976   21.2348 H   0  0  0  0  0  0
  -31.7058  -17.3485   19.7242 H   0  0  0  0  0  0
  -32.2633  -16.7712   21.3056 H   0  0  0  0  0  0
  -30.0023  -19.3216   19.6939 H   0  0  0  0  0  0
  -29.7679  -20.1277   21.2223 H   0  0  0  0  0  0
  -26.8629  -24.6081   20.1802 H   0  0  0  0  0  0
  -27.8120  -24.7751   18.7204 H   0  0  0  0  0  0
  -27.0612  -20.6268   18.3187 H   0  0  0  0  0  0
  1 25  1  0  0  0
  1 30  2  0  0  0
  1 83  1  0  0  0
  2  3  1  0  0  0
  2 25  1  0  0  0
  2 86  1  0  0  0
  2 87  1  0  0  0
  3  4  1  0  0  0
  3 88  1  0  0  0
  3 89  1  0  0  0
  4  5  1  0  0  0
  4 90  1  0  0  0
  4 91  1  0  0  0
  5  6  1  0  0  0
  5 26  1  0  0  0
  5 92  1  0  0  0
  6 25  1  0  0  0
  6 93  1  0  0  0
  6 94  1  0  0  0
  7  8  2  0  0  0
  7 26  1  0  0  0
  7 29  1  0  0  0
  8  9  1  0  0  0
  8 22  1  0  0  0
  9 10  1  0  0  0
  9 27  2  0  0  0
 10 11  2  0  0  0
 10 15  1  0  0  0
 11 12  1  0  0  0
 11 95  1  0  0  0
 12 13  2  0  0  0
 12 96  1  0  0  0
 13 14  1  0  0  0
 13 31  1  0  0  0
 14 15  2  0  0  0
 14 97  1  0  0  0
 15 98  1  0  0  0
 16 17  2  0  0  0
 16 21  1  0  0  0
 16 31  1  0  0  0
 17 18  1  0  0  0
 17 99  1  0  0  0
 18 19  2  0  0  0
 18100  1  0  0  0
 19 20  1  0  0  0
 19 24  1  0  0  0
 20 21  2  0  0  0
 20101  1  0  0  0
 21 23  1  0  0  0
 22 28  1  0  0  0
 22 32  2  0  0  0
 26 27  1  0  0  0
 28102  1  0  0  0
 28103  1  0  0  0
 29104  1  0  0  0
 29105  1  0  0  0
 33 34  1  0  0  0
 33 66  1  0  0  0
 33 70  2  0  0  0
 34 36  1  0  0  0
 34 59  1  0  0  0
 34106  1  0  0  0
 35 44  2  0  0  0
 35 45  1  0  0  0
 35 68  1  0  0  0
 36 56  1  0  0  0
 36107  1  0  0  0
 37 39  1  0  0  0
 37 47  1  0  0  0
 37 66  1  0  0  0
 37108  1  0  0  0
 38 43  2  0  0  0
 38 46  1  0  0  0
 38 47  1  0  0  0
 39 64  1  0  0  0
 39 67  2  0  0  0
 40 52  1  0  0  0
 40 53  2  0  0  0
 40 58  1  0  0  0
 41109  1  0  0  0
 41110  1  0  0  0
 41111  1  0  0  0
 41 48  1  0  0  0
 42 43  1  0  0  0
 42 66  1  0  0  0
 42112  1  0  0  0
 42113  1  0  0  0
 43 44  1  0  0  0
 44114  1  0  0  0
 45 46  2  0  0  0
 45115  1  0  0  0
 46116  1  0  0  0
 47117  1  0  0  0
 47118  1  0  0  0
 48 56  1  0  0  0
 48 65  1  0  0  0
 48119  1  0  0  0
 49 50  1  0  0  0
 49 53  1  0  0  0
 49 64  1  0  0  0
 49120  1  0  0  0
 50 51  1  0  0  0
 50121  1  0  0  0
 50122  1  0  0  0
 51 52  1  0  0  0
 51123  1  0  0  0
 51124  1  0  0  0
 52125  1  0  0  0
 52126  1  0  0  0
 53 54  1  0  0  0
 54 55  2  0  0  0
 54127  1  0  0  0
 55 57  1  0  0  0
 55128  1  0  0  0
 56 69  2  0  0  0
 57 58  2  0  0  0
 57129  1  0  0  0
 58130  1  0  0  0
 59 60  1  0  0  0
 59 61  1  0  0  0
 59 62  1  0  0  0
 60131  1  0  0  0
 60132  1  0  0  0
 60133  1  0  0  0
 61134  1  0  0  0
 61135  1  0  0  0
 61136  1  0  0  0
 62137  1  0  0  0
 62138  1  0  0  0
 62139  1  0  0  0
 63 65  1  0  0  0
 63140  1  0  0  0
 63141  1  0  0  0
 63142  1  0  0  0
 64143  1  0  0  0
 65144  1  0  0  0
 68 82  1  0  0  0
 71 72  2  0  0  0
 71 73  1  0  0  0
 71145  1  0  0  0
 72 74  1  0  0  0
 72146  1  0  0  0
 73 75  2  0  0  0
 73147  1  0  0  0
 74 76  2  0  0  0
 74148  1  0  0  0
 75 76  1  0  0  0
 75 81  1  0  0  0
 76 83  1  0  0  0
 77 78  2  0  0  0
 77 79  1  0  0  0
 77149  1  0  0  0
 78 81  1  0  0  0
 78 85  1  0  0  0
 79 82  1  0  0  0
 79 84  2  0  0  0
 80 83  1  0  0  0
 80150  1  0  0  0
 80151  1  0  0  0
 80152  1  0  0  0
 81153  1  0  0  0
 81154  1  0  0  0
 82155  1  0  0  0
 82156  1  0  0  0
 85157  1  0  0  0
M  ISO  4   1 100  68 101  82 101  83 100
M  END
> <chiral flag>
0

> <version>
0

> <s_m_source_file>
/data/baiqing/PycharmProjects/Reinvent-master-3.2/result/LINK_invent/BTK/process_docking_weight1_custom_product_contain_oxygen_bond_distance_aromatic_linkinvent_7_9_3/rearranged_h_0171.sdf

> <i_m_source_file_index>
62

> <r_mmod_Potential_Energy-OPLS-2005>
669.311767578125

> <r_mmod_Stretch_Energy-OPLS-2005>
198.515777587891

> <r_mmod_Bend_Energy-OPLS-2005>
387.647125244141

> <r_mmod_Torsional_Energy-OPLS-2005>
246.110397338867

> <r_mmod_Improper_Torsional_Energy-OPLS-2005>
6.65740776062012

> <r_mmod_Van_der_Waal_Energy-OPLS-2005>
181.419876098633

> <r_mmod_Electrostatic_Energy-OPLS-2005>
-251.711563110352

> <r_mmod_Solvation_Energy-OPLS-2005>
-226.028915405273

> <b_mmod_Minimization_Converged-OPLS-2005>
0

> <r_mmod_RMS_Derivative-OPLS-2005>
3.80302691459656

$$$$
62
                    3D
 Structure written by MMmdl.
157165  0  0  1  0            999 V2000
  -30.6174  -14.7297   20.4630 C   0  0  0  0  0  0
  -30.4313  -12.4472   19.4646 C   0  0  0  0  0  0
  -29.5066  -12.5039   18.2292 C   0  0  0  0  0  0
  -28.0331  -12.3286   18.6457 C   0  0  0  0  0  0
  -27.6398  -13.2297   19.8467 C   0  0  2  0  0  0
  -28.6859  -13.1626   20.9808 C   0  0  0  0  0  0
  -25.2498  -13.8185   20.5674 C   0  0  0  0  0  0
  -24.1798  -13.0437   20.9217 C   0  0  0  0  0  0
  -24.6388  -11.6914   20.8756 C   0  0  0  0  0  0
  -23.9064  -10.4292   21.0412 C   0  0  0  0  0  0
  -24.3618   -9.4207   21.9186 C   0  0  0  0  0  0
  -23.6294   -8.2241   22.0754 C   0  0  0  0  0  0
  -22.4276   -8.0279   21.3543 C   0  0  0  0  0  0
  -21.9911   -9.0252   20.4648 C   0  0  0  0  0  0
  -22.7239  -10.2130   20.3059 C   0  0  0  0  0  0
  -21.6852   -6.0731   22.5277 C   0  0  0  0  0  0
  -21.4011   -6.5636   23.8208 C   0  0  0  0  0  0
  -21.3660   -5.6791   24.9172 C   0  0  0  0  0  0
  -21.6045   -4.3052   24.7224 C   0  0  0  0  0  0
  -21.8822   -3.8141   23.4345 C   0  0  0  0  0  0
  -21.9194   -4.6958   22.3401 C   0  0  0  0  0  0
  -22.7822  -13.5220   21.1874 C   0  0  0  0  0  0
  -22.1663   -4.2141   21.0981 F   0  0  0  0  0  0
  -21.5630   -3.4537   25.7736 F   0  0  0  0  0  0
  -29.9864  -13.5090   20.3947 N   0  0  0  0  0  0
  -26.2923  -12.9392   20.3259 N   0  0  0  0  0  0
  -25.9315  -11.6538   20.5749 N   0  0  0  0  0  0
  -22.0467  -12.8208   22.0430 N   0  0  0  0  0  0
  -25.4161  -15.1904   20.4033 N   0  0  0  0  0  0
  -31.8117  -14.8115   20.1616 O   0  0  0  0  0  0
  -21.6644   -6.8873   21.4238 O   0  0  0  0  0  0
  -22.3510  -14.5527   20.6726 O   0  0  0  0  0  0
  -24.6299  -31.8554   23.1978 C   0  0  0  0  0  0
  -25.9126  -32.4753   23.8329 C   0  0  1  0  0  0
  -27.2175  -27.2724   20.1341 C   0  0  0  0  0  0
  -25.5930  -33.8556   24.2262 N   0  0  0  0  0  0
  -23.4267  -30.4777   21.5404 C   0  0  2  0  0  0
  -24.8739  -28.9224   20.1125 C   0  0  0  0  0  0
  -22.7497  -29.4604   22.4906 C   0  0  0  0  0  0
  -18.0293  -28.1386   22.8486 C   0  0  0  0  0  0
  -24.1485  -36.7278   23.2642 C   0  0  0  0  0  0
  -25.9710  -30.7725   21.3750 C   0  0  0  0  0  0
  -26.0456  -29.3948   20.7196 C   0  0  0  0  0  0
  -27.2246  -28.5838   20.7152 C   0  0  0  0  0  0
  -26.0272  -26.8613   19.5009 C   0  0  0  0  0  0
  -24.8688  -27.6628   19.4916 C   0  0  0  0  0  0
  -23.6448  -29.8092   20.1575 C   0  0  0  0  0  0
  -25.4110  -36.3070   24.0334 C   0  0  1  0  0  0
  -20.5896  -28.3694   23.1268 C   0  0  2  0  0  0
  -20.6774  -26.9411   22.5408 C   0  0  0  0  0  0
  -19.5752  -26.6382   21.5209 C   0  0  0  0  0  0
  -18.1934  -26.7932   22.1621 C   0  0  0  0  0  0
  -19.1547  -28.8858   23.2873 C   0  0  0  0  0  0
  -18.9469  -30.1460   23.8888 C   0  0  0  0  0  0
  -17.6467  -30.6587   24.0564 C   0  0  0  0  0  0
  -25.9051  -34.9441   23.5099 C   0  0  0  0  0  0
  -16.5357  -29.9083   23.6336 C   0  0  0  0  0  0
  -16.7280  -28.6503   23.0355 C   0  0  0  0  0  0
  -26.4500  -31.6578   25.0715 C   0  0  0  0  0  0
  -25.3727  -31.3737   26.1441 C   0  0  0  0  0  0
  -27.0348  -30.2995   24.6202 C   0  0  0  0  0  0
  -27.6059  -32.4316   25.7483 C   0  0  0  0  0  0
  -27.5579  -37.1791   24.8466 C   0  0  0  0  0  0
  -21.4205  -29.3043   22.3654 N   0  0  0  0  0  0
  -26.4285  -37.3769   23.9420 N   0  0  0  0  0  0
  -24.6948  -31.0532   22.0943 N   0  0  0  0  0  0
  -23.4204  -28.8146   23.3001 O   0  0  0  0  0  0
  -28.3039  -26.3760   20.1479 O   0  0  0  0  0  0
  -26.5620  -34.8917   22.4665 O   0  0  0  0  0  0
  -23.5451  -32.1367   23.7280 O   0  0  0  0  0  0
  -31.4645  -17.6507   21.2280 C   0  0  0  0  0  0
  -31.8661  -18.9909   21.3688 C   0  0  0  0  0  0
  -29.3189  -18.4331   20.3688 C   0  0  0  0  0  0
  -30.1943  -17.3094   20.7149 C   0  0  0  0  0  0
  -29.7202  -19.8387   20.5076 C   0  0  0  0  0  0
  -31.0265  -20.0614   21.0123 C   0  0  0  0  0  0
  -28.6582  -23.7132   20.0135 C   0  0  0  0  0  0
  -27.9316  -17.6697   18.3735 C   0  0  0  0  0  0
  -27.9249  -18.1097   19.8440 C   0  0  0  0  0  0
  -28.8281  -22.3347   20.8215 C   0  0  0  0  0  0
  -28.0619  -25.0139   20.7355 C   0  0  0  0  0  0
  -29.8325  -15.8661   20.6252 N   0  0  0  0  0  0
  -28.9176  -20.9877   20.1095 N   0  0  0  0  0  0
  -28.9753  -23.7591   18.8202 O   0  0  0  0  0  0
  -31.5205  -21.3179   21.1293 F   0  0  0  0  0  0
  -31.4718  -12.5707   19.1598 H   0  0  0  0  0  0
  -30.3762  -11.4698   19.9470 H   0  0  0  0  0  0
  -29.7876  -11.7317   17.5118 H   0  0  0  0  0  0
  -29.6317  -13.4593   17.7164 H   0  0  0  0  0  0
  -27.8902  -11.2799   18.9096 H   0  0  0  0  0  0
  -27.3741  -12.5184   17.7973 H   0  0  0  0  0  0
  -27.6329  -14.2503   19.4638 H   0  0  0  0  0  0
  -28.7189  -12.1662   21.4234 H   0  0  0  0  0  0
  -28.4249  -13.8476   21.7892 H   0  0  0  0  0  0
  -25.2762   -9.5684   22.4763 H   0  0  0  0  0  0
  -24.0003   -7.4629   22.7472 H   0  0  0  0  0  0
  -21.0841   -8.8770   19.8954 H   0  0  0  0  0  0
  -22.3698  -10.9670   19.6170 H   0  0  0  0  0  0
  -21.2002   -7.6146   23.9709 H   0  0  0  0  0  0
  -21.1480   -6.0522   25.9075 H   0  0  0  0  0  0
  -22.0602   -2.7604   23.2847 H   0  0  0  0  0  0
  -22.4078  -11.9866   22.4811 H   0  0  0  0  0  0
  -21.1090  -13.1238   22.2645 H   0  0  0  0  0  0
  -24.6372  -15.8330   20.4958 H   0  0  0  0  0  0
  -26.2364  -15.6186   19.9984 H   0  0  0  0  0  0
  -26.7191  -32.5408   23.1070 H   0  0  0  0  0  0
  -25.0087  -33.9692   25.0416 H   0  0  0  0  0  0
  -22.7233  -31.2998   21.3930 H   0  0  0  0  0  0
  -23.3756  -35.9600   23.3295 H   0  0  0  0  0  0
  -24.3581  -36.8904   22.2060 H   0  0  0  0  0  0
  -23.7225  -37.6472   23.6666 H   0  0  0  0  0  0
  -26.1071  -31.5328   20.6049 H   0  0  0  0  0  0
  -26.8495  -30.8225   22.0069 H   0  0  0  0  0  0
  -28.1240  -28.9421   21.1963 H   0  0  0  0  0  0
  -25.9854  -25.8948   19.0184 H   0  0  0  0  0  0
  -23.9726  -27.2973   19.0091 H   0  0  0  0  0  0
  -23.7691  -30.5842   19.4002 H   0  0  0  0  0  0
  -22.7641  -29.2415   19.8518 H   0  0  0  0  0  0
  -25.1289  -36.1912   25.0826 H   0  0  0  0  0  0
  -20.9999  -28.3265   24.1384 H   0  0  0  0  0  0
  -20.5662  -26.2306   23.3612 H   0  0  0  0  0  0
  -21.6641  -26.7421   22.1207 H   0  0  0  0  0  0
  -19.6909  -25.6293   21.1241 H   0  0  0  0  0  0
  -19.6697  -27.3189   20.6738 H   0  0  0  0  0  0
  -17.4207  -26.6694   21.4016 H   0  0  0  0  0  0
  -18.0329  -26.0071   22.9013 H   0  0  0  0  0  0
  -19.7945  -30.7280   24.2251 H   0  0  0  0  0  0
  -17.5022  -31.6268   24.5166 H   0  0  0  0  0  0
  -15.5358  -30.2980   23.7669 H   0  0  0  0  0  0
  -15.8685  -28.0819   22.7068 H   0  0  0  0  0  0
  -24.5902  -30.7081   25.7777 H   0  0  0  0  0  0
  -24.8916  -32.2912   26.4842 H   0  0  0  0  0  0
  -25.8045  -30.8937   27.0233 H   0  0  0  0  0  0
  -26.2930  -29.6735   24.1228 H   0  0  0  0  0  0
  -27.4033  -29.7264   25.4722 H   0  0  0  0  0  0
  -27.8807  -30.4271   23.9443 H   0  0  0  0  0  0
  -27.2672  -33.3625   26.2043 H   0  0  0  0  0  0
  -28.3876  -32.6858   25.0313 H   0  0  0  0  0  0
  -28.0718  -31.8450   26.5412 H   0  0  0  0  0  0
  -28.2588  -38.0095   24.7519 H   0  0  0  0  0  0
  -28.1083  -36.2628   24.6276 H   0  0  0  0  0  0
  -27.2309  -37.1416   25.8871 H   0  0  0  0  0  0
  -20.9383  -29.8768   21.6867 H   0  0  0  0  0  0
  -26.0163  -38.2841   24.1429 H   0  0  0  0  0  0
  -32.1611  -16.8846   21.5358 H   0  0  0  0  0  0
  -32.8522  -19.2075   21.7521 H   0  0  0  0  0  0
  -26.9215  -17.4454   18.0296 H   0  0  0  0  0  0
  -28.5365  -16.7750   18.2242 H   0  0  0  0  0  0
  -28.3338  -18.4543   17.7317 H   0  0  0  0  0  0
  -27.2638  -18.9670   19.9663 H   0  0  0  0  0  0
  -27.4890  -17.3280   20.4655 H   0  0  0  0  0  0
  -27.9624  -22.2733   21.4820 H   0  0  0  0  0  0
  -29.6713  -22.4696   21.4951 H   0  0  0  0  0  0
  -28.4562  -25.0253   21.7514 H   0  0  0  0  0  0
  -26.9912  -24.8457   20.8486 H   0  0  0  0  0  0
  -28.8460  -15.6677   20.6723 H   0  0  0  0  0  0
  -28.1046  -20.7757   19.5414 H   0  0  0  0  0  0
  1 25  1  0  0  0
  1 30  2  0  0  0
  1 82  1  0  0  0
  2  3  1  0  0  0
  2 25  1  0  0  0
  2 86  1  0  0  0
  2 87  1  0  0  0
  3  4  1  0  0  0
  3 88  1  0  0  0
  3 89  1  0  0  0
  4  5  1  0  0  0
  4 90  1  0  0  0
  4 91  1  0  0  0
  5  6  1  0  0  0
  5 26  1  0  0  0
  5 92  1  0  0  0
  6 25  1  0  0  0
  6 93  1  0  0  0
  6 94  1  0  0  0
  7  8  2  0  0  0
  7 26  1  0  0  0
  7 29  1  0  0  0
  8  9  1  0  0  0
  8 22  1  0  0  0
  9 10  1  0  0  0
  9 27  2  0  0  0
 10 11  2  0  0  0
 10 15  1  0  0  0
 11 12  1  0  0  0
 11 95  1  0  0  0
 12 13  2  0  0  0
 12 96  1  0  0  0
 13 14  1  0  0  0
 13 31  1  0  0  0
 14 15  2  0  0  0
 14 97  1  0  0  0
 15 98  1  0  0  0
 16 17  2  0  0  0
 16 21  1  0  0  0
 16 31  1  0  0  0
 17 18  1  0  0  0
 17 99  1  0  0  0
 18 19  2  0  0  0
 18100  1  0  0  0
 19 20  1  0  0  0
 19 24  1  0  0  0
 20 21  2  0  0  0
 20101  1  0  0  0
 21 23  1  0  0  0
 22 28  1  0  0  0
 22 32  2  0  0  0
 26 27  1  0  0  0
 28102  1  0  0  0
 28103  1  0  0  0
 29104  1  0  0  0
 29105  1  0  0  0
 33 34  1  0  0  0
 33 66  1  0  0  0
 33 70  2  0  0  0
 34 36  1  0  0  0
 34 59  1  0  0  0
 34106  1  0  0  0
 35 44  2  0  0  0
 35 45  1  0  0  0
 35 68  1  0  0  0
 36 56  1  0  0  0
 36107  1  0  0  0
 37 39  1  0  0  0
 37 47  1  0  0  0
 37 66  1  0  0  0
 37108  1  0  0  0
 38 43  2  0  0  0
 38 46  1  0  0  0
 38 47  1  0  0  0
 39 64  1  0  0  0
 39 67  2  0  0  0
 40 52  1  0  0  0
 40 53  2  0  0  0
 40 58  1  0  0  0
 41109  1  0  0  0
 41110  1  0  0  0
 41111  1  0  0  0
 41 48  1  0  0  0
 42 43  1  0  0  0
 42 66  1  0  0  0
 42112  1  0  0  0
 42113  1  0  0  0
 43 44  1  0  0  0
 44114  1  0  0  0
 45 46  2  0  0  0
 45115  1  0  0  0
 46116  1  0  0  0
 47117  1  0  0  0
 47118  1  0  0  0
 48 56  1  0  0  0
 48 65  1  0  0  0
 48119  1  0  0  0
 49 50  1  0  0  0
 49 53  1  0  0  0
 49 64  1  0  0  0
 49120  1  0  0  0
 50 51  1  0  0  0
 50121  1  0  0  0
 50122  1  0  0  0
 51 52  1  0  0  0
 51123  1  0  0  0
 51124  1  0  0  0
 52125  1  0  0  0
 52126  1  0  0  0
 53 54  1  0  0  0
 54 55  2  0  0  0
 54127  1  0  0  0
 55 57  1  0  0  0
 55128  1  0  0  0
 56 69  2  0  0  0
 57 58  2  0  0  0
 57129  1  0  0  0
 58130  1  0  0  0
 59 60  1  0  0  0
 59 61  1  0  0  0
 59 62  1  0  0  0
 60131  1  0  0  0
 60132  1  0  0  0
 60133  1  0  0  0
 61134  1  0  0  0
 61135  1  0  0  0
 61136  1  0  0  0
 62137  1  0  0  0
 62138  1  0  0  0
 62139  1  0  0  0
 63 65  1  0  0  0
 63140  1  0  0  0
 63141  1  0  0  0
 63142  1  0  0  0
 64143  1  0  0  0
 65144  1  0  0  0
 68 81  1  0  0  0
 71 72  2  0  0  0
 71 74  1  0  0  0
 71145  1  0  0  0
 72 76  1  0  0  0
 72146  1  0  0  0
 73 74  2  0  0  0
 73 75  1  0  0  0
 73 79  1  0  0  0
 74 82  1  0  0  0
 75 76  2  0  0  0
 75 83  1  0  0  0
 76 85  1  0  0  0
 77 80  1  0  0  0
 77 81  1  0  0  0
 77 84  2  0  0  0
 78 79  1  0  0  0
 78147  1  0  0  0
 78148  1  0  0  0
 78149  1  0  0  0
 79150  1  0  0  0
 79151  1  0  0  0
 80 83  1  0  0  0
 80152  1  0  0  0
 80153  1  0  0  0
 81154  1  0  0  0
 81155  1  0  0  0
 82156  1  0  0  0
 83157  1  0  0  0
M  ISO  4   1 100  68 101  81 101  82 100
M  END
> <chiral flag>
0

> <version>
0

> <s_m_source_file>
/data/baiqing/PycharmProjects/Reinvent-master-3.2/result/LINK_invent/BTK/process_docking_weight1_custom_product_contain_oxygen_bond_distance_aromatic_linkinvent_7_9_3/rearranged_h_0171.sdf

> <i_m_source_file_index>
63

> <r_mmod_Potential_Energy-OPLS-2005>
231.735290527344

> <r_mmod_Stretch_Energy-OPLS-2005>
125.185325622559

> <r_mmod_Bend_Energy-OPLS-2005>
160.79052734375

> <r_mmod_Torsional_Energy-OPLS-2005>
234.603012084961

> <r_mmod_Improper_Torsional_Energy-OPLS-2005>
7.61406707763672

> <r_mmod_Van_der_Waal_Energy-OPLS-2005>
134.546783447266

> <r_mmod_Electrostatic_Energy-OPLS-2005>
-271.434692382812

> <r_mmod_Solvation_Energy-OPLS-2005>
-239.092636108398

> <b_mmod_Minimization_Converged-OPLS-2005>
0

> <r_mmod_RMS_Derivative-OPLS-2005>
0.73801201581955

$$$$
63
                    3D
 Structure written by MMmdl.
155163  0  0  1  0            999 V2000
  -30.6712  -14.5605   20.5339 C   0  0  0  0  0  0
  -30.4298  -12.3572   19.4311 C   0  0  0  0  0  0
  -29.5039  -12.5067   18.2063 C   0  0  0  0  0  0
  -28.0247  -12.3550   18.6185 C   0  0  0  0  0  0
  -27.6549  -13.2144   19.8569 C   0  0  2  0  0  0
  -28.6984  -13.0508   20.9836 C   0  0  0  0  0  0
  -25.2562  -13.8170   20.5657 C   0  0  0  0  0  0
  -24.1833  -13.0438   20.9181 C   0  0  0  0  0  0
  -24.6396  -11.6915   20.8727 C   0  0  0  0  0  0
  -23.9065  -10.4297   21.0403 C   0  0  0  0  0  0
  -24.3619   -9.4216   21.9175 C   0  0  0  0  0  0
  -23.6299   -8.2246   22.0754 C   0  0  0  0  0  0
  -22.4268   -8.0288   21.3549 C   0  0  0  0  0  0
  -21.9905   -9.0261   20.4657 C   0  0  0  0  0  0
  -22.7233  -10.2135   20.3054 C   0  0  0  0  0  0
  -21.6853   -6.0738   22.5290 C   0  0  0  0  0  0
  -21.4018   -6.5647   23.8220 C   0  0  0  0  0  0
  -21.3652   -5.6805   24.9185 C   0  0  0  0  0  0
  -21.6033   -4.3060   24.7233 C   0  0  0  0  0  0
  -21.8820   -3.8154   23.4357 C   0  0  0  0  0  0
  -21.9195   -4.6970   22.3413 C   0  0  0  0  0  0
  -22.7850  -13.5231   21.1859 C   0  0  0  0  0  0
  -22.1664   -4.2159   21.0990 F   0  0  0  0  0  0
  -21.5623   -3.4546   25.7750 F   0  0  0  0  0  0
  -30.0184  -13.3685   20.4191 N   0  0  0  0  0  0
  -26.2989  -12.9350   20.3271 N   0  0  0  0  0  0
  -25.9316  -11.6504   20.5704 N   0  0  0  0  0  0
  -22.0490  -12.8227   22.0418 N   0  0  0  0  0  0
  -25.4281  -15.1895   20.4068 N   0  0  0  0  0  0
  -31.8398  -14.7043   20.1702 O   0  0  0  0  0  0
  -21.6634   -6.8877   21.4252 O   0  0  0  0  0  0
  -22.3534  -14.5526   20.6697 O   0  0  0  0  0  0
  -24.6214  -31.8623   23.2040 C   0  0  0  0  0  0
  -25.9083  -32.4786   23.8361 C   0  0  1  0  0  0
  -27.2298  -27.3747   20.1160 C   0  0  0  0  0  0
  -25.5912  -33.8586   24.2296 N   0  0  0  0  0  0
  -23.4128  -30.4844   21.5447 C   0  0  2  0  0  0
  -24.8606  -28.9416   20.1133 C   0  0  0  0  0  0
  -22.7457  -29.4623   22.4947 C   0  0  0  0  0  0
  -18.0286  -28.1379   22.8486 C   0  0  0  0  0  0
  -24.1487  -36.7305   23.2639 C   0  0  0  0  0  0
  -25.9478  -30.8124   21.3637 C   0  0  0  0  0  0
  -26.0247  -29.4417   20.7125 C   0  0  0  0  0  0
  -27.2154  -28.6686   20.7025 C   0  0  0  0  0  0
  -26.0493  -26.9061   19.5008 C   0  0  0  0  0  0
  -24.8711  -27.6771   19.4999 C   0  0  0  0  0  0
  -23.6257  -29.8155   20.1603 C   0  0  0  0  0  0
  -25.4100  -36.3085   24.0339 C   0  0  1  0  0  0
  -20.5882  -28.3668   23.1299 C   0  0  2  0  0  0
  -20.6765  -26.9389   22.5417 C   0  0  0  0  0  0
  -19.5741  -26.6380   21.5214 C   0  0  0  0  0  0
  -18.1921  -26.7931   22.1625 C   0  0  0  0  0  0
  -19.1536  -28.8848   23.2893 C   0  0  0  0  0  0
  -18.9463  -30.1453   23.8901 C   0  0  0  0  0  0
  -17.6456  -30.6578   24.0572 C   0  0  0  0  0  0
  -25.9035  -34.9451   23.5118 C   0  0  0  0  0  0
  -16.5350  -29.9076   23.6321 C   0  0  0  0  0  0
  -16.7270  -28.6501   23.0329 C   0  0  0  0  0  0
  -26.4484  -31.6586   25.0715 C   0  0  0  0  0  0
  -25.3745  -31.3729   26.1472 C   0  0  0  0  0  0
  -27.0306  -30.3013   24.6135 C   0  0  0  0  0  0
  -27.6072  -32.4294   25.7465 C   0  0  0  0  0  0
  -27.5579  -37.1791   24.8454 C   0  0  0  0  0  0
  -21.4173  -29.3030   22.3703 N   0  0  0  0  0  0
  -26.4280  -37.3772   23.9418 N   0  0  0  0  0  0
  -24.6790  -31.0690   22.0957 N   0  0  0  0  0  0
  -23.4207  -28.8154   23.2998 O   0  0  0  0  0  0
  -28.3640  -26.5754   20.1217 O   0  0  0  0  0  0
  -26.5606  -34.8916   22.4684 O   0  0  0  0  0  0
  -23.5387  -32.1398   23.7404 O   0  0  0  0  0  0
  -29.7842  -18.0838   20.0312 C   0  0  0  0  0  0
  -29.5279  -17.8975   18.6851 C   0  0  0  0  0  0
  -29.2224  -20.2549   19.4024 C   0  0  0  0  0  0
  -28.7863  -24.0873   19.7788 C   0  0  0  0  0  0
  -28.8953  -22.6156   20.3745 C   0  0  0  0  0  0
  -31.1213  -16.4450   17.3738 C   0  0  0  0  0  0
  -30.3221  -17.0487   21.0380 C   0  0  0  0  0  0
  -29.6801  -16.6645   17.8505 C   0  0  0  0  0  0
  -28.2000  -25.2250   20.6697 C   0  0  0  0  0  0
  -29.5899  -19.4432   20.4216 N   0  0  0  0  0  0
  -29.0561  -21.6853   19.4053 N   0  0  0  0  0  0
  -29.9093  -15.6243   20.8940 N   0  0  0  0  0  0
  -29.1433  -24.3280   18.6164 O   0  0  0  0  0  0
  -28.8330  -22.3733   21.5858 O   0  0  0  0  0  0
  -29.0526  -19.3820   17.8919 S   0  0  0  0  0  0
  -31.4728  -12.4678   19.1303 H   0  0  0  0  0  0
  -30.3461  -11.3568   19.8571 H   0  0  0  0  0  0
  -29.7594  -11.7667   17.4466 H   0  0  0  0  0  0
  -29.6612  -13.4807   17.7405 H   0  0  0  0  0  0
  -27.8502  -11.3008   18.8334 H   0  0  0  0  0  0
  -27.3736  -12.6050   17.7800 H   0  0  0  0  0  0
  -27.6794  -14.2525   19.5266 H   0  0  0  0  0  0
  -28.6960  -12.0298   21.3664 H   0  0  0  0  0  0
  -28.4518  -13.6885   21.8331 H   0  0  0  0  0  0
  -25.2774   -9.5691   22.4731 H   0  0  0  0  0  0
  -24.0033   -7.4629   22.7450 H   0  0  0  0  0  0
  -21.0839   -8.8760   19.8952 H   0  0  0  0  0  0
  -22.3698  -10.9661   19.6150 H   0  0  0  0  0  0
  -21.2008   -7.6154   23.9727 H   0  0  0  0  0  0
  -21.1465   -6.0530   25.9084 H   0  0  0  0  0  0
  -22.0599   -2.7620   23.2855 H   0  0  0  0  0  0
  -22.4106  -11.9912   22.4848 H   0  0  0  0  0  0
  -21.1092  -13.1236   22.2593 H   0  0  0  0  0  0
  -24.6572  -15.8397   20.5066 H   0  0  0  0  0  0
  -26.2709  -15.6311   20.0626 H   0  0  0  0  0  0
  -26.7159  -32.5467   23.1122 H   0  0  0  0  0  0
  -25.0065  -33.9733   25.0444 H   0  0  0  0  0  0
  -22.7041  -31.3025   21.3994 H   0  0  0  0  0  0
  -23.3740  -35.9643   23.3282 H   0  0  0  0  0  0
  -24.3591  -36.8946   22.2059 H   0  0  0  0  0  0
  -23.7250  -37.6508   23.6670 H   0  0  0  0  0  0
  -26.0675  -31.5748   20.5921 H   0  0  0  0  0  0
  -26.8327  -30.8677   21.9860 H   0  0  0  0  0  0
  -28.1139  -29.0499   21.1686 H   0  0  0  0  0  0
  -26.0378  -25.9384   19.0200 H   0  0  0  0  0  0
  -23.9794  -27.2894   19.0263 H   0  0  0  0  0  0
  -23.7393  -30.5877   19.3983 H   0  0  0  0  0  0
  -22.7494  -29.2380   19.8624 H   0  0  0  0  0  0
  -25.1271  -36.1936   25.0830 H   0  0  0  0  0  0
  -20.9982  -28.3235   24.1420 H   0  0  0  0  0  0
  -20.5626  -26.2282   23.3614 H   0  0  0  0  0  0
  -21.6639  -26.7398   22.1231 H   0  0  0  0  0  0
  -19.6886  -25.6290   21.1235 H   0  0  0  0  0  0
  -19.6671  -27.3199   20.6746 H   0  0  0  0  0  0
  -17.4187  -26.6688   21.4027 H   0  0  0  0  0  0
  -18.0307  -26.0071   22.9018 H   0  0  0  0  0  0
  -19.7935  -30.7280   24.2257 H   0  0  0  0  0  0
  -17.5002  -31.6248   24.5185 H   0  0  0  0  0  0
  -15.5342  -30.2967   23.7638 H   0  0  0  0  0  0
  -15.8683  -28.0818   22.7015 H   0  0  0  0  0  0
  -24.5899  -30.7089   25.7828 H   0  0  0  0  0  0
  -24.8958  -32.2903   26.4912 H   0  0  0  0  0  0
  -25.8097  -30.8904   27.0236 H   0  0  0  0  0  0
  -26.2858  -29.6764   24.1196 H   0  0  0  0  0  0
  -27.4065  -29.7264   25.4611 H   0  0  0  0  0  0
  -27.8697  -30.4303   23.9294 H   0  0  0  0  0  0
  -27.2721  -33.3601   26.2053 H   0  0  0  0  0  0
  -28.3873  -32.6840   25.0279 H   0  0  0  0  0  0
  -28.0748  -31.8406   26.5369 H   0  0  0  0  0  0
  -28.2579  -38.0104   24.7526 H   0  0  0  0  0  0
  -28.1095  -36.2645   24.6228 H   0  0  0  0  0  0
  -27.2323  -37.1396   25.8863 H   0  0  0  0  0  0
  -20.9339  -29.8785   21.6949 H   0  0  0  0  0  0
  -26.0164  -38.2843   24.1431 H   0  0  0  0  0  0
  -31.2295  -15.4778   16.8824 H   0  0  0  0  0  0
  -31.8269  -16.4691   18.2048 H   0  0  0  0  0  0
  -31.4226  -17.2165   16.6657 H   0  0  0  0  0  0
  -30.0232  -17.3474   22.0432 H   0  0  0  0  0  0
  -31.4119  -17.1041   21.0482 H   0  0  0  0  0  0
  -29.0350  -16.7363   16.9745 H   0  0  0  0  0  0
  -29.3127  -15.7942   18.3869 H   0  0  0  0  0  0
  -28.6982  -25.1888   21.6382 H   0  0  0  0  0  0
  -27.1530  -24.9924   20.8631 H   0  0  0  0  0  0
  -29.0250  -22.1031   18.4846 H   0  0  0  0  0  0
  -28.9471  -15.4229   21.1175 H   0  0  0  0  0  0
  1 25  1  0  0  0
  1 30  2  0  0  0
  1 82  1  0  0  0
  2  3  1  0  0  0
  2 25  1  0  0  0
  2 86  1  0  0  0
  2 87  1  0  0  0
  3  4  1  0  0  0
  3 88  1  0  0  0
  3 89  1  0  0  0
  4  5  1  0  0  0
  4 90  1  0  0  0
  4 91  1  0  0  0
  5  6  1  0  0  0
  5 26  1  0  0  0
  5 92  1  0  0  0
  6 25  1  0  0  0
  6 93  1  0  0  0
  6 94  1  0  0  0
  7  8  2  0  0  0
  7 26  1  0  0  0
  7 29  1  0  0  0
  8  9  1  0  0  0
  8 22  1  0  0  0
  9 10  1  0  0  0
  9 27  2  0  0  0
 10 11  2  0  0  0
 10 15  1  0  0  0
 11 12  1  0  0  0
 11 95  1  0  0  0
 12 13  2  0  0  0
 12 96  1  0  0  0
 13 14  1  0  0  0
 13 31  1  0  0  0
 14 15  2  0  0  0
 14 97  1  0  0  0
 15 98  1  0  0  0
 16 17  2  0  0  0
 16 21  1  0  0  0
 16 31  1  0  0  0
 17 18  1  0  0  0
 17 99  1  0  0  0
 18 19  2  0  0  0
 18100  1  0  0  0
 19 20  1  0  0  0
 19 24  1  0  0  0
 20 21  2  0  0  0
 20101  1  0  0  0
 21 23  1  0  0  0
 22 28  1  0  0  0
 22 32  2  0  0  0
 26 27  1  0  0  0
 28102  1  0  0  0
 28103  1  0  0  0
 29104  1  0  0  0
 29105  1  0  0  0
 33 34  1  0  0  0
 33 66  1  0  0  0
 33 70  2  0  0  0
 34 36  1  0  0  0
 34 59  1  0  0  0
 34106  1  0  0  0
 35 44  2  0  0  0
 35 45  1  0  0  0
 35 68  1  0  0  0
 36 56  1  0  0  0
 36107  1  0  0  0
 37 39  1  0  0  0
 37 47  1  0  0  0
 37 66  1  0  0  0
 37108  1  0  0  0
 38 43  2  0  0  0
 38 46  1  0  0  0
 38 47  1  0  0  0
 39 64  1  0  0  0
 39 67  2  0  0  0
 40 52  1  0  0  0
 40 53  2  0  0  0
 40 58  1  0  0  0
 41109  1  0  0  0
 41110  1  0  0  0
 41111  1  0  0  0
 41 48  1  0  0  0
 42 43  1  0  0  0
 42 66  1  0  0  0
 42112  1  0  0  0
 42113  1  0  0  0
 43 44  1  0  0  0
 44114  1  0  0  0
 45 46  2  0  0  0
 45115  1  0  0  0
 46116  1  0  0  0
 47117  1  0  0  0
 47118  1  0  0  0
 48 56  1  0  0  0
 48 65  1  0  0  0
 48119  1  0  0  0
 49 50  1  0  0  0
 49 53  1  0  0  0
 49 64  1  0  0  0
 49120  1  0  0  0
 50 51  1  0  0  0
 50121  1  0  0  0
 50122  1  0  0  0
 51 52  1  0  0  0
 51123  1  0  0  0
 51124  1  0  0  0
 52125  1  0  0  0
 52126  1  0  0  0
 53 54  1  0  0  0
 54 55  2  0  0  0
 54127  1  0  0  0
 55 57  1  0  0  0
 55128  1  0  0  0
 56 69  2  0  0  0
 57 58  2  0  0  0
 57129  1  0  0  0
 58130  1  0  0  0
 59 60  1  0  0  0
 59 61  1  0  0  0
 59 62  1  0  0  0
 60131  1  0  0  0
 60132  1  0  0  0
 60133  1  0  0  0
 61134  1  0  0  0
 61135  1  0  0  0
 61136  1  0  0  0
 62137  1  0  0  0
 62138  1  0  0  0
 62139  1  0  0  0
 63 65  1  0  0  0
 63140  1  0  0  0
 63141  1  0  0  0
 63142  1  0  0  0
 64143  1  0  0  0
 65144  1  0  0  0
 68 79  1  0  0  0
 71 72  2  0  0  0
 71 77  1  0  0  0
 71 80  1  0  0  0
 72 78  1  0  0  0
 72 85  1  0  0  0
 73 80  2  0  0  0
 73 81  1  0  0  0
 73 85  1  0  0  0
 74 75  1  0  0  0
 74 79  1  0  0  0
 74 83  2  0  0  0
 75 81  1  0  0  0
 75 84  2  0  0  0
 76 78  1  0  0  0
 76145  1  0  0  0
 76146  1  0  0  0
 76147  1  0  0  0
 77 82  1  0  0  0
 77148  1  0  0  0
 77149  1  0  0  0
 78150  1  0  0  0
 78151  1  0  0  0
 79152  1  0  0  0
 79153  1  0  0  0
 81154  1  0  0  0
 82155  1  0  0  0
M  ISO  4   1 100  68 101  79 101  82 100
M  END
> <chiral flag>
0

> <version>
0

> <s_m_source_file>
/data/baiqing/PycharmProjects/Reinvent-master-3.2/result/LINK_invent/BTK/process_docking_weight1_custom_product_contain_oxygen_bond_distance_aromatic_linkinvent_7_9_3/rearranged_h_0171.sdf

> <i_m_source_file_index>
64

> <r_mmod_Potential_Energy-OPLS-2005>
-175.419708251953

> <r_mmod_Stretch_Energy-OPLS-2005>
55.5894432067871

> <r_mmod_Bend_Energy-OPLS-2005>
127.713272094727

> <r_mmod_Torsional_Energy-OPLS-2005>
204.07453918457

> <r_mmod_Improper_Torsional_Energy-OPLS-2005>
4.47897863388062

> <r_mmod_Van_der_Waal_Energy-OPLS-2005>
111.416206359863

> <r_mmod_Electrostatic_Energy-OPLS-2005>
-460.679870605469

> <r_mmod_Solvation_Energy-OPLS-2005>
-246.325714111328

> <b_mmod_Minimization_Converged-OPLS-2005>
0

> <r_mmod_RMS_Derivative-OPLS-2005>
2.09575843811035

$$$$
64
                    3D
 Structure written by MMmdl.
171180  0  0  1  0            999 V2000
  -30.6833  -14.5638   20.5141 C   0  0  0  0  0  0
  -30.4274  -12.3479   19.4420 C   0  0  0  0  0  0
  -29.5005  -12.5070   18.2211 C   0  0  0  0  0  0
  -28.0195  -12.3632   18.6259 C   0  0  0  0  0  0
  -27.6578  -13.2065   19.8775 C   0  0  2  0  0  0
  -28.7104  -13.0507   20.9998 C   0  0  0  0  0  0
  -25.2602  -13.8148   20.5741 C   0  0  0  0  0  0
  -24.1858  -13.0431   20.9207 C   0  0  0  0  0  0
  -24.6389  -11.6883   20.8739 C   0  0  0  0  0  0
  -23.9051  -10.4275   21.0372 C   0  0  0  0  0  0
  -24.3624   -9.4224   21.9170 C   0  0  0  0  0  0
  -23.6299   -8.2264   22.0750 C   0  0  0  0  0  0
  -22.4289   -8.0269   21.3522 C   0  0  0  0  0  0
  -21.9908   -9.0251   20.4648 C   0  0  0  0  0  0
  -22.7222  -10.2122   20.3041 C   0  0  0  0  0  0
  -21.6884   -6.0705   22.5257 C   0  0  0  0  0  0
  -21.4020   -6.5608   23.8179 C   0  0  0  0  0  0
  -21.3672   -5.6779   24.9147 C   0  0  0  0  0  0
  -21.6076   -4.3043   24.7227 C   0  0  0  0  0  0
  -21.8830   -3.8120   23.4350 C   0  0  0  0  0  0
  -21.9214   -4.6924   22.3393 C   0  0  0  0  0  0
  -22.7861  -13.5220   21.1856 C   0  0  0  0  0  0
  -22.1666   -4.2102   21.0969 F   0  0  0  0  0  0
  -21.5658   -3.4534   25.7742 F   0  0  0  0  0  0
  -30.0356  -13.3604   20.4409 N   0  0  0  0  0  0
  -26.3035  -12.9327   20.3442 N   0  0  0  0  0  0
  -25.9336  -11.6495   20.5824 N   0  0  0  0  0  0
  -22.0501  -12.8216   22.0386 N   0  0  0  0  0  0
  -25.4350  -15.1886   20.4130 N   0  0  0  0  0  0
  -31.8240  -14.7158   20.0660 O   0  0  0  0  0  0
  -21.6674   -6.8852   21.4220 O   0  0  0  0  0  0
  -22.3533  -14.5504   20.6649 O   0  0  0  0  0  0
  -24.6226  -31.8619   23.2016 C   0  0  0  0  0  0
  -25.9104  -32.4778   23.8326 C   0  0  1  0  0  0
  -27.2537  -27.3759   20.1189 C   0  0  0  0  0  0
  -25.5972  -33.8568   24.2283 N   0  0  0  0  0  0
  -23.4123  -30.4820   21.5413 C   0  0  2  0  0  0
  -24.8644  -28.9305   20.1176 C   0  0  0  0  0  0
  -22.7462  -29.4629   22.4951 C   0  0  0  0  0  0
  -18.0281  -28.1397   22.8472 C   0  0  0  0  0  0
  -24.1528  -36.7280   23.2635 C   0  0  0  0  0  0
  -25.9487  -30.8118   21.3610 C   0  0  0  0  0  0
  -26.0267  -29.4421   20.7064 C   0  0  0  0  0  0
  -27.2157  -28.6736   20.6971 C   0  0  0  0  0  0
  -26.0552  -26.8673   19.5700 C   0  0  0  0  0  0
  -24.8762  -27.6427   19.5535 C   0  0  0  0  0  0
  -23.6283  -29.8029   20.1602 C   0  0  0  0  0  0
  -25.4157  -36.3054   24.0305 C   0  0  1  0  0  0
  -20.5895  -28.3655   23.1341 C   0  0  2  0  0  0
  -20.6783  -26.9386   22.5428 C   0  0  0  0  0  0
  -19.5750  -26.6365   21.5239 C   0  0  0  0  0  0
  -18.1914  -26.7922   22.1618 C   0  0  0  0  0  0
  -19.1540  -28.8846   23.2893 C   0  0  0  0  0  0
  -18.9454  -30.1462   23.8883 C   0  0  0  0  0  0
  -17.6448  -30.6584   24.0568 C   0  0  0  0  0  0
  -25.9070  -34.9428   23.5073 C   0  0  0  0  0  0
  -16.5335  -29.9070   23.6372 C   0  0  0  0  0  0
  -16.7259  -28.6513   23.0335 C   0  0  0  0  0  0
  -26.4511  -31.6577   25.0678 C   0  0  0  0  0  0
  -25.3791  -31.3721   26.1449 C   0  0  0  0  0  0
  -27.0346  -30.2989   24.6137 C   0  0  0  0  0  0
  -27.6059  -32.4332   25.7504 C   0  0  0  0  0  0
  -27.5601  -37.1799   24.8455 C   0  0  0  0  0  0
  -21.4183  -29.2997   22.3712 N   0  0  0  0  0  0
  -26.4312  -37.3765   23.9401 N   0  0  0  0  0  0
  -24.6785  -31.0708   22.0900 N   0  0  0  0  0  0
  -23.4225  -28.8210   23.3029 O   0  0  0  0  0  0
  -28.4605  -26.6824   20.1916 O   0  0  0  0  0  0
  -26.5598  -34.8870   22.4615 O   0  0  0  0  0  0
  -23.5400  -32.1402   23.7358 O   0  0  0  0  0  0
  -28.9293  -16.8314   19.1676 C   0  0  0  0  0  0
  -28.5533  -18.0367   18.5801 C   0  0  0  0  0  0
  -29.7279  -16.8664   20.3250 C   0  0  0  0  0  0
  -29.7625  -19.2051   20.1100 C   0  0  0  0  0  0
  -30.2371  -23.5147   21.9803 C   0  0  0  0  0  0
  -31.6443  -23.0155   22.3110 C   0  0  0  0  0  0
  -31.6762  -21.4995   22.5737 C   0  0  0  0  0  0
  -31.6498  -20.6522   21.2812 C   0  0  0  0  0  0
  -30.3373  -20.6146   20.4345 C   0  0  2  0  0  0
  -29.6420  -23.0914   20.6190 C   0  0  2  0  0  0
  -30.3896  -25.7170   19.4711 C   0  0  0  0  0  0
  -28.4487  -25.5123   17.9911 C   0  0  0  0  0  0
  -28.4737  -24.0849   20.1652 C   0  0  0  0  0  0
  -28.8616  -25.4746   19.4803 C   0  0  0  0  0  0
  -28.9463  -19.2151   19.0622 N   0  0  0  0  0  0
  -30.1191  -18.0921   20.7956 N   0  0  0  0  0  0
  -27.7432  -18.0772   17.4605 N   0  0  0  0  0  0
  -29.9657  -15.6109   20.9969 N   0  0  0  0  0  0
  -29.2778  -21.6310   20.7585 N   0  3  0  0  0  0
  -29.6196  -24.1704   22.8212 O   0  0  0  0  0  0
  -31.4687  -12.4503   19.1294 H   0  0  0  0  0  0
  -30.3292  -11.3462   19.8629 H   0  0  0  0  0  0
  -29.7463  -11.7591   17.4646 H   0  0  0  0  0  0
  -29.6727  -13.4811   17.7632 H   0  0  0  0  0  0
  -27.8360  -11.3052   18.8197 H   0  0  0  0  0  0
  -27.3705  -12.6325   17.7926 H   0  0  0  0  0  0
  -27.6697  -14.2462   19.5708 H   0  0  0  0  0  0
  -28.7109  -12.0296   21.3832 H   0  0  0  0  0  0
  -28.4668  -13.6943   21.8463 H   0  0  0  0  0  0
  -25.2763   -9.5728   22.4761 H   0  0  0  0  0  0
  -24.0007   -7.4688   22.7490 H   0  0  0  0  0  0
  -21.0826   -8.8770   19.8977 H   0  0  0  0  0  0
  -22.3645  -10.9683   19.6179 H   0  0  0  0  0  0
  -21.1951   -7.6103   23.9647 H   0  0  0  0  0  0
  -21.1512   -6.0510   25.9049 H   0  0  0  0  0  0
  -22.0585   -2.7575   23.2876 H   0  0  0  0  0  0
  -22.4059  -11.9860   22.4807 H   0  0  0  0  0  0
  -21.1116  -13.1250   22.2566 H   0  0  0  0  0  0
  -24.6757  -15.8489   20.5302 H   0  0  0  0  0  0
  -26.2868  -15.6261   20.0889 H   0  0  0  0  0  0
  -26.7173  -32.5486   23.1087 H   0  0  0  0  0  0
  -25.0217  -33.9720   25.0496 H   0  0  0  0  0  0
  -22.7033  -31.2977   21.3902 H   0  0  0  0  0  0
  -23.3751  -35.9645   23.3295 H   0  0  0  0  0  0
  -24.3606  -36.8911   22.2046 H   0  0  0  0  0  0
  -23.7311  -37.6494   23.6655 H   0  0  0  0  0  0
  -26.0800  -31.5743   20.5922 H   0  0  0  0  0  0
  -26.8278  -30.8618   21.9928 H   0  0  0  0  0  0
  -28.1119  -29.0710   21.1527 H   0  0  0  0  0  0
  -25.9947  -25.8519   19.2092 H   0  0  0  0  0  0
  -23.9689  -27.2282   19.1381 H   0  0  0  0  0  0
  -23.7478  -30.5721   19.3955 H   0  0  0  0  0  0
  -22.7517  -29.2225   19.8643 H   0  0  0  0  0  0
  -25.1359  -36.1878   25.0787 H   0  0  0  0  0  0
  -20.9992  -28.3184   24.1465 H   0  0  0  0  0  0
  -20.5773  -26.2222   23.3588 H   0  0  0  0  0  0
  -21.6639  -26.7455   22.1184 H   0  0  0  0  0  0
  -19.6911  -25.6287   21.1236 H   0  0  0  0  0  0
  -19.6737  -27.3217   20.6808 H   0  0  0  0  0  0
  -17.4237  -26.6733   21.3959 H   0  0  0  0  0  0
  -18.0245  -26.0074   22.9017 H   0  0  0  0  0  0
  -19.7927  -30.7309   24.2219 H   0  0  0  0  0  0
  -17.4981  -31.6259   24.5152 H   0  0  0  0  0  0
  -15.5322  -30.2947   23.7707 H   0  0  0  0  0  0
  -15.8658  -28.0824   22.7030 H   0  0  0  0  0  0
  -24.5953  -30.7079   25.7823 H   0  0  0  0  0  0
  -24.9004  -32.2889   26.4903 H   0  0  0  0  0  0
  -25.8164  -30.8911   27.0211 H   0  0  0  0  0  0
  -26.2888  -29.6738   24.1218 H   0  0  0  0  0  0
  -27.4101  -29.7276   25.4641 H   0  0  0  0  0  0
  -27.8743  -30.4253   23.9292 H   0  0  0  0  0  0
  -27.2607  -33.3602   26.2112 H   0  0  0  0  0  0
  -28.3887  -32.6963   25.0373 H   0  0  0  0  0  0
  -28.0711  -31.8445   26.5434 H   0  0  0  0  0  0
  -28.2596  -38.0120   24.7501 H   0  0  0  0  0  0
  -28.1117  -36.2632   24.6295 H   0  0  0  0  0  0
  -27.2283  -37.1481   25.8846 H   0  0  0  0  0  0
  -20.9352  -29.8657   21.6885 H   0  0  0  0  0  0
  -26.0166  -38.2832   24.1378 H   0  0  0  0  0  0
  -28.6123  -15.9014   18.7263 H   0  0  0  0  0  0
  -32.0005  -23.5414   23.2001 H   0  0  0  0  0  0
  -32.3239  -23.2840   21.4998 H   0  0  0  0  0  0
  -30.8778  -21.2008   23.2549 H   0  0  0  0  0  0
  -32.5997  -21.2752   23.1111 H   0  0  0  0  0  0
  -31.9621  -19.6399   21.5339 H   0  0  0  0  0  0
  -32.4530  -21.0068   20.6326 H   0  0  0  0  0  0
  -30.6752  -20.9344   19.4462 H   0  0  0  0  0  0
  -30.4262  -23.1241   19.8631 H   0  0  0  0  0  0
  -30.6292  -26.6584   18.9770 H   0  0  0  0  0  0
  -30.9405  -24.9471   18.9286 H   0  0  0  0  0  0
  -30.8027  -25.8006   20.4766 H   0  0  0  0  0  0
  -28.6657  -26.4851   17.5483 H   0  0  0  0  0  0
  -27.4011  -25.3024   17.8162 H   0  0  0  0  0  0
  -28.9945  -24.7619   17.4171 H   0  0  0  0  0  0
  -27.7885  -24.2797   20.9918 H   0  0  0  0  0  0
  -27.8557  -23.5409   19.4511 H   0  0  0  0  0  0
  -27.3789  -17.2395   17.0239 H   0  0  0  0  0  0
  -27.5097  -18.9502   17.0031 H   0  0  0  0  0  0
  -29.1715  -15.2930   21.5273 H   0  0  0  0  0  0
  -28.9177  -21.4464   21.6795 H   0  0  0  0  0  0
  -28.5457  -21.4063   20.1022 H   0  0  0  0  0  0
  1 25  1  0  0  0
  1 30  2  0  0  0
  1 88  1  0  0  0
  2  3  1  0  0  0
  2 25  1  0  0  0
  2 91  1  0  0  0
  2 92  1  0  0  0
  3  4  1  0  0  0
  3 93  1  0  0  0
  3 94  1  0  0  0
  4  5  1  0  0  0
  4 95  1  0  0  0
  4 96  1  0  0  0
  5  6  1  0  0  0
  5 26  1  0  0  0
  5 97  1  0  0  0
  6 25  1  0  0  0
  6 98  1  0  0  0
  6 99  1  0  0  0
  7  8  2  0  0  0
  7 26  1  0  0  0
  7 29  1  0  0  0
  8  9  1  0  0  0
  8 22  1  0  0  0
  9 10  1  0  0  0
  9 27  2  0  0  0
 10 11  2  0  0  0
 10 15  1  0  0  0
 11 12  1  0  0  0
 11100  1  0  0  0
 12 13  2  0  0  0
 12101  1  0  0  0
 13 14  1  0  0  0
 13 31  1  0  0  0
 14 15  2  0  0  0
 14102  1  0  0  0
 15103  1  0  0  0
 16 17  2  0  0  0
 16 21  1  0  0  0
 16 31  1  0  0  0
 17 18  1  0  0  0
 17104  1  0  0  0
 18 19  2  0  0  0
 18105  1  0  0  0
 19 20  1  0  0  0
 19 24  1  0  0  0
 20 21  2  0  0  0
 20106  1  0  0  0
 21 23  1  0  0  0
 22 28  1  0  0  0
 22 32  2  0  0  0
 26 27  1  0  0  0
 28107  1  0  0  0
 28108  1  0  0  0
 29109  1  0  0  0
 29110  1  0  0  0
 33 34  1  0  0  0
 33 66  1  0  0  0
 33 70  2  0  0  0
 34 36  1  0  0  0
 34 59  1  0  0  0
 34111  1  0  0  0
 35 44  2  0  0  0
 35 45  1  0  0  0
 35 68  1  0  0  0
 36 56  1  0  0  0
 36112  1  0  0  0
 37 39  1  0  0  0
 37 47  1  0  0  0
 37 66  1  0  0  0
 37113  1  0  0  0
 38 43  2  0  0  0
 38 46  1  0  0  0
 38 47  1  0  0  0
 39 64  1  0  0  0
 39 67  2  0  0  0
 40 52  1  0  0  0
 40 53  2  0  0  0
 40 58  1  0  0  0
 41114  1  0  0  0
 41115  1  0  0  0
 41116  1  0  0  0
 41 48  1  0  0  0
 42 43  1  0  0  0
 42 66  1  0  0  0
 42117  1  0  0  0
 42118  1  0  0  0
 43 44  1  0  0  0
 44119  1  0  0  0
 45 46  2  0  0  0
 45120  1  0  0  0
 46121  1  0  0  0
 47122  1  0  0  0
 47123  1  0  0  0
 48 56  1  0  0  0
 48 65  1  0  0  0
 48124  1  0  0  0
 49 50  1  0  0  0
 49 53  1  0  0  0
 49 64  1  0  0  0
 49125  1  0  0  0
 50 51  1  0  0  0
 50126  1  0  0  0
 50127  1  0  0  0
 51 52  1  0  0  0
 51128  1  0  0  0
 51129  1  0  0  0
 52130  1  0  0  0
 52131  1  0  0  0
 53 54  1  0  0  0
 54 55  2  0  0  0
 54132  1  0  0  0
 55 57  1  0  0  0
 55133  1  0  0  0
 56 69  2  0  0  0
 57 58  2  0  0  0
 57134  1  0  0  0
 58135  1  0  0  0
 59 60  1  0  0  0
 59 61  1  0  0  0
 59 62  1  0  0  0
 60136  1  0  0  0
 60137  1  0  0  0
 60138  1  0  0  0
 61139  1  0  0  0
 61140  1  0  0  0
 61141  1  0  0  0
 62142  1  0  0  0
 62143  1  0  0  0
 62144  1  0  0  0
 63 65  1  0  0  0
 63145  1  0  0  0
 63146  1  0  0  0
 63147  1  0  0  0
 64148  1  0  0  0
 65149  1  0  0  0
 68 84  1  0  0  0
 71 72  2  0  0  0
 71 73  1  0  0  0
 71150  1  0  0  0
 72 85  1  0  0  0
 72 87  1  0  0  0
 73 86  2  0  0  0
 73 88  1  0  0  0
 74 85  2  0  0  0
 74 86  1  0  0  0
 74 79  1  0  0  0
 75 76  1  0  0  0
 75 80  1  0  0  0
 75 90  2  0  0  0
 76 77  1  0  0  0
 76151  1  0  0  0
 76152  1  0  0  0
 77 78  1  0  0  0
 77153  1  0  0  0
 77154  1  0  0  0
 78 79  1  0  0  0
 78155  1  0  0  0
 78156  1  0  0  0
 79 89  1  0  0  0
 79157  1  0  0  0
 80 83  1  0  0  0
 80 89  1  0  0  0
 80158  1  0  0  0
 81159  1  0  0  0
 81160  1  0  0  0
 81161  1  0  0  0
 81 84  1  0  0  0
 82 84  1  0  0  0
 82162  1  0  0  0
 82163  1  0  0  0
 82164  1  0  0  0
 83 84  1  0  0  0
 83165  1  0  0  0
 83166  1  0  0  0
 87167  1  0  0  0
 87168  1  0  0  0
 88169  1  0  0  0
 89170  1  0  0  0
 89171  1  0  0  0
M  CHG  1  89   1
M  ISO  4   1 100  68 101  84 101  88 100
M  END
> <chiral flag>
0

> <version>
0

> <s_m_source_file>
/data/baiqing/PycharmProjects/Reinvent-master-3.2/result/LINK_invent/BTK/process_docking_weight1_custom_product_contain_oxygen_bond_distance_aromatic_linkinvent_7_9_3/rearranged_h_0171.sdf

> <i_m_source_file_index>
65

> <r_mmod_Potential_Energy-OPLS-2005>
-765.577880859375

> <r_mmod_Stretch_Energy-OPLS-2005>
66.2306823730469

> <r_mmod_Bend_Energy-OPLS-2005>
191.94743347168

> <r_mmod_Torsional_Energy-OPLS-2005>
303.887023925781

> <r_mmod_Improper_Torsional_Energy-OPLS-2005>
6.79231119155884

> <r_mmod_Van_der_Waal_Energy-OPLS-2005>
158.287551879883

> <r_mmod_Electrostatic_Energy-OPLS-2005>
-1029.77746582031

> <r_mmod_Solvation_Energy-OPLS-2005>
-491.066802978516

> <b_mmod_Minimization_Converged-OPLS-2005>
0

> <r_mmod_RMS_Derivative-OPLS-2005>
5.03091287612915

$$$$
65
                    3D
 Structure written by MMmdl.
166174  0  0  1  0            999 V2000
  -30.7207  -14.4355   20.6883 C   0  0  0  0  0  0
  -30.4318  -12.3449   19.4039 C   0  0  0  0  0  0
  -29.4959  -12.5741   18.2048 C   0  0  0  0  0  0
  -28.0177  -12.4159   18.6107 C   0  0  0  0  0  0
  -27.6602  -13.2152   19.8885 C   0  0  2  0  0  0
  -28.6998  -12.9532   20.9962 C   0  0  0  0  0  0
  -25.2512  -13.8122   20.5523 C   0  0  0  0  0  0
  -24.1786  -13.0388   20.9137 C   0  0  0  0  0  0
  -24.6364  -11.6879   20.8710 C   0  0  0  0  0  0
  -23.9012  -10.4259   21.0410 C   0  0  0  0  0  0
  -24.3579   -9.4190   21.9191 C   0  0  0  0  0  0
  -23.6268   -8.2214   22.0765 C   0  0  0  0  0  0
  -22.4259   -8.0236   21.3538 C   0  0  0  0  0  0
  -21.9873   -9.0215   20.4664 C   0  0  0  0  0  0
  -22.7184  -10.2101   20.3082 C   0  0  0  0  0  0
  -21.6853   -6.0703   22.5279 C   0  0  0  0  0  0
  -21.4017   -6.5620   23.8200 C   0  0  0  0  0  0
  -21.3687   -5.6792   24.9174 C   0  0  0  0  0  0
  -21.6044   -4.3042   24.7237 C   0  0  0  0  0  0
  -21.8809   -3.8122   23.4357 C   0  0  0  0  0  0
  -21.9168   -4.6927   22.3406 C   0  0  0  0  0  0
  -22.7842  -13.5261   21.1867 C   0  0  0  0  0  0
  -22.1640   -4.2113   21.0981 F   0  0  0  0  0  0
  -21.5629   -3.4543   25.7746 F   0  0  0  0  0  0
  -30.0339  -13.2860   20.4569 N   0  0  0  0  0  0
  -26.2982  -12.9328   20.3363 N   0  0  0  0  0  0
  -25.9282  -11.6481   20.5692 N   0  0  0  0  0  0
  -22.0467  -12.8259   22.0429 N   0  0  0  0  0  0
  -25.4197  -15.1803   20.3778 N   0  0  0  0  0  0
  -31.8036  -14.6980   20.1545 O   0  0  0  0  0  0
  -21.6616   -6.8846   21.4238 O   0  0  0  0  0  0
  -22.3512  -14.5607   20.6803 O   0  0  0  0  0  0
  -24.6115  -31.8703   23.2110 C   0  0  0  0  0  0
  -25.9053  -32.4799   23.8404 C   0  0  1  0  0  0
  -27.2325  -27.4368   20.0882 C   0  0  0  0  0  0
  -25.5952  -33.8610   24.2349 N   0  0  0  0  0  0
  -23.3952  -30.4940   21.5501 C   0  0  2  0  0  0
  -24.8385  -28.9544   20.1233 C   0  0  0  0  0  0
  -22.7445  -29.4656   22.4985 C   0  0  0  0  0  0
  -18.0350  -28.1438   22.8524 C   0  0  0  0  0  0
  -24.1505  -36.7335   23.2628 C   0  0  0  0  0  0
  -25.9238  -30.8307   21.3643 C   0  0  0  0  0  0
  -25.9973  -29.4608   20.7210 C   0  0  0  0  0  0
  -27.1929  -28.7073   20.7065 C   0  0  0  0  0  0
  -26.0515  -26.9449   19.4808 C   0  0  0  0  0  0
  -24.8598  -27.6934   19.5049 C   0  0  0  0  0  0
  -23.6059  -29.8270   20.1658 C   0  0  0  0  0  0
  -25.4132  -36.3103   24.0311 C   0  0  1  0  0  0
  -20.5920  -28.3731   23.1399 C   0  0  2  0  0  0
  -20.6792  -26.9407   22.5572 C   0  0  0  0  0  0
  -19.5915  -26.6483   21.5211 C   0  0  0  0  0  0
  -18.2011  -26.8057   22.1488 C   0  0  0  0  0  0
  -19.1575  -28.8892   23.3025 C   0  0  0  0  0  0
  -18.9461  -30.1502   23.9047 C   0  0  0  0  0  0
  -17.6457  -30.6610   24.0695 C   0  0  0  0  0  0
  -25.9055  -34.9456   23.5121 C   0  0  0  0  0  0
  -16.5380  -29.8997   23.6516 C   0  0  0  0  0  0
  -16.7337  -28.6455   23.0526 C   0  0  0  0  0  0
  -26.4485  -31.6573   25.0743 C   0  0  0  0  0  0
  -25.3754  -31.3687   26.1503 C   0  0  0  0  0  0
  -27.0333  -30.3024   24.6114 C   0  0  0  0  0  0
  -27.6073  -32.4283   25.7524 C   0  0  0  0  0  0
  -27.5584  -37.1839   24.8456 C   0  0  0  0  0  0
  -21.4153  -29.3070   22.3784 N   0  0  0  0  0  0
  -26.4297  -37.3794   23.9392 N   0  0  0  0  0  0
  -24.6625  -31.0825   22.1004 N   0  0  0  0  0  0
  -23.4249  -28.8195   23.2970 O   0  0  0  0  0  0
  -28.4249  -26.7406   20.1092 O   0  0  0  0  0  0
  -26.5572  -34.8882   22.4658 O   0  0  0  0  0  0
  -23.5352  -32.1458   23.7552 O   0  0  0  0  0  0
  -31.2336  -20.0486   21.5630 C   0  0  0  0  0  0
  -31.4311  -18.6691   21.7334 C   0  0  0  0  0  0
  -29.9420  -20.5771   21.6660 C   0  0  0  0  0  0
  -30.3538  -17.7975   22.0158 C   0  0  0  0  0  0
  -28.8274  -19.7440   21.8904 C   0  0  0  0  0  0
  -29.0256  -18.3384   22.0861 C   0  0  0  0  0  0
  -26.5900  -22.1008   20.4052 C   0  0  0  0  0  0
  -25.8911  -19.7910   20.1547 C   0  0  0  0  0  0
  -30.7347  -16.3353   22.3547 C   0  0  0  0  0  0
  -27.4754  -20.4700   21.9952 C   0  0  0  0  0  0
  -27.7693  -22.9590   19.9284 C   0  0  0  0  0  0
  -27.8358  -24.3699   20.5572 C   0  0  0  0  0  0
  -28.4760  -25.4019   19.6063 C   0  0  0  0  0  0
  -27.8500  -17.4186   22.4299 C   0  0  0  0  0  0
  -30.1285  -15.2549   21.5690 N   0  0  0  0  0  0
  -26.8055  -20.8026   20.7171 N   0  0  0  0  0  0
  -25.4531  -22.5836   20.3726 O   0  0  0  0  0  0
  -28.0226  -16.8503   23.6232 F   0  0  0  0  0  0
  -27.6913  -16.4807   21.5002 F   0  0  0  0  0  0
  -31.4734  -12.4923   19.1042 H   0  0  0  0  0  0
  -30.3544  -11.3181   19.7695 H   0  0  0  0  0  0
  -29.7447  -11.8976   17.3852 H   0  0  0  0  0  0
  -29.6550  -13.5853   17.8247 H   0  0  0  0  0  0
  -27.8193  -11.3537   18.7620 H   0  0  0  0  0  0
  -27.3766  -12.7427   17.7942 H   0  0  0  0  0  0
  -27.7080  -14.2765   19.6417 H   0  0  0  0  0  0
  -28.6774  -11.9011   21.2862 H   0  0  0  0  0  0
  -28.4331  -13.5015   21.9020 H   0  0  0  0  0  0
  -25.2741   -9.5642   22.4756 H   0  0  0  0  0  0
  -23.9977   -7.4604   22.7492 H   0  0  0  0  0  0
  -21.0815   -8.8738   19.8980 H   0  0  0  0  0  0
  -22.3656  -10.9631   19.6188 H   0  0  0  0  0  0
  -21.2041   -7.6137   23.9690 H   0  0  0  0  0  0
  -21.1542   -6.0534   25.9075 H   0  0  0  0  0  0
  -22.0575   -2.7586   23.2859 H   0  0  0  0  0  0
  -22.4111  -11.9926   22.4802 H   0  0  0  0  0  0
  -21.1075  -13.1287   22.2674 H   0  0  0  0  0  0
  -24.6677  -15.8460   20.5062 H   0  0  0  0  0  0
  -26.2864  -15.6107   20.0799 H   0  0  0  0  0  0
  -26.7126  -32.5495   23.1160 H   0  0  0  0  0  0
  -25.0195  -33.9824   25.0554 H   0  0  0  0  0  0
  -22.6868  -31.3124   21.4133 H   0  0  0  0  0  0
  -23.3716  -35.9712   23.3302 H   0  0  0  0  0  0
  -24.3577  -36.8954   22.2031 H   0  0  0  0  0  0
  -23.7298  -37.6557   23.6649 H   0  0  0  0  0  0
  -26.0337  -31.5887   20.5884 H   0  0  0  0  0  0
  -26.8087  -30.8825   21.9839 H   0  0  0  0  0  0
  -28.0820  -29.0983   21.1801 H   0  0  0  0  0  0
  -26.0180  -25.9840   18.9867 H   0  0  0  0  0  0
  -23.9642  -27.2972   19.0468 H   0  0  0  0  0  0
  -23.7340  -30.6084   19.4151 H   0  0  0  0  0  0
  -22.7218  -29.2714   19.8471 H   0  0  0  0  0  0
  -25.1300  -36.1949   25.0792 H   0  0  0  0  0  0
  -21.0054  -28.3374   24.1491 H   0  0  0  0  0  0
  -20.5226  -26.2414   23.3779 H   0  0  0  0  0  0
  -21.6760  -26.7152   22.1735 H   0  0  0  0  0  0
  -19.7127  -25.6354   21.1287 H   0  0  0  0  0  0
  -19.7110  -27.3219   20.6693 H   0  0  0  0  0  0
  -18.0289  -26.0185   22.8831 H   0  0  0  0  0  0
  -17.4312  -26.6946   21.3832 H   0  0  0  0  0  0
  -19.7887  -30.7402   24.2447 H   0  0  0  0  0  0
  -17.4921  -31.6244   24.5388 H   0  0  0  0  0  0
  -15.5394  -30.2849   23.7816 H   0  0  0  0  0  0
  -15.8797  -28.0662   22.7270 H   0  0  0  0  0  0
  -24.5970  -30.6960   25.7861 H   0  0  0  0  0  0
  -24.8887  -32.2844   26.4872 H   0  0  0  0  0  0
  -25.8110  -30.8942   27.0317 H   0  0  0  0  0  0
  -26.2903  -29.6792   24.1136 H   0  0  0  0  0  0
  -27.4084  -29.7212   25.4552 H   0  0  0  0  0  0
  -27.8727  -30.4329   23.9283 H   0  0  0  0  0  0
  -27.2707  -33.3582   26.2125 H   0  0  0  0  0  0
  -28.3895  -32.6864   25.0360 H   0  0  0  0  0  0
  -28.0743  -31.8397   26.5436 H   0  0  0  0  0  0
  -28.2614  -38.0132   24.7498 H   0  0  0  0  0  0
  -28.1082  -36.2662   24.6287 H   0  0  0  0  0  0
  -27.2322  -37.1497   25.8870 H   0  0  0  0  0  0
  -20.9298  -29.8883   21.7084 H   0  0  0  0  0  0
  -26.0177  -38.2880   24.1317 H   0  0  0  0  0  0
  -32.0642  -20.7121   21.3739 H   0  0  0  0  0  0
  -32.4452  -18.2953   21.6880 H   0  0  0  0  0  0
  -29.8220  -21.6442   21.5890 H   0  0  0  0  0  0
  -24.9274  -20.2082   19.8447 H   0  0  0  0  0  0
  -25.6621  -18.9878   20.8538 H   0  0  0  0  0  0
  -26.3295  -19.3527   19.2582 H   0  0  0  0  0  0
  -30.4634  -16.1477   23.3939 H   0  0  0  0  0  0
  -31.8212  -16.2137   22.3296 H   0  0  0  0  0  0
  -27.6859  -21.4016   22.5245 H   0  0  0  0  0  0
  -26.7875  -19.9732   22.6805 H   0  0  0  0  0  0
  -28.7191  -22.4521   20.0364 H   0  0  0  0  0  0
  -27.6252  -23.0532   18.8522 H   0  0  0  0  0  0
  -28.4222  -24.3157   21.4749 H   0  0  0  0  0  0
  -26.8494  -24.7117   20.8586 H   0  0  0  0  0  0
  -28.0426  -25.3550   18.6110 H   0  0  0  0  0  0
  -29.5233  -25.1427   19.4636 H   0  0  0  0  0  0
  -26.8839  -17.9127   22.4831 H   0  0  0  0  0  0
  -29.1886  -14.9897   21.8175 H   0  0  0  0  0  0
  1 25  1  0  0  0
  1 30  2  0  0  0
  1 85  1  0  0  0
  2  3  1  0  0  0
  2 25  1  0  0  0
  2 90  1  0  0  0
  2 91  1  0  0  0
  3  4  1  0  0  0
  3 92  1  0  0  0
  3 93  1  0  0  0
  4  5  1  0  0  0
  4 94  1  0  0  0
  4 95  1  0  0  0
  5  6  1  0  0  0
  5 26  1  0  0  0
  5 96  1  0  0  0
  6 25  1  0  0  0
  6 97  1  0  0  0
  6 98  1  0  0  0
  7  8  2  0  0  0
  7 26  1  0  0  0
  7 29  1  0  0  0
  8  9  1  0  0  0
  8 22  1  0  0  0
  9 10  1  0  0  0
  9 27  2  0  0  0
 10 11  2  0  0  0
 10 15  1  0  0  0
 11 12  1  0  0  0
 11 99  1  0  0  0
 12 13  2  0  0  0
 12100  1  0  0  0
 13 14  1  0  0  0
 13 31  1  0  0  0
 14 15  2  0  0  0
 14101  1  0  0  0
 15102  1  0  0  0
 16 17  2  0  0  0
 16 21  1  0  0  0
 16 31  1  0  0  0
 17 18  1  0  0  0
 17103  1  0  0  0
 18 19  2  0  0  0
 18104  1  0  0  0
 19 20  1  0  0  0
 19 24  1  0  0  0
 20 21  2  0  0  0
 20105  1  0  0  0
 21 23  1  0  0  0
 22 28  1  0  0  0
 22 32  2  0  0  0
 26 27  1  0  0  0
 28106  1  0  0  0
 28107  1  0  0  0
 29108  1  0  0  0
 29109  1  0  0  0
 33 34  1  0  0  0
 33 66  1  0  0  0
 33 70  2  0  0  0
 34 36  1  0  0  0
 34 59  1  0  0  0
 34110  1  0  0  0
 35 44  2  0  0  0
 35 45  1  0  0  0
 35 68  1  0  0  0
 36 56  1  0  0  0
 36111  1  0  0  0
 37 39  1  0  0  0
 37 47  1  0  0  0
 37 66  1  0  0  0
 37112  1  0  0  0
 38 43  2  0  0  0
 38 46  1  0  0  0
 38 47  1  0  0  0
 39 64  1  0  0  0
 39 67  2  0  0  0
 40 52  1  0  0  0
 40 53  2  0  0  0
 40 58  1  0  0  0
 41113  1  0  0  0
 41114  1  0  0  0
 41115  1  0  0  0
 41 48  1  0  0  0
 42 43  1  0  0  0
 42 66  1  0  0  0
 42116  1  0  0  0
 42117  1  0  0  0
 43 44  1  0  0  0
 44118  1  0  0  0
 45 46  2  0  0  0
 45119  1  0  0  0
 46120  1  0  0  0
 47121  1  0  0  0
 47122  1  0  0  0
 48 56  1  0  0  0
 48 65  1  0  0  0
 48123  1  0  0  0
 49 50  1  0  0  0
 49 53  1  0  0  0
 49 64  1  0  0  0
 49124  1  0  0  0
 50 51  1  0  0  0
 50125  1  0  0  0
 50126  1  0  0  0
 51 52  1  0  0  0
 51127  1  0  0  0
 51128  1  0  0  0
 52129  1  0  0  0
 52130  1  0  0  0
 53 54  1  0  0  0
 54 55  2  0  0  0
 54131  1  0  0  0
 55 57  1  0  0  0
 55132  1  0  0  0
 56 69  2  0  0  0
 57 58  2  0  0  0
 57133  1  0  0  0
 58134  1  0  0  0
 59 60  1  0  0  0
 59 61  1  0  0  0
 59 62  1  0  0  0
 60135  1  0  0  0
 60136  1  0  0  0
 60137  1  0  0  0
 61138  1  0  0  0
 61139  1  0  0  0
 61140  1  0  0  0
 62141  1  0  0  0
 62142  1  0  0  0
 62143  1  0  0  0
 63 65  1  0  0  0
 63144  1  0  0  0
 63145  1  0  0  0
 63146  1  0  0  0
 64147  1  0  0  0
 65148  1  0  0  0
 68 83  1  0  0  0
 71 72  2  0  0  0
 71 73  1  0  0  0
 71149  1  0  0  0
 72 74  1  0  0  0
 72150  1  0  0  0
 73 75  2  0  0  0
 73151  1  0  0  0
 74 76  2  0  0  0
 74 79  1  0  0  0
 75 76  1  0  0  0
 75 80  1  0  0  0
 76 84  1  0  0  0
 77 81  1  0  0  0
 77 86  1  0  0  0
 77 87  2  0  0  0
 78 86  1  0  0  0
 78152  1  0  0  0
 78153  1  0  0  0
 78154  1  0  0  0
 79 85  1  0  0  0
 79155  1  0  0  0
 79156  1  0  0  0
 80 86  1  0  0  0
 80157  1  0  0  0
 80158  1  0  0  0
 81 82  1  0  0  0
 81159  1  0  0  0
 81160  1  0  0  0
 82 83  1  0  0  0
 82161  1  0  0  0
 82162  1  0  0  0
 83163  1  0  0  0
 83164  1  0  0  0
 84 88  1  0  0  0
 84 89  1  0  0  0
 84165  1  0  0  0
 85166  1  0  0  0
M  ISO  4   1 100  68 101  83 101  85 100
M  END
> <chiral flag>
0

> <version>
0

> <s_m_source_file>
/data/baiqing/PycharmProjects/Reinvent-master-3.2/result/LINK_invent/BTK/process_docking_weight1_custom_product_contain_oxygen_bond_distance_aromatic_linkinvent_7_9_3/rearranged_h_0171.sdf

> <i_m_source_file_index>
66

> <r_mmod_Potential_Energy-OPLS-2005>
-66.8477325439453

> <r_mmod_Stretch_Energy-OPLS-2005>
43.846851348877

> <r_mmod_Bend_Energy-OPLS-2005>
119.406089782715

> <r_mmod_Torsional_Energy-OPLS-2005>
257.178344726562

> <r_mmod_Improper_Torsional_Energy-OPLS-2005>
5.43802404403687

> <r_mmod_Van_der_Waal_Energy-OPLS-2005>
163.511962890625

> <r_mmod_Electrostatic_Energy-OPLS-2005>
-442.648376464844

> <r_mmod_Solvation_Energy-OPLS-2005>
-226.217697143555

> <b_mmod_Minimization_Converged-OPLS-2005>
0

> <r_mmod_RMS_Derivative-OPLS-2005>
8.88867664337158

$$$$
66
                    3D
 Structure written by MMmdl.
160168  0  0  1  0            999 V2000
  -30.7154  -14.4299   20.5831 C   0  0  0  0  0  0
  -30.4194  -12.2851   19.4168 C   0  0  0  0  0  0
  -29.4935  -12.5152   18.2046 C   0  0  0  0  0  0
  -28.0133  -12.3779   18.6139 C   0  0  0  0  0  0
  -27.6655  -13.2035   19.8805 C   0  0  2  0  0  0
  -28.7052  -12.9635   20.9995 C   0  0  0  0  0  0
  -25.2606  -13.8156   20.5683 C   0  0  0  0  0  0
  -24.1845  -13.0439   20.9165 C   0  0  0  0  0  0
  -24.6389  -11.6901   20.8720 C   0  0  0  0  0  0
  -23.9045  -10.4292   21.0394 C   0  0  0  0  0  0
  -24.3598   -9.4214   21.9175 C   0  0  0  0  0  0
  -23.6284   -8.2244   22.0749 C   0  0  0  0  0  0
  -22.4266   -8.0280   21.3544 C   0  0  0  0  0  0
  -21.9898   -9.0250   20.4643 C   0  0  0  0  0  0
  -22.7218  -10.2130   20.3044 C   0  0  0  0  0  0
  -21.6854   -6.0726   22.5273 C   0  0  0  0  0  0
  -21.4016   -6.5627   23.8207 C   0  0  0  0  0  0
  -21.3656   -5.6781   24.9171 C   0  0  0  0  0  0
  -21.6042   -4.3045   24.7222 C   0  0  0  0  0  0
  -21.8820   -3.8139   23.4341 C   0  0  0  0  0  0
  -21.9195   -4.6954   22.3396 C   0  0  0  0  0  0
  -22.7868  -13.5242   21.1837 C   0  0  0  0  0  0
  -22.1662   -4.2141   21.0972 F   0  0  0  0  0  0
  -21.5628   -3.4528   25.7734 F   0  0  0  0  0  0
  -30.0440  -13.2550   20.4562 N   0  0  0  0  0  0
  -26.3041  -12.9316   20.3379 N   0  0  0  0  0  0
  -25.9313  -11.6474   20.5751 N   0  0  0  0  0  0
  -22.0501  -12.8234   22.0397 N   0  0  0  0  0  0
  -25.4381  -15.1871   20.4088 N   0  0  0  0  0  0
  -31.8247  -14.6350   20.0817 O   0  0  0  0  0  0
  -21.6636   -6.8873   21.4237 O   0  0  0  0  0  0
  -22.3548  -14.5548   20.6689 O   0  0  0  0  0  0
  -24.6151  -31.8689   23.2125 C   0  0  0  0  0  0
  -25.9051  -32.4820   23.8412 C   0  0  1  0  0  0
  -27.2283  -27.4348   20.0825 C   0  0  0  0  0  0
  -25.5906  -33.8615   24.2340 N   0  0  0  0  0  0
  -23.4012  -30.4966   21.5542 C   0  0  2  0  0  0
  -24.8437  -28.9684   20.1140 C   0  0  0  0  0  0
  -22.7407  -29.4671   22.4998 C   0  0  0  0  0  0
  -18.0267  -28.1385   22.8486 C   0  0  0  0  0  0
  -24.1483  -36.7313   23.2642 C   0  0  0  0  0  0
  -25.9318  -30.8334   21.3668 C   0  0  0  0  0  0
  -26.0061  -29.4693   20.7121 C   0  0  0  0  0  0
  -27.1988  -28.7089   20.6971 C   0  0  0  0  0  0
  -26.0408  -26.9569   19.4719 C   0  0  0  0  0  0
  -24.8557  -27.7107   19.4940 C   0  0  0  0  0  0
  -23.6074  -29.8352   20.1669 C   0  0  0  0  0  0
  -25.4099  -36.3106   24.0345 C   0  0  1  0  0  0
  -20.5859  -28.3669   23.1313 C   0  0  2  0  0  0
  -20.6757  -26.9407   22.5409 C   0  0  0  0  0  0
  -19.5739  -26.6386   21.5204 C   0  0  0  0  0  0
  -18.1916  -26.7931   22.1615 C   0  0  0  0  0  0
  -19.1515  -28.8842   23.2896 C   0  0  0  0  0  0
  -18.9447  -30.1446   23.8908 C   0  0  0  0  0  0
  -17.6452  -30.6592   24.0562 C   0  0  0  0  0  0
  -25.9026  -34.9474   23.5136 C   0  0  0  0  0  0
  -16.5339  -29.9094   23.6328 C   0  0  0  0  0  0
  -16.7257  -28.6509   23.0351 C   0  0  0  0  0  0
  -26.4474  -31.6587   25.0737 C   0  0  0  0  0  0
  -25.3735  -31.3703   26.1484 C   0  0  0  0  0  0
  -27.0293  -30.3024   24.6107 C   0  0  0  0  0  0
  -27.6060  -32.4297   25.7496 C   0  0  0  0  0  0
  -27.5575  -37.1805   24.8465 C   0  0  0  0  0  0
  -21.4138  -29.3041   22.3729 N   0  0  0  0  0  0
  -26.4285  -37.3789   23.9414 N   0  0  0  0  0  0
  -24.6680  -31.0801   22.1027 N   0  0  0  0  0  0
  -23.4183  -28.8198   23.3022 O   0  0  0  0  0  0
  -28.4001  -26.6987   20.1045 O   0  0  0  0  0  0
  -26.5586  -34.8927   22.4693 O   0  0  0  0  0  0
  -23.5345  -32.1447   23.7518 O   0  0  0  0  0  0
  -30.6185  -17.7709   21.6403 C   0  0  0  0  0  0
  -29.6960  -18.4506   19.0568 C   0  0  0  0  0  0
  -30.1137  -16.7636   20.7927 C   0  0  0  0  0  0
  -30.2516  -19.4588   19.8893 C   0  0  0  0  0  0
  -30.6954  -19.1067   21.1917 C   0  0  0  0  0  0
  -29.6337  -17.1138   19.5122 C   0  0  0  0  0  0
  -29.4701  -24.4571   20.1234 C   0  0  0  0  0  0
  -30.2158  -18.6944   16.5723 C   0  0  0  0  0  0
  -29.1466  -18.7738   17.6692 C   0  0  0  0  0  0
  -28.3045  -25.3386   19.6527 C   0  0  0  0  0  0
  -30.2242  -21.9617   20.2058 C   0  0  0  0  0  0
  -29.6514  -23.1268   19.3617 C   0  0  0  0  0  0
  -30.0563  -15.4087   21.2211 N   0  0  0  0  0  0
  -30.3779  -20.7638   19.3748 N   0  0  0  0  0  0
  -30.2218  -24.8012   21.0434 O   0  0  0  0  0  0
  -31.2264  -20.0447   22.0144 F   0  0  0  0  0  0
  -29.1037  -16.1548   18.7122 F   0  0  0  0  0  0
  -28.4684  -22.7228   18.8895 F   0  0  0  0  0  0
  -30.4593  -23.3380   18.3199 F   0  0  0  0  0  0
  -31.4654  -12.3719   19.1168 H   0  0  0  0  0  0
  -30.3033  -11.2693   19.7972 H   0  0  0  0  0  0
  -29.7281  -11.8067   17.4091 H   0  0  0  0  0  0
  -29.6689  -13.5092   17.7902 H   0  0  0  0  0  0
  -27.8152  -11.3212   18.7941 H   0  0  0  0  0  0
  -27.3657  -12.6719   17.7873 H   0  0  0  0  0  0
  -27.7151  -14.2548   19.5988 H   0  0  0  0  0  0
  -28.6684  -11.9243   21.3288 H   0  0  0  0  0  0
  -28.4674  -13.5540   21.8852 H   0  0  0  0  0  0
  -25.2745   -9.5689   22.4742 H   0  0  0  0  0  0
  -24.0001   -7.4627   22.7460 H   0  0  0  0  0  0
  -21.0834   -8.8758   19.8943 H   0  0  0  0  0  0
  -22.3682  -10.9659   19.6139 H   0  0  0  0  0  0
  -21.2011   -7.6132   23.9709 H   0  0  0  0  0  0
  -21.1473   -6.0507   25.9073 H   0  0  0  0  0  0
  -22.0603   -2.7602   23.2838 H   0  0  0  0  0  0
  -22.4099  -11.9886   22.4786 H   0  0  0  0  0  0
  -21.1121  -13.1274   22.2594 H   0  0  0  0  0  0
  -24.6809  -15.8530   20.5157 H   0  0  0  0  0  0
  -26.2970  -15.6118   20.0814 H   0  0  0  0  0  0
  -26.7118  -32.5534   23.1173 H   0  0  0  0  0  0
  -25.0064  -33.9780   25.0490 H   0  0  0  0  0  0
  -22.6892  -31.3137   21.4203 H   0  0  0  0  0  0
  -23.3744  -35.9645   23.3297 H   0  0  0  0  0  0
  -24.3585  -36.8929   22.2058 H   0  0  0  0  0  0
  -23.7239  -37.6520   23.6652 H   0  0  0  0  0  0
  -26.0446  -31.5998   20.5986 H   0  0  0  0  0  0
  -26.8204  -30.8850   21.9840 H   0  0  0  0  0  0
  -28.0950  -29.0927   21.1641 H   0  0  0  0  0  0
  -25.9930  -26.0050   18.9643 H   0  0  0  0  0  0
  -23.9622  -27.3219   19.0253 H   0  0  0  0  0  0
  -23.7154  -30.6122   19.4091 H   0  0  0  0  0  0
  -22.7302  -29.2567   19.8712 H   0  0  0  0  0  0
  -25.1273  -36.1970   25.0838 H   0  0  0  0  0  0
  -20.9947  -28.3237   24.1435 H   0  0  0  0  0  0
  -20.5657  -26.2280   23.3597 H   0  0  0  0  0  0
  -21.6631  -26.7455   22.1211 H   0  0  0  0  0  0
  -19.6899  -25.6296   21.1238 H   0  0  0  0  0  0
  -19.6680  -27.3189   20.6728 H   0  0  0  0  0  0
  -17.4188  -26.6683   21.4013 H   0  0  0  0  0  0
  -18.0312  -26.0070   22.9008 H   0  0  0  0  0  0
  -19.7926  -30.7250   24.2287 H   0  0  0  0  0  0
  -17.5014  -31.6275   24.5164 H   0  0  0  0  0  0
  -15.5339  -30.2998   23.7650 H   0  0  0  0  0  0
  -15.8656  -28.0827   22.7067 H   0  0  0  0  0  0
  -24.5890  -30.7070   25.7823 H   0  0  0  0  0  0
  -24.8943  -32.2862   26.4951 H   0  0  0  0  0  0
  -25.8078  -30.8850   27.0233 H   0  0  0  0  0  0
  -26.2827  -29.6795   24.1164 H   0  0  0  0  0  0
  -27.4062  -29.7253   25.4563 H   0  0  0  0  0  0
  -27.8671  -30.4334   23.9254 H   0  0  0  0  0  0
  -27.2695  -33.3596   26.2092 H   0  0  0  0  0  0
  -28.3860  -32.6848   25.0312 H   0  0  0  0  0  0
  -28.0734  -31.8403   26.5395 H   0  0  0  0  0  0
  -28.2593  -38.0103   24.7510 H   0  0  0  0  0  0
  -28.1067  -36.2632   24.6275 H   0  0  0  0  0  0
  -27.2301  -37.1456   25.8873 H   0  0  0  0  0  0
  -20.9294  -29.8774   21.6966 H   0  0  0  0  0  0
  -26.0175  -38.2870   24.1407 H   0  0  0  0  0  0
  -30.9739  -17.5227   22.6298 H   0  0  0  0  0  0
  -29.7852  -18.9218   15.5965 H   0  0  0  0  0  0
  -30.6486  -17.6951   16.5161 H   0  0  0  0  0  0
  -31.0256  -19.4023   16.7518 H   0  0  0  0  0  0
  -28.6789  -19.7583   17.6686 H   0  0  0  0  0  0
  -28.3363  -18.0825   17.4340 H   0  0  0  0  0  0
  -27.4064  -24.8704   20.0556 H   0  0  0  0  0  0
  -28.2439  -25.3108   18.5644 H   0  0  0  0  0  0
  -29.5621  -21.7574   21.0490 H   0  0  0  0  0  0
  -31.1949  -22.2382   20.6192 H   0  0  0  0  0  0
  -29.2012  -15.1226   21.6734 H   0  0  0  0  0  0
  -30.0861  -20.8939   18.4135 H   0  0  0  0  0  0
  1 25  1  0  0  0
  1 30  2  0  0  0
  1 83  1  0  0  0
  2  3  1  0  0  0
  2 25  1  0  0  0
  2 90  1  0  0  0
  2 91  1  0  0  0
  3  4  1  0  0  0
  3 92  1  0  0  0
  3 93  1  0  0  0
  4  5  1  0  0  0
  4 94  1  0  0  0
  4 95  1  0  0  0
  5  6  1  0  0  0
  5 26  1  0  0  0
  5 96  1  0  0  0
  6 25  1  0  0  0
  6 97  1  0  0  0
  6 98  1  0  0  0
  7  8  2  0  0  0
  7 26  1  0  0  0
  7 29  1  0  0  0
  8  9  1  0  0  0
  8 22  1  0  0  0
  9 10  1  0  0  0
  9 27  2  0  0  0
 10 11  2  0  0  0
 10 15  1  0  0  0
 11 12  1  0  0  0
 11 99  1  0  0  0
 12 13  2  0  0  0
 12100  1  0  0  0
 13 14  1  0  0  0
 13 31  1  0  0  0
 14 15  2  0  0  0
 14101  1  0  0  0
 15102  1  0  0  0
 16 17  2  0  0  0
 16 21  1  0  0  0
 16 31  1  0  0  0
 17 18  1  0  0  0
 17103  1  0  0  0
 18 19  2  0  0  0
 18104  1  0  0  0
 19 20  1  0  0  0
 19 24  1  0  0  0
 20 21  2  0  0  0
 20105  1  0  0  0
 21 23  1  0  0  0
 22 28  1  0  0  0
 22 32  2  0  0  0
 26 27  1  0  0  0
 28106  1  0  0  0
 28107  1  0  0  0
 29108  1  0  0  0
 29109  1  0  0  0
 33 34  1  0  0  0
 33 66  1  0  0  0
 33 70  2  0  0  0
 34 36  1  0  0  0
 34 59  1  0  0  0
 34110  1  0  0  0
 35 44  2  0  0  0
 35 45  1  0  0  0
 35 68  1  0  0  0
 36 56  1  0  0  0
 36111  1  0  0  0
 37 39  1  0  0  0
 37 47  1  0  0  0
 37 66  1  0  0  0
 37112  1  0  0  0
 38 43  2  0  0  0
 38 46  1  0  0  0
 38 47  1  0  0  0
 39 64  1  0  0  0
 39 67  2  0  0  0
 40 52  1  0  0  0
 40 53  2  0  0  0
 40 58  1  0  0  0
 41113  1  0  0  0
 41114  1  0  0  0
 41115  1  0  0  0
 41 48  1  0  0  0
 42 43  1  0  0  0
 42 66  1  0  0  0
 42116  1  0  0  0
 42117  1  0  0  0
 43 44  1  0  0  0
 44118  1  0  0  0
 45 46  2  0  0  0
 45119  1  0  0  0
 46120  1  0  0  0
 47121  1  0  0  0
 47122  1  0  0  0
 48 56  1  0  0  0
 48 65  1  0  0  0
 48123  1  0  0  0
 49 50  1  0  0  0
 49 53  1  0  0  0
 49 64  1  0  0  0
 49124  1  0  0  0
 50 51  1  0  0  0
 50125  1  0  0  0
 50126  1  0  0  0
 51 52  1  0  0  0
 51127  1  0  0  0
 51128  1  0  0  0
 52129  1  0  0  0
 52130  1  0  0  0
 53 54  1  0  0  0
 54 55  2  0  0  0
 54131  1  0  0  0
 55 57  1  0  0  0
 55132  1  0  0  0
 56 69  2  0  0  0
 57 58  2  0  0  0
 57133  1  0  0  0
 58134  1  0  0  0
 59 60  1  0  0  0
 59 61  1  0  0  0
 59 62  1  0  0  0
 60135  1  0  0  0
 60136  1  0  0  0
 60137  1  0  0  0
 61138  1  0  0  0
 61139  1  0  0  0
 61140  1  0  0  0
 62141  1  0  0  0
 62142  1  0  0  0
 62143  1  0  0  0
 63 65  1  0  0  0
 63144  1  0  0  0
 63145  1  0  0  0
 63146  1  0  0  0
 64147  1  0  0  0
 65148  1  0  0  0
 68 80  1  0  0  0
 71 73  2  0  0  0
 71 75  1  0  0  0
 71149  1  0  0  0
 72 74  1  0  0  0
 72 76  2  0  0  0
 72 79  1  0  0  0
 73 76  1  0  0  0
 73 83  1  0  0  0
 74 75  2  0  0  0
 74 84  1  0  0  0
 75 86  1  0  0  0
 76 87  1  0  0  0
 77 80  1  0  0  0
 77 82  1  0  0  0
 77 85  2  0  0  0
 78 79  1  0  0  0
 78150  1  0  0  0
 78151  1  0  0  0
 78152  1  0  0  0
 79153  1  0  0  0
 79154  1  0  0  0
 80155  1  0  0  0
 80156  1  0  0  0
 81 82  1  0  0  0
 81 84  1  0  0  0
 81157  1  0  0  0
 81158  1  0  0  0
 82 88  1  0  0  0
 82 89  1  0  0  0
 83159  1  0  0  0
 84160  1  0  0  0
M  ISO  4   1 100  68 101  80 101  83 100
M  END
> <chiral flag>
0

> <version>
0

> <s_m_source_file>
/data/baiqing/PycharmProjects/Reinvent-master-3.2/result/LINK_invent/BTK/process_docking_weight1_custom_product_contain_oxygen_bond_distance_aromatic_linkinvent_7_9_3/rearranged_h_0171.sdf

> <i_m_source_file_index>
67

> <r_mmod_Potential_Energy-OPLS-2005>
36.5244789123535

> <r_mmod_Stretch_Energy-OPLS-2005>
37.0139770507812

> <r_mmod_Bend_Energy-OPLS-2005>
100.729141235352

> <r_mmod_Torsional_Energy-OPLS-2005>
252.450622558594

> <r_mmod_Improper_Torsional_Energy-OPLS-2005>
7.06896448135376

> <r_mmod_Van_der_Waal_Energy-OPLS-2005>
162.744766235352

> <r_mmod_Electrostatic_Energy-OPLS-2005>
-315.363800048828

> <r_mmod_Solvation_Energy-OPLS-2005>
-219.015991210938

> <b_mmod_Minimization_Converged-OPLS-2005>
0

> <r_mmod_RMS_Derivative-OPLS-2005>
1.26916551589966

$$$$
67
                    3D
 Structure written by MMmdl.
162170  0  0  1  0            999 V2000
  -30.7207  -14.4942   20.5711 C   0  0  0  0  0  0
  -30.4178  -12.3195   19.4359 C   0  0  0  0  0  0
  -29.4945  -12.4975   18.2138 C   0  0  0  0  0  0
  -28.0173  -12.3546   18.6269 C   0  0  0  0  0  0
  -27.6574  -13.2122   19.8697 C   0  0  2  0  0  0
  -28.6997  -13.0302   20.9976 C   0  0  0  0  0  0
  -25.2570  -13.8178   20.5682 C   0  0  0  0  0  0
  -24.1829  -13.0448   20.9187 C   0  0  0  0  0  0
  -24.6390  -11.6918   20.8747 C   0  0  0  0  0  0
  -23.9063  -10.4297   21.0409 C   0  0  0  0  0  0
  -24.3614   -9.4211   21.9187 C   0  0  0  0  0  0
  -23.6290   -8.2247   22.0757 C   0  0  0  0  0  0
  -22.4275   -8.0282   21.3545 C   0  0  0  0  0  0
  -21.9909   -9.0257   20.4649 C   0  0  0  0  0  0
  -22.7237  -10.2136   20.3057 C   0  0  0  0  0  0
  -21.6851   -6.0741   22.5282 C   0  0  0  0  0  0
  -21.4012   -6.5643   23.8216 C   0  0  0  0  0  0
  -21.3658   -5.6794   24.9175 C   0  0  0  0  0  0
  -21.6042   -4.3057   24.7225 C   0  0  0  0  0  0
  -21.8819   -3.8152   23.4345 C   0  0  0  0  0  0
  -21.9192   -4.6970   22.3402 C   0  0  0  0  0  0
  -22.7849  -13.5239   21.1849 C   0  0  0  0  0  0
  -22.1659   -4.2158   21.0979 F   0  0  0  0  0  0
  -21.5629   -3.4539   25.7736 F   0  0  0  0  0  0
  -30.0288  -13.3261   20.4395 N   0  0  0  0  0  0
  -26.3003  -12.9354   20.3348 N   0  0  0  0  0  0
  -25.9317  -11.6512   20.5773 N   0  0  0  0  0  0
  -22.0483  -12.8235   22.0400 N   0  0  0  0  0  0
  -25.4290  -15.1896   20.4076 N   0  0  0  0  0  0
  -31.8548  -14.6205   20.0980 O   0  0  0  0  0  0
  -21.6638   -6.8883   21.4243 O   0  0  0  0  0  0
  -22.3541  -14.5547   20.6698 O   0  0  0  0  0  0
  -24.6180  -31.8675   23.2117 C   0  0  0  0  0  0
  -25.9065  -32.4809   23.8405 C   0  0  1  0  0  0
  -27.2210  -27.3960   20.0906 C   0  0  0  0  0  0
  -25.5911  -33.8609   24.2322 N   0  0  0  0  0  0
  -23.4060  -30.4958   21.5533 C   0  0  2  0  0  0
  -24.8487  -28.9668   20.1122 C   0  0  0  0  0  0
  -22.7432  -29.4663   22.4982 C   0  0  0  0  0  0
  -18.0276  -28.1378   22.8495 C   0  0  0  0  0  0
  -24.1490  -36.7314   23.2638 C   0  0  0  0  0  0
  -25.9421  -30.8183   21.3757 C   0  0  0  0  0  0
  -26.0133  -29.4527   20.7185 C   0  0  0  0  0  0
  -27.1981  -28.6722   20.7118 C   0  0  0  0  0  0
  -26.0348  -26.9562   19.4487 C   0  0  0  0  0  0
  -24.8568  -27.7185   19.4769 C   0  0  0  0  0  0
  -23.6146  -29.8376   20.1656 C   0  0  0  0  0  0
  -25.4111  -36.3105   24.0333 C   0  0  1  0  0  0
  -20.5874  -28.3670   23.1308 C   0  0  2  0  0  0
  -20.6769  -26.9402   22.5416 C   0  0  0  0  0  0
  -19.5739  -26.6386   21.5217 C   0  0  0  0  0  0
  -18.1914  -26.7922   22.1632 C   0  0  0  0  0  0
  -19.1530  -28.8841   23.2895 C   0  0  0  0  0  0
  -18.9459  -30.1446   23.8903 C   0  0  0  0  0  0
  -17.6459  -30.6583   24.0564 C   0  0  0  0  0  0
  -25.9044  -34.9467   23.5128 C   0  0  0  0  0  0
  -16.5348  -29.9084   23.6331 C   0  0  0  0  0  0
  -16.7264  -28.6505   23.0352 C   0  0  0  0  0  0
  -26.4480  -31.6601   25.0749 C   0  0  0  0  0  0
  -25.3733  -31.3703   26.1490 C   0  0  0  0  0  0
  -27.0326  -30.3037   24.6160 C   0  0  0  0  0  0
  -27.6063  -32.4324   25.7497 C   0  0  0  0  0  0
  -27.5580  -37.1807   24.8459 C   0  0  0  0  0  0
  -21.4159  -29.3041   22.3715 N   0  0  0  0  0  0
  -26.4293  -37.3792   23.9409 N   0  0  0  0  0  0
  -24.6738  -31.0750   22.1039 N   0  0  0  0  0  0
  -23.4202  -28.8196   23.3015 O   0  0  0  0  0  0
  -28.3754  -26.6206   20.1434 O   0  0  0  0  0  0
  -26.5607  -34.8917   22.4690 O   0  0  0  0  0  0
  -23.5366  -32.1462   23.7484 O   0  0  0  0  0  0
  -29.5166  -17.9410   21.1440 C   0  0  0  0  0  0
  -29.8993  -19.3100   21.2546 C   0  0  0  0  0  0
  -31.2702  -19.5811   21.4695 C   0  0  0  0  0  0
  -30.4807  -16.9002   21.2382 C   0  0  0  0  0  0
  -32.1528  -18.4939   21.5837 C   0  0  0  0  0  0
  -29.0924  -24.2201   20.4921 C   0  0  0  0  0  0
  -27.7610  -20.3019   22.2095 C   0  0  0  0  0  0
  -29.7678  -22.4766   18.7511 C   0  0  0  0  0  0
  -28.3166  -25.2571   19.6433 C   0  0  0  0  0  0
  -28.8469  -20.4353   21.1266 C   0  0  1  0  0  0
  -28.9598  -22.7311   20.0410 C   0  0  1  0  0  0
  -31.7791  -17.2078   21.4832 N   0  0  0  0  0  0
  -33.5030  -18.7130   21.8088 N   0  0  0  0  0  0
  -30.0354  -15.5443   21.0875 N   0  0  0  0  0  0
  -29.4048  -21.8215   21.1374 N   0  3  0  0  0  0
  -29.7622  -24.5702   21.4703 O   0  0  0  0  0  0
  -31.7509  -20.8476   21.5576 F   0  0  0  0  0  0
  -31.4626  -12.4039   19.1324 H   0  0  0  0  0  0
  -30.3143  -11.3166   19.8525 H   0  0  0  0  0  0
  -29.7394  -11.7616   17.4462 H   0  0  0  0  0  0
  -29.6594  -13.4777   17.7632 H   0  0  0  0  0  0
  -27.8370  -11.3005   18.8412 H   0  0  0  0  0  0
  -27.3650  -12.6092   17.7907 H   0  0  0  0  0  0
  -27.6908  -14.2536   19.5490 H   0  0  0  0  0  0
  -28.6799  -12.0059   21.3730 H   0  0  0  0  0  0
  -28.4593  -13.6610   21.8546 H   0  0  0  0  0  0
  -25.2759   -9.5690   22.4762 H   0  0  0  0  0  0
  -24.0002   -7.4639   22.7477 H   0  0  0  0  0  0
  -21.0843   -8.8773   19.8951 H   0  0  0  0  0  0
  -22.3696  -10.9676   19.6166 H   0  0  0  0  0  0
  -21.2003   -7.6150   23.9721 H   0  0  0  0  0  0
  -21.1477   -6.0523   25.9079 H   0  0  0  0  0  0
  -22.0601   -2.7614   23.2842 H   0  0  0  0  0  0
  -22.4079  -11.9882   22.4780 H   0  0  0  0  0  0
  -21.1103  -13.1270   22.2603 H   0  0  0  0  0  0
  -24.6594  -15.8430   20.5060 H   0  0  0  0  0  0
  -26.2715  -15.6240   20.0535 H   0  0  0  0  0  0
  -26.7138  -32.5509   23.1167 H   0  0  0  0  0  0
  -25.0033  -33.9762   25.0446 H   0  0  0  0  0  0
  -22.6959  -31.3142   21.4175 H   0  0  0  0  0  0
  -23.3741  -35.9654   23.3307 H   0  0  0  0  0  0
  -24.3573  -36.8934   22.2048 H   0  0  0  0  0  0
  -23.7257  -37.6527   23.6657 H   0  0  0  0  0  0
  -26.0661  -31.5838   20.6090 H   0  0  0  0  0  0
  -26.8256  -30.8639   22.0001 H   0  0  0  0  0  0
  -28.0920  -29.0382   21.1982 H   0  0  0  0  0  0
  -25.9665  -26.0291   18.9025 H   0  0  0  0  0  0
  -23.9645  -27.3468   18.9911 H   0  0  0  0  0  0
  -23.7243  -30.6161   19.4092 H   0  0  0  0  0  0
  -22.7364  -29.2608   19.8682 H   0  0  0  0  0  0
  -25.1283  -36.1970   25.0824 H   0  0  0  0  0  0
  -20.9957  -28.3238   24.1432 H   0  0  0  0  0  0
  -20.5681  -26.2273   23.3605 H   0  0  0  0  0  0
  -21.6634  -26.7442   22.1198 H   0  0  0  0  0  0
  -19.6897  -25.6302   21.1230 H   0  0  0  0  0  0
  -19.6675  -27.3212   20.6757 H   0  0  0  0  0  0
  -17.4188  -26.6682   21.4024 H   0  0  0  0  0  0
  -18.0308  -26.0053   22.9017 H   0  0  0  0  0  0
  -19.7936  -30.7259   24.2274 H   0  0  0  0  0  0
  -17.5017  -31.6261   24.5167 H   0  0  0  0  0  0
  -15.5351  -30.2984   23.7655 H   0  0  0  0  0  0
  -15.8668  -28.0824   22.7060 H   0  0  0  0  0  0
  -24.5909  -30.7051   25.7817 H   0  0  0  0  0  0
  -24.8910  -32.2846   26.4950 H   0  0  0  0  0  0
  -25.8069  -30.8858   27.0246 H   0  0  0  0  0  0
  -26.2887  -29.6777   24.1219 H   0  0  0  0  0  0
  -27.4090  -29.7296   25.4635 H   0  0  0  0  0  0
  -27.8721  -30.4340   23.9331 H   0  0  0  0  0  0
  -27.2705  -33.3624   26.2089 H   0  0  0  0  0  0
  -28.3857  -32.6887   25.0311 H   0  0  0  0  0  0
  -28.0754  -31.8443   26.5396 H   0  0  0  0  0  0
  -28.2598  -38.0105   24.7516 H   0  0  0  0  0  0
  -28.1082  -36.2638   24.6281 H   0  0  0  0  0  0
  -27.2291  -37.1450   25.8860 H   0  0  0  0  0  0
  -20.9327  -29.8781   21.6950 H   0  0  0  0  0  0
  -26.0182  -38.2870   24.1411 H   0  0  0  0  0  0
  -28.4801  -17.6930   20.9617 H   0  0  0  0  0  0
  -27.2633  -19.3342   22.1588 H   0  0  0  0  0  0
  -26.9872  -21.0618   22.0973 H   0  0  0  0  0  0
  -28.1825  -20.3977   23.2107 H   0  0  0  0  0  0
  -29.4216  -23.1063   17.9309 H   0  0  0  0  0  0
  -29.6703  -21.4433   18.4179 H   0  0  0  0  0  0
  -30.8301  -22.6791   18.8955 H   0  0  0  0  0  0
  -27.3098  -24.8530   19.6404 H   0  0  0  0  0  0
  -28.6814  -25.2386   18.6172 H   0  0  0  0  0  0
  -28.3705  -20.2701   20.1594 H   0  0  0  0  0  0
  -27.9033  -22.5414   19.8470 H   0  0  0  0  0  0
  -33.8353  -19.6547   21.6406 H   0  0  0  0  0  0
  -34.1483  -17.9845   21.5323 H   0  0  0  0  0  0
  -29.0731  -15.3608   21.3188 H   0  0  0  0  0  0
  -30.4157  -21.7410   21.1429 H   0  0  0  0  0  0
  -29.1545  -22.2590   22.0100 H   0  0  0  0  0  0
  1 25  1  0  0  0
  1 30  2  0  0  0
  1 84  1  0  0  0
  2  3  1  0  0  0
  2 25  1  0  0  0
  2 88  1  0  0  0
  2 89  1  0  0  0
  3  4  1  0  0  0
  3 90  1  0  0  0
  3 91  1  0  0  0
  4  5  1  0  0  0
  4 92  1  0  0  0
  4 93  1  0  0  0
  5  6  1  0  0  0
  5 26  1  0  0  0
  5 94  1  0  0  0
  6 25  1  0  0  0
  6 95  1  0  0  0
  6 96  1  0  0  0
  7  8  2  0  0  0
  7 26  1  0  0  0
  7 29  1  0  0  0
  8  9  1  0  0  0
  8 22  1  0  0  0
  9 10  1  0  0  0
  9 27  2  0  0  0
 10 11  2  0  0  0
 10 15  1  0  0  0
 11 12  1  0  0  0
 11 97  1  0  0  0
 12 13  2  0  0  0
 12 98  1  0  0  0
 13 14  1  0  0  0
 13 31  1  0  0  0
 14 15  2  0  0  0
 14 99  1  0  0  0
 15100  1  0  0  0
 16 17  2  0  0  0
 16 21  1  0  0  0
 16 31  1  0  0  0
 17 18  1  0  0  0
 17101  1  0  0  0
 18 19  2  0  0  0
 18102  1  0  0  0
 19 20  1  0  0  0
 19 24  1  0  0  0
 20 21  2  0  0  0
 20103  1  0  0  0
 21 23  1  0  0  0
 22 28  1  0  0  0
 22 32  2  0  0  0
 26 27  1  0  0  0
 28104  1  0  0  0
 28105  1  0  0  0
 29106  1  0  0  0
 29107  1  0  0  0
 33 34  1  0  0  0
 33 66  1  0  0  0
 33 70  2  0  0  0
 34 36  1  0  0  0
 34 59  1  0  0  0
 34108  1  0  0  0
 35 44  2  0  0  0
 35 45  1  0  0  0
 35 68  1  0  0  0
 36 56  1  0  0  0
 36109  1  0  0  0
 37 39  1  0  0  0
 37 47  1  0  0  0
 37 66  1  0  0  0
 37110  1  0  0  0
 38 43  2  0  0  0
 38 46  1  0  0  0
 38 47  1  0  0  0
 39 64  1  0  0  0
 39 67  2  0  0  0
 40 52  1  0  0  0
 40 53  2  0  0  0
 40 58  1  0  0  0
 41111  1  0  0  0
 41112  1  0  0  0
 41113  1  0  0  0
 41 48  1  0  0  0
 42 43  1  0  0  0
 42 66  1  0  0  0
 42114  1  0  0  0
 42115  1  0  0  0
 43 44  1  0  0  0
 44116  1  0  0  0
 45 46  2  0  0  0
 45117  1  0  0  0
 46118  1  0  0  0
 47119  1  0  0  0
 47120  1  0  0  0
 48 56  1  0  0  0
 48 65  1  0  0  0
 48121  1  0  0  0
 49 50  1  0  0  0
 49 53  1  0  0  0
 49 64  1  0  0  0
 49122  1  0  0  0
 50 51  1  0  0  0
 50123  1  0  0  0
 50124  1  0  0  0
 51 52  1  0  0  0
 51125  1  0  0  0
 51126  1  0  0  0
 52127  1  0  0  0
 52128  1  0  0  0
 53 54  1  0  0  0
 54 55  2  0  0  0
 54129  1  0  0  0
 55 57  1  0  0  0
 55130  1  0  0  0
 56 69  2  0  0  0
 57 58  2  0  0  0
 57131  1  0  0  0
 58132  1  0  0  0
 59 60  1  0  0  0
 59 61  1  0  0  0
 59 62  1  0  0  0
 60133  1  0  0  0
 60134  1  0  0  0
 60135  1  0  0  0
 61136  1  0  0  0
 61137  1  0  0  0
 61138  1  0  0  0
 62139  1  0  0  0
 62140  1  0  0  0
 62141  1  0  0  0
 63 65  1  0  0  0
 63142  1  0  0  0
 63143  1  0  0  0
 63144  1  0  0  0
 64145  1  0  0  0
 65146  1  0  0  0
 68 79  1  0  0  0
 71 72  2  0  0  0
 71 74  1  0  0  0
 71147  1  0  0  0
 72 73  1  0  0  0
 72 80  1  0  0  0
 73 75  2  0  0  0
 73 87  1  0  0  0
 74 82  2  0  0  0
 74 84  1  0  0  0
 75 82  1  0  0  0
 75 83  1  0  0  0
 76 79  1  0  0  0
 76 81  1  0  0  0
 76 86  2  0  0  0
 77148  1  0  0  0
 77149  1  0  0  0
 77150  1  0  0  0
 77 80  1  0  0  0
 78151  1  0  0  0
 78152  1  0  0  0
 78153  1  0  0  0
 78 81  1  0  0  0
 79154  1  0  0  0
 79155  1  0  0  0
 80 85  1  0  0  0
 80156  1  0  0  0
 81 85  1  0  0  0
 81157  1  0  0  0
 83158  1  0  0  0
 83159  1  0  0  0
 84160  1  0  0  0
 85161  1  0  0  0
 85162  1  0  0  0
M  CHG  1  85   1
M  ISO  4   1 100  68 101  79 101  84 100
M  END
> <chiral flag>
0

> <version>
0

> <s_m_source_file>
/data/baiqing/PycharmProjects/Reinvent-master-3.2/result/LINK_invent/BTK/process_docking_weight1_custom_product_contain_oxygen_bond_distance_aromatic_linkinvent_7_9_3/rearranged_h_0171.sdf

> <i_m_source_file_index>
68

> <r_mmod_Potential_Energy-OPLS-2005>
-531.606384277344

> <r_mmod_Stretch_Energy-OPLS-2005>
46.7855339050293

> <r_mmod_Bend_Energy-OPLS-2005>
110.369354248047

> <r_mmod_Torsional_Energy-OPLS-2005>
223.1123046875

> <r_mmod_Improper_Torsional_Energy-OPLS-2005>
7.13956117630005

> <r_mmod_Van_der_Waal_Energy-OPLS-2005>
166.965850830078

> <r_mmod_Electrostatic_Energy-OPLS-2005>
-585.389038085938

> <r_mmod_Solvation_Energy-OPLS-2005>
-520.524841308594

> <b_mmod_Minimization_Converged-OPLS-2005>
0

> <r_mmod_RMS_Derivative-OPLS-2005>
1.14238691329956

$$$$
68
                    3D
 Structure written by MMmdl.
163171  0  0  1  0            999 V2000
  -30.6270  -14.7816   20.4038 C   0  0  0  0  0  0
  -30.4534  -12.4690   19.4587 C   0  0  0  0  0  0
  -29.5135  -12.3907   18.2337 C   0  0  0  0  0  0
  -28.0313  -12.2920   18.6517 C   0  0  0  0  0  0
  -27.6399  -13.2179   19.8362 C   0  0  2  0  0  0
  -28.7005  -13.1959   20.9532 C   0  0  0  0  0  0
  -25.2514  -13.8144   20.5570 C   0  0  0  0  0  0
  -24.1832  -13.0434   20.9228 C   0  0  0  0  0  0
  -24.6402  -11.6910   20.8823 C   0  0  0  0  0  0
  -23.9065  -10.4290   21.0442 C   0  0  0  0  0  0
  -24.3647   -9.4211   21.9200 C   0  0  0  0  0  0
  -23.6330   -8.2247   22.0741 C   0  0  0  0  0  0
  -22.4303   -8.0295   21.3546 C   0  0  0  0  0  0
  -21.9920   -9.0259   20.4641 C   0  0  0  0  0  0
  -22.7239  -10.2148   20.3061 C   0  0  0  0  0  0
  -21.6864   -6.0752   22.5281 C   0  0  0  0  0  0
  -21.3998   -6.5645   23.8214 C   0  0  0  0  0  0
  -21.3641   -5.6787   24.9168 C   0  0  0  0  0  0
  -21.6045   -4.3055   24.7220 C   0  0  0  0  0  0
  -21.8815   -3.8156   23.4331 C   0  0  0  0  0  0
  -21.9185   -4.6977   22.3389 C   0  0  0  0  0  0
  -22.7857  -13.5249   21.1869 C   0  0  0  0  0  0
  -22.1672   -4.2173   21.0972 F   0  0  0  0  0  0
  -21.5628   -3.4543   25.7737 F   0  0  0  0  0  0
  -29.9781  -13.5622   20.3329 N   0  0  0  0  0  0
  -26.2963  -12.9317   20.3296 N   0  0  0  0  0  0
  -25.9345  -11.6499   20.5888 N   0  0  0  0  0  0
  -22.0474  -12.8255   22.0397 N   0  0  0  0  0  0
  -25.4162  -15.1817   20.3664 N   0  0  0  0  0  0
  -31.8583  -14.8051   20.3416 O   0  0  0  0  0  0
  -21.6662   -6.8900   21.4247 O   0  0  0  0  0  0
  -22.3552  -14.5555   20.6696 O   0  0  0  0  0  0
  -24.6297  -31.8566   23.2006 C   0  0  0  0  0  0
  -25.9140  -32.4772   23.8343 C   0  0  1  0  0  0
  -27.2293  -27.2755   20.1357 C   0  0  0  0  0  0
  -25.5966  -33.8566   24.2277 N   0  0  0  0  0  0
  -23.4271  -30.4793   21.5423 C   0  0  2  0  0  0
  -24.8811  -28.9368   20.1067 C   0  0  0  0  0  0
  -22.7501  -29.4590   22.4904 C   0  0  0  0  0  0
  -18.0293  -28.1400   22.8470 C   0  0  0  0  0  0
  -24.1498  -36.7282   23.2634 C   0  0  0  0  0  0
  -25.9709  -30.7784   21.3777 C   0  0  0  0  0  0
  -26.0501  -29.4002   20.7240 C   0  0  0  0  0  0
  -27.2259  -28.5828   20.7303 C   0  0  0  0  0  0
  -26.0401  -26.8915   19.4709 C   0  0  0  0  0  0
  -24.8836  -27.6924   19.4614 C   0  0  0  0  0  0
  -23.6490  -29.8181   20.1549 C   0  0  0  0  0  0
  -25.4119  -36.3075   24.0326 C   0  0  1  0  0  0
  -20.5895  -28.3711   23.1271 C   0  0  2  0  0  0
  -20.6788  -26.9432   22.5424 C   0  0  0  0  0  0
  -19.5777  -26.6395   21.5214 C   0  0  0  0  0  0
  -18.1944  -26.7947   22.1607 C   0  0  0  0  0  0
  -19.1545  -28.8872   23.2865 C   0  0  0  0  0  0
  -18.9464  -30.1465   23.8890 C   0  0  0  0  0  0
  -17.6465  -30.6599   24.0562 C   0  0  0  0  0  0
  -25.9047  -34.9450   23.5097 C   0  0  0  0  0  0
  -16.5352  -29.9097   23.6336 C   0  0  0  0  0  0
  -16.7275  -28.6523   23.0335 C   0  0  0  0  0  0
  -26.4527  -31.6569   25.0711 C   0  0  0  0  0  0
  -25.3763  -31.3693   26.1433 C   0  0  0  0  0  0
  -27.0354  -30.2998   24.6154 C   0  0  0  0  0  0
  -27.6087  -32.4292   25.7483 C   0  0  0  0  0  0
  -27.5583  -37.1797   24.8457 C   0  0  0  0  0  0
  -21.4207  -29.3045   22.3651 N   0  0  0  0  0  0
  -26.4286  -37.3778   23.9410 N   0  0  0  0  0  0
  -24.6945  -31.0541   22.0974 N   0  0  0  0  0  0
  -23.4208  -28.8125   23.2992 O   0  0  0  0  0  0
  -28.3096  -26.3618   20.2220 O   0  0  0  0  0  0
  -26.5596  -34.8905   22.4645 O   0  0  0  0  0  0
  -23.5443  -32.1359   23.7321 O   0  0  0  0  0  0
  -27.9063  -19.4003   21.4264 C   0  0  0  0  0  0
  -28.2413  -16.9766   21.2573 C   0  0  0  0  0  0
  -29.9358  -18.5114   20.4127 C   0  0  0  0  0  0
  -29.1389  -19.6777   20.7952 C   0  0  0  0  0  0
  -29.4581  -17.1306   20.5598 C   0  0  0  0  0  0
  -27.4851  -18.0836   21.6839 C   0  0  0  0  0  0
  -29.0182  -23.7629   20.4910 C   0  0  0  0  0  0
  -31.3315  -18.7794   19.8744 C   0  0  0  0  0  0
  -29.7684  -16.7148   16.0362 C   0  0  0  0  0  0
  -28.5394  -22.2305   20.5236 C   0  0  0  0  0  0
  -27.9651  -24.9037   20.0951 C   0  0  0  0  0  0
  -29.8673  -15.8168   18.3930 C   0  0  0  0  0  0
  -29.8260  -17.0849   17.5230 C   0  0  2  0  0  0
  -29.5220  -21.0673   20.5939 N   0  0  0  0  0  0
  -29.9598  -15.8968   19.8799 N   0  0  0  0  0  0
  -30.1860  -24.0470   20.7767 O   0  0  0  0  0  0
  -26.3078  -17.8789   22.3217 F   0  0  0  0  0  0
  -28.7460  -17.8198   17.7918 F   0  0  0  0  0  0
  -31.4765  -12.6347   19.1118 H   0  0  0  0  0  0
  -30.4698  -11.5279   20.0087 H   0  0  0  0  0  0
  -29.7877  -11.5153   17.6429 H   0  0  0  0  0  0
  -29.6681  -13.2331   17.5631 H   0  0  0  0  0  0
  -27.8544  -11.2523   18.9367 H   0  0  0  0  0  0
  -27.3852  -12.4830   17.7950 H   0  0  0  0  0  0
  -27.6081  -14.2313   19.4451 H   0  0  0  0  0  0
  -28.7561  -12.2048   21.4093 H   0  0  0  0  0  0
  -28.4445  -13.8935   21.7510 H   0  0  0  0  0  0
  -25.2796   -9.5713   22.4784 H   0  0  0  0  0  0
  -24.0059   -7.4631   22.7454 H   0  0  0  0  0  0
  -21.0833   -8.8754   19.8962 H   0  0  0  0  0  0
  -22.3679  -10.9693   19.6182 H   0  0  0  0  0  0
  -21.1989   -7.6149   23.9716 H   0  0  0  0  0  0
  -21.1483   -6.0523   25.9077 H   0  0  0  0  0  0
  -22.0625   -2.7622   23.2815 H   0  0  0  0  0  0
  -22.4053  -11.9944   22.4840 H   0  0  0  0  0  0
  -21.1070  -13.1290   22.2490 H   0  0  0  0  0  0
  -24.6463  -15.8382   20.4433 H   0  0  0  0  0  0
  -26.2251  -15.5853   19.9117 H   0  0  0  0  0  0
  -26.7203  -32.5446   23.1068 H   0  0  0  0  0  0
  -25.0197  -33.9710   25.0492 H   0  0  0  0  0  0
  -22.7236  -31.3009   21.3995 H   0  0  0  0  0  0
  -23.3767  -35.9606   23.3274 H   0  0  0  0  0  0
  -24.3592  -36.8928   22.2053 H   0  0  0  0  0  0
  -23.7242  -37.6475   23.6663 H   0  0  0  0  0  0
  -26.1014  -31.5406   20.6071 H   0  0  0  0  0  0
  -26.8506  -30.8329   22.0069 H   0  0  0  0  0  0
  -28.1153  -28.9349   21.2351 H   0  0  0  0  0  0
  -25.9662  -25.9487   18.9531 H   0  0  0  0  0  0
  -23.9988  -27.3419   18.9486 H   0  0  0  0  0  0
  -23.7711  -30.5984   19.4023 H   0  0  0  0  0  0
  -22.7694  -29.2507   19.8469 H   0  0  0  0  0  0
  -25.1300  -36.1913   25.0818 H   0  0  0  0  0  0
  -20.9969  -28.3296   24.1393 H   0  0  0  0  0  0
  -20.5697  -26.2306   23.3615 H   0  0  0  0  0  0
  -21.6655  -26.7464   22.1213 H   0  0  0  0  0  0
  -19.6928  -25.6299   21.1261 H   0  0  0  0  0  0
  -19.6727  -27.3189   20.6729 H   0  0  0  0  0  0
  -17.4216  -26.6687   21.4004 H   0  0  0  0  0  0
  -18.0329  -26.0103   22.9017 H   0  0  0  0  0  0
  -19.7932  -30.7288   24.2258 H   0  0  0  0  0  0
  -17.5014  -31.6272   24.5184 H   0  0  0  0  0  0
  -15.5351  -30.2990   23.7675 H   0  0  0  0  0  0
  -15.8667  -28.0844   22.7038 H   0  0  0  0  0  0
  -24.5988  -30.6976   25.7774 H   0  0  0  0  0  0
  -24.8891  -32.2839   26.4814 H   0  0  0  0  0  0
  -25.8110  -30.8929   27.0230 H   0  0  0  0  0  0
  -26.2909  -29.6752   24.1203 H   0  0  0  0  0  0
  -27.4088  -29.7244   25.4634 H   0  0  0  0  0  0
  -27.8770  -30.4279   23.9341 H   0  0  0  0  0  0
  -27.2728  -33.3610   26.2024 H   0  0  0  0  0  0
  -28.3921  -32.6803   25.0328 H   0  0  0  0  0  0
  -28.0720  -31.8434   26.5428 H   0  0  0  0  0  0
  -28.2573  -38.0120   24.7528 H   0  0  0  0  0  0
  -28.1108  -36.2648   24.6248 H   0  0  0  0  0  0
  -27.2303  -37.1415   25.8861 H   0  0  0  0  0  0
  -20.9386  -29.8762   21.6853 H   0  0  0  0  0  0
  -26.0163  -38.2843   24.1439 H   0  0  0  0  0  0
  -27.2534  -20.1926   21.7535 H   0  0  0  0  0  0
  -27.8282  -15.9949   21.4198 H   0  0  0  0  0  0
  -31.9184  -19.3002   20.6296 H   0  0  0  0  0  0
  -31.2976  -19.4084   18.9837 H   0  0  0  0  0  0
  -31.8608  -17.8552   19.6435 H   0  0  0  0  0  0
  -30.6237  -16.0921   15.7652 H   0  0  0  0  0  0
  -29.7943  -17.6000   15.4013 H   0  0  0  0  0  0
  -28.8586  -16.1635   15.7961 H   0  0  0  0  0  0
  -27.9100  -22.0830   19.6461 H   0  0  0  0  0  0
  -27.8692  -22.1646   21.3792 H   0  0  0  0  0  0
  -27.0662  -24.7158   20.6822 H   0  0  0  0  0  0
  -27.7003  -24.7141   19.0556 H   0  0  0  0  0  0
  -30.7012  -15.2267   18.0056 H   0  0  0  0  0  0
  -28.9691  -15.2569   18.1531 H   0  0  0  0  0  0
  -30.7119  -17.6964   17.6670 H   0  0  0  0  0  0
  -30.4304  -21.2542   20.1775 H   0  0  0  0  0  0
  1 25  1  0  0  0
  1 30  2  0  0  0
  1 85  1  0  0  0
  2  3  1  0  0  0
  2 25  1  0  0  0
  2 89  1  0  0  0
  2 90  1  0  0  0
  3  4  1  0  0  0
  3 91  1  0  0  0
  3 92  1  0  0  0
  4  5  1  0  0  0
  4 93  1  0  0  0
  4 94  1  0  0  0
  5  6  1  0  0  0
  5 26  1  0  0  0
  5 95  1  0  0  0
  6 25  1  0  0  0
  6 96  1  0  0  0
  6 97  1  0  0  0
  7  8  2  0  0  0
  7 26  1  0  0  0
  7 29  1  0  0  0
  8  9  1  0  0  0
  8 22  1  0  0  0
  9 10  1  0  0  0
  9 27  2  0  0  0
 10 11  2  0  0  0
 10 15  1  0  0  0
 11 12  1  0  0  0
 11 98  1  0  0  0
 12 13  2  0  0  0
 12 99  1  0  0  0
 13 14  1  0  0  0
 13 31  1  0  0  0
 14 15  2  0  0  0
 14100  1  0  0  0
 15101  1  0  0  0
 16 17  2  0  0  0
 16 21  1  0  0  0
 16 31  1  0  0  0
 17 18  1  0  0  0
 17102  1  0  0  0
 18 19  2  0  0  0
 18103  1  0  0  0
 19 20  1  0  0  0
 19 24  1  0  0  0
 20 21  2  0  0  0
 20104  1  0  0  0
 21 23  1  0  0  0
 22 28  1  0  0  0
 22 32  2  0  0  0
 26 27  1  0  0  0
 28105  1  0  0  0
 28106  1  0  0  0
 29107  1  0  0  0
 29108  1  0  0  0
 33 34  1  0  0  0
 33 66  1  0  0  0
 33 70  2  0  0  0
 34 36  1  0  0  0
 34 59  1  0  0  0
 34109  1  0  0  0
 35 44  2  0  0  0
 35 45  1  0  0  0
 35 68  1  0  0  0
 36 56  1  0  0  0
 36110  1  0  0  0
 37 39  1  0  0  0
 37 47  1  0  0  0
 37 66  1  0  0  0
 37111  1  0  0  0
 38 43  2  0  0  0
 38 46  1  0  0  0
 38 47  1  0  0  0
 39 64  1  0  0  0
 39 67  2  0  0  0
 40 52  1  0  0  0
 40 53  2  0  0  0
 40 58  1  0  0  0
 41112  1  0  0  0
 41113  1  0  0  0
 41114  1  0  0  0
 41 48  1  0  0  0
 42 43  1  0  0  0
 42 66  1  0  0  0
 42115  1  0  0  0
 42116  1  0  0  0
 43 44  1  0  0  0
 44117  1  0  0  0
 45 46  2  0  0  0
 45118  1  0  0  0
 46119  1  0  0  0
 47120  1  0  0  0
 47121  1  0  0  0
 48 56  1  0  0  0
 48 65  1  0  0  0
 48122  1  0  0  0
 49 50  1  0  0  0
 49 53  1  0  0  0
 49 64  1  0  0  0
 49123  1  0  0  0
 50 51  1  0  0  0
 50124  1  0  0  0
 50125  1  0  0  0
 51 52  1  0  0  0
 51126  1  0  0  0
 51127  1  0  0  0
 52128  1  0  0  0
 52129  1  0  0  0
 53 54  1  0  0  0
 54 55  2  0  0  0
 54130  1  0  0  0
 55 57  1  0  0  0
 55131  1  0  0  0
 56 69  2  0  0  0
 57 58  2  0  0  0
 57132  1  0  0  0
 58133  1  0  0  0
 59 60  1  0  0  0
 59 61  1  0  0  0
 59 62  1  0  0  0
 60134  1  0  0  0
 60135  1  0  0  0
 60136  1  0  0  0
 61137  1  0  0  0
 61138  1  0  0  0
 61139  1  0  0  0
 62140  1  0  0  0
 62141  1  0  0  0
 62142  1  0  0  0
 63 65  1  0  0  0
 63143  1  0  0  0
 63144  1  0  0  0
 63145  1  0  0  0
 64146  1  0  0  0
 65147  1  0  0  0
 68 81  1  0  0  0
 71 74  2  0  0  0
 71 76  1  0  0  0
 71148  1  0  0  0
 72 75  1  0  0  0
 72 76  2  0  0  0
 72149  1  0  0  0
 73 74  1  0  0  0
 73 75  2  0  0  0
 73 78  1  0  0  0
 74 84  1  0  0  0
 75 85  1  0  0  0
 76 87  1  0  0  0
 77 80  1  0  0  0
 77 81  1  0  0  0
 77 86  2  0  0  0
 78150  1  0  0  0
 78151  1  0  0  0
 78152  1  0  0  0
 79153  1  0  0  0
 79154  1  0  0  0
 79155  1  0  0  0
 79 83  1  0  0  0
 80 84  1  0  0  0
 80156  1  0  0  0
 80157  1  0  0  0
 81158  1  0  0  0
 81159  1  0  0  0
 82 83  1  0  0  0
 82 85  1  0  0  0
 82160  1  0  0  0
 82161  1  0  0  0
 83 88  1  0  0  0
 83162  1  0  0  0
 84163  1  0  0  0
M  ISO  4   1 100  68 101  81 101  85 100
M  END
> <chiral flag>
0

> <version>
0

> <s_m_source_file>
/data/baiqing/PycharmProjects/Reinvent-master-3.2/result/LINK_invent/BTK/process_docking_weight1_custom_product_contain_oxygen_bond_distance_aromatic_linkinvent_7_9_3/rearranged_h_0171.sdf

> <i_m_source_file_index>
69

> <r_mmod_Potential_Energy-OPLS-2005>
442.187164306641

> <r_mmod_Stretch_Energy-OPLS-2005>
133.147674560547

> <r_mmod_Bend_Energy-OPLS-2005>
189.218826293945

> <r_mmod_Torsional_Energy-OPLS-2005>
343.523284912109

> <r_mmod_Improper_Torsional_Energy-OPLS-2005>
27.519552230835

> <r_mmod_Van_der_Waal_Energy-OPLS-2005>
141.011779785156

> <r_mmod_Electrostatic_Energy-OPLS-2005>
-279.929016113281

> <r_mmod_Solvation_Energy-OPLS-2005>
-218.720626831055

> <b_mmod_Minimization_Converged-OPLS-2005>
0

> <r_mmod_RMS_Derivative-OPLS-2005>
4.44451284408569

$$$$
69
                    3D
 Structure written by MMmdl.
158166  0  0  1  0            999 V2000
  -30.6485  -14.5392   20.5567 C   0  0  0  0  0  0
  -30.4351  -12.3402   19.4236 C   0  0  0  0  0  0
  -29.5002  -12.5163   18.2070 C   0  0  0  0  0  0
  -28.0201  -12.3651   18.6160 C   0  0  0  0  0  0
  -27.6564  -13.2067   19.8671 C   0  0  2  0  0  0
  -28.7001  -13.0038   20.9892 C   0  0  0  0  0  0
  -25.2568  -13.8143   20.5691 C   0  0  0  0  0  0
  -24.1818  -13.0420   20.9172 C   0  0  0  0  0  0
  -24.6372  -11.6890   20.8719 C   0  0  0  0  0  0
  -23.9047  -10.4276   21.0393 C   0  0  0  0  0  0
  -24.3607   -9.4201   21.9162 C   0  0  0  0  0  0
  -23.6291   -8.2231   22.0742 C   0  0  0  0  0  0
  -22.4266   -8.0272   21.3536 C   0  0  0  0  0  0
  -21.9894   -9.0240   20.4631 C   0  0  0  0  0  0
  -22.7219  -10.2118   20.3035 C   0  0  0  0  0  0
  -21.6854   -6.0724   22.5281 C   0  0  0  0  0  0
  -21.4018   -6.5627   23.8212 C   0  0  0  0  0  0
  -21.3664   -5.6780   24.9172 C   0  0  0  0  0  0
  -21.6044   -4.3038   24.7209 C   0  0  0  0  0  0
  -21.8823   -3.8132   23.4328 C   0  0  0  0  0  0
  -21.9195   -4.6954   22.3395 C   0  0  0  0  0  0
  -22.7845  -13.5241   21.1845 C   0  0  0  0  0  0
  -22.1666   -4.2144   21.0964 F   0  0  0  0  0  0
  -21.5633   -3.4525   25.7721 F   0  0  0  0  0  0
  -30.0229  -13.3315   20.4310 N   0  0  0  0  0  0
  -26.2990  -12.9309   20.3300 N   0  0  0  0  0  0
  -25.9299  -11.6471   20.5722 N   0  0  0  0  0  0
  -22.0492  -12.8224   22.0399 N   0  0  0  0  0  0
  -25.4267  -15.1867   20.4110 N   0  0  0  0  0  0
  -31.8082  -14.7256   20.1735 O   0  0  0  0  0  0
  -21.6633   -6.8865   21.4239 O   0  0  0  0  0  0
  -22.3544  -14.5548   20.6704 O   0  0  0  0  0  0
  -24.6198  -31.8648   23.2033 C   0  0  0  0  0  0
  -25.9057  -32.4803   23.8358 C   0  0  1  0  0  0
  -27.2394  -27.3858   20.0990 C   0  0  0  0  0  0
  -25.5904  -33.8601   24.2304 N   0  0  0  0  0  0
  -23.4108  -30.4871   21.5423 C   0  0  2  0  0  0
  -24.8571  -28.9423   20.1124 C   0  0  0  0  0  0
  -22.7426  -29.4671   22.4940 C   0  0  0  0  0  0
  -18.0285  -28.1375   22.8482 C   0  0  0  0  0  0
  -24.1486  -36.7303   23.2643 C   0  0  0  0  0  0
  -25.9425  -30.8163   21.3608 C   0  0  0  0  0  0
  -26.0177  -29.4441   20.7117 C   0  0  0  0  0  0
  -27.2052  -28.6704   20.7065 C   0  0  0  0  0  0
  -26.0502  -26.9063   19.5032 C   0  0  0  0  0  0
  -24.8693  -27.6743   19.5084 C   0  0  0  0  0  0
  -23.6226  -29.8148   20.1583 C   0  0  0  0  0  0
  -25.4101  -36.3103   24.0347 C   0  0  1  0  0  0
  -20.5881  -28.3685   23.1265 C   0  0  2  0  0  0
  -20.6763  -26.9405   22.5401 C   0  0  0  0  0  0
  -19.5744  -26.6376   21.5190 C   0  0  0  0  0  0
  -18.1929  -26.7923   22.1608 C   0  0  0  0  0  0
  -19.1536  -28.8836   23.2887 C   0  0  0  0  0  0
  -18.9474  -30.1430   23.8918 C   0  0  0  0  0  0
  -17.6479  -30.6586   24.0551 C   0  0  0  0  0  0
  -25.9038  -34.9467   23.5127 C   0  0  0  0  0  0
  -16.5367  -29.9099   23.6301 C   0  0  0  0  0  0
  -16.7275  -28.6501   23.0351 C   0  0  0  0  0  0
  -26.4469  -31.6590   25.0704 C   0  0  0  0  0  0
  -25.3729  -31.3696   26.1451 C   0  0  0  0  0  0
  -27.0320  -30.3044   24.6068 C   0  0  0  0  0  0
  -27.6058  -32.4301   25.7471 C   0  0  0  0  0  0
  -27.5576  -37.1808   24.8471 C   0  0  0  0  0  0
  -21.4148  -29.3062   22.3667 N   0  0  0  0  0  0
  -26.4285  -37.3788   23.9420 N   0  0  0  0  0  0
  -24.6763  -31.0735   22.0939 N   0  0  0  0  0  0
  -23.4180  -28.8227   23.3006 O   0  0  0  0  0  0
  -28.4218  -26.6527   20.1299 O   0  0  0  0  0  0
  -26.5605  -34.8928   22.4689 O   0  0  0  0  0  0
  -23.5371  -32.1428   23.7396 O   0  0  0  0  0  0
  -30.6347  -18.2067   23.3480 C   0  0  0  0  0  0
  -30.4803  -16.9477   22.7469 C   0  0  0  0  0  0
  -30.3970  -19.3825   22.6069 C   0  0  0  0  0  0
  -30.1130  -16.8647   21.3949 C   0  0  0  0  0  0
  -29.9890  -19.2476   21.2483 C   0  0  0  0  0  0
  -30.6893  -20.6567   23.3157 C   0  0  0  0  0  0
  -28.5517  -24.1393   20.3792 C   0  0  0  0  0  0
  -29.9495  -20.8786   24.6301 C   0  0  0  0  0  0
  -28.5663  -25.3775   19.4365 C   0  0  0  0  0  0
  -28.9137  -21.5315   20.7565 C   0  0  0  0  0  0
  -29.0993  -22.7835   19.8223 C   0  0  2  0  0  0
  -29.8624  -18.0083   20.6828 N   0  0  0  0  0  0
  -29.8182  -15.5560   20.9025 N   0  0  0  0  0  0
  -29.6960  -20.3236   20.3688 N   0  0  0  0  0  0
  -31.4625  -21.5200   22.8948 O   0  0  0  0  0  0
  -28.1272  -24.2304   21.5368 O   0  0  0  0  0  0
  -30.4040  -22.9238   19.5679 F   0  0  0  0  0  0
  -31.4776  -12.4592   19.1223 H   0  0  0  0  0  0
  -30.3508  -11.3307   19.8282 H   0  0  0  0  0  0
  -29.7484  -11.7907   17.4321 H   0  0  0  0  0  0
  -29.6572  -13.5040   17.7662 H   0  0  0  0  0  0
  -27.8363  -11.3100   18.8142 H   0  0  0  0  0  0
  -27.3694  -12.6323   17.7810 H   0  0  0  0  0  0
  -27.6874  -14.2513   19.5572 H   0  0  0  0  0  0
  -28.6872  -11.9703   21.3371 H   0  0  0  0  0  0
  -28.4586  -13.6105   21.8641 H   0  0  0  0  0  0
  -25.2758   -9.5683   22.4724 H   0  0  0  0  0  0
  -24.0011   -7.4619   22.7454 H   0  0  0  0  0  0
  -21.0832   -8.8752   19.8934 H   0  0  0  0  0  0
  -22.3688  -10.9650   19.6134 H   0  0  0  0  0  0
  -21.2022   -7.6138   23.9720 H   0  0  0  0  0  0
  -21.1482   -6.0498   25.9079 H   0  0  0  0  0  0
  -22.0600   -2.7599   23.2816 H   0  0  0  0  0  0
  -22.4136  -11.9897   22.4798 H   0  0  0  0  0  0
  -21.1105  -13.1228   22.2602 H   0  0  0  0  0  0
  -24.6518  -15.8326   20.5148 H   0  0  0  0  0  0
  -26.2637  -15.6295   20.0561 H   0  0  0  0  0  0
  -26.7147  -32.5514   23.1142 H   0  0  0  0  0  0
  -25.0036  -33.9749   25.0444 H   0  0  0  0  0  0
  -22.7024  -31.3066   21.3954 H   0  0  0  0  0  0
  -23.3749  -35.9637   23.3315 H   0  0  0  0  0  0
  -24.3584  -36.8903   22.2060 H   0  0  0  0  0  0
  -23.7240  -37.6508   23.6646 H   0  0  0  0  0  0
  -26.0545  -31.5754   20.5867 H   0  0  0  0  0  0
  -26.8306  -30.8775   21.9772 H   0  0  0  0  0  0
  -28.0998  -29.0480   21.1826 H   0  0  0  0  0  0
  -25.9969  -25.9310   19.0478 H   0  0  0  0  0  0
  -23.9743  -27.2759   19.0520 H   0  0  0  0  0  0
  -23.7383  -30.5880   19.3970 H   0  0  0  0  0  0
  -22.7452  -29.2384   19.8586 H   0  0  0  0  0  0
  -25.1277  -36.1962   25.0836 H   0  0  0  0  0  0
  -20.9984  -28.3274   24.1378 H   0  0  0  0  0  0
  -20.5592  -26.2318   23.3616 H   0  0  0  0  0  0
  -21.6637  -26.7401   22.1238 H   0  0  0  0  0  0
  -19.6896  -25.6281   21.1225 H   0  0  0  0  0  0
  -19.6676  -27.3169   20.6699 H   0  0  0  0  0  0
  -17.4187  -26.6660   21.4024 H   0  0  0  0  0  0
  -18.0351  -26.0064   22.9006 H   0  0  0  0  0  0
  -19.7965  -30.7211   24.2323 H   0  0  0  0  0  0
  -17.5059  -31.6268   24.5154 H   0  0  0  0  0  0
  -15.5376  -30.3018   23.7600 H   0  0  0  0  0  0
  -15.8682  -28.0810   22.7078 H   0  0  0  0  0  0
  -24.5912  -30.7028   25.7790 H   0  0  0  0  0  0
  -24.8904  -32.2846   26.4895 H   0  0  0  0  0  0
  -25.8082  -30.8876   27.0217 H   0  0  0  0  0  0
  -26.2867  -29.6792   24.1127 H   0  0  0  0  0  0
  -27.4133  -29.7281   25.4514 H   0  0  0  0  0  0
  -27.8680  -30.4401   23.9199 H   0  0  0  0  0  0
  -27.2692  -33.3604   26.2058 H   0  0  0  0  0  0
  -28.3860  -32.6838   25.0284 H   0  0  0  0  0  0
  -28.0725  -31.8400   26.5376 H   0  0  0  0  0  0
  -28.2601  -38.0098   24.7504 H   0  0  0  0  0  0
  -28.1058  -36.2627   24.6300 H   0  0  0  0  0  0
  -27.2300  -37.1473   25.8877 H   0  0  0  0  0  0
  -20.9306  -29.8844   21.6944 H   0  0  0  0  0  0
  -26.0174  -38.2867   24.1401 H   0  0  0  0  0  0
  -30.9407  -18.2563   24.3818 H   0  0  0  0  0  0
  -30.6295  -16.0586   23.3417 H   0  0  0  0  0  0
  -29.0194  -20.3099   24.6531 H   0  0  0  0  0  0
  -29.7001  -21.9335   24.7501 H   0  0  0  0  0  0
  -30.5640  -20.5690   25.4761 H   0  0  0  0  0  0
  -27.8436  -25.2444   18.6353 H   0  0  0  0  0  0
  -29.5424  -25.3944   18.9475 H   0  0  0  0  0  0
  -27.8567  -21.2606   20.7693 H   0  0  0  0  0  0
  -29.1308  -21.8471   21.7692 H   0  0  0  0  0  0
  -28.6368  -22.6031   18.8521 H   0  0  0  0  0  0
  -28.8615  -15.2697   21.0208 H   0  0  0  0  0  0
  -29.5425  -20.0293   19.4110 H   0  0  0  0  0  0
  1 25  1  0  0  0
  1 30  2  0  0  0
  1 83  1  0  0  0
  2  3  1  0  0  0
  2 25  1  0  0  0
  2 88  1  0  0  0
  2 89  1  0  0  0
  3  4  1  0  0  0
  3 90  1  0  0  0
  3 91  1  0  0  0
  4  5  1  0  0  0
  4 92  1  0  0  0
  4 93  1  0  0  0
  5  6  1  0  0  0
  5 26  1  0  0  0
  5 94  1  0  0  0
  6 25  1  0  0  0
  6 95  1  0  0  0
  6 96  1  0  0  0
  7  8  2  0  0  0
  7 26  1  0  0  0
  7 29  1  0  0  0
  8  9  1  0  0  0
  8 22  1  0  0  0
  9 10  1  0  0  0
  9 27  2  0  0  0
 10 11  2  0  0  0
 10 15  1  0  0  0
 11 12  1  0  0  0
 11 97  1  0  0  0
 12 13  2  0  0  0
 12 98  1  0  0  0
 13 14  1  0  0  0
 13 31  1  0  0  0
 14 15  2  0  0  0
 14 99  1  0  0  0
 15100  1  0  0  0
 16 17  2  0  0  0
 16 21  1  0  0  0
 16 31  1  0  0  0
 17 18  1  0  0  0
 17101  1  0  0  0
 18 19  2  0  0  0
 18102  1  0  0  0
 19 20  1  0  0  0
 19 24  1  0  0  0
 20 21  2  0  0  0
 20103  1  0  0  0
 21 23  1  0  0  0
 22 28  1  0  0  0
 22 32  2  0  0  0
 26 27  1  0  0  0
 28104  1  0  0  0
 28105  1  0  0  0
 29106  1  0  0  0
 29107  1  0  0  0
 33 34  1  0  0  0
 33 66  1  0  0  0
 33 70  2  0  0  0
 34 36  1  0  0  0
 34 59  1  0  0  0
 34108  1  0  0  0
 35 44  2  0  0  0
 35 45  1  0  0  0
 35 68  1  0  0  0
 36 56  1  0  0  0
 36109  1  0  0  0
 37 39  1  0  0  0
 37 47  1  0  0  0
 37 66  1  0  0  0
 37110  1  0  0  0
 38 43  2  0  0  0
 38 46  1  0  0  0
 38 47  1  0  0  0
 39 64  1  0  0  0
 39 67  2  0  0  0
 40 52  1  0  0  0
 40 53  2  0  0  0
 40 58  1  0  0  0
 41111  1  0  0  0
 41112  1  0  0  0
 41113  1  0  0  0
 41 48  1  0  0  0
 42 43  1  0  0  0
 42 66  1  0  0  0
 42114  1  0  0  0
 42115  1  0  0  0
 43 44  1  0  0  0
 44116  1  0  0  0
 45 46  2  0  0  0
 45117  1  0  0  0
 46118  1  0  0  0
 47119  1  0  0  0
 47120  1  0  0  0
 48 56  1  0  0  0
 48 65  1  0  0  0
 48121  1  0  0  0
 49 50  1  0  0  0
 49 53  1  0  0  0
 49 64  1  0  0  0
 49122  1  0  0  0
 50 51  1  0  0  0
 50123  1  0  0  0
 50124  1  0  0  0
 51 52  1  0  0  0
 51125  1  0  0  0
 51126  1  0  0  0
 52127  1  0  0  0
 52128  1  0  0  0
 53 54  1  0  0  0
 54 55  2  0  0  0
 54129  1  0  0  0
 55 57  1  0  0  0
 55130  1  0  0  0
 56 69  2  0  0  0
 57 58  2  0  0  0
 57131  1  0  0  0
 58132  1  0  0  0
 59 60  1  0  0  0
 59 61  1  0  0  0
 59 62  1  0  0  0
 60133  1  0  0  0
 60134  1  0  0  0
 60135  1  0  0  0
 61136  1  0  0  0
 61137  1  0  0  0
 61138  1  0  0  0
 62139  1  0  0  0
 62140  1  0  0  0
 62141  1  0  0  0
 63 65  1  0  0  0
 63142  1  0  0  0
 63143  1  0  0  0
 63144  1  0  0  0
 64145  1  0  0  0
 65146  1  0  0  0
 68 79  1  0  0  0
 71 72  2  0  0  0
 71 73  1  0  0  0
 71147  1  0  0  0
 72 74  1  0  0  0
 72148  1  0  0  0
 73 75  2  0  0  0
 73 76  1  0  0  0
 74 82  2  0  0  0
 74 83  1  0  0  0
 75 82  1  0  0  0
 75 84  1  0  0  0
 76 78  1  0  0  0
 76 85  2  0  0  0
 77 79  1  0  0  0
 77 81  1  0  0  0
 77 86  2  0  0  0
 78149  1  0  0  0
 78150  1  0  0  0
 78151  1  0  0  0
 79152  1  0  0  0
 79153  1  0  0  0
 80 81  1  0  0  0
 80 84  1  0  0  0
 80154  1  0  0  0
 80155  1  0  0  0
 81 87  1  0  0  0
 81156  1  0  0  0
 83157  1  0  0  0
 84158  1  0  0  0
M  ISO  4   1 100  68 101  79 101  83 100
M  END
> <chiral flag>
0

> <version>
0

> <s_m_source_file>
/data/baiqing/PycharmProjects/Reinvent-master-3.2/result/LINK_invent/BTK/process_docking_weight1_custom_product_contain_oxygen_bond_distance_aromatic_linkinvent_7_9_3/rearranged_h_0171.sdf

> <i_m_source_file_index>
70

> <r_mmod_Potential_Energy-OPLS-2005>
-78.1517715454102

> <r_mmod_Stretch_Energy-OPLS-2005>
54.4326515197754

> <r_mmod_Bend_Energy-OPLS-2005>
134.390274047852

> <r_mmod_Torsional_Energy-OPLS-2005>
280.283630371094

> <r_mmod_Improper_Torsional_Energy-OPLS-2005>
10.04345703125

> <r_mmod_Van_der_Waal_Energy-OPLS-2005>
151.781768798828

> <r_mmod_Electrostatic_Energy-OPLS-2005>
-457.02734375

> <r_mmod_Solvation_Energy-OPLS-2005>
-274.461730957031

> <b_mmod_Minimization_Converged-OPLS-2005>
0

> <r_mmod_RMS_Derivative-OPLS-2005>
3.68026494979858

$$$$
70
                    3D
 Structure written by MMmdl.
150158  0  0  1  0            999 V2000
  -30.5191  -15.0492   20.3930 C   0  0  0  0  0  0
  -30.4350  -12.6533   19.5175 C   0  0  0  0  0  0
  -29.5263  -12.5462   18.2704 C   0  0  0  0  0  0
  -28.0632  -12.3137   18.6887 C   0  0  0  0  0  0
  -27.6224  -13.2610   19.8346 C   0  0  2  0  0  0
  -28.6608  -13.3427   20.9738 C   0  0  0  0  0  0
  -25.2420  -13.8235   20.5724 C   0  0  0  0  0  0
  -24.1755  -13.0438   20.9240 C   0  0  0  0  0  0
  -24.6391  -11.6929   20.8756 C   0  0  0  0  0  0
  -23.9083  -10.4294   21.0403 C   0  0  0  0  0  0
  -24.3632   -9.4205   21.9181 C   0  0  0  0  0  0
  -23.6303   -8.2243   22.0752 C   0  0  0  0  0  0
  -22.4285   -8.0283   21.3543 C   0  0  0  0  0  0
  -21.9922   -9.0257   20.4644 C   0  0  0  0  0  0
  -22.7255  -10.2133   20.3053 C   0  0  0  0  0  0
  -21.6856   -6.0737   22.5278 C   0  0  0  0  0  0
  -21.4018   -6.5640   23.8212 C   0  0  0  0  0  0
  -21.3665   -5.6792   24.9173 C   0  0  0  0  0  0
  -21.6048   -4.3056   24.7222 C   0  0  0  0  0  0
  -21.8815   -3.8145   23.4342 C   0  0  0  0  0  0
  -21.9187   -4.6963   22.3398 C   0  0  0  0  0  0
  -22.7770  -13.5197   21.1892 C   0  0  0  0  0  0
  -22.1657   -4.2148   21.0976 F   0  0  0  0  0  0
  -21.5630   -3.4540   25.7735 F   0  0  0  0  0  0
  -29.9263  -13.7766   20.3681 N   0  0  0  0  0  0
  -26.2851  -12.9490   20.3237 N   0  0  0  0  0  0
  -25.9328  -11.6606   20.5735 N   0  0  0  0  0  0
  -22.0428  -12.8183   22.0454 N   0  0  0  0  0  0
  -25.4056  -15.1971   20.4156 N   0  0  0  0  0  0
  -31.7290  -15.0619   20.1378 O   0  0  0  0  0  0
  -21.6648   -6.8882   21.4242 O   0  0  0  0  0  0
  -22.3444  -14.5499   20.6736 O   0  0  0  0  0  0
  -24.6492  -31.8374   23.1834 C   0  0  0  0  0  0
  -25.9235  -32.4658   23.8243 C   0  0  1  0  0  0
  -27.2149  -27.0653   20.1660 C   0  0  0  0  0  0
  -25.5958  -33.8468   24.2151 N   0  0  0  0  0  0
  -23.4570  -30.4546   21.5293 C   0  0  2  0  0  0
  -24.9079  -28.8679   20.1113 C   0  0  0  0  0  0
  -22.7598  -29.4509   22.4828 C   0  0  0  0  0  0
  -18.0310  -28.1405   22.8470 C   0  0  0  0  0  0
  -24.1495  -36.7247   23.2643 C   0  0  0  0  0  0
  -26.0171  -30.6861   21.3958 C   0  0  0  0  0  0
  -26.0849  -29.2888   20.7428 C   0  0  0  0  0  0
  -27.2356  -28.4028   20.7564 C   0  0  0  0  0  0
  -26.0180  -26.7715   19.4764 C   0  0  0  0  0  0
  -24.8907  -27.6246   19.4615 C   0  0  0  0  0  0
  -23.6888  -29.7801   20.1504 C   0  0  0  0  0  0
  -25.4129  -36.3011   24.0307 C   0  0  1  0  0  0
  -20.5926  -28.3736   23.1219 C   0  0  2  0  0  0
  -20.6792  -26.9432   22.5404 C   0  0  0  0  0  0
  -19.5766  -26.6382   21.5213 C   0  0  0  0  0  0
  -18.1948  -26.7939   22.1624 C   0  0  0  0  0  0
  -19.1568  -28.8890   23.2835 C   0  0  0  0  0  0
  -18.9482  -30.1482   23.8867 C   0  0  0  0  0  0
  -17.6476  -30.6596   24.0561 C   0  0  0  0  0  0
  -25.9080  -34.9387   23.5040 C   0  0  0  0  0  0
  -16.5368  -29.9089   23.6338 C   0  0  0  0  0  0
  -16.7294  -28.6511   23.0351 C   0  0  0  0  0  0
  -26.4531  -31.6555   25.0717 C   0  0  0  0  0  0
  -25.3692  -31.3770   26.1397 C   0  0  0  0  0  0
  -27.0405  -30.2937   24.6358 C   0  0  0  0  0  0
  -27.6046  -32.4337   25.7510 C   0  0  0  0  0  0
  -27.5574  -37.1782   24.8462 C   0  0  0  0  0  0
  -21.4283  -29.3047   22.3581 N   0  0  0  0  0  0
  -26.4285  -37.3732   23.9403 N   0  0  0  0  0  0
  -24.7279  -31.0167   22.0904 N   0  0  0  0  0  0
  -23.4211  -28.8060   23.3007 O   0  0  0  0  0  0
  -28.2529  -26.0404   20.2160 O   0  0  0  0  0  0
  -26.5678  -34.8896   22.4627 O   0  0  0  0  0  0
  -23.5594  -32.1278   23.7014 O   0  0  0  0  0  0
  -29.1982  -19.0318   20.4821 C   0  0  0  0  0  0
  -31.2613  -18.1175   19.6275 C   0  0  0  0  0  0
  -29.5151  -20.4723   20.1262 C   0  0  0  0  0  0
  -30.0377  -17.7956   20.2471 C   0  0  0  0  0  0
  -30.7737  -20.5593   19.4549 C   0  0  0  0  0  0
  -31.6053  -19.4298   19.2453 C   0  0  0  0  0  0
  -28.0111  -24.5667   20.2389 C   0  0  0  0  0  0
  -28.5647  -21.8245   20.3568 C   0  0  0  0  0  0
  -28.9021  -23.4427   20.3152 C   0  0  0  0  0  0
  -31.2683  -21.7366   18.8947 N   0  0  0  0  0  0
  -29.7593  -16.2769   20.5289 N   0  0  0  0  0  0
  -27.3864  -21.5595   20.6113 O   0  0  0  0  0  0
  -30.1974  -23.7662   20.4144 O   0  0  0  0  0  0
  -32.7945  -19.6151   18.6172 F   0  0  0  0  0  0
  -31.4681  -12.8108   19.2055 H   0  0  0  0  0  0
  -30.4368  -11.7165   20.0774 H   0  0  0  0  0  0
  -29.8657  -11.7396   17.6192 H   0  0  0  0  0  0
  -29.5989  -13.4645   17.6857 H   0  0  0  0  0  0
  -27.9771  -11.2775   19.0176 H   0  0  0  0  0  0
  -27.3993  -12.4173   17.8294 H   0  0  0  0  0  0
  -27.5691  -14.2521   19.3828 H   0  0  0  0  0  0
  -28.7696  -12.3842   21.4832 H   0  0  0  0  0  0
  -28.3411  -14.0604   21.7308 H   0  0  0  0  0  0
  -25.2771   -9.5690   22.4757 H   0  0  0  0  0  0
  -24.0012   -7.4637   22.7475 H   0  0  0  0  0  0
  -21.0849   -8.8777   19.8952 H   0  0  0  0  0  0
  -22.3707  -10.9674   19.6166 H   0  0  0  0  0  0
  -21.2022   -7.6149   23.9717 H   0  0  0  0  0  0
  -21.1494   -6.0523   25.9078 H   0  0  0  0  0  0
  -22.0590   -2.7607   23.2839 H   0  0  0  0  0  0
  -22.4066  -11.9858   22.4858 H   0  0  0  0  0  0
  -21.1042  -13.1193   22.2662 H   0  0  0  0  0  0
  -24.6314  -15.8436   20.5251 H   0  0  0  0  0  0
  -26.2427  -15.6410   20.0611 H   0  0  0  0  0  0
  -26.7298  -32.5239   23.0963 H   0  0  0  0  0  0
  -25.0063  -33.9570   25.0270 H   0  0  0  0  0  0
  -22.7630  -31.2827   21.3699 H   0  0  0  0  0  0
  -23.3756  -35.9577   23.3286 H   0  0  0  0  0  0
  -24.3577  -36.8906   22.2061 H   0  0  0  0  0  0
  -23.7253  -37.6436   23.6701 H   0  0  0  0  0  0
  -26.1812  -31.4332   20.6181 H   0  0  0  0  0  0
  -26.8848  -30.7401   22.0413 H   0  0  0  0  0  0
  -28.1300  -28.7196   21.2737 H   0  0  0  0  0  0
  -25.9256  -25.8299   18.9561 H   0  0  0  0  0  0
  -23.9971  -27.3028   18.9445 H   0  0  0  0  0  0
  -23.8343  -30.5531   19.3951 H   0  0  0  0  0  0
  -22.8016  -29.2277   19.8361 H   0  0  0  0  0  0
  -25.1322  -36.1826   25.0798 H   0  0  0  0  0  0
  -21.0015  -28.3334   24.1341 H   0  0  0  0  0  0
  -20.5683  -26.2352   23.3631 H   0  0  0  0  0  0
  -21.6658  -26.7428   22.1206 H   0  0  0  0  0  0
  -19.6928  -25.6284   21.1268 H   0  0  0  0  0  0
  -19.6706  -27.3171   20.6727 H   0  0  0  0  0  0
  -17.4215  -26.6674   21.4030 H   0  0  0  0  0  0
  -18.0352  -26.0096   22.9036 H   0  0  0  0  0  0
  -19.7958  -30.7307   24.2221 H   0  0  0  0  0  0
  -17.5030  -31.6270   24.5176 H   0  0  0  0  0  0
  -15.5367  -30.2980   23.7683 H   0  0  0  0  0  0
  -15.8695  -28.0826   22.7073 H   0  0  0  0  0  0
  -24.5877  -30.7114   25.7713 H   0  0  0  0  0  0
  -24.8876  -32.2962   26.4742 H   0  0  0  0  0  0
  -25.7952  -30.8991   27.0228 H   0  0  0  0  0  0
  -26.3038  -29.6643   24.1353 H   0  0  0  0  0  0
  -27.3966  -29.7262   25.4967 H   0  0  0  0  0  0
  -27.8971  -30.4145   23.9723 H   0  0  0  0  0  0
  -27.2624  -33.3660   26.2016 H   0  0  0  0  0  0
  -28.3897  -32.6865   25.0370 H   0  0  0  0  0  0
  -28.0671  -31.8512   26.5488 H   0  0  0  0  0  0
  -28.2578  -38.0089   24.7506 H   0  0  0  0  0  0
  -28.1081  -36.2617   24.6291 H   0  0  0  0  0  0
  -27.2289  -37.1433   25.8864 H   0  0  0  0  0  0
  -20.9506  -29.8752   21.6744 H   0  0  0  0  0  0
  -26.0142  -38.2794   24.1407 H   0  0  0  0  0  0
  -28.2389  -18.8747   20.9543 H   0  0  0  0  0  0
  -31.9761  -17.3480   19.3879 H   0  0  0  0  0  0
  -26.9520  -24.3595   20.1964 H   0  0  0  0  0  0
  -31.0377  -22.6037   19.3795 H   0  0  0  0  0  0
  -32.2474  -21.6960   18.6279 H   0  0  0  0  0  0
  -28.8067  -16.0908   20.8051 H   0  0  0  0  0  0
  -30.2399  -24.7145   20.4147 H   0  0  0  0  0  0
  1 25  1  0  0  0
  1 30  2  0  0  0
  1 81  1  0  0  0
  2  3  1  0  0  0
  2 25  1  0  0  0
  2 85  1  0  0  0
  2 86  1  0  0  0
  3  4  1  0  0  0
  3 87  1  0  0  0
  3 88  1  0  0  0
  4  5  1  0  0  0
  4 89  1  0  0  0
  4 90  1  0  0  0
  5  6  1  0  0  0
  5 26  1  0  0  0
  5 91  1  0  0  0
  6 25  1  0  0  0
  6 92  1  0  0  0
  6 93  1  0  0  0
  7  8  2  0  0  0
  7 26  1  0  0  0
  7 29  1  0  0  0
  8  9  1  0  0  0
  8 22  1  0  0  0
  9 10  1  0  0  0
  9 27  2  0  0  0
 10 11  2  0  0  0
 10 15  1  0  0  0
 11 12  1  0  0  0
 11 94  1  0  0  0
 12 13  2  0  0  0
 12 95  1  0  0  0
 13 14  1  0  0  0
 13 31  1  0  0  0
 14 15  2  0  0  0
 14 96  1  0  0  0
 15 97  1  0  0  0
 16 17  2  0  0  0
 16 21  1  0  0  0
 16 31  1  0  0  0
 17 18  1  0  0  0
 17 98  1  0  0  0
 18 19  2  0  0  0
 18 99  1  0  0  0
 19 20  1  0  0  0
 19 24  1  0  0  0
 20 21  2  0  0  0
 20100  1  0  0  0
 21 23  1  0  0  0
 22 28  1  0  0  0
 22 32  2  0  0  0
 26 27  1  0  0  0
 28101  1  0  0  0
 28102  1  0  0  0
 29103  1  0  0  0
 29104  1  0  0  0
 33 34  1  0  0  0
 33 66  1  0  0  0
 33 70  2  0  0  0
 34 36  1  0  0  0
 34 59  1  0  0  0
 34105  1  0  0  0
 35 44  2  0  0  0
 35 45  1  0  0  0
 35 68  1  0  0  0
 36 56  1  0  0  0
 36106  1  0  0  0
 37 39  1  0  0  0
 37 47  1  0  0  0
 37 66  1  0  0  0
 37107  1  0  0  0
 38 43  2  0  0  0
 38 46  1  0  0  0
 38 47  1  0  0  0
 39 64  1  0  0  0
 39 67  2  0  0  0
 40 52  1  0  0  0
 40 53  2  0  0  0
 40 58  1  0  0  0
 41108  1  0  0  0
 41109  1  0  0  0
 41110  1  0  0  0
 41 48  1  0  0  0
 42 43  1  0  0  0
 42 66  1  0  0  0
 42111  1  0  0  0
 42112  1  0  0  0
 43 44  1  0  0  0
 44113  1  0  0  0
 45 46  2  0  0  0
 45114  1  0  0  0
 46115  1  0  0  0
 47116  1  0  0  0
 47117  1  0  0  0
 48 56  1  0  0  0
 48 65  1  0  0  0
 48118  1  0  0  0
 49 50  1  0  0  0
 49 53  1  0  0  0
 49 64  1  0  0  0
 49119  1  0  0  0
 50 51  1  0  0  0
 50120  1  0  0  0
 50121  1  0  0  0
 51 52  1  0  0  0
 51122  1  0  0  0
 51123  1  0  0  0
 52124  1  0  0  0
 52125  1  0  0  0
 53 54  1  0  0  0
 54 55  2  0  0  0
 54126  1  0  0  0
 55 57  1  0  0  0
 55127  1  0  0  0
 56 69  2  0  0  0
 57 58  2  0  0  0
 57128  1  0  0  0
 58129  1  0  0  0
 59 60  1  0  0  0
 59 61  1  0  0  0
 59 62  1  0  0  0
 60130  1  0  0  0
 60131  1  0  0  0
 60132  1  0  0  0
 61133  1  0  0  0
 61134  1  0  0  0
 61135  1  0  0  0
 62136  1  0  0  0
 62137  1  0  0  0
 62138  1  0  0  0
 63 65  1  0  0  0
 63139  1  0  0  0
 63140  1  0  0  0
 63141  1  0  0  0
 64142  1  0  0  0
 65143  1  0  0  0
 68 77  1  0  0  0
 71 73  2  0  0  0
 71 74  1  0  0  0
 71144  1  0  0  0
 72 74  2  0  0  0
 72 76  1  0  0  0
 72145  1  0  0  0
 73 75  1  0  0  0
 73 78  1  0  0  0
 74 81  1  0  0  0
 75 76  2  0  0  0
 75 80  1  0  0  0
 76 84  1  0  0  0
 77 79  2  0  0  0
 77146  1  0  0  0
 78 79  1  0  0  0
 78 82  2  0  0  0
 79 83  1  0  0  0
 80147  1  0  0  0
 80148  1  0  0  0
 81149  1  0  0  0
 83150  1  0  0  0
M  ISO  4   1 100  68 101  77 101  81 100
M  END
> <chiral flag>
0

> <version>
0

> <s_m_source_file>
/data/baiqing/PycharmProjects/Reinvent-master-3.2/result/LINK_invent/BTK/process_docking_weight1_custom_product_contain_oxygen_bond_distance_aromatic_linkinvent_7_9_3/rearranged_h_0171.sdf

> <i_m_source_file_index>
71

> <r_mmod_Potential_Energy-OPLS-2005>
704.277709960938

> <r_mmod_Stretch_Energy-OPLS-2005>
353.094787597656

> <r_mmod_Bend_Energy-OPLS-2005>
270.423797607422

> <r_mmod_Torsional_Energy-OPLS-2005>
207.72102355957

> <r_mmod_Improper_Torsional_Energy-OPLS-2005>
8.39868545532227

> <r_mmod_Van_der_Waal_Energy-OPLS-2005>
145.903961181641

> <r_mmod_Electrostatic_Energy-OPLS-2005>
-328.076995849609

> <r_mmod_Solvation_Energy-OPLS-2005>
-216.856811523438

> <b_mmod_Minimization_Converged-OPLS-2005>
0

> <r_mmod_RMS_Derivative-OPLS-2005>
0.72976690530777

$$$$
71
                    3D
 Structure written by MMmdl.
153161  0  0  1  0            999 V2000
  -30.6905  -14.4608   20.6002 C   0  0  0  0  0  0
  -30.4269  -12.3055   19.4147 C   0  0  0  0  0  0
  -29.4932  -12.5091   18.2033 C   0  0  0  0  0  0
  -28.0146  -12.3673   18.6174 C   0  0  0  0  0  0
  -27.6645  -13.2017   19.8784 C   0  0  2  0  0  0
  -28.7077  -12.9687   20.9950 C   0  0  0  0  0  0
  -25.2611  -13.8154   20.5689 C   0  0  0  0  0  0
  -24.1849  -13.0434   20.9168 C   0  0  0  0  0  0
  -24.6396  -11.6901   20.8735 C   0  0  0  0  0  0
  -23.9060  -10.4288   21.0404 C   0  0  0  0  0  0
  -24.3608   -9.4205   21.9186 C   0  0  0  0  0  0
  -23.6282   -8.2241   22.0758 C   0  0  0  0  0  0
  -22.4269   -8.0279   21.3545 C   0  0  0  0  0  0
  -21.9906   -9.0251   20.4645 C   0  0  0  0  0  0
  -22.7234  -10.2131   20.3051 C   0  0  0  0  0  0
  -21.6850   -6.0734   22.5277 C   0  0  0  0  0  0
  -21.4011   -6.5638   23.8212 C   0  0  0  0  0  0
  -21.3658   -5.6791   24.9173 C   0  0  0  0  0  0
  -21.6043   -4.3053   24.7224 C   0  0  0  0  0  0
  -21.8821   -3.8145   23.4346 C   0  0  0  0  0  0
  -21.9192   -4.6961   22.3400 C   0  0  0  0  0  0
  -22.7872  -13.5238   21.1832 C   0  0  0  0  0  0
  -22.1663   -4.2148   21.0976 F   0  0  0  0  0  0
  -21.5627   -3.4537   25.7736 F   0  0  0  0  0  0
  -30.0358  -13.2780   20.4459 N   0  0  0  0  0  0
  -26.3045  -12.9310   20.3392 N   0  0  0  0  0  0
  -25.9323  -11.6476   20.5773 N   0  0  0  0  0  0
  -22.0512  -12.8230   22.0389 N   0  0  0  0  0  0
  -25.4350  -15.1869   20.4104 N   0  0  0  0  0  0
  -31.8015  -14.6596   20.0977 O   0  0  0  0  0  0
  -21.6634   -6.8877   21.4239 O   0  0  0  0  0  0
  -22.3559  -14.5546   20.6684 O   0  0  0  0  0  0
  -24.6130  -31.8679   23.2090 C   0  0  0  0  0  0
  -25.9025  -32.4821   23.8392 C   0  0  1  0  0  0
  -27.2372  -27.4427   20.1019 C   0  0  0  0  0  0
  -25.5881  -33.8620   24.2323 N   0  0  0  0  0  0
  -23.4017  -30.4897   21.5494 C   0  0  2  0  0  0
  -24.8498  -28.9528   20.1170 C   0  0  0  0  0  0
  -22.7404  -29.4654   22.4993 C   0  0  0  0  0  0
  -18.0267  -28.1379   22.8496 C   0  0  0  0  0  0
  -24.1483  -36.7313   23.2644 C   0  0  0  0  0  0
  -25.9282  -30.8375   21.3586 C   0  0  0  0  0  0
  -26.0087  -29.4711   20.7089 C   0  0  0  0  0  0
  -27.2087  -28.7251   20.6937 C   0  0  0  0  0  0
  -26.0640  -26.9320   19.5086 C   0  0  0  0  0  0
  -24.8715  -27.6822   19.5136 C   0  0  0  0  0  0
  -23.6101  -29.8182   20.1654 C   0  0  0  0  0  0
  -25.4108  -36.3111   24.0340 C   0  0  1  0  0  0
  -20.5856  -28.3663   23.1320 C   0  0  2  0  0  0
  -20.6755  -26.9402   22.5421 C   0  0  0  0  0  0
  -19.5735  -26.6388   21.5215 C   0  0  0  0  0  0
  -18.1911  -26.7929   22.1623 C   0  0  0  0  0  0
  -19.1517  -28.8838   23.2903 C   0  0  0  0  0  0
  -18.9449  -30.1444   23.8915 C   0  0  0  0  0  0
  -17.6454  -30.6587   24.0572 C   0  0  0  0  0  0
  -25.9034  -34.9476   23.5132 C   0  0  0  0  0  0
  -16.5345  -29.9092   23.6331 C   0  0  0  0  0  0
  -16.7259  -28.6507   23.0352 C   0  0  0  0  0  0
  -26.4466  -31.6597   25.0715 C   0  0  0  0  0  0
  -25.3737  -31.3665   26.1458 C   0  0  0  0  0  0
  -27.0314  -30.3054   24.6067 C   0  0  0  0  0  0
  -27.6026  -32.4330   25.7483 C   0  0  0  0  0  0
  -27.5580  -37.1811   24.8472 C   0  0  0  0  0  0
  -21.4132  -29.3030   22.3730 N   0  0  0  0  0  0
  -26.4295  -37.3795   23.9412 N   0  0  0  0  0  0
  -24.6661  -31.0788   22.0983 N   0  0  0  0  0  0
  -23.4179  -28.8199   23.3036 O   0  0  0  0  0  0
  -28.3975  -26.7053   20.0878 O   0  0  0  0  0  0
  -26.5605  -34.8930   22.4699 O   0  0  0  0  0  0
  -23.5326  -32.1425   23.7490 O   0  0  0  0  0  0
  -28.2667  -19.2844   23.0984 C   0  0  0  0  0  0
  -29.0031  -18.1798   22.6334 C   0  0  0  0  0  0
  -28.2056  -20.4716   22.3444 C   0  0  0  0  0  0
  -29.6791  -18.2452   21.3958 C   0  0  0  0  0  0
  -28.8988  -20.5851   21.1112 C   0  0  0  0  0  0
  -29.6241  -19.4525   20.6488 C   0  0  0  0  0  0
  -28.6840  -22.9224   20.7903 C   0  0  0  0  0  0
  -28.5887  -24.2319   20.0223 C   0  0  0  0  0  0
  -30.4822  -17.0445   20.8702 C   0  0  0  0  0  0
  -28.3478  -25.4968   20.8697 C   0  0  0  0  0  0
  -29.9942  -15.6384   21.3267 C   0  0  0  0  0  0
  -28.8628  -21.7468   20.3040 N   0  0  0  0  0  0
  -28.6890  -24.2979   18.7889 O   0  0  0  0  0  0
  -30.2841  -19.5290   19.4666 F   0  0  0  0  0  0
  -31.4698  -12.4113   19.1115 H   0  0  0  0  0  0
  -30.3329  -11.2906   19.8050 H   0  0  0  0  0  0
  -29.7311  -11.7894   17.4189 H   0  0  0  0  0  0
  -29.6598  -13.4976   17.7726 H   0  0  0  0  0  0
  -27.8235  -11.3108   18.8090 H   0  0  0  0  0  0
  -27.3628  -12.6476   17.7892 H   0  0  0  0  0  0
  -27.7122  -14.2503   19.5854 H   0  0  0  0  0  0
  -28.6833  -11.9286   21.3229 H   0  0  0  0  0  0
  -28.4748  -13.5533   21.8850 H   0  0  0  0  0  0
  -25.2754   -9.5680   22.4764 H   0  0  0  0  0  0
  -23.9989   -7.4636   22.7482 H   0  0  0  0  0  0
  -21.0840   -8.8768   19.8949 H   0  0  0  0  0  0
  -22.3695  -10.9668   19.6156 H   0  0  0  0  0  0
  -21.2004   -7.6147   23.9713 H   0  0  0  0  0  0
  -21.1477   -6.0522   25.9077 H   0  0  0  0  0  0
  -22.0604   -2.7610   23.2845 H   0  0  0  0  0  0
  -22.4118  -11.9879   22.4760 H   0  0  0  0  0  0
  -21.1138  -13.1268   22.2605 H   0  0  0  0  0  0
  -24.6743  -15.8477   20.5252 H   0  0  0  0  0  0
  -26.2978  -15.6257   20.1141 H   0  0  0  0  0  0
  -26.7099  -32.5544   23.1166 H   0  0  0  0  0  0
  -25.0014  -33.9778   25.0456 H   0  0  0  0  0  0
  -22.6895  -31.3053   21.4085 H   0  0  0  0  0  0
  -23.3741  -35.9649   23.3320 H   0  0  0  0  0  0
  -24.3572  -36.8928   22.2059 H   0  0  0  0  0  0
  -23.7243  -37.6521   23.6662 H   0  0  0  0  0  0
  -26.0350  -31.6019   20.5876 H   0  0  0  0  0  0
  -26.8179  -30.8955   21.9737 H   0  0  0  0  0  0
  -28.1068  -29.1237   21.1447 H   0  0  0  0  0  0
  -26.0741  -25.9590   19.0375 H   0  0  0  0  0  0
  -23.9801  -27.2776   19.0535 H   0  0  0  0  0  0
  -23.7165  -30.5912   19.4034 H   0  0  0  0  0  0
  -22.7346  -29.2360   19.8725 H   0  0  0  0  0  0
  -25.1283  -36.1979   25.0833 H   0  0  0  0  0  0
  -20.9948  -28.3233   24.1440 H   0  0  0  0  0  0
  -20.5662  -26.2272   23.3605 H   0  0  0  0  0  0
  -21.6626  -26.7446   22.1216 H   0  0  0  0  0  0
  -19.6897  -25.6306   21.1231 H   0  0  0  0  0  0
  -19.6672  -27.3205   20.6750 H   0  0  0  0  0  0
  -17.4186  -26.6685   21.4019 H   0  0  0  0  0  0
  -18.0297  -26.0064   22.9008 H   0  0  0  0  0  0
  -19.7928  -30.7248   24.2295 H   0  0  0  0  0  0
  -17.5016  -31.6266   24.5177 H   0  0  0  0  0  0
  -15.5349  -30.3004   23.7648 H   0  0  0  0  0  0
  -15.8654  -28.0836   22.7060 H   0  0  0  0  0  0
  -24.5939  -30.6984   25.7788 H   0  0  0  0  0  0
  -24.8885  -32.2799   26.4909 H   0  0  0  0  0  0
  -25.8108  -30.8845   27.0213 H   0  0  0  0  0  0
  -26.2852  -29.6787   24.1170 H   0  0  0  0  0  0
  -27.4166  -29.7312   25.4503 H   0  0  0  0  0  0
  -27.8645  -30.4399   23.9161 H   0  0  0  0  0  0
  -27.2635  -33.3627   26.2065 H   0  0  0  0  0  0
  -28.3832  -32.6902   25.0311 H   0  0  0  0  0  0
  -28.0699  -31.8458   26.5399 H   0  0  0  0  0  0
  -28.2604  -38.0103   24.7526 H   0  0  0  0  0  0
  -28.1074  -36.2636   24.6302 H   0  0  0  0  0  0
  -27.2293  -37.1469   25.8875 H   0  0  0  0  0  0
  -20.9293  -29.8755   21.6955 H   0  0  0  0  0  0
  -26.0184  -38.2875   24.1411 H   0  0  0  0  0  0
  -27.7386  -19.2186   24.0400 H   0  0  0  0  0  0
  -29.0332  -17.2862   23.2397 H   0  0  0  0  0  0
  -27.6062  -21.2815   22.7348 H   0  0  0  0  0  0
  -28.5912  -23.0482   21.8719 H   0  0  0  0  0  0
  -31.5226  -17.1838   21.1663 H   0  0  0  0  0  0
  -30.4729  -17.0802   19.7797 H   0  0  0  0  0  0
  -29.1235  -25.5530   21.6339 H   0  0  0  0  0  0
  -27.3966  -25.3983   21.3954 H   0  0  0  0  0  0
  -28.9226  -15.5964   21.1388 H   0  0  0  0  0  0
  -30.1401  -15.5063   22.3984 H   0  0  0  0  0  0
  1 25  1  0  0  0
  1 30  2  0  0  0
  1 81  1  0  0  0
  2  3  1  0  0  0
  2 25  1  0  0  0
  2 85  1  0  0  0
  2 86  1  0  0  0
  3  4  1  0  0  0
  3 87  1  0  0  0
  3 88  1  0  0  0
  4  5  1  0  0  0
  4 89  1  0  0  0
  4 90  1  0  0  0
  5  6  1  0  0  0
  5 26  1  0  0  0
  5 91  1  0  0  0
  6 25  1  0  0  0
  6 92  1  0  0  0
  6 93  1  0  0  0
  7  8  2  0  0  0
  7 26  1  0  0  0
  7 29  1  0  0  0
  8  9  1  0  0  0
  8 22  1  0  0  0
  9 10  1  0  0  0
  9 27  2  0  0  0
 10 11  2  0  0  0
 10 15  1  0  0  0
 11 12  1  0  0  0
 11 94  1  0  0  0
 12 13  2  0  0  0
 12 95  1  0  0  0
 13 14  1  0  0  0
 13 31  1  0  0  0
 14 15  2  0  0  0
 14 96  1  0  0  0
 15 97  1  0  0  0
 16 17  2  0  0  0
 16 21  1  0  0  0
 16 31  1  0  0  0
 17 18  1  0  0  0
 17 98  1  0  0  0
 18 19  2  0  0  0
 18 99  1  0  0  0
 19 20  1  0  0  0
 19 24  1  0  0  0
 20 21  2  0  0  0
 20100  1  0  0  0
 21 23  1  0  0  0
 22 28  1  0  0  0
 22 32  2  0  0  0
 26 27  1  0  0  0
 28101  1  0  0  0
 28102  1  0  0  0
 29103  1  0  0  0
 29104  1  0  0  0
 33 34  1  0  0  0
 33 66  1  0  0  0
 33 70  2  0  0  0
 34 36  1  0  0  0
 34 59  1  0  0  0
 34105  1  0  0  0
 35 44  2  0  0  0
 35 45  1  0  0  0
 35 68  1  0  0  0
 36 56  1  0  0  0
 36106  1  0  0  0
 37 39  1  0  0  0
 37 47  1  0  0  0
 37 66  1  0  0  0
 37107  1  0  0  0
 38 43  2  0  0  0
 38 46  1  0  0  0
 38 47  1  0  0  0
 39 64  1  0  0  0
 39 67  2  0  0  0
 40 52  1  0  0  0
 40 53  2  0  0  0
 40 58  1  0  0  0
 41108  1  0  0  0
 41109  1  0  0  0
 41110  1  0  0  0
 41 48  1  0  0  0
 42 43  1  0  0  0
 42 66  1  0  0  0
 42111  1  0  0  0
 42112  1  0  0  0
 43 44  1  0  0  0
 44113  1  0  0  0
 45 46  2  0  0  0
 45114  1  0  0  0
 46115  1  0  0  0
 47116  1  0  0  0
 47117  1  0  0  0
 48 56  1  0  0  0
 48 65  1  0  0  0
 48118  1  0  0  0
 49 50  1  0  0  0
 49 53  1  0  0  0
 49 64  1  0  0  0
 49119  1  0  0  0
 50 51  1  0  0  0
 50120  1  0  0  0
 50121  1  0  0  0
 51 52  1  0  0  0
 51122  1  0  0  0
 51123  1  0  0  0
 52124  1  0  0  0
 52125  1  0  0  0
 53 54  1  0  0  0
 54 55  2  0  0  0
 54126  1  0  0  0
 55 57  1  0  0  0
 55127  1  0  0  0
 56 69  2  0  0  0
 57 58  2  0  0  0
 57128  1  0  0  0
 58129  1  0  0  0
 59 60  1  0  0  0
 59 61  1  0  0  0
 59 62  1  0  0  0
 60130  1  0  0  0
 60131  1  0  0  0
 60132  1  0  0  0
 61133  1  0  0  0
 61134  1  0  0  0
 61135  1  0  0  0
 62136  1  0  0  0
 62137  1  0  0  0
 62138  1  0  0  0
 63 65  1  0  0  0
 63139  1  0  0  0
 63140  1  0  0  0
 63141  1  0  0  0
 64142  1  0  0  0
 65143  1  0  0  0
 68 80  1  0  0  0
 71 72  2  0  0  0
 71 73  1  0  0  0
 71144  1  0  0  0
 72 74  1  0  0  0
 72145  1  0  0  0
 73 75  2  0  0  0
 73146  1  0  0  0
 74 76  2  0  0  0
 74 79  1  0  0  0
 75 76  1  0  0  0
 75 82  1  0  0  0
 76 84  1  0  0  0
 77 78  1  0  0  0
 77 82  2  0  0  0
 77147  1  0  0  0
 78 80  1  0  0  0
 78 83  2  0  0  0
 79 81  1  0  0  0
 79148  1  0  0  0
 79149  1  0  0  0
 80150  1  0  0  0
 80151  1  0  0  0
 81152  1  0  0  0
 81153  1  0  0  0
M  ISO  4   1 100  68 101  80 101  81 100
M  END
> <chiral flag>
0

> <version>
0

> <s_m_source_file>
/data/baiqing/PycharmProjects/Reinvent-master-3.2/result/LINK_invent/BTK/process_docking_weight1_custom_product_contain_oxygen_bond_distance_aromatic_linkinvent_7_9_3/rearranged_h_0171.sdf

> <i_m_source_file_index>
72

> <r_mmod_Potential_Energy-OPLS-2005>
14.2975606918335

> <r_mmod_Stretch_Energy-OPLS-2005>
40.3674736022949

> <r_mmod_Bend_Energy-OPLS-2005>
92.7237854003906

> <r_mmod_Torsional_Energy-OPLS-2005>
192.256774902344

> <r_mmod_Improper_Torsional_Energy-OPLS-2005>
2.48478007316589

> <r_mmod_Van_der_Waal_Energy-OPLS-2005>
155.097366333008

> <r_mmod_Electrostatic_Energy-OPLS-2005>
-247.659393310547

> <r_mmod_Solvation_Energy-OPLS-2005>
-231.457336425781

> <b_mmod_Minimization_Converged-OPLS-2005>
0

> <r_mmod_RMS_Derivative-OPLS-2005>
0.696531534194946

$$$$
72
                    3D
 Structure written by MMmdl.
162170  0  0  1  0            999 V2000
  -30.6618  -14.5056   20.5432 C   0  0  0  0  0  0
  -30.4301  -12.3172   19.4366 C   0  0  0  0  0  0
  -29.5072  -12.5021   18.2114 C   0  0  0  0  0  0
  -28.0242  -12.3630   18.6167 C   0  0  0  0  0  0
  -27.6580  -13.2015   19.8736 C   0  0  2  0  0  0
  -28.6979  -12.9868   20.9974 C   0  0  0  0  0  0
  -25.2550  -13.8121   20.5641 C   0  0  0  0  0  0
  -24.1798  -13.0412   20.9160 C   0  0  0  0  0  0
  -24.6349  -11.6878   20.8724 C   0  0  0  0  0  0
  -23.9015  -10.4268   21.0411 C   0  0  0  0  0  0
  -24.3576   -9.4181   21.9188 C   0  0  0  0  0  0
  -23.6260   -8.2222   22.0759 C   0  0  0  0  0  0
  -22.4242   -8.0261   21.3550 C   0  0  0  0  0  0
  -21.9867   -9.0225   20.4655 C   0  0  0  0  0  0
  -22.7191  -10.2108   20.3058 C   0  0  0  0  0  0
  -21.6836   -6.0703   22.5280 C   0  0  0  0  0  0
  -21.3994   -6.5605   23.8213 C   0  0  0  0  0  0
  -21.3665   -5.6767   24.9181 C   0  0  0  0  0  0
  -21.6062   -4.3030   24.7242 C   0  0  0  0  0  0
  -21.8802   -3.8119   23.4358 C   0  0  0  0  0  0
  -21.9168   -4.6935   22.3410 C   0  0  0  0  0  0
  -22.7812  -13.5220   21.1841 C   0  0  0  0  0  0
  -22.1627   -4.2120   21.0983 F   0  0  0  0  0  0
  -21.5673   -3.4509   25.7756 F   0  0  0  0  0  0
  -30.0299  -13.3032   20.4537 N   0  0  0  0  0  0
  -26.2983  -12.9284   20.3325 N   0  0  0  0  0  0
  -25.9268  -11.6442   20.5717 N   0  0  0  0  0  0
  -22.0440  -12.8233   22.0412 N   0  0  0  0  0  0
  -25.4295  -15.1835   20.4055 N   0  0  0  0  0  0
  -31.7897  -14.7049   20.0817 O   0  0  0  0  0  0
  -21.6615   -6.8854   21.4246 O   0  0  0  0  0  0
  -22.3485  -14.5514   20.6681 O   0  0  0  0  0  0
  -24.6163  -31.8678   23.2084 C   0  0  0  0  0  0
  -25.9063  -32.4822   23.8372 C   0  0  1  0  0  0
  -27.2195  -27.4157   20.1142 C   0  0  0  0  0  0
  -25.5921  -33.8620   24.2311 N   0  0  0  0  0  0
  -23.4038  -30.4921   21.5493 C   0  0  2  0  0  0
  -24.8485  -28.9522   20.1157 C   0  0  0  0  0  0
  -22.7401  -29.4672   22.4971 C   0  0  0  0  0  0
  -18.0281  -28.1367   22.8492 C   0  0  0  0  0  0
  -24.1490  -36.7308   23.2629 C   0  0  0  0  0  0
  -25.9328  -30.8279   21.3627 C   0  0  0  0  0  0
  -26.0088  -29.4593   20.7143 C   0  0  0  0  0  0
  -27.2014  -28.6972   20.7121 C   0  0  0  0  0  0
  -26.0486  -26.9261   19.5041 C   0  0  0  0  0  0
  -24.8632  -27.6858   19.5044 C   0  0  0  0  0  0
  -23.6122  -29.8229   20.1646 C   0  0  0  0  0  0
  -25.4113  -36.3102   24.0326 C   0  0  1  0  0  0
  -20.5869  -28.3664   23.1317 C   0  0  2  0  0  0
  -20.6778  -26.9398   22.5418 C   0  0  0  0  0  0
  -19.5759  -26.6378   21.5211 C   0  0  0  0  0  0
  -18.1932  -26.7923   22.1615 C   0  0  0  0  0  0
  -19.1528  -28.8832   23.2905 C   0  0  0  0  0  0
  -18.9458  -30.1435   23.8923 C   0  0  0  0  0  0
  -17.6462  -30.6585   24.0556 C   0  0  0  0  0  0
  -25.9048  -34.9472   23.5100 C   0  0  0  0  0  0
  -16.5353  -29.9083   23.6324 C   0  0  0  0  0  0
  -16.7270  -28.6493   23.0361 C   0  0  0  0  0  0
  -26.4483  -31.6601   25.0701 C   0  0  0  0  0  0
  -25.3733  -31.3737   26.1441 C   0  0  0  0  0  0
  -27.0307  -30.3038   24.6081 C   0  0  0  0  0  0
  -27.6051  -32.4312   25.7485 C   0  0  0  0  0  0
  -27.5586  -37.1799   24.8454 C   0  0  0  0  0  0
  -21.4132  -29.3035   22.3712 N   0  0  0  0  0  0
  -26.4293  -37.3796   23.9407 N   0  0  0  0  0  0
  -24.6693  -31.0775   22.0988 N   0  0  0  0  0  0
  -23.4162  -28.8214   23.3024 O   0  0  0  0  0  0
  -28.3563  -26.6392   20.1103 O   0  0  0  0  0  0
  -26.5621  -34.8925   22.4664 O   0  0  0  0  0  0
  -23.5352  -32.1434   23.7478 O   0  0  0  0  0  0
  -29.6816  -18.0004   20.9145 C   0  0  0  0  0  0
  -29.0971  -16.6326   19.0003 C   0  0  0  0  0  0
  -29.2902  -19.1826   20.2191 C   0  0  0  0  0  0
  -28.8249  -19.0673   18.8720 C   0  0  0  0  0  0
  -29.6051  -16.7204   20.3136 C   0  0  0  0  0  0
  -28.6802  -17.7804   18.2910 C   0  0  0  0  0  0
  -29.4910  -20.4957   20.9277 C   0  0  0  0  0  0
  -28.3110  -24.1579   20.4549 C   0  0  0  0  0  0
  -28.5083  -20.2924   18.0064 C   0  0  0  0  0  0
  -27.5471  -16.3879   16.5847 C   0  0  0  0  0  0
  -28.3628  -21.5573   20.9439 C   0  0  0  0  0  0
  -28.8383  -22.9967   21.3243 C   0  0  0  0  0  0
  -28.3508  -25.5721   21.0824 C   0  0  0  0  0  0
  -29.9177  -15.5212   21.0373 N   0  0  0  0  0  0
  -28.1240  -17.6601   17.0052 N   0  0  0  0  0  0
  -30.5173  -20.7149   21.5788 O   0  0  0  0  0  0
  -27.8893  -23.9631   19.3113 O   0  0  0  0  0  0
  -31.4787  -12.4190   19.1516 H   0  0  0  0  0  0
  -30.3359  -11.3089   19.8395 H   0  0  0  0  0  0
  -29.7532  -11.7703   17.4381 H   0  0  0  0  0  0
  -29.6792  -13.4802   17.7599 H   0  0  0  0  0  0
  -27.8285  -11.3080   18.8083 H   0  0  0  0  0  0
  -27.3813  -12.6405   17.7804 H   0  0  0  0  0  0
  -27.6859  -14.2465   19.5757 H   0  0  0  0  0  0
  -28.6826  -11.9499   21.3322 H   0  0  0  0  0  0
  -28.4546  -13.5785   21.8821 H   0  0  0  0  0  0
  -25.2736   -9.5640   22.4741 H   0  0  0  0  0  0
  -23.9979   -7.4582   22.7430 H   0  0  0  0  0  0
  -21.0819   -8.8704   19.8940 H   0  0  0  0  0  0
  -22.3650  -10.9620   19.6136 H   0  0  0  0  0  0
  -21.1966   -7.6110   23.9704 H   0  0  0  0  0  0
  -21.1523   -6.0507   25.9090 H   0  0  0  0  0  0
  -22.0591   -2.7581   23.2859 H   0  0  0  0  0  0
  -22.4022  -11.9926   22.4860 H   0  0  0  0  0  0
  -21.1056  -13.1273   22.2611 H   0  0  0  0  0  0
  -24.6657  -15.8434   20.5103 H   0  0  0  0  0  0
  -26.2892  -15.6198   20.0978 H   0  0  0  0  0  0
  -26.7132  -32.5532   23.1126 H   0  0  0  0  0  0
  -25.0095  -33.9783   25.0479 H   0  0  0  0  0  0
  -22.6927  -31.3094   21.4110 H   0  0  0  0  0  0
  -23.3746  -35.9643   23.3288 H   0  0  0  0  0  0
  -24.3584  -36.8935   22.2042 H   0  0  0  0  0  0
  -23.7247  -37.6509   23.6658 H   0  0  0  0  0  0
  -26.0425  -31.5915   20.5917 H   0  0  0  0  0  0
  -26.8222  -30.8864   21.9786 H   0  0  0  0  0  0
  -28.0960  -29.0782   21.1829 H   0  0  0  0  0  0
  -26.0513  -25.9532   19.0338 H   0  0  0  0  0  0
  -23.9725  -27.2909   19.0352 H   0  0  0  0  0  0
  -23.7208  -30.5972   19.4045 H   0  0  0  0  0  0
  -22.7354  -29.2448   19.8695 H   0  0  0  0  0  0
  -25.1280  -36.1945   25.0822 H   0  0  0  0  0  0
  -20.9985  -28.3242   24.1431 H   0  0  0  0  0  0
  -20.5711  -26.2259   23.3601 H   0  0  0  0  0  0
  -21.6648  -26.7472   22.1195 H   0  0  0  0  0  0
  -19.6923  -25.6290   21.1239 H   0  0  0  0  0  0
  -19.6707  -27.3193   20.6744 H   0  0  0  0  0  0
  -17.4209  -26.6689   21.4004 H   0  0  0  0  0  0
  -18.0322  -26.0062   22.9008 H   0  0  0  0  0  0
  -19.7940  -30.7235   24.2314 H   0  0  0  0  0  0
  -17.5030  -31.6288   24.5117 H   0  0  0  0  0  0
  -15.5352  -30.2990   23.7654 H   0  0  0  0  0  0
  -15.8672  -28.0818   22.7074 H   0  0  0  0  0  0
  -24.5884  -30.7116   25.7765 H   0  0  0  0  0  0
  -24.8959  -32.2921   26.4875 H   0  0  0  0  0  0
  -25.8074  -30.8895   27.0198 H   0  0  0  0  0  0
  -26.2852  -29.6813   24.1120 H   0  0  0  0  0  0
  -27.4054  -29.7269   25.4547 H   0  0  0  0  0  0
  -27.8701  -30.4349   23.9243 H   0  0  0  0  0  0
  -27.2659  -33.3588   26.2109 H   0  0  0  0  0  0
  -28.3860  -32.6910   25.0323 H   0  0  0  0  0  0
  -28.0722  -31.8401   26.5372 H   0  0  0  0  0  0
  -28.2576  -38.0123   24.7538 H   0  0  0  0  0  0
  -28.1107  -36.2652   24.6226 H   0  0  0  0  0  0
  -27.2311  -37.1389   25.8860 H   0  0  0  0  0  0
  -20.9265  -29.8734   21.6939 H   0  0  0  0  0  0
  -26.0165  -38.2861   24.1435 H   0  0  0  0  0  0
  -30.0501  -18.0858   21.9270 H   0  0  0  0  0  0
  -29.0243  -15.6626   18.5379 H   0  0  0  0  0  0
  -29.0444  -21.1887   18.3139 H   0  0  0  0  0  0
  -27.4365  -20.4971   18.0094 H   0  0  0  0  0  0
  -28.8111  -20.1378   16.9713 H   0  0  0  0  0  0
  -26.9604  -16.5281   15.6757 H   0  0  0  0  0  0
  -26.8830  -15.9763   17.3480 H   0  0  0  0  0  0
  -28.3297  -15.6565   16.3723 H   0  0  0  0  0  0
  -27.6268  -21.2287   21.6784 H   0  0  0  0  0  0
  -27.8262  -21.5669   20.0025 H   0  0  0  0  0  0
  -28.5690  -23.1956   22.3611 H   0  0  0  0  0  0
  -29.9252  -23.0590   21.2792 H   0  0  0  0  0  0
  -29.2546  -25.6564   21.6848 H   0  0  0  0  0  0
  -27.5110  -25.6679   21.7723 H   0  0  0  0  0  0
  -29.1644  -15.2004   21.6279 H   0  0  0  0  0  0
  -27.6897  -18.4961   16.6224 H   0  0  0  0  0  0
  1 25  1  0  0  0
  1 30  2  0  0  0
  1 84  1  0  0  0
  2  3  1  0  0  0
  2 25  1  0  0  0
  2 88  1  0  0  0
  2 89  1  0  0  0
  3  4  1  0  0  0
  3 90  1  0  0  0
  3 91  1  0  0  0
  4  5  1  0  0  0
  4 92  1  0  0  0
  4 93  1  0  0  0
  5  6  1  0  0  0
  5 26  1  0  0  0
  5 94  1  0  0  0
  6 25  1  0  0  0
  6 95  1  0  0  0
  6 96  1  0  0  0
  7  8  2  0  0  0
  7 26  1  0  0  0
  7 29  1  0  0  0
  8  9  1  0  0  0
  8 22  1  0  0  0
  9 10  1  0  0  0
  9 27  2  0  0  0
 10 11  2  0  0  0
 10 15  1  0  0  0
 11 12  1  0  0  0
 11 97  1  0  0  0
 12 13  2  0  0  0
 12 98  1  0  0  0
 13 14  1  0  0  0
 13 31  1  0  0  0
 14 15  2  0  0  0
 14 99  1  0  0  0
 15100  1  0  0  0
 16 17  2  0  0  0
 16 21  1  0  0  0
 16 31  1  0  0  0
 17 18  1  0  0  0
 17101  1  0  0  0
 18 19  2  0  0  0
 18102  1  0  0  0
 19 20  1  0  0  0
 19 24  1  0  0  0
 20 21  2  0  0  0
 20103  1  0  0  0
 21 23  1  0  0  0
 22 28  1  0  0  0
 22 32  2  0  0  0
 26 27  1  0  0  0
 28104  1  0  0  0
 28105  1  0  0  0
 29106  1  0  0  0
 29107  1  0  0  0
 33 34  1  0  0  0
 33 66  1  0  0  0
 33 70  2  0  0  0
 34 36  1  0  0  0
 34 59  1  0  0  0
 34108  1  0  0  0
 35 44  2  0  0  0
 35 45  1  0  0  0
 35 68  1  0  0  0
 36 56  1  0  0  0
 36109  1  0  0  0
 37 39  1  0  0  0
 37 47  1  0  0  0
 37 66  1  0  0  0
 37110  1  0  0  0
 38 43  2  0  0  0
 38 46  1  0  0  0
 38 47  1  0  0  0
 39 64  1  0  0  0
 39 67  2  0  0  0
 40 52  1  0  0  0
 40 53  2  0  0  0
 40 58  1  0  0  0
 41111  1  0  0  0
 41112  1  0  0  0
 41113  1  0  0  0
 41 48  1  0  0  0
 42 43  1  0  0  0
 42 66  1  0  0  0
 42114  1  0  0  0
 42115  1  0  0  0
 43 44  1  0  0  0
 44116  1  0  0  0
 45 46  2  0  0  0
 45117  1  0  0  0
 46118  1  0  0  0
 47119  1  0  0  0
 47120  1  0  0  0
 48 56  1  0  0  0
 48 65  1  0  0  0
 48121  1  0  0  0
 49 50  1  0  0  0
 49 53  1  0  0  0
 49 64  1  0  0  0
 49122  1  0  0  0
 50 51  1  0  0  0
 50123  1  0  0  0
 50124  1  0  0  0
 51 52  1  0  0  0
 51125  1  0  0  0
 51126  1  0  0  0
 52127  1  0  0  0
 52128  1  0  0  0
 53 54  1  0  0  0
 54 55  2  0  0  0
 54129  1  0  0  0
 55 57  1  0  0  0
 55130  1  0  0  0
 56 69  2  0  0  0
 57 58  2  0  0  0
 57131  1  0  0  0
 58132  1  0  0  0
 59 60  1  0  0  0
 59 61  1  0  0  0
 59 62  1  0  0  0
 60133  1  0  0  0
 60134  1  0  0  0
 60135  1  0  0  0
 61136  1  0  0  0
 61137  1  0  0  0
 61138  1  0  0  0
 62139  1  0  0  0
 62140  1  0  0  0
 62141  1  0  0  0
 63 65  1  0  0  0
 63142  1  0  0  0
 63143  1  0  0  0
 63144  1  0  0  0
 64145  1  0  0  0
 65146  1  0  0  0
 68 83  1  0  0  0
 71 73  2  0  0  0
 71 75  1  0  0  0
 71147  1  0  0  0
 72 75  2  0  0  0
 72 76  1  0  0  0
 72148  1  0  0  0
 73 74  1  0  0  0
 73 77  1  0  0  0
 74 76  2  0  0  0
 74 79  1  0  0  0
 75 84  1  0  0  0
 76 85  1  0  0  0
 77 81  1  0  0  0
 77 86  2  0  0  0
 78 82  1  0  0  0
 78 83  1  0  0  0
 78 87  2  0  0  0
 79149  1  0  0  0
 79150  1  0  0  0
 79151  1  0  0  0
 80 85  1  0  0  0
 80152  1  0  0  0
 80153  1  0  0  0
 80154  1  0  0  0
 81 82  1  0  0  0
 81155  1  0  0  0
 81156  1  0  0  0
 82157  1  0  0  0
 82158  1  0  0  0
 83159  1  0  0  0
 83160  1  0  0  0
 84161  1  0  0  0
 85162  1  0  0  0
M  ISO  4   1 100  68 101  83 101  84 100
M  END
> <chiral flag>
0

> <version>
0

> <s_m_source_file>
/data/baiqing/PycharmProjects/Reinvent-master-3.2/result/LINK_invent/BTK/process_docking_weight1_custom_product_contain_oxygen_bond_distance_aromatic_linkinvent_7_9_3/rearranged_h_0171.sdf

> <i_m_source_file_index>
73

> <r_mmod_Potential_Energy-OPLS-2005>
-31.5829048156738

> <r_mmod_Stretch_Energy-OPLS-2005>
45.3575744628906

> <r_mmod_Bend_Energy-OPLS-2005>
106.655059814453

> <r_mmod_Torsional_Energy-OPLS-2005>
302.388336181641

> <r_mmod_Improper_Torsional_Energy-OPLS-2005>
9.90714263916016

> <r_mmod_Van_der_Waal_Energy-OPLS-2005>
154.847595214844

> <r_mmod_Electrostatic_Energy-OPLS-2005>
-420.856536865234

> <r_mmod_Solvation_Energy-OPLS-2005>
-246.931564331055

> <b_mmod_Minimization_Converged-OPLS-2005>
0

> <r_mmod_RMS_Derivative-OPLS-2005>
3.15312004089355

$$$$
73
                    3D
 Structure written by MMmdl.
154162  0  0  1  0            999 V2000
  -30.6281  -14.6320   20.5142 C   0  0  0  0  0  0
  -30.4434  -12.3930   19.4497 C   0  0  0  0  0  0
  -29.5102  -12.5076   18.2234 C   0  0  0  0  0  0
  -28.0324  -12.3464   18.6351 C   0  0  0  0  0  0
  -27.6563  -13.2137   19.8658 C   0  0  2  0  0  0
  -28.7016  -13.0639   20.9943 C   0  0  0  0  0  0
  -25.2577  -13.8169   20.5669 C   0  0  0  0  0  0
  -24.1846  -13.0439   20.9194 C   0  0  0  0  0  0
  -24.6407  -11.6907   20.8748 C   0  0  0  0  0  0
  -23.9071  -10.4296   21.0417 C   0  0  0  0  0  0
  -24.3626   -9.4207   21.9192 C   0  0  0  0  0  0
  -23.6293   -8.2247   22.0752 C   0  0  0  0  0  0
  -22.4278   -8.0286   21.3537 C   0  0  0  0  0  0
  -21.9913   -9.0268   20.4647 C   0  0  0  0  0  0
  -22.7244  -10.2146   20.3064 C   0  0  0  0  0  0
  -21.6857   -6.0742   22.5276 C   0  0  0  0  0  0
  -21.4020   -6.5644   23.8208 C   0  0  0  0  0  0
  -21.3654   -5.6789   24.9164 C   0  0  0  0  0  0
  -21.6042   -4.3051   24.7216 C   0  0  0  0  0  0
  -21.8824   -3.8143   23.4339 C   0  0  0  0  0  0
  -21.9196   -4.6968   22.3399 C   0  0  0  0  0  0
  -22.7867  -13.5241   21.1850 C   0  0  0  0  0  0
  -22.1664   -4.2149   21.0976 F   0  0  0  0  0  0
  -21.5622   -3.4535   25.7731 F   0  0  0  0  0  0
  -30.0182  -13.4080   20.4329 N   0  0  0  0  0  0
  -26.3007  -12.9338   20.3321 N   0  0  0  0  0  0
  -25.9337  -11.6499   20.5771 N   0  0  0  0  0  0
  -22.0498  -12.8242   22.0405 N   0  0  0  0  0  0
  -25.4297  -15.1888   20.4032 N   0  0  0  0  0  0
  -31.7890  -14.8005   20.1292 O   0  0  0  0  0  0
  -21.6639   -6.8886   21.4236 O   0  0  0  0  0  0
  -22.3553  -14.5542   20.6683 O   0  0  0  0  0  0
  -24.6244  -31.8611   23.2041 C   0  0  0  0  0  0
  -25.9100  -32.4781   23.8360 C   0  0  1  0  0  0
  -27.2229  -27.3296   20.1097 C   0  0  0  0  0  0
  -25.5926  -33.8585   24.2276 N   0  0  0  0  0  0
  -23.4174  -30.4857   21.5474 C   0  0  2  0  0  0
  -24.8630  -28.9462   20.1115 C   0  0  0  0  0  0
  -22.7469  -29.4622   22.4942 C   0  0  0  0  0  0
  -18.0288  -28.1369   22.8480 C   0  0  0  0  0  0
  -24.1487  -36.7298   23.2627 C   0  0  0  0  0  0
  -25.9591  -30.7949   21.3748 C   0  0  0  0  0  0
  -26.0333  -29.4249   20.7135 C   0  0  0  0  0  0
  -27.2171  -28.6288   20.7034 C   0  0  0  0  0  0
  -26.0253  -26.9062   19.4823 C   0  0  0  0  0  0
  -24.8597  -27.6908   19.4890 C   0  0  0  0  0  0
  -23.6309  -29.8244   20.1618 C   0  0  0  0  0  0
  -25.4109  -36.3082   24.0319 C   0  0  1  0  0  0
  -20.5885  -28.3667   23.1278 C   0  0  2  0  0  0
  -20.6771  -26.9389   22.5403 C   0  0  0  0  0  0
  -19.5752  -26.6366   21.5200 C   0  0  0  0  0  0
  -18.1934  -26.7910   22.1618 C   0  0  0  0  0  0
  -19.1541  -28.8835   23.2872 C   0  0  0  0  0  0
  -18.9469  -30.1439   23.8884 C   0  0  0  0  0  0
  -17.6468  -30.6567   24.0560 C   0  0  0  0  0  0
  -25.9056  -34.9450   23.5096 C   0  0  0  0  0  0
  -16.5358  -29.9066   23.6330 C   0  0  0  0  0  0
  -16.7278  -28.6490   23.0340 C   0  0  0  0  0  0
  -26.4478  -31.6591   25.0729 C   0  0  0  0  0  0
  -25.3718  -31.3765   26.1467 C   0  0  0  0  0  0
  -27.0299  -30.3003   24.6186 C   0  0  0  0  0  0
  -27.6032  -32.4326   25.7502 C   0  0  0  0  0  0
  -27.5597  -37.1775   24.8437 C   0  0  0  0  0  0
  -21.4184  -29.3026   22.3681 N   0  0  0  0  0  0
  -26.4276  -37.3789   23.9431 N   0  0  0  0  0  0
  -24.6857  -31.0628   22.0990 N   0  0  0  0  0  0
  -23.4200  -28.8161   23.3016 O   0  0  0  0  0  0
  -28.3353  -26.4745   20.1631 O   0  0  0  0  0  0
  -26.5628  -34.8918   22.4665 O   0  0  0  0  0  0
  -23.5408  -32.1407   23.7374 O   0  0  0  0  0  0
  -31.1298  -17.8535   20.6599 C   0  0  0  0  0  0
  -28.7368  -17.9083   20.7757 C   0  0  0  0  0  0
  -31.1713  -19.2865   20.5840 C   0  0  0  0  0  0
  -29.9183  -17.1254   20.7560 C   0  0  0  0  0  0
  -29.9622  -20.0700   20.5877 C   0  0  0  0  0  0
  -28.7494  -19.3287   20.6853 C   0  0  0  0  0  0
  -32.5120  -19.9361   20.5055 C   0  0  0  0  0  0
  -29.1864  -24.0034   20.3514 C   0  0  0  0  0  0
  -28.8385  -22.4610   20.3942 C   0  0  0  0  0  0
  -28.0515  -25.0309   19.9907 C   0  0  0  0  0  0
  -33.6343  -19.3453   20.5480 N   0  0  0  0  0  0
  -29.8105  -15.6696   20.8760 N   0  0  0  0  0  0
  -29.9905  -21.5136   20.5132 N   0  0  0  0  0  0
  -30.3411  -24.3795   20.5840 O   0  0  0  0  0  0
  -27.5590  -19.9775   20.7044 F   0  0  0  0  0  0
  -31.4828  -12.5276   19.1449 H   0  0  0  0  0  0
  -30.3870  -11.3955   19.8889 H   0  0  0  0  0  0
  -29.7733  -11.7546   17.4790 H   0  0  0  0  0  0
  -29.6519  -13.4761   17.7411 H   0  0  0  0  0  0
  -27.8675  -11.2920   18.8614 H   0  0  0  0  0  0
  -27.3796  -12.5818   17.7943 H   0  0  0  0  0  0
  -27.6763  -14.2504   19.5290 H   0  0  0  0  0  0
  -28.7136  -12.0402   21.3715 H   0  0  0  0  0  0
  -28.4478  -13.6909   21.8503 H   0  0  0  0  0  0
  -25.2780   -9.5668   22.4759 H   0  0  0  0  0  0
  -23.9999   -7.4638   22.7472 H   0  0  0  0  0  0
  -21.0841   -8.8796   19.8959 H   0  0  0  0  0  0
  -22.3713  -10.9690   19.6173 H   0  0  0  0  0  0
  -21.2018   -7.6158   23.9715 H   0  0  0  0  0  0
  -21.1468   -6.0516   25.9064 H   0  0  0  0  0  0
  -22.0609   -2.7604   23.2840 H   0  0  0  0  0  0
  -22.4113  -11.9914   22.4811 H   0  0  0  0  0  0
  -21.1116  -13.1276   22.2603 H   0  0  0  0  0  0
  -24.6545  -15.8372   20.4891 H   0  0  0  0  0  0
  -26.2572  -15.6140   20.0057 H   0  0  0  0  0  0
  -26.7168  -32.5455   23.1111 H   0  0  0  0  0  0
  -25.0063  -33.9729   25.0410 H   0  0  0  0  0  0
  -22.7095  -31.3051   21.4067 H   0  0  0  0  0  0
  -23.3756  -35.9620   23.3234 H   0  0  0  0  0  0
  -24.3595  -36.8980   22.2055 H   0  0  0  0  0  0
  -23.7216  -37.6470   23.6690 H   0  0  0  0  0  0
  -26.0914  -31.5615   20.6101 H   0  0  0  0  0  0
  -26.8390  -30.8398   22.0050 H   0  0  0  0  0  0
  -28.1144  -28.9917   21.1852 H   0  0  0  0  0  0
  -25.9502  -25.9514   18.9847 H   0  0  0  0  0  0
  -23.9620  -27.3171   19.0151 H   0  0  0  0  0  0
  -23.7493  -30.6026   19.4071 H   0  0  0  0  0  0
  -22.7511  -29.2543   19.8583 H   0  0  0  0  0  0
  -25.1276  -36.1921   25.0805 H   0  0  0  0  0  0
  -20.9975  -28.3236   24.1399 H   0  0  0  0  0  0
  -20.5653  -26.2278   23.3602 H   0  0  0  0  0  0
  -21.6644  -26.7404   22.1212 H   0  0  0  0  0  0
  -19.6913  -25.6278   21.1220 H   0  0  0  0  0  0
  -19.6685  -27.3180   20.6734 H   0  0  0  0  0  0
  -17.4197  -26.6638   21.4030 H   0  0  0  0  0  0
  -18.0352  -26.0055   22.9021 H   0  0  0  0  0  0
  -19.7945  -30.7261   24.2240 H   0  0  0  0  0  0
  -17.5022  -31.6242   24.5170 H   0  0  0  0  0  0
  -15.5358  -30.2965   23.7654 H   0  0  0  0  0  0
  -15.8681  -28.0812   22.7048 H   0  0  0  0  0  0
  -24.5846  -30.7160   25.7816 H   0  0  0  0  0  0
  -24.8974  -32.2960   26.4911 H   0  0  0  0  0  0
  -25.8039  -30.8919   27.0232 H   0  0  0  0  0  0
  -26.2867  -29.6775   24.1192 H   0  0  0  0  0  0
  -27.3960  -29.7241   25.4694 H   0  0  0  0  0  0
  -27.8759  -30.4266   23.9424 H   0  0  0  0  0  0
  -27.2619  -33.3605   26.2108 H   0  0  0  0  0  0
  -28.3833  -32.6928   25.0335 H   0  0  0  0  0  0
  -28.0709  -31.8443   26.5407 H   0  0  0  0  0  0
  -28.2522  -38.0163   24.7615 H   0  0  0  0  0  0
  -28.1180  -36.2703   24.6078 H   0  0  0  0  0  0
  -27.2343  -37.1196   25.8838 H   0  0  0  0  0  0
  -20.9355  -29.8773   21.6916 H   0  0  0  0  0  0
  -26.0143  -38.2837   24.1528 H   0  0  0  0  0  0
  -32.0539  -17.2953   20.6591 H   0  0  0  0  0  0
  -27.7766  -17.4207   20.8591 H   0  0  0  0  0  0
  -32.5163  -21.0240   20.4022 H   0  0  0  0  0  0
  -28.2683  -22.2183   19.4967 H   0  0  0  0  0  0
  -28.1665  -22.3070   21.2389 H   0  0  0  0  0  0
  -27.1814  -24.7643   20.5916 H   0  0  0  0  0  0
  -27.7897  -24.8495   18.9483 H   0  0  0  0  0  0
  -33.5345  -18.3421   20.6486 H   0  0  0  0  0  0
  -28.8956  -15.3411   21.1457 H   0  0  0  0  0  0
  -30.8901  -21.9842   20.4845 H   0  0  0  0  0  0
  1 25  1  0  0  0
  1 30  2  0  0  0
  1 82  1  0  0  0
  2  3  1  0  0  0
  2 25  1  0  0  0
  2 86  1  0  0  0
  2 87  1  0  0  0
  3  4  1  0  0  0
  3 88  1  0  0  0
  3 89  1  0  0  0
  4  5  1  0  0  0
  4 90  1  0  0  0
  4 91  1  0  0  0
  5  6  1  0  0  0
  5 26  1  0  0  0
  5 92  1  0  0  0
  6 25  1  0  0  0
  6 93  1  0  0  0
  6 94  1  0  0  0
  7  8  2  0  0  0
  7 26  1  0  0  0
  7 29  1  0  0  0
  8  9  1  0  0  0
  8 22  1  0  0  0
  9 10  1  0  0  0
  9 27  2  0  0  0
 10 11  2  0  0  0
 10 15  1  0  0  0
 11 12  1  0  0  0
 11 95  1  0  0  0
 12 13  2  0  0  0
 12 96  1  0  0  0
 13 14  1  0  0  0
 13 31  1  0  0  0
 14 15  2  0  0  0
 14 97  1  0  0  0
 15 98  1  0  0  0
 16 17  2  0  0  0
 16 21  1  0  0  0
 16 31  1  0  0  0
 17 18  1  0  0  0
 17 99  1  0  0  0
 18 19  2  0  0  0
 18100  1  0  0  0
 19 20  1  0  0  0
 19 24  1  0  0  0
 20 21  2  0  0  0
 20101  1  0  0  0
 21 23  1  0  0  0
 22 28  1  0  0  0
 22 32  2  0  0  0
 26 27  1  0  0  0
 28102  1  0  0  0
 28103  1  0  0  0
 29104  1  0  0  0
 29105  1  0  0  0
 33 34  1  0  0  0
 33 66  1  0  0  0
 33 70  2  0  0  0
 34 36  1  0  0  0
 34 59  1  0  0  0
 34106  1  0  0  0
 35 44  2  0  0  0
 35 45  1  0  0  0
 35 68  1  0  0  0
 36 56  1  0  0  0
 36107  1  0  0  0
 37 39  1  0  0  0
 37 47  1  0  0  0
 37 66  1  0  0  0
 37108  1  0  0  0
 38 43  2  0  0  0
 38 46  1  0  0  0
 38 47  1  0  0  0
 39 64  1  0  0  0
 39 67  2  0  0  0
 40 52  1  0  0  0
 40 53  2  0  0  0
 40 58  1  0  0  0
 41109  1  0  0  0
 41110  1  0  0  0
 41111  1  0  0  0
 41 48  1  0  0  0
 42 43  1  0  0  0
 42 66  1  0  0  0
 42112  1  0  0  0
 42113  1  0  0  0
 43 44  1  0  0  0
 44114  1  0  0  0
 45 46  2  0  0  0
 45115  1  0  0  0
 46116  1  0  0  0
 47117  1  0  0  0
 47118  1  0  0  0
 48 56  1  0  0  0
 48 65  1  0  0  0
 48119  1  0  0  0
 49 50  1  0  0  0
 49 53  1  0  0  0
 49 64  1  0  0  0
 49120  1  0  0  0
 50 51  1  0  0  0
 50121  1  0  0  0
 50122  1  0  0  0
 51 52  1  0  0  0
 51123  1  0  0  0
 51124  1  0  0  0
 52125  1  0  0  0
 52126  1  0  0  0
 53 54  1  0  0  0
 54 55  2  0  0  0
 54127  1  0  0  0
 55 57  1  0  0  0
 55128  1  0  0  0
 56 69  2  0  0  0
 57 58  2  0  0  0
 57129  1  0  0  0
 58130  1  0  0  0
 59 60  1  0  0  0
 59 61  1  0  0  0
 59 62  1  0  0  0
 60131  1  0  0  0
 60132  1  0  0  0
 60133  1  0  0  0
 61134  1  0  0  0
 61135  1  0  0  0
 61136  1  0  0  0
 62137  1  0  0  0
 62138  1  0  0  0
 62139  1  0  0  0
 63 65  1  0  0  0
 63140  1  0  0  0
 63141  1  0  0  0
 63142  1  0  0  0
 64143  1  0  0  0
 65144  1  0  0  0
 68 80  1  0  0  0
 71 73  2  0  0  0
 71 74  1  0  0  0
 71145  1  0  0  0
 72 74  2  0  0  0
 72 76  1  0  0  0
 72146  1  0  0  0
 73 75  1  0  0  0
 73 77  1  0  0  0
 74 82  1  0  0  0
 75 76  2  0  0  0
 75 83  1  0  0  0
 76 85  1  0  0  0
 77 81  2  0  0  0
 77147  1  0  0  0
 78 79  1  0  0  0
 78 80  1  0  0  0
 78 84  2  0  0  0
 79 83  1  0  0  0
 79148  1  0  0  0
 79149  1  0  0  0
 80150  1  0  0  0
 80151  1  0  0  0
 81152  1  0  0  0
 82153  1  0  0  0
 83154  1  0  0  0
M  ISO  4   1 100  68 101  80 101  82 100
M  END
> <chiral flag>
0

> <version>
0

> <s_m_source_file>
/data/baiqing/PycharmProjects/Reinvent-master-3.2/result/LINK_invent/BTK/process_docking_weight1_custom_product_contain_oxygen_bond_distance_aromatic_linkinvent_7_9_3/rearranged_h_0171.sdf

> <i_m_source_file_index>
74

> <r_mmod_Potential_Energy-OPLS-2005>
121.469360351562

> <r_mmod_Stretch_Energy-OPLS-2005>
79.7038726806641

> <r_mmod_Bend_Energy-OPLS-2005>
145.431274414062

> <r_mmod_Torsional_Energy-OPLS-2005>
202.062454223633

> <r_mmod_Improper_Torsional_Energy-OPLS-2005>
4.68368864059448

> <r_mmod_Van_der_Waal_Energy-OPLS-2005>
156.09619140625

> <r_mmod_Electrostatic_Energy-OPLS-2005>
-259.009796142578

> <r_mmod_Solvation_Energy-OPLS-2005>
-253.671844482422

> <b_mmod_Minimization_Converged-OPLS-2005>
0

> <r_mmod_RMS_Derivative-OPLS-2005>
1.32497489452362

$$$$
74
                    3D
 Structure written by MMmdl.
158166  0  0  1  0            999 V2000
  -30.7265  -14.4547   20.6125 C   0  0  0  0  0  0
  -30.4188  -12.3147   19.4145 C   0  0  0  0  0  0
  -29.4895  -12.5120   18.2009 C   0  0  0  0  0  0
  -28.0126  -12.3671   18.6169 C   0  0  0  0  0  0
  -27.6601  -13.2085   19.8729 C   0  0  2  0  0  0
  -28.7013  -12.9911   20.9931 C   0  0  0  0  0  0
  -25.2583  -13.8168   20.5686 C   0  0  0  0  0  0
  -24.1835  -13.0443   20.9178 C   0  0  0  0  0  0
  -24.6388  -11.6908   20.8728 C   0  0  0  0  0  0
  -23.9054  -10.4293   21.0400 C   0  0  0  0  0  0
  -24.3609   -9.4211   21.9179 C   0  0  0  0  0  0
  -23.6289   -8.2244   22.0752 C   0  0  0  0  0  0
  -22.4272   -8.0278   21.3543 C   0  0  0  0  0  0
  -21.9903   -9.0250   20.4645 C   0  0  0  0  0  0
  -22.7226  -10.2132   20.3052 C   0  0  0  0  0  0
  -21.6852   -6.0733   22.5279 C   0  0  0  0  0  0
  -21.4013   -6.5638   23.8213 C   0  0  0  0  0  0
  -21.3659   -5.6791   24.9175 C   0  0  0  0  0  0
  -21.6046   -4.3054   24.7225 C   0  0  0  0  0  0
  -21.8820   -3.8145   23.4347 C   0  0  0  0  0  0
  -21.9193   -4.6961   22.3404 C   0  0  0  0  0  0
  -22.7858  -13.5241   21.1843 C   0  0  0  0  0  0
  -22.1662   -4.2147   21.0982 F   0  0  0  0  0  0
  -21.5627   -3.4537   25.7737 F   0  0  0  0  0  0
  -30.0323  -13.2965   20.4405 N   0  0  0  0  0  0
  -26.3017  -12.9340   20.3358 N   0  0  0  0  0  0
  -25.9315  -11.6497   20.5755 N   0  0  0  0  0  0
  -22.0499  -12.8234   22.0401 N   0  0  0  0  0  0
  -25.4318  -15.1885   20.4106 N   0  0  0  0  0  0
  -31.8277  -14.6549   20.0924 O   0  0  0  0  0  0
  -21.6640   -6.8873   21.4240 O   0  0  0  0  0  0
  -22.3544  -14.5549   20.6694 O   0  0  0  0  0  0
  -24.6152  -31.8675   23.2101 C   0  0  0  0  0  0
  -25.9042  -32.4823   23.8397 C   0  0  1  0  0  0
  -27.2308  -27.4292   20.0981 C   0  0  0  0  0  0
  -25.5899  -33.8620   24.2329 N   0  0  0  0  0  0
  -23.4038  -30.4909   21.5509 C   0  0  2  0  0  0
  -24.8510  -28.9567   20.1149 C   0  0  0  0  0  0
  -22.7413  -29.4654   22.4992 C   0  0  0  0  0  0
  -18.0269  -28.1375   22.8492 C   0  0  0  0  0  0
  -24.1486  -36.7307   23.2641 C   0  0  0  0  0  0
  -25.9338  -30.8316   21.3647 C   0  0  0  0  0  0
  -26.0126  -29.4658   20.7113 C   0  0  0  0  0  0
  -27.2089  -28.7093   20.6996 C   0  0  0  0  0  0
  -26.0545  -26.9379   19.4930 C   0  0  0  0  0  0
  -24.8664  -27.6916   19.5029 C   0  0  0  0  0  0
  -23.6128  -29.8231   20.1657 C   0  0  0  0  0  0
  -25.4109  -36.3112   24.0341 C   0  0  1  0  0  0
  -20.5861  -28.3659   23.1319 C   0  0  2  0  0  0
  -20.6758  -26.9396   22.5419 C   0  0  0  0  0  0
  -19.5742  -26.6384   21.5211 C   0  0  0  0  0  0
  -18.1919  -26.7923   22.1620 C   0  0  0  0  0  0
  -19.1519  -28.8834   23.2903 C   0  0  0  0  0  0
  -18.9448  -30.1440   23.8913 C   0  0  0  0  0  0
  -17.6452  -30.6584   24.0560 C   0  0  0  0  0  0
  -25.9034  -34.9476   23.5132 C   0  0  0  0  0  0
  -16.5341  -29.9085   23.6330 C   0  0  0  0  0  0
  -16.7257  -28.6498   23.0355 C   0  0  0  0  0  0
  -26.4473  -31.6601   25.0724 C   0  0  0  0  0  0
  -25.3741  -31.3709   26.1473 C   0  0  0  0  0  0
  -27.0300  -30.3044   24.6096 C   0  0  0  0  0  0
  -27.6055  -32.4317   25.7481 C   0  0  0  0  0  0
  -27.5578  -37.1811   24.8471 C   0  0  0  0  0  0
  -21.4138  -29.3028   22.3728 N   0  0  0  0  0  0
  -26.4298  -37.3791   23.9405 N   0  0  0  0  0  0
  -24.6692  -31.0774   22.1003 N   0  0  0  0  0  0
  -23.4184  -28.8196   23.3034 O   0  0  0  0  0  0
  -28.3700  -26.6526   20.0940 O   0  0  0  0  0  0
  -26.5590  -34.8925   22.4690 O   0  0  0  0  0  0
  -23.5343  -32.1426   23.7493 O   0  0  0  0  0  0
  -28.7534  -19.9159   21.4095 C   0  0  0  0  0  0
  -31.0742  -18.7743   20.5360 C   0  0  0  0  0  0
  -29.0296  -18.5819   21.7893 C   0  0  0  0  0  0
  -30.2433  -17.9907   21.3622 C   0  0  0  0  0  0
  -29.6744  -20.6536   20.6271 C   0  0  0  0  0  0
  -28.2408  -25.3875   20.6332 C   0  0  0  0  0  0
  -28.9301  -24.3054   20.2047 C   0  0  0  0  0  0
  -28.7251  -22.9970   20.8484 C   0  0  0  0  0  0
  -28.2987  -18.1702   24.1767 C   0  0  0  0  0  0
  -28.0474  -17.8583   22.6969 C   0  0  0  0  0  0
  -30.7574  -16.6275   21.8691 C   0  0  0  0  0  0
  -30.7974  -20.0493   20.1768 N   0  0  0  0  0  0
  -29.4629  -22.0227   20.2727 N   0  0  0  0  0  0
  -30.1207  -15.4052   21.3494 N   0  0  0  0  0  0
  -27.9676  -22.8116   21.8055 O   0  0  0  0  0  0
  -29.8008  -24.4322   19.1900 O   0  0  0  0  0  0
  -31.4626  -12.4133   19.1109 H   0  0  0  0  0  0
  -30.3211  -11.3029   19.8112 H   0  0  0  0  0  0
  -29.7306  -11.7898   17.4197 H   0  0  0  0  0  0
  -29.6543  -13.4994   17.7664 H   0  0  0  0  0  0
  -27.8270  -11.3108   18.8157 H   0  0  0  0  0  0
  -27.3592  -12.6381   17.7868 H   0  0  0  0  0  0
  -27.7050  -14.2568   19.5766 H   0  0  0  0  0  0
  -28.6785  -11.9552   21.3349 H   0  0  0  0  0  0
  -28.4544  -13.5893   21.8710 H   0  0  0  0  0  0
  -25.2757   -9.5689   22.4747 H   0  0  0  0  0  0
  -24.0003   -7.4636   22.7471 H   0  0  0  0  0  0
  -21.0834   -8.8761   19.8952 H   0  0  0  0  0  0
  -22.3681  -10.9665   19.6156 H   0  0  0  0  0  0
  -21.2005   -7.6148   23.9714 H   0  0  0  0  0  0
  -21.1479   -6.0522   25.9077 H   0  0  0  0  0  0
  -22.0599   -2.7607   23.2847 H   0  0  0  0  0  0
  -22.4112  -11.9891   22.4784 H   0  0  0  0  0  0
  -21.1118  -13.1263   22.2608 H   0  0  0  0  0  0
  -24.6655  -15.8445   20.5152 H   0  0  0  0  0  0
  -26.2854  -15.6245   20.0851 H   0  0  0  0  0  0
  -26.7112  -32.5537   23.1161 H   0  0  0  0  0  0
  -25.0072  -33.9783   25.0490 H   0  0  0  0  0  0
  -22.6927  -31.3078   21.4118 H   0  0  0  0  0  0
  -23.3743  -35.9648   23.3339 H   0  0  0  0  0  0
  -24.3574  -36.8881   22.2047 H   0  0  0  0  0  0
  -23.7249  -37.6528   23.6626 H   0  0  0  0  0  0
  -26.0474  -31.5985   20.5972 H   0  0  0  0  0  0
  -26.8210  -30.8840   21.9839 H   0  0  0  0  0  0
  -28.1067  -29.0944   21.1624 H   0  0  0  0  0  0
  -26.0569  -25.9664   19.0190 H   0  0  0  0  0  0
  -23.9735  -27.2940   19.0403 H   0  0  0  0  0  0
  -23.7200  -30.5978   19.4057 H   0  0  0  0  0  0
  -22.7374  -29.2416   19.8709 H   0  0  0  0  0  0
  -25.1292  -36.1981   25.0835 H   0  0  0  0  0  0
  -20.9952  -28.3219   24.1440 H   0  0  0  0  0  0
  -20.5659  -26.2263   23.3602 H   0  0  0  0  0  0
  -21.6629  -26.7440   22.1214 H   0  0  0  0  0  0
  -19.6905  -25.6300   21.1231 H   0  0  0  0  0  0
  -19.6693  -27.3201   20.6747 H   0  0  0  0  0  0
  -17.4194  -26.6674   21.4016 H   0  0  0  0  0  0
  -18.0321  -26.0061   22.9011 H   0  0  0  0  0  0
  -19.7925  -30.7243   24.2298 H   0  0  0  0  0  0
  -17.5011  -31.6271   24.5151 H   0  0  0  0  0  0
  -15.5344  -30.2992   23.7650 H   0  0  0  0  0  0
  -15.8654  -28.0821   22.7071 H   0  0  0  0  0  0
  -24.5918  -30.7051   25.7811 H   0  0  0  0  0  0
  -24.8926  -32.2863   26.4920 H   0  0  0  0  0  0
  -25.8097  -30.8882   27.0230 H   0  0  0  0  0  0
  -26.2837  -29.6810   24.1157 H   0  0  0  0  0  0
  -27.4078  -29.7280   25.4550 H   0  0  0  0  0  0
  -27.8674  -30.4366   23.9239 H   0  0  0  0  0  0
  -27.2680  -33.3608   26.2086 H   0  0  0  0  0  0
  -28.3846  -32.6889   25.0294 H   0  0  0  0  0  0
  -28.0742  -31.8423   26.5371 H   0  0  0  0  0  0
  -28.2627  -38.0077   24.7483 H   0  0  0  0  0  0
  -28.1042  -36.2609   24.6345 H   0  0  0  0  0  0
  -27.2290  -37.1522   25.8873 H   0  0  0  0  0  0
  -20.9297  -29.8748   21.6950 H   0  0  0  0  0  0
  -26.0194  -38.2878   24.1384 H   0  0  0  0  0  0
  -27.8366  -20.3716   21.7549 H   0  0  0  0  0  0
  -32.0193  -18.3858   20.1855 H   0  0  0  0  0  0
  -27.5225  -25.3541   21.4440 H   0  0  0  0  0  0
  -27.5829  -17.6479   24.8115 H   0  0  0  0  0  0
  -28.2012  -19.2383   24.3733 H   0  0  0  0  0  0
  -29.2993  -17.8664   24.4837 H   0  0  0  0  0  0
  -28.0862  -16.7835   22.5273 H   0  0  0  0  0  0
  -27.0330  -18.1571   22.4292 H   0  0  0  0  0  0
  -30.6468  -16.6096   22.9533 H   0  0  0  0  0  0
  -31.8375  -16.5862   21.7135 H   0  0  0  0  0  0
  -30.0473  -22.3778   19.5289 H   0  0  0  0  0  0
  -29.2123  -15.1652   21.7154 H   0  0  0  0  0  0
  -29.7817  -25.3448   18.9290 H   0  0  0  0  0  0
  1 25  1  0  0  0
  1 30  2  0  0  0
  1 84  1  0  0  0
  2  3  1  0  0  0
  2 25  1  0  0  0
  2 87  1  0  0  0
  2 88  1  0  0  0
  3  4  1  0  0  0
  3 89  1  0  0  0
  3 90  1  0  0  0
  4  5  1  0  0  0
  4 91  1  0  0  0
  4 92  1  0  0  0
  5  6  1  0  0  0
  5 26  1  0  0  0
  5 93  1  0  0  0
  6 25  1  0  0  0
  6 94  1  0  0  0
  6 95  1  0  0  0
  7  8  2  0  0  0
  7 26  1  0  0  0
  7 29  1  0  0  0
  8  9  1  0  0  0
  8 22  1  0  0  0
  9 10  1  0  0  0
  9 27  2  0  0  0
 10 11  2  0  0  0
 10 15  1  0  0  0
 11 12  1  0  0  0
 11 96  1  0  0  0
 12 13  2  0  0  0
 12 97  1  0  0  0
 13 14  1  0  0  0
 13 31  1  0  0  0
 14 15  2  0  0  0
 14 98  1  0  0  0
 15 99  1  0  0  0
 16 17  2  0  0  0
 16 21  1  0  0  0
 16 31  1  0  0  0
 17 18  1  0  0  0
 17100  1  0  0  0
 18 19  2  0  0  0
 18101  1  0  0  0
 19 20  1  0  0  0
 19 24  1  0  0  0
 20 21  2  0  0  0
 20102  1  0  0  0
 21 23  1  0  0  0
 22 28  1  0  0  0
 22 32  2  0  0  0
 26 27  1  0  0  0
 28103  1  0  0  0
 28104  1  0  0  0
 29105  1  0  0  0
 29106  1  0  0  0
 33 34  1  0  0  0
 33 66  1  0  0  0
 33 70  2  0  0  0
 34 36  1  0  0  0
 34 59  1  0  0  0
 34107  1  0  0  0
 35 44  2  0  0  0
 35 45  1  0  0  0
 35 68  1  0  0  0
 36 56  1  0  0  0
 36108  1  0  0  0
 37 39  1  0  0  0
 37 47  1  0  0  0
 37 66  1  0  0  0
 37109  1  0  0  0
 38 43  2  0  0  0
 38 46  1  0  0  0
 38 47  1  0  0  0
 39 64  1  0  0  0
 39 67  2  0  0  0
 40 52  1  0  0  0
 40 53  2  0  0  0
 40 58  1  0  0  0
 41110  1  0  0  0
 41111  1  0  0  0
 41112  1  0  0  0
 41 48  1  0  0  0
 42 43  1  0  0  0
 42 66  1  0  0  0
 42113  1  0  0  0
 42114  1  0  0  0
 43 44  1  0  0  0
 44115  1  0  0  0
 45 46  2  0  0  0
 45116  1  0  0  0
 46117  1  0  0  0
 47118  1  0  0  0
 47119  1  0  0  0
 48 56  1  0  0  0
 48 65  1  0  0  0
 48120  1  0  0  0
 49 50  1  0  0  0
 49 53  1  0  0  0
 49 64  1  0  0  0
 49121  1  0  0  0
 50 51  1  0  0  0
 50122  1  0  0  0
 50123  1  0  0  0
 51 52  1  0  0  0
 51124  1  0  0  0
 51125  1  0  0  0
 52126  1  0  0  0
 52127  1  0  0  0
 53 54  1  0  0  0
 54 55  2  0  0  0
 54128  1  0  0  0
 55 57  1  0  0  0
 55129  1  0  0  0
 56 69  2  0  0  0
 57 58  2  0  0  0
 57130  1  0  0  0
 58131  1  0  0  0
 59 60  1  0  0  0
 59 61  1  0  0  0
 59 62  1  0  0  0
 60132  1  0  0  0
 60133  1  0  0  0
 60134  1  0  0  0
 61135  1  0  0  0
 61136  1  0  0  0
 61137  1  0  0  0
 62138  1  0  0  0
 62139  1  0  0  0
 62140  1  0  0  0
 63 65  1  0  0  0
 63141  1  0  0  0
 63142  1  0  0  0
 63143  1  0  0  0
 64144  1  0  0  0
 65145  1  0  0  0
 68 76  1  0  0  0
 71 73  2  0  0  0
 71 75  1  0  0  0
 71146  1  0  0  0
 72 74  2  0  0  0
 72 82  1  0  0  0
 72147  1  0  0  0
 73 74  1  0  0  0
 73 80  1  0  0  0
 74 81  1  0  0  0
 75 82  2  0  0  0
 75 83  1  0  0  0
 76 77  2  0  0  0
 76148  1  0  0  0
 77 78  1  0  0  0
 77 86  1  0  0  0
 78 83  1  0  0  0
 78 85  2  0  0  0
 79 80  1  0  0  0
 79149  1  0  0  0
 79150  1  0  0  0
 79151  1  0  0  0
 80152  1  0  0  0
 80153  1  0  0  0
 81 84  1  0  0  0
 81154  1  0  0  0
 81155  1  0  0  0
 83156  1  0  0  0
 84157  1  0  0  0
 86158  1  0  0  0
M  ISO  4   1 100  68 101  76 101  84 100
M  END
> <chiral flag>
0

> <version>
0

> <s_m_source_file>
/data/baiqing/PycharmProjects/Reinvent-master-3.2/result/LINK_invent/BTK/process_docking_weight1_custom_product_contain_oxygen_bond_distance_aromatic_linkinvent_7_9_3/rearranged_h_0171.sdf

> <i_m_source_file_index>
75

> <r_mmod_Potential_Energy-OPLS-2005>
-289.955841064453

> <r_mmod_Stretch_Energy-OPLS-2005>
39.0098152160645

> <r_mmod_Bend_Energy-OPLS-2005>
108.449020385742

> <r_mmod_Torsional_Energy-OPLS-2005>
205.432739257812

> <r_mmod_Improper_Torsional_Energy-OPLS-2005>
3.03052663803101

> <r_mmod_Van_der_Waal_Energy-OPLS-2005>
160.587814331055

> <r_mmod_Electrostatic_Energy-OPLS-2005>
-590.195739746094

> <r_mmod_Solvation_Energy-OPLS-2005>
-228.228546142578

> <b_mmod_Minimization_Converged-OPLS-2005>
0

> <r_mmod_RMS_Derivative-OPLS-2005>
0.445036232471466

$$$$
75
                    3D
 Structure written by MMmdl.
155163  0  0  1  0            999 V2000
  -30.6712  -14.5055   20.5470 C   0  0  0  0  0  0
  -30.4261  -12.3206   19.4273 C   0  0  0  0  0  0
  -29.4988  -12.5057   18.2083 C   0  0  0  0  0  0
  -28.0201  -12.3619   18.6190 C   0  0  0  0  0  0
  -27.6612  -13.2070   19.8705 C   0  0  2  0  0  0
  -28.7030  -12.9927   20.9918 C   0  0  0  0  0  0
  -25.2629  -13.8167   20.5698 C   0  0  0  0  0  0
  -24.1885  -13.0469   20.9205 C   0  0  0  0  0  0
  -24.6418  -11.6923   20.8744 C   0  0  0  0  0  0
  -23.9084  -10.4303   21.0398 C   0  0  0  0  0  0
  -24.3627   -9.4218   21.9172 C   0  0  0  0  0  0
  -23.6317   -8.2250   22.0737 C   0  0  0  0  0  0
  -22.4289   -8.0298   21.3545 C   0  0  0  0  0  0
  -21.9925   -9.0260   20.4638 C   0  0  0  0  0  0
  -22.7250  -10.2140   20.3049 C   0  0  0  0  0  0
  -21.6866   -6.0768   22.5299 C   0  0  0  0  0  0
  -21.4014   -6.5660   23.8236 C   0  0  0  0  0  0
  -21.3646   -5.6797   24.9186 C   0  0  0  0  0  0
  -21.6037   -4.3061   24.7221 C   0  0  0  0  0  0
  -21.8816   -3.8171   23.4333 C   0  0  0  0  0  0
  -21.9193   -4.6997   22.3405 C   0  0  0  0  0  0
  -22.7897  -13.5259   21.1857 C   0  0  0  0  0  0
  -22.1669   -4.2203   21.0976 F   0  0  0  0  0  0
  -21.5616   -3.4531   25.7713 F   0  0  0  0  0  0
  -30.0330  -13.3078   20.4445 N   0  0  0  0  0  0
  -26.3040  -12.9334   20.3325 N   0  0  0  0  0  0
  -25.9343  -11.6501   20.5740 N   0  0  0  0  0  0
  -22.0513  -12.8262   22.0390 N   0  0  0  0  0  0
  -25.4381  -15.1897   20.4155 N   0  0  0  0  0  0
  -31.7977  -14.7040   20.0870 O   0  0  0  0  0  0
  -21.6644   -6.8906   21.4262 O   0  0  0  0  0  0
  -22.3592  -14.5563   20.6688 O   0  0  0  0  0  0
  -24.6147  -31.8686   23.2042 C   0  0  0  0  0  0
  -25.9057  -32.4813   23.8349 C   0  0  1  0  0  0
  -27.2391  -27.4141   20.0908 C   0  0  0  0  0  0
  -25.5946  -33.8616   24.2310 N   0  0  0  0  0  0
  -23.4026  -30.4931   21.5432 C   0  0  2  0  0  0
  -24.8475  -28.9541   20.1094 C   0  0  0  0  0  0
  -22.7405  -29.4692   22.4927 C   0  0  0  0  0  0
  -18.0284  -28.1380   22.8507 C   0  0  0  0  0  0
  -24.1497  -36.7283   23.2635 C   0  0  0  0  0  0
  -25.9347  -30.8266   21.3611 C   0  0  0  0  0  0
  -26.0074  -29.4573   20.7098 C   0  0  0  0  0  0
  -27.1996  -28.6960   20.6957 C   0  0  0  0  0  0
  -26.0492  -26.9219   19.4992 C   0  0  0  0  0  0
  -24.8657  -27.6870   19.5024 C   0  0  0  0  0  0
  -23.6101  -29.8223   20.1588 C   0  0  0  0  0  0
  -25.4123  -36.3080   24.0331 C   0  0  1  0  0  0
  -20.5883  -28.3694   23.1289 C   0  0  2  0  0  0
  -20.6788  -26.9424   22.5422 C   0  0  0  0  0  0
  -19.5762  -26.6390   21.5226 C   0  0  0  0  0  0
  -18.1924  -26.7927   22.1617 C   0  0  0  0  0  0
  -19.1539  -28.8847   23.2902 C   0  0  0  0  0  0
  -18.9473  -30.1452   23.8911 C   0  0  0  0  0  0
  -17.6478  -30.6591   24.0578 C   0  0  0  0  0  0
  -25.9075  -34.9468   23.5109 C   0  0  0  0  0  0
  -16.5363  -29.9098   23.6338 C   0  0  0  0  0  0
  -16.7274  -28.6509   23.0360 C   0  0  0  0  0  0
  -26.4517  -31.6567   25.0647 C   0  0  0  0  0  0
  -25.3807  -31.3676   26.1403 C   0  0  0  0  0  0
  -27.0363  -30.3003   24.6039 C   0  0  0  0  0  0
  -27.6076  -32.4286   25.7428 C   0  0  0  0  0  0
  -27.5580  -37.1783   24.8479 C   0  0  0  0  0  0
  -21.4130  -29.3043   22.3656 N   0  0  0  0  0  0
  -26.4291  -37.3777   23.9417 N   0  0  0  0  0  0
  -24.6688  -31.0793   22.0933 N   0  0  0  0  0  0
  -23.4184  -28.8265   23.2988 O   0  0  0  0  0  0
  -28.4389  -26.7183   20.0989 O   0  0  0  0  0  0
  -26.5625  -34.8926   22.4667 O   0  0  0  0  0  0
  -23.5335  -32.1430   23.7449 O   0  0  0  0  0  0
  -30.8712  -17.5817   19.9918 C   0  0  0  0  0  0
  -29.1319  -17.7535   21.6439 C   0  0  0  0  0  0
  -30.0084  -16.9266   20.9062 C   0  0  0  0  0  0
  -30.8202  -18.9892   19.8698 C   0  0  0  0  0  0
  -29.8989  -19.7201   20.6550 C   0  0  0  0  0  0
  -28.5939  -24.2846   20.5973 C   0  0  0  0  0  0
  -27.9031  -22.9137   20.2634 C   0  0  0  0  0  0
  -30.7937  -21.8335   21.6871 C   0  0  0  0  0  0
  -28.5576  -25.3951   19.5177 C   0  0  0  0  0  0
  -29.8546  -21.2648   20.6067 C   0  0  2  0  0  0
  -29.0676  -19.1046   21.5329 N   0  0  0  0  0  0
  -29.9352  -15.4971   21.0993 N   0  0  0  0  0  0
  -28.4704  -21.7686   20.7173 N   0  0  0  0  0  0
  -29.0955  -24.5083   21.7059 O   0  0  0  0  0  0
  -26.7836  -22.8905   19.7432 O   0  0  0  0  0  0
  -31.6580  -19.6274   19.0171 F   0  0  0  0  0  0
  -31.4714  -12.4214   19.1326 H   0  0  0  0  0  0
  -30.3278  -11.3117   19.8286 H   0  0  0  0  0  0
  -29.7438  -11.7761   17.4349 H   0  0  0  0  0  0
  -29.6657  -13.4887   17.7644 H   0  0  0  0  0  0
  -27.8416  -11.3059   18.8250 H   0  0  0  0  0  0
  -27.3679  -12.6214   17.7831 H   0  0  0  0  0  0
  -27.7006  -14.2530   19.5646 H   0  0  0  0  0  0
  -28.6820  -11.9567   21.3307 H   0  0  0  0  0  0
  -28.4554  -13.5847   21.8740 H   0  0  0  0  0  0
  -25.2765   -9.5711   22.4758 H   0  0  0  0  0  0
  -24.0037   -7.4639   22.7440 H   0  0  0  0  0  0
  -21.0879   -8.8778   19.8944 H   0  0  0  0  0  0
  -22.3706  -10.9686   19.6162 H   0  0  0  0  0  0
  -21.2005   -7.6167   23.9763 H   0  0  0  0  0  0
  -21.1473   -6.0516   25.9094 H   0  0  0  0  0  0
  -22.0602   -2.7648   23.2813 H   0  0  0  0  0  0
  -22.4098  -11.9927   22.4822 H   0  0  0  0  0  0
  -21.1113  -13.1287   22.2537 H   0  0  0  0  0  0
  -24.6767  -15.8478   20.5346 H   0  0  0  0  0  0
  -26.2904  -15.6235   20.0864 H   0  0  0  0  0  0
  -26.7122  -32.5519   23.1107 H   0  0  0  0  0  0
  -25.0134  -33.9813   25.0485 H   0  0  0  0  0  0
  -22.6864  -31.3080   21.4036 H   0  0  0  0  0  0
  -23.3748  -35.9627   23.3304 H   0  0  0  0  0  0
  -24.3593  -36.8884   22.2047 H   0  0  0  0  0  0
  -23.7263  -37.6493   23.6657 H   0  0  0  0  0  0
  -26.0585  -31.5899   20.5912 H   0  0  0  0  0  0
  -26.8208  -30.8737   21.9830 H   0  0  0  0  0  0
  -28.0936  -29.0987   21.1509 H   0  0  0  0  0  0
  -26.0009  -25.9521   19.0299 H   0  0  0  0  0  0
  -23.9732  -27.2919   19.0367 H   0  0  0  0  0  0
  -23.7100  -30.5951   19.3952 H   0  0  0  0  0  0
  -22.7341  -29.2370   19.8729 H   0  0  0  0  0  0
  -25.1293  -36.1910   25.0821 H   0  0  0  0  0  0
  -21.0012  -28.3279   24.1400 H   0  0  0  0  0  0
  -20.5713  -26.2303   23.3625 H   0  0  0  0  0  0
  -21.6648  -26.7477   22.1201 H   0  0  0  0  0  0
  -19.6935  -25.6311   21.1235 H   0  0  0  0  0  0
  -19.6683  -27.3217   20.6770 H   0  0  0  0  0  0
  -17.4217  -26.6708   21.3989 H   0  0  0  0  0  0
  -18.0292  -26.0058   22.8999 H   0  0  0  0  0  0
  -19.7962  -30.7271   24.2241 H   0  0  0  0  0  0
  -17.5048  -31.6276   24.5179 H   0  0  0  0  0  0
  -15.5367  -30.3020   23.7660 H   0  0  0  0  0  0
  -15.8667  -28.0854   22.7054 H   0  0  0  0  0  0
  -24.6004  -30.6992   25.7742 H   0  0  0  0  0  0
  -24.8988  -32.2832   26.4828 H   0  0  0  0  0  0
  -25.8186  -30.8865   27.0162 H   0  0  0  0  0  0
  -26.2890  -29.6677   24.1220 H   0  0  0  0  0  0
  -27.4269  -29.7299   25.4479 H   0  0  0  0  0  0
  -27.8669  -30.4285   23.9096 H   0  0  0  0  0  0
  -27.2700  -33.3597   26.2005 H   0  0  0  0  0  0
  -28.3912  -32.6828   25.0271 H   0  0  0  0  0  0
  -28.0729  -31.8407   26.5353 H   0  0  0  0  0  0
  -28.2606  -38.0071   24.7513 H   0  0  0  0  0  0
  -28.1062  -36.2601   24.6304 H   0  0  0  0  0  0
  -27.2319  -37.1430   25.8890 H   0  0  0  0  0  0
  -20.9260  -29.8671   21.6827 H   0  0  0  0  0  0
  -26.0148  -38.2849   24.1400 H   0  0  0  0  0  0
  -31.5685  -17.0370   19.3741 H   0  0  0  0  0  0
  -28.4445  -17.3071   22.3479 H   0  0  0  0  0  0
  -30.4178  -21.6337   22.6916 H   0  0  0  0  0  0
  -30.9651  -22.9020   21.5809 H   0  0  0  0  0  0
  -31.7735  -21.3608   21.6154 H   0  0  0  0  0  0
  -29.5240  -25.3669   19.0116 H   0  0  0  0  0  0
  -27.8318  -25.1762   18.7384 H   0  0  0  0  0  0
  -30.2318  -21.5654   19.6290 H   0  0  0  0  0  0
  -29.1115  -15.1677   21.5831 H   0  0  0  0  0  0
  -27.8275  -20.9910   20.7728 H   0  0  0  0  0  0
  1 25  1  0  0  0
  1 30  2  0  0  0
  1 82  1  0  0  0
  2  3  1  0  0  0
  2 25  1  0  0  0
  2 87  1  0  0  0
  2 88  1  0  0  0
  3  4  1  0  0  0
  3 89  1  0  0  0
  3 90  1  0  0  0
  4  5  1  0  0  0
  4 91  1  0  0  0
  4 92  1  0  0  0
  5  6  1  0  0  0
  5 26  1  0  0  0
  5 93  1  0  0  0
  6 25  1  0  0  0
  6 94  1  0  0  0
  6 95  1  0  0  0
  7  8  2  0  0  0
  7 26  1  0  0  0
  7 29  1  0  0  0
  8  9  1  0  0  0
  8 22  1  0  0  0
  9 10  1  0  0  0
  9 27  2  0  0  0
 10 11  2  0  0  0
 10 15  1  0  0  0
 11 12  1  0  0  0
 11 96  1  0  0  0
 12 13  2  0  0  0
 12 97  1  0  0  0
 13 14  1  0  0  0
 13 31  1  0  0  0
 14 15  2  0  0  0
 14 98  1  0  0  0
 15 99  1  0  0  0
 16 17  2  0  0  0
 16 21  1  0  0  0
 16 31  1  0  0  0
 17 18  1  0  0  0
 17100  1  0  0  0
 18 19  2  0  0  0
 18101  1  0  0  0
 19 20  1  0  0  0
 19 24  1  0  0  0
 20 21  2  0  0  0
 20102  1  0  0  0
 21 23  1  0  0  0
 22 28  1  0  0  0
 22 32  2  0  0  0
 26 27  1  0  0  0
 28103  1  0  0  0
 28104  1  0  0  0
 29105  1  0  0  0
 29106  1  0  0  0
 33 34  1  0  0  0
 33 66  1  0  0  0
 33 70  2  0  0  0
 34 36  1  0  0  0
 34 59  1  0  0  0
 34107  1  0  0  0
 35 44  2  0  0  0
 35 45  1  0  0  0
 35 68  1  0  0  0
 36 56  1  0  0  0
 36108  1  0  0  0
 37 39  1  0  0  0
 37 47  1  0  0  0
 37 66  1  0  0  0
 37109  1  0  0  0
 38 43  2  0  0  0
 38 46  1  0  0  0
 38 47  1  0  0  0
 39 64  1  0  0  0
 39 67  2  0  0  0
 40 52  1  0  0  0
 40 53  2  0  0  0
 40 58  1  0  0  0
 41110  1  0  0  0
 41111  1  0  0  0
 41112  1  0  0  0
 41 48  1  0  0  0
 42 43  1  0  0  0
 42 66  1  0  0  0
 42113  1  0  0  0
 42114  1  0  0  0
 43 44  1  0  0  0
 44115  1  0  0  0
 45 46  2  0  0  0
 45116  1  0  0  0
 46117  1  0  0  0
 47118  1  0  0  0
 47119  1  0  0  0
 48 56  1  0  0  0
 48 65  1  0  0  0
 48120  1  0  0  0
 49 50  1  0  0  0
 49 53  1  0  0  0
 49 64  1  0  0  0
 49121  1  0  0  0
 50 51  1  0  0  0
 50122  1  0  0  0
 50123  1  0  0  0
 51 52  1  0  0  0
 51124  1  0  0  0
 51125  1  0  0  0
 52126  1  0  0  0
 52127  1  0  0  0
 53 54  1  0  0  0
 54 55  2  0  0  0
 54128  1  0  0  0
 55 57  1  0  0  0
 55129  1  0  0  0
 56 69  2  0  0  0
 57 58  2  0  0  0
 57130  1  0  0  0
 58131  1  0  0  0
 59 60  1  0  0  0
 59 61  1  0  0  0
 59 62  1  0  0  0
 60132  1  0  0  0
 60133  1  0  0  0
 60134  1  0  0  0
 61135  1  0  0  0
 61136  1  0  0  0
 61137  1  0  0  0
 62138  1  0  0  0
 62139  1  0  0  0
 62140  1  0  0  0
 63 65  1  0  0  0
 63141  1  0  0  0
 63142  1  0  0  0
 63143  1  0  0  0
 64144  1  0  0  0
 65145  1  0  0  0
 68 79  1  0  0  0
 71 73  2  0  0  0
 71 74  1  0  0  0
 71146  1  0  0  0
 72 73  1  0  0  0
 72 81  2  0  0  0
 72147  1  0  0  0
 73 82  1  0  0  0
 74 75  2  0  0  0
 74 86  1  0  0  0
 75 80  1  0  0  0
 75 81  1  0  0  0
 76 77  1  0  0  0
 76 79  1  0  0  0
 76 84  2  0  0  0
 77 83  1  0  0  0
 77 85  2  0  0  0
 78148  1  0  0  0
 78149  1  0  0  0
 78150  1  0  0  0
 78 80  1  0  0  0
 79151  1  0  0  0
 79152  1  0  0  0
 80 83  1  0  0  0
 80153  1  0  0  0
 82154  1  0  0  0
 83155  1  0  0  0
M  ISO  4   1 100  68 101  79 101  82 100
M  END
> <chiral flag>
0

> <version>
0

> <s_m_source_file>
/data/baiqing/PycharmProjects/Reinvent-master-3.2/result/LINK_invent/BTK/process_docking_weight1_custom_product_contain_oxygen_bond_distance_aromatic_linkinvent_7_9_3/rearranged_h_0171.sdf

> <i_m_source_file_index>
76

> <r_mmod_Potential_Energy-OPLS-2005>
-158.728302001953

> <r_mmod_Stretch_Energy-OPLS-2005>
46.8072319030762

> <r_mmod_Bend_Energy-OPLS-2005>
128.149795532227

> <r_mmod_Torsional_Energy-OPLS-2005>
234.268981933594

> <r_mmod_Improper_Torsional_Energy-OPLS-2005>
7.76206302642822

> <r_mmod_Van_der_Waal_Energy-OPLS-2005>
153.795486450195

> <r_mmod_Electrostatic_Energy-OPLS-2005>
-500.772216796875

> <r_mmod_Solvation_Energy-OPLS-2005>
-244.524398803711

> <b_mmod_Minimization_Converged-OPLS-2005>
0

> <r_mmod_RMS_Derivative-OPLS-2005>
3.84143686294556

$$$$
76
                    3D
 Structure written by MMmdl.
165174  0  0  1  0            999 V2000
  -30.7061  -14.4803   20.5615 C   0  0  0  0  0  0
  -30.4221  -12.3063   19.4322 C   0  0  0  0  0  0
  -29.4978  -12.4989   18.2123 C   0  0  0  0  0  0
  -28.0191  -12.3581   18.6237 C   0  0  0  0  0  0
  -27.6618  -13.2077   19.8727 C   0  0  2  0  0  0
  -28.7019  -13.0031   20.9980 C   0  0  0  0  0  0
  -25.2590  -13.8162   20.5672 C   0  0  0  0  0  0
  -24.1841  -13.0440   20.9174 C   0  0  0  0  0  0
  -24.6393  -11.6908   20.8734 C   0  0  0  0  0  0
  -23.9056  -10.4292   21.0399 C   0  0  0  0  0  0
  -24.3611   -9.4205   21.9172 C   0  0  0  0  0  0
  -23.6287   -8.2241   22.0745 C   0  0  0  0  0  0
  -22.4268   -8.0281   21.3546 C   0  0  0  0  0  0
  -21.9902   -9.0254   20.4649 C   0  0  0  0  0  0
  -22.7228  -10.2131   20.3049 C   0  0  0  0  0  0
  -21.6852   -6.0729   22.5275 C   0  0  0  0  0  0
  -21.4013   -6.5630   23.8210 C   0  0  0  0  0  0
  -21.3657   -5.6779   24.9171 C   0  0  0  0  0  0
  -21.6043   -4.3045   24.7220 C   0  0  0  0  0  0
  -21.8821   -3.8138   23.4342 C   0  0  0  0  0  0
  -21.9194   -4.6954   22.3398 C   0  0  0  0  0  0
  -22.7863  -13.5241   21.1833 C   0  0  0  0  0  0
  -22.1664   -4.2147   21.0976 F   0  0  0  0  0  0
  -21.5627   -3.4528   25.7730 F   0  0  0  0  0  0
  -30.0354  -13.3003   20.4478 N   0  0  0  0  0  0
  -26.3023  -12.9334   20.3349 N   0  0  0  0  0  0
  -25.9321  -11.6493   20.5755 N   0  0  0  0  0  0
  -22.0500  -12.8249   22.0399 N   0  0  0  0  0  0
  -25.4314  -15.1880   20.4060 N   0  0  0  0  0  0
  -31.8406  -14.6316   20.0983 O   0  0  0  0  0  0
  -21.6638   -6.8872   21.4239 O   0  0  0  0  0  0
  -22.3553  -14.5543   20.6672 O   0  0  0  0  0  0
  -24.6164  -31.8673   23.2105 C   0  0  0  0  0  0
  -25.9058  -32.4814   23.8391 C   0  0  1  0  0  0
  -27.2295  -27.4176   20.0891 C   0  0  0  0  0  0
  -25.5915  -33.8612   24.2327 N   0  0  0  0  0  0
  -23.4038  -30.4937   21.5514 C   0  0  2  0  0  0
  -24.8472  -28.9612   20.1138 C   0  0  0  0  0  0
  -22.7415  -29.4660   22.4983 C   0  0  0  0  0  0
  -18.0276  -28.1381   22.8482 C   0  0  0  0  0  0
  -24.1489  -36.7305   23.2634 C   0  0  0  0  0  0
  -25.9359  -30.8266   21.3677 C   0  0  0  0  0  0
  -26.0099  -29.4612   20.7124 C   0  0  0  0  0  0
  -27.2011  -28.6961   20.6993 C   0  0  0  0  0  0
  -26.0414  -26.9418   19.4816 C   0  0  0  0  0  0
  -24.8586  -27.7011   19.4976 C   0  0  0  0  0  0
  -23.6115  -29.8300   20.1650 C   0  0  0  0  0  0
  -25.4106  -36.3101   24.0339 C   0  0  1  0  0  0
  -20.5865  -28.3669   23.1316 C   0  0  2  0  0  0
  -20.6765  -26.9399   22.5431 C   0  0  0  0  0  0
  -19.5758  -26.6385   21.5211 C   0  0  0  0  0  0
  -18.1923  -26.7938   22.1593 C   0  0  0  0  0  0
  -19.1523  -28.8840   23.2897 C   0  0  0  0  0  0
  -18.9452  -30.1447   23.8905 C   0  0  0  0  0  0
  -17.6454  -30.6584   24.0564 C   0  0  0  0  0  0
  -25.9036  -34.9471   23.5125 C   0  0  0  0  0  0
  -16.5345  -29.9084   23.6328 C   0  0  0  0  0  0
  -16.7264  -28.6504   23.0340 C   0  0  0  0  0  0
  -26.4484  -31.6594   25.0722 C   0  0  0  0  0  0
  -25.3755  -31.3737   26.1483 C   0  0  0  0  0  0
  -27.0283  -30.3017   24.6115 C   0  0  0  0  0  0
  -27.6081  -32.4302   25.7461 C   0  0  0  0  0  0
  -27.5594  -37.1786   24.8449 C   0  0  0  0  0  0
  -21.4143  -29.3034   22.3716 N   0  0  0  0  0  0
  -26.4288  -37.3791   23.9421 N   0  0  0  0  0  0
  -24.6703  -31.0770   22.1009 N   0  0  0  0  0  0
  -23.4183  -28.8191   23.3017 O   0  0  0  0  0  0
  -28.4001  -26.6751   20.1143 O   0  0  0  0  0  0
  -26.5587  -34.8924   22.4679 O   0  0  0  0  0  0
  -23.5357  -32.1426   23.7497 O   0  0  0  0  0  0
  -29.2264  -17.7677   21.5195 C   0  0  0  0  0  0
  -30.3426  -19.6518   20.7628 C   0  0  0  0  0  0
  -30.2149  -16.9083   20.9675 C   0  0  0  0  0  0
  -31.3451  -18.8083   20.2142 C   0  0  0  0  0  0
  -30.9757  -23.3806   21.9049 C   0  0  0  0  0  0
  -30.6441  -21.8760   22.0015 C   0  0  0  0  0  0
  -29.2727  -21.8220   19.8359 C   0  0  0  0  0  0
  -29.7944  -24.2705   21.4571 C   0  0  0  0  0  0
  -29.6588  -23.1459   19.1216 C   0  0  0  0  0  0
  -30.4346  -21.1862   20.6408 C   0  0  2  0  0  0
  -29.6434  -24.4879   19.9308 C   0  0  1  0  0  0
  -30.8605  -25.7532   18.2172 C   0  0  0  0  0  0
  -28.3473  -25.3130   19.6442 C   0  0  0  0  0  0
  -29.2790  -19.1239   21.4243 N   0  0  0  0  0  0
  -31.2753  -17.4589   20.3179 N   0  0  0  0  0  0
  -30.0051  -15.4972   21.1071 N   0  0  0  0  0  0
  -30.8000  -25.2485   19.5513 O   0  0  0  0  0  0
  -32.4105  -19.3366   19.5659 F   0  0  0  0  0  0
  -31.4674  -12.3947   19.1305 H   0  0  0  0  0  0
  -30.3167  -11.2990   19.8382 H   0  0  0  0  0  0
  -29.7410  -11.7701   17.4375 H   0  0  0  0  0  0
  -29.6672  -13.4820   17.7707 H   0  0  0  0  0  0
  -27.8352  -11.3031   18.8313 H   0  0  0  0  0  0
  -27.3685  -12.6211   17.7888 H   0  0  0  0  0  0
  -27.7028  -14.2525   19.5641 H   0  0  0  0  0  0
  -28.6775  -11.9724   21.3544 H   0  0  0  0  0  0
  -28.4598  -13.6157   21.8671 H   0  0  0  0  0  0
  -25.2760   -9.5678   22.4739 H   0  0  0  0  0  0
  -24.0003   -7.4628   22.7458 H   0  0  0  0  0  0
  -21.0831   -8.8769   19.8959 H   0  0  0  0  0  0
  -22.3684  -10.9666   19.6152 H   0  0  0  0  0  0
  -21.2007   -7.6134   23.9710 H   0  0  0  0  0  0
  -21.1474   -6.0508   25.9073 H   0  0  0  0  0  0
  -22.0603   -2.7603   23.2839 H   0  0  0  0  0  0
  -22.4097  -11.9909   22.4804 H   0  0  0  0  0  0
  -21.1123  -13.1296   22.2593 H   0  0  0  0  0  0
  -24.6607  -15.8409   20.4968 H   0  0  0  0  0  0
  -26.2738  -15.6201   20.0483 H   0  0  0  0  0  0
  -26.7120  -32.5519   23.1142 H   0  0  0  0  0  0
  -25.0107  -33.9777   25.0502 H   0  0  0  0  0  0
  -22.6933  -31.3114   21.4143 H   0  0  0  0  0  0
  -23.3757  -35.9628   23.3278 H   0  0  0  0  0  0
  -24.3597  -36.8936   22.2053 H   0  0  0  0  0  0
  -23.7230  -37.6501   23.6658 H   0  0  0  0  0  0
  -26.0559  -31.5940   20.6016 H   0  0  0  0  0  0
  -26.8217  -30.8745   21.9894 H   0  0  0  0  0  0
  -28.0973  -29.0785   21.1682 H   0  0  0  0  0  0
  -25.9941  -25.9832   18.9876 H   0  0  0  0  0  0
  -23.9646  -27.3102   19.0315 H   0  0  0  0  0  0
  -23.7211  -30.6050   19.4056 H   0  0  0  0  0  0
  -22.7345  -29.2512   19.8694 H   0  0  0  0  0  0
  -25.1274  -36.1961   25.0830 H   0  0  0  0  0  0
  -20.9966  -28.3245   24.1432 H   0  0  0  0  0  0
  -20.5654  -26.2274   23.3618 H   0  0  0  0  0  0
  -21.6644  -26.7433   22.1241 H   0  0  0  0  0  0
  -19.6921  -25.6296   21.1240 H   0  0  0  0  0  0
  -19.6722  -27.3196   20.6741 H   0  0  0  0  0  0
  -17.4215  -26.6721   21.3965 H   0  0  0  0  0  0
  -18.0283  -26.0065   22.8968 H   0  0  0  0  0  0
  -19.7932  -30.7263   24.2276 H   0  0  0  0  0  0
  -17.5011  -31.6265   24.5168 H   0  0  0  0  0  0
  -15.5345  -30.2984   23.7653 H   0  0  0  0  0  0
  -15.8663  -28.0830   22.7041 H   0  0  0  0  0  0
  -24.5957  -30.7024   25.7868 H   0  0  0  0  0  0
  -24.8905  -32.2900   26.4860 H   0  0  0  0  0  0
  -25.8126  -30.8997   27.0279 H   0  0  0  0  0  0
  -26.2804  -29.6792   24.1187 H   0  0  0  0  0  0
  -27.4042  -29.7254   25.4579 H   0  0  0  0  0  0
  -27.8661  -30.4299   23.9257 H   0  0  0  0  0  0
  -27.2721  -33.3591   26.2080 H   0  0  0  0  0  0
  -28.3855  -32.6875   25.0255 H   0  0  0  0  0  0
  -28.0788  -31.8399   26.5332 H   0  0  0  0  0  0
  -28.2594  -38.0101   24.7525 H   0  0  0  0  0  0
  -28.1102  -36.2636   24.6208 H   0  0  0  0  0  0
  -27.2333  -37.1375   25.8858 H   0  0  0  0  0  0
  -20.9299  -29.8754   21.6941 H   0  0  0  0  0  0
  -26.0177  -38.2862   24.1452 H   0  0  0  0  0  0
  -28.3697  -17.3620   22.0393 H   0  0  0  0  0  0
  -31.8465  -23.5450   21.2686 H   0  0  0  0  0  0
  -31.2783  -23.7107   22.8992 H   0  0  0  0  0  0
  -29.7749  -21.7215   22.6422 H   0  0  0  0  0  0
  -31.4752  -21.3825   22.5075 H   0  0  0  0  0  0
  -29.0018  -21.1174   19.0485 H   0  0  0  0  0  0
  -28.3759  -21.9316   20.4458 H   0  0  0  0  0  0
  -29.9121  -25.2510   21.9205 H   0  0  0  0  0  0
  -28.8673  -23.8754   21.8744 H   0  0  0  0  0  0
  -29.0110  -23.2558   18.2508 H   0  0  0  0  0  0
  -30.6497  -22.9995   18.6919 H   0  0  0  0  0  0
  -31.3441  -21.3690   20.0687 H   0  0  0  0  0  0
  -31.8370  -26.2092   18.0535 H   0  0  0  0  0  0
  -30.1150  -26.5275   18.0373 H   0  0  0  0  0  0
  -30.7371  -24.9732   17.4663 H   0  0  0  0  0  0
  -27.5095  -24.7863   20.1041 H   0  0  0  0  0  0
  -28.1505  -25.3338   18.5710 H   0  0  0  0  0  0
  -29.1291  -15.2280   21.5262 H   0  0  0  0  0  0
  1 25  1  0  0  0
  1 30  2  0  0  0
  1 86  1  0  0  0
  2  3  1  0  0  0
  2 25  1  0  0  0
  2 89  1  0  0  0
  2 90  1  0  0  0
  3  4  1  0  0  0
  3 91  1  0  0  0
  3 92  1  0  0  0
  4  5  1  0  0  0
  4 93  1  0  0  0
  4 94  1  0  0  0
  5  6  1  0  0  0
  5 26  1  0  0  0
  5 95  1  0  0  0
  6 25  1  0  0  0
  6 96  1  0  0  0
  6 97  1  0  0  0
  7  8  2  0  0  0
  7 26  1  0  0  0
  7 29  1  0  0  0
  8  9  1  0  0  0
  8 22  1  0  0  0
  9 10  1  0  0  0
  9 27  2  0  0  0
 10 11  2  0  0  0
 10 15  1  0  0  0
 11 12  1  0  0  0
 11 98  1  0  0  0
 12 13  2  0  0  0
 12 99  1  0  0  0
 13 14  1  0  0  0
 13 31  1  0  0  0
 14 15  2  0  0  0
 14100  1  0  0  0
 15101  1  0  0  0
 16 17  2  0  0  0
 16 21  1  0  0  0
 16 31  1  0  0  0
 17 18  1  0  0  0
 17102  1  0  0  0
 18 19  2  0  0  0
 18103  1  0  0  0
 19 20  1  0  0  0
 19 24  1  0  0  0
 20 21  2  0  0  0
 20104  1  0  0  0
 21 23  1  0  0  0
 22 28  1  0  0  0
 22 32  2  0  0  0
 26 27  1  0  0  0
 28105  1  0  0  0
 28106  1  0  0  0
 29107  1  0  0  0
 29108  1  0  0  0
 33 34  1  0  0  0
 33 66  1  0  0  0
 33 70  2  0  0  0
 34 36  1  0  0  0
 34 59  1  0  0  0
 34109  1  0  0  0
 35 44  2  0  0  0
 35 45  1  0  0  0
 35 68  1  0  0  0
 36 56  1  0  0  0
 36110  1  0  0  0
 37 39  1  0  0  0
 37 47  1  0  0  0
 37 66  1  0  0  0
 37111  1  0  0  0
 38 43  2  0  0  0
 38 46  1  0  0  0
 38 47  1  0  0  0
 39 64  1  0  0  0
 39 67  2  0  0  0
 40 52  1  0  0  0
 40 53  2  0  0  0
 40 58  1  0  0  0
 41112  1  0  0  0
 41113  1  0  0  0
 41114  1  0  0  0
 41 48  1  0  0  0
 42 43  1  0  0  0
 42 66  1  0  0  0
 42115  1  0  0  0
 42116  1  0  0  0
 43 44  1  0  0  0
 44117  1  0  0  0
 45 46  2  0  0  0
 45118  1  0  0  0
 46119  1  0  0  0
 47120  1  0  0  0
 47121  1  0  0  0
 48 56  1  0  0  0
 48 65  1  0  0  0
 48122  1  0  0  0
 49 50  1  0  0  0
 49 53  1  0  0  0
 49 64  1  0  0  0
 49123  1  0  0  0
 50 51  1  0  0  0
 50124  1  0  0  0
 50125  1  0  0  0
 51 52  1  0  0  0
 51126  1  0  0  0
 51127  1  0  0  0
 52128  1  0  0  0
 52129  1  0  0  0
 53 54  1  0  0  0
 54 55  2  0  0  0
 54130  1  0  0  0
 55 57  1  0  0  0
 55131  1  0  0  0
 56 69  2  0  0  0
 57 58  2  0  0  0
 57132  1  0  0  0
 58133  1  0  0  0
 59 60  1  0  0  0
 59 61  1  0  0  0
 59 62  1  0  0  0
 60134  1  0  0  0
 60135  1  0  0  0
 60136  1  0  0  0
 61137  1  0  0  0
 61138  1  0  0  0
 61139  1  0  0  0
 62140  1  0  0  0
 62141  1  0  0  0
 62142  1  0  0  0
 63 65  1  0  0  0
 63143  1  0  0  0
 63144  1  0  0  0
 63145  1  0  0  0
 64146  1  0  0  0
 65147  1  0  0  0
 68 83  1  0  0  0
 71 73  2  0  0  0
 71 84  1  0  0  0
 71148  1  0  0  0
 72 74  1  0  0  0
 72 84  2  0  0  0
 72 80  1  0  0  0
 73 85  1  0  0  0
 73 86  1  0  0  0
 74 85  2  0  0  0
 74 88  1  0  0  0
 75 76  1  0  0  0
 75 78  1  0  0  0
 75149  1  0  0  0
 75150  1  0  0  0
 76 80  1  0  0  0
 76151  1  0  0  0
 76152  1  0  0  0
 77 79  1  0  0  0
 77 80  1  0  0  0
 77153  1  0  0  0
 77154  1  0  0  0
 78 81  1  0  0  0
 78155  1  0  0  0
 78156  1  0  0  0
 79 81  1  0  0  0
 79157  1  0  0  0
 79158  1  0  0  0
 80159  1  0  0  0
 81 83  1  0  0  0
 81 87  1  0  0  0
 82 87  1  0  0  0
 82160  1  0  0  0
 82161  1  0  0  0
 82162  1  0  0  0
 83163  1  0  0  0
 83164  1  0  0  0
 86165  1  0  0  0
M  ISO  4   1 100  68 101  83 101  86 100
M  END
> <chiral flag>
0

> <version>
0

> <s_m_source_file>
/data/baiqing/PycharmProjects/Reinvent-master-3.2/result/LINK_invent/BTK/process_docking_weight1_custom_product_contain_oxygen_bond_distance_aromatic_linkinvent_7_9_3/rearranged_h_0171.sdf

> <i_m_source_file_index>
77

> <r_mmod_Potential_Energy-OPLS-2005>
73.1902847290039

> <r_mmod_Stretch_Energy-OPLS-2005>
46.7031326293945

> <r_mmod_Bend_Energy-OPLS-2005>
118.547523498535

> <r_mmod_Torsional_Energy-OPLS-2005>
227.797454833984

> <r_mmod_Improper_Torsional_Energy-OPLS-2005>
3.32254242897034

> <r_mmod_Van_der_Waal_Energy-OPLS-2005>
172.013565063477

> <r_mmod_Electrostatic_Energy-OPLS-2005>
-280.084381103516

> <r_mmod_Solvation_Energy-OPLS-2005>
-230.25080871582

> <b_mmod_Minimization_Converged-OPLS-2005>
0

> <r_mmod_RMS_Derivative-OPLS-2005>
0.951394081115723

$$$$
77
                    3D
 Structure written by MMmdl.
153161  0  0  1  0            999 V2000
  -30.5132  -15.0135   20.4019 C   0  0  0  0  0  0
  -30.4403  -12.6305   19.4914 C   0  0  0  0  0  0
  -29.5231  -12.5515   18.2483 C   0  0  0  0  0  0
  -28.0578  -12.3287   18.6697 C   0  0  0  0  0  0
  -27.6290  -13.2560   19.8376 C   0  0  2  0  0  0
  -28.6753  -13.3022   20.9710 C   0  0  0  0  0  0
  -25.2475  -13.8233   20.5710 C   0  0  0  0  0  0
  -24.1820  -13.0438   20.9233 C   0  0  0  0  0  0
  -24.6450  -11.6921   20.8783 C   0  0  0  0  0  0
  -23.9146  -10.4287   21.0431 C   0  0  0  0  0  0
  -24.3678   -9.4194   21.9205 C   0  0  0  0  0  0
  -23.6323   -8.2242   22.0778 C   0  0  0  0  0  0
  -22.4290   -8.0307   21.3573 C   0  0  0  0  0  0
  -21.9961   -9.0293   20.4678 C   0  0  0  0  0  0
  -22.7319  -10.2152   20.3083 C   0  0  0  0  0  0
  -21.6862   -6.0763   22.5292 C   0  0  0  0  0  0
  -21.4021   -6.5663   23.8230 C   0  0  0  0  0  0
  -21.3658   -5.6813   24.9186 C   0  0  0  0  0  0
  -21.6035   -4.3072   24.7230 C   0  0  0  0  0  0
  -21.8817   -3.8169   23.4356 C   0  0  0  0  0  0
  -21.9200   -4.6994   22.3411 C   0  0  0  0  0  0
  -22.7832  -13.5199   21.1864 C   0  0  0  0  0  0
  -22.1655   -4.2185   21.0987 F   0  0  0  0  0  0
  -21.5634   -3.4550   25.7738 F   0  0  0  0  0  0
  -29.9378  -13.7381   20.3611 N   0  0  0  0  0  0
  -26.2911  -12.9472   20.3267 N   0  0  0  0  0  0
  -25.9383  -11.6592   20.5755 N   0  0  0  0  0  0
  -22.0476  -12.8194   22.0416 N   0  0  0  0  0  0
  -25.4100  -15.1965   20.4089 N   0  0  0  0  0  0
  -31.7256  -15.0676   20.1562 O   0  0  0  0  0  0
  -21.6645   -6.8907   21.4258 O   0  0  0  0  0  0
  -22.3501  -14.5506   20.6702 O   0  0  0  0  0  0
  -24.6470  -31.8398   23.1860 C   0  0  0  0  0  0
  -25.9227  -32.4682   23.8268 C   0  0  1  0  0  0
  -27.2114  -27.0879   20.1738 C   0  0  0  0  0  0
  -25.5961  -33.8489   24.2206 N   0  0  0  0  0  0
  -23.4539  -30.4571   21.5304 C   0  0  2  0  0  0
  -24.9053  -28.8722   20.1160 C   0  0  0  0  0  0
  -22.7585  -29.4529   22.4833 C   0  0  0  0  0  0
  -18.0312  -28.1396   22.8491 C   0  0  0  0  0  0
  -24.1488  -36.7216   23.2642 C   0  0  0  0  0  0
  -26.0119  -30.7000   21.3912 C   0  0  0  0  0  0
  -26.0834  -29.3042   20.7383 C   0  0  0  0  0  0
  -27.2410  -28.4315   20.7418 C   0  0  0  0  0  0
  -26.0087  -26.7644   19.5125 C   0  0  0  0  0  0
  -24.8845  -27.6199   19.4840 C   0  0  0  0  0  0
  -23.6856  -29.7810   20.1521 C   0  0  0  0  0  0
  -25.4122  -36.3023   24.0327 C   0  0  1  0  0  0
  -20.5925  -28.3728   23.1217 C   0  0  2  0  0  0
  -20.6791  -26.9419   22.5402 C   0  0  0  0  0  0
  -19.5767  -26.6386   21.5213 C   0  0  0  0  0  0
  -18.1948  -26.7942   22.1625 C   0  0  0  0  0  0
  -19.1566  -28.8886   23.2853 C   0  0  0  0  0  0
  -18.9479  -30.1479   23.8883 C   0  0  0  0  0  0
  -17.6473  -30.6593   24.0558 C   0  0  0  0  0  0
  -25.9081  -34.9398   23.5086 C   0  0  0  0  0  0
  -16.5366  -29.9081   23.6332 C   0  0  0  0  0  0
  -16.7291  -28.6490   23.0372 C   0  0  0  0  0  0
  -26.4569  -31.6543   25.0702 C   0  0  0  0  0  0
  -25.3749  -31.3672   26.1371 C   0  0  0  0  0  0
  -27.0453  -30.2956   24.6269 C   0  0  0  0  0  0
  -27.6118  -32.4300   25.7469 C   0  0  0  0  0  0
  -27.5581  -37.1753   24.8468 C   0  0  0  0  0  0
  -21.4271  -29.3042   22.3570 N   0  0  0  0  0  0
  -26.4284  -37.3742   23.9421 N   0  0  0  0  0  0
  -24.7240  -31.0212   22.0914 N   0  0  0  0  0  0
  -23.4205  -28.8085   23.3013 O   0  0  0  0  0  0
  -28.2611  -26.0890   20.1943 O   0  0  0  0  0  0
  -26.5656  -34.8899   22.4658 O   0  0  0  0  0  0
  -23.5577  -32.1294   23.7051 O   0  0  0  0  0  0
  -29.5071  -20.2324   20.3989 C   0  0  0  0  0  0
  -30.9010  -20.1156   20.4408 C   0  0  0  0  0  0
  -29.9481  -17.7243   20.4275 C   0  0  0  0  0  0
  -28.6445  -21.5977   20.5671 C   0  0  0  0  0  0
  -30.8629  -22.9555   18.3011 C   0  0  0  0  0  0
  -30.2573  -23.5795   19.5793 C   0  0  0  0  0  0
  -28.0310  -24.5580   20.5284 C   0  0  0  0  0  0
  -28.8016  -23.1587   19.8954 C   0  0  2  0  0  0
  -29.0326  -18.8039   20.4460 N   0  0  0  0  0  0
  -31.8881  -21.0870   20.5803 N   0  0  0  0  0  0
  -29.7018  -16.1962   20.5070 N   0  0  0  0  0  0
  -27.6162  -21.5066   21.2490 O   0  0  0  0  0  0
  -28.1944  -23.0929   18.7050 F   0  0  0  0  0  0
  -31.5424  -18.4497   20.3503 S   0  0  0  0  0  0
  -31.4760  -12.7904   19.1849 H   0  0  0  0  0  0
  -30.4321  -11.6803   20.0278 H   0  0  0  0  0  0
  -29.8478  -11.7491   17.5849 H   0  0  0  0  0  0
  -29.6059  -13.4746   17.6721 H   0  0  0  0  0  0
  -27.9581  -11.2853   18.9700 H   0  0  0  0  0  0
  -27.3947  -12.4653   17.8145 H   0  0  0  0  0  0
  -27.5814  -14.2554   19.4046 H   0  0  0  0  0  0
  -28.7819  -12.3282   21.4486 H   0  0  0  0  0  0
  -28.3707  -13.9987   21.7525 H   0  0  0  0  0  0
  -25.2838   -9.5653   22.4773 H   0  0  0  0  0  0
  -24.0046   -7.4632   22.7491 H   0  0  0  0  0  0
  -21.0911   -8.8833   19.8962 H   0  0  0  0  0  0
  -22.3827  -10.9698   19.6181 H   0  0  0  0  0  0
  -21.1996   -7.6166   23.9746 H   0  0  0  0  0  0
  -21.1480   -6.0535   25.9094 H   0  0  0  0  0  0
  -22.0591   -2.7635   23.2846 H   0  0  0  0  0  0
  -22.4094  -11.9865   22.4828 H   0  0  0  0  0  0
  -21.1086  -13.1219   22.2585 H   0  0  0  0  0  0
  -24.6269  -15.8366   20.4961 H   0  0  0  0  0  0
  -26.2424  -15.6429   20.0485 H   0  0  0  0  0  0
  -26.7271  -32.5289   23.0973 H   0  0  0  0  0  0
  -25.0095  -33.9608   25.0346 H   0  0  0  0  0  0
  -22.7612  -31.2855   21.3719 H   0  0  0  0  0  0
  -23.3812  -35.9490   23.3281 H   0  0  0  0  0  0
  -24.3552  -36.8870   22.2060 H   0  0  0  0  0  0
  -23.7193  -37.6380   23.6691 H   0  0  0  0  0  0
  -26.1696  -31.4528   20.6172 H   0  0  0  0  0  0
  -26.8816  -30.7540   22.0346 H   0  0  0  0  0  0
  -28.1441  -28.7627   21.2350 H   0  0  0  0  0  0
  -25.9189  -25.8070   19.0193 H   0  0  0  0  0  0
  -23.9875  -27.2920   18.9787 H   0  0  0  0  0  0
  -23.8327  -30.5544   19.3976 H   0  0  0  0  0  0
  -22.8015  -29.2244   19.8354 H   0  0  0  0  0  0
  -25.1315  -36.1850   25.0824 H   0  0  0  0  0  0
  -21.0038  -28.3330   24.1331 H   0  0  0  0  0  0
  -20.5681  -26.2331   23.3621 H   0  0  0  0  0  0
  -21.6652  -26.7404   22.1203 H   0  0  0  0  0  0
  -19.6916  -25.6295   21.1247 H   0  0  0  0  0  0
  -19.6725  -27.3195   20.6747 H   0  0  0  0  0  0
  -17.4218  -26.6722   21.4020 H   0  0  0  0  0  0
  -18.0341  -26.0066   22.9006 H   0  0  0  0  0  0
  -19.7946  -30.7308   24.2258 H   0  0  0  0  0  0
  -17.5009  -31.6271   24.5163 H   0  0  0  0  0  0
  -15.5362  -30.2972   23.7654 H   0  0  0  0  0  0
  -15.8701  -28.0787   22.7114 H   0  0  0  0  0  0
  -24.5982  -30.6988   25.7632 H   0  0  0  0  0  0
  -24.8888  -32.2821   26.4759 H   0  0  0  0  0  0
  -25.8023  -30.8845   27.0168 H   0  0  0  0  0  0
  -26.3066  -29.6648   24.1309 H   0  0  0  0  0  0
  -27.4130  -29.7266   25.4818 H   0  0  0  0  0  0
  -27.8953  -30.4236   23.9565 H   0  0  0  0  0  0
  -27.2770  -33.3644   26.1979 H   0  0  0  0  0  0
  -28.3956  -32.6770   25.0297 H   0  0  0  0  0  0
  -28.0766  -31.8458   26.5420 H   0  0  0  0  0  0
  -28.2575  -38.0073   24.7548 H   0  0  0  0  0  0
  -28.1106  -36.2602   24.6278 H   0  0  0  0  0  0
  -27.2269  -37.1361   25.8859 H   0  0  0  0  0  0
  -20.9489  -29.8728   21.6720 H   0  0  0  0  0  0
  -26.0163  -38.2801   24.1481 H   0  0  0  0  0  0
  -31.9226  -23.1961   18.2094 H   0  0  0  0  0  0
  -30.3710  -23.3403   17.4069 H   0  0  0  0  0  0
  -30.7545  -21.8732   18.2692 H   0  0  0  0  0  0
  -30.2921  -24.6595   19.4366 H   0  0  0  0  0  0
  -30.8796  -23.4191   20.4582 H   0  0  0  0  0  0
  -28.2236  -24.5181   21.6002 H   0  0  0  0  0  0
  -26.9597  -24.3677   20.4717 H   0  0  0  0  0  0
  -31.7690  -22.0245   20.2075 H   0  0  0  0  0  0
  -32.8666  -20.8132   20.5674 H   0  0  0  0  0  0
  -28.7341  -15.9646   20.6530 H   0  0  0  0  0  0
  1 25  1  0  0  0
  1 30  2  0  0  0
  1 81  1  0  0  0
  2  3  1  0  0  0
  2 25  1  0  0  0
  2 85  1  0  0  0
  2 86  1  0  0  0
  3  4  1  0  0  0
  3 87  1  0  0  0
  3 88  1  0  0  0
  4  5  1  0  0  0
  4 89  1  0  0  0
  4 90  1  0  0  0
  5  6  1  0  0  0
  5 26  1  0  0  0
  5 91  1  0  0  0
  6 25  1  0  0  0
  6 92  1  0  0  0
  6 93  1  0  0  0
  7  8  2  0  0  0
  7 26  1  0  0  0
  7 29  1  0  0  0
  8  9  1  0  0  0
  8 22  1  0  0  0
  9 10  1  0  0  0
  9 27  2  0  0  0
 10 11  2  0  0  0
 10 15  1  0  0  0
 11 12  1  0  0  0
 11 94  1  0  0  0
 12 13  2  0  0  0
 12 95  1  0  0  0
 13 14  1  0  0  0
 13 31  1  0  0  0
 14 15  2  0  0  0
 14 96  1  0  0  0
 15 97  1  0  0  0
 16 17  2  0  0  0
 16 21  1  0  0  0
 16 31  1  0  0  0
 17 18  1  0  0  0
 17 98  1  0  0  0
 18 19  2  0  0  0
 18 99  1  0  0  0
 19 20  1  0  0  0
 19 24  1  0  0  0
 20 21  2  0  0  0
 20100  1  0  0  0
 21 23  1  0  0  0
 22 28  1  0  0  0
 22 32  2  0  0  0
 26 27  1  0  0  0
 28101  1  0  0  0
 28102  1  0  0  0
 29103  1  0  0  0
 29104  1  0  0  0
 33 34  1  0  0  0
 33 66  1  0  0  0
 33 70  2  0  0  0
 34 36  1  0  0  0
 34 59  1  0  0  0
 34105  1  0  0  0
 35 44  2  0  0  0
 35 45  1  0  0  0
 35 68  1  0  0  0
 36 56  1  0  0  0
 36106  1  0  0  0
 37 39  1  0  0  0
 37 47  1  0  0  0
 37 66  1  0  0  0
 37107  1  0  0  0
 38 43  2  0  0  0
 38 46  1  0  0  0
 38 47  1  0  0  0
 39 64  1  0  0  0
 39 67  2  0  0  0
 40 52  1  0  0  0
 40 53  2  0  0  0
 40 58  1  0  0  0
 41108  1  0  0  0
 41109  1  0  0  0
 41110  1  0  0  0
 41 48  1  0  0  0
 42 43  1  0  0  0
 42 66  1  0  0  0
 42111  1  0  0  0
 42112  1  0  0  0
 43 44  1  0  0  0
 44113  1  0  0  0
 45 46  2  0  0  0
 45114  1  0  0  0
 46115  1  0  0  0
 47116  1  0  0  0
 47117  1  0  0  0
 48 56  1  0  0  0
 48 65  1  0  0  0
 48118  1  0  0  0
 49 50  1  0  0  0
 49 53  1  0  0  0
 49 64  1  0  0  0
 49119  1  0  0  0
 50 51  1  0  0  0
 50120  1  0  0  0
 50121  1  0  0  0
 51 52  1  0  0  0
 51122  1  0  0  0
 51123  1  0  0  0
 52124  1  0  0  0
 52125  1  0  0  0
 53 54  1  0  0  0
 54 55  2  0  0  0
 54126  1  0  0  0
 55 57  1  0  0  0
 55127  1  0  0  0
 56 69  2  0  0  0
 57 58  2  0  0  0
 57128  1  0  0  0
 58129  1  0  0  0
 59 60  1  0  0  0
 59 61  1  0  0  0
 59 62  1  0  0  0
 60130  1  0  0  0
 60131  1  0  0  0
 60132  1  0  0  0
 61133  1  0  0  0
 61134  1  0  0  0
 61135  1  0  0  0
 62136  1  0  0  0
 62137  1  0  0  0
 62138  1  0  0  0
 63 65  1  0  0  0
 63139  1  0  0  0
 63140  1  0  0  0
 63141  1  0  0  0
 64142  1  0  0  0
 65143  1  0  0  0
 68 77  1  0  0  0
 71 72  2  0  0  0
 71 74  1  0  0  0
 71 79  1  0  0  0
 72 80  1  0  0  0
 72 84  1  0  0  0
 73 79  2  0  0  0
 73 81  1  0  0  0
 73 84  1  0  0  0
 74 78  1  0  0  0
 74 82  2  0  0  0
 75 76  1  0  0  0
 75144  1  0  0  0
 75145  1  0  0  0
 75146  1  0  0  0
 76 78  1  0  0  0
 76147  1  0  0  0
 76148  1  0  0  0
 77 78  1  0  0  0
 77149  1  0  0  0
 77150  1  0  0  0
 78 83  1  0  0  0
 80151  1  0  0  0
 80152  1  0  0  0
 81153  1  0  0  0
M  ISO  4   1 100  68 101  77 101  81 100
M  END
> <chiral flag>
0

> <version>
0

> <s_m_source_file>
/data/baiqing/PycharmProjects/Reinvent-master-3.2/result/LINK_invent/BTK/process_docking_weight1_custom_product_contain_oxygen_bond_distance_aromatic_linkinvent_7_9_3/rearranged_h_0171.sdf

> <i_m_source_file_index>
78

> <r_mmod_Potential_Energy-OPLS-2005>
828.008056640625

> <r_mmod_Stretch_Energy-OPLS-2005>
333.811676025391

> <r_mmod_Bend_Energy-OPLS-2005>
303.738159179688

> <r_mmod_Torsional_Energy-OPLS-2005>
258.909149169922

> <r_mmod_Improper_Torsional_Energy-OPLS-2005>
9.11244297027588

> <r_mmod_Van_der_Waal_Energy-OPLS-2005>
112.992294311523

> <r_mmod_Electrostatic_Energy-OPLS-2005>
-201.092300415039

> <r_mmod_Solvation_Energy-OPLS-2005>
-224.64762878418

> <b_mmod_Minimization_Converged-OPLS-2005>
0

> <r_mmod_RMS_Derivative-OPLS-2005>
2.89770650863647

$$$$
78
                    3D
 Structure written by MMmdl.
153161  0  0  1  0            999 V2000
  -30.6756  -14.5097   20.5392 C   0  0  0  0  0  0
  -30.4369  -12.3280   19.4424 C   0  0  0  0  0  0
  -29.5021  -12.4784   18.2229 C   0  0  0  0  0  0
  -28.0234  -12.3404   18.6338 C   0  0  0  0  0  0
  -27.6588  -13.2043   19.8722 C   0  0  2  0  0  0
  -28.6964  -13.0197   21.0028 C   0  0  0  0  0  0
  -25.2560  -13.8130   20.5695 C   0  0  0  0  0  0
  -24.1791  -13.0423   20.9172 C   0  0  0  0  0  0
  -24.6344  -11.6881   20.8733 C   0  0  0  0  0  0
  -23.9013  -10.4255   21.0410 C   0  0  0  0  0  0
  -24.3582   -9.4173   21.9177 C   0  0  0  0  0  0
  -23.6269   -8.2205   22.0752 C   0  0  0  0  0  0
  -22.4243   -8.0248   21.3547 C   0  0  0  0  0  0
  -21.9854   -9.0213   20.4645 C   0  0  0  0  0  0
  -22.7187  -10.2097   20.3053 C   0  0  0  0  0  0
  -21.6829   -6.0702   22.5290 C   0  0  0  0  0  0
  -21.4022   -6.5612   23.8232 C   0  0  0  0  0  0
  -21.3672   -5.6776   24.9196 C   0  0  0  0  0  0
  -21.6031   -4.3037   24.7249 C   0  0  0  0  0  0
  -21.8795   -3.8118   23.4370 C   0  0  0  0  0  0
  -21.9171   -4.6931   22.3421 C   0  0  0  0  0  0
  -22.7822  -13.5239   21.1837 C   0  0  0  0  0  0
  -22.1629   -4.2120   21.1004 F   0  0  0  0  0  0
  -21.5636   -3.4525   25.7767 F   0  0  0  0  0  0
  -30.0293  -13.3181   20.4502 N   0  0  0  0  0  0
  -26.2985  -12.9295   20.3336 N   0  0  0  0  0  0
  -25.9275  -11.6456   20.5742 N   0  0  0  0  0  0
  -22.0447  -12.8279   22.0418 N   0  0  0  0  0  0
  -25.4280  -15.1855   20.4176 N   0  0  0  0  0  0
  -31.8367  -14.6720   20.1441 O   0  0  0  0  0  0
  -21.6610   -6.8857   21.4254 O   0  0  0  0  0  0
  -22.3514  -14.5545   20.6701 O   0  0  0  0  0  0
  -24.6134  -31.8678   23.2137 C   0  0  0  0  0  0
  -25.9010  -32.4854   23.8429 C   0  0  1  0  0  0
  -27.2432  -27.4305   20.1108 C   0  0  0  0  0  0
  -25.5867  -33.8655   24.2324 N   0  0  0  0  0  0
  -23.4039  -30.4923   21.5531 C   0  0  2  0  0  0
  -24.8577  -28.9702   20.1138 C   0  0  0  0  0  0
  -22.7422  -29.4632   22.4973 C   0  0  0  0  0  0
  -18.0268  -28.1383   22.8476 C   0  0  0  0  0  0
  -24.1485  -36.7320   23.2631 C   0  0  0  0  0  0
  -25.9367  -30.8392   21.3692 C   0  0  0  0  0  0
  -26.0197  -29.4770   20.7070 C   0  0  0  0  0  0
  -27.2151  -28.7176   20.7003 C   0  0  0  0  0  0
  -26.0583  -26.9475   19.5034 C   0  0  0  0  0  0
  -24.8730  -27.7041   19.5073 C   0  0  0  0  0  0
  -23.6161  -29.8329   20.1652 C   0  0  0  0  0  0
  -25.4109  -36.3138   24.0330 C   0  0  1  0  0  0
  -20.5863  -28.3659   23.1327 C   0  0  2  0  0  0
  -20.6780  -26.9388   22.5434 C   0  0  0  0  0  0
  -19.5757  -26.6381   21.5234 C   0  0  0  0  0  0
  -18.1927  -26.7922   22.1628 C   0  0  0  0  0  0
  -19.1520  -28.8835   23.2893 C   0  0  0  0  0  0
  -18.9453  -30.1442   23.8903 C   0  0  0  0  0  0
  -17.6462  -30.6588   24.0574 C   0  0  0  0  0  0
  -25.9023  -34.9499   23.5123 C   0  0  0  0  0  0
  -16.5350  -29.9095   23.6339 C   0  0  0  0  0  0
  -16.7263  -28.6524   23.0329 C   0  0  0  0  0  0
  -26.4433  -31.6635   25.0754 C   0  0  0  0  0  0
  -25.3705  -31.3784   26.1515 C   0  0  0  0  0  0
  -27.0242  -30.3071   24.6137 C   0  0  0  0  0  0
  -27.5992  -32.4362   25.7503 C   0  0  0  0  0  0
  -27.5576  -37.1812   24.8446 C   0  0  0  0  0  0
  -21.4155  -29.3022   22.3731 N   0  0  0  0  0  0
  -26.4294  -37.3819   23.9393 N   0  0  0  0  0  0
  -24.6693  -31.0775   22.1046 N   0  0  0  0  0  0
  -23.4190  -28.8166   23.3013 O   0  0  0  0  0  0
  -28.3998  -26.6648   20.1669 O   0  0  0  0  0  0
  -26.5589  -34.8940   22.4689 O   0  0  0  0  0  0
  -23.5323  -32.1410   23.7528 O   0  0  0  0  0  0
  -29.7377  -18.0241   21.1851 C   0  0  0  0  0  0
  -30.1037  -18.3458   18.4230 C   0  0  0  0  0  0
  -29.9548  -16.8753   20.3750 C   0  0  0  0  0  0
  -29.7386  -19.3370   20.6367 C   0  0  0  0  0  0
  -30.1229  -17.0580   18.9790 C   0  0  0  0  0  0
  -29.9105  -19.4766   19.2341 C   0  0  0  0  0  0
  -28.9400  -22.8436   20.8467 C   0  0  0  0  0  0
  -29.2967  -24.3627   20.6912 C   0  0  0  0  0  0
  -30.0454  -21.8182   21.1894 C   0  0  0  0  0  0
  -28.1834  -25.2404   20.0857 C   0  0  0  0  0  0
  -29.9204  -15.5526   20.9421 N   0  0  0  0  0  0
  -29.5534  -20.4503   21.4918 N   0  0  0  0  0  0
  -27.7682  -22.4615   20.7250 O   0  0  0  0  0  0
  -30.3862  -24.8286   21.0555 O   0  0  0  0  0  0
  -30.2566  -16.0010   18.1429 F   0  0  0  0  0  0
  -29.8556  -20.6924   18.6378 F   0  0  0  0  0  0
  -31.4777  -12.4484   19.1313 H   0  0  0  0  0  0
  -30.3681  -11.3273   19.8677 H   0  0  0  0  0  0
  -29.7543  -11.7305   17.4698 H   0  0  0  0  0  0
  -29.6592  -13.4473   17.7471 H   0  0  0  0  0  0
  -27.8416  -11.2876   18.8541 H   0  0  0  0  0  0
  -27.3736  -12.5876   17.7934 H   0  0  0  0  0  0
  -27.6938  -14.2478   19.5542 H   0  0  0  0  0  0
  -28.6731  -11.9956   21.3754 H   0  0  0  0  0  0
  -28.4509  -13.6426   21.8674 H   0  0  0  0  0  0
  -25.2731   -9.5639   22.4749 H   0  0  0  0  0  0
  -23.9975   -7.4578   22.7464 H   0  0  0  0  0  0
  -21.0775   -8.8733   19.8960 H   0  0  0  0  0  0
  -22.3642  -10.9630   19.6164 H   0  0  0  0  0  0
  -21.2036   -7.6129   23.9752 H   0  0  0  0  0  0
  -21.1529   -6.0501   25.9107 H   0  0  0  0  0  0
  -22.0570   -2.7574   23.2882 H   0  0  0  0  0  0
  -22.4027  -12.0020   22.4954 H   0  0  0  0  0  0
  -21.1065  -13.1335   22.2603 H   0  0  0  0  0  0
  -24.6672  -15.8434   20.5527 H   0  0  0  0  0  0
  -26.2848  -15.6220   20.1041 H   0  0  0  0  0  0
  -26.7081  -32.5576   23.1190 H   0  0  0  0  0  0
  -25.0029  -33.9822   25.0486 H   0  0  0  0  0  0
  -22.6925  -31.3085   21.4154 H   0  0  0  0  0  0
  -23.3766  -35.9631   23.3315 H   0  0  0  0  0  0
  -24.3572  -36.8922   22.2035 H   0  0  0  0  0  0
  -23.7222  -37.6521   23.6651 H   0  0  0  0  0  0
  -26.0482  -31.6202   20.6158 H   0  0  0  0  0  0
  -26.8214  -30.8870   21.9927 H   0  0  0  0  0  0
  -28.1104  -29.1051   21.1651 H   0  0  0  0  0  0
  -26.0182  -25.9809   19.0248 H   0  0  0  0  0  0
  -23.9783  -27.3021   19.0540 H   0  0  0  0  0  0
  -23.7300  -30.6122   19.4099 H   0  0  0  0  0  0
  -22.7427  -29.2511   19.8626 H   0  0  0  0  0  0
  -25.1301  -36.2006   25.0831 H   0  0  0  0  0  0
  -20.9950  -28.3244   24.1448 H   0  0  0  0  0  0
  -20.5729  -26.2252   23.3616 H   0  0  0  0  0  0
  -21.6645  -26.7459   22.1200 H   0  0  0  0  0  0
  -19.6911  -25.6298   21.1241 H   0  0  0  0  0  0
  -19.6704  -27.3229   20.6795 H   0  0  0  0  0  0
  -17.4198  -26.6660   21.4031 H   0  0  0  0  0  0
  -18.0305  -26.0082   22.9044 H   0  0  0  0  0  0
  -19.7941  -30.7250   24.2278 H   0  0  0  0  0  0
  -17.5029  -31.6279   24.5161 H   0  0  0  0  0  0
  -15.5356  -30.2999   23.7672 H   0  0  0  0  0  0
  -15.8659  -28.0878   22.6996 H   0  0  0  0  0  0
  -24.5842  -30.7149   25.7896 H   0  0  0  0  0  0
  -24.8940  -32.2976   26.4944 H   0  0  0  0  0  0
  -25.8064  -30.8979   27.0282 H   0  0  0  0  0  0
  -26.2796  -29.6870   24.1133 H   0  0  0  0  0  0
  -27.3927  -29.7269   25.4600 H   0  0  0  0  0  0
  -27.8677  -30.4368   23.9352 H   0  0  0  0  0  0
  -27.2582  -33.3642   26.2104 H   0  0  0  0  0  0
  -28.3787  -32.6957   25.0331 H   0  0  0  0  0  0
  -28.0679  -31.8489   26.5403 H   0  0  0  0  0  0
  -28.2611  -38.0097   24.7533 H   0  0  0  0  0  0
  -28.1064  -36.2638   24.6263 H   0  0  0  0  0  0
  -27.2285  -37.1452   25.8845 H   0  0  0  0  0  0
  -20.9307  -29.8722   21.6937 H   0  0  0  0  0  0
  -26.0193  -38.2891   24.1461 H   0  0  0  0  0  0
  -29.5918  -17.8968   22.2481 H   0  0  0  0  0  0
  -30.2153  -18.4612   17.3576 H   0  0  0  0  0  0
  -30.5777  -22.1950   22.0638 H   0  0  0  0  0  0
  -30.7735  -21.8099   20.3787 H   0  0  0  0  0  0
  -27.2729  -24.9869   20.6288 H   0  0  0  0  0  0
  -28.0601  -24.9484   19.0431 H   0  0  0  0  0  0
  -29.0730  -15.3085   21.4336 H   0  0  0  0  0  0
  -28.9238  -20.3631   22.2882 H   0  0  0  0  0  0
  1 25  1  0  0  0
  1 30  2  0  0  0
  1 81  1  0  0  0
  2  3  1  0  0  0
  2 25  1  0  0  0
  2 87  1  0  0  0
  2 88  1  0  0  0
  3  4  1  0  0  0
  3 89  1  0  0  0
  3 90  1  0  0  0
  4  5  1  0  0  0
  4 91  1  0  0  0
  4 92  1  0  0  0
  5  6  1  0  0  0
  5 26  1  0  0  0
  5 93  1  0  0  0
  6 25  1  0  0  0
  6 94  1  0  0  0
  6 95  1  0  0  0
  7  8  2  0  0  0
  7 26  1  0  0  0
  7 29  1  0  0  0
  8  9  1  0  0  0
  8 22  1  0  0  0
  9 10  1  0  0  0
  9 27  2  0  0  0
 10 11  2  0  0  0
 10 15  1  0  0  0
 11 12  1  0  0  0
 11 96  1  0  0  0
 12 13  2  0  0  0
 12 97  1  0  0  0
 13 14  1  0  0  0
 13 31  1  0  0  0
 14 15  2  0  0  0
 14 98  1  0  0  0
 15 99  1  0  0  0
 16 17  2  0  0  0
 16 21  1  0  0  0
 16 31  1  0  0  0
 17 18  1  0  0  0
 17100  1  0  0  0
 18 19  2  0  0  0
 18101  1  0  0  0
 19 20  1  0  0  0
 19 24  1  0  0  0
 20 21  2  0  0  0
 20102  1  0  0  0
 21 23  1  0  0  0
 22 28  1  0  0  0
 22 32  2  0  0  0
 26 27  1  0  0  0
 28103  1  0  0  0
 28104  1  0  0  0
 29105  1  0  0  0
 29106  1  0  0  0
 33 34  1  0  0  0
 33 66  1  0  0  0
 33 70  2  0  0  0
 34 36  1  0  0  0
 34 59  1  0  0  0
 34107  1  0  0  0
 35 44  2  0  0  0
 35 45  1  0  0  0
 35 68  1  0  0  0
 36 56  1  0  0  0
 36108  1  0  0  0
 37 39  1  0  0  0
 37 47  1  0  0  0
 37 66  1  0  0  0
 37109  1  0  0  0
 38 43  2  0  0  0
 38 46  1  0  0  0
 38 47  1  0  0  0
 39 64  1  0  0  0
 39 67  2  0  0  0
 40 52  1  0  0  0
 40 53  2  0  0  0
 40 58  1  0  0  0
 41110  1  0  0  0
 41111  1  0  0  0
 41112  1  0  0  0
 41 48  1  0  0  0
 42 43  1  0  0  0
 42 66  1  0  0  0
 42113  1  0  0  0
 42114  1  0  0  0
 43 44  1  0  0  0
 44115  1  0  0  0
 45 46  2  0  0  0
 45116  1  0  0  0
 46117  1  0  0  0
 47118  1  0  0  0
 47119  1  0  0  0
 48 56  1  0  0  0
 48 65  1  0  0  0
 48120  1  0  0  0
 49 50  1  0  0  0
 49 53  1  0  0  0
 49 64  1  0  0  0
 49121  1  0  0  0
 50 51  1  0  0  0
 50122  1  0  0  0
 50123  1  0  0  0
 51 52  1  0  0  0
 51124  1  0  0  0
 51125  1  0  0  0
 52126  1  0  0  0
 52127  1  0  0  0
 53 54  1  0  0  0
 54 55  2  0  0  0
 54128  1  0  0  0
 55 57  1  0  0  0
 55129  1  0  0  0
 56 69  2  0  0  0
 57 58  2  0  0  0
 57130  1  0  0  0
 58131  1  0  0  0
 59 60  1  0  0  0
 59 61  1  0  0  0
 59 62  1  0  0  0
 60132  1  0  0  0
 60133  1  0  0  0
 60134  1  0  0  0
 61135  1  0  0  0
 61136  1  0  0  0
 61137  1  0  0  0
 62138  1  0  0  0
 62139  1  0  0  0
 62140  1  0  0  0
 63 65  1  0  0  0
 63141  1  0  0  0
 63142  1  0  0  0
 63143  1  0  0  0
 64144  1  0  0  0
 65145  1  0  0  0
 68 80  1  0  0  0
 71 73  2  0  0  0
 71 74  1  0  0  0
 71146  1  0  0  0
 72 75  2  0  0  0
 72 76  1  0  0  0
 72147  1  0  0  0
 73 75  1  0  0  0
 73 81  1  0  0  0
 74 76  2  0  0  0
 74 82  1  0  0  0
 75 85  1  0  0  0
 76 86  1  0  0  0
 77 78  1  0  0  0
 77 79  1  0  0  0
 77 83  2  0  0  0
 78 80  1  0  0  0
 78 84  2  0  0  0
 79 82  1  0  0  0
 79148  1  0  0  0
 79149  1  0  0  0
 80150  1  0  0  0
 80151  1  0  0  0
 81152  1  0  0  0
 82153  1  0  0  0
M  ISO  4   1 100  68 101  80 101  81 100
M  END
> <chiral flag>
0

> <version>
0

> <s_m_source_file>
/data/baiqing/PycharmProjects/Reinvent-master-3.2/result/LINK_invent/BTK/process_docking_weight1_custom_product_contain_oxygen_bond_distance_aromatic_linkinvent_7_9_3/rearranged_h_0171.sdf

> <i_m_source_file_index>
79

> <r_mmod_Potential_Energy-OPLS-2005>
50.1930809020996

> <r_mmod_Stretch_Energy-OPLS-2005>
45.1848297119141

> <r_mmod_Bend_Energy-OPLS-2005>
108.176635742188

> <r_mmod_Torsional_Energy-OPLS-2005>
234.053314208984

> <r_mmod_Improper_Torsional_Energy-OPLS-2005>
5.30272436141968

> <r_mmod_Van_der_Waal_Energy-OPLS-2005>
161.820449829102

> <r_mmod_Electrostatic_Energy-OPLS-2005>
-277.794250488281

> <r_mmod_Solvation_Energy-OPLS-2005>
-245.786514282227

> <b_mmod_Minimization_Converged-OPLS-2005>
0

> <r_mmod_RMS_Derivative-OPLS-2005>
5.15591430664062

$$$$
79
                    3D
 Structure written by MMmdl.
156164  0  0  1  0            999 V2000
  -30.6248  -14.8072   20.4145 C   0  0  0  0  0  0
  -30.4260  -12.4915   19.4855 C   0  0  0  0  0  0
  -29.5091  -12.5022   18.2430 C   0  0  0  0  0  0
  -28.0389  -12.3172   18.6610 C   0  0  0  0  0  0
  -27.6343  -13.2416   19.8401 C   0  0  2  0  0  0
  -28.6791  -13.2350   20.9771 C   0  0  0  0  0  0
  -25.2485  -13.8212   20.5707 C   0  0  0  0  0  0
  -24.1786  -13.0447   20.9220 C   0  0  0  0  0  0
  -24.6391  -11.6934   20.8758 C   0  0  0  0  0  0
  -23.9069  -10.4304   21.0406 C   0  0  0  0  0  0
  -24.3625   -9.4221   21.9188 C   0  0  0  0  0  0
  -23.6300   -8.2254   22.0751 C   0  0  0  0  0  0
  -22.4286   -8.0277   21.3534 C   0  0  0  0  0  0
  -21.9924   -9.0252   20.4647 C   0  0  0  0  0  0
  -22.7243  -10.2137   20.3061 C   0  0  0  0  0  0
  -21.6858   -6.0739   22.5274 C   0  0  0  0  0  0
  -21.4013   -6.5642   23.8204 C   0  0  0  0  0  0
  -21.3662   -5.6797   24.9166 C   0  0  0  0  0  0
  -21.6036   -4.3056   24.7221 C   0  0  0  0  0  0
  -21.8821   -3.8153   23.4343 C   0  0  0  0  0  0
  -21.9194   -4.6970   22.3401 C   0  0  0  0  0  0
  -22.7804  -13.5209   21.1877 C   0  0  0  0  0  0
  -22.1661   -4.2155   21.0982 F   0  0  0  0  0  0
  -21.5629   -3.4546   25.7736 F   0  0  0  0  0  0
  -29.9744  -13.5866   20.3821 N   0  0  0  0  0  0
  -26.2913  -12.9437   20.3262 N   0  0  0  0  0  0
  -25.9325  -11.6573   20.5760 N   0  0  0  0  0  0
  -22.0465  -12.8195   22.0444 N   0  0  0  0  0  0
  -25.4183  -15.1931   20.4094 N   0  0  0  0  0  0
  -31.8336  -14.8151   20.1688 O   0  0  0  0  0  0
  -21.6636   -6.8882   21.4237 O   0  0  0  0  0  0
  -22.3492  -14.5520   20.6729 O   0  0  0  0  0  0
  -24.6340  -31.8511   23.1934 C   0  0  0  0  0  0
  -25.9140  -32.4725   23.8298 C   0  0  1  0  0  0
  -27.2268  -27.2248   20.1219 C   0  0  0  0  0  0
  -25.5922  -33.8534   24.2214 N   0  0  0  0  0  0
  -23.4342  -30.4738   21.5382 C   0  0  2  0  0  0
  -24.8796  -28.9110   20.1062 C   0  0  0  0  0  0
  -22.7509  -29.4591   22.4890 C   0  0  0  0  0  0
  -18.0286  -28.1386   22.8468 C   0  0  0  0  0  0
  -24.1493  -36.7281   23.2646 C   0  0  0  0  0  0
  -25.9833  -30.7506   21.3771 C   0  0  0  0  0  0
  -26.0526  -29.3691   20.7179 C   0  0  0  0  0  0
  -27.2233  -28.5389   20.7159 C   0  0  0  0  0  0
  -26.0263  -26.8421   19.4814 C   0  0  0  0  0  0
  -24.8730  -27.6554   19.4796 C   0  0  0  0  0  0
  -23.6508  -29.8027   20.1561 C   0  0  0  0  0  0
  -25.4121  -36.3062   24.0330 C   0  0  1  0  0  0
  -20.5889  -28.3704   23.1236 C   0  0  2  0  0  0
  -20.6773  -26.9410   22.5409 C   0  0  0  0  0  0
  -19.5753  -26.6366   21.5217 C   0  0  0  0  0  0
  -18.1924  -26.7916   22.1616 C   0  0  0  0  0  0
  -19.1543  -28.8858   23.2845 C   0  0  0  0  0  0
  -18.9478  -30.1453   23.8878 C   0  0  0  0  0  0
  -17.6478  -30.6587   24.0555 C   0  0  0  0  0  0
  -25.9077  -34.9428   23.5084 C   0  0  0  0  0  0
  -16.5356  -29.9092   23.6327 C   0  0  0  0  0  0
  -16.7270  -28.6501   23.0354 C   0  0  0  0  0  0
  -26.4495  -31.6578   25.0717 C   0  0  0  0  0  0
  -25.3699  -31.3775   26.1433 C   0  0  0  0  0  0
  -27.0350  -30.2978   24.6250 C   0  0  0  0  0  0
  -27.6044  -32.4333   25.7486 C   0  0  0  0  0  0
  -27.5576  -37.1788   24.8459 C   0  0  0  0  0  0
  -21.4213  -29.3052   22.3631 N   0  0  0  0  0  0
  -26.4287  -37.3769   23.9410 N   0  0  0  0  0  0
  -24.7040  -31.0445   22.0919 N   0  0  0  0  0  0
  -23.4191  -28.8122   23.2996 O   0  0  0  0  0  0
  -28.3240  -26.3207   20.2123 O   0  0  0  0  0  0
  -26.5669  -34.8905   22.4665 O   0  0  0  0  0  0
  -23.5478  -32.1345   23.7217 O   0  0  0  0  0  0
  -31.8105  -18.9139   18.9430 C   0  0  0  0  0  0
  -31.3768  -17.6326   19.3172 C   0  0  0  0  0  0
  -29.5392  -18.6650   20.5107 C   0  0  0  0  0  0
  -31.1455  -20.0935   19.3378 C   0  0  0  0  0  0
  -30.2545  -17.4270   20.1504 C   0  0  0  0  0  0
  -29.9368  -20.0256   20.0942 C   0  0  0  0  0  0
  -28.2857  -24.9429   19.7906 C   0  0  0  0  0  0
  -28.8427  -23.8133   20.3989 C   0  0  0  0  0  0
  -28.8651  -22.4186   19.7710 C   0  0  0  0  0  0
  -31.7602  -21.7380   17.4805 C   0  0  0  0  0  0
  -31.8585  -21.3975   18.9744 C   0  0  0  0  0  0
  -29.2938  -21.3177   20.5234 N   0  0  0  0  0  0
  -29.8960  -16.0060   20.5292 N   0  0  0  0  0  0
  -28.5076  -22.2364   18.6067 O   0  0  0  0  0  0
  -29.4584  -23.9661   21.5817 O   0  0  0  0  0  0
  -31.4675  -12.6049   19.1782 H   0  0  0  0  0  0
  -30.3702  -11.5311   20.0001 H   0  0  0  0  0  0
  -29.8035  -11.7139   17.5486 H   0  0  0  0  0  0
  -29.6228  -13.4446   17.7043 H   0  0  0  0  0  0
  -27.9137  -11.2733   18.9528 H   0  0  0  0  0  0
  -27.3753  -12.4746   17.8091 H   0  0  0  0  0  0
  -27.6109  -14.2505   19.4273 H   0  0  0  0  0  0
  -28.7282  -12.2586   21.4613 H   0  0  0  0  0  0
  -28.4046  -13.9519   21.7531 H   0  0  0  0  0  0
  -25.2772   -9.5689   22.4759 H   0  0  0  0  0  0
  -24.0003   -7.4644   22.7468 H   0  0  0  0  0  0
  -21.0860   -8.8778   19.8947 H   0  0  0  0  0  0
  -22.3706  -10.9678   19.6169 H   0  0  0  0  0  0
  -21.2006   -7.6150   23.9707 H   0  0  0  0  0  0
  -21.1472   -6.0529   25.9064 H   0  0  0  0  0  0
  -22.0600   -2.7619   23.2842 H   0  0  0  0  0  0
  -22.4089  -11.9848   22.4817 H   0  0  0  0  0  0
  -21.1077  -13.1202   22.2637 H   0  0  0  0  0  0
  -24.6529  -15.8508   20.5135 H   0  0  0  0  0  0
  -26.2630  -15.6263   20.0595 H   0  0  0  0  0  0
  -26.7201  -32.5346   23.1034 H   0  0  0  0  0  0
  -25.0057  -33.9666   25.0351 H   0  0  0  0  0  0
  -22.7346  -31.2996   21.3873 H   0  0  0  0  0  0
  -23.3766  -35.9606   23.3306 H   0  0  0  0  0  0
  -24.3599  -36.8935   22.2069 H   0  0  0  0  0  0
  -23.7220  -37.6470   23.6671 H   0  0  0  0  0  0
  -26.1285  -31.5080   20.6053 H   0  0  0  0  0  0
  -26.8585  -30.7974   22.0141 H   0  0  0  0  0  0
  -28.1200  -28.8803   21.2122 H   0  0  0  0  0  0
  -25.9380  -25.8777   19.0058 H   0  0  0  0  0  0
  -23.9713  -27.2981   19.0013 H   0  0  0  0  0  0
  -23.7711  -30.5764   19.3964 H   0  0  0  0  0  0
  -22.7664  -29.2380   19.8567 H   0  0  0  0  0  0
  -25.1291  -36.1916   25.0823 H   0  0  0  0  0  0
  -20.9975  -28.3287   24.1360 H   0  0  0  0  0  0
  -20.5676  -26.2317   23.3632 H   0  0  0  0  0  0
  -21.6631  -26.7429   22.1195 H   0  0  0  0  0  0
  -19.6936  -25.6285   21.1240 H   0  0  0  0  0  0
  -19.6693  -27.3187   20.6757 H   0  0  0  0  0  0
  -17.4197  -26.6662   21.4007 H   0  0  0  0  0  0
  -18.0305  -26.0075   22.9029 H   0  0  0  0  0  0
  -19.7968  -30.7256   24.2235 H   0  0  0  0  0  0
  -17.5045  -31.6268   24.5174 H   0  0  0  0  0  0
  -15.5361  -30.3002   23.7675 H   0  0  0  0  0  0
  -15.8657  -28.0827   22.7084 H   0  0  0  0  0  0
  -24.5837  -30.7165   25.7760 H   0  0  0  0  0  0
  -24.8933  -32.2977   26.4819 H   0  0  0  0  0  0
  -25.7978  -30.8951   27.0229 H   0  0  0  0  0  0
  -26.2946  -29.6714   24.1250 H   0  0  0  0  0  0
  -27.3997  -29.7246   25.4791 H   0  0  0  0  0  0
  -27.8832  -30.4257   23.9521 H   0  0  0  0  0  0
  -27.2650  -33.3665   26.1984 H   0  0  0  0  0  0
  -28.3868  -32.6857   25.0317 H   0  0  0  0  0  0
  -28.0669  -31.8508   26.5468 H   0  0  0  0  0  0
  -28.2575  -38.0098   24.7528 H   0  0  0  0  0  0
  -28.1089  -36.2636   24.6251 H   0  0  0  0  0  0
  -27.2307  -37.1399   25.8865 H   0  0  0  0  0  0
  -20.9403  -29.8817   21.6869 H   0  0  0  0  0  0
  -26.0175  -38.2847   24.1417 H   0  0  0  0  0  0
  -32.7121  -18.9891   18.3490 H   0  0  0  0  0  0
  -31.9617  -16.8084   18.9394 H   0  0  0  0  0  0
  -28.6665  -18.5729   21.1405 H   0  0  0  0  0  0
  -27.7911  -24.8462   18.8341 H   0  0  0  0  0  0
  -32.3074  -22.6548   17.2590 H   0  0  0  0  0  0
  -30.7260  -21.8830   17.1689 H   0  0  0  0  0  0
  -32.1857  -20.9459   16.8624 H   0  0  0  0  0  0
  -32.9126  -21.2797   19.2348 H   0  0  0  0  0  0
  -31.5337  -22.2407   19.5816 H   0  0  0  0  0  0
  -29.2608  -21.4508   21.5237 H   0  0  0  0  0  0
  -28.9433  -15.8711   20.8329 H   0  0  0  0  0  0
  -29.9941  -23.1968   21.7246 H   0  0  0  0  0  0
  1 25  1  0  0  0
  1 30  2  0  0  0
  1 83  1  0  0  0
  2  3  1  0  0  0
  2 25  1  0  0  0
  2 86  1  0  0  0
  2 87  1  0  0  0
  3  4  1  0  0  0
  3 88  1  0  0  0
  3 89  1  0  0  0
  4  5  1  0  0  0
  4 90  1  0  0  0
  4 91  1  0  0  0
  5  6  1  0  0  0
  5 26  1  0  0  0
  5 92  1  0  0  0
  6 25  1  0  0  0
  6 93  1  0  0  0
  6 94  1  0  0  0
  7  8  2  0  0  0
  7 26  1  0  0  0
  7 29  1  0  0  0
  8  9  1  0  0  0
  8 22  1  0  0  0
  9 10  1  0  0  0
  9 27  2  0  0  0
 10 11  2  0  0  0
 10 15  1  0  0  0
 11 12  1  0  0  0
 11 95  1  0  0  0
 12 13  2  0  0  0
 12 96  1  0  0  0
 13 14  1  0  0  0
 13 31  1  0  0  0
 14 15  2  0  0  0
 14 97  1  0  0  0
 15 98  1  0  0  0
 16 17  2  0  0  0
 16 21  1  0  0  0
 16 31  1  0  0  0
 17 18  1  0  0  0
 17 99  1  0  0  0
 18 19  2  0  0  0
 18100  1  0  0  0
 19 20  1  0  0  0
 19 24  1  0  0  0
 20 21  2  0  0  0
 20101  1  0  0  0
 21 23  1  0  0  0
 22 28  1  0  0  0
 22 32  2  0  0  0
 26 27  1  0  0  0
 28102  1  0  0  0
 28103  1  0  0  0
 29104  1  0  0  0
 29105  1  0  0  0
 33 34  1  0  0  0
 33 66  1  0  0  0
 33 70  2  0  0  0
 34 36  1  0  0  0
 34 59  1  0  0  0
 34106  1  0  0  0
 35 44  2  0  0  0
 35 45  1  0  0  0
 35 68  1  0  0  0
 36 56  1  0  0  0
 36107  1  0  0  0
 37 39  1  0  0  0
 37 47  1  0  0  0
 37 66  1  0  0  0
 37108  1  0  0  0
 38 43  2  0  0  0
 38 46  1  0  0  0
 38 47  1  0  0  0
 39 64  1  0  0  0
 39 67  2  0  0  0
 40 52  1  0  0  0
 40 53  2  0  0  0
 40 58  1  0  0  0
 41109  1  0  0  0
 41110  1  0  0  0
 41111  1  0  0  0
 41 48  1  0  0  0
 42 43  1  0  0  0
 42 66  1  0  0  0
 42112  1  0  0  0
 42113  1  0  0  0
 43 44  1  0  0  0
 44114  1  0  0  0
 45 46  2  0  0  0
 45115  1  0  0  0
 46116  1  0  0  0
 47117  1  0  0  0
 47118  1  0  0  0
 48 56  1  0  0  0
 48 65  1  0  0  0
 48119  1  0  0  0
 49 50  1  0  0  0
 49 53  1  0  0  0
 49 64  1  0  0  0
 49120  1  0  0  0
 50 51  1  0  0  0
 50121  1  0  0  0
 50122  1  0  0  0
 51 52  1  0  0  0
 51123  1  0  0  0
 51124  1  0  0  0
 52125  1  0  0  0
 52126  1  0  0  0
 53 54  1  0  0  0
 54 55  2  0  0  0
 54127  1  0  0  0
 55 57  1  0  0  0
 55128  1  0  0  0
 56 69  2  0  0  0
 57 58  2  0  0  0
 57129  1  0  0  0
 58130  1  0  0  0
 59 60  1  0  0  0
 59 61  1  0  0  0
 59 62  1  0  0  0
 60131  1  0  0  0
 60132  1  0  0  0
 60133  1  0  0  0
 61134  1  0  0  0
 61135  1  0  0  0
 61136  1  0  0  0
 62137  1  0  0  0
 62138  1  0  0  0
 62139  1  0  0  0
 63 65  1  0  0  0
 63140  1  0  0  0
 63141  1  0  0  0
 63142  1  0  0  0
 64143  1  0  0  0
 65144  1  0  0  0
 68 77  1  0  0  0
 71 72  2  0  0  0
 71 74  1  0  0  0
 71145  1  0  0  0
 72 75  1  0  0  0
 72146  1  0  0  0
 73 75  2  0  0  0
 73 76  1  0  0  0
 73147  1  0  0  0
 74 76  2  0  0  0
 74 81  1  0  0  0
 75 83  1  0  0  0
 76 82  1  0  0  0
 77 78  2  0  0  0
 77148  1  0  0  0
 78 79  1  0  0  0
 78 85  1  0  0  0
 79 82  1  0  0  0
 79 84  2  0  0  0
 80 81  1  0  0  0
 80149  1  0  0  0
 80150  1  0  0  0
 80151  1  0  0  0
 81152  1  0  0  0
 81153  1  0  0  0
 82154  1  0  0  0
 83155  1  0  0  0
 85156  1  0  0  0
M  ISO  4   1 100  68 101  77 101  83 100
M  END
> <chiral flag>
0

> <version>
0

> <s_m_source_file>
/data/baiqing/PycharmProjects/Reinvent-master-3.2/result/LINK_invent/BTK/process_docking_weight1_custom_product_contain_oxygen_bond_distance_aromatic_linkinvent_7_9_3/rearranged_h_0171.sdf

> <i_m_source_file_index>
80

> <r_mmod_Potential_Energy-OPLS-2005>
233.679946899414

> <r_mmod_Stretch_Energy-OPLS-2005>
159.991638183594

> <r_mmod_Bend_Energy-OPLS-2005>
175.251968383789

> <r_mmod_Torsional_Energy-OPLS-2005>
264.037231445312

> <r_mmod_Improper_Torsional_Energy-OPLS-2005>
6.10269069671631

> <r_mmod_Van_der_Waal_Energy-OPLS-2005>
147.021362304688

> <r_mmod_Electrostatic_Energy-OPLS-2005>
-390.589294433594

> <r_mmod_Solvation_Energy-OPLS-2005>
-241.767776489258

> <b_mmod_Minimization_Converged-OPLS-2005>
0

> <r_mmod_RMS_Derivative-OPLS-2005>
2.55175995826721

$$$$
80
                    3D
 Structure written by MMmdl.
156164  0  0  1  0            999 V2000
  -30.7632  -14.3881   20.6616 C   0  0  0  0  0  0
  -30.4131  -12.2965   19.3985 C   0  0  0  0  0  0
  -29.4818  -12.5204   18.1929 C   0  0  0  0  0  0
  -28.0067  -12.3769   18.6117 C   0  0  0  0  0  0
  -27.6629  -13.2053   19.8782 C   0  0  2  0  0  0
  -28.7034  -12.9628   20.9940 C   0  0  0  0  0  0
  -25.2591  -13.8163   20.5681 C   0  0  0  0  0  0
  -24.1838  -13.0441   20.9169 C   0  0  0  0  0  0
  -24.6388  -11.6906   20.8731 C   0  0  0  0  0  0
  -23.9056  -10.4293   21.0403 C   0  0  0  0  0  0
  -24.3610   -9.4210   21.9181 C   0  0  0  0  0  0
  -23.6287   -8.2244   22.0753 C   0  0  0  0  0  0
  -22.4270   -8.0280   21.3544 C   0  0  0  0  0  0
  -21.9904   -9.0253   20.4646 C   0  0  0  0  0  0
  -22.7230  -10.2133   20.3054 C   0  0  0  0  0  0
  -21.6854   -6.0735   22.5278 C   0  0  0  0  0  0
  -21.4013   -6.5638   23.8211 C   0  0  0  0  0  0
  -21.3658   -5.6792   24.9175 C   0  0  0  0  0  0
  -21.6045   -4.3056   24.7226 C   0  0  0  0  0  0
  -21.8820   -3.8146   23.4348 C   0  0  0  0  0  0
  -21.9192   -4.6962   22.3403 C   0  0  0  0  0  0
  -22.7861  -13.5238   21.1835 C   0  0  0  0  0  0
  -22.1662   -4.2146   21.0982 F   0  0  0  0  0  0
  -21.5629   -3.4540   25.7740 F   0  0  0  0  0  0
  -30.0393  -13.2583   20.4465 N   0  0  0  0  0  0
  -26.3028  -12.9330   20.3385 N   0  0  0  0  0  0
  -25.9315  -11.6488   20.5767 N   0  0  0  0  0  0
  -22.0503  -12.8233   22.0394 N   0  0  0  0  0  0
  -25.4330  -15.1880   20.4090 N   0  0  0  0  0  0
  -31.8244  -14.6251   20.0753 O   0  0  0  0  0  0
  -21.6638   -6.8876   21.4238 O   0  0  0  0  0  0
  -22.3550  -14.5550   20.6692 O   0  0  0  0  0  0
  -24.6132  -31.8696   23.2120 C   0  0  0  0  0  0
  -25.9037  -32.4829   23.8405 C   0  0  1  0  0  0
  -27.2307  -27.4396   20.0862 C   0  0  0  0  0  0
  -25.5898  -33.8627   24.2335 N   0  0  0  0  0  0
  -23.3990  -30.4951   21.5532 C   0  0  2  0  0  0
  -24.8418  -28.9631   20.1169 C   0  0  0  0  0  0
  -22.7400  -29.4668   22.5001 C   0  0  0  0  0  0
  -18.0268  -28.1372   22.8492 C   0  0  0  0  0  0
  -24.1488  -36.7319   23.2635 C   0  0  0  0  0  0
  -25.9276  -30.8353   21.3652 C   0  0  0  0  0  0
  -26.0017  -29.4698   20.7138 C   0  0  0  0  0  0
  -27.1944  -28.7133   20.6995 C   0  0  0  0  0  0
  -26.0492  -26.9534   19.4738 C   0  0  0  0  0  0
  -24.8600  -27.7036   19.4976 C   0  0  0  0  0  0
  -23.6055  -29.8306   20.1669 C   0  0  0  0  0  0
  -25.4107  -36.3115   24.0337 C   0  0  1  0  0  0
  -20.5858  -28.3657   23.1322 C   0  0  2  0  0  0
  -20.6761  -26.9398   22.5414 C   0  0  0  0  0  0
  -19.5741  -26.6387   21.5207 C   0  0  0  0  0  0
  -18.1919  -26.7921   22.1620 C   0  0  0  0  0  0
  -19.1517  -28.8830   23.2906 C   0  0  0  0  0  0
  -18.9448  -30.1437   23.8916 C   0  0  0  0  0  0
  -17.6452  -30.6582   24.0563 C   0  0  0  0  0  0
  -25.9033  -34.9479   23.5134 C   0  0  0  0  0  0
  -16.5342  -29.9085   23.6324 C   0  0  0  0  0  0
  -16.7258  -28.6500   23.0348 C   0  0  0  0  0  0
  -26.4469  -31.6599   25.0723 C   0  0  0  0  0  0
  -25.3740  -31.3699   26.1475 C   0  0  0  0  0  0
  -27.0295  -30.3044   24.6083 C   0  0  0  0  0  0
  -27.6052  -32.4311   25.7483 C   0  0  0  0  0  0
  -27.5585  -37.1807   24.8460 C   0  0  0  0  0  0
  -21.4130  -29.3033   22.3737 N   0  0  0  0  0  0
  -26.4292  -37.3797   23.9413 N   0  0  0  0  0  0
  -24.6648  -31.0804   22.1020 N   0  0  0  0  0  0
  -23.4182  -28.8208   23.3034 O   0  0  0  0  0  0
  -28.4271  -26.7494   20.0956 O   0  0  0  0  0  0
  -26.5594  -34.8928   22.4694 O   0  0  0  0  0  0
  -23.5330  -32.1447   23.7525 O   0  0  0  0  0  0
  -32.1467  -16.1842   22.7554 C   0  0  0  0  0  0
  -32.8117  -17.2713   23.3485 C   0  0  0  0  0  0
  -30.3419  -17.6736   22.0434 C   0  0  0  0  0  0
  -30.9128  -16.3786   22.0937 C   0  0  0  0  0  0
  -31.0284  -18.7762   22.6178 C   0  0  0  0  0  0
  -32.2539  -18.5589   23.2795 C   0  0  0  0  0  0
  -29.0374  -24.5381   20.9579 C   0  0  0  0  0  0
  -29.6935  -20.7418   21.8069 C   0  0  0  0  0  0
  -28.9715  -23.0109   20.8296 C   0  0  0  0  0  0
  -28.4490  -25.3447   19.7922 C   0  0  0  0  0  0
  -29.5149  -22.2439   22.0569 C   0  0  0  0  0  0
  -30.5661  -20.1216   22.6153 N   0  0  0  0  0  0
  -30.2309  -15.2704   21.5240 N   0  0  0  0  0  0
  -29.5330  -25.0868   21.9486 O   0  0  0  0  0  0
  -29.0565  -20.1800   20.9131 O   0  0  0  0  0  0
  -32.9006  -19.6033   23.8528 F   0  0  0  0  0  0
  -31.4561  -12.3918   19.0909 H   0  0  0  0  0  0
  -30.3103  -11.2782   19.7762 H   0  0  0  0  0  0
  -29.7149  -11.8103   17.3984 H   0  0  0  0  0  0
  -29.6505  -13.5144   17.7752 H   0  0  0  0  0  0
  -27.8151  -11.3194   18.7973 H   0  0  0  0  0  0
  -27.3523  -12.6632   17.7874 H   0  0  0  0  0  0
  -27.7161  -14.2572   19.5967 H   0  0  0  0  0  0
  -28.6714  -11.9219   21.3199 H   0  0  0  0  0  0
  -28.4574  -13.5473   21.8808 H   0  0  0  0  0  0
  -25.2756   -9.5687   22.4755 H   0  0  0  0  0  0
  -23.9998   -7.4637   22.7474 H   0  0  0  0  0  0
  -21.0835   -8.8770   19.8953 H   0  0  0  0  0  0
  -22.3688  -10.9671   19.6162 H   0  0  0  0  0  0
  -21.2006   -7.6147   23.9713 H   0  0  0  0  0  0
  -21.1479   -6.0525   25.9077 H   0  0  0  0  0  0
  -22.0601   -2.7607   23.2851 H   0  0  0  0  0  0
  -22.4114  -11.9887   22.4772 H   0  0  0  0  0  0
  -21.1123  -13.1263   22.2605 H   0  0  0  0  0  0
  -24.6700  -15.8476   20.5164 H   0  0  0  0  0  0
  -26.2929  -15.6245   20.0997 H   0  0  0  0  0  0
  -26.7107  -32.5544   23.1167 H   0  0  0  0  0  0
  -25.0060  -33.9792   25.0489 H   0  0  0  0  0  0
  -22.6869  -31.3115   21.4170 H   0  0  0  0  0  0
  -23.3749  -35.9653   23.3296 H   0  0  0  0  0  0
  -24.3589  -36.8931   22.2050 H   0  0  0  0  0  0
  -23.7241  -37.6523   23.6651 H   0  0  0  0  0  0
  -26.0382  -31.6013   20.5963 H   0  0  0  0  0  0
  -26.8167  -30.8886   21.9815 H   0  0  0  0  0  0
  -28.0906  -29.1039   21.1623 H   0  0  0  0  0  0
  -26.0078  -26.0145   18.9457 H   0  0  0  0  0  0
  -23.9698  -27.3125   19.0239 H   0  0  0  0  0  0
  -23.7144  -30.6063   19.4081 H   0  0  0  0  0  0
  -22.7292  -29.2510   19.8710 H   0  0  0  0  0  0
  -25.1280  -36.1979   25.0828 H   0  0  0  0  0  0
  -20.9946  -28.3225   24.1443 H   0  0  0  0  0  0
  -20.5666  -26.2264   23.3595 H   0  0  0  0  0  0
  -21.6633  -26.7448   22.1204 H   0  0  0  0  0  0
  -19.6905  -25.6304   21.1223 H   0  0  0  0  0  0
  -19.6682  -27.3207   20.6747 H   0  0  0  0  0  0
  -17.4187  -26.6665   21.4023 H   0  0  0  0  0  0
  -18.0320  -26.0056   22.9008 H   0  0  0  0  0  0
  -19.7928  -30.7239   24.2296 H   0  0  0  0  0  0
  -17.5014  -31.6265   24.5161 H   0  0  0  0  0  0
  -15.5346  -30.2995   23.7640 H   0  0  0  0  0  0
  -15.8657  -28.0829   22.7055 H   0  0  0  0  0  0
  -24.5921  -30.7035   25.7816 H   0  0  0  0  0  0
  -24.8924  -32.2850   26.4930 H   0  0  0  0  0  0
  -25.8099  -30.8871   27.0230 H   0  0  0  0  0  0
  -26.2829  -29.6807   24.1152 H   0  0  0  0  0  0
  -27.4087  -29.7275   25.4529 H   0  0  0  0  0  0
  -27.8658  -30.4363   23.9212 H   0  0  0  0  0  0
  -27.2683  -33.3611   26.2075 H   0  0  0  0  0  0
  -28.3858  -32.6862   25.0303 H   0  0  0  0  0  0
  -28.0721  -31.8419   26.5384 H   0  0  0  0  0  0
  -28.2588  -38.0120   24.7533 H   0  0  0  0  0  0
  -28.1094  -36.2651   24.6252 H   0  0  0  0  0  0
  -27.2307  -37.1417   25.8863 H   0  0  0  0  0  0
  -20.9279  -29.8766   21.6976 H   0  0  0  0  0  0
  -26.0184  -38.2871   24.1429 H   0  0  0  0  0  0
  -32.5893  -15.2000   22.8211 H   0  0  0  0  0  0
  -33.7517  -17.1191   23.8578 H   0  0  0  0  0  0
  -29.3883  -17.8109   21.5560 H   0  0  0  0  0  0
  -29.5329  -22.7291   19.9386 H   0  0  0  0  0  0
  -27.9356  -22.7247   20.6463 H   0  0  0  0  0  0
  -27.4787  -24.9060   19.5844 H   0  0  0  0  0  0
  -29.0659  -25.1858   18.9080 H   0  0  0  0  0  0
  -30.4817  -22.6568   22.3501 H   0  0  0  0  0  0
  -28.8449  -22.3774   22.9069 H   0  0  0  0  0  0
  -31.0600  -20.7229   23.2618 H   0  0  0  0  0  0
  -29.2845  -15.0967   21.8278 H   0  0  0  0  0  0
  1 25  1  0  0  0
  1 30  2  0  0  0
  1 83  1  0  0  0
  2  3  1  0  0  0
  2 25  1  0  0  0
  2 87  1  0  0  0
  2 88  1  0  0  0
  3  4  1  0  0  0
  3 89  1  0  0  0
  3 90  1  0  0  0
  4  5  1  0  0  0
  4 91  1  0  0  0
  4 92  1  0  0  0
  5  6  1  0  0  0
  5 26  1  0  0  0
  5 93  1  0  0  0
  6 25  1  0  0  0
  6 94  1  0  0  0
  6 95  1  0  0  0
  7  8  2  0  0  0
  7 26  1  0  0  0
  7 29  1  0  0  0
  8  9  1  0  0  0
  8 22  1  0  0  0
  9 10  1  0  0  0
  9 27  2  0  0  0
 10 11  2  0  0  0
 10 15  1  0  0  0
 11 12  1  0  0  0
 11 96  1  0  0  0
 12 13  2  0  0  0
 12 97  1  0  0  0
 13 14  1  0  0  0
 13 31  1  0  0  0
 14 15  2  0  0  0
 14 98  1  0  0  0
 15 99  1  0  0  0
 16 17  2  0  0  0
 16 21  1  0  0  0
 16 31  1  0  0  0
 17 18  1  0  0  0
 17100  1  0  0  0
 18 19  2  0  0  0
 18101  1  0  0  0
 19 20  1  0  0  0
 19 24  1  0  0  0
 20 21  2  0  0  0
 20102  1  0  0  0
 21 23  1  0  0  0
 22 28  1  0  0  0
 22 32  2  0  0  0
 26 27  1  0  0  0
 28103  1  0  0  0
 28104  1  0  0  0
 29105  1  0  0  0
 29106  1  0  0  0
 33 34  1  0  0  0
 33 66  1  0  0  0
 33 70  2  0  0  0
 34 36  1  0  0  0
 34 59  1  0  0  0
 34107  1  0  0  0
 35 44  2  0  0  0
 35 45  1  0  0  0
 35 68  1  0  0  0
 36 56  1  0  0  0
 36108  1  0  0  0
 37 39  1  0  0  0
 37 47  1  0  0  0
 37 66  1  0  0  0
 37109  1  0  0  0
 38 43  2  0  0  0
 38 46  1  0  0  0
 38 47  1  0  0  0
 39 64  1  0  0  0
 39 67  2  0  0  0
 40 52  1  0  0  0
 40 53  2  0  0  0
 40 58  1  0  0  0
 41110  1  0  0  0
 41111  1  0  0  0
 41112  1  0  0  0
 41 48  1  0  0  0
 42 43  1  0  0  0
 42 66  1  0  0  0
 42113  1  0  0  0
 42114  1  0  0  0
 43 44  1  0  0  0
 44115  1  0  0  0
 45 46  2  0  0  0
 45116  1  0  0  0
 46117  1  0  0  0
 47118  1  0  0  0
 47119  1  0  0  0
 48 56  1  0  0  0
 48 65  1  0  0  0
 48120  1  0  0  0
 49 50  1  0  0  0
 49 53  1  0  0  0
 49 64  1  0  0  0
 49121  1  0  0  0
 50 51  1  0  0  0
 50122  1  0  0  0
 50123  1  0  0  0
 51 52  1  0  0  0
 51124  1  0  0  0
 51125  1  0  0  0
 52126  1  0  0  0
 52127  1  0  0  0
 53 54  1  0  0  0
 54 55  2  0  0  0
 54128  1  0  0  0
 55 57  1  0  0  0
 55129  1  0  0  0
 56 69  2  0  0  0
 57 58  2  0  0  0
 57130  1  0  0  0
 58131  1  0  0  0
 59 60  1  0  0  0
 59 61  1  0  0  0
 59 62  1  0  0  0
 60132  1  0  0  0
 60133  1  0  0  0
 60134  1  0  0  0
 61135  1  0  0  0
 61136  1  0  0  0
 61137  1  0  0  0
 62138  1  0  0  0
 62139  1  0  0  0
 62140  1  0  0  0
 63 65  1  0  0  0
 63141  1  0  0  0
 63142  1  0  0  0
 63143  1  0  0  0
 64144  1  0  0  0
 65145  1  0  0  0
 68 80  1  0  0  0
 71 72  2  0  0  0
 71 74  1  0  0  0
 71146  1  0  0  0
 72 76  1  0  0  0
 72147  1  0  0  0
 73 74  2  0  0  0
 73 75  1  0  0  0
 73148  1  0  0  0
 74 83  1  0  0  0
 75 76  2  0  0  0
 75 82  1  0  0  0
 76 86  1  0  0  0
 77 79  1  0  0  0
 77 80  1  0  0  0
 77 84  2  0  0  0
 78 81  1  0  0  0
 78 82  1  0  0  0
 78 85  2  0  0  0
 79 81  1  0  0  0
 79149  1  0  0  0
 79150  1  0  0  0
 80151  1  0  0  0
 80152  1  0  0  0
 81153  1  0  0  0
 81154  1  0  0  0
 82155  1  0  0  0
 83156  1  0  0  0
M  ISO  4   1 100  68 101  80 101  83 100
M  END
> <chiral flag>
0

> <version>
0

> <s_m_source_file>
/data/baiqing/PycharmProjects/Reinvent-master-3.2/result/LINK_invent/BTK/process_docking_weight1_custom_product_contain_oxygen_bond_distance_aromatic_linkinvent_7_9_3/rearranged_h_0171.sdf

> <i_m_source_file_index>
81

> <r_mmod_Potential_Energy-OPLS-2005>
-162.689849853516

> <r_mmod_Stretch_Energy-OPLS-2005>
34.4729080200195

> <r_mmod_Bend_Energy-OPLS-2005>
106.33097076416

> <r_mmod_Torsional_Energy-OPLS-2005>
226.997406005859

> <r_mmod_Improper_Torsional_Energy-OPLS-2005>
1.9929701089859

> <r_mmod_Van_der_Waal_Energy-OPLS-2005>
164.89421081543

> <r_mmod_Electrostatic_Energy-OPLS-2005>
-466.278564453125

> <r_mmod_Solvation_Energy-OPLS-2005>
-240.023010253906

> <b_mmod_Minimization_Converged-OPLS-2005>
0

> <r_mmod_RMS_Derivative-OPLS-2005>
0.544602036476135

$$$$
81
                    3D
 Structure written by MMmdl.
156164  0  0  1  0            999 V2000
  -30.6804  -14.5016   20.5379 C   0  0  0  0  0  0
  -30.4282  -12.3154   19.4279 C   0  0  0  0  0  0
  -29.4976  -12.4978   18.2099 C   0  0  0  0  0  0
  -28.0184  -12.3560   18.6225 C   0  0  0  0  0  0
  -27.6594  -13.2037   19.8716 C   0  0  2  0  0  0
  -28.7036  -13.0009   20.9944 C   0  0  0  0  0  0
  -25.2561  -13.8127   20.5683 C   0  0  0  0  0  0
  -24.1817  -13.0408   20.9168 C   0  0  0  0  0  0
  -24.6384  -11.6884   20.8730 C   0  0  0  0  0  0
  -23.9051  -10.4278   21.0403 C   0  0  0  0  0  0
  -24.3607   -9.4197   21.9182 C   0  0  0  0  0  0
  -23.6280   -8.2235   22.0752 C   0  0  0  0  0  0
  -22.4265   -8.0275   21.3540 C   0  0  0  0  0  0
  -21.9900   -9.0250   20.4645 C   0  0  0  0  0  0
  -22.7225  -10.2129   20.3052 C   0  0  0  0  0  0
  -21.6860   -6.0730   22.5278 C   0  0  0  0  0  0
  -21.4015   -6.5633   23.8211 C   0  0  0  0  0  0
  -21.3652   -5.6785   24.9171 C   0  0  0  0  0  0
  -21.6044   -4.3049   24.7225 C   0  0  0  0  0  0
  -21.8820   -3.8141   23.4347 C   0  0  0  0  0  0
  -21.9194   -4.6956   22.3404 C   0  0  0  0  0  0
  -22.7846  -13.5217   21.1836 C   0  0  0  0  0  0
  -22.1661   -4.2139   21.0982 F   0  0  0  0  0  0
  -21.5628   -3.4534   25.7737 F   0  0  0  0  0  0
  -30.0338  -13.3073   20.4400 N   0  0  0  0  0  0
  -26.3010  -12.9306   20.3361 N   0  0  0  0  0  0
  -25.9314  -11.6469   20.5773 N   0  0  0  0  0  0
  -22.0494  -12.8222   22.0408 N   0  0  0  0  0  0
  -25.4223  -15.1838   20.4128 N   0  0  0  0  0  0
  -31.8264  -14.6774   20.1142 O   0  0  0  0  0  0
  -21.6634   -6.8869   21.4238 O   0  0  0  0  0  0
  -22.3528  -14.5520   20.6683 O   0  0  0  0  0  0
  -24.6154  -31.8666   23.2096 C   0  0  0  0  0  0
  -25.9044  -32.4813   23.8389 C   0  0  1  0  0  0
  -27.2373  -27.4250   20.0843 C   0  0  0  0  0  0
  -25.5896  -33.8613   24.2318 N   0  0  0  0  0  0
  -23.4039  -30.4905   21.5508 C   0  0  2  0  0  0
  -24.8492  -28.9575   20.1121 C   0  0  0  0  0  0
  -22.7415  -29.4647   22.4986 C   0  0  0  0  0  0
  -18.0270  -28.1373   22.8492 C   0  0  0  0  0  0
  -24.1486  -36.7315   23.2640 C   0  0  0  0  0  0
  -25.9341  -30.8297   21.3633 C   0  0  0  0  0  0
  -26.0113  -29.4646   20.7066 C   0  0  0  0  0  0
  -27.2056  -28.7052   20.6903 C   0  0  0  0  0  0
  -26.0473  -26.9313   19.4985 C   0  0  0  0  0  0
  -24.8622  -27.6903   19.5067 C   0  0  0  0  0  0
  -23.6114  -29.8248   20.1647 C   0  0  0  0  0  0
  -25.4109  -36.3106   24.0335 C   0  0  1  0  0  0
  -20.5862  -28.3657   23.1316 C   0  0  2  0  0  0
  -20.6758  -26.9391   22.5420 C   0  0  0  0  0  0
  -19.5739  -26.6381   21.5211 C   0  0  0  0  0  0
  -18.1917  -26.7921   22.1622 C   0  0  0  0  0  0
  -19.1521  -28.8833   23.2901 C   0  0  0  0  0  0
  -18.9448  -30.1442   23.8908 C   0  0  0  0  0  0
  -17.6451  -30.6580   24.0563 C   0  0  0  0  0  0
  -25.9036  -34.9470   23.5123 C   0  0  0  0  0  0
  -16.5341  -29.9083   23.6325 C   0  0  0  0  0  0
  -16.7260  -28.6500   23.0345 C   0  0  0  0  0  0
  -26.4473  -31.6595   25.0719 C   0  0  0  0  0  0
  -25.3743  -31.3705   26.1469 C   0  0  0  0  0  0
  -27.0304  -30.3036   24.6100 C   0  0  0  0  0  0
  -27.6048  -32.4318   25.7478 C   0  0  0  0  0  0
  -27.5581  -37.1808   24.8466 C   0  0  0  0  0  0
  -21.4141  -29.3025   22.3725 N   0  0  0  0  0  0
  -26.4297  -37.3788   23.9407 N   0  0  0  0  0  0
  -24.6697  -31.0762   22.1000 N   0  0  0  0  0  0
  -23.4183  -28.8183   23.3028 O   0  0  0  0  0  0
  -28.4040  -26.6791   20.1272 O   0  0  0  0  0  0
  -26.5601  -34.8921   22.4686 O   0  0  0  0  0  0
  -23.5345  -32.1423   23.7484 O   0  0  0  0  0  0
  -31.1827  -18.9928   20.1445 C   0  0  0  0  0  0
  -31.1647  -17.6674   20.6423 C   0  0  0  0  0  0
  -30.0393  -19.5624   19.5272 C   0  0  0  0  0  0
  -29.9934  -16.8810   20.5467 C   0  0  0  0  0  0
  -28.8516  -18.7931   19.4987 C   0  0  0  0  0  0
  -28.8310  -17.4742   20.0086 C   0  0  0  0  0  0
  -28.5181  -25.5297   19.3726 C   0  0  0  0  0  0
  -29.0078  -24.3600   19.8493 C   0  0  0  0  0  0
  -29.1076  -23.1974   18.9569 C   0  0  0  0  0  0
  -31.4759  -21.1609   18.1223 C   0  0  0  0  0  0
  -30.1006  -20.9084   18.7716 C   0  0  2  0  0  0
  -29.9238  -15.5214   20.9914 N   0  0  0  0  0  0
  -29.6750  -22.1079   19.5190 N   0  0  0  0  0  0
  -28.7479  -23.2022   17.7768 O   0  0  0  0  0  0
  -29.4058  -24.2672   21.1277 O   0  0  0  0  0  0
  -27.7283  -19.3006   18.9350 F   0  0  0  0  0  0
  -27.6892  -16.7517   19.9362 F   0  0  0  0  0  0
  -31.4716  -12.4209   19.1257 H   0  0  0  0  0  0
  -30.3375  -11.3075   19.8360 H   0  0  0  0  0  0
  -29.7412  -11.7655   17.4388 H   0  0  0  0  0  0
  -29.6616  -13.4794   17.7626 H   0  0  0  0  0  0
  -27.8336  -11.3008   18.8272 H   0  0  0  0  0  0
  -27.3674  -12.6202   17.7883 H   0  0  0  0  0  0
  -27.6950  -14.2464   19.5590 H   0  0  0  0  0  0
  -28.6858  -11.9687   21.3475 H   0  0  0  0  0  0
  -28.4657  -13.6104   21.8675 H   0  0  0  0  0  0
  -25.2760   -9.5674   22.4746 H   0  0  0  0  0  0
  -23.9992   -7.4630   22.7472 H   0  0  0  0  0  0
  -21.0832   -8.8769   19.8957 H   0  0  0  0  0  0
  -22.3686  -10.9667   19.6159 H   0  0  0  0  0  0
  -21.2009   -7.6143   23.9710 H   0  0  0  0  0  0
  -21.1472   -6.0518   25.9072 H   0  0  0  0  0  0
  -22.0608   -2.7603   23.2855 H   0  0  0  0  0  0
  -22.4106  -11.9882   22.4794 H   0  0  0  0  0  0
  -21.1120  -13.1265   22.2621 H   0  0  0  0  0  0
  -24.6552  -15.8360   20.5263 H   0  0  0  0  0  0
  -26.2831  -15.6385   20.1281 H   0  0  0  0  0  0
  -26.7112  -32.5521   23.1149 H   0  0  0  0  0  0
  -25.0035  -33.9772   25.0456 H   0  0  0  0  0  0
  -22.6930  -31.3077   21.4130 H   0  0  0  0  0  0
  -23.3734  -35.9661   23.3317 H   0  0  0  0  0  0
  -24.3577  -36.8917   22.2051 H   0  0  0  0  0  0
  -23.7250  -37.6530   23.6644 H   0  0  0  0  0  0
  -26.0485  -31.5973   20.5964 H   0  0  0  0  0  0
  -26.8215  -30.8806   21.9826 H   0  0  0  0  0  0
  -28.1030  -29.0926   21.1517 H   0  0  0  0  0  0
  -26.0103  -25.9529   19.0422 H   0  0  0  0  0  0
  -23.9657  -27.2899   19.0532 H   0  0  0  0  0  0
  -23.7185  -30.6015   19.4066 H   0  0  0  0  0  0
  -22.7349  -29.2454   19.8686 H   0  0  0  0  0  0
  -25.1283  -36.1973   25.0827 H   0  0  0  0  0  0
  -20.9950  -28.3219   24.1437 H   0  0  0  0  0  0
  -20.5655  -26.2260   23.3606 H   0  0  0  0  0  0
  -21.6627  -26.7431   22.1212 H   0  0  0  0  0  0
  -19.6900  -25.6298   21.1224 H   0  0  0  0  0  0
  -19.6680  -27.3204   20.6751 H   0  0  0  0  0  0
  -17.4185  -26.6666   21.4026 H   0  0  0  0  0  0
  -18.0323  -26.0064   22.9019 H   0  0  0  0  0  0
  -19.7924  -30.7256   24.2280 H   0  0  0  0  0  0
  -17.5004  -31.6260   24.5163 H   0  0  0  0  0  0
  -15.5342  -30.2985   23.7649 H   0  0  0  0  0  0
  -15.8659  -28.0829   22.7047 H   0  0  0  0  0  0
  -24.5907  -30.7061   25.7811 H   0  0  0  0  0  0
  -24.8942  -32.2862   26.4931 H   0  0  0  0  0  0
  -25.8096  -30.8865   27.0219 H   0  0  0  0  0  0
  -26.2848  -29.6793   24.1158 H   0  0  0  0  0  0
  -27.4077  -29.7275   25.4559 H   0  0  0  0  0  0
  -27.8681  -30.4352   23.9248 H   0  0  0  0  0  0
  -27.2661  -33.3601   26.2090 H   0  0  0  0  0  0
  -28.3834  -32.6907   25.0291 H   0  0  0  0  0  0
  -28.0741  -31.8423   26.5364 H   0  0  0  0  0  0
  -28.2604  -38.0100   24.7493 H   0  0  0  0  0  0
  -28.1062  -36.2622   24.6304 H   0  0  0  0  0  0
  -27.2291  -37.1482   25.8869 H   0  0  0  0  0  0
  -20.9299  -29.8755   21.6955 H   0  0  0  0  0  0
  -26.0181  -38.2866   24.1400 H   0  0  0  0  0  0
  -32.1079  -19.5477   20.1991 H   0  0  0  0  0  0
  -32.0647  -17.2517   21.0738 H   0  0  0  0  0  0
  -28.1852  -25.6703   18.3517 H   0  0  0  0  0  0
  -31.7822  -20.3093   17.5135 H   0  0  0  0  0  0
  -32.2534  -21.3439   18.8638 H   0  0  0  0  0  0
  -31.4487  -22.0297   17.4643 H   0  0  0  0  0  0
  -29.4073  -20.7822   17.9375 H   0  0  0  0  0  0
  -29.0068  -15.2238   21.2887 H   0  0  0  0  0  0
  -29.9249  -22.1864   20.4958 H   0  0  0  0  0  0
  -29.2600  -25.1197   21.5183 H   0  0  0  0  0  0
  1 25  1  0  0  0
  1 30  2  0  0  0
  1 82  1  0  0  0
  2  3  1  0  0  0
  2 25  1  0  0  0
  2 88  1  0  0  0
  2 89  1  0  0  0
  3  4  1  0  0  0
  3 90  1  0  0  0
  3 91  1  0  0  0
  4  5  1  0  0  0
  4 92  1  0  0  0
  4 93  1  0  0  0
  5  6  1  0  0  0
  5 26  1  0  0  0
  5 94  1  0  0  0
  6 25  1  0  0  0
  6 95  1  0  0  0
  6 96  1  0  0  0
  7  8  2  0  0  0
  7 26  1  0  0  0
  7 29  1  0  0  0
  8  9  1  0  0  0
  8 22  1  0  0  0
  9 10  1  0  0  0
  9 27  2  0  0  0
 10 11  2  0  0  0
 10 15  1  0  0  0
 11 12  1  0  0  0
 11 97  1  0  0  0
 12 13  2  0  0  0
 12 98  1  0  0  0
 13 14  1  0  0  0
 13 31  1  0  0  0
 14 15  2  0  0  0
 14 99  1  0  0  0
 15100  1  0  0  0
 16 17  2  0  0  0
 16 21  1  0  0  0
 16 31  1  0  0  0
 17 18  1  0  0  0
 17101  1  0  0  0
 18 19  2  0  0  0
 18102  1  0  0  0
 19 20  1  0  0  0
 19 24  1  0  0  0
 20 21  2  0  0  0
 20103  1  0  0  0
 21 23  1  0  0  0
 22 28  1  0  0  0
 22 32  2  0  0  0
 26 27  1  0  0  0
 28104  1  0  0  0
 28105  1  0  0  0
 29106  1  0  0  0
 29107  1  0  0  0
 33 34  1  0  0  0
 33 66  1  0  0  0
 33 70  2  0  0  0
 34 36  1  0  0  0
 34 59  1  0  0  0
 34108  1  0  0  0
 35 44  2  0  0  0
 35 45  1  0  0  0
 35 68  1  0  0  0
 36 56  1  0  0  0
 36109  1  0  0  0
 37 39  1  0  0  0
 37 47  1  0  0  0
 37 66  1  0  0  0
 37110  1  0  0  0
 38 43  2  0  0  0
 38 46  1  0  0  0
 38 47  1  0  0  0
 39 64  1  0  0  0
 39 67  2  0  0  0
 40 52  1  0  0  0
 40 53  2  0  0  0
 40 58  1  0  0  0
 41111  1  0  0  0
 41112  1  0  0  0
 41113  1  0  0  0
 41 48  1  0  0  0
 42 43  1  0  0  0
 42 66  1  0  0  0
 42114  1  0  0  0
 42115  1  0  0  0
 43 44  1  0  0  0
 44116  1  0  0  0
 45 46  2  0  0  0
 45117  1  0  0  0
 46118  1  0  0  0
 47119  1  0  0  0
 47120  1  0  0  0
 48 56  1  0  0  0
 48 65  1  0  0  0
 48121  1  0  0  0
 49 50  1  0  0  0
 49 53  1  0  0  0
 49 64  1  0  0  0
 49122  1  0  0  0
 50 51  1  0  0  0
 50123  1  0  0  0
 50124  1  0  0  0
 51 52  1  0  0  0
 51125  1  0  0  0
 51126  1  0  0  0
 52127  1  0  0  0
 52128  1  0  0  0
 53 54  1  0  0  0
 54 55  2  0  0  0
 54129  1  0  0  0
 55 57  1  0  0  0
 55130  1  0  0  0
 56 69  2  0  0  0
 57 58  2  0  0  0
 57131  1  0  0  0
 58132  1  0  0  0
 59 60  1  0  0  0
 59 61  1  0  0  0
 59 62  1  0  0  0
 60133  1  0  0  0
 60134  1  0  0  0
 60135  1  0  0  0
 61136  1  0  0  0
 61137  1  0  0  0
 61138  1  0  0  0
 62139  1  0  0  0
 62140  1  0  0  0
 62141  1  0  0  0
 63 65  1  0  0  0
 63142  1  0  0  0
 63143  1  0  0  0
 63144  1  0  0  0
 64145  1  0  0  0
 65146  1  0  0  0
 68 77  1  0  0  0
 71 72  2  0  0  0
 71 73  1  0  0  0
 71147  1  0  0  0
 72 74  1  0  0  0
 72148  1  0  0  0
 73 75  2  0  0  0
 73 81  1  0  0  0
 74 76  2  0  0  0
 74 82  1  0  0  0
 75 76  1  0  0  0
 75 86  1  0  0  0
 76 87  1  0  0  0
 77 78  2  0  0  0
 77149  1  0  0  0
 78 79  1  0  0  0
 78 85  1  0  0  0
 79 83  1  0  0  0
 79 84  2  0  0  0
 80150  1  0  0  0
 80151  1  0  0  0
 80152  1  0  0  0
 80 81  1  0  0  0
 81 83  1  0  0  0
 81153  1  0  0  0
 82154  1  0  0  0
 83155  1  0  0  0
 85156  1  0  0  0
M  ISO  4   1 100  68 101  77 101  82 100
M  END
> <chiral flag>
0

> <version>
0

> <s_m_source_file>
/data/baiqing/PycharmProjects/Reinvent-master-3.2/result/LINK_invent/BTK/process_docking_weight1_custom_product_contain_oxygen_bond_distance_aromatic_linkinvent_7_9_3/rearranged_h_0171.sdf

> <i_m_source_file_index>
82

> <r_mmod_Potential_Energy-OPLS-2005>
-134.157318115234

> <r_mmod_Stretch_Energy-OPLS-2005>
40.5605850219727

> <r_mmod_Bend_Energy-OPLS-2005>
98.1722106933594

> <r_mmod_Torsional_Energy-OPLS-2005>
222.241485595703

> <r_mmod_Improper_Torsional_Energy-OPLS-2005>
6.52502059936523

> <r_mmod_Van_der_Waal_Energy-OPLS-2005>
163.549514770508

> <r_mmod_Electrostatic_Energy-OPLS-2005>
-473.577575683594

> <r_mmod_Solvation_Energy-OPLS-2005>
-208.05110168457

> <b_mmod_Minimization_Converged-OPLS-2005>
0

> <r_mmod_RMS_Derivative-OPLS-2005>
0.870468854904175

$$$$
82
                    3D
 Structure written by MMmdl.
161169  0  0  1  0            999 V2000
  -30.7089  -14.5182   20.5367 C   0  0  0  0  0  0
  -30.4145  -12.3270   19.4388 C   0  0  0  0  0  0
  -29.4935  -12.4916   18.2134 C   0  0  0  0  0  0
  -28.0168  -12.3482   18.6283 C   0  0  0  0  0  0
  -27.6536  -13.2145   19.8641 C   0  0  2  0  0  0
  -28.6967  -13.0558   20.9935 C   0  0  0  0  0  0
  -25.2558  -13.8179   20.5680 C   0  0  0  0  0  0
  -24.1826  -13.0446   20.9196 C   0  0  0  0  0  0
  -24.6391  -11.6914   20.8747 C   0  0  0  0  0  0
  -23.9063  -10.4298   21.0411 C   0  0  0  0  0  0
  -24.3616   -9.4210   21.9187 C   0  0  0  0  0  0
  -23.6293   -8.2244   22.0753 C   0  0  0  0  0  0
  -22.4275   -8.0284   21.3541 C   0  0  0  0  0  0
  -21.9914   -9.0259   20.4642 C   0  0  0  0  0  0
  -22.7241  -10.2139   20.3055 C   0  0  0  0  0  0
  -21.6853   -6.0738   22.5279 C   0  0  0  0  0  0
  -21.4011   -6.5641   23.8213 C   0  0  0  0  0  0
  -21.3655   -5.6793   24.9173 C   0  0  0  0  0  0
  -21.6044   -4.3056   24.7227 C   0  0  0  0  0  0
  -21.8820   -3.8149   23.4346 C   0  0  0  0  0  0
  -21.9194   -4.6966   22.3401 C   0  0  0  0  0  0
  -22.7848  -13.5238   21.1857 C   0  0  0  0  0  0
  -22.1664   -4.2153   21.0978 F   0  0  0  0  0  0
  -21.5628   -3.4539   25.7737 F   0  0  0  0  0  0
  -30.0202  -13.3476   20.4254 N   0  0  0  0  0  0
  -26.2986  -12.9361   20.3327 N   0  0  0  0  0  0
  -25.9317  -11.6517   20.5768 N   0  0  0  0  0  0
  -22.0492  -12.8221   22.0407 N   0  0  0  0  0  0
  -25.4279  -15.1899   20.4074 N   0  0  0  0  0  0
  -31.8633  -14.6279   20.1155 O   0  0  0  0  0  0
  -21.6637   -6.8881   21.4239 O   0  0  0  0  0  0
  -22.3536  -14.5548   20.6711 O   0  0  0  0  0  0
  -24.6176  -31.8663   23.2097 C   0  0  0  0  0  0
  -25.9063  -32.4814   23.8395 C   0  0  1  0  0  0
  -27.2244  -27.4066   20.1029 C   0  0  0  0  0  0
  -25.5915  -33.8613   24.2327 N   0  0  0  0  0  0
  -23.4062  -30.4913   21.5507 C   0  0  2  0  0  0
  -24.8526  -28.9587   20.1104 C   0  0  0  0  0  0
  -22.7432  -29.4644   22.4977 C   0  0  0  0  0  0
  -18.0276  -28.1373   22.8492 C   0  0  0  0  0  0
  -24.1482  -36.7299   23.2639 C   0  0  0  0  0  0
  -25.9383  -30.8262   21.3655 C   0  0  0  0  0  0
  -26.0163  -29.4596   20.7089 C   0  0  0  0  0  0
  -27.2096  -28.6938   20.6968 C   0  0  0  0  0  0
  -26.0473  -26.9360   19.4814 C   0  0  0  0  0  0
  -24.8652  -27.6989   19.4895 C   0  0  0  0  0  0
  -23.6155  -29.8285   20.1642 C   0  0  0  0  0  0
  -25.4108  -36.3107   24.0336 C   0  0  1  0  0  0
  -20.5869  -28.3667   23.1311 C   0  0  2  0  0  0
  -20.6766  -26.9401   22.5415 C   0  0  0  0  0  0
  -19.5743  -26.6386   21.5206 C   0  0  0  0  0  0
  -18.1921  -26.7923   22.1615 C   0  0  0  0  0  0
  -19.1528  -28.8835   23.2897 C   0  0  0  0  0  0
  -18.9453  -30.1439   23.8915 C   0  0  0  0  0  0
  -17.6456  -30.6584   24.0564 C   0  0  0  0  0  0
  -25.9040  -34.9470   23.5128 C   0  0  0  0  0  0
  -16.5346  -29.9087   23.6329 C   0  0  0  0  0  0
  -16.7265  -28.6496   23.0361 C   0  0  0  0  0  0
  -26.4492  -31.6596   25.0720 C   0  0  0  0  0  0
  -25.3765  -31.3668   26.1462 C   0  0  0  0  0  0
  -27.0332  -30.3051   24.6085 C   0  0  0  0  0  0
  -27.6065  -32.4318   25.7484 C   0  0  0  0  0  0
  -27.5576  -37.1800   24.8472 C   0  0  0  0  0  0
  -21.4154  -29.3029   22.3717 N   0  0  0  0  0  0
  -26.4292  -37.3792   23.9411 N   0  0  0  0  0  0
  -24.6725  -31.0753   22.1005 N   0  0  0  0  0  0
  -23.4195  -28.8182   23.3027 O   0  0  0  0  0  0
  -28.3567  -26.6123   20.1242 O   0  0  0  0  0  0
  -26.5599  -34.8924   22.4689 O   0  0  0  0  0  0
  -23.5362  -32.1421   23.7481 O   0  0  0  0  0  0
  -31.7921  -17.1794   21.6189 C   0  0  0  0  0  0
  -29.7725  -18.0927   20.6358 C   0  0  0  0  0  0
  -31.6573  -19.5907   21.1527 C   0  0  0  0  0  0
  -32.3671  -18.4638   21.6599 C   0  0  0  0  0  0
  -30.5196  -16.9567   21.0565 C   0  0  0  0  0  0
  -30.3067  -19.4175   20.6972 C   0  0  0  0  0  0
  -32.3694  -20.9095   21.0883 C   0  0  0  0  0  0
  -28.9596  -24.1815   19.9521 C   0  0  0  0  0  0
  -29.2288  -21.7123   20.7593 C   0  0  0  0  0  0
  -33.7875  -18.5679   22.2072 C   0  0  0  0  0  0
  -32.4911  -21.5471   19.7093 C   0  0  0  0  0  0
  -28.3942  -22.7344   19.9480 C   0  0  0  0  0  0
  -28.1458  -25.2834   20.6733 C   0  0  0  0  0  0
  -29.4835  -20.4999   20.1988 N   0  0  0  0  0  0
  -30.0101  -15.6107   20.9423 N   0  0  0  0  0  0
  -32.9048  -21.4601   22.0546 O   0  0  0  0  0  0
  -30.0120  -24.4534   19.3622 O   0  0  0  0  0  0
  -29.6003  -21.9993   21.9000 O   0  0  0  0  0  0
  -31.4605  -12.4106   19.1379 H   0  0  0  0  0  0
  -30.3093  -11.3301   19.8698 H   0  0  0  0  0  0
  -29.7418  -11.7495   17.4531 H   0  0  0  0  0  0
  -29.6550  -13.4683   17.7539 H   0  0  0  0  0  0
  -27.8403  -11.2950   18.8508 H   0  0  0  0  0  0
  -27.3640  -12.5934   17.7899 H   0  0  0  0  0  0
  -27.6802  -14.2521   19.5313 H   0  0  0  0  0  0
  -28.6809  -12.0405   21.3919 H   0  0  0  0  0  0
  -28.4611  -13.7099   21.8343 H   0  0  0  0  0  0
  -25.2763   -9.5685   22.4763 H   0  0  0  0  0  0
  -24.0005   -7.4636   22.7473 H   0  0  0  0  0  0
  -21.0848   -8.8779   19.8944 H   0  0  0  0  0  0
  -22.3707  -10.9679   19.6164 H   0  0  0  0  0  0
  -21.2000   -7.6150   23.9717 H   0  0  0  0  0  0
  -21.1474   -6.0521   25.9077 H   0  0  0  0  0  0
  -22.0602   -2.7611   23.2845 H   0  0  0  0  0  0
  -22.4111  -11.9875   22.4776 H   0  0  0  0  0  0
  -21.1106  -13.1237   22.2616 H   0  0  0  0  0  0
  -24.6596  -15.8443   20.5084 H   0  0  0  0  0  0
  -26.2747  -15.6255   20.0643 H   0  0  0  0  0  0
  -26.7132  -32.5525   23.1154 H   0  0  0  0  0  0
  -25.0083  -33.9776   25.0486 H   0  0  0  0  0  0
  -22.6947  -31.3082   21.4147 H   0  0  0  0  0  0
  -23.3750  -35.9623   23.3305 H   0  0  0  0  0  0
  -24.3572  -36.8911   22.2051 H   0  0  0  0  0  0
  -23.7223  -37.6497   23.6655 H   0  0  0  0  0  0
  -26.0542  -31.5946   20.5995 H   0  0  0  0  0  0
  -26.8244  -30.8776   21.9863 H   0  0  0  0  0  0
  -28.1078  -29.0736   21.1647 H   0  0  0  0  0  0
  -26.0360  -25.9741   18.9882 H   0  0  0  0  0  0
  -23.9736  -27.3131   19.0146 H   0  0  0  0  0  0
  -23.7240  -30.6067   19.4076 H   0  0  0  0  0  0
  -22.7379  -29.2510   19.8676 H   0  0  0  0  0  0
  -25.1282  -36.1968   25.0828 H   0  0  0  0  0  0
  -20.9956  -28.3235   24.1432 H   0  0  0  0  0  0
  -20.5670  -26.2268   23.3601 H   0  0  0  0  0  0
  -21.6636  -26.7445   22.1203 H   0  0  0  0  0  0
  -19.6906  -25.6305   21.1220 H   0  0  0  0  0  0
  -19.6687  -27.3210   20.6749 H   0  0  0  0  0  0
  -17.4196  -26.6682   21.4013 H   0  0  0  0  0  0
  -18.0311  -26.0056   22.9000 H   0  0  0  0  0  0
  -19.7932  -30.7240   24.2303 H   0  0  0  0  0  0
  -17.5017  -31.6269   24.5159 H   0  0  0  0  0  0
  -15.5351  -30.2994   23.7644 H   0  0  0  0  0  0
  -15.8658  -28.0817   22.7085 H   0  0  0  0  0  0
  -24.5989  -30.6957   25.7796 H   0  0  0  0  0  0
  -24.8895  -32.2798   26.4899 H   0  0  0  0  0  0
  -25.8140  -30.8868   27.0226 H   0  0  0  0  0  0
  -26.2867  -29.6780   24.1190 H   0  0  0  0  0  0
  -27.4179  -29.7308   25.4522 H   0  0  0  0  0  0
  -27.8668  -30.4377   23.9179 H   0  0  0  0  0  0
  -27.2699  -33.3617   26.2076 H   0  0  0  0  0  0
  -28.3869  -32.6875   25.0306 H   0  0  0  0  0  0
  -28.0740  -31.8435   26.5388 H   0  0  0  0  0  0
  -28.2606  -38.0088   24.7533 H   0  0  0  0  0  0
  -28.1063  -36.2623   24.6293 H   0  0  0  0  0  0
  -27.2293  -37.1445   25.8876 H   0  0  0  0  0  0
  -20.9321  -29.8746   21.6932 H   0  0  0  0  0  0
  -26.0179  -38.2863   24.1436 H   0  0  0  0  0  0
  -32.3642  -16.3407   21.9913 H   0  0  0  0  0  0
  -28.7788  -17.9453   20.2354 H   0  0  0  0  0  0
  -34.1927  -17.5902   22.4711 H   0  0  0  0  0  0
  -33.8111  -19.1814   23.1085 H   0  0  0  0  0  0
  -34.4601  -19.0051   21.4682 H   0  0  0  0  0  0
  -32.0708  -20.8983   18.9412 H   0  0  0  0  0  0
  -33.5397  -21.7222   19.4723 H   0  0  0  0  0  0
  -31.9664  -22.5014   19.6855 H   0  0  0  0  0  0
  -28.3187  -22.4078   18.9113 H   0  0  0  0  0  0
  -27.3802  -22.7395   20.3474 H   0  0  0  0  0  0
  -28.4508  -25.2976   21.7196 H   0  0  0  0  0  0
  -27.0958  -24.9951   20.6710 H   0  0  0  0  0  0
  -28.9773  -20.3082   19.3438 H   0  0  0  0  0  0
  -29.0210  -15.4762   21.0879 H   0  0  0  0  0  0
  1 25  1  0  0  0
  1 30  2  0  0  0
  1 85  1  0  0  0
  2  3  1  0  0  0
  2 25  1  0  0  0
  2 89  1  0  0  0
  2 90  1  0  0  0
  3  4  1  0  0  0
  3 91  1  0  0  0
  3 92  1  0  0  0
  4  5  1  0  0  0
  4 93  1  0  0  0
  4 94  1  0  0  0
  5  6  1  0  0  0
  5 26  1  0  0  0
  5 95  1  0  0  0
  6 25  1  0  0  0
  6 96  1  0  0  0
  6 97  1  0  0  0
  7  8  2  0  0  0
  7 26  1  0  0  0
  7 29  1  0  0  0
  8  9  1  0  0  0
  8 22  1  0  0  0
  9 10  1  0  0  0
  9 27  2  0  0  0
 10 11  2  0  0  0
 10 15  1  0  0  0
 11 12  1  0  0  0
 11 98  1  0  0  0
 12 13  2  0  0  0
 12 99  1  0  0  0
 13 14  1  0  0  0
 13 31  1  0  0  0
 14 15  2  0  0  0
 14100  1  0  0  0
 15101  1  0  0  0
 16 17  2  0  0  0
 16 21  1  0  0  0
 16 31  1  0  0  0
 17 18  1  0  0  0
 17102  1  0  0  0
 18 19  2  0  0  0
 18103  1  0  0  0
 19 20  1  0  0  0
 19 24  1  0  0  0
 20 21  2  0  0  0
 20104  1  0  0  0
 21 23  1  0  0  0
 22 28  1  0  0  0
 22 32  2  0  0  0
 26 27  1  0  0  0
 28105  1  0  0  0
 28106  1  0  0  0
 29107  1  0  0  0
 29108  1  0  0  0
 33 34  1  0  0  0
 33 66  1  0  0  0
 33 70  2  0  0  0
 34 36  1  0  0  0
 34 59  1  0  0  0
 34109  1  0  0  0
 35 44  2  0  0  0
 35 45  1  0  0  0
 35 68  1  0  0  0
 36 56  1  0  0  0
 36110  1  0  0  0
 37 39  1  0  0  0
 37 47  1  0  0  0
 37 66  1  0  0  0
 37111  1  0  0  0
 38 43  2  0  0  0
 38 46  1  0  0  0
 38 47  1  0  0  0
 39 64  1  0  0  0
 39 67  2  0  0  0
 40 52  1  0  0  0
 40 53  2  0  0  0
 40 58  1  0  0  0
 41112  1  0  0  0
 41113  1  0  0  0
 41114  1  0  0  0
 41 48  1  0  0  0
 42 43  1  0  0  0
 42 66  1  0  0  0
 42115  1  0  0  0
 42116  1  0  0  0
 43 44  1  0  0  0
 44117  1  0  0  0
 45 46  2  0  0  0
 45118  1  0  0  0
 46119  1  0  0  0
 47120  1  0  0  0
 47121  1  0  0  0
 48 56  1  0  0  0
 48 65  1  0  0  0
 48122  1  0  0  0
 49 50  1  0  0  0
 49 53  1  0  0  0
 49 64  1  0  0  0
 49123  1  0  0  0
 50 51  1  0  0  0
 50124  1  0  0  0
 50125  1  0  0  0
 51 52  1  0  0  0
 51126  1  0  0  0
 51127  1  0  0  0
 52128  1  0  0  0
 52129  1  0  0  0
 53 54  1  0  0  0
 54 55  2  0  0  0
 54130  1  0  0  0
 55 57  1  0  0  0
 55131  1  0  0  0
 56 69  2  0  0  0
 57 58  2  0  0  0
 57132  1  0  0  0
 58133  1  0  0  0
 59 60  1  0  0  0
 59 61  1  0  0  0
 59 62  1  0  0  0
 60134  1  0  0  0
 60135  1  0  0  0
 60136  1  0  0  0
 61137  1  0  0  0
 61138  1  0  0  0
 61139  1  0  0  0
 62140  1  0  0  0
 62141  1  0  0  0
 62142  1  0  0  0
 63 65  1  0  0  0
 63143  1  0  0  0
 63144  1  0  0  0
 63145  1  0  0  0
 64146  1  0  0  0
 65147  1  0  0  0
 68 83  1  0  0  0
 71 74  2  0  0  0
 71 75  1  0  0  0
 71148  1  0  0  0
 72 75  2  0  0  0
 72 76  1  0  0  0
 72149  1  0  0  0
 73 74  1  0  0  0
 73 76  2  0  0  0
 73 77  1  0  0  0
 74 80  1  0  0  0
 75 85  1  0  0  0
 76 84  1  0  0  0
 77 81  1  0  0  0
 77 86  2  0  0  0
 78 82  1  0  0  0
 78 83  1  0  0  0
 78 87  2  0  0  0
 79 82  1  0  0  0
 79 84  1  0  0  0
 79 88  2  0  0  0
 80150  1  0  0  0
 80151  1  0  0  0
 80152  1  0  0  0
 81153  1  0  0  0
 81154  1  0  0  0
 81155  1  0  0  0
 82156  1  0  0  0
 82157  1  0  0  0
 83158  1  0  0  0
 83159  1  0  0  0
 84160  1  0  0  0
 85161  1  0  0  0
M  ISO  4   1 100  68 101  83 101  85 100
M  END
> <chiral flag>
0

> <version>
0

> <s_m_source_file>
/data/baiqing/PycharmProjects/Reinvent-master-3.2/result/LINK_invent/BTK/process_docking_weight1_custom_product_contain_oxygen_bond_distance_aromatic_linkinvent_7_9_3/rearranged_h_0171.sdf

> <i_m_source_file_index>
83

> <r_mmod_Potential_Energy-OPLS-2005>
61.3770065307617

> <r_mmod_Stretch_Energy-OPLS-2005>
52.6427383422852

> <r_mmod_Bend_Energy-OPLS-2005>
103.710823059082

> <r_mmod_Torsional_Energy-OPLS-2005>
311.503723144531

> <r_mmod_Improper_Torsional_Energy-OPLS-2005>
5.37077331542969

> <r_mmod_Van_der_Waal_Energy-OPLS-2005>
161.475433349609

> <r_mmod_Electrostatic_Energy-OPLS-2005>
-323.626281738281

> <r_mmod_Solvation_Energy-OPLS-2005>
-271.214996337891

> <b_mmod_Minimization_Converged-OPLS-2005>
0

> <r_mmod_RMS_Derivative-OPLS-2005>
1.0062313079834

$$$$
83
                    3D
 Structure written by MMmdl.
155163  0  0  1  0            999 V2000
  -30.6089  -14.7994   20.4379 C   0  0  0  0  0  0
  -30.4239  -12.4864   19.4860 C   0  0  0  0  0  0
  -29.5127  -12.5158   18.2397 C   0  0  0  0  0  0
  -28.0373  -12.3387   18.6482 C   0  0  0  0  0  0
  -27.6348  -13.2436   19.8437 C   0  0  2  0  0  0
  -28.6782  -13.2082   20.9813 C   0  0  0  0  0  0
  -25.2448  -13.8204   20.5637 C   0  0  0  0  0  0
  -24.1790  -13.0441   20.9256 C   0  0  0  0  0  0
  -24.6407  -11.6928   20.8778 C   0  0  0  0  0  0
  -23.9091  -10.4294   21.0428 C   0  0  0  0  0  0
  -24.3634   -9.4200   21.9201 C   0  0  0  0  0  0
  -23.6305   -8.2238   22.0756 C   0  0  0  0  0  0
  -22.4284   -8.0284   21.3549 C   0  0  0  0  0  0
  -21.9933   -9.0262   20.4649 C   0  0  0  0  0  0
  -22.7269  -10.2138   20.3069 C   0  0  0  0  0  0
  -21.6852   -6.0742   22.5287 C   0  0  0  0  0  0
  -21.4008   -6.5643   23.8222 C   0  0  0  0  0  0
  -21.3660   -5.6798   24.9185 C   0  0  0  0  0  0
  -21.6044   -4.3058   24.7233 C   0  0  0  0  0  0
  -21.8816   -3.8151   23.4355 C   0  0  0  0  0  0
  -21.9190   -4.6970   22.3409 C   0  0  0  0  0  0
  -22.7806  -13.5209   21.1900 C   0  0  0  0  0  0
  -22.1659   -4.2156   21.0987 F   0  0  0  0  0  0
  -21.5633   -3.4540   25.7745 F   0  0  0  0  0  0
  -29.9734  -13.5712   20.3950 N   0  0  0  0  0  0
  -26.2898  -12.9443   20.3241 N   0  0  0  0  0  0
  -25.9335  -11.6579   20.5762 N   0  0  0  0  0  0
  -22.0444  -12.8191   22.0444 N   0  0  0  0  0  0
  -25.4042  -15.1914   20.3862 N   0  0  0  0  0  0
  -31.8103  -14.8271   20.1631 O   0  0  0  0  0  0
  -21.6641   -6.8884   21.4249 O   0  0  0  0  0  0
  -22.3492  -14.5516   20.6750 O   0  0  0  0  0  0
  -24.6357  -31.8513   23.1949 C   0  0  0  0  0  0
  -25.9159  -32.4727   23.8309 C   0  0  1  0  0  0
  -27.2129  -27.2199   20.1371 C   0  0  0  0  0  0
  -25.5946  -33.8528   24.2228 N   0  0  0  0  0  0
  -23.4372  -30.4749   21.5362 C   0  0  2  0  0  0
  -24.8879  -28.9184   20.1057 C   0  0  0  0  0  0
  -22.7540  -29.4583   22.4855 C   0  0  0  0  0  0
  -18.0307  -28.1404   22.8498 C   0  0  0  0  0  0
  -24.1484  -36.7264   23.2640 C   0  0  0  0  0  0
  -25.9886  -30.7506   21.3844 C   0  0  0  0  0  0
  -26.0626  -29.3704   20.7244 C   0  0  0  0  0  0
  -27.2321  -28.5326   20.7325 C   0  0  0  0  0  0
  -26.0225  -26.8549   19.4746 C   0  0  0  0  0  0
  -24.8741  -27.6700   19.4686 C   0  0  0  0  0  0
  -23.6602  -29.8110   20.1531 C   0  0  0  0  0  0
  -25.4114  -36.3051   24.0324 C   0  0  1  0  0  0
  -20.5916  -28.3720   23.1254 C   0  0  2  0  0  0
  -20.6779  -26.9425   22.5404 C   0  0  0  0  0  0
  -19.5742  -26.6395   21.5215 C   0  0  0  0  0  0
  -18.1942  -26.7947   22.1643 C   0  0  0  0  0  0
  -19.1562  -28.8880   23.2877 C   0  0  0  0  0  0
  -18.9482  -30.1492   23.8884 C   0  0  0  0  0  0
  -17.6471  -30.6602   24.0578 C   0  0  0  0  0  0
  -25.9068  -34.9422   23.5081 C   0  0  0  0  0  0
  -16.5367  -29.9100   23.6342 C   0  0  0  0  0  0
  -16.7291  -28.6513   23.0369 C   0  0  0  0  0  0
  -26.4502  -31.6578   25.0721 C   0  0  0  0  0  0
  -25.3699  -31.3784   26.1431 C   0  0  0  0  0  0
  -27.0344  -30.2967   24.6262 C   0  0  0  0  0  0
  -27.6052  -32.4323   25.7496 C   0  0  0  0  0  0
  -27.5579  -37.1789   24.8468 C   0  0  0  0  0  0
  -21.4232  -29.3058   22.3626 N   0  0  0  0  0  0
  -26.4281  -37.3758   23.9421 N   0  0  0  0  0  0
  -24.7057  -31.0463   22.0937 N   0  0  0  0  0  0
  -23.4229  -28.8115   23.2957 O   0  0  0  0  0  0
  -28.2125  -26.2090   20.2216 O   0  0  0  0  0  0
  -26.5640  -34.8904   22.4647 O   0  0  0  0  0  0
  -23.5492  -32.1346   23.7212 O   0  0  0  0  0  0
  -31.7817  -19.0919   19.4818 C   0  0  0  0  0  0
  -30.9430  -20.1889   19.7291 C   0  0  0  0  0  0
  -31.3978  -17.7773   19.7864 C   0  0  0  0  0  0
  -29.2800  -18.6370   20.6499 C   0  0  0  0  0  0
  -29.6642  -20.0373   20.3082 C   0  0  0  0  0  0
  -30.1494  -17.4547   20.3741 C   0  0  0  0  0  0
  -27.7979  -25.0127   20.8995 C   0  0  0  0  0  0
  -27.9303  -18.4466   21.2861 C   0  0  0  0  0  0
  -28.0642  -23.6283   20.9655 C   0  0  0  0  0  0
  -29.0341  -22.6776   20.2823 C   0  0  0  0  0  0
  -27.7082  -17.2409   22.1950 C   0  0  0  0  0  0
  -28.8581  -21.2993   20.5553 N   0  0  0  0  0  0
  -29.8535  -15.9767   20.6043 N   0  0  0  0  0  0
  -26.9993  -19.2494   21.1638 O   0  0  0  0  0  0
  -29.9212  -23.0813   19.5309 O   0  0  0  0  0  0
  -27.3006  -23.0161   21.8869 O   0  0  0  0  0  0
  -31.4675  -12.5971   19.1881 H   0  0  0  0  0  0
  -30.3602  -11.5185   19.9857 H   0  0  0  0  0  0
  -29.8030  -11.7322   17.5381 H   0  0  0  0  0  0
  -29.6382  -13.4620   17.7117 H   0  0  0  0  0  0
  -27.8966  -11.2908   18.9153 H   0  0  0  0  0  0
  -27.3831  -12.5248   17.7952 H   0  0  0  0  0  0
  -27.6178  -14.2606   19.4514 H   0  0  0  0  0  0
  -28.7251  -12.2167   21.4350 H   0  0  0  0  0  0
  -28.4055  -13.8987   21.7802 H   0  0  0  0  0  0
  -25.2776   -9.5670   22.4784 H   0  0  0  0  0  0
  -24.0010   -7.4620   22.7469 H   0  0  0  0  0  0
  -21.0869   -8.8792   19.8942 H   0  0  0  0  0  0
  -22.3741  -10.9685   19.6177 H   0  0  0  0  0  0
  -21.1992   -7.6147   23.9729 H   0  0  0  0  0  0
  -21.1487   -6.0524   25.9090 H   0  0  0  0  0  0
  -22.0589   -2.7614   23.2856 H   0  0  0  0  0  0
  -22.4052  -11.9857   22.4840 H   0  0  0  0  0  0
  -21.1061  -13.1221   22.2634 H   0  0  0  0  0  0
  -24.6027  -15.8111   20.4307 H   0  0  0  0  0  0
  -26.1819  -15.5913   19.8799 H   0  0  0  0  0  0
  -26.7222  -32.5368   23.1048 H   0  0  0  0  0  0
  -25.0069  -33.9636   25.0361 H   0  0  0  0  0  0
  -22.7346  -31.2978   21.3878 H   0  0  0  0  0  0
  -23.3745  -35.9596   23.3286 H   0  0  0  0  0  0
  -24.3569  -36.8900   22.2058 H   0  0  0  0  0  0
  -23.7220  -37.6452   23.6672 H   0  0  0  0  0  0
  -26.1405  -31.5101   20.6158 H   0  0  0  0  0  0
  -26.8599  -30.7967   22.0263 H   0  0  0  0  0  0
  -28.1227  -28.8604   21.2489 H   0  0  0  0  0  0
  -25.9628  -25.8878   18.9952 H   0  0  0  0  0  0
  -23.9760  -27.3199   18.9775 H   0  0  0  0  0  0
  -23.7883  -30.5873   19.3983 H   0  0  0  0  0  0
  -22.7777  -29.2488   19.8437 H   0  0  0  0  0  0
  -25.1288  -36.1884   25.0813 H   0  0  0  0  0  0
  -21.0054  -28.3303   24.1356 H   0  0  0  0  0  0
  -20.5678  -26.2322   23.3608 H   0  0  0  0  0  0
  -21.6644  -26.7411   22.1207 H   0  0  0  0  0  0
  -19.6883  -25.6302   21.1260 H   0  0  0  0  0  0
  -19.6689  -27.3189   20.6735 H   0  0  0  0  0  0
  -17.4202  -26.6720   21.4051 H   0  0  0  0  0  0
  -18.0345  -26.0086   22.9033 H   0  0  0  0  0  0
  -19.7947  -30.7342   24.2231 H   0  0  0  0  0  0
  -17.5010  -31.6278   24.5191 H   0  0  0  0  0  0
  -15.5366  -30.2995   23.7660 H   0  0  0  0  0  0
  -15.8697  -28.0829   22.7075 H   0  0  0  0  0  0
  -24.5854  -30.7147   25.7780 H   0  0  0  0  0  0
  -24.8910  -32.2978   26.4814 H   0  0  0  0  0  0
  -25.7987  -30.8992   27.0240 H   0  0  0  0  0  0
  -26.2944  -29.6713   24.1254 H   0  0  0  0  0  0
  -27.3946  -29.7241   25.4824 H   0  0  0  0  0  0
  -27.8862  -30.4197   23.9568 H   0  0  0  0  0  0
  -27.2673  -33.3670   26.1985 H   0  0  0  0  0  0
  -28.3918  -32.6807   25.0358 H   0  0  0  0  0  0
  -28.0642  -31.8487   26.5485 H   0  0  0  0  0  0
  -28.2597  -38.0099   24.7533 H   0  0  0  0  0  0
  -28.1090  -36.2620   24.6273 H   0  0  0  0  0  0
  -27.2307  -37.1416   25.8881 H   0  0  0  0  0  0
  -20.9413  -29.8776   21.6826 H   0  0  0  0  0  0
  -26.0152  -38.2826   24.1426 H   0  0  0  0  0  0
  -32.7534  -19.2620   19.0382 H   0  0  0  0  0  0
  -31.3275  -21.1605   19.4619 H   0  0  0  0  0  0
  -32.1194  -17.0203   19.5296 H   0  0  0  0  0  0
  -27.0241  -25.3229   21.5906 H   0  0  0  0  0  0
  -28.5912  -17.0409   22.8011 H   0  0  0  0  0  0
  -27.4656  -16.3570   21.6089 H   0  0  0  0  0  0
  -26.8733  -17.4295   22.8697 H   0  0  0  0  0  0
  -27.9652  -21.1034   20.9895 H   0  0  0  0  0  0
  -28.9017  -15.7714   20.8638 H   0  0  0  0  0  0
  -27.7552  -22.2271   22.1498 H   0  0  0  0  0  0
  1 25  1  0  0  0
  1 30  2  0  0  0
  1 83  1  0  0  0
  2  3  1  0  0  0
  2 25  1  0  0  0
  2 87  1  0  0  0
  2 88  1  0  0  0
  3  4  1  0  0  0
  3 89  1  0  0  0
  3 90  1  0  0  0
  4  5  1  0  0  0
  4 91  1  0  0  0
  4 92  1  0  0  0
  5  6  1  0  0  0
  5 26  1  0  0  0
  5 93  1  0  0  0
  6 25  1  0  0  0
  6 94  1  0  0  0
  6 95  1  0  0  0
  7  8  2  0  0  0
  7 26  1  0  0  0
  7 29  1  0  0  0
  8  9  1  0  0  0
  8 22  1  0  0  0
  9 10  1  0  0  0
  9 27  2  0  0  0
 10 11  2  0  0  0
 10 15  1  0  0  0
 11 12  1  0  0  0
 11 96  1  0  0  0
 12 13  2  0  0  0
 12 97  1  0  0  0
 13 14  1  0  0  0
 13 31  1  0  0  0
 14 15  2  0  0  0
 14 98  1  0  0  0
 15 99  1  0  0  0
 16 17  2  0  0  0
 16 21  1  0  0  0
 16 31  1  0  0  0
 17 18  1  0  0  0
 17100  1  0  0  0
 18 19  2  0  0  0
 18101  1  0  0  0
 19 20  1  0  0  0
 19 24  1  0  0  0
 20 21  2  0  0  0
 20102  1  0  0  0
 21 23  1  0  0  0
 22 28  1  0  0  0
 22 32  2  0  0  0
 26 27  1  0  0  0
 28103  1  0  0  0
 28104  1  0  0  0
 29105  1  0  0  0
 29106  1  0  0  0
 33 34  1  0  0  0
 33 66  1  0  0  0
 33 70  2  0  0  0
 34 36  1  0  0  0
 34 59  1  0  0  0
 34107  1  0  0  0
 35 44  2  0  0  0
 35 45  1  0  0  0
 35 68  1  0  0  0
 36 56  1  0  0  0
 36108  1  0  0  0
 37 39  1  0  0  0
 37 47  1  0  0  0
 37 66  1  0  0  0
 37109  1  0  0  0
 38 43  2  0  0  0
 38 46  1  0  0  0
 38 47  1  0  0  0
 39 64  1  0  0  0
 39 67  2  0  0  0
 40 52  1  0  0  0
 40 53  2  0  0  0
 40 58  1  0  0  0
 41110  1  0  0  0
 41111  1  0  0  0
 41112  1  0  0  0
 41 48  1  0  0  0
 42 43  1  0  0  0
 42 66  1  0  0  0
 42113  1  0  0  0
 42114  1  0  0  0
 43 44  1  0  0  0
 44115  1  0  0  0
 45 46  2  0  0  0
 45116  1  0  0  0
 46117  1  0  0  0
 47118  1  0  0  0
 47119  1  0  0  0
 48 56  1  0  0  0
 48 65  1  0  0  0
 48120  1  0  0  0
 49 50  1  0  0  0
 49 53  1  0  0  0
 49 64  1  0  0  0
 49121  1  0  0  0
 50 51  1  0  0  0
 50122  1  0  0  0
 50123  1  0  0  0
 51 52  1  0  0  0
 51124  1  0  0  0
 51125  1  0  0  0
 52126  1  0  0  0
 52127  1  0  0  0
 53 54  1  0  0  0
 54 55  2  0  0  0
 54128  1  0  0  0
 55 57  1  0  0  0
 55129  1  0  0  0
 56 69  2  0  0  0
 57 58  2  0  0  0
 57130  1  0  0  0
 58131  1  0  0  0
 59 60  1  0  0  0
 59 61  1  0  0  0
 59 62  1  0  0  0
 60132  1  0  0  0
 60133  1  0  0  0
 60134  1  0  0  0
 61135  1  0  0  0
 61136  1  0  0  0
 61137  1  0  0  0
 62138  1  0  0  0
 62139  1  0  0  0
 62140  1  0  0  0
 63 65  1  0  0  0
 63141  1  0  0  0
 63142  1  0  0  0
 63143  1  0  0  0
 64144  1  0  0  0
 65145  1  0  0  0
 68 77  1  0  0  0
 71 72  2  0  0  0
 71 73  1  0  0  0
 71146  1  0  0  0
 72 75  1  0  0  0
 72147  1  0  0  0
 73 76  2  0  0  0
 73148  1  0  0  0
 74 75  2  0  0  0
 74 76  1  0  0  0
 74 78  1  0  0  0
 75 82  1  0  0  0
 76 83  1  0  0  0
 77 79  2  0  0  0
 77149  1  0  0  0
 78 81  1  0  0  0
 78 84  2  0  0  0
 79 80  1  0  0  0
 79 86  1  0  0  0
 80 82  1  0  0  0
 80 85  2  0  0  0
 81150  1  0  0  0
 81151  1  0  0  0
 81152  1  0  0  0
 82153  1  0  0  0
 83154  1  0  0  0
 86155  1  0  0  0
M  ISO  4   1 100  68 101  77 101  83 100
M  END
> <chiral flag>
0

> <version>
0

> <s_m_source_file>
/data/baiqing/PycharmProjects/Reinvent-master-3.2/result/LINK_invent/BTK/process_docking_weight1_custom_product_contain_oxygen_bond_distance_aromatic_linkinvent_7_9_3/rearranged_h_0171.sdf

> <i_m_source_file_index>
84

> <r_mmod_Potential_Energy-OPLS-2005>
420.897094726562

> <r_mmod_Stretch_Energy-OPLS-2005>
183.092147827148

> <r_mmod_Bend_Energy-OPLS-2005>
250.901519775391

> <r_mmod_Torsional_Energy-OPLS-2005>
262.206665039062

> <r_mmod_Improper_Torsional_Energy-OPLS-2005>
6.14227104187012

> <r_mmod_Van_der_Waal_Energy-OPLS-2005>
158.604202270508

> <r_mmod_Electrostatic_Energy-OPLS-2005>
-321.966705322266

> <r_mmod_Solvation_Energy-OPLS-2005>
-241.798706054688

> <b_mmod_Minimization_Converged-OPLS-2005>
0

> <r_mmod_RMS_Derivative-OPLS-2005>
1.89643752574921

$$$$
84
                    3D
 Structure written by MMmdl.
155163  0  0  1  0            999 V2000
  -30.6389  -14.5376   20.4626 C   0  0  0  0  0  0
  -30.4273  -12.3136   19.4456 C   0  0  0  0  0  0
  -29.4920  -12.4544   18.2228 C   0  0  0  0  0  0
  -28.0106  -12.3246   18.6345 C   0  0  0  0  0  0
  -27.6434  -13.2029   19.8618 C   0  0  2  0  0  0
  -28.6934  -13.0509   20.9868 C   0  0  0  0  0  0
  -25.2588  -13.8207   20.5823 C   0  0  0  0  0  0
  -24.1792  -13.0506   20.9183 C   0  0  0  0  0  0
  -24.6308  -11.6957   20.8708 C   0  0  0  0  0  0
  -23.8991  -10.4365   21.0370 C   0  0  0  0  0  0
  -24.3586   -9.4315   21.9145 C   0  0  0  0  0  0
  -23.6313   -8.2328   22.0714 C   0  0  0  0  0  0
  -22.4297   -8.0329   21.3512 C   0  0  0  0  0  0
  -21.9897   -9.0297   20.4600 C   0  0  0  0  0  0
  -22.7162  -10.2211   20.3028 C   0  0  0  0  0  0
  -21.6866   -6.0767   22.5250 C   0  0  0  0  0  0
  -21.4014   -6.5662   23.8186 C   0  0  0  0  0  0
  -21.3654   -5.6783   24.9145 C   0  0  0  0  0  0
  -21.6073   -4.3073   24.7181 C   0  0  0  0  0  0
  -21.8841   -3.8179   23.4292 C   0  0  0  0  0  0
  -21.9205   -4.6999   22.3362 C   0  0  0  0  0  0
  -22.7844  -13.5337   21.1872 C   0  0  0  0  0  0
  -22.1659   -4.2196   21.0935 F   0  0  0  0  0  0
  -21.5655   -3.4552   25.7686 F   0  0  0  0  0  0
  -30.0168  -13.3326   20.4157 N   0  0  0  0  0  0
  -26.2943  -12.9311   20.3417 N   0  0  0  0  0  0
  -25.9228  -11.6500   20.5751 N   0  0  0  0  0  0
  -22.0544  -12.8330   22.0497 N   0  0  0  0  0  0
  -25.4532  -15.1895   20.4424 N   0  0  0  0  0  0
  -31.8450  -14.6778   20.2411 O   0  0  0  0  0  0
  -21.6676   -6.8902   21.4214 O   0  0  0  0  0  0
  -22.3505  -14.5632   20.6724 O   0  0  0  0  0  0
  -24.6157  -31.8662   23.2099 C   0  0  0  0  0  0
  -25.9036  -32.4807   23.8426 C   0  0  1  0  0  0
  -27.2325  -27.4269   20.1020 C   0  0  0  0  0  0
  -25.5883  -33.8620   24.2327 N   0  0  0  0  0  0
  -23.4049  -30.4881   21.5495 C   0  0  2  0  0  0
  -24.8534  -28.9535   20.1131 C   0  0  0  0  0  0
  -22.7429  -29.4639   22.5010 C   0  0  0  0  0  0
  -18.0276  -28.1357   22.8500 C   0  0  0  0  0  0
  -24.1471  -36.7325   23.2647 C   0  0  0  0  0  0
  -25.9375  -30.8289   21.3682 C   0  0  0  0  0  0
  -26.0132  -29.4658   20.7082 C   0  0  0  0  0  0
  -27.2120  -28.7138   20.6890 C   0  0  0  0  0  0
  -26.0576  -26.9257   19.5060 C   0  0  0  0  0  0
  -24.8732  -27.6870   19.4992 C   0  0  0  0  0  0
  -23.6145  -29.8205   20.1634 C   0  0  0  0  0  0
  -25.4098  -36.3123   24.0336 C   0  0  1  0  0  0
  -20.5869  -28.3646   23.1329 C   0  0  2  0  0  0
  -20.6756  -26.9389   22.5425 C   0  0  0  0  0  0
  -19.5733  -26.6365   21.5219 C   0  0  0  0  0  0
  -18.1914  -26.7901   22.1636 C   0  0  0  0  0  0
  -19.1524  -28.8827   23.2903 C   0  0  0  0  0  0
  -18.9455  -30.1443   23.8898 C   0  0  0  0  0  0
  -17.6453  -30.6573   24.0568 C   0  0  0  0  0  0
  -25.9034  -34.9473   23.5134 C   0  0  0  0  0  0
  -16.5349  -29.9075   23.6333 C   0  0  0  0  0  0
  -16.7260  -28.6494   23.0349 C   0  0  0  0  0  0
  -26.4467  -31.6625   25.0789 C   0  0  0  0  0  0
  -25.3762  -31.3733   26.1576 C   0  0  0  0  0  0
  -27.0300  -30.3048   24.6195 C   0  0  0  0  0  0
  -27.6005  -32.4403   25.7553 C   0  0  0  0  0  0
  -27.5569  -37.1818   24.8458 C   0  0  0  0  0  0
  -21.4162  -29.3018   22.3753 N   0  0  0  0  0  0
  -26.4280  -37.3797   23.9408 N   0  0  0  0  0  0
  -24.6699  -31.0772   22.0988 N   0  0  0  0  0  0
  -23.4218  -28.8207   23.3054 O   0  0  0  0  0  0
  -28.3849  -26.6729   20.0886 O   0  0  0  0  0  0
  -26.5608  -34.8927   22.4710 O   0  0  0  0  0  0
  -23.5345  -32.1426   23.7490 O   0  0  0  0  0  0
  -29.4970  -17.9511   20.0336 C   0  0  0  0  0  0
  -28.8987  -16.7135   22.0421 C   0  0  0  0  0  0
  -29.0392  -19.1703   20.6074 C   0  0  0  0  0  0
  -29.4365  -16.7231   20.7389 C   0  0  0  0  0  0
  -28.4547  -17.9167   22.6304 C   0  0  0  0  0  0
  -28.5334  -19.1416   21.9289 C   0  0  0  0  0  0
  -29.2137  -20.4413   19.8246 C   0  0  0  0  0  0
  -28.3285  -24.1705   19.9356 C   0  0  0  0  0  0
  -28.4599  -22.8011   20.6480 C   0  0  0  0  0  0
  -28.3116  -25.4341   20.8282 C   0  0  0  0  0  0
  -28.1184  -21.5435   19.7924 C   0  0  2  0  0  0
  -29.8250  -15.5342   20.0554 N   0  0  0  0  0  0
  -30.2195  -20.6234   19.1316 O   0  0  0  0  0  0
  -28.2821  -24.2573   18.7032 O   0  0  0  0  0  0
  -26.8085  -21.0514   20.0773 O   0  0  0  0  0  0
  -27.9476  -17.8912   23.8865 F   0  0  0  0  0  0
  -28.1527  -20.2831   22.5514 F   0  0  0  0  0  0
  -31.4650  -12.4384   19.1338 H   0  0  0  0  0  0
  -30.3597  -11.3218   19.8955 H   0  0  0  0  0  0
  -29.7378  -11.6987   17.4751 H   0  0  0  0  0  0
  -29.6551  -13.4218   17.7465 H   0  0  0  0  0  0
  -27.8325  -11.2758   18.8715 H   0  0  0  0  0  0
  -27.3616  -12.5609   17.7872 H   0  0  0  0  0  0
  -27.6548  -14.2335   19.5136 H   0  0  0  0  0  0
  -28.6654  -12.0431   21.4065 H   0  0  0  0  0  0
  -28.4635  -13.7314   21.8063 H   0  0  0  0  0  0
  -25.2730   -9.5845   22.4687 H   0  0  0  0  0  0
  -24.0095   -7.4728   22.7379 H   0  0  0  0  0  0
  -21.0900   -8.8788   19.8816 H   0  0  0  0  0  0
  -22.3623  -10.9750   19.6136 H   0  0  0  0  0  0
  -21.1994   -7.6175   23.9715 H   0  0  0  0  0  0
  -21.1432   -6.0502   25.9048 H   0  0  0  0  0  0
  -22.0612   -2.7646   23.2764 H   0  0  0  0  0  0
  -22.4227  -11.9978   22.4822 H   0  0  0  0  0  0
  -21.1251  -13.1446   22.2906 H   0  0  0  0  0  0
  -24.7198  -15.8774   20.5700 H   0  0  0  0  0  0
  -26.3661  -15.5960   20.2752 H   0  0  0  0  0  0
  -26.7125  -32.5502   23.1209 H   0  0  0  0  0  0
  -25.0029  -33.9778   25.0464 H   0  0  0  0  0  0
  -22.6924  -31.3062   21.4096 H   0  0  0  0  0  0
  -23.3717  -35.9674   23.3340 H   0  0  0  0  0  0
  -24.3568  -36.8926   22.2060 H   0  0  0  0  0  0
  -23.7235  -37.6535   23.6660 H   0  0  0  0  0  0
  -26.0710  -31.6052   20.6151 H   0  0  0  0  0  0
  -26.8144  -30.8637   22.0018 H   0  0  0  0  0  0
  -28.1119  -29.1125   21.1367 H   0  0  0  0  0  0
  -26.0604  -25.9507   19.0356 H   0  0  0  0  0  0
  -23.9856  -27.2861   19.0288 H   0  0  0  0  0  0
  -23.7270  -30.5989   19.4065 H   0  0  0  0  0  0
  -22.7378  -29.2452   19.8597 H   0  0  0  0  0  0
  -25.1271  -36.1999   25.0820 H   0  0  0  0  0  0
  -20.9930  -28.3184   24.1449 H   0  0  0  0  0  0
  -20.5613  -26.2267   23.3605 H   0  0  0  0  0  0
  -21.6638  -26.7407   22.1242 H   0  0  0  0  0  0
  -19.6895  -25.6265   21.1255 H   0  0  0  0  0  0
  -19.6658  -27.3172   20.6739 H   0  0  0  0  0  0
  -17.4184  -26.6659   21.4037 H   0  0  0  0  0  0
  -18.0321  -26.0024   22.9010 H   0  0  0  0  0  0
  -19.7937  -30.7262   24.2248 H   0  0  0  0  0  0
  -17.5019  -31.6240   24.5176 H   0  0  0  0  0  0
  -15.5351  -30.2990   23.7628 H   0  0  0  0  0  0
  -15.8665  -28.0814   22.7049 H   0  0  0  0  0  0
  -24.5874  -30.7132   25.7953 H   0  0  0  0  0  0
  -24.9038  -32.2883   26.5141 H   0  0  0  0  0  0
  -25.8179  -30.8838   27.0262 H   0  0  0  0  0  0
  -26.2837  -29.6813   24.1240 H   0  0  0  0  0  0
  -27.4015  -29.7309   25.4693 H   0  0  0  0  0  0
  -27.8718  -30.4357   23.9399 H   0  0  0  0  0  0
  -27.2530  -33.3635   26.2207 H   0  0  0  0  0  0
  -28.3756  -32.7087   25.0366 H   0  0  0  0  0  0
  -28.0740  -31.8516   26.5417 H   0  0  0  0  0  0
  -28.2599  -38.0103   24.7489 H   0  0  0  0  0  0
  -28.1058  -36.2631   24.6300 H   0  0  0  0  0  0
  -27.2308  -37.1502   25.8871 H   0  0  0  0  0  0
  -20.9332  -29.8791   21.7003 H   0  0  0  0  0  0
  -26.0180  -38.2875   24.1409 H   0  0  0  0  0  0
  -29.8998  -17.9601   19.0282 H   0  0  0  0  0  0
  -28.7953  -15.7973   22.6033 H   0  0  0  0  0  0
  -27.8576  -22.8156   21.5576 H   0  0  0  0  0  0
  -29.4967  -22.7333   20.9784 H   0  0  0  0  0  0
  -29.1840  -25.3818   21.4810 H   0  0  0  0  0  0
  -27.4394  -25.4077   21.4814 H   0  0  0  0  0  0
  -28.0921  -21.8405   18.7457 H   0  0  0  0  0  0
  -29.9931  -15.7130   19.0785 H   0  0  0  0  0  0
  -26.6071  -20.3731   19.4401 H   0  0  0  0  0  0
  1 25  1  0  0  0
  1 30  2  0  0  0
  1 82  1  0  0  0
  2  3  1  0  0  0
  2 25  1  0  0  0
  2 88  1  0  0  0
  2 89  1  0  0  0
  3  4  1  0  0  0
  3 90  1  0  0  0
  3 91  1  0  0  0
  4  5  1  0  0  0
  4 92  1  0  0  0
  4 93  1  0  0  0
  5  6  1  0  0  0
  5 26  1  0  0  0
  5 94  1  0  0  0
  6 25  1  0  0  0
  6 95  1  0  0  0
  6 96  1  0  0  0
  7  8  2  0  0  0
  7 26  1  0  0  0
  7 29  1  0  0  0
  8  9  1  0  0  0
  8 22  1  0  0  0
  9 10  1  0  0  0
  9 27  2  0  0  0
 10 11  2  0  0  0
 10 15  1  0  0  0
 11 12  1  0  0  0
 11 97  1  0  0  0
 12 13  2  0  0  0
 12 98  1  0  0  0
 13 14  1  0  0  0
 13 31  1  0  0  0
 14 15  2  0  0  0
 14 99  1  0  0  0
 15100  1  0  0  0
 16 17  2  0  0  0
 16 21  1  0  0  0
 16 31  1  0  0  0
 17 18  1  0  0  0
 17101  1  0  0  0
 18 19  2  0  0  0
 18102  1  0  0  0
 19 20  1  0  0  0
 19 24  1  0  0  0
 20 21  2  0  0  0
 20103  1  0  0  0
 21 23  1  0  0  0
 22 28  1  0  0  0
 22 32  2  0  0  0
 26 27  1  0  0  0
 28104  1  0  0  0
 28105  1  0  0  0
 29106  1  0  0  0
 29107  1  0  0  0
 33 34  1  0  0  0
 33 66  1  0  0  0
 33 70  2  0  0  0
 34 36  1  0  0  0
 34 59  1  0  0  0
 34108  1  0  0  0
 35 44  2  0  0  0
 35 45  1  0  0  0
 35 68  1  0  0  0
 36 56  1  0  0  0
 36109  1  0  0  0
 37 39  1  0  0  0
 37 47  1  0  0  0
 37 66  1  0  0  0
 37110  1  0  0  0
 38 43  2  0  0  0
 38 46  1  0  0  0
 38 47  1  0  0  0
 39 64  1  0  0  0
 39 67  2  0  0  0
 40 52  1  0  0  0
 40 53  2  0  0  0
 40 58  1  0  0  0
 41111  1  0  0  0
 41112  1  0  0  0
 41113  1  0  0  0
 41 48  1  0  0  0
 42 43  1  0  0  0
 42 66  1  0  0  0
 42114  1  0  0  0
 42115  1  0  0  0
 43 44  1  0  0  0
 44116  1  0  0  0
 45 46  2  0  0  0
 45117  1  0  0  0
 46118  1  0  0  0
 47119  1  0  0  0
 47120  1  0  0  0
 48 56  1  0  0  0
 48 65  1  0  0  0
 48121  1  0  0  0
 49 50  1  0  0  0
 49 53  1  0  0  0
 49 64  1  0  0  0
 49122  1  0  0  0
 50 51  1  0  0  0
 50123  1  0  0  0
 50124  1  0  0  0
 51 52  1  0  0  0
 51125  1  0  0  0
 51126  1  0  0  0
 52127  1  0  0  0
 52128  1  0  0  0
 53 54  1  0  0  0
 54 55  2  0  0  0
 54129  1  0  0  0
 55 57  1  0  0  0
 55130  1  0  0  0
 56 69  2  0  0  0
 57 58  2  0  0  0
 57131  1  0  0  0
 58132  1  0  0  0
 59 60  1  0  0  0
 59 61  1  0  0  0
 59 62  1  0  0  0
 60133  1  0  0  0
 60134  1  0  0  0
 60135  1  0  0  0
 61136  1  0  0  0
 61137  1  0  0  0
 61138  1  0  0  0
 62139  1  0  0  0
 62140  1  0  0  0
 62141  1  0  0  0
 63 65  1  0  0  0
 63142  1  0  0  0
 63143  1  0  0  0
 63144  1  0  0  0
 64145  1  0  0  0
 65146  1  0  0  0
 68 80  1  0  0  0
 71 73  2  0  0  0
 71 74  1  0  0  0
 71147  1  0  0  0
 72 74  2  0  0  0
 72 75  1  0  0  0
 72148  1  0  0  0
 73 76  1  0  0  0
 73 77  1  0  0  0
 74 82  1  0  0  0
 75 76  2  0  0  0
 75 86  1  0  0  0
 76 87  1  0  0  0
 77 81  1  0  0  0
 77 83  2  0  0  0
 78 79  1  0  0  0
 78 80  1  0  0  0
 78 84  2  0  0  0
 79 81  1  0  0  0
 79149  1  0  0  0
 79150  1  0  0  0
 80151  1  0  0  0
 80152  1  0  0  0
 81 85  1  0  0  0
 81153  1  0  0  0
 82154  1  0  0  0
 85155  1  0  0  0
M  ISO  4   1 100  68 101  80 101  82 100
M  END
> <chiral flag>
0

> <version>
0

> <s_m_source_file>
/data/baiqing/PycharmProjects/Reinvent-master-3.2/result/LINK_invent/BTK/process_docking_weight1_custom_product_contain_oxygen_bond_distance_aromatic_linkinvent_7_9_3/rearranged_h_0171.sdf

> <i_m_source_file_index>
85

> <r_mmod_Potential_Energy-OPLS-2005>
88.5201644897461

> <r_mmod_Stretch_Energy-OPLS-2005>
41.021656036377

> <r_mmod_Bend_Energy-OPLS-2005>
112.894973754883

> <r_mmod_Torsional_Energy-OPLS-2005>
335.125640869141

> <r_mmod_Improper_Torsional_Energy-OPLS-2005>
29.8533496856689

> <r_mmod_Van_der_Waal_Energy-OPLS-2005>
138.353332519531

> <r_mmod_Electrostatic_Energy-OPLS-2005>
-355.990692138672

> <r_mmod_Solvation_Energy-OPLS-2005>
-239.409423828125

> <b_mmod_Minimization_Converged-OPLS-2005>
0

> <r_mmod_RMS_Derivative-OPLS-2005>
5.168288230896

$$$$
85
                    3D
 Structure written by MMmdl.
157165  0  0  1  0            999 V2000
  -30.6128  -14.6293   20.5181 C   0  0  0  0  0  0
  -30.4444  -12.3945   19.4369 C   0  0  0  0  0  0
  -29.5110  -12.5364   18.2145 C   0  0  0  0  0  0
  -28.0307  -12.3712   18.6230 C   0  0  0  0  0  0
  -27.6562  -13.2180   19.8678 C   0  0  2  0  0  0
  -28.7039  -13.0436   20.9908 C   0  0  0  0  0  0
  -25.2564  -13.8168   20.5700 C   0  0  0  0  0  0
  -24.1831  -13.0435   20.9203 C   0  0  0  0  0  0
  -24.6405  -11.6912   20.8734 C   0  0  0  0  0  0
  -23.9059  -10.4299   21.0397 C   0  0  0  0  0  0
  -24.3607   -9.4213   21.9181 C   0  0  0  0  0  0
  -23.6290   -8.2241   22.0752 C   0  0  0  0  0  0
  -22.4271   -8.0277   21.3547 C   0  0  0  0  0  0
  -21.9904   -9.0254   20.4649 C   0  0  0  0  0  0
  -22.7231  -10.2131   20.3048 C   0  0  0  0  0  0
  -21.6852   -6.0728   22.5281 C   0  0  0  0  0  0
  -21.4001   -6.5632   23.8209 C   0  0  0  0  0  0
  -21.3662   -5.6778   24.9180 C   0  0  0  0  0  0
  -21.6053   -4.3042   24.7229 C   0  0  0  0  0  0
  -21.8819   -3.8133   23.4347 C   0  0  0  0  0  0
  -21.9195   -4.6952   22.3398 C   0  0  0  0  0  0
  -22.7846  -13.5225   21.1851 C   0  0  0  0  0  0
  -22.1669   -4.2137   21.0979 F   0  0  0  0  0  0
  -21.5640   -3.4517   25.7740 F   0  0  0  0  0  0
  -30.0193  -13.3972   20.4325 N   0  0  0  0  0  0
  -26.2998  -12.9354   20.3323 N   0  0  0  0  0  0
  -25.9330  -11.6515   20.5742 N   0  0  0  0  0  0
  -22.0456  -12.8241   22.0396 N   0  0  0  0  0  0
  -25.4264  -15.1888   20.4120 N   0  0  0  0  0  0
  -31.7712  -14.8221   20.1398 O   0  0  0  0  0  0
  -21.6640   -6.8876   21.4242 O   0  0  0  0  0  0
  -22.3544  -14.5524   20.6676 O   0  0  0  0  0  0
  -24.6252  -31.8589   23.2011 C   0  0  0  0  0  0
  -25.9102  -32.4767   23.8354 C   0  0  1  0  0  0
  -27.2418  -27.3338   20.1362 C   0  0  0  0  0  0
  -25.5934  -33.8567   24.2275 N   0  0  0  0  0  0
  -23.4204  -30.4775   21.5432 C   0  0  2  0  0  0
  -24.8739  -28.9366   20.1103 C   0  0  0  0  0  0
  -22.7479  -29.4609   22.4969 C   0  0  0  0  0  0
  -18.0258  -28.1372   22.8482 C   0  0  0  0  0  0
  -24.1491  -36.7281   23.2651 C   0  0  0  0  0  0
  -25.9583  -30.7980   21.3701 C   0  0  0  0  0  0
  -26.0379  -29.4260   20.7143 C   0  0  0  0  0  0
  -27.2238  -28.6371   20.7155 C   0  0  0  0  0  0
  -26.0557  -26.8974   19.4980 C   0  0  0  0  0  0
  -24.8855  -27.6788   19.4881 C   0  0  0  0  0  0
  -23.6336  -29.8039   20.1613 C   0  0  0  0  0  0
  -25.4110  -36.3079   24.0347 C   0  0  1  0  0  0
  -20.5861  -28.3689   23.1292 C   0  0  2  0  0  0
  -20.6754  -26.9418   22.5422 C   0  0  0  0  0  0
  -19.5743  -26.6380   21.5212 C   0  0  0  0  0  0
  -18.1910  -26.7919   22.1599 C   0  0  0  0  0  0
  -19.1510  -28.8845   23.2865 C   0  0  0  0  0  0
  -18.9433  -30.1446   23.8875 C   0  0  0  0  0  0
  -17.6442  -30.6598   24.0531 C   0  0  0  0  0  0
  -25.9054  -34.9451   23.5116 C   0  0  0  0  0  0
  -16.5331  -29.9081   23.6337 C   0  0  0  0  0  0
  -16.7248  -28.6488   23.0374 C   0  0  0  0  0  0
  -26.4489  -31.6576   25.0728 C   0  0  0  0  0  0
  -25.3724  -31.3750   26.1468 C   0  0  0  0  0  0
  -27.0295  -30.2977   24.6209 C   0  0  0  0  0  0
  -27.6081  -32.4285   25.7463 C   0  0  0  0  0  0
  -27.5577  -37.1794   24.8450 C   0  0  0  0  0  0
  -21.4186  -29.3030   22.3698 N   0  0  0  0  0  0
  -26.4272  -37.3784   23.9416 N   0  0  0  0  0  0
  -24.6862  -31.0625   22.0945 N   0  0  0  0  0  0
  -23.4205  -28.8180   23.3074 O   0  0  0  0  0  0
  -28.3638  -26.4947   20.2147 O   0  0  0  0  0  0
  -26.5612  -34.8927   22.4677 O   0  0  0  0  0  0
  -23.5420  -32.1370   23.7352 O   0  0  0  0  0  0
  -30.9206  -17.8481   21.3974 C   0  0  0  0  0  0
  -28.8312  -17.8641   20.2008 C   0  0  0  0  0  0
  -29.8813  -17.1048   20.7808 C   0  0  0  0  0  0
  -29.8309  -20.0360   20.8677 C   0  0  0  0  0  0
  -30.8929  -19.2854   21.4599 C   0  0  0  0  0  0
  -28.8079  -19.2880   20.2225 C   0  0  0  0  0  0
  -32.9846  -19.3592   22.6800 C   0  0  0  0  0  0
  -28.8953  -22.4613   20.3955 C   0  0  0  0  0  0
  -28.1217  -25.0353   20.1887 C   0  0  0  0  0  0
  -29.2335  -23.9982   20.6652 C   0  0  1  0  0  0
  -29.7660  -15.6513   20.8573 N   0  0  0  0  0  0
  -29.8534  -21.4718   20.9758 N   0  0  0  0  0  0
  -29.3941  -24.1024   22.0727 O   0  0  0  0  0  0
  -31.8648  -20.0267   22.1075 O   0  0  0  0  0  0
  -27.7675  -19.9283   19.6329 F   0  0  0  0  0  0
  -31.4861  -12.5294   19.1380 H   0  0  0  0  0  0
  -30.3780  -11.3908   19.8584 H   0  0  0  0  0  0
  -29.7756  -11.8100   17.4460 H   0  0  0  0  0  0
  -29.6535  -13.5202   17.7596 H   0  0  0  0  0  0
  -27.8545  -11.3160   18.8303 H   0  0  0  0  0  0
  -27.3793  -12.6322   17.7893 H   0  0  0  0  0  0
  -27.6777  -14.2591   19.5441 H   0  0  0  0  0  0
  -28.7204  -12.0110   21.3437 H   0  0  0  0  0  0
  -28.4538  -13.6477   21.8640 H   0  0  0  0  0  0
  -25.2755   -9.5702   22.4746 H   0  0  0  0  0  0
  -24.0007   -7.4632   22.7469 H   0  0  0  0  0  0
  -21.0818   -8.8760   19.8969 H   0  0  0  0  0  0
  -22.3680  -10.9655   19.6139 H   0  0  0  0  0  0
  -21.1979   -7.6137   23.9712 H   0  0  0  0  0  0
  -21.1490   -6.0510   25.9086 H   0  0  0  0  0  0
  -22.0592   -2.7593   23.2835 H   0  0  0  0  0  0
  -22.4009  -11.9902   22.4832 H   0  0  0  0  0  0
  -21.1079  -13.1319   22.2563 H   0  0  0  0  0  0
  -24.6548  -15.8399   20.5079 H   0  0  0  0  0  0
  -26.2681  -15.6224   20.0557 H   0  0  0  0  0  0
  -26.7180  -32.5444   23.1122 H   0  0  0  0  0  0
  -25.0113  -33.9700   25.0443 H   0  0  0  0  0  0
  -22.7116  -31.2956   21.3970 H   0  0  0  0  0  0
  -23.3770  -35.9596   23.3263 H   0  0  0  0  0  0
  -24.3612  -36.8936   22.2078 H   0  0  0  0  0  0
  -23.7223  -37.6470   23.6684 H   0  0  0  0  0  0
  -26.0875  -31.5638   20.6039 H   0  0  0  0  0  0
  -26.8383  -30.8444   22.0015 H   0  0  0  0  0  0
  -28.1154  -29.0078   21.2019 H   0  0  0  0  0  0
  -26.0056  -25.9352   19.0119 H   0  0  0  0  0  0
  -23.9972  -27.2972   19.0029 H   0  0  0  0  0  0
  -23.7350  -30.5689   19.3905 H   0  0  0  0  0  0
  -22.7612  -29.2127   19.8783 H   0  0  0  0  0  0
  -25.1296  -36.1922   25.0846 H   0  0  0  0  0  0
  -20.9915  -28.3257   24.1427 H   0  0  0  0  0  0
  -20.5652  -26.2311   23.3622 H   0  0  0  0  0  0
  -21.6630  -26.7463   22.1227 H   0  0  0  0  0  0
  -19.6920  -25.6287   21.1253 H   0  0  0  0  0  0
  -19.6698  -27.3174   20.6724 H   0  0  0  0  0  0
  -17.4214  -26.6679   21.3961 H   0  0  0  0  0  0
  -18.0275  -26.0047   22.8978 H   0  0  0  0  0  0
  -19.7917  -30.7229   24.2259 H   0  0  0  0  0  0
  -17.5018  -31.6285   24.5125 H   0  0  0  0  0  0
  -15.5330  -30.2975   23.7705 H   0  0  0  0  0  0
  -15.8635  -28.0794   22.7131 H   0  0  0  0  0  0
  -24.5850  -30.7158   25.7799 H   0  0  0  0  0  0
  -24.8972  -32.2930   26.4936 H   0  0  0  0  0  0
  -25.8040  -30.8879   27.0224 H   0  0  0  0  0  0
  -26.2854  -29.6734   24.1246 H   0  0  0  0  0  0
  -27.3951  -29.7254   25.4751 H   0  0  0  0  0  0
  -27.8760  -30.4197   23.9440 H   0  0  0  0  0  0
  -27.2740  -33.3630   26.1980 H   0  0  0  0  0  0
  -28.3913  -32.6749   25.0279 H   0  0  0  0  0  0
  -28.0716  -31.8424   26.5416 H   0  0  0  0  0  0
  -28.2585  -38.0100   24.7530 H   0  0  0  0  0  0
  -28.1065  -36.2637   24.6200 H   0  0  0  0  0  0
  -27.2308  -37.1363   25.8853 H   0  0  0  0  0  0
  -20.9395  -29.8714   21.6848 H   0  0  0  0  0  0
  -26.0144  -38.2862   24.1409 H   0  0  0  0  0  0
  -31.7143  -17.2889   21.8677 H   0  0  0  0  0  0
  -28.0050  -17.3564   19.7268 H   0  0  0  0  0  0
  -33.6166  -20.0954   23.1766 H   0  0  0  0  0  0
  -33.5929  -18.8670   21.9191 H   0  0  0  0  0  0
  -32.6964  -18.6306   23.4392 H   0  0  0  0  0  0
  -28.8431  -22.3040   19.3167 H   0  0  0  0  0  0
  -27.8956  -22.2453   20.7769 H   0  0  0  0  0  0
  -27.2061  -24.8147   20.7420 H   0  0  0  0  0  0
  -27.9148  -24.7908   19.1470 H   0  0  0  0  0  0
  -30.1819  -24.2487   20.1873 H   0  0  0  0  0  0
  -28.8357  -15.3133   21.0537 H   0  0  0  0  0  0
  -30.5492  -21.8561   21.6100 H   0  0  0  0  0  0
  -28.6324  -23.6994   22.4754 H   0  0  0  0  0  0
  1 25  1  0  0  0
  1 30  2  0  0  0
  1 81  1  0  0  0
  2  3  1  0  0  0
  2 25  1  0  0  0
  2 86  1  0  0  0
  2 87  1  0  0  0
  3  4  1  0  0  0
  3 88  1  0  0  0
  3 89  1  0  0  0
  4  5  1  0  0  0
  4 90  1  0  0  0
  4 91  1  0  0  0
  5  6  1  0  0  0
  5 26  1  0  0  0
  5 92  1  0  0  0
  6 25  1  0  0  0
  6 93  1  0  0  0
  6 94  1  0  0  0
  7  8  2  0  0  0
  7 26  1  0  0  0
  7 29  1  0  0  0
  8  9  1  0  0  0
  8 22  1  0  0  0
  9 10  1  0  0  0
  9 27  2  0  0  0
 10 11  2  0  0  0
 10 15  1  0  0  0
 11 12  1  0  0  0
 11 95  1  0  0  0
 12 13  2  0  0  0
 12 96  1  0  0  0
 13 14  1  0  0  0
 13 31  1  0  0  0
 14 15  2  0  0  0
 14 97  1  0  0  0
 15 98  1  0  0  0
 16 17  2  0  0  0
 16 21  1  0  0  0
 16 31  1  0  0  0
 17 18  1  0  0  0
 17 99  1  0  0  0
 18 19  2  0  0  0
 18100  1  0  0  0
 19 20  1  0  0  0
 19 24  1  0  0  0
 20 21  2  0  0  0
 20101  1  0  0  0
 21 23  1  0  0  0
 22 28  1  0  0  0
 22 32  2  0  0  0
 26 27  1  0  0  0
 28102  1  0  0  0
 28103  1  0  0  0
 29104  1  0  0  0
 29105  1  0  0  0
 33 34  1  0  0  0
 33 66  1  0  0  0
 33 70  2  0  0  0
 34 36  1  0  0  0
 34 59  1  0  0  0
 34106  1  0  0  0
 35 44  2  0  0  0
 35 45  1  0  0  0
 35 68  1  0  0  0
 36 56  1  0  0  0
 36107  1  0  0  0
 37 39  1  0  0  0
 37 47  1  0  0  0
 37 66  1  0  0  0
 37108  1  0  0  0
 38 43  2  0  0  0
 38 46  1  0  0  0
 38 47  1  0  0  0
 39 64  1  0  0  0
 39 67  2  0  0  0
 40 52  1  0  0  0
 40 53  2  0  0  0
 40 58  1  0  0  0
 41109  1  0  0  0
 41110  1  0  0  0
 41111  1  0  0  0
 41 48  1  0  0  0
 42 43  1  0  0  0
 42 66  1  0  0  0
 42112  1  0  0  0
 42113  1  0  0  0
 43 44  1  0  0  0
 44114  1  0  0  0
 45 46  2  0  0  0
 45115  1  0  0  0
 46116  1  0  0  0
 47117  1  0  0  0
 47118  1  0  0  0
 48 56  1  0  0  0
 48 65  1  0  0  0
 48119  1  0  0  0
 49 50  1  0  0  0
 49 53  1  0  0  0
 49 64  1  0  0  0
 49120  1  0  0  0
 50 51  1  0  0  0
 50121  1  0  0  0
 50122  1  0  0  0
 51 52  1  0  0  0
 51123  1  0  0  0
 51124  1  0  0  0
 52125  1  0  0  0
 52126  1  0  0  0
 53 54  1  0  0  0
 54 55  2  0  0  0
 54127  1  0  0  0
 55 57  1  0  0  0
 55128  1  0  0  0
 56 69  2  0  0  0
 57 58  2  0  0  0
 57129  1  0  0  0
 58130  1  0  0  0
 59 60  1  0  0  0
 59 61  1  0  0  0
 59 62  1  0  0  0
 60131  1  0  0  0
 60132  1  0  0  0
 60133  1  0  0  0
 61134  1  0  0  0
 61135  1  0  0  0
 61136  1  0  0  0
 62137  1  0  0  0
 62138  1  0  0  0
 62139  1  0  0  0
 63 65  1  0  0  0
 63140  1  0  0  0
 63141  1  0  0  0
 63142  1  0  0  0
 64143  1  0  0  0
 65144  1  0  0  0
 68 79  1  0  0  0
 71 73  2  0  0  0
 71 75  1  0  0  0
 71145  1  0  0  0
 72 73  1  0  0  0
 72 76  2  0  0  0
 72146  1  0  0  0
 73 81  1  0  0  0
 74 75  2  0  0  0
 74 76  1  0  0  0
 74 82  1  0  0  0
 75 84  1  0  0  0
 76 85  1  0  0  0
 77 84  1  0  0  0
 77147  1  0  0  0
 77148  1  0  0  0
 77149  1  0  0  0
 78 80  1  0  0  0
 78 82  1  0  0  0
 78150  1  0  0  0
 78151  1  0  0  0
 79 80  1  0  0  0
 79152  1  0  0  0
 79153  1  0  0  0
 80 83  1  0  0  0
 80154  1  0  0  0
 81155  1  0  0  0
 82156  1  0  0  0
 83157  1  0  0  0
M  ISO  4   1 100  68 101  79 101  81 100
M  END
> <chiral flag>
0

> <version>
0

> <s_m_source_file>
/data/baiqing/PycharmProjects/Reinvent-master-3.2/result/LINK_invent/BTK/process_docking_weight1_custom_product_contain_oxygen_bond_distance_aromatic_linkinvent_7_9_3/rearranged_h_0171.sdf

> <i_m_source_file_index>
86

> <r_mmod_Potential_Energy-OPLS-2005>
85.9001617431641

> <r_mmod_Stretch_Energy-OPLS-2005>
77.6667327880859

> <r_mmod_Bend_Energy-OPLS-2005>
151.659362792969

> <r_mmod_Torsional_Energy-OPLS-2005>
249.264831542969

> <r_mmod_Improper_Torsional_Energy-OPLS-2005>
5.80753517150879

> <r_mmod_Van_der_Waal_Energy-OPLS-2005>
150.71940612793

> <r_mmod_Electrostatic_Energy-OPLS-2005>
-353.757110595703

> <r_mmod_Solvation_Energy-OPLS-2005>
-241.054229736328

> <b_mmod_Minimization_Converged-OPLS-2005>
0

> <r_mmod_RMS_Derivative-OPLS-2005>
3.11575770378113

$$$$
86
                    3D
 Structure written by MMmdl.
163171  0  0  1  0            999 V2000
  -30.6673  -14.5288   20.5398 C   0  0  0  0  0  0
  -30.4308  -12.3282   19.4624 C   0  0  0  0  0  0
  -29.5093  -12.4862   18.2329 C   0  0  0  0  0  0
  -28.0298  -12.3450   18.6409 C   0  0  0  0  0  0
  -27.6590  -13.2074   19.8779 C   0  0  2  0  0  0
  -28.6964  -13.0265   21.0112 C   0  0  0  0  0  0
  -25.2566  -13.8159   20.5708 C   0  0  0  0  0  0
  -24.1813  -13.0442   20.9188 C   0  0  0  0  0  0
  -24.6358  -11.6899   20.8742 C   0  0  0  0  0  0
  -23.9034  -10.4288   21.0435 C   0  0  0  0  0  0
  -24.3590   -9.4199   21.9200 C   0  0  0  0  0  0
  -23.6267   -8.2236   22.0768 C   0  0  0  0  0  0
  -22.4252   -8.0278   21.3555 C   0  0  0  0  0  0
  -21.9884   -9.0266   20.4669 C   0  0  0  0  0  0
  -22.7215  -10.2143   20.3077 C   0  0  0  0  0  0
  -21.6837   -6.0738   22.5297 C   0  0  0  0  0  0
  -21.4014   -6.5642   23.8237 C   0  0  0  0  0  0
  -21.3659   -5.6788   24.9186 C   0  0  0  0  0  0
  -21.6036   -4.3051   24.7222 C   0  0  0  0  0  0
  -21.8808   -3.8147   23.4346 C   0  0  0  0  0  0
  -21.9183   -4.6969   22.3408 C   0  0  0  0  0  0
  -22.7848  -13.5267   21.1849 C   0  0  0  0  0  0
  -22.1650   -4.2175   21.0978 F   0  0  0  0  0  0
  -21.5622   -3.4531   25.7732 F   0  0  0  0  0  0
  -30.0275  -13.3293   20.4642 N   0  0  0  0  0  0
  -26.2987  -12.9329   20.3363 N   0  0  0  0  0  0
  -25.9289  -11.6491   20.5790 N   0  0  0  0  0  0
  -22.0449  -12.8297   22.0417 N   0  0  0  0  0  0
  -25.4298  -15.1875   20.4161 N   0  0  0  0  0  0
  -31.8099  -14.6966   20.1020 O   0  0  0  0  0  0
  -21.6611   -6.8881   21.4260 O   0  0  0  0  0  0
  -22.3571  -14.5580   20.6684 O   0  0  0  0  0  0
  -24.6159  -31.8666   23.2066 C   0  0  0  0  0  0
  -25.9037  -32.4805   23.8388 C   0  0  1  0  0  0
  -27.2317  -27.4049   20.0992 C   0  0  0  0  0  0
  -25.5878  -33.8603   24.2318 N   0  0  0  0  0  0
  -23.4067  -30.4855   21.5476 C   0  0  2  0  0  0
  -24.8515  -28.9484   20.1135 C   0  0  0  0  0  0
  -22.7432  -29.4615   22.4973 C   0  0  0  0  0  0
  -18.0267  -28.1376   22.8494 C   0  0  0  0  0  0
  -24.1476  -36.7302   23.2639 C   0  0  0  0  0  0
  -25.9379  -30.8209   21.3658 C   0  0  0  0  0  0
  -26.0122  -29.4522   20.7130 C   0  0  0  0  0  0
  -27.2004  -28.6861   20.7056 C   0  0  0  0  0  0
  -26.0478  -26.9177   19.4980 C   0  0  0  0  0  0
  -24.8660  -27.6832   19.5028 C   0  0  0  0  0  0
  -23.6170  -29.8191   20.1613 C   0  0  0  0  0  0
  -25.4094  -36.3095   24.0337 C   0  0  1  0  0  0
  -20.5865  -28.3643   23.1322 C   0  0  2  0  0  0
  -20.6744  -26.9374   22.5415 C   0  0  0  0  0  0
  -19.5715  -26.6380   21.5210 C   0  0  0  0  0  0
  -18.1905  -26.7919   22.1638 C   0  0  0  0  0  0
  -19.1526  -28.8827   23.2909 C   0  0  0  0  0  0
  -18.9449  -30.1440   23.8913 C   0  0  0  0  0  0
  -17.6452  -30.6577   24.0566 C   0  0  0  0  0  0
  -25.9030  -34.9460   23.5129 C   0  0  0  0  0  0
  -16.5340  -29.9076   23.6320 C   0  0  0  0  0  0
  -16.7264  -28.6496   23.0347 C   0  0  0  0  0  0
  -26.4475  -31.6587   25.0722 C   0  0  0  0  0  0
  -25.3762  -31.3708   26.1495 C   0  0  0  0  0  0
  -27.0290  -30.3019   24.6098 C   0  0  0  0  0  0
  -27.6050  -32.4323   25.7479 C   0  0  0  0  0  0
  -27.5576  -37.1802   24.8469 C   0  0  0  0  0  0
  -21.4165  -29.3016   22.3743 N   0  0  0  0  0  0
  -26.4289  -37.3769   23.9418 N   0  0  0  0  0  0
  -24.6714  -31.0730   22.0969 N   0  0  0  0  0  0
  -23.4201  -28.8152   23.3025 O   0  0  0  0  0  0
  -28.4061  -26.6742   20.1497 O   0  0  0  0  0  0
  -26.5603  -34.8917   22.4702 O   0  0  0  0  0  0
  -23.5342  -32.1443   23.7413 O   0  0  0  0  0  0
  -29.6482  -18.0932   20.6778 C   0  0  0  0  0  0
  -29.3359  -19.0318   18.4405 C   0  0  0  0  0  0
  -29.6279  -16.6379   18.7121 C   0  0  0  0  0  0
  -29.4588  -19.2304   19.8317 C   0  0  0  0  0  0
  -29.7521  -16.7794   20.1165 C   0  0  0  0  0  0
  -29.4219  -17.7495   17.8834 C   0  0  0  0  0  0
  -29.4962  -20.6476   20.2702 C   0  0  0  0  0  0
  -29.3389  -23.6688   16.6718 C   0  0  0  0  0  0
  -28.4509  -24.1475   19.9496 C   0  0  0  0  0  0
  -28.7661  -23.9509   15.2902 C   0  0  0  0  0  0
  -28.4363  -22.9457   17.6819 C   0  0  0  0  0  0
  -28.6065  -25.5449   19.2742 C   0  0  0  0  0  0
  -28.9688  -22.9043   19.1487 C   0  0  2  0  0  0
  -29.9160  -15.5914   20.9192 N   0  0  0  0  0  0
  -28.6463  -21.5576   19.7375 N   0  0  0  0  0  0
  -30.4765  -21.0694   21.0682 N   0  3  0  0  0  0
  -30.4834  -24.0248   16.9587 O   0  0  0  0  0  0
  -27.9417  -24.0412   21.0680 O   0  0  0  0  0  0
  -29.3148  -17.5946   16.5427 F   0  0  0  0  0  0
  -31.4777  -12.4306   19.1678 H   0  0  0  0  0  0
  -30.3434  -11.3273   19.8848 H   0  0  0  0  0  0
  -29.7642  -11.7416   17.4758 H   0  0  0  0  0  0
  -29.6714  -13.4572   17.7663 H   0  0  0  0  0  0
  -27.8550  -11.2920   18.8639 H   0  0  0  0  0  0
  -27.3795  -12.5891   17.8001 H   0  0  0  0  0  0
  -27.6892  -14.2474   19.5554 H   0  0  0  0  0  0
  -28.6741  -11.9994   21.3768 H   0  0  0  0  0  0
  -28.4568  -13.6521   21.8720 H   0  0  0  0  0  0
  -25.2736   -9.5653   22.4778 H   0  0  0  0  0  0
  -23.9984   -7.4607   22.7455 H   0  0  0  0  0  0
  -21.0832   -8.8768   19.8968 H   0  0  0  0  0  0
  -22.3677  -10.9677   19.6185 H   0  0  0  0  0  0
  -21.2013   -7.6155   23.9742 H   0  0  0  0  0  0
  -21.1502   -6.0523   25.9096 H   0  0  0  0  0  0
  -22.0588   -2.7614   23.2828 H   0  0  0  0  0  0
  -22.4004  -11.9963   22.4865 H   0  0  0  0  0  0
  -21.1070  -13.1388   22.2578 H   0  0  0  0  0  0
  -24.6632  -15.8416   20.5300 H   0  0  0  0  0  0
  -26.2797  -15.6281   20.0915 H   0  0  0  0  0  0
  -26.7102  -32.5534   23.1146 H   0  0  0  0  0  0
  -25.0022  -33.9766   25.0458 H   0  0  0  0  0  0
  -22.6965  -31.3017   21.4054 H   0  0  0  0  0  0
  -23.3729  -35.9643   23.3302 H   0  0  0  0  0  0
  -24.3569  -36.8922   22.2056 H   0  0  0  0  0  0
  -23.7242  -37.6510   23.6659 H   0  0  0  0  0  0
  -26.0576  -31.5835   20.5938 H   0  0  0  0  0  0
  -26.8217  -30.8738   21.9887 H   0  0  0  0  0  0
  -28.0978  -29.0679   21.1712 H   0  0  0  0  0  0
  -26.0065  -25.9400   19.0421 H   0  0  0  0  0  0
  -23.9687  -27.2941   19.0419 H   0  0  0  0  0  0
  -23.7353  -30.5952   19.4050 H   0  0  0  0  0  0
  -22.7425  -29.2411   19.8600 H   0  0  0  0  0  0
  -25.1258  -36.1958   25.0826 H   0  0  0  0  0  0
  -20.9948  -28.3193   24.1446 H   0  0  0  0  0  0
  -20.5622  -26.2245   23.3600 H   0  0  0  0  0  0
  -21.6616  -26.7388   22.1223 H   0  0  0  0  0  0
  -19.6867  -25.6297   21.1221 H   0  0  0  0  0  0
  -19.6650  -27.3207   20.6753 H   0  0  0  0  0  0
  -17.4162  -26.6665   21.4058 H   0  0  0  0  0  0
  -18.0311  -26.0063   22.9040 H   0  0  0  0  0  0
  -19.7932  -30.7260   24.2284 H   0  0  0  0  0  0
  -17.5002  -31.6254   24.5174 H   0  0  0  0  0  0
  -15.5342  -30.2988   23.7616 H   0  0  0  0  0  0
  -15.8675  -28.0819   22.7045 H   0  0  0  0  0  0
  -24.5893  -30.7087   25.7861 H   0  0  0  0  0  0
  -24.9013  -32.2880   26.5001 H   0  0  0  0  0  0
  -25.8141  -30.8851   27.0227 H   0  0  0  0  0  0
  -26.2821  -29.6793   24.1157 H   0  0  0  0  0  0
  -27.4061  -29.7232   25.4540 H   0  0  0  0  0  0
  -27.8660  -30.4304   23.9226 H   0  0  0  0  0  0
  -27.2640  -33.3603   26.2081 H   0  0  0  0  0  0
  -28.3839  -32.6934   25.0299 H   0  0  0  0  0  0
  -28.0745  -31.8459   26.5386 H   0  0  0  0  0  0
  -28.2592  -38.0100   24.7500 H   0  0  0  0  0  0
  -28.1075  -36.2637   24.6292 H   0  0  0  0  0  0
  -27.2312  -37.1438   25.8878 H   0  0  0  0  0  0
  -20.9321  -29.8788   21.7012 H   0  0  0  0  0  0
  -26.0176  -38.2845   24.1430 H   0  0  0  0  0  0
  -29.7366  -18.2292   21.7479 H   0  0  0  0  0  0
  -29.2140  -19.8682   17.7693 H   0  0  0  0  0  0
  -29.6739  -15.6672   18.2460 H   0  0  0  0  0  0
  -27.6763  -23.9647   15.3129 H   0  0  0  0  0  0
  -29.0888  -23.1842   14.5860 H   0  0  0  0  0  0
  -29.1117  -24.9196   14.9311 H   0  0  0  0  0  0
  -28.2736  -21.9379   17.2991 H   0  0  0  0  0  0
  -27.4585  -23.4284   17.6552 H   0  0  0  0  0  0
  -27.9778  -25.6065   18.3876 H   0  0  0  0  0  0
  -29.6291  -25.6208   18.9081 H   0  0  0  0  0  0
  -30.0584  -22.9690   19.1260 H   0  0  0  0  0  0
  -29.1340  -15.3686   21.5186 H   0  0  0  0  0  0
  -27.6940  -21.2316   19.6226 H   0  0  0  0  0  0
  -31.1582  -20.4095   21.4098 H   0  0  0  0  0  0
  -30.5042  -22.0156   21.4079 H   0  0  0  0  0  0
  1 25  1  0  0  0
  1 30  2  0  0  0
  1 84  1  0  0  0
  2  3  1  0  0  0
  2 25  1  0  0  0
  2 90  1  0  0  0
  2 91  1  0  0  0
  3  4  1  0  0  0
  3 92  1  0  0  0
  3 93  1  0  0  0
  4  5  1  0  0  0
  4 94  1  0  0  0
  4 95  1  0  0  0
  5  6  1  0  0  0
  5 26  1  0  0  0
  5 96  1  0  0  0
  6 25  1  0  0  0
  6 97  1  0  0  0
  6 98  1  0  0  0
  7  8  2  0  0  0
  7 26  1  0  0  0
  7 29  1  0  0  0
  8  9  1  0  0  0
  8 22  1  0  0  0
  9 10  1  0  0  0
  9 27  2  0  0  0
 10 11  2  0  0  0
 10 15  1  0  0  0
 11 12  1  0  0  0
 11 99  1  0  0  0
 12 13  2  0  0  0
 12100  1  0  0  0
 13 14  1  0  0  0
 13 31  1  0  0  0
 14 15  2  0  0  0
 14101  1  0  0  0
 15102  1  0  0  0
 16 17  2  0  0  0
 16 21  1  0  0  0
 16 31  1  0  0  0
 17 18  1  0  0  0
 17103  1  0  0  0
 18 19  2  0  0  0
 18104  1  0  0  0
 19 20  1  0  0  0
 19 24  1  0  0  0
 20 21  2  0  0  0
 20105  1  0  0  0
 21 23  1  0  0  0
 22 28  1  0  0  0
 22 32  2  0  0  0
 26 27  1  0  0  0
 28106  1  0  0  0
 28107  1  0  0  0
 29108  1  0  0  0
 29109  1  0  0  0
 33 34  1  0  0  0
 33 66  1  0  0  0
 33 70  2  0  0  0
 34 36  1  0  0  0
 34 59  1  0  0  0
 34110  1  0  0  0
 35 44  2  0  0  0
 35 45  1  0  0  0
 35 68  1  0  0  0
 36 56  1  0  0  0
 36111  1  0  0  0
 37 39  1  0  0  0
 37 47  1  0  0  0
 37 66  1  0  0  0
 37112  1  0  0  0
 38 43  2  0  0  0
 38 46  1  0  0  0
 38 47  1  0  0  0
 39 64  1  0  0  0
 39 67  2  0  0  0
 40 52  1  0  0  0
 40 53  2  0  0  0
 40 58  1  0  0  0
 41113  1  0  0  0
 41114  1  0  0  0
 41115  1  0  0  0
 41 48  1  0  0  0
 42 43  1  0  0  0
 42 66  1  0  0  0
 42116  1  0  0  0
 42117  1  0  0  0
 43 44  1  0  0  0
 44118  1  0  0  0
 45 46  2  0  0  0
 45119  1  0  0  0
 46120  1  0  0  0
 47121  1  0  0  0
 47122  1  0  0  0
 48 56  1  0  0  0
 48 65  1  0  0  0
 48123  1  0  0  0
 49 50  1  0  0  0
 49 53  1  0  0  0
 49 64  1  0  0  0
 49124  1  0  0  0
 50 51  1  0  0  0
 50125  1  0  0  0
 50126  1  0  0  0
 51 52  1  0  0  0
 51127  1  0  0  0
 51128  1  0  0  0
 52129  1  0  0  0
 52130  1  0  0  0
 53 54  1  0  0  0
 54 55  2  0  0  0
 54131  1  0  0  0
 55 57  1  0  0  0
 55132  1  0  0  0
 56 69  2  0  0  0
 57 58  2  0  0  0
 57133  1  0  0  0
 58134  1  0  0  0
 59 60  1  0  0  0
 59 61  1  0  0  0
 59 62  1  0  0  0
 60135  1  0  0  0
 60136  1  0  0  0
 60137  1  0  0  0
 61138  1  0  0  0
 61139  1  0  0  0
 61140  1  0  0  0
 62141  1  0  0  0
 62142  1  0  0  0
 62143  1  0  0  0
 63 65  1  0  0  0
 63144  1  0  0  0
 63145  1  0  0  0
 63146  1  0  0  0
 64147  1  0  0  0
 65148  1  0  0  0
 68 82  1  0  0  0
 71 74  2  0  0  0
 71 75  1  0  0  0
 71149  1  0  0  0
 72 74  1  0  0  0
 72 76  2  0  0  0
 72150  1  0  0  0
 73 75  2  0  0  0
 73 76  1  0  0  0
 73151  1  0  0  0
 74 77  1  0  0  0
 75 84  1  0  0  0
 76 89  1  0  0  0
 77 85  1  0  0  0
 77 86  2  0  0  0
 78 80  1  0  0  0
 78 81  1  0  0  0
 78 87  2  0  0  0
 79 82  1  0  0  0
 79 83  1  0  0  0
 79 88  2  0  0  0
 80152  1  0  0  0
 80153  1  0  0  0
 80154  1  0  0  0
 81155  1  0  0  0
 81156  1  0  0  0
 81 83  1  0  0  0
 82157  1  0  0  0
 82158  1  0  0  0
 83 85  1  0  0  0
 83159  1  0  0  0
 84160  1  0  0  0
 85161  1  0  0  0
 86162  1  0  0  0
 86163  1  0  0  0
M  CHG  1  86   1
M  ISO  4   1 100  68 101  82 101  84 100
M  END
> <chiral flag>
0

> <version>
0

> <s_m_source_file>
/data/baiqing/PycharmProjects/Reinvent-master-3.2/result/LINK_invent/BTK/process_docking_weight1_custom_product_contain_oxygen_bond_distance_aromatic_linkinvent_7_9_3/rearranged_h_0171.sdf

> <i_m_source_file_index>
87

> <r_mmod_Potential_Energy-OPLS-2005>
-304.004913330078

> <r_mmod_Stretch_Energy-OPLS-2005>
50.0552406311035

> <r_mmod_Bend_Energy-OPLS-2005>
114.860076904297

> <r_mmod_Torsional_Energy-OPLS-2005>
283.510803222656

> <r_mmod_Improper_Torsional_Energy-OPLS-2005>
9.49652481079102

> <r_mmod_Van_der_Waal_Energy-OPLS-2005>
147.377700805664

> <r_mmod_Electrostatic_Energy-OPLS-2005>
-446.687927246094

> <r_mmod_Solvation_Energy-OPLS-2005>
-483.342224121094

> <b_mmod_Minimization_Converged-OPLS-2005>
0

> <r_mmod_RMS_Derivative-OPLS-2005>
3.74179148674011

$$$$
87
                    3D
 Structure written by MMmdl.
157165  0  0  1  0            999 V2000
  -30.6928  -14.4913   20.5795 C   0  0  0  0  0  0
  -30.4300  -12.3269   19.4154 C   0  0  0  0  0  0
  -29.4937  -12.5040   18.2022 C   0  0  0  0  0  0
  -28.0161  -12.3597   18.6185 C   0  0  0  0  0  0
  -27.6597  -13.2057   19.8701 C   0  0  2  0  0  0
  -28.7030  -12.9946   20.9900 C   0  0  0  0  0  0
  -25.2583  -13.8155   20.5671 C   0  0  0  0  0  0
  -24.1836  -13.0433   20.9174 C   0  0  0  0  0  0
  -24.6384  -11.6900   20.8723 C   0  0  0  0  0  0
  -23.9045  -10.4288   21.0395 C   0  0  0  0  0  0
  -24.3608   -9.4207   21.9179 C   0  0  0  0  0  0
  -23.6288   -8.2242   22.0746 C   0  0  0  0  0  0
  -22.4271   -8.0273   21.3543 C   0  0  0  0  0  0
  -21.9900   -9.0243   20.4642 C   0  0  0  0  0  0
  -22.7217  -10.2122   20.3054 C   0  0  0  0  0  0
  -21.6855   -6.0725   22.5278 C   0  0  0  0  0  0
  -21.4007   -6.5632   23.8206 C   0  0  0  0  0  0
  -21.3661   -5.6791   24.9170 C   0  0  0  0  0  0
  -21.6047   -4.3046   24.7228 C   0  0  0  0  0  0
  -21.8823   -3.8139   23.4346 C   0  0  0  0  0  0
  -21.9192   -4.6954   22.3403 C   0  0  0  0  0  0
  -22.7861  -13.5240   21.1850 C   0  0  0  0  0  0
  -22.1663   -4.2135   21.0981 F   0  0  0  0  0  0
  -21.5636   -3.4539   25.7742 F   0  0  0  0  0  0
  -30.0297  -13.3115   20.4328 N   0  0  0  0  0  0
  -26.3013  -12.9317   20.3338 N   0  0  0  0  0  0
  -25.9314  -11.6478   20.5757 N   0  0  0  0  0  0
  -22.0503  -12.8225   22.0405 N   0  0  0  0  0  0
  -25.4308  -15.1872   20.4066 N   0  0  0  0  0  0
  -31.8109  -14.7022   20.1044 O   0  0  0  0  0  0
  -21.6638   -6.8869   21.4238 O   0  0  0  0  0  0
  -22.3541  -14.5546   20.6707 O   0  0  0  0  0  0
  -24.6136  -31.8646   23.2120 C   0  0  0  0  0  0
  -25.9026  -32.4788   23.8408 C   0  0  1  0  0  0
  -27.2327  -27.4026   20.0954 C   0  0  0  0  0  0
  -25.5898  -33.8589   24.2331 N   0  0  0  0  0  0
  -23.4029  -30.4906   21.5490 C   0  0  2  0  0  0
  -24.8493  -28.9562   20.1132 C   0  0  0  0  0  0
  -22.7395  -29.4641   22.4960 C   0  0  0  0  0  0
  -18.0270  -28.1366   22.8490 C   0  0  0  0  0  0
  -24.1490  -36.7312   23.2650 C   0  0  0  0  0  0
  -25.9352  -30.8210   21.3722 C   0  0  0  0  0  0
  -26.0092  -29.4533   20.7174 C   0  0  0  0  0  0
  -27.1972  -28.6811   20.7110 C   0  0  0  0  0  0
  -26.0420  -26.9226   19.4980 C   0  0  0  0  0  0
  -24.8628  -27.6915   19.5038 C   0  0  0  0  0  0
  -23.6135  -29.8276   20.1608 C   0  0  0  0  0  0
  -25.4102  -36.3086   24.0341 C   0  0  1  0  0  0
  -20.5859  -28.3650   23.1314 C   0  0  2  0  0  0
  -20.6760  -26.9385   22.5416 C   0  0  0  0  0  0
  -19.5744  -26.6376   21.5203 C   0  0  0  0  0  0
  -18.1924  -26.7919   22.1614 C   0  0  0  0  0  0
  -19.1521  -28.8826   23.2910 C   0  0  0  0  0  0
  -18.9458  -30.1434   23.8905 C   0  0  0  0  0  0
  -17.6465  -30.6586   24.0556 C   0  0  0  0  0  0
  -25.9032  -34.9441   23.5127 C   0  0  0  0  0  0
  -16.5353  -29.9084   23.6333 C   0  0  0  0  0  0
  -16.7266  -28.6502   23.0351 C   0  0  0  0  0  0
  -26.4477  -31.6565   25.0727 C   0  0  0  0  0  0
  -25.3785  -31.3625   26.1506 C   0  0  0  0  0  0
  -27.0311  -30.3009   24.6103 C   0  0  0  0  0  0
  -27.6083  -32.4270   25.7475 C   0  0  0  0  0  0
  -27.5566  -37.1806   24.8466 C   0  0  0  0  0  0
  -21.4123  -29.3022   22.3718 N   0  0  0  0  0  0
  -26.4284  -37.3765   23.9405 N   0  0  0  0  0  0
  -24.6685  -31.0739   22.1025 N   0  0  0  0  0  0
  -23.4176  -28.8175   23.2992 O   0  0  0  0  0  0
  -28.4194  -26.6820   20.1217 O   0  0  0  0  0  0
  -26.5603  -34.8891   22.4694 O   0  0  0  0  0  0
  -23.5321  -32.1411   23.7498 O   0  0  0  0  0  0
  -30.5885  -18.8554   18.4904 C   0  0  0  0  0  0
  -29.6722  -19.2706   21.0942 C   0  0  0  0  0  0
  -29.6156  -20.3713   20.1604 C   0  0  0  0  0  0
  -30.0741  -20.1176   18.8351 C   0  0  0  0  0  0
  -30.2320  -18.0112   20.6785 C   0  0  0  0  0  0
  -28.6687  -24.1843   20.2996 C   0  0  0  0  0  0
  -30.5052  -16.7994   21.6027 C   0  0  0  0  0  0
  -29.0578  -22.8413   19.6247 C   0  0  0  0  0  0
  -28.5700  -25.4387   19.3895 C   0  0  0  0  0  0
  -29.1531  -19.3858   22.5334 C   0  0  0  0  0  0
  -30.6600  -17.8720   19.4063 N   0  3  0  0  0  0
  -29.1477  -21.6720   20.5267 N   0  0  0  0  0  0
  -29.9974  -15.4829   21.1687 N   0  0  0  0  0  0
  -28.4598  -24.2385   21.5173 O   0  0  0  0  0  0
  -30.0386  -21.0706   17.8702 F   0  0  0  0  0  0
  -28.5568  -20.5402   22.8303 F   0  0  0  0  0  0
  -28.2542  -18.4227   22.7476 F   0  0  0  0  0  0
  -30.1648  -19.2299   23.3888 F   0  0  0  0  0  0
  -31.4708  -12.4438   19.1077 H   0  0  0  0  0  0
  -30.3514  -11.3160   19.8192 H   0  0  0  0  0  0
  -29.7362  -11.7727   17.4304 H   0  0  0  0  0  0
  -29.6538  -13.4854   17.7522 H   0  0  0  0  0  0
  -27.8333  -11.3041   18.8226 H   0  0  0  0  0  0
  -27.3627  -12.6239   17.7862 H   0  0  0  0  0  0
  -27.7006  -14.2523   19.5659 H   0  0  0  0  0  0
  -28.6872  -11.9581   21.3318 H   0  0  0  0  0  0
  -28.4588  -13.5929   21.8682 H   0  0  0  0  0  0
  -25.2756   -9.5683   22.4740 H   0  0  0  0  0  0
  -24.0000   -7.4632   22.7464 H   0  0  0  0  0  0
  -21.0832   -8.8757   19.8948 H   0  0  0  0  0  0
  -22.3679  -10.9660   19.6155 H   0  0  0  0  0  0
  -21.1996   -7.6136   23.9704 H   0  0  0  0  0  0
  -21.1483   -6.0519   25.9072 H   0  0  0  0  0  0
  -22.0601   -2.7600   23.2856 H   0  0  0  0  0  0
  -22.4118  -11.9885   22.4790 H   0  0  0  0  0  0
  -21.1128  -13.1249   22.2630 H   0  0  0  0  0  0
  -24.6609  -15.8401   20.5032 H   0  0  0  0  0  0
  -26.2786  -15.6227   20.0677 H   0  0  0  0  0  0
  -26.7088  -32.5483   23.1161 H   0  0  0  0  0  0
  -25.0027  -33.9771   25.0455 H   0  0  0  0  0  0
  -22.6943  -31.3100   21.4095 H   0  0  0  0  0  0
  -23.3736  -35.9669   23.3312 H   0  0  0  0  0  0
  -24.3602  -36.8918   22.2072 H   0  0  0  0  0  0
  -23.7273  -37.6528   23.6668 H   0  0  0  0  0  0
  -26.0552  -31.5891   20.6067 H   0  0  0  0  0  0
  -26.8201  -30.8674   21.9950 H   0  0  0  0  0  0
  -28.0905  -29.0581   21.1900 H   0  0  0  0  0  0
  -25.9816  -25.9512   19.0327 H   0  0  0  0  0  0
  -23.9651  -27.3043   19.0413 H   0  0  0  0  0  0
  -23.7224  -30.6062   19.4040 H   0  0  0  0  0  0
  -22.7363  -29.2510   19.8603 H   0  0  0  0  0  0
  -25.1266  -36.1959   25.0837 H   0  0  0  0  0  0
  -20.9950  -28.3222   24.1433 H   0  0  0  0  0  0
  -20.5654  -26.2246   23.3597 H   0  0  0  0  0  0
  -21.6636  -26.7432   22.1209 H   0  0  0  0  0  0
  -19.6909  -25.6293   21.1224 H   0  0  0  0  0  0
  -19.6690  -27.3197   20.6747 H   0  0  0  0  0  0
  -17.4184  -26.6655   21.4033 H   0  0  0  0  0  0
  -18.0353  -26.0055   22.9004 H   0  0  0  0  0  0
  -19.7944  -30.7245   24.2276 H   0  0  0  0  0  0
  -17.5026  -31.6273   24.5141 H   0  0  0  0  0  0
  -15.5355  -30.2984   23.7660 H   0  0  0  0  0  0
  -15.8661  -28.0823   22.7064 H   0  0  0  0  0  0
  -24.6016  -30.6880   25.7876 H   0  0  0  0  0  0
  -24.8913  -32.2737   26.4984 H   0  0  0  0  0  0
  -25.8205  -30.8825   27.0248 H   0  0  0  0  0  0
  -26.2834  -29.6754   24.1215 H   0  0  0  0  0  0
  -27.4129  -29.7243   25.4541 H   0  0  0  0  0  0
  -27.8647  -30.4297   23.9198 H   0  0  0  0  0  0
  -27.2760  -33.3584   26.2056 H   0  0  0  0  0  0
  -28.3914  -32.6783   25.0313 H   0  0  0  0  0  0
  -28.0727  -31.8372   26.5387 H   0  0  0  0  0  0
  -28.2584  -38.0100   24.7496 H   0  0  0  0  0  0
  -28.1045  -36.2625   24.6295 H   0  0  0  0  0  0
  -27.2277  -37.1469   25.8867 H   0  0  0  0  0  0
  -20.9270  -29.8767   21.6964 H   0  0  0  0  0  0
  -26.0159  -38.2833   24.1419 H   0  0  0  0  0  0
  -30.9641  -18.6204   17.5055 H   0  0  0  0  0  0
  -30.1051  -16.9528   22.6005 H   0  0  0  0  0  0
  -31.5848  -16.7392   21.7536 H   0  0  0  0  0  0
  -30.0170  -23.0037   19.1305 H   0  0  0  0  0  0
  -28.3211  -22.6395   18.8457 H   0  0  0  0  0  0
  -27.8109  -25.2812   18.6280 H   0  0  0  0  0  0
  -29.5077  -25.5037   18.8399 H   0  0  0  0  0  0
  -31.0796  -16.9825   19.1249 H   0  0  0  0  0  0
  -28.8251  -21.8348   21.4764 H   0  0  0  0  0  0
  -29.0710  -15.2349   21.4832 H   0  0  0  0  0  0
  1 25  1  0  0  0
  1 30  2  0  0  0
  1 83  1  0  0  0
  2  3  1  0  0  0
  2 25  1  0  0  0
  2 89  1  0  0  0
  2 90  1  0  0  0
  3  4  1  0  0  0
  3 91  1  0  0  0
  3 92  1  0  0  0
  4  5  1  0  0  0
  4 93  1  0  0  0
  4 94  1  0  0  0
  5  6  1  0  0  0
  5 26  1  0  0  0
  5 95  1  0  0  0
  6 25  1  0  0  0
  6 96  1  0  0  0
  6 97  1  0  0  0
  7  8  2  0  0  0
  7 26  1  0  0  0
  7 29  1  0  0  0
  8  9  1  0  0  0
  8 22  1  0  0  0
  9 10  1  0  0  0
  9 27  2  0  0  0
 10 11  2  0  0  0
 10 15  1  0  0  0
 11 12  1  0  0  0
 11 98  1  0  0  0
 12 13  2  0  0  0
 12 99  1  0  0  0
 13 14  1  0  0  0
 13 31  1  0  0  0
 14 15  2  0  0  0
 14100  1  0  0  0
 15101  1  0  0  0
 16 17  2  0  0  0
 16 21  1  0  0  0
 16 31  1  0  0  0
 17 18  1  0  0  0
 17102  1  0  0  0
 18 19  2  0  0  0
 18103  1  0  0  0
 19 20  1  0  0  0
 19 24  1  0  0  0
 20 21  2  0  0  0
 20104  1  0  0  0
 21 23  1  0  0  0
 22 28  1  0  0  0
 22 32  2  0  0  0
 26 27  1  0  0  0
 28105  1  0  0  0
 28106  1  0  0  0
 29107  1  0  0  0
 29108  1  0  0  0
 33 34  1  0  0  0
 33 66  1  0  0  0
 33 70  2  0  0  0
 34 36  1  0  0  0
 34 59  1  0  0  0
 34109  1  0  0  0
 35 44  2  0  0  0
 35 45  1  0  0  0
 35 68  1  0  0  0
 36 56  1  0  0  0
 36110  1  0  0  0
 37 39  1  0  0  0
 37 47  1  0  0  0
 37 66  1  0  0  0
 37111  1  0  0  0
 38 43  2  0  0  0
 38 46  1  0  0  0
 38 47  1  0  0  0
 39 64  1  0  0  0
 39 67  2  0  0  0
 40 52  1  0  0  0
 40 53  2  0  0  0
 40 58  1  0  0  0
 41112  1  0  0  0
 41113  1  0  0  0
 41114  1  0  0  0
 41 48  1  0  0  0
 42 43  1  0  0  0
 42 66  1  0  0  0
 42115  1  0  0  0
 42116  1  0  0  0
 43 44  1  0  0  0
 44117  1  0  0  0
 45 46  2  0  0  0
 45118  1  0  0  0
 46119  1  0  0  0
 47120  1  0  0  0
 47121  1  0  0  0
 48 56  1  0  0  0
 48 65  1  0  0  0
 48122  1  0  0  0
 49 50  1  0  0  0
 49 53  1  0  0  0
 49 64  1  0  0  0
 49123  1  0  0  0
 50 51  1  0  0  0
 50124  1  0  0  0
 50125  1  0  0  0
 51 52  1  0  0  0
 51126  1  0  0  0
 51127  1  0  0  0
 52128  1  0  0  0
 52129  1  0  0  0
 53 54  1  0  0  0
 54 55  2  0  0  0
 54130  1  0  0  0
 55 57  1  0  0  0
 55131  1  0  0  0
 56 69  2  0  0  0
 57 58  2  0  0  0
 57132  1  0  0  0
 58133  1  0  0  0
 59 60  1  0  0  0
 59 61  1  0  0  0
 59 62  1  0  0  0
 60134  1  0  0  0
 60135  1  0  0  0
 60136  1  0  0  0
 61137  1  0  0  0
 61138  1  0  0  0
 61139  1  0  0  0
 62140  1  0  0  0
 62141  1  0  0  0
 62142  1  0  0  0
 63 65  1  0  0  0
 63143  1  0  0  0
 63144  1  0  0  0
 63145  1  0  0  0
 64146  1  0  0  0
 65147  1  0  0  0
 68 79  1  0  0  0
 71 74  2  0  0  0
 71 81  1  0  0  0
 71148  1  0  0  0
 72 73  2  0  0  0
 72 75  1  0  0  0
 72 80  1  0  0  0
 73 74  1  0  0  0
 73 82  1  0  0  0
 74 85  1  0  0  0
 75 77  1  0  0  0
 75 81  2  0  0  0
 76 78  1  0  0  0
 76 79  1  0  0  0
 76 84  2  0  0  0
 77 83  1  0  0  0
 77149  1  0  0  0
 77150  1  0  0  0
 78 82  1  0  0  0
 78151  1  0  0  0
 78152  1  0  0  0
 79153  1  0  0  0
 79154  1  0  0  0
 80 86  1  0  0  0
 80 87  1  0  0  0
 80 88  1  0  0  0
 81155  1  0  0  0
 82156  1  0  0  0
 83157  1  0  0  0
M  CHG  1  81   1
M  ISO  4   1 100  68 101  79 101  83 100
M  END
> <chiral flag>
0

> <version>
0

> <s_m_source_file>
/data/baiqing/PycharmProjects/Reinvent-master-3.2/result/LINK_invent/BTK/process_docking_weight1_custom_product_contain_oxygen_bond_distance_aromatic_linkinvent_7_9_3/rearranged_h_0171.sdf

> <i_m_source_file_index>
88

> <r_mmod_Potential_Energy-OPLS-2005>
-214.598739624023

> <r_mmod_Stretch_Energy-OPLS-2005>
53.1580810546875

> <r_mmod_Bend_Energy-OPLS-2005>
132.043563842773

> <r_mmod_Torsional_Energy-OPLS-2005>
180.138977050781

> <r_mmod_Improper_Torsional_Energy-OPLS-2005>
3.48996138572693

> <r_mmod_Van_der_Waal_Energy-OPLS-2005>
166.700057983398

> <r_mmod_Electrostatic_Energy-OPLS-2005>
-319.694641113281

> <r_mmod_Solvation_Energy-OPLS-2005>
-446.169525146484

> <b_mmod_Minimization_Converged-OPLS-2005>
0

> <r_mmod_RMS_Derivative-OPLS-2005>
2.15274906158447

$$$$
88
                    3D
 Structure written by MMmdl.
164172  0  0  1  0            999 V2000
  -30.7372  -14.4900   20.5566 C   0  0  0  0  0  0
  -30.4100  -12.3146   19.4385 C   0  0  0  0  0  0
  -29.4921  -12.4993   18.2140 C   0  0  0  0  0  0
  -28.0157  -12.3592   18.6291 C   0  0  0  0  0  0
  -27.6580  -13.2169   19.8731 C   0  0  2  0  0  0
  -28.7029  -13.0461   21.0013 C   0  0  0  0  0  0
  -25.2570  -13.8181   20.5704 C   0  0  0  0  0  0
  -24.1831  -13.0445   20.9180 C   0  0  0  0  0  0
  -24.6401  -11.6916   20.8749 C   0  0  0  0  0  0
  -23.9070  -10.4299   21.0397 C   0  0  0  0  0  0
  -24.3610   -9.4216   21.9186 C   0  0  0  0  0  0
  -23.6287   -8.2247   22.0756 C   0  0  0  0  0  0
  -22.4271   -8.0282   21.3543 C   0  0  0  0  0  0
  -21.9909   -9.0257   20.4646 C   0  0  0  0  0  0
  -22.7236  -10.2139   20.3057 C   0  0  0  0  0  0
  -21.6859   -6.0731   22.5277 C   0  0  0  0  0  0
  -21.4011   -6.5633   23.8209 C   0  0  0  0  0  0
  -21.3667   -5.6790   24.9177 C   0  0  0  0  0  0
  -21.6042   -4.3051   24.7228 C   0  0  0  0  0  0
  -21.8824   -3.8140   23.4351 C   0  0  0  0  0  0
  -21.9188   -4.6955   22.3403 C   0  0  0  0  0  0
  -22.7853  -13.5235   21.1849 C   0  0  0  0  0  0
  -22.1660   -4.2132   21.0985 F   0  0  0  0  0  0
  -21.5635   -3.4544   25.7748 F   0  0  0  0  0  0
  -30.0304  -13.3312   20.4360 N   0  0  0  0  0  0
  -26.3019  -12.9375   20.3390 N   0  0  0  0  0  0
  -25.9335  -11.6523   20.5790 N   0  0  0  0  0  0
  -22.0490  -12.8219   22.0394 N   0  0  0  0  0  0
  -25.4285  -15.1910   20.4133 N   0  0  0  0  0  0
  -31.8626  -14.6082   20.0677 O   0  0  0  0  0  0
  -21.6643   -6.8874   21.4237 O   0  0  0  0  0  0
  -22.3543  -14.5546   20.6706 O   0  0  0  0  0  0
  -24.6166  -31.8671   23.2103 C   0  0  0  0  0  0
  -25.9054  -32.4824   23.8399 C   0  0  1  0  0  0
  -27.2270  -27.4182   20.1004 C   0  0  0  0  0  0
  -25.5907  -33.8622   24.2336 N   0  0  0  0  0  0
  -23.4067  -30.4912   21.5507 C   0  0  2  0  0  0
  -24.8544  -28.9616   20.1095 C   0  0  0  0  0  0
  -22.7429  -29.4648   22.4973 C   0  0  0  0  0  0
  -18.0275  -28.1364   22.8492 C   0  0  0  0  0  0
  -24.1488  -36.7308   23.2636 C   0  0  0  0  0  0
  -25.9365  -30.8304   21.3647 C   0  0  0  0  0  0
  -26.0177  -29.4650   20.7091 C   0  0  0  0  0  0
  -27.2123  -28.7021   20.6985 C   0  0  0  0  0  0
  -26.0511  -26.9423   19.4818 C   0  0  0  0  0  0
  -24.8676  -27.7011   19.4895 C   0  0  0  0  0  0
  -23.6157  -29.8278   20.1641 C   0  0  0  0  0  0
  -25.4107  -36.3113   24.0335 C   0  0  1  0  0  0
  -20.5868  -28.3663   23.1302 C   0  0  2  0  0  0
  -20.6752  -26.9396   22.5415 C   0  0  0  0  0  0
  -19.5734  -26.6384   21.5202 C   0  0  0  0  0  0
  -18.1910  -26.7912   22.1617 C   0  0  0  0  0  0
  -19.1526  -28.8825   23.2895 C   0  0  0  0  0  0
  -18.9456  -30.1419   23.8913 C   0  0  0  0  0  0
  -17.6464  -30.6571   24.0557 C   0  0  0  0  0  0
  -25.9035  -34.9477   23.5134 C   0  0  0  0  0  0
  -16.5352  -29.9075   23.6322 C   0  0  0  0  0  0
  -16.7263  -28.6485   23.0355 C   0  0  0  0  0  0
  -26.4485  -31.6596   25.0720 C   0  0  0  0  0  0
  -25.3750  -31.3681   26.1468 C   0  0  0  0  0  0
  -27.0319  -30.3042   24.6088 C   0  0  0  0  0  0
  -27.6058  -32.4313   25.7485 C   0  0  0  0  0  0
  -27.5584  -37.1806   24.8463 C   0  0  0  0  0  0
  -21.4152  -29.3034   22.3710 N   0  0  0  0  0  0
  -26.4295  -37.3795   23.9412 N   0  0  0  0  0  0
  -24.6717  -31.0758   22.1014 N   0  0  0  0  0  0
  -23.4187  -28.8182   23.3020 O   0  0  0  0  0  0
  -28.3433  -26.6073   20.1331 O   0  0  0  0  0  0
  -26.5607  -34.8921   22.4701 O   0  0  0  0  0  0
  -23.5355  -32.1431   23.7488 O   0  0  0  0  0  0
  -31.5779  -19.5694   21.4508 C   0  0  0  0  0  0
  -31.9944  -17.1706   21.3862 C   0  0  0  0  0  0
  -30.1901  -19.3552   21.3084 C   0  0  0  0  0  0
  -30.6126  -16.9054   21.2058 C   0  0  0  0  0  0
  -32.4704  -18.4879   21.4915 C   0  0  0  0  0  0
  -29.7149  -18.0115   21.1821 C   0  0  0  0  0  0
  -29.3034  -20.5378   21.4418 C   0  0  0  0  0  0
  -29.0066  -24.1982   20.5134 C   0  0  0  0  0  0
  -31.5756  -23.8993   22.2423 C   0  0  0  0  0  0
  -30.2014  -22.6218   23.9303 C   0  0  0  0  0  0
  -28.1132  -25.4028   20.9042 C   0  0  0  0  0  0
  -29.1861  -23.0945   21.6023 C   0  0  2  0  0  0
  -30.1452  -23.5870   22.7312 C   0  0  0  0  0  0
  -30.1025  -15.5567   21.0972 N   0  0  0  0  0  0
  -29.6937  -21.7873   21.0742 N   0  0  0  0  0  0
  -28.1315  -20.4106   22.0666 N   0  3  0  0  0  0
  -29.5390  -24.1279   19.4004 O   0  0  0  0  0  0
  -33.7952  -18.7176   21.6564 F   0  0  0  0  0  0
  -28.3853  -17.7628   21.0767 F   0  0  0  0  0  0
  -31.4577  -12.3780   19.1399 H   0  0  0  0  0  0
  -30.2858  -11.3156   19.8586 H   0  0  0  0  0  0
  -29.7333  -11.7625   17.4461 H   0  0  0  0  0  0
  -29.6600  -13.4790   17.7632 H   0  0  0  0  0  0
  -27.8348  -11.3054   18.8428 H   0  0  0  0  0  0
  -27.3623  -12.6143   17.7942 H   0  0  0  0  0  0
  -27.6883  -14.2583   19.5516 H   0  0  0  0  0  0
  -28.6824  -12.0272   21.3911 H   0  0  0  0  0  0
  -28.4701  -13.6918   21.8489 H   0  0  0  0  0  0
  -25.2754   -9.5692   22.4766 H   0  0  0  0  0  0
  -23.9993   -7.4643   22.7482 H   0  0  0  0  0  0
  -21.0841   -8.8782   19.8952 H   0  0  0  0  0  0
  -22.3696  -10.9679   19.6169 H   0  0  0  0  0  0
  -21.2006   -7.6142   23.9706 H   0  0  0  0  0  0
  -21.1486   -6.0527   25.9079 H   0  0  0  0  0  0
  -22.0594   -2.7598   23.2866 H   0  0  0  0  0  0
  -22.4100  -11.9868   22.4757 H   0  0  0  0  0  0
  -21.1113  -13.1247   22.2607 H   0  0  0  0  0  0
  -24.6626  -15.8457   20.5305 H   0  0  0  0  0  0
  -26.2859  -15.6361   20.1099 H   0  0  0  0  0  0
  -26.7123  -32.5543   23.1162 H   0  0  0  0  0  0
  -25.0043  -33.9778   25.0471 H   0  0  0  0  0  0
  -22.6974  -31.3100   21.4125 H   0  0  0  0  0  0
  -23.3750  -35.9644   23.3305 H   0  0  0  0  0  0
  -24.3577  -36.8929   22.2053 H   0  0  0  0  0  0
  -23.7248  -37.6510   23.6655 H   0  0  0  0  0  0
  -26.0492  -31.5985   20.5983 H   0  0  0  0  0  0
  -26.8227  -30.8852   21.9852 H   0  0  0  0  0  0
  -28.1085  -29.0792   21.1720 H   0  0  0  0  0  0
  -26.0440  -25.9735   19.0026 H   0  0  0  0  0  0
  -23.9767  -27.3129   19.0147 H   0  0  0  0  0  0
  -23.7206  -30.6046   19.4048 H   0  0  0  0  0  0
  -22.7398  -29.2470   19.8690 H   0  0  0  0  0  0
  -25.1279  -36.1977   25.0825 H   0  0  0  0  0  0
  -20.9969  -28.3247   24.1422 H   0  0  0  0  0  0
  -20.5653  -26.2267   23.3602 H   0  0  0  0  0  0
  -21.6620  -26.7432   22.1212 H   0  0  0  0  0  0
  -19.6908  -25.6303   21.1209 H   0  0  0  0  0  0
  -19.6674  -27.3203   20.6736 H   0  0  0  0  0  0
  -17.4182  -26.6658   21.4019 H   0  0  0  0  0  0
  -18.0318  -26.0037   22.9002 H   0  0  0  0  0  0
  -19.7941  -30.7204   24.2321 H   0  0  0  0  0  0
  -17.5029  -31.6269   24.5143 H   0  0  0  0  0  0
  -15.5354  -30.2989   23.7628 H   0  0  0  0  0  0
  -15.8661  -28.0803   22.7086 H   0  0  0  0  0  0
  -24.5938  -30.7019   25.7790 H   0  0  0  0  0  0
  -24.8912  -32.2811   26.4940 H   0  0  0  0  0  0
  -25.8095  -30.8837   27.0224 H   0  0  0  0  0  0
  -26.2856  -29.6797   24.1167 H   0  0  0  0  0  0
  -27.4117  -29.7286   25.4537 H   0  0  0  0  0  0
  -27.8679  -30.4349   23.9218 H   0  0  0  0  0  0
  -27.2693  -33.3616   26.2074 H   0  0  0  0  0  0
  -28.3866  -32.6876   25.0311 H   0  0  0  0  0  0
  -28.0730  -31.8432   26.5395 H   0  0  0  0  0  0
  -28.2588  -38.0119   24.7527 H   0  0  0  0  0  0
  -28.1096  -36.2645   24.6268 H   0  0  0  0  0  0
  -27.2294  -37.1426   25.8865 H   0  0  0  0  0  0
  -20.9308  -29.8796   21.6969 H   0  0  0  0  0  0
  -26.0188  -38.2873   24.1429 H   0  0  0  0  0  0
  -31.9782  -20.5639   21.5830 H   0  0  0  0  0  0
  -32.7184  -16.3756   21.4628 H   0  0  0  0  0  0
  -32.1989  -24.2531   23.0644 H   0  0  0  0  0  0
  -31.5904  -24.6826   21.4840 H   0  0  0  0  0  0
  -32.0640  -23.0213   21.8207 H   0  0  0  0  0  0
  -30.7198  -23.0798   24.7741 H   0  0  0  0  0  0
  -30.7375  -21.7031   23.6902 H   0  0  0  0  0  0
  -29.2014  -22.3508   24.2710 H   0  0  0  0  0  0
  -28.2656  -25.6381   21.9566 H   0  0  0  0  0  0
  -27.0810  -25.0641   20.8224 H   0  0  0  0  0  0
  -28.2016  -22.9335   22.0418 H   0  0  0  0  0  0
  -29.7395  -24.5188   23.1264 H   0  0  0  0  0  0
  -29.1328  -15.4249   21.3405 H   0  0  0  0  0  0
  -30.4261  -21.8589   20.3782 H   0  0  0  0  0  0
  -27.8017  -19.4841   22.2975 H   0  0  0  0  0  0
  -27.5220  -21.1956   22.2165 H   0  0  0  0  0  0
  1 25  1  0  0  0
  1 30  2  0  0  0
  1 84  1  0  0  0
  2  3  1  0  0  0
  2 25  1  0  0  0
  2 90  1  0  0  0
  2 91  1  0  0  0
  3  4  1  0  0  0
  3 92  1  0  0  0
  3 93  1  0  0  0
  4  5  1  0  0  0
  4 94  1  0  0  0
  4 95  1  0  0  0
  5  6  1  0  0  0
  5 26  1  0  0  0
  5 96  1  0  0  0
  6 25  1  0  0  0
  6 97  1  0  0  0
  6 98  1  0  0  0
  7  8  2  0  0  0
  7 26  1  0  0  0
  7 29  1  0  0  0
  8  9  1  0  0  0
  8 22  1  0  0  0
  9 10  1  0  0  0
  9 27  2  0  0  0
 10 11  2  0  0  0
 10 15  1  0  0  0
 11 12  1  0  0  0
 11 99  1  0  0  0
 12 13  2  0  0  0
 12100  1  0  0  0
 13 14  1  0  0  0
 13 31  1  0  0  0
 14 15  2  0  0  0
 14101  1  0  0  0
 15102  1  0  0  0
 16 17  2  0  0  0
 16 21  1  0  0  0
 16 31  1  0  0  0
 17 18  1  0  0  0
 17103  1  0  0  0
 18 19  2  0  0  0
 18104  1  0  0  0
 19 20  1  0  0  0
 19 24  1  0  0  0
 20 21  2  0  0  0
 20105  1  0  0  0
 21 23  1  0  0  0
 22 28  1  0  0  0
 22 32  2  0  0  0
 26 27  1  0  0  0
 28106  1  0  0  0
 28107  1  0  0  0
 29108  1  0  0  0
 29109  1  0  0  0
 33 34  1  0  0  0
 33 66  1  0  0  0
 33 70  2  0  0  0
 34 36  1  0  0  0
 34 59  1  0  0  0
 34110  1  0  0  0
 35 44  2  0  0  0
 35 45  1  0  0  0
 35 68  1  0  0  0
 36 56  1  0  0  0
 36111  1  0  0  0
 37 39  1  0  0  0
 37 47  1  0  0  0
 37 66  1  0  0  0
 37112  1  0  0  0
 38 43  2  0  0  0
 38 46  1  0  0  0
 38 47  1  0  0  0
 39 64  1  0  0  0
 39 67  2  0  0  0
 40 52  1  0  0  0
 40 53  2  0  0  0
 40 58  1  0  0  0
 41113  1  0  0  0
 41114  1  0  0  0
 41115  1  0  0  0
 41 48  1  0  0  0
 42 43  1  0  0  0
 42 66  1  0  0  0
 42116  1  0  0  0
 42117  1  0  0  0
 43 44  1  0  0  0
 44118  1  0  0  0
 45 46  2  0  0  0
 45119  1  0  0  0
 46120  1  0  0  0
 47121  1  0  0  0
 47122  1  0  0  0
 48 56  1  0  0  0
 48 65  1  0  0  0
 48123  1  0  0  0
 49 50  1  0  0  0
 49 53  1  0  0  0
 49 64  1  0  0  0
 49124  1  0  0  0
 50 51  1  0  0  0
 50125  1  0  0  0
 50126  1  0  0  0
 51 52  1  0  0  0
 51127  1  0  0  0
 51128  1  0  0  0
 52129  1  0  0  0
 52130  1  0  0  0
 53 54  1  0  0  0
 54 55  2  0  0  0
 54131  1  0  0  0
 55 57  1  0  0  0
 55132  1  0  0  0
 56 69  2  0  0  0
 57 58  2  0  0  0
 57133  1  0  0  0
 58134  1  0  0  0
 59 60  1  0  0  0
 59 61  1  0  0  0
 59 62  1  0  0  0
 60135  1  0  0  0
 60136  1  0  0  0
 60137  1  0  0  0
 61138  1  0  0  0
 61139  1  0  0  0
 61140  1  0  0  0
 62141  1  0  0  0
 62142  1  0  0  0
 62143  1  0  0  0
 63 65  1  0  0  0
 63144  1  0  0  0
 63145  1  0  0  0
 63146  1  0  0  0
 64147  1  0  0  0
 65148  1  0  0  0
 68 81  1  0  0  0
 71 73  2  0  0  0
 71 75  1  0  0  0
 71149  1  0  0  0
 72 74  1  0  0  0
 72 75  2  0  0  0
 72150  1  0  0  0
 73 76  1  0  0  0
 73 77  1  0  0  0
 74 76  2  0  0  0
 74 84  1  0  0  0
 75 88  1  0  0  0
 76 89  1  0  0  0
 77 85  1  0  0  0
 77 86  2  0  0  0
 78 81  1  0  0  0
 78 82  1  0  0  0
 78 87  2  0  0  0
 79151  1  0  0  0
 79152  1  0  0  0
 79153  1  0  0  0
 79 83  1  0  0  0
 80 83  1  0  0  0
 80154  1  0  0  0
 80155  1  0  0  0
 80156  1  0  0  0
 81157  1  0  0  0
 81158  1  0  0  0
 82 83  1  0  0  0
 82 85  1  0  0  0
 82159  1  0  0  0
 83160  1  0  0  0
 84161  1  0  0  0
 85162  1  0  0  0
 86163  1  0  0  0
 86164  1  0  0  0
M  CHG  1  86   1
M  ISO  4   1 100  68 101  81 101  84 100
M  END
> <chiral flag>
0

> <version>
0

> <s_m_source_file>
/data/baiqing/PycharmProjects/Reinvent-master-3.2/result/LINK_invent/BTK/process_docking_weight1_custom_product_contain_oxygen_bond_distance_aromatic_linkinvent_7_9_3/rearranged_h_0171.sdf

> <i_m_source_file_index>
89

> <r_mmod_Potential_Energy-OPLS-2005>
-329.766662597656

> <r_mmod_Stretch_Energy-OPLS-2005>
48.076602935791

> <r_mmod_Bend_Energy-OPLS-2005>
102.554290771484

> <r_mmod_Torsional_Energy-OPLS-2005>
252.751205444336

> <r_mmod_Improper_Torsional_Energy-OPLS-2005>
5.31609964370728

> <r_mmod_Van_der_Waal_Energy-OPLS-2005>
161.891479492188

> <r_mmod_Electrostatic_Energy-OPLS-2005>
-471.908111572266

> <r_mmod_Solvation_Energy-OPLS-2005>
-447.115631103516

> <b_mmod_Minimization_Converged-OPLS-2005>
0

> <r_mmod_RMS_Derivative-OPLS-2005>
1.6716285943985

$$$$
89
                    3D
 Structure written by MMmdl.
161169  0  0  1  0            999 V2000
  -30.7041  -14.4264   20.6061 C   0  0  0  0  0  0
  -30.4244  -12.2890   19.4098 C   0  0  0  0  0  0
  -29.4909  -12.5030   18.2007 C   0  0  0  0  0  0
  -28.0131  -12.3623   18.6156 C   0  0  0  0  0  0
  -27.6651  -13.1951   19.8777 C   0  0  2  0  0  0
  -28.7029  -12.9413   20.9935 C   0  0  0  0  0  0
  -25.2622  -13.8145   20.5665 C   0  0  0  0  0  0
  -24.1859  -13.0442   20.9165 C   0  0  0  0  0  0
  -24.6394  -11.6902   20.8739 C   0  0  0  0  0  0
  -23.9056  -10.4292   21.0411 C   0  0  0  0  0  0
  -24.3607   -9.4206   21.9187 C   0  0  0  0  0  0
  -23.6288   -8.2241   22.0758 C   0  0  0  0  0  0
  -22.4272   -8.0280   21.3544 C   0  0  0  0  0  0
  -21.9901   -9.0255   20.4646 C   0  0  0  0  0  0
  -22.7230  -10.2135   20.3057 C   0  0  0  0  0  0
  -21.6852   -6.0736   22.5282 C   0  0  0  0  0  0
  -21.4009   -6.5640   23.8216 C   0  0  0  0  0  0
  -21.3657   -5.6793   24.9180 C   0  0  0  0  0  0
  -21.6042   -4.3055   24.7228 C   0  0  0  0  0  0
  -21.8823   -3.8146   23.4350 C   0  0  0  0  0  0
  -21.9193   -4.6963   22.3405 C   0  0  0  0  0  0
  -22.7886  -13.5253   21.1834 C   0  0  0  0  0  0
  -22.1664   -4.2151   21.0982 F   0  0  0  0  0  0
  -21.5627   -3.4539   25.7740 F   0  0  0  0  0  0
  -30.0404  -13.2504   20.4539 N   0  0  0  0  0  0
  -26.3036  -12.9286   20.3361 N   0  0  0  0  0  0
  -25.9305  -11.6462   20.5753 N   0  0  0  0  0  0
  -22.0515  -12.8249   22.0387 N   0  0  0  0  0  0
  -25.4382  -15.1852   20.4056 N   0  0  0  0  0  0
  -31.8066  -14.6380   20.0926 O   0  0  0  0  0  0
  -21.6637   -6.8877   21.4244 O   0  0  0  0  0  0
  -22.3579  -14.5562   20.6684 O   0  0  0  0  0  0
  -24.6120  -31.8685   23.2102 C   0  0  0  0  0  0
  -25.9010  -32.4823   23.8399 C   0  0  1  0  0  0
  -27.2334  -27.4563   20.0946 C   0  0  0  0  0  0
  -25.5862  -33.8623   24.2326 N   0  0  0  0  0  0
  -23.4005  -30.4935   21.5489 C   0  0  2  0  0  0
  -24.8469  -28.9595   20.1151 C   0  0  0  0  0  0
  -22.7385  -29.4679   22.4974 C   0  0  0  0  0  0
  -18.0271  -28.1401   22.8509 C   0  0  0  0  0  0
  -24.1479  -36.7313   23.2641 C   0  0  0  0  0  0
  -25.9278  -30.8408   21.3605 C   0  0  0  0  0  0
  -26.0069  -29.4770   20.7079 C   0  0  0  0  0  0
  -27.2074  -28.7348   20.6910 C   0  0  0  0  0  0
  -26.0609  -26.9428   19.5003 C   0  0  0  0  0  0
  -24.8679  -27.6912   19.5063 C   0  0  0  0  0  0
  -23.6082  -29.8235   20.1640 C   0  0  0  0  0  0
  -25.4101  -36.3111   24.0340 C   0  0  1  0  0  0
  -20.5870  -28.3666   23.1322 C   0  0  2  0  0  0
  -20.6773  -26.9407   22.5415 C   0  0  0  0  0  0
  -19.5751  -26.6415   21.5214 C   0  0  0  0  0  0
  -18.1923  -26.7955   22.1624 C   0  0  0  0  0  0
  -19.1527  -28.8856   23.2922 C   0  0  0  0  0  0
  -18.9453  -30.1468   23.8928 C   0  0  0  0  0  0
  -17.6457  -30.6607   24.0584 C   0  0  0  0  0  0
  -25.9022  -34.9478   23.5131 C   0  0  0  0  0  0
  -16.5346  -29.9114   23.6343 C   0  0  0  0  0  0
  -16.7265  -28.6540   23.0349 C   0  0  0  0  0  0
  -26.4456  -31.6607   25.0718 C   0  0  0  0  0  0
  -25.3732  -31.3716   26.1478 C   0  0  0  0  0  0
  -27.0271  -30.3041   24.6084 C   0  0  0  0  0  0
  -27.6031  -32.4328   25.7477 C   0  0  0  0  0  0
  -27.5581  -37.1816   24.8466 C   0  0  0  0  0  0
  -21.4124  -29.3042   22.3715 N   0  0  0  0  0  0
  -26.4293  -37.3786   23.9415 N   0  0  0  0  0  0
  -24.6650  -31.0812   22.0977 N   0  0  0  0  0  0
  -23.4164  -28.8215   23.3001 O   0  0  0  0  0  0
  -28.3851  -26.7134   20.0810 O   0  0  0  0  0  0
  -26.5587  -34.8928   22.4695 O   0  0  0  0  0  0
  -23.5312  -32.1425   23.7511 O   0  0  0  0  0  0
  -29.2541  -17.5096   22.1288 C   0  0  0  0  0  0
  -31.1874  -17.4926   20.6608 C   0  0  0  0  0  0
  -29.3122  -18.9243   22.2420 C   0  0  0  0  0  0
  -30.1813  -16.7796   21.3516 C   0  0  0  0  0  0
  -30.3299  -19.6220   21.5257 C   0  0  0  0  0  0
  -31.2569  -18.8928   20.7524 C   0  0  0  0  0  0
  -28.3516  -19.6263   23.1373 C   0  0  0  0  0  0
  -29.0321  -24.3645   20.3793 C   0  0  0  0  0  0
  -29.8126  -23.4067   23.7458 C   0  0  0  0  0  0
  -28.3416  -25.5987   20.9792 C   0  0  0  0  0  0
  -29.5332  -21.8563   20.8924 C   0  0  0  0  0  0
  -29.6052  -23.3301   21.3743 C   0  0  2  0  0  0
  -27.3806  -19.0948   23.7583 N   0  0  0  0  0  0
  -30.0287  -15.3576   21.3074 N   0  0  0  0  0  0
  -30.5281  -21.0150   21.5683 N   0  0  0  0  0  0
  -29.1292  -24.2169   19.1542 O   0  0  0  0  0  0
  -28.9358  -23.4531   22.6282 O   0  0  0  0  0  0
  -32.2377  -19.5568   20.0912 F   0  0  0  0  0  0
  -31.4675  -12.3951   19.1057 H   0  0  0  0  0  0
  -30.3313  -11.2704   19.7892 H   0  0  0  0  0  0
  -29.7256  -11.7823   17.4158 H   0  0  0  0  0  0
  -29.6613  -13.4909   17.7690 H   0  0  0  0  0  0
  -27.8244  -11.3050   18.8079 H   0  0  0  0  0  0
  -27.3597  -12.6397   17.7872 H   0  0  0  0  0  0
  -27.7219  -14.2464   19.5955 H   0  0  0  0  0  0
  -28.6740  -11.8949   21.3015 H   0  0  0  0  0  0
  -28.4551  -13.5055   21.8927 H   0  0  0  0  0  0
  -25.2754   -9.5685   22.4758 H   0  0  0  0  0  0
  -24.0003   -7.4630   22.7472 H   0  0  0  0  0  0
  -21.0835   -8.8767   19.8949 H   0  0  0  0  0  0
  -22.3692  -10.9669   19.6160 H   0  0  0  0  0  0
  -21.1999   -7.6149   23.9720 H   0  0  0  0  0  0
  -21.1473   -6.0522   25.9081 H   0  0  0  0  0  0
  -22.0601   -2.7611   23.2849 H   0  0  0  0  0  0
  -22.4118  -11.9905   22.4774 H   0  0  0  0  0  0
  -21.1131  -13.1277   22.2580 H   0  0  0  0  0  0
  -24.6743  -15.8435   20.5098 H   0  0  0  0  0  0
  -26.2911  -15.6171   20.0730 H   0  0  0  0  0  0
  -26.7074  -32.5545   23.1161 H   0  0  0  0  0  0
  -25.0024  -33.9777   25.0477 H   0  0  0  0  0  0
  -22.6916  -31.3116   21.4101 H   0  0  0  0  0  0
  -23.3735  -35.9650   23.3311 H   0  0  0  0  0  0
  -24.3576  -36.8903   22.2051 H   0  0  0  0  0  0
  -23.7238  -37.6527   23.6640 H   0  0  0  0  0  0
  -26.0390  -31.6061   20.5909 H   0  0  0  0  0  0
  -26.8173  -30.8929   21.9777 H   0  0  0  0  0  0
  -28.1067  -29.1345   21.1397 H   0  0  0  0  0  0
  -26.0741  -25.9700   19.0290 H   0  0  0  0  0  0
  -23.9759  -27.2908   19.0423 H   0  0  0  0  0  0
  -23.7120  -30.5968   19.4016 H   0  0  0  0  0  0
  -22.7336  -29.2388   19.8725 H   0  0  0  0  0  0
  -25.1285  -36.1975   25.0832 H   0  0  0  0  0  0
  -20.9991  -28.3237   24.1434 H   0  0  0  0  0  0
  -20.5688  -26.2267   23.3601 H   0  0  0  0  0  0
  -21.6640  -26.7473   22.1196 H   0  0  0  0  0  0
  -19.6891  -25.6329   21.1227 H   0  0  0  0  0  0
  -19.6691  -27.3256   20.6770 H   0  0  0  0  0  0
  -17.4197  -26.6720   21.4018 H   0  0  0  0  0  0
  -18.0312  -26.0109   22.9035 H   0  0  0  0  0  0
  -19.7925  -30.7300   24.2288 H   0  0  0  0  0  0
  -17.5006  -31.6283   24.5193 H   0  0  0  0  0  0
  -15.5344  -30.3027   23.7662 H   0  0  0  0  0  0
  -15.8667  -28.0879   22.7028 H   0  0  0  0  0  0
  -24.5899  -30.7057   25.7835 H   0  0  0  0  0  0
  -24.8941  -32.2879   26.4939 H   0  0  0  0  0  0
  -25.8105  -30.8894   27.0229 H   0  0  0  0  0  0
  -26.2805  -29.6823   24.1124 H   0  0  0  0  0  0
  -27.4017  -29.7250   25.4538 H   0  0  0  0  0  0
  -27.8653  -30.4354   23.9233 H   0  0  0  0  0  0
  -27.2642  -33.3617   26.2082 H   0  0  0  0  0  0
  -28.3829  -32.6907   25.0298 H   0  0  0  0  0  0
  -28.0711  -31.8439   26.5379 H   0  0  0  0  0  0
  -28.2614  -38.0102   24.7514 H   0  0  0  0  0  0
  -28.1064  -36.2637   24.6294 H   0  0  0  0  0  0
  -27.2304  -37.1466   25.8870 H   0  0  0  0  0  0
  -20.9257  -29.8741   21.6941 H   0  0  0  0  0  0
  -26.0178  -38.2858   24.1423 H   0  0  0  0  0  0
  -28.4916  -16.9643   22.6667 H   0  0  0  0  0  0
  -31.9264  -17.0029   20.0476 H   0  0  0  0  0  0
  -28.5169  -20.6988   23.2665 H   0  0  0  0  0  0
  -30.3541  -22.4632   23.8062 H   0  0  0  0  0  0
  -29.2373  -23.5174   24.6643 H   0  0  0  0  0  0
  -30.5400  -24.2196   23.7090 H   0  0  0  0  0  0
  -28.8373  -25.8814   21.9079 H   0  0  0  0  0  0
  -27.3170  -25.3245   21.2334 H   0  0  0  0  0  0
  -29.7438  -21.8101   19.8219 H   0  0  0  0  0  0
  -28.5212  -21.4702   21.0192 H   0  0  0  0  0  0
  -30.6521  -23.6160   21.4837 H   0  0  0  0  0  0
  -27.3046  -18.1003   23.5797 H   0  0  0  0  0  0
  -29.1986  -14.9951   21.7502 H   0  0  0  0  0  0
  -31.4608  -21.2218   21.2187 H   0  0  0  0  0  0
  1 25  1  0  0  0
  1 30  2  0  0  0
  1 84  1  0  0  0
  2  3  1  0  0  0
  2 25  1  0  0  0
  2 89  1  0  0  0
  2 90  1  0  0  0
  3  4  1  0  0  0
  3 91  1  0  0  0
  3 92  1  0  0  0
  4  5  1  0  0  0
  4 93  1  0  0  0
  4 94  1  0  0  0
  5  6  1  0  0  0
  5 26  1  0  0  0
  5 95  1  0  0  0
  6 25  1  0  0  0
  6 96  1  0  0  0
  6 97  1  0  0  0
  7  8  2  0  0  0
  7 26  1  0  0  0
  7 29  1  0  0  0
  8  9  1  0  0  0
  8 22  1  0  0  0
  9 10  1  0  0  0
  9 27  2  0  0  0
 10 11  2  0  0  0
 10 15  1  0  0  0
 11 12  1  0  0  0
 11 98  1  0  0  0
 12 13  2  0  0  0
 12 99  1  0  0  0
 13 14  1  0  0  0
 13 31  1  0  0  0
 14 15  2  0  0  0
 14100  1  0  0  0
 15101  1  0  0  0
 16 17  2  0  0  0
 16 21  1  0  0  0
 16 31  1  0  0  0
 17 18  1  0  0  0
 17102  1  0  0  0
 18 19  2  0  0  0
 18103  1  0  0  0
 19 20  1  0  0  0
 19 24  1  0  0  0
 20 21  2  0  0  0
 20104  1  0  0  0
 21 23  1  0  0  0
 22 28  1  0  0  0
 22 32  2  0  0  0
 26 27  1  0  0  0
 28105  1  0  0  0
 28106  1  0  0  0
 29107  1  0  0  0
 29108  1  0  0  0
 33 34  1  0  0  0
 33 66  1  0  0  0
 33 70  2  0  0  0
 34 36  1  0  0  0
 34 59  1  0  0  0
 34109  1  0  0  0
 35 44  2  0  0  0
 35 45  1  0  0  0
 35 68  1  0  0  0
 36 56  1  0  0  0
 36110  1  0  0  0
 37 39  1  0  0  0
 37 47  1  0  0  0
 37 66  1  0  0  0
 37111  1  0  0  0
 38 43  2  0  0  0
 38 46  1  0  0  0
 38 47  1  0  0  0
 39 64  1  0  0  0
 39 67  2  0  0  0
 40 52  1  0  0  0
 40 53  2  0  0  0
 40 58  1  0  0  0
 41112  1  0  0  0
 41113  1  0  0  0
 41114  1  0  0  0
 41 48  1  0  0  0
 42 43  1  0  0  0
 42 66  1  0  0  0
 42115  1  0  0  0
 42116  1  0  0  0
 43 44  1  0  0  0
 44117  1  0  0  0
 45 46  2  0  0  0
 45118  1  0  0  0
 46119  1  0  0  0
 47120  1  0  0  0
 47121  1  0  0  0
 48 56  1  0  0  0
 48 65  1  0  0  0
 48122  1  0  0  0
 49 50  1  0  0  0
 49 53  1  0  0  0
 49 64  1  0  0  0
 49123  1  0  0  0
 50 51  1  0  0  0
 50124  1  0  0  0
 50125  1  0  0  0
 51 52  1  0  0  0
 51126  1  0  0  0
 51127  1  0  0  0
 52128  1  0  0  0
 52129  1  0  0  0
 53 54  1  0  0  0
 54 55  2  0  0  0
 54130  1  0  0  0
 55 57  1  0  0  0
 55131  1  0  0  0
 56 69  2  0  0  0
 57 58  2  0  0  0
 57132  1  0  0  0
 58133  1  0  0  0
 59 60  1  0  0  0
 59 61  1  0  0  0
 59 62  1  0  0  0
 60134  1  0  0  0
 60135  1  0  0  0
 60136  1  0  0  0
 61137  1  0  0  0
 61138  1  0  0  0
 61139  1  0  0  0
 62140  1  0  0  0
 62141  1  0  0  0
 62142  1  0  0  0
 63 65  1  0  0  0
 63143  1  0  0  0
 63144  1  0  0  0
 63145  1  0  0  0
 64146  1  0  0  0
 65147  1  0  0  0
 68 80  1  0  0  0
 71 73  2  0  0  0
 71 74  1  0  0  0
 71148  1  0  0  0
 72 74  2  0  0  0
 72 76  1  0  0  0
 72149  1  0  0  0
 73 75  1  0  0  0
 73 77  1  0  0  0
 74 84  1  0  0  0
 75 76  2  0  0  0
 75 85  1  0  0  0
 76 88  1  0  0  0
 77 83  2  0  0  0
 77150  1  0  0  0
 78 80  1  0  0  0
 78 82  1  0  0  0
 78 86  2  0  0  0
 79 87  1  0  0  0
 79151  1  0  0  0
 79152  1  0  0  0
 79153  1  0  0  0
 80154  1  0  0  0
 80155  1  0  0  0
 81 85  1  0  0  0
 81156  1  0  0  0
 81157  1  0  0  0
 81 82  1  0  0  0
 82 87  1  0  0  0
 82158  1  0  0  0
 83159  1  0  0  0
 84160  1  0  0  0
 85161  1  0  0  0
M  ISO  4   1 100  68 101  80 101  84 100
M  END
> <chiral flag>
0

> <version>
0

> <s_m_source_file>
/data/baiqing/PycharmProjects/Reinvent-master-3.2/result/LINK_invent/BTK/process_docking_weight1_custom_product_contain_oxygen_bond_distance_aromatic_linkinvent_7_9_3/rearranged_h_0171.sdf

> <i_m_source_file_index>
90

> <r_mmod_Potential_Energy-OPLS-2005>
105.017059326172

> <r_mmod_Stretch_Energy-OPLS-2005>
38.1740188598633

> <r_mmod_Bend_Energy-OPLS-2005>
103.720893859863

> <r_mmod_Torsional_Energy-OPLS-2005>
264.122039794922

> <r_mmod_Improper_Torsional_Energy-OPLS-2005>
8.19166660308838

> <r_mmod_Van_der_Waal_Energy-OPLS-2005>
160.968948364258

> <r_mmod_Electrostatic_Energy-OPLS-2005>
-239.277648925781

> <r_mmod_Solvation_Energy-OPLS-2005>
-239.91780090332

> <b_mmod_Minimization_Converged-OPLS-2005>
0

> <r_mmod_RMS_Derivative-OPLS-2005>
2.19927549362183

$$$$
90
                    3D
 Structure written by MMmdl.
152160  0  0  1  0            999 V2000
  -30.6943  -14.5368   20.5201 C   0  0  0  0  0  0
  -30.4176  -12.3311   19.4412 C   0  0  0  0  0  0
  -29.4968  -12.4911   18.2139 C   0  0  0  0  0  0
  -28.0191  -12.3470   18.6284 C   0  0  0  0  0  0
  -27.6540  -13.2119   19.8650 C   0  0  2  0  0  0
  -28.6980  -13.0555   20.9928 C   0  0  0  0  0  0
  -25.2571  -13.8167   20.5671 C   0  0  0  0  0  0
  -24.1835  -13.0441   20.9199 C   0  0  0  0  0  0
  -24.6391  -11.6907   20.8758 C   0  0  0  0  0  0
  -23.9065  -10.4289   21.0417 C   0  0  0  0  0  0
  -24.3620   -9.4205   21.9194 C   0  0  0  0  0  0
  -23.6299   -8.2239   22.0754 C   0  0  0  0  0  0
  -22.4279   -8.0283   21.3547 C   0  0  0  0  0  0
  -21.9914   -9.0258   20.4651 C   0  0  0  0  0  0
  -22.7235  -10.2140   20.3069 C   0  0  0  0  0  0
  -21.6854   -6.0737   22.5279 C   0  0  0  0  0  0
  -21.4010   -6.5641   23.8211 C   0  0  0  0  0  0
  -21.3658   -5.6796   24.9174 C   0  0  0  0  0  0
  -21.6047   -4.3059   24.7224 C   0  0  0  0  0  0
  -21.8823   -3.8148   23.4344 C   0  0  0  0  0  0
  -21.9193   -4.6965   22.3401 C   0  0  0  0  0  0
  -22.7860  -13.5244   21.1853 C   0  0  0  0  0  0
  -22.1667   -4.2149   21.0980 F   0  0  0  0  0  0
  -21.5631   -3.4544   25.7739 F   0  0  0  0  0  0
  -30.0180  -13.3555   20.4210 N   0  0  0  0  0  0
  -26.2992  -12.9338   20.3338 N   0  0  0  0  0  0
  -25.9320  -11.6498   20.5787 N   0  0  0  0  0  0
  -22.0501  -12.8233   22.0405 N   0  0  0  0  0  0
  -25.4307  -15.1876   20.4017 N   0  0  0  0  0  0
  -31.8674  -14.6233   20.1481 O   0  0  0  0  0  0
  -21.6643   -6.8879   21.4240 O   0  0  0  0  0  0
  -22.3546  -14.5549   20.6698 O   0  0  0  0  0  0
  -24.6178  -31.8656   23.2091 C   0  0  0  0  0  0
  -25.9055  -32.4811   23.8397 C   0  0  1  0  0  0
  -27.2283  -27.4074   20.1052 C   0  0  0  0  0  0
  -25.5895  -33.8611   24.2321 N   0  0  0  0  0  0
  -23.4085  -30.4905   21.5477 C   0  0  2  0  0  0
  -24.8575  -28.9595   20.1093 C   0  0  0  0  0  0
  -22.7430  -29.4643   22.4943 C   0  0  0  0  0  0
  -18.0281  -28.1373   22.8494 C   0  0  0  0  0  0
  -24.1490  -36.7326   23.2638 C   0  0  0  0  0  0
  -25.9409  -30.8256   21.3679 C   0  0  0  0  0  0
  -26.0203  -29.4593   20.7115 C   0  0  0  0  0  0
  -27.2126  -28.6910   20.7070 C   0  0  0  0  0  0
  -26.0527  -26.9389   19.4808 C   0  0  0  0  0  0
  -24.8704  -27.7006   19.4864 C   0  0  0  0  0  0
  -23.6204  -29.8282   20.1610 C   0  0  0  0  0  0
  -25.4110  -36.3108   24.0333 C   0  0  1  0  0  0
  -20.5878  -28.3670   23.1297 C   0  0  2  0  0  0
  -20.6769  -26.9394   22.5417 C   0  0  0  0  0  0
  -19.5748  -26.6386   21.5217 C   0  0  0  0  0  0
  -18.1926  -26.7919   22.1632 C   0  0  0  0  0  0
  -19.1538  -28.8838   23.2890 C   0  0  0  0  0  0
  -18.9456  -30.1451   23.8890 C   0  0  0  0  0  0
  -17.6457  -30.6580   24.0561 C   0  0  0  0  0  0
  -25.9033  -34.9469   23.5127 C   0  0  0  0  0  0
  -16.5347  -29.9077   23.6333 C   0  0  0  0  0  0
  -16.7271  -28.6497   23.0349 C   0  0  0  0  0  0
  -26.4480  -31.6598   25.0732 C   0  0  0  0  0  0
  -25.3751  -31.3696   26.1484 C   0  0  0  0  0  0
  -27.0307  -30.3035   24.6116 C   0  0  0  0  0  0
  -27.6052  -32.4324   25.7492 C   0  0  0  0  0  0
  -27.5578  -37.1818   24.8461 C   0  0  0  0  0  0
  -21.4152  -29.3031   22.3688 N   0  0  0  0  0  0
  -26.4297  -37.3792   23.9398 N   0  0  0  0  0  0
  -24.6733  -31.0755   22.0992 N   0  0  0  0  0  0
  -23.4191  -28.8177   23.2990 O   0  0  0  0  0  0
  -28.3381  -26.5814   20.1388 O   0  0  0  0  0  0
  -26.5594  -34.8922   22.4689 O   0  0  0  0  0  0
  -23.5361  -32.1408   23.7476 O   0  0  0  0  0  0
  -28.0108  -17.6888   21.5711 C   0  0  0  0  0  0
  -27.2917  -20.0137   21.3493 C   0  0  0  0  0  0
  -29.2869  -18.0054   21.0508 C   0  0  0  0  0  0
  -28.5670  -20.3913   20.8650 C   0  0  0  0  0  0
  -27.0223  -18.6800   21.7043 C   0  0  0  0  0  0
  -29.5454  -19.3710   20.6922 C   0  0  0  0  0  0
  -28.1169  -25.3210   20.6808 C   0  0  0  0  0  0
  -30.3542  -16.9238   20.9457 C   0  0  0  0  0  0
  -28.7379  -24.1659   20.3222 C   0  0  0  0  0  0
  -28.3427  -22.9033   20.9922 C   0  0  0  0  0  0
  -28.8776  -21.7556   20.4931 N   0  0  0  0  0  0
  -29.9446  -15.6273   20.8384 N   0  0  0  0  0  0
  -31.5424  -17.2636   20.9512 O   0  0  0  0  0  0
  -27.5782  -22.8815   21.9608 O   0  0  0  0  0  0
  -29.6882  -24.1842   19.3730 O   0  0  0  0  0  0
  -25.8003  -18.3503   22.1836 F   0  0  0  0  0  0
  -30.7420  -19.7393   20.1727 F   0  0  0  0  0  0
  -31.4634  -12.4161   19.1423 H   0  0  0  0  0  0
  -30.3137  -11.3349   19.8742 H   0  0  0  0  0  0
  -29.7438  -11.7493   17.4527 H   0  0  0  0  0  0
  -29.6600  -13.4668   17.7525 H   0  0  0  0  0  0
  -27.8426  -11.2935   18.8490 H   0  0  0  0  0  0
  -27.3665  -12.5956   17.7904 H   0  0  0  0  0  0
  -27.6790  -14.2495   19.5325 H   0  0  0  0  0  0
  -28.6857  -12.0390   21.3895 H   0  0  0  0  0  0
  -28.4653  -13.7072   21.8366 H   0  0  0  0  0  0
  -25.2767   -9.5677   22.4764 H   0  0  0  0  0  0
  -24.0006   -7.4626   22.7469 H   0  0  0  0  0  0
  -21.0846   -8.8783   19.8958 H   0  0  0  0  0  0
  -22.3700  -10.9686   19.6182 H   0  0  0  0  0  0
  -21.2004   -7.6148   23.9711 H   0  0  0  0  0  0
  -21.1477   -6.0529   25.9077 H   0  0  0  0  0  0
  -22.0602   -2.7609   23.2848 H   0  0  0  0  0  0
  -22.4123  -11.9897   22.4789 H   0  0  0  0  0  0
  -21.1121  -13.1266   22.2620 H   0  0  0  0  0  0
  -24.6601  -15.8392   20.4999 H   0  0  0  0  0  0
  -26.2564  -15.6133   20.0041 H   0  0  0  0  0  0
  -26.7130  -32.5523   23.1161 H   0  0  0  0  0  0
  -25.0035  -33.9771   25.0456 H   0  0  0  0  0  0
  -22.6973  -31.3069   21.4086 H   0  0  0  0  0  0
  -23.3738  -35.9675   23.3312 H   0  0  0  0  0  0
  -24.3586  -36.8933   22.2052 H   0  0  0  0  0  0
  -23.7264  -37.6539   23.6652 H   0  0  0  0  0  0
  -26.0592  -31.5930   20.6016 H   0  0  0  0  0  0
  -26.8265  -30.8773   21.9891 H   0  0  0  0  0  0
  -28.1068  -29.0630   21.1862 H   0  0  0  0  0  0
  -26.0486  -25.9694   19.0032 H   0  0  0  0  0  0
  -23.9803  -27.3125   19.0110 H   0  0  0  0  0  0
  -23.7304  -30.6053   19.4037 H   0  0  0  0  0  0
  -22.7442  -29.2496   19.8627 H   0  0  0  0  0  0
  -25.1292  -36.1970   25.0829 H   0  0  0  0  0  0
  -20.9978  -28.3248   24.1415 H   0  0  0  0  0  0
  -20.5676  -26.2274   23.3612 H   0  0  0  0  0  0
  -21.6634  -26.7426   22.1203 H   0  0  0  0  0  0
  -19.6894  -25.6298   21.1238 H   0  0  0  0  0  0
  -19.6704  -27.3213   20.6757 H   0  0  0  0  0  0
  -17.4188  -26.6673   21.4044 H   0  0  0  0  0  0
  -18.0313  -26.0054   22.9020 H   0  0  0  0  0  0
  -19.7930  -30.7276   24.2239 H   0  0  0  0  0  0
  -17.5008  -31.6268   24.5144 H   0  0  0  0  0  0
  -15.5346  -30.2983   23.7650 H   0  0  0  0  0  0
  -15.8666  -28.0834   22.7046 H   0  0  0  0  0  0
  -24.5926  -30.7037   25.7827 H   0  0  0  0  0  0
  -24.8941  -32.2842   26.4960 H   0  0  0  0  0  0
  -25.8122  -30.8849   27.0224 H   0  0  0  0  0  0
  -26.2848  -29.6802   24.1166 H   0  0  0  0  0  0
  -27.4061  -29.7272   25.4582 H   0  0  0  0  0  0
  -27.8698  -30.4346   23.9281 H   0  0  0  0  0  0
  -27.2664  -33.3614   26.2097 H   0  0  0  0  0  0
  -28.3846  -32.6908   25.0308 H   0  0  0  0  0  0
  -28.0738  -31.8433   26.5384 H   0  0  0  0  0  0
  -28.2606  -38.0102   24.7493 H   0  0  0  0  0  0
  -28.1064  -36.2635   24.6308 H   0  0  0  0  0  0
  -27.2294  -37.1498   25.8862 H   0  0  0  0  0  0
  -20.9314  -29.8713   21.6882 H   0  0  0  0  0  0
  -26.0185  -38.2873   24.1381 H   0  0  0  0  0  0
  -27.7683  -16.6833   21.8814 H   0  0  0  0  0  0
  -26.4943  -20.7329   21.4527 H   0  0  0  0  0  0
  -27.3546  -25.3486   21.4510 H   0  0  0  0  0  0
  -29.6033  -21.8399   19.7997 H   0  0  0  0  0  0
  -28.9602  -15.4643   20.9514 H   0  0  0  0  0  0
  -30.1117  -23.3384   19.3647 H   0  0  0  0  0  0
  1 25  1  0  0  0
  1 30  2  0  0  0
  1 82  1  0  0  0
  2  3  1  0  0  0
  2 25  1  0  0  0
  2 88  1  0  0  0
  2 89  1  0  0  0
  3  4  1  0  0  0
  3 90  1  0  0  0
  3 91  1  0  0  0
  4  5  1  0  0  0
  4 92  1  0  0  0
  4 93  1  0  0  0
  5  6  1  0  0  0
  5 26  1  0  0  0
  5 94  1  0  0  0
  6 25  1  0  0  0
  6 95  1  0  0  0
  6 96  1  0  0  0
  7  8  2  0  0  0
  7 26  1  0  0  0
  7 29  1  0  0  0
  8  9  1  0  0  0
  8 22  1  0  0  0
  9 10  1  0  0  0
  9 27  2  0  0  0
 10 11  2  0  0  0
 10 15  1  0  0  0
 11 12  1  0  0  0
 11 97  1  0  0  0
 12 13  2  0  0  0
 12 98  1  0  0  0
 13 14  1  0  0  0
 13 31  1  0  0  0
 14 15  2  0  0  0
 14 99  1  0  0  0
 15100  1  0  0  0
 16 17  2  0  0  0
 16 21  1  0  0  0
 16 31  1  0  0  0
 17 18  1  0  0  0
 17101  1  0  0  0
 18 19  2  0  0  0
 18102  1  0  0  0
 19 20  1  0  0  0
 19 24  1  0  0  0
 20 21  2  0  0  0
 20103  1  0  0  0
 21 23  1  0  0  0
 22 28  1  0  0  0
 22 32  2  0  0  0
 26 27  1  0  0  0
 28104  1  0  0  0
 28105  1  0  0  0
 29106  1  0  0  0
 29107  1  0  0  0
 33 34  1  0  0  0
 33 66  1  0  0  0
 33 70  2  0  0  0
 34 36  1  0  0  0
 34 59  1  0  0  0
 34108  1  0  0  0
 35 44  2  0  0  0
 35 45  1  0  0  0
 35 68  1  0  0  0
 36 56  1  0  0  0
 36109  1  0  0  0
 37 39  1  0  0  0
 37 47  1  0  0  0
 37 66  1  0  0  0
 37110  1  0  0  0
 38 43  2  0  0  0
 38 46  1  0  0  0
 38 47  1  0  0  0
 39 64  1  0  0  0
 39 67  2  0  0  0
 40 52  1  0  0  0
 40 53  2  0  0  0
 40 58  1  0  0  0
 41111  1  0  0  0
 41112  1  0  0  0
 41113  1  0  0  0
 41 48  1  0  0  0
 42 43  1  0  0  0
 42 66  1  0  0  0
 42114  1  0  0  0
 42115  1  0  0  0
 43 44  1  0  0  0
 44116  1  0  0  0
 45 46  2  0  0  0
 45117  1  0  0  0
 46118  1  0  0  0
 47119  1  0  0  0
 47120  1  0  0  0
 48 56  1  0  0  0
 48 65  1  0  0  0
 48121  1  0  0  0
 49 50  1  0  0  0
 49 53  1  0  0  0
 49 64  1  0  0  0
 49122  1  0  0  0
 50 51  1  0  0  0
 50123  1  0  0  0
 50124  1  0  0  0
 51 52  1  0  0  0
 51125  1  0  0  0
 51126  1  0  0  0
 52127  1  0  0  0
 52128  1  0  0  0
 53 54  1  0  0  0
 54 55  2  0  0  0
 54129  1  0  0  0
 55 57  1  0  0  0
 55130  1  0  0  0
 56 69  2  0  0  0
 57 58  2  0  0  0
 57131  1  0  0  0
 58132  1  0  0  0
 59 60  1  0  0  0
 59 61  1  0  0  0
 59 62  1  0  0  0
 60133  1  0  0  0
 60134  1  0  0  0
 60135  1  0  0  0
 61136  1  0  0  0
 61137  1  0  0  0
 61138  1  0  0  0
 62139  1  0  0  0
 62140  1  0  0  0
 62141  1  0  0  0
 63 65  1  0  0  0
 63142  1  0  0  0
 63143  1  0  0  0
 63144  1  0  0  0
 64145  1  0  0  0
 65146  1  0  0  0
 68 77  1  0  0  0
 71 73  2  0  0  0
 71 75  1  0  0  0
 71147  1  0  0  0
 72 74  1  0  0  0
 72 75  2  0  0  0
 72148  1  0  0  0
 73 76  1  0  0  0
 73 78  1  0  0  0
 74 76  2  0  0  0
 74 81  1  0  0  0
 75 86  1  0  0  0
 76 87  1  0  0  0
 77 79  2  0  0  0
 77149  1  0  0  0
 78 82  1  0  0  0
 78 83  2  0  0  0
 79 80  1  0  0  0
 79 85  1  0  0  0
 80 81  1  0  0  0
 80 84  2  0  0  0
 81150  1  0  0  0
 82151  1  0  0  0
 85152  1  0  0  0
M  ISO  4   1 100  68 101  77 101  82 100
M  END
> <chiral flag>
0

> <version>
0

> <s_m_source_file>
/data/baiqing/PycharmProjects/Reinvent-master-3.2/result/LINK_invent/BTK/process_docking_weight1_custom_product_contain_oxygen_bond_distance_aromatic_linkinvent_7_9_3/rearranged_h_0171.sdf

> <i_m_source_file_index>
91

> <r_mmod_Potential_Energy-OPLS-2005>
-188.517028808594

> <r_mmod_Stretch_Energy-OPLS-2005>
50.0524787902832

> <r_mmod_Bend_Energy-OPLS-2005>
102.404975891113

> <r_mmod_Torsional_Energy-OPLS-2005>
231.363693237305

> <r_mmod_Improper_Torsional_Energy-OPLS-2005>
5.20369672775269

> <r_mmod_Van_der_Waal_Energy-OPLS-2005>
167.091720581055

> <r_mmod_Electrostatic_Energy-OPLS-2005>
-513.568908691406

> <r_mmod_Solvation_Energy-OPLS-2005>
-256.246429443359

> <b_mmod_Minimization_Converged-OPLS-2005>
0

> <r_mmod_RMS_Derivative-OPLS-2005>
1.22762143611908

$$$$
91
                    3D
 Structure written by MMmdl.
150158  0  0  1  0            999 V2000
  -30.7007  -14.5653   20.6225 C   0  0  0  0  0  0
  -30.4325  -12.3871   19.4477 C   0  0  0  0  0  0
  -29.5106  -12.5372   18.2211 C   0  0  0  0  0  0
  -28.0381  -12.3663   18.6331 C   0  0  0  0  0  0
  -27.6616  -13.2243   19.8730 C   0  0  2  0  0  0
  -28.6955  -13.0623   21.0103 C   0  0  0  0  0  0
  -25.2564  -13.8159   20.5623 C   0  0  0  0  0  0
  -24.1846  -13.0408   20.9137 C   0  0  0  0  0  0
  -24.6444  -11.6905   20.8709 C   0  0  0  0  0  0
  -23.9110  -10.4287   21.0380 C   0  0  0  0  0  0
  -24.3641   -9.4212   21.9177 C   0  0  0  0  0  0
  -23.6278   -8.2270   22.0769 C   0  0  0  0  0  0
  -22.4268   -8.0320   21.3566 C   0  0  0  0  0  0
  -21.9923   -9.0287   20.4665 C   0  0  0  0  0  0
  -22.7277  -10.2145   20.3039 C   0  0  0  0  0  0
  -21.6868   -6.0730   22.5268 C   0  0  0  0  0  0
  -21.4038   -6.5624   23.8206 C   0  0  0  0  0  0
  -21.3653   -5.6773   24.9164 C   0  0  0  0  0  0
  -21.6035   -4.3038   24.7217 C   0  0  0  0  0  0
  -21.8828   -3.8134   23.4342 C   0  0  0  0  0  0
  -21.9203   -4.6951   22.3395 C   0  0  0  0  0  0
  -22.7872  -13.5224   21.1786 C   0  0  0  0  0  0
  -22.1668   -4.2133   21.0975 F   0  0  0  0  0  0
  -21.5605   -3.4527   25.7726 F   0  0  0  0  0  0
  -30.0240  -13.3843   20.4651 N   0  0  0  0  0  0
  -26.3036  -12.9384   20.3325 N   0  0  0  0  0  0
  -25.9385  -11.6522   20.5721 N   0  0  0  0  0  0
  -22.0504  -12.8254   22.0375 N   0  0  0  0  0  0
  -25.4183  -15.1865   20.3944 N   0  0  0  0  0  0
  -31.8119  -14.7332   20.1119 O   0  0  0  0  0  0
  -21.6650   -6.8913   21.4254 O   0  0  0  0  0  0
  -22.3586  -14.5534   20.6643 O   0  0  0  0  0  0
  -24.6213  -31.8624   23.2077 C   0  0  0  0  0  0
  -25.9050  -32.4810   23.8413 C   0  0  1  0  0  0
  -27.2256  -27.3453   20.1532 C   0  0  0  0  0  0
  -25.5891  -33.8612   24.2310 N   0  0  0  0  0  0
  -23.4191  -30.4871   21.5422 C   0  0  2  0  0  0
  -24.8732  -28.9550   20.1019 C   0  0  0  0  0  0
  -22.7446  -29.4648   22.4904 C   0  0  0  0  0  0
  -18.0290  -28.1437   22.8437 C   0  0  0  0  0  0
  -24.1478  -36.7329   23.2632 C   0  0  0  0  0  0
  -25.9543  -30.8094   21.3766 C   0  0  0  0  0  0
  -26.0326  -29.4368   20.7245 C   0  0  0  0  0  0
  -27.2120  -28.6394   20.7520 C   0  0  0  0  0  0
  -26.0661  -26.9418   19.4501 C   0  0  0  0  0  0
  -24.8913  -27.7153   19.4470 C   0  0  0  0  0  0
  -23.6405  -29.8277   20.1522 C   0  0  0  0  0  0
  -25.4103  -36.3102   24.0327 C   0  0  1  0  0  0
  -20.5881  -28.3722   23.1263 C   0  0  2  0  0  0
  -20.6769  -26.9444   22.5399 C   0  0  0  0  0  0
  -19.5770  -26.6421   21.5170 C   0  0  0  0  0  0
  -18.1934  -26.8002   22.1522 C   0  0  0  0  0  0
  -19.1524  -28.8888   23.2872 C   0  0  0  0  0  0
  -18.9415  -30.1467   23.8932 C   0  0  0  0  0  0
  -17.6401  -30.6579   24.0599 C   0  0  0  0  0  0
  -25.9037  -34.9471   23.5120 C   0  0  0  0  0  0
  -16.5315  -29.9089   23.6303 C   0  0  0  0  0  0
  -16.7266  -28.6535   23.0281 C   0  0  0  0  0  0
  -26.4472  -31.6616   25.0767 C   0  0  0  0  0  0
  -25.3715  -31.3755   26.1512 C   0  0  0  0  0  0
  -27.0298  -30.3037   24.6185 C   0  0  0  0  0  0
  -27.6026  -32.4366   25.7547 C   0  0  0  0  0  0
  -27.5574  -37.1828   24.8464 C   0  0  0  0  0  0
  -21.4150  -29.3111   22.3655 N   0  0  0  0  0  0
  -26.4286  -37.3792   23.9400 N   0  0  0  0  0  0
  -24.6824  -31.0694   22.1006 N   0  0  0  0  0  0
  -23.4143  -28.8118   23.2939 O   0  0  0  0  0  0
  -28.3116  -26.4659   20.2668 O   0  0  0  0  0  0
  -26.5574  -34.8929   22.4677 O   0  0  0  0  0  0
  -23.5376  -32.1386   23.7416 O   0  0  0  0  0  0
  -28.2957  -18.2536   21.3449 C   0  0  0  0  0  0
  -27.9386  -19.6388   21.4020 C   0  0  0  0  0  0
  -29.6542  -18.1542   21.4836 C   0  0  0  0  0  0
  -29.1063  -20.3493   21.5197 C   0  0  0  0  0  0
  -28.0336  -25.1102   20.5492 C   0  0  0  0  0  0
  -28.8893  -24.1249   20.9844 C   0  0  0  0  0  0
  -28.3765  -22.7208   21.1682 C   0  0  0  0  0  0
  -30.6357  -16.9672   21.4955 C   0  0  0  0  0  0
  -29.2768  -21.7310   21.5010 N   0  0  0  0  0  0
  -30.0827  -15.5849   21.2817 N   0  0  0  0  0  0
  -27.1829  -22.4506   21.0162 O   0  0  0  0  0  0
  -30.1611  -19.4480   21.6001 O   0  0  0  0  0  0
  -30.1649  -24.4421   21.2484 O   0  0  0  0  0  0
  -31.4731  -12.5026   19.1386 H   0  0  0  0  0  0
  -30.3588  -11.3782   19.8567 H   0  0  0  0  0  0
  -29.7709  -11.8026   17.4565 H   0  0  0  0  0  0
  -29.6597  -13.5205   17.7715 H   0  0  0  0  0  0
  -27.8907  -11.3098   18.8549 H   0  0  0  0  0  0
  -27.3795  -12.6009   17.7967 H   0  0  0  0  0  0
  -27.6925  -14.2703   19.5595 H   0  0  0  0  0  0
  -28.6857  -12.0409   21.3956 H   0  0  0  0  0  0
  -28.4316  -13.7031   21.8525 H   0  0  0  0  0  0
  -25.2806   -9.5665   22.4745 H   0  0  0  0  0  0
  -23.9974   -7.4669   22.7499 H   0  0  0  0  0  0
  -21.0857   -8.8836   19.8969 H   0  0  0  0  0  0
  -22.3779  -10.9681   19.6128 H   0  0  0  0  0  0
  -21.2065   -7.6141   23.9708 H   0  0  0  0  0  0
  -21.1443   -6.0502   25.9060 H   0  0  0  0  0  0
  -22.0615   -2.7598   23.2840 H   0  0  0  0  0  0
  -22.4094  -11.9938   22.4828 H   0  0  0  0  0  0
  -21.1105  -13.1300   22.2507 H   0  0  0  0  0  0
  -24.6196  -15.8123   20.4208 H   0  0  0  0  0  0
  -26.2482  -15.6190   20.0101 H   0  0  0  0  0  0
  -26.7116  -32.5511   23.1175 H   0  0  0  0  0  0
  -25.0087  -33.9771   25.0484 H   0  0  0  0  0  0
  -22.7122  -31.3067   21.3912 H   0  0  0  0  0  0
  -23.3726  -35.9681   23.3322 H   0  0  0  0  0  0
  -24.3567  -36.8922   22.2043 H   0  0  0  0  0  0
  -23.7255  -37.6548   23.6646 H   0  0  0  0  0  0
  -26.0718  -31.5762   20.6086 H   0  0  0  0  0  0
  -26.8381  -30.8665   22.0016 H   0  0  0  0  0  0
  -28.0944  -28.9929   21.2675 H   0  0  0  0  0  0
  -26.0537  -26.0055   18.9125 H   0  0  0  0  0  0
  -24.0163  -27.3511   18.9279 H   0  0  0  0  0  0
  -23.7586  -30.6055   19.3954 H   0  0  0  0  0  0
  -22.7676  -29.2507   19.8439 H   0  0  0  0  0  0
  -25.1287  -36.1971   25.0818 H   0  0  0  0  0  0
  -20.9989  -28.3325   24.1382 H   0  0  0  0  0  0
  -20.5574  -26.2333   23.3591 H   0  0  0  0  0  0
  -21.6639  -26.7452   22.1206 H   0  0  0  0  0  0
  -19.6924  -25.6309   21.1265 H   0  0  0  0  0  0
  -19.6769  -27.3161   20.6660 H   0  0  0  0  0  0
  -17.4225  -26.6827   21.3866 H   0  0  0  0  0  0
  -18.0278  -26.0116   22.8881 H   0  0  0  0  0  0
  -19.7895  -30.7268   24.2363 H   0  0  0  0  0  0
  -17.4927  -31.6205   24.5301 H   0  0  0  0  0  0
  -15.5320  -30.2966   23.7651 H   0  0  0  0  0  0
  -15.8639  -28.0871   22.6958 H   0  0  0  0  0  0
  -24.5889  -30.7077   25.7886 H   0  0  0  0  0  0
  -24.8913  -32.2920   26.4960 H   0  0  0  0  0  0
  -25.8095  -30.8958   27.0270 H   0  0  0  0  0  0
  -26.2846  -29.6832   24.1178 H   0  0  0  0  0  0
  -27.3937  -29.7271   25.4701 H   0  0  0  0  0  0
  -27.8760  -30.4337   23.9426 H   0  0  0  0  0  0
  -27.2593  -33.3650   26.2144 H   0  0  0  0  0  0
  -28.3851  -32.6957   25.0392 H   0  0  0  0  0  0
  -28.0664  -31.8468   26.5464 H   0  0  0  0  0  0
  -28.2607  -38.0100   24.7466 H   0  0  0  0  0  0
  -28.1038  -36.2634   24.6349 H   0  0  0  0  0  0
  -27.2282  -37.1556   25.8857 H   0  0  0  0  0  0
  -20.9326  -29.8821   21.6845 H   0  0  0  0  0  0
  -26.0179  -38.2872   24.1380 H   0  0  0  0  0  0
  -27.6281  -17.4198   21.1973 H   0  0  0  0  0  0
  -26.9362  -20.0342   21.3247 H   0  0  0  0  0  0
  -26.9971  -24.8583   20.3925 H   0  0  0  0  0  0
  -31.1659  -16.9597   22.4480 H   0  0  0  0  0  0
  -31.4076  -17.1677   20.7503 H   0  0  0  0  0  0
  -30.2224  -22.0307   21.6768 H   0  0  0  0  0  0
  -29.1800  -15.3834   21.6862 H   0  0  0  0  0  0
  -30.4896  -23.8329   21.8970 H   0  0  0  0  0  0
  1 25  1  0  0  0
  1 30  2  0  0  0
  1 80  1  0  0  0
  2  3  1  0  0  0
  2 25  1  0  0  0
  2 84  1  0  0  0
  2 85  1  0  0  0
  3  4  1  0  0  0
  3 86  1  0  0  0
  3 87  1  0  0  0
  4  5  1  0  0  0
  4 88  1  0  0  0
  4 89  1  0  0  0
  5  6  1  0  0  0
  5 26  1  0  0  0
  5 90  1  0  0  0
  6 25  1  0  0  0
  6 91  1  0  0  0
  6 92  1  0  0  0
  7  8  2  0  0  0
  7 26  1  0  0  0
  7 29  1  0  0  0
  8  9  1  0  0  0
  8 22  1  0  0  0
  9 10  1  0  0  0
  9 27  2  0  0  0
 10 11  2  0  0  0
 10 15  1  0  0  0
 11 12  1  0  0  0
 11 93  1  0  0  0
 12 13  2  0  0  0
 12 94  1  0  0  0
 13 14  1  0  0  0
 13 31  1  0  0  0
 14 15  2  0  0  0
 14 95  1  0  0  0
 15 96  1  0  0  0
 16 17  2  0  0  0
 16 21  1  0  0  0
 16 31  1  0  0  0
 17 18  1  0  0  0
 17 97  1  0  0  0
 18 19  2  0  0  0
 18 98  1  0  0  0
 19 20  1  0  0  0
 19 24  1  0  0  0
 20 21  2  0  0  0
 20 99  1  0  0  0
 21 23  1  0  0  0
 22 28  1  0  0  0
 22 32  2  0  0  0
 26 27  1  0  0  0
 28100  1  0  0  0
 28101  1  0  0  0
 29102  1  0  0  0
 29103  1  0  0  0
 33 34  1  0  0  0
 33 66  1  0  0  0
 33 70  2  0  0  0
 34 36  1  0  0  0
 34 59  1  0  0  0
 34104  1  0  0  0
 35 44  2  0  0  0
 35 45  1  0  0  0
 35 68  1  0  0  0
 36 56  1  0  0  0
 36105  1  0  0  0
 37 39  1  0  0  0
 37 47  1  0  0  0
 37 66  1  0  0  0
 37106  1  0  0  0
 38 43  2  0  0  0
 38 46  1  0  0  0
 38 47  1  0  0  0
 39 64  1  0  0  0
 39 67  2  0  0  0
 40 52  1  0  0  0
 40 53  2  0  0  0
 40 58  1  0  0  0
 41107  1  0  0  0
 41108  1  0  0  0
 41109  1  0  0  0
 41 48  1  0  0  0
 42 43  1  0  0  0
 42 66  1  0  0  0
 42110  1  0  0  0
 42111  1  0  0  0
 43 44  1  0  0  0
 44112  1  0  0  0
 45 46  2  0  0  0
 45113  1  0  0  0
 46114  1  0  0  0
 47115  1  0  0  0
 47116  1  0  0  0
 48 56  1  0  0  0
 48 65  1  0  0  0
 48117  1  0  0  0
 49 50  1  0  0  0
 49 53  1  0  0  0
 49 64  1  0  0  0
 49118  1  0  0  0
 50 51  1  0  0  0
 50119  1  0  0  0
 50120  1  0  0  0
 51 52  1  0  0  0
 51121  1  0  0  0
 51122  1  0  0  0
 52123  1  0  0  0
 52124  1  0  0  0
 53 54  1  0  0  0
 54 55  2  0  0  0
 54125  1  0  0  0
 55 57  1  0  0  0
 55126  1  0  0  0
 56 69  2  0  0  0
 57 58  2  0  0  0
 57127  1  0  0  0
 58128  1  0  0  0
 59 60  1  0  0  0
 59 61  1  0  0  0
 59 62  1  0  0  0
 60129  1  0  0  0
 60130  1  0  0  0
 60131  1  0  0  0
 61132  1  0  0  0
 61133  1  0  0  0
 61134  1  0  0  0
 62135  1  0  0  0
 62136  1  0  0  0
 62137  1  0  0  0
 63 65  1  0  0  0
 63138  1  0  0  0
 63139  1  0  0  0
 63140  1  0  0  0
 64141  1  0  0  0
 65142  1  0  0  0
 68 75  1  0  0  0
 71 72  1  0  0  0
 71 73  2  0  0  0
 71143  1  0  0  0
 72 74  2  0  0  0
 72144  1  0  0  0
 73 78  1  0  0  0
 73 82  1  0  0  0
 74 79  1  0  0  0
 74 82  1  0  0  0
 75 76  2  0  0  0
 75145  1  0  0  0
 76 77  1  0  0  0
 76 83  1  0  0  0
 77 79  1  0  0  0
 77 81  2  0  0  0
 78 80  1  0  0  0
 78146  1  0  0  0
 78147  1  0  0  0
 79148  1  0  0  0
 80149  1  0  0  0
 83150  1  0  0  0
M  ISO  4   1 100  68 101  75 101  80 100
M  END
> <chiral flag>
0

> <version>
0

> <s_m_source_file>
/data/baiqing/PycharmProjects/Reinvent-master-3.2/result/LINK_invent/BTK/process_docking_weight1_custom_product_contain_oxygen_bond_distance_aromatic_linkinvent_7_9_3/rearranged_h_0171.sdf

> <i_m_source_file_index>
92

> <r_mmod_Potential_Energy-OPLS-2005>
-131.781829833984

> <r_mmod_Stretch_Energy-OPLS-2005>
71.6201095581055

> <r_mmod_Bend_Energy-OPLS-2005>
126.321586608887

> <r_mmod_Torsional_Energy-OPLS-2005>
206.453628540039

> <r_mmod_Improper_Torsional_Energy-OPLS-2005>
3.15924453735352

> <r_mmod_Van_der_Waal_Energy-OPLS-2005>
140.321914672852

> <r_mmod_Electrostatic_Energy-OPLS-2005>
-477.5869140625

> <r_mmod_Solvation_Energy-OPLS-2005>
-242.213607788086

> <b_mmod_Minimization_Converged-OPLS-2005>
0

> <r_mmod_RMS_Derivative-OPLS-2005>
5.86010074615479

$$$$
92
                    3D
 Structure written by MMmdl.
157165  0  0  1  0            999 V2000
  -30.7204  -14.4819   20.5704 C   0  0  0  0  0  0
  -30.4184  -12.3117   19.4329 C   0  0  0  0  0  0
  -29.4945  -12.5038   18.2143 C   0  0  0  0  0  0
  -28.0178  -12.3606   18.6276 C   0  0  0  0  0  0
  -27.6604  -13.2122   19.8739 C   0  0  2  0  0  0
  -28.7027  -13.0182   20.9996 C   0  0  0  0  0  0
  -25.2584  -13.8188   20.5707 C   0  0  0  0  0  0
  -24.1836  -13.0449   20.9178 C   0  0  0  0  0  0
  -24.6399  -11.6924   20.8742 C   0  0  0  0  0  0
  -23.9073  -10.4299   21.0411 C   0  0  0  0  0  0
  -24.3622   -9.4220   21.9192 C   0  0  0  0  0  0
  -23.6293   -8.2253   22.0756 C   0  0  0  0  0  0
  -22.4280   -8.0295   21.3541 C   0  0  0  0  0  0
  -21.9917   -9.0267   20.4643 C   0  0  0  0  0  0
  -22.7249  -10.2147   20.3059 C   0  0  0  0  0  0
  -21.6854   -6.0747   22.5283 C   0  0  0  0  0  0
  -21.4013   -6.5647   23.8219 C   0  0  0  0  0  0
  -21.3658   -5.6798   24.9180 C   0  0  0  0  0  0
  -21.6049   -4.3059   24.7225 C   0  0  0  0  0  0
  -21.8815   -3.8151   23.4344 C   0  0  0  0  0  0
  -21.9188   -4.6970   22.3405 C   0  0  0  0  0  0
  -22.7855  -13.5241   21.1844 C   0  0  0  0  0  0
  -22.1658   -4.2159   21.0982 F   0  0  0  0  0  0
  -21.5629   -3.4544   25.7735 F   0  0  0  0  0  0
  -30.0336  -13.3125   20.4418 N   0  0  0  0  0  0
  -26.3019  -12.9363   20.3376 N   0  0  0  0  0  0
  -25.9331  -11.6516   20.5783 N   0  0  0  0  0  0
  -22.0499  -12.8221   22.0395 N   0  0  0  0  0  0
  -25.4309  -15.1917   20.4153 N   0  0  0  0  0  0
  -31.8545  -14.6317   20.1090 O   0  0  0  0  0  0
  -21.6638   -6.8892   21.4247 O   0  0  0  0  0  0
  -22.3536  -14.5546   20.6706 O   0  0  0  0  0  0
  -24.6144  -31.8671   23.2101 C   0  0  0  0  0  0
  -25.9042  -32.4819   23.8387 C   0  0  1  0  0  0
  -27.2289  -27.4244   20.1021 C   0  0  0  0  0  0
  -25.5889  -33.8614   24.2310 N   0  0  0  0  0  0
  -23.4029  -30.4909   21.5519 C   0  0  2  0  0  0
  -24.8494  -28.9600   20.1102 C   0  0  0  0  0  0
  -22.7418  -29.4643   22.4992 C   0  0  0  0  0  0
  -18.0268  -28.1355   22.8482 C   0  0  0  0  0  0
  -24.1481  -36.7317   23.2639 C   0  0  0  0  0  0
  -25.9340  -30.8309   21.3654 C   0  0  0  0  0  0
  -26.0118  -29.4666   20.7073 C   0  0  0  0  0  0
  -27.2083  -28.7086   20.6948 C   0  0  0  0  0  0
  -26.0553  -26.9453   19.4807 C   0  0  0  0  0  0
  -24.8679  -27.6997   19.4896 C   0  0  0  0  0  0
  -23.6097  -29.8237   20.1660 C   0  0  0  0  0  0
  -25.4105  -36.3106   24.0333 C   0  0  1  0  0  0
  -20.5857  -28.3653   23.1300 C   0  0  2  0  0  0
  -20.6747  -26.9391   22.5401 C   0  0  0  0  0  0
  -19.5736  -26.6370   21.5189 C   0  0  0  0  0  0
  -18.1916  -26.7902   22.1601 C   0  0  0  0  0  0
  -19.1514  -28.8823   23.2887 C   0  0  0  0  0  0
  -18.9444  -30.1425   23.8908 C   0  0  0  0  0  0
  -17.6448  -30.6569   24.0557 C   0  0  0  0  0  0
  -25.9029  -34.9476   23.5124 C   0  0  0  0  0  0
  -16.5341  -29.9058   23.6335 C   0  0  0  0  0  0
  -16.7254  -28.6469   23.0364 C   0  0  0  0  0  0
  -26.4474  -31.6600   25.0723 C   0  0  0  0  0  0
  -25.3746  -31.3701   26.1474 C   0  0  0  0  0  0
  -27.0322  -30.3044   24.6120 C   0  0  0  0  0  0
  -27.6045  -32.4328   25.7487 C   0  0  0  0  0  0
  -27.5587  -37.1805   24.8461 C   0  0  0  0  0  0
  -21.4145  -29.3018   22.3721 N   0  0  0  0  0  0
  -26.4295  -37.3781   23.9409 N   0  0  0  0  0  0
  -24.6689  -31.0761   22.1007 N   0  0  0  0  0  0
  -23.4198  -28.8190   23.3029 O   0  0  0  0  0  0
  -28.3681  -26.6409   20.1264 O   0  0  0  0  0  0
  -26.5595  -34.8937   22.4692 O   0  0  0  0  0  0
  -23.5340  -32.1438   23.7499 O   0  0  0  0  0  0
  -32.0721  -18.6668   21.5019 C   0  0  0  0  0  0
  -31.1137  -19.6513   21.1909 C   0  0  0  0  0  0
  -31.7327  -17.2998   21.4655 C   0  0  0  0  0  0
  -29.7964  -19.2794   20.8412 C   0  0  0  0  0  0
  -30.4229  -16.8976   21.1162 C   0  0  0  0  0  0
  -29.4585  -17.8965   20.8236 C   0  0  0  0  0  0
  -28.3468  -22.7823   20.1989 C   0  0  0  0  0  0
  -28.6947  -25.4639   22.1994 C   0  0  0  0  0  0
  -28.7300  -20.3326   20.4999 C   0  0  0  0  0  0
  -28.9351  -24.1983   19.9712 C   0  0  0  0  0  0
  -28.2075  -25.3416   20.7471 C   0  0  2  0  0  0
  -30.0317  -15.5178   21.0941 N   0  0  0  0  0  0
  -29.1801  -21.7320   20.3472 N   0  0  0  0  0  0
  -27.1231  -22.6282   20.2064 O   0  0  0  0  0  0
  -28.1948  -17.5153   20.5123 F   0  0  0  0  0  0
  -31.4637  -12.3978   19.1315 H   0  0  0  0  0  0
  -30.3100  -11.3062   19.8429 H   0  0  0  0  0  0
  -29.7379  -11.7796   17.4363 H   0  0  0  0  0  0
  -29.6619  -13.4898   17.7786 H   0  0  0  0  0  0
  -27.8352  -11.3066   18.8380 H   0  0  0  0  0  0
  -27.3651  -12.6217   17.7945 H   0  0  0  0  0  0
  -27.6977  -14.2565   19.5611 H   0  0  0  0  0  0
  -28.6791  -11.9921   21.3693 H   0  0  0  0  0  0
  -28.4646  -13.6452   21.8609 H   0  0  0  0  0  0
  -25.2764   -9.5692   22.4772 H   0  0  0  0  0  0
  -24.0001   -7.4643   22.7481 H   0  0  0  0  0  0
  -21.0854   -8.8794   19.8946 H   0  0  0  0  0  0
  -22.3715  -10.9690   19.6167 H   0  0  0  0  0  0
  -21.2009   -7.6157   23.9722 H   0  0  0  0  0  0
  -21.1487   -6.0530   25.9086 H   0  0  0  0  0  0
  -22.0594   -2.7613   23.2841 H   0  0  0  0  0  0
  -22.4093  -11.9862   22.4753 H   0  0  0  0  0  0
  -21.1126  -13.1254   22.2614 H   0  0  0  0  0  0
  -24.6681  -15.8485   20.5411 H   0  0  0  0  0  0
  -26.2949  -15.6415   20.1379 H   0  0  0  0  0  0
  -26.7125  -32.5521   23.1157 H   0  0  0  0  0  0
  -25.0045  -33.9762   25.0462 H   0  0  0  0  0  0
  -22.6919  -31.3082   21.4159 H   0  0  0  0  0  0
  -23.3736  -35.9650   23.3284 H   0  0  0  0  0  0
  -24.3578  -36.8961   22.2061 H   0  0  0  0  0  0
  -23.7233  -37.6521   23.6664 H   0  0  0  0  0  0
  -26.0469  -31.5988   20.6001 H   0  0  0  0  0  0
  -26.8213  -30.8825   21.9847 H   0  0  0  0  0  0
  -28.1057  -29.0934   21.1611 H   0  0  0  0  0  0
  -26.0551  -25.9791   18.9952 H   0  0  0  0  0  0
  -23.9766  -27.3042   19.0216 H   0  0  0  0  0  0
  -23.7121  -30.5996   19.4065 H   0  0  0  0  0  0
  -22.7339  -29.2399   19.8765 H   0  0  0  0  0  0
  -25.1275  -36.1985   25.0817 H   0  0  0  0  0  0
  -20.9945  -28.3215   24.1425 H   0  0  0  0  0  0
  -20.5638  -26.2258   23.3584 H   0  0  0  0  0  0
  -21.6629  -26.7415   22.1217 H   0  0  0  0  0  0
  -19.6895  -25.6278   21.1206 H   0  0  0  0  0  0
  -19.6672  -27.3195   20.6726 H   0  0  0  0  0  0
  -17.4188  -26.6660   21.4000 H   0  0  0  0  0  0
  -18.0316  -26.0033   22.8988 H   0  0  0  0  0  0
  -19.7933  -30.7211   24.2297 H   0  0  0  0  0  0
  -17.5019  -31.6261   24.5144 H   0  0  0  0  0  0
  -15.5348  -30.2962   23.7636 H   0  0  0  0  0  0
  -15.8653  -28.0774   22.7085 H   0  0  0  0  0  0
  -24.5916  -30.7046   25.7810 H   0  0  0  0  0  0
  -24.8924  -32.2846   26.4935 H   0  0  0  0  0  0
  -25.8101  -30.8867   27.0225 H   0  0  0  0  0  0
  -26.2878  -29.6780   24.1199 H   0  0  0  0  0  0
  -27.4113  -29.7304   25.4583 H   0  0  0  0  0  0
  -27.8691  -30.4345   23.9260 H   0  0  0  0  0  0
  -27.2678  -33.3638   26.2063 H   0  0  0  0  0  0
  -28.3861  -32.6887   25.0314 H   0  0  0  0  0  0
  -28.0721  -31.8463   26.5409 H   0  0  0  0  0  0
  -28.2589  -38.0124   24.7537 H   0  0  0  0  0  0
  -28.1098  -36.2649   24.6240 H   0  0  0  0  0  0
  -27.2302  -37.1424   25.8866 H   0  0  0  0  0  0
  -20.9299  -29.8774   21.6981 H   0  0  0  0  0  0
  -26.0186  -38.2854   24.1423 H   0  0  0  0  0  0
  -33.0753  -18.9631   21.7754 H   0  0  0  0  0  0
  -31.4045  -20.6913   21.2357 H   0  0  0  0  0  0
  -32.4894  -16.5697   21.7134 H   0  0  0  0  0  0
  -28.1211  -26.2135   22.7466 H   0  0  0  0  0  0
  -28.5959  -24.5167   22.7315 H   0  0  0  0  0  0
  -29.7436  -25.7581   22.2391 H   0  0  0  0  0  0
  -27.9650  -20.2868   21.2755 H   0  0  0  0  0  0
  -28.2416  -20.0269   19.5731 H   0  0  0  0  0  0
  -28.8495  -24.3901   18.9009 H   0  0  0  0  0  0
  -30.0039  -24.2080   20.1891 H   0  0  0  0  0  0
  -27.1503  -25.0818   20.8088 H   0  0  0  0  0  0
  -29.0634  -15.3352   21.3027 H   0  0  0  0  0  0
  -30.1757  -21.8987   20.3000 H   0  0  0  0  0  0
  1 25  1  0  0  0
  1 30  2  0  0  0
  1 82  1  0  0  0
  2  3  1  0  0  0
  2 25  1  0  0  0
  2 86  1  0  0  0
  2 87  1  0  0  0
  3  4  1  0  0  0
  3 88  1  0  0  0
  3 89  1  0  0  0
  4  5  1  0  0  0
  4 90  1  0  0  0
  4 91  1  0  0  0
  5  6  1  0  0  0
  5 26  1  0  0  0
  5 92  1  0  0  0
  6 25  1  0  0  0
  6 93  1  0  0  0
  6 94  1  0  0  0
  7  8  2  0  0  0
  7 26  1  0  0  0
  7 29  1  0  0  0
  8  9  1  0  0  0
  8 22  1  0  0  0
  9 10  1  0  0  0
  9 27  2  0  0  0
 10 11  2  0  0  0
 10 15  1  0  0  0
 11 12  1  0  0  0
 11 95  1  0  0  0
 12 13  2  0  0  0
 12 96  1  0  0  0
 13 14  1  0  0  0
 13 31  1  0  0  0
 14 15  2  0  0  0
 14 97  1  0  0  0
 15 98  1  0  0  0
 16 17  2  0  0  0
 16 21  1  0  0  0
 16 31  1  0  0  0
 17 18  1  0  0  0
 17 99  1  0  0  0
 18 19  2  0  0  0
 18100  1  0  0  0
 19 20  1  0  0  0
 19 24  1  0  0  0
 20 21  2  0  0  0
 20101  1  0  0  0
 21 23  1  0  0  0
 22 28  1  0  0  0
 22 32  2  0  0  0
 26 27  1  0  0  0
 28102  1  0  0  0
 28103  1  0  0  0
 29104  1  0  0  0
 29105  1  0  0  0
 33 34  1  0  0  0
 33 66  1  0  0  0
 33 70  2  0  0  0
 34 36  1  0  0  0
 34 59  1  0  0  0
 34106  1  0  0  0
 35 44  2  0  0  0
 35 45  1  0  0  0
 35 68  1  0  0  0
 36 56  1  0  0  0
 36107  1  0  0  0
 37 39  1  0  0  0
 37 47  1  0  0  0
 37 66  1  0  0  0
 37108  1  0  0  0
 38 43  2  0  0  0
 38 46  1  0  0  0
 38 47  1  0  0  0
 39 64  1  0  0  0
 39 67  2  0  0  0
 40 52  1  0  0  0
 40 53  2  0  0  0
 40 58  1  0  0  0
 41109  1  0  0  0
 41110  1  0  0  0
 41111  1  0  0  0
 41 48  1  0  0  0
 42 43  1  0  0  0
 42 66  1  0  0  0
 42112  1  0  0  0
 42113  1  0  0  0
 43 44  1  0  0  0
 44114  1  0  0  0
 45 46  2  0  0  0
 45115  1  0  0  0
 46116  1  0  0  0
 47117  1  0  0  0
 47118  1  0  0  0
 48 56  1  0  0  0
 48 65  1  0  0  0
 48119  1  0  0  0
 49 50  1  0  0  0
 49 53  1  0  0  0
 49 64  1  0  0  0
 49120  1  0  0  0
 50 51  1  0  0  0
 50121  1  0  0  0
 50122  1  0  0  0
 51 52  1  0  0  0
 51123  1  0  0  0
 51124  1  0  0  0
 52125  1  0  0  0
 52126  1  0  0  0
 53 54  1  0  0  0
 54 55  2  0  0  0
 54127  1  0  0  0
 55 57  1  0  0  0
 55128  1  0  0  0
 56 69  2  0  0  0
 57 58  2  0  0  0
 57129  1  0  0  0
 58130  1  0  0  0
 59 60  1  0  0  0
 59 61  1  0  0  0
 59 62  1  0  0  0
 60131  1  0  0  0
 60132  1  0  0  0
 60133  1  0  0  0
 61134  1  0  0  0
 61135  1  0  0  0
 61136  1  0  0  0
 62137  1  0  0  0
 62138  1  0  0  0
 62139  1  0  0  0
 63 65  1  0  0  0
 63140  1  0  0  0
 63141  1  0  0  0
 63142  1  0  0  0
 64143  1  0  0  0
 65144  1  0  0  0
 68 81  1  0  0  0
 71 72  2  0  0  0
 71 73  1  0  0  0
 71145  1  0  0  0
 72 74  1  0  0  0
 72146  1  0  0  0
 73 75  2  0  0  0
 73147  1  0  0  0
 74 76  2  0  0  0
 74 79  1  0  0  0
 75 76  1  0  0  0
 75 82  1  0  0  0
 76 85  1  0  0  0
 77 80  1  0  0  0
 77 83  1  0  0  0
 77 84  2  0  0  0
 78148  1  0  0  0
 78149  1  0  0  0
 78150  1  0  0  0
 78 81  1  0  0  0
 79 83  1  0  0  0
 79151  1  0  0  0
 79152  1  0  0  0
 80 81  1  0  0  0
 80153  1  0  0  0
 80154  1  0  0  0
 81155  1  0  0  0
 82156  1  0  0  0
 83157  1  0  0  0
M  ISO  4   1 100  68 101  81 101  82 100
M  END
> <chiral flag>
0

> <version>
0

> <s_m_source_file>
/data/baiqing/PycharmProjects/Reinvent-master-3.2/result/LINK_invent/BTK/process_docking_weight1_custom_product_contain_oxygen_bond_distance_aromatic_linkinvent_7_9_3/rearranged_h_0171.sdf

> <i_m_source_file_index>
93

> <r_mmod_Potential_Energy-OPLS-2005>
-142.390396118164

> <r_mmod_Stretch_Energy-OPLS-2005>
41.8373527526855

> <r_mmod_Bend_Energy-OPLS-2005>
93.8667678833008

> <r_mmod_Torsional_Energy-OPLS-2005>
224.134902954102

> <r_mmod_Improper_Torsional_Energy-OPLS-2005>
3.84562540054321

> <r_mmod_Van_der_Waal_Energy-OPLS-2005>
154.316879272461

> <r_mmod_Electrostatic_Energy-OPLS-2005>
-455.860168457031

> <r_mmod_Solvation_Energy-OPLS-2005>
-220.213989257812

> <b_mmod_Minimization_Converged-OPLS-2005>
0

> <r_mmod_RMS_Derivative-OPLS-2005>
2.11650013923645

$$$$
93
                    3D
 Structure written by MMmdl.
158166  0  0  1  0            999 V2000
  -30.6565  -14.5781   20.5205 C   0  0  0  0  0  0
  -30.4303  -12.3621   19.4323 C   0  0  0  0  0  0
  -29.4917  -12.5020   18.2135 C   0  0  0  0  0  0
  -28.0197  -12.3393   18.6395 C   0  0  0  0  0  0
  -27.6551  -13.2124   19.8687 C   0  0  2  0  0  0
  -28.7034  -13.0552   20.9935 C   0  0  0  0  0  0
  -25.2607  -13.8151   20.5764 C   0  0  0  0  0  0
  -24.1868  -13.0418   20.9243 C   0  0  0  0  0  0
  -24.6419  -11.6887   20.8761 C   0  0  0  0  0  0
  -23.9074  -10.4278   21.0415 C   0  0  0  0  0  0
  -24.3609   -9.4191   21.9199 C   0  0  0  0  0  0
  -23.6285   -8.2226   22.0751 C   0  0  0  0  0  0
  -22.4278   -8.0266   21.3528 C   0  0  0  0  0  0
  -21.9914   -9.0253   20.4647 C   0  0  0  0  0  0
  -22.7243  -10.2135   20.3069 C   0  0  0  0  0  0
  -21.6842   -6.0740   22.5276 C   0  0  0  0  0  0
  -21.4006   -6.5645   23.8209 C   0  0  0  0  0  0
  -21.3659   -5.6803   24.9174 C   0  0  0  0  0  0
  -21.6043   -4.3067   24.7233 C   0  0  0  0  0  0
  -21.8820   -3.8153   23.4357 C   0  0  0  0  0  0
  -21.9191   -4.6968   22.3407 C   0  0  0  0  0  0
  -22.7899  -13.5215   21.1869 C   0  0  0  0  0  0
  -22.1673   -4.2156   21.0987 F   0  0  0  0  0  0
  -21.5609   -3.4555   25.7747 F   0  0  0  0  0  0
  -30.0197  -13.3742   20.4230 N   0  0  0  0  0  0
  -26.3016  -12.9333   20.3384 N   0  0  0  0  0  0
  -25.9336  -11.6485   20.5766 N   0  0  0  0  0  0
  -22.0514  -12.8199   22.0403 N   0  0  0  0  0  0
  -25.4339  -15.1862   20.4200 N   0  0  0  0  0  0
  -31.8143  -14.7377   20.1249 O   0  0  0  0  0  0
  -21.6622   -6.8885   21.4236 O   0  0  0  0  0  0
  -22.3589  -14.5518   20.6705 O   0  0  0  0  0  0
  -24.6209  -31.8628   23.2077 C   0  0  0  0  0  0
  -25.9067  -32.4802   23.8390 C   0  0  1  0  0  0
  -27.2196  -27.3660   20.1105 C   0  0  0  0  0  0
  -25.5899  -33.8601   24.2327 N   0  0  0  0  0  0
  -23.4134  -30.4870   21.5489 C   0  0  2  0  0  0
  -24.8575  -28.9429   20.1157 C   0  0  0  0  0  0
  -22.7451  -29.4647   22.4979 C   0  0  0  0  0  0
  -18.0275  -28.1373   22.8521 C   0  0  0  0  0  0
  -24.1477  -36.7316   23.2646 C   0  0  0  0  0  0
  -25.9483  -30.8098   21.3671 C   0  0  0  0  0  0
  -26.0240  -29.4390   20.7125 C   0  0  0  0  0  0
  -27.2134  -28.6612   20.6988 C   0  0  0  0  0  0
  -26.0362  -26.9017   19.5009 C   0  0  0  0  0  0
  -24.8622  -27.6783   19.5026 C   0  0  0  0  0  0
  -23.6248  -29.8192   20.1646 C   0  0  0  0  0  0
  -25.4107  -36.3110   24.0339 C   0  0  1  0  0  0
  -20.5872  -28.3688   23.1305 C   0  0  2  0  0  0
  -20.6767  -26.9400   22.5454 C   0  0  0  0  0  0
  -19.5721  -26.6377   21.5262 C   0  0  0  0  0  0
  -18.1915  -26.7895   22.1707 C   0  0  0  0  0  0
  -19.1516  -28.8856   23.2894 C   0  0  0  0  0  0
  -18.9449  -30.1465   23.8881 C   0  0  0  0  0  0
  -17.6446  -30.6598   24.0558 C   0  0  0  0  0  0
  -25.9037  -34.9466   23.5137 C   0  0  0  0  0  0
  -16.5345  -29.9087   23.6330 C   0  0  0  0  0  0
  -16.7259  -28.6497   23.0366 C   0  0  0  0  0  0
  -26.4464  -31.6601   25.0740 C   0  0  0  0  0  0
  -25.3727  -31.3700   26.1492 C   0  0  0  0  0  0
  -27.0303  -30.3049   24.6147 C   0  0  0  0  0  0
  -27.6049  -32.4318   25.7502 C   0  0  0  0  0  0
  -27.5580  -37.1827   24.8472 C   0  0  0  0  0  0
  -21.4171  -29.3065   22.3731 N   0  0  0  0  0  0
  -26.4300  -37.3795   23.9402 N   0  0  0  0  0  0
  -24.6795  -31.0692   22.0994 N   0  0  0  0  0  0
  -23.4200  -28.8178   23.3038 O   0  0  0  0  0  0
  -28.3447  -26.5543   20.1094 O   0  0  0  0  0  0
  -26.5594  -34.8914   22.4699 O   0  0  0  0  0  0
  -23.5390  -32.1390   23.7453 O   0  0  0  0  0  0
  -27.9975  -17.9016   19.8168 C   0  0  0  0  0  0
  -27.4953  -19.1836   19.4262 C   0  0  0  0  0  0
  -29.2282  -18.0684   20.3882 C   0  0  0  0  0  0
  -28.4637  -20.0892   19.8092 C   0  0  0  0  0  0
  -26.2091  -19.4316   18.7148 C   0  0  0  0  0  0
  -25.4170  -20.7423   18.9045 C   0  0  0  0  0  0
  -28.4048  -24.0040   19.8018 C   0  0  0  0  0  0
  -24.0854  -20.6358   19.6397 C   0  0  0  0  0  0
  -30.2662  -17.0790   20.9259 C   0  0  0  0  0  0
  -28.5816  -22.5746   20.4342 C   0  0  0  0  0  0
  -28.1900  -25.2378   20.7387 C   0  0  0  0  0  0
  -28.5604  -21.4612   19.4530 N   0  0  0  0  0  0
  -29.8879  -15.6346   20.8952 N   0  0  0  0  0  0
  -25.7059  -18.5447   18.0138 O   0  0  0  0  0  0
  -25.8103  -21.8207   18.4441 O   0  0  0  0  0  0
  -28.4065  -24.1372   18.5720 O   0  0  0  0  0  0
  -29.5174  -19.4290   20.4126 O   0  0  0  0  0  0
  -31.4710  -12.4764   19.1243 H   0  0  0  0  0  0
  -30.3565  -11.3612   19.8601 H   0  0  0  0  0  0
  -29.7431  -11.7588   17.4564 H   0  0  0  0  0  0
  -29.6278  -13.4793   17.7465 H   0  0  0  0  0  0
  -27.8624  -11.2857   18.8744 H   0  0  0  0  0  0
  -27.3513  -12.5655   17.8087 H   0  0  0  0  0  0
  -27.6776  -14.2487   19.5282 H   0  0  0  0  0  0
  -28.7098  -12.0350   21.3782 H   0  0  0  0  0  0
  -28.4646  -13.6908   21.8477 H   0  0  0  0  0  0
  -25.2742   -9.5671   22.4800 H   0  0  0  0  0  0
  -23.9982   -7.4631   22.7493 H   0  0  0  0  0  0
  -21.0830   -8.8798   19.8974 H   0  0  0  0  0  0
  -22.3698  -10.9690   19.6200 H   0  0  0  0  0  0
  -21.1998   -7.6154   23.9720 H   0  0  0  0  0  0
  -21.1476   -6.0531   25.9079 H   0  0  0  0  0  0
  -22.0598   -2.7619   23.2851 H   0  0  0  0  0  0
  -22.4070  -11.9819   22.4767 H   0  0  0  0  0  0
  -21.1155  -13.1267   22.2636 H   0  0  0  0  0  0
  -24.6706  -15.8439   20.5348 H   0  0  0  0  0  0
  -26.2782  -15.6131   20.0655 H   0  0  0  0  0  0
  -26.7144  -32.5480   23.1151 H   0  0  0  0  0  0
  -25.0027  -33.9743   25.0461 H   0  0  0  0  0  0
  -22.7030  -31.3041   21.4079 H   0  0  0  0  0  0
  -23.3728  -35.9664   23.3333 H   0  0  0  0  0  0
  -24.3575  -36.8911   22.2059 H   0  0  0  0  0  0
  -23.7227  -37.6533   23.6641 H   0  0  0  0  0  0
  -26.0665  -31.5719   20.5956 H   0  0  0  0  0  0
  -26.8351  -30.8641   21.9877 H   0  0  0  0  0  0
  -28.1146  -29.0371   21.1614 H   0  0  0  0  0  0
  -26.0157  -25.9319   19.0236 H   0  0  0  0  0  0
  -23.9666  -27.2954   19.0342 H   0  0  0  0  0  0
  -23.7445  -30.5937   19.4057 H   0  0  0  0  0  0
  -22.7444  -29.2484   19.8635 H   0  0  0  0  0  0
  -25.1282  -36.2000   25.0836 H   0  0  0  0  0  0
  -20.9969  -28.3270   24.1426 H   0  0  0  0  0  0
  -20.5691  -26.2301   23.3665 H   0  0  0  0  0  0
  -21.6634  -26.7419   22.1254 H   0  0  0  0  0  0
  -19.6827  -25.6278   21.1305 H   0  0  0  0  0  0
  -19.6639  -27.3170   20.6767 H   0  0  0  0  0  0
  -17.4128  -26.6594   21.4171 H   0  0  0  0  0  0
  -18.0378  -26.0075   22.9161 H   0  0  0  0  0  0
  -19.7933  -30.7265   24.2248 H   0  0  0  0  0  0
  -17.5008  -31.6282   24.5158 H   0  0  0  0  0  0
  -15.5340  -30.2965   23.7678 H   0  0  0  0  0  0
  -15.8667  -28.0789   22.7098 H   0  0  0  0  0  0
  -24.5903  -30.7038   25.7828 H   0  0  0  0  0  0
  -24.8897  -32.2841   26.4968 H   0  0  0  0  0  0
  -25.8081  -30.8856   27.0244 H   0  0  0  0  0  0
  -26.2859  -29.6816   24.1182 H   0  0  0  0  0  0
  -27.4034  -29.7290   25.4629 H   0  0  0  0  0  0
  -27.8709  -30.4366   23.9328 H   0  0  0  0  0  0
  -27.2687  -33.3621   26.2101 H   0  0  0  0  0  0
  -28.3848  -32.6889   25.0314 H   0  0  0  0  0  0
  -28.0730  -31.8423   26.5402 H   0  0  0  0  0  0
  -28.2632  -38.0091   24.7490 H   0  0  0  0  0  0
  -28.1031  -36.2627   24.6331 H   0  0  0  0  0  0
  -27.2290  -37.1527   25.8871 H   0  0  0  0  0  0
  -20.9349  -29.8838   21.6989 H   0  0  0  0  0  0
  -26.0193  -38.2884   24.1376 H   0  0  0  0  0  0
  -27.5081  -16.9531   19.6596 H   0  0  0  0  0  0
  -24.2493  -20.3524   20.6791 H   0  0  0  0  0  0
  -23.4631  -19.8744   19.1681 H   0  0  0  0  0  0
  -23.5469  -21.5829   19.6119 H   0  0  0  0  0  0
  -30.4928  -17.3367   21.9609 H   0  0  0  0  0  0
  -31.1972  -17.2248   20.3762 H   0  0  0  0  0  0
  -27.7876  -22.4288   21.1683 H   0  0  0  0  0  0
  -29.5257  -22.5535   20.9785 H   0  0  0  0  0  0
  -28.9106  -25.1675   21.5535 H   0  0  0  0  0  0
  -27.2044  -25.1442   21.1952 H   0  0  0  0  0  0
  -28.0049  -21.7479   18.6472 H   0  0  0  0  0  0
  -28.9479  -15.4128   21.1858 H   0  0  0  0  0  0
  1 25  1  0  0  0
  1 30  2  0  0  0
  1 83  1  0  0  0
  2  3  1  0  0  0
  2 25  1  0  0  0
  2 88  1  0  0  0
  2 89  1  0  0  0
  3  4  1  0  0  0
  3 90  1  0  0  0
  3 91  1  0  0  0
  4  5  1  0  0  0
  4 92  1  0  0  0
  4 93  1  0  0  0
  5  6  1  0  0  0
  5 26  1  0  0  0
  5 94  1  0  0  0
  6 25  1  0  0  0
  6 95  1  0  0  0
  6 96  1  0  0  0
  7  8  2  0  0  0
  7 26  1  0  0  0
  7 29  1  0  0  0
  8  9  1  0  0  0
  8 22  1  0  0  0
  9 10  1  0  0  0
  9 27  2  0  0  0
 10 11  2  0  0  0
 10 15  1  0  0  0
 11 12  1  0  0  0
 11 97  1  0  0  0
 12 13  2  0  0  0
 12 98  1  0  0  0
 13 14  1  0  0  0
 13 31  1  0  0  0
 14 15  2  0  0  0
 14 99  1  0  0  0
 15100  1  0  0  0
 16 17  2  0  0  0
 16 21  1  0  0  0
 16 31  1  0  0  0
 17 18  1  0  0  0
 17101  1  0  0  0
 18 19  2  0  0  0
 18102  1  0  0  0
 19 20  1  0  0  0
 19 24  1  0  0  0
 20 21  2  0  0  0
 20103  1  0  0  0
 21 23  1  0  0  0
 22 28  1  0  0  0
 22 32  2  0  0  0
 26 27  1  0  0  0
 28104  1  0  0  0
 28105  1  0  0  0
 29106  1  0  0  0
 29107  1  0  0  0
 33 34  1  0  0  0
 33 66  1  0  0  0
 33 70  2  0  0  0
 34 36  1  0  0  0
 34 59  1  0  0  0
 34108  1  0  0  0
 35 44  2  0  0  0
 35 45  1  0  0  0
 35 68  1  0  0  0
 36 56  1  0  0  0
 36109  1  0  0  0
 37 39  1  0  0  0
 37 47  1  0  0  0
 37 66  1  0  0  0
 37110  1  0  0  0
 38 43  2  0  0  0
 38 46  1  0  0  0
 38 47  1  0  0  0
 39 64  1  0  0  0
 39 67  2  0  0  0
 40 52  1  0  0  0
 40 53  2  0  0  0
 40 58  1  0  0  0
 41111  1  0  0  0
 41112  1  0  0  0
 41113  1  0  0  0
 41 48  1  0  0  0
 42 43  1  0  0  0
 42 66  1  0  0  0
 42114  1  0  0  0
 42115  1  0  0  0
 43 44  1  0  0  0
 44116  1  0  0  0
 45 46  2  0  0  0
 45117  1  0  0  0
 46118  1  0  0  0
 47119  1  0  0  0
 47120  1  0  0  0
 48 56  1  0  0  0
 48 65  1  0  0  0
 48121  1  0  0  0
 49 50  1  0  0  0
 49 53  1  0  0  0
 49 64  1  0  0  0
 49122  1  0  0  0
 50 51  1  0  0  0
 50123  1  0  0  0
 50124  1  0  0  0
 51 52  1  0  0  0
 51125  1  0  0  0
 51126  1  0  0  0
 52127  1  0  0  0
 52128  1  0  0  0
 53 54  1  0  0  0
 54 55  2  0  0  0
 54129  1  0  0  0
 55 57  1  0  0  0
 55130  1  0  0  0
 56 69  2  0  0  0
 57 58  2  0  0  0
 57131  1  0  0  0
 58132  1  0  0  0
 59 60  1  0  0  0
 59 61  1  0  0  0
 59 62  1  0  0  0
 60133  1  0  0  0
 60134  1  0  0  0
 60135  1  0  0  0
 61136  1  0  0  0
 61137  1  0  0  0
 61138  1  0  0  0
 62139  1  0  0  0
 62140  1  0  0  0
 62141  1  0  0  0
 63 65  1  0  0  0
 63142  1  0  0  0
 63143  1  0  0  0
 63144  1  0  0  0
 64145  1  0  0  0
 65146  1  0  0  0
 68 81  1  0  0  0
 71 72  1  0  0  0
 71 73  2  0  0  0
 71147  1  0  0  0
 72 74  2  0  0  0
 72 75  1  0  0  0
 73 79  1  0  0  0
 73 87  1  0  0  0
 74 82  1  0  0  0
 74 87  1  0  0  0
 75 76  1  0  0  0
 75 84  2  0  0  0
 76 78  1  0  0  0
 76 85  2  0  0  0
 77 80  1  0  0  0
 77 81  1  0  0  0
 77 86  2  0  0  0
 78148  1  0  0  0
 78149  1  0  0  0
 78150  1  0  0  0
 79 83  1  0  0  0
 79151  1  0  0  0
 79152  1  0  0  0
 80 82  1  0  0  0
 80153  1  0  0  0
 80154  1  0  0  0
 81155  1  0  0  0
 81156  1  0  0  0
 82157  1  0  0  0
 83158  1  0  0  0
M  ISO  4   1 100  68 101  81 101  83 100
M  END
> <chiral flag>
0

> <version>
0

> <s_m_source_file>
/data/baiqing/PycharmProjects/Reinvent-master-3.2/result/LINK_invent/BTK/process_docking_weight1_custom_product_contain_oxygen_bond_distance_aromatic_linkinvent_7_9_3/rearranged_h_0171.sdf

> <i_m_source_file_index>
94

> <r_mmod_Potential_Energy-OPLS-2005>
-30.6819324493408

> <r_mmod_Stretch_Energy-OPLS-2005>
57.1388397216797

> <r_mmod_Bend_Energy-OPLS-2005>
121.766746520996

> <r_mmod_Torsional_Energy-OPLS-2005>
240.764450073242

> <r_mmod_Improper_Torsional_Energy-OPLS-2005>
9.77299118041992

> <r_mmod_Van_der_Waal_Energy-OPLS-2005>
111.208183288574

> <r_mmod_Electrostatic_Energy-OPLS-2005>
-337.980041503906

> <r_mmod_Solvation_Energy-OPLS-2005>
-263.95654296875

> <b_mmod_Minimization_Converged-OPLS-2005>
0

> <r_mmod_RMS_Derivative-OPLS-2005>
2.91682004928589

$$$$
94
                    3D
 Structure written by MMmdl.
153161  0  0  1  0            999 V2000
  -30.6236  -14.6069   20.5342 C   0  0  0  0  0  0
  -30.4349  -12.3769   19.4546 C   0  0  0  0  0  0
  -29.5114  -12.5326   18.2250 C   0  0  0  0  0  0
  -28.0305  -12.3629   18.6266 C   0  0  0  0  0  0
  -27.6535  -13.2152   19.8673 C   0  0  2  0  0  0
  -28.6939  -13.0391   20.9993 C   0  0  0  0  0  0
  -25.2522  -13.8162   20.5633 C   0  0  0  0  0  0
  -24.1793  -13.0434   20.9138 C   0  0  0  0  0  0
  -24.6366  -11.6906   20.8688 C   0  0  0  0  0  0
  -23.9034  -10.4297   21.0379 C   0  0  0  0  0  0
  -24.3604   -9.4235   21.9166 C   0  0  0  0  0  0
  -23.6292   -8.2258   22.0736 C   0  0  0  0  0  0
  -22.4281   -8.0261   21.3514 C   0  0  0  0  0  0
  -21.9909   -9.0236   20.4627 C   0  0  0  0  0  0
  -22.7208  -10.2130   20.3032 C   0  0  0  0  0  0
  -21.6864   -6.0716   22.5272 C   0  0  0  0  0  0
  -21.4019   -6.5625   23.8202 C   0  0  0  0  0  0
  -21.3655   -5.6772   24.9162 C   0  0  0  0  0  0
  -21.6063   -4.3034   24.7216 C   0  0  0  0  0  0
  -21.8815   -3.8117   23.4335 C   0  0  0  0  0  0
  -21.9187   -4.6936   22.3393 C   0  0  0  0  0  0
  -22.7823  -13.5238   21.1810 C   0  0  0  0  0  0
  -22.1661   -4.2107   21.0970 F   0  0  0  0  0  0
  -21.5647   -3.4529   25.7733 F   0  0  0  0  0  0
  -30.0173  -13.3820   20.4522 N   0  0  0  0  0  0
  -26.2958  -12.9358   20.3274 N   0  0  0  0  0  0
  -25.9292  -11.6513   20.5697 N   0  0  0  0  0  0
  -22.0448  -12.8241   22.0379 N   0  0  0  0  0  0
  -25.4236  -15.1876   20.4091 N   0  0  0  0  0  0
  -31.7699  -14.7838   20.1099 O   0  0  0  0  0  0
  -21.6637   -6.8859   21.4232 O   0  0  0  0  0  0
  -22.3522  -14.5541   20.6624 O   0  0  0  0  0  0
  -24.6255  -31.8624   23.2044 C   0  0  0  0  0  0
  -25.9107  -32.4796   23.8360 C   0  0  1  0  0  0
  -27.2083  -27.3192   20.1176 C   0  0  0  0  0  0
  -25.5926  -33.8594   24.2275 N   0  0  0  0  0  0
  -23.4156  -30.4900   21.5487 C   0  0  2  0  0  0
  -24.8599  -28.9528   20.1074 C   0  0  0  0  0  0
  -22.7461  -29.4646   22.4948 C   0  0  0  0  0  0
  -18.0275  -28.1391   22.8482 C   0  0  0  0  0  0
  -24.1500  -36.7330   23.2637 C   0  0  0  0  0  0
  -25.9583  -30.7945   21.3737 C   0  0  0  0  0  0
  -26.0317  -29.4229   20.7164 C   0  0  0  0  0  0
  -27.2092  -28.6177   20.7158 C   0  0  0  0  0  0
  -26.0154  -26.9171   19.4669 C   0  0  0  0  0  0
  -24.8544  -27.7042   19.4746 C   0  0  0  0  0  0
  -23.6273  -29.8296   20.1630 C   0  0  0  0  0  0
  -25.4126  -36.3098   24.0314 C   0  0  1  0  0  0
  -20.5877  -28.3685   23.1295 C   0  0  2  0  0  0
  -20.6770  -26.9417   22.5409 C   0  0  0  0  0  0
  -19.5754  -26.6380   21.5212 C   0  0  0  0  0  0
  -18.1933  -26.7927   22.1621 C   0  0  0  0  0  0
  -19.1530  -28.8849   23.2878 C   0  0  0  0  0  0
  -18.9449  -30.1457   23.8884 C   0  0  0  0  0  0
  -17.6455  -30.6585   24.0563 C   0  0  0  0  0  0
  -25.9051  -34.9460   23.5091 C   0  0  0  0  0  0
  -16.5342  -29.9081   23.6346 C   0  0  0  0  0  0
  -16.7270  -28.6507   23.0345 C   0  0  0  0  0  0
  -26.4465  -31.6596   25.0731 C   0  0  0  0  0  0
  -25.3681  -31.3760   26.1455 C   0  0  0  0  0  0
  -27.0282  -30.3008   24.6186 C   0  0  0  0  0  0
  -27.6029  -32.4314   25.7509 C   0  0  0  0  0  0
  -27.5597  -37.1823   24.8445 C   0  0  0  0  0  0
  -21.4170  -29.3041   22.3683 N   0  0  0  0  0  0
  -26.4306  -37.3791   23.9391 N   0  0  0  0  0  0
  -24.6865  -31.0636   22.1004 N   0  0  0  0  0  0
  -23.4195  -28.8193   23.3009 O   0  0  0  0  0  0
  -28.2983  -26.4350   20.1943 O   0  0  0  0  0  0
  -26.5614  -34.8922   22.4649 O   0  0  0  0  0  0
  -23.5422  -32.1421   23.7385 O   0  0  0  0  0  0
  -28.9029  -19.3079   21.3704 C   0  0  0  0  0  0
  -28.9122  -17.8855   21.4723 C   0  0  0  0  0  0
  -30.8903  -17.7844   20.1090 C   0  0  0  0  0  0
  -29.8922  -20.0121   20.6330 C   0  0  0  0  0  0
  -29.9061  -17.0808   20.8526 C   0  0  0  0  0  0
  -30.8853  -19.2050   20.0077 C   0  0  0  0  0  0
  -27.7315  -22.0880   19.7199 C   0  0  0  0  0  0
  -29.0328  -23.9146   20.5106 C   0  0  0  0  0  0
  -30.0031  -21.5892   20.5927 C   0  0  0  0  0  0
  -27.9758  -24.9924   20.0259 C   0  0  0  0  0  0
  -29.8376  -15.6265   20.9969 N   0  0  0  0  0  0
  -28.8581  -22.5459   20.3131 N   0  0  0  0  0  0
  -27.6670  -21.0743   19.0160 O   0  0  0  0  0  0
  -30.0558  -24.3418   21.0591 O   0  0  0  0  0  0
  -31.8782  -19.7984   19.3016 F   0  0  0  0  0  0
  -31.4807  -12.4927   19.1620 H   0  0  0  0  0  0
  -30.3490  -11.3723   19.8743 H   0  0  0  0  0  0
  -29.7840  -11.8125   17.4533 H   0  0  0  0  0  0
  -29.6534  -13.5209   17.7813 H   0  0  0  0  0  0
  -27.8631  -11.3065   18.8403 H   0  0  0  0  0  0
  -27.3824  -12.6076   17.7845 H   0  0  0  0  0  0
  -27.6816  -14.2551   19.5405 H   0  0  0  0  0  0
  -28.6941  -12.0090   21.3629 H   0  0  0  0  0  0
  -28.4390  -13.6542   21.8643 H   0  0  0  0  0  0
  -25.2767   -9.5730   22.4718 H   0  0  0  0  0  0
  -23.9996   -7.4672   22.7483 H   0  0  0  0  0  0
  -21.0818   -8.8736   19.8962 H   0  0  0  0  0  0
  -22.3634  -10.9653   19.6120 H   0  0  0  0  0  0
  -21.2015   -7.6131   23.9701 H   0  0  0  0  0  0
  -21.1499   -6.0497   25.9067 H   0  0  0  0  0  0
  -22.0603   -2.7573   23.2839 H   0  0  0  0  0  0
  -22.4086  -11.9958   22.4855 H   0  0  0  0  0  0
  -21.1056  -13.1273   22.2525 H   0  0  0  0  0  0
  -24.6531  -15.8397   20.5104 H   0  0  0  0  0  0
  -26.2763  -15.6334   20.0964 H   0  0  0  0  0  0
  -26.7175  -32.5482   23.1110 H   0  0  0  0  0  0
  -25.0037  -33.9711   25.0398 H   0  0  0  0  0  0
  -22.7082  -31.3114   21.4117 H   0  0  0  0  0  0
  -23.3740  -35.9688   23.3290 H   0  0  0  0  0  0
  -24.3604  -36.8968   22.2059 H   0  0  0  0  0  0
  -23.7270  -37.6537   23.6664 H   0  0  0  0  0  0
  -26.0788  -31.5567   20.6026 H   0  0  0  0  0  0
  -26.8431  -30.8464   21.9965 H   0  0  0  0  0  0
  -28.1035  -28.9675   21.2144 H   0  0  0  0  0  0
  -25.9332  -25.9723   18.9544 H   0  0  0  0  0  0
  -23.9585  -27.3398   18.9898 H   0  0  0  0  0  0
  -23.7391  -30.6065   19.4066 H   0  0  0  0  0  0
  -22.7461  -29.2568   19.8691 H   0  0  0  0  0  0
  -25.1309  -36.1948   25.0806 H   0  0  0  0  0  0
  -20.9964  -28.3268   24.1418 H   0  0  0  0  0  0
  -20.5699  -26.2298   23.3602 H   0  0  0  0  0  0
  -21.6645  -26.7474   22.1201 H   0  0  0  0  0  0
  -19.6923  -25.6288   21.1253 H   0  0  0  0  0  0
  -19.6701  -27.3184   20.6741 H   0  0  0  0  0  0
  -17.4207  -26.6666   21.4020 H   0  0  0  0  0  0
  -18.0341  -26.0077   22.9028 H   0  0  0  0  0  0
  -19.7924  -30.7273   24.2257 H   0  0  0  0  0  0
  -17.5006  -31.6271   24.5177 H   0  0  0  0  0  0
  -15.5344  -30.2974   23.7683 H   0  0  0  0  0  0
  -15.8668  -28.0839   22.7039 H   0  0  0  0  0  0
  -24.5799  -30.7185   25.7768 H   0  0  0  0  0  0
  -24.8932  -32.2949   26.4906 H   0  0  0  0  0  0
  -25.7972  -30.8887   27.0217 H   0  0  0  0  0  0
  -26.2851  -29.6783   24.1191 H   0  0  0  0  0  0
  -27.3928  -29.7244   25.4697 H   0  0  0  0  0  0
  -27.8743  -30.4256   23.9426 H   0  0  0  0  0  0
  -27.2622  -33.3578   26.2141 H   0  0  0  0  0  0
  -28.3821  -32.6943   25.0343 H   0  0  0  0  0  0
  -28.0718  -31.8407   26.5387 H   0  0  0  0  0  0
  -28.2590  -38.0146   24.7514 H   0  0  0  0  0  0
  -28.1104  -36.2664   24.6232 H   0  0  0  0  0  0
  -27.2309  -37.1444   25.8847 H   0  0  0  0  0  0
  -20.9349  -29.8752   21.6893 H   0  0  0  0  0  0
  -26.0181  -38.2871   24.1372 H   0  0  0  0  0  0
  -28.1299  -19.8592   21.8854 H   0  0  0  0  0  0
  -28.1320  -17.4126   22.0540 H   0  0  0  0  0  0
  -31.6758  -17.2454   19.6031 H   0  0  0  0  0  0
  -26.8384  -22.6685   20.0038 H   0  0  0  0  0  0
  -30.7882  -21.8505   19.8827 H   0  0  0  0  0  0
  -30.4190  -21.8504   21.5673 H   0  0  0  0  0  0
  -27.0589  -24.7804   20.5801 H   0  0  0  0  0  0
  -27.7922  -24.8075   18.9665 H   0  0  0  0  0  0
  -28.9835  -15.2906   21.4179 H   0  0  0  0  0  0
  1 25  1  0  0  0
  1 30  2  0  0  0
  1 81  1  0  0  0
  2  3  1  0  0  0
  2 25  1  0  0  0
  2 86  1  0  0  0
  2 87  1  0  0  0
  3  4  1  0  0  0
  3 88  1  0  0  0
  3 89  1  0  0  0
  4  5  1  0  0  0
  4 90  1  0  0  0
  4 91  1  0  0  0
  5  6  1  0  0  0
  5 26  1  0  0  0
  5 92  1  0  0  0
  6 25  1  0  0  0
  6 93  1  0  0  0
  6 94  1  0  0  0
  7  8  2  0  0  0
  7 26  1  0  0  0
  7 29  1  0  0  0
  8  9  1  0  0  0
  8 22  1  0  0  0
  9 10  1  0  0  0
  9 27  2  0  0  0
 10 11  2  0  0  0
 10 15  1  0  0  0
 11 12  1  0  0  0
 11 95  1  0  0  0
 12 13  2  0  0  0
 12 96  1  0  0  0
 13 14  1  0  0  0
 13 31  1  0  0  0
 14 15  2  0  0  0
 14 97  1  0  0  0
 15 98  1  0  0  0
 16 17  2  0  0  0
 16 21  1  0  0  0
 16 31  1  0  0  0
 17 18  1  0  0  0
 17 99  1  0  0  0
 18 19  2  0  0  0
 18100  1  0  0  0
 19 20  1  0  0  0
 19 24  1  0  0  0
 20 21  2  0  0  0
 20101  1  0  0  0
 21 23  1  0  0  0
 22 28  1  0  0  0
 22 32  2  0  0  0
 26 27  1  0  0  0
 28102  1  0  0  0
 28103  1  0  0  0
 29104  1  0  0  0
 29105  1  0  0  0
 33 34  1  0  0  0
 33 66  1  0  0  0
 33 70  2  0  0  0
 34 36  1  0  0  0
 34 59  1  0  0  0
 34106  1  0  0  0
 35 44  2  0  0  0
 35 45  1  0  0  0
 35 68  1  0  0  0
 36 56  1  0  0  0
 36107  1  0  0  0
 37 39  1  0  0  0
 37 47  1  0  0  0
 37 66  1  0  0  0
 37108  1  0  0  0
 38 43  2  0  0  0
 38 46  1  0  0  0
 38 47  1  0  0  0
 39 64  1  0  0  0
 39 67  2  0  0  0
 40 52  1  0  0  0
 40 53  2  0  0  0
 40 58  1  0  0  0
 41109  1  0  0  0
 41110  1  0  0  0
 41111  1  0  0  0
 41 48  1  0  0  0
 42 43  1  0  0  0
 42 66  1  0  0  0
 42112  1  0  0  0
 42113  1  0  0  0
 43 44  1  0  0  0
 44114  1  0  0  0
 45 46  2  0  0  0
 45115  1  0  0  0
 46116  1  0  0  0
 47117  1  0  0  0
 47118  1  0  0  0
 48 56  1  0  0  0
 48 65  1  0  0  0
 48119  1  0  0  0
 49 50  1  0  0  0
 49 53  1  0  0  0
 49 64  1  0  0  0
 49120  1  0  0  0
 50 51  1  0  0  0
 50121  1  0  0  0
 50122  1  0  0  0
 51 52  1  0  0  0
 51123  1  0  0  0
 51124  1  0  0  0
 52125  1  0  0  0
 52126  1  0  0  0
 53 54  1  0  0  0
 54 55  2  0  0  0
 54127  1  0  0  0
 55 57  1  0  0  0
 55128  1  0  0  0
 56 69  2  0  0  0
 57 58  2  0  0  0
 57129  1  0  0  0
 58130  1  0  0  0
 59 60  1  0  0  0
 59 61  1  0  0  0
 59 62  1  0  0  0
 60131  1  0  0  0
 60132  1  0  0  0
 60133  1  0  0  0
 61134  1  0  0  0
 61135  1  0  0  0
 61136  1  0  0  0
 62137  1  0  0  0
 62138  1  0  0  0
 62139  1  0  0  0
 63 65  1  0  0  0
 63140  1  0  0  0
 63141  1  0  0  0
 63142  1  0  0  0
 64143  1  0  0  0
 65144  1  0  0  0
 68 80  1  0  0  0
 71 72  2  0  0  0
 71 74  1  0  0  0
 71145  1  0  0  0
 72 75  1  0  0  0
 72146  1  0  0  0
 73 75  2  0  0  0
 73 76  1  0  0  0
 73147  1  0  0  0
 74 76  2  0  0  0
 74 79  1  0  0  0
 75 81  1  0  0  0
 76 85  1  0  0  0
 77 82  1  0  0  0
 77 83  2  0  0  0
 77148  1  0  0  0
 78 80  1  0  0  0
 78 82  1  0  0  0
 78 84  2  0  0  0
 79 82  1  0  0  0
 79149  1  0  0  0
 79150  1  0  0  0
 80151  1  0  0  0
 80152  1  0  0  0
 81153  1  0  0  0
M  ISO  4   1 100  68 101  80 101  81 100
M  END
> <chiral flag>
0

> <version>
0

> <s_m_source_file>
/data/baiqing/PycharmProjects/Reinvent-master-3.2/result/LINK_invent/BTK/process_docking_weight1_custom_product_contain_oxygen_bond_distance_aromatic_linkinvent_7_9_3/rearranged_h_0171.sdf

> <i_m_source_file_index>
95

> <r_mmod_Potential_Energy-OPLS-2005>
26.8605785369873

> <r_mmod_Stretch_Energy-OPLS-2005>
86.1701431274414

> <r_mmod_Bend_Energy-OPLS-2005>
145.796829223633

> <r_mmod_Torsional_Energy-OPLS-2005>
217.694961547852

> <r_mmod_Improper_Torsional_Energy-OPLS-2005>
4.54375219345093

> <r_mmod_Van_der_Waal_Energy-OPLS-2005>
168.253768920898

> <r_mmod_Electrostatic_Energy-OPLS-2005>
-390.877258300781

> <r_mmod_Solvation_Energy-OPLS-2005>
-251.212203979492

> <b_mmod_Minimization_Converged-OPLS-2005>
0

> <r_mmod_RMS_Derivative-OPLS-2005>
3.1826024055481

$$$$
95
                    3D
 Structure written by MMmdl.
159167  0  0  1  0            999 V2000
  -30.6668  -14.5482   20.5581 C   0  0  0  0  0  0
  -30.4339  -12.3453   19.4488 C   0  0  0  0  0  0
  -29.5075  -12.4950   18.2234 C   0  0  0  0  0  0
  -28.0278  -12.3404   18.6279 C   0  0  0  0  0  0
  -27.6565  -13.2050   19.8629 C   0  0  2  0  0  0
  -28.6914  -13.0228   20.9942 C   0  0  0  0  0  0
  -25.2575  -13.8155   20.5665 C   0  0  0  0  0  0
  -24.1813  -13.0455   20.9181 C   0  0  0  0  0  0
  -24.6326  -11.6907   20.8704 C   0  0  0  0  0  0
  -23.8980  -10.4314   21.0388 C   0  0  0  0  0  0
  -24.3554   -9.4236   21.9166 C   0  0  0  0  0  0
  -23.6249   -8.2258   22.0741 C   0  0  0  0  0  0
  -22.4231   -8.0277   21.3541 C   0  0  0  0  0  0
  -21.9841   -9.0250   20.4664 C   0  0  0  0  0  0
  -22.7139  -10.2139   20.3056 C   0  0  0  0  0  0
  -21.6857   -6.0713   22.5269 C   0  0  0  0  0  0
  -21.4027   -6.5606   23.8202 C   0  0  0  0  0  0
  -21.3656   -5.6767   24.9164 C   0  0  0  0  0  0
  -21.6042   -4.3034   24.7213 C   0  0  0  0  0  0
  -21.8818   -3.8120   23.4341 C   0  0  0  0  0  0
  -21.9205   -4.6946   22.3406 C   0  0  0  0  0  0
  -22.7843  -13.5301   21.1834 C   0  0  0  0  0  0
  -22.1669   -4.2127   21.0983 F   0  0  0  0  0  0
  -21.5627   -3.4509   25.7724 F   0  0  0  0  0  0
  -30.0224  -13.3470   20.4514 N   0  0  0  0  0  0
  -26.2971  -12.9303   20.3255 N   0  0  0  0  0  0
  -25.9239  -11.6467   20.5661 N   0  0  0  0  0  0
  -22.0442  -12.8361   22.0405 N   0  0  0  0  0  0
  -25.4354  -15.1872   20.4084 N   0  0  0  0  0  0
  -31.8075  -14.7015   20.1119 O   0  0  0  0  0  0
  -21.6632   -6.8842   21.4217 O   0  0  0  0  0  0
  -22.3550  -14.5589   20.6625 O   0  0  0  0  0  0
  -24.6193  -31.8631   23.2095 C   0  0  0  0  0  0
  -25.9070  -32.4799   23.8386 C   0  0  1  0  0  0
  -27.2091  -27.3752   20.1593 C   0  0  0  0  0  0
  -25.5908  -33.8598   24.2296 N   0  0  0  0  0  0
  -23.4127  -30.4879   21.5459 C   0  0  2  0  0  0
  -24.8579  -28.9491   20.1155 C   0  0  0  0  0  0
  -22.7453  -29.4608   22.4920 C   0  0  0  0  0  0
  -18.0292  -28.1394   22.8483 C   0  0  0  0  0  0
  -24.1486  -36.7307   23.2641 C   0  0  0  0  0  0
  -25.9482  -30.8093   21.3821 C   0  0  0  0  0  0
  -26.0178  -29.4449   20.7243 C   0  0  0  0  0  0
  -27.1999  -28.6669   20.7372 C   0  0  0  0  0  0
  -26.0403  -26.9089   19.5195 C   0  0  0  0  0  0
  -24.8660  -27.6845   19.5037 C   0  0  0  0  0  0
  -23.6302  -29.8289   20.1578 C   0  0  0  0  0  0
  -25.4110  -36.3087   24.0325 C   0  0  1  0  0  0
  -20.5886  -28.3668   23.1308 C   0  0  2  0  0  0
  -20.6760  -26.9383   22.5455 C   0  0  0  0  0  0
  -19.5760  -26.6387   21.5218 C   0  0  0  0  0  0
  -18.1925  -26.7953   22.1591 C   0  0  0  0  0  0
  -19.1545  -28.8850   23.2891 C   0  0  0  0  0  0
  -18.9467  -30.1456   23.8896 C   0  0  0  0  0  0
  -17.6466  -30.6579   24.0582 C   0  0  0  0  0  0
  -25.9038  -34.9459   23.5104 C   0  0  0  0  0  0
  -16.5354  -29.9086   23.6339 C   0  0  0  0  0  0
  -16.7281  -28.6517   23.0335 C   0  0  0  0  0  0
  -26.4483  -31.6625   25.0761 C   0  0  0  0  0  0
  -25.3751  -31.3882   26.1551 C   0  0  0  0  0  0
  -27.0253  -30.2997   24.6267 C   0  0  0  0  0  0
  -27.6073  -32.4378   25.7457 C   0  0  0  0  0  0
  -27.5614  -37.1768   24.8415 C   0  0  0  0  0  0
  -21.4172  -29.3003   22.3659 N   0  0  0  0  0  0
  -26.4279  -37.3790   23.9431 N   0  0  0  0  0  0
  -24.6766  -31.0705   22.1013 N   0  0  0  0  0  0
  -23.4198  -28.8144   23.2977 O   0  0  0  0  0  0
  -28.3349  -26.5789   20.2294 O   0  0  0  0  0  0
  -26.5592  -34.8907   22.4660 O   0  0  0  0  0  0
  -23.5372  -32.1386   23.7450 O   0  0  0  0  0  0
  -28.9896  -19.2161   21.0905 C   0  0  0  0  0  0
  -28.9441  -17.8044   21.2333 C   0  0  0  0  0  0
  -30.1791  -19.8289   20.6411 C   0  0  0  0  0  0
  -31.2768  -18.9627   20.3908 C   0  0  0  0  0  0
  -30.0731  -16.9999   20.9349 C   0  0  0  0  0  0
  -29.1194  -24.1607   18.7800 C   0  0  0  0  0  0
  -30.6261  -24.8238   20.6921 C   0  0  0  0  0  0
  -28.1448  -25.2430   20.7838 C   0  0  0  0  0  0
  -29.0791  -22.8035   20.9450 C   0  0  0  0  0  0
  -32.6364  -19.4859   19.9296 C   0  0  0  0  0  0
  -29.2462  -24.2438   20.3131 C   0  0  0  0  0  0
  -31.2149  -17.6088   20.5412 N   0  0  0  0  0  0
  -29.9207  -15.5707   21.0657 N   0  0  0  0  0  0
  -33.0204  -18.8797   18.8035 F   0  0  0  0  0  0
  -33.5530  -19.2764   20.8754 F   0  0  0  0  0  0
  -30.3253  -21.5944   20.2928 S   0  0  0  0  0  0
  -31.4744  -12.4611   19.1442 H   0  0  0  0  0  0
  -30.3618  -11.3398   19.8707 H   0  0  0  0  0  0
  -29.7695  -11.7500   17.4701 H   0  0  0  0  0  0
  -29.6630  -13.4684   17.7564 H   0  0  0  0  0  0
  -27.8569  -11.2863   18.8502 H   0  0  0  0  0  0
  -27.3816  -12.5801   17.7832 H   0  0  0  0  0  0
  -27.6939  -14.2452   19.5364 H   0  0  0  0  0  0
  -28.6768  -11.9905   21.3496 H   0  0  0  0  0  0
  -28.4294  -13.6320   21.8610 H   0  0  0  0  0  0
  -25.2694   -9.5737   22.4730 H   0  0  0  0  0  0
  -23.9980   -7.4659   22.7436 H   0  0  0  0  0  0
  -21.0779   -8.8750   19.8992 H   0  0  0  0  0  0
  -22.3561  -10.9671   19.6177 H   0  0  0  0  0  0
  -21.2007   -7.6111   23.9685 H   0  0  0  0  0  0
  -21.1483   -6.0501   25.9067 H   0  0  0  0  0  0
  -22.0603   -2.7579   23.2840 H   0  0  0  0  0  0
  -22.4000  -12.0068   22.4929 H   0  0  0  0  0  0
  -21.1059  -13.1463   22.2533 H   0  0  0  0  0  0
  -24.6716  -15.8450   20.5186 H   0  0  0  0  0  0
  -26.2698  -15.6115   20.0261 H   0  0  0  0  0  0
  -26.7130  -32.5471   23.1124 H   0  0  0  0  0  0
  -25.0067  -33.9766   25.0448 H   0  0  0  0  0  0
  -22.7043  -31.3059   21.4057 H   0  0  0  0  0  0
  -23.3768  -35.9613   23.3233 H   0  0  0  0  0  0
  -24.3588  -36.9019   22.2072 H   0  0  0  0  0  0
  -23.7210  -37.6465   23.6726 H   0  0  0  0  0  0
  -26.0932  -31.5770   20.6216 H   0  0  0  0  0  0
  -26.8236  -30.8389   22.0200 H   0  0  0  0  0  0
  -28.0911  -29.0277   21.2308 H   0  0  0  0  0  0
  -26.0230  -25.9359   19.0488 H   0  0  0  0  0  0
  -23.9755  -27.2978   19.0283 H   0  0  0  0  0  0
  -23.7673  -30.6086   19.4077 H   0  0  0  0  0  0
  -22.7526  -29.2634   19.8423 H   0  0  0  0  0  0
  -25.1284  -36.1913   25.0813 H   0  0  0  0  0  0
  -20.9992  -28.3255   24.1425 H   0  0  0  0  0  0
  -20.5623  -26.2268   23.3653 H   0  0  0  0  0  0
  -21.6638  -26.7380   22.1290 H   0  0  0  0  0  0
  -19.6908  -25.6297   21.1252 H   0  0  0  0  0  0
  -19.6752  -27.3193   20.6748 H   0  0  0  0  0  0
  -17.4232  -26.6775   21.3943 H   0  0  0  0  0  0
  -18.0249  -26.0075   22.8953 H   0  0  0  0  0  0
  -19.7947  -30.7280   24.2254 H   0  0  0  0  0  0
  -17.5021  -31.6247   24.5214 H   0  0  0  0  0  0
  -15.5353  -30.2977   23.7669 H   0  0  0  0  0  0
  -15.8693  -28.0842   22.7015 H   0  0  0  0  0  0
  -24.5825  -30.7305   25.7973 H   0  0  0  0  0  0
  -24.9064  -32.3117   26.4960 H   0  0  0  0  0  0
  -25.8100  -30.9093   27.0332 H   0  0  0  0  0  0
  -26.2794  -29.6800   24.1281 H   0  0  0  0  0  0
  -27.3835  -29.7242   25.4814 H   0  0  0  0  0  0
  -27.8743  -30.4187   23.9535 H   0  0  0  0  0  0
  -27.2640  -33.3575   26.2202 H   0  0  0  0  0  0
  -28.3732  -32.7146   25.0202 H   0  0  0  0  0  0
  -28.0928  -31.8456   26.5221 H   0  0  0  0  0  0
  -28.2578  -38.0118   24.7530 H   0  0  0  0  0  0
  -28.1155  -36.2658   24.6091 H   0  0  0  0  0  0
  -27.2386  -37.1273   25.8830 H   0  0  0  0  0  0
  -20.9335  -29.8691   21.6853 H   0  0  0  0  0  0
  -26.0157  -38.2842   24.1522 H   0  0  0  0  0  0
  -28.1122  -19.8108   21.3010 H   0  0  0  0  0  0
  -28.0180  -17.3471   21.5531 H   0  0  0  0  0  0
  -29.1667  -25.1516   18.3271 H   0  0  0  0  0  0
  -28.1615  -23.7219   18.4976 H   0  0  0  0  0  0
  -29.9133  -23.5691   18.3272 H   0  0  0  0  0  0
  -30.7799  -25.8145   20.2631 H   0  0  0  0  0  0
  -31.4387  -24.1974   20.3276 H   0  0  0  0  0  0
  -30.7385  -24.9172   21.7728 H   0  0  0  0  0  0
  -28.1297  -25.3031   21.8734 H   0  0  0  0  0  0
  -27.1779  -24.8150   20.5189 H   0  0  0  0  0  0
  -28.0667  -22.4330   20.7760 H   0  0  0  0  0  0
  -29.2017  -22.8667   22.0278 H   0  0  0  0  0  0
  -32.6536  -20.5531   19.7201 H   0  0  0  0  0  0
  -29.0398  -15.2734   21.4500 H   0  0  0  0  0  0
  1 25  1  0  0  0
  1 30  2  0  0  0
  1 83  1  0  0  0
  2  3  1  0  0  0
  2 25  1  0  0  0
  2 87  1  0  0  0
  2 88  1  0  0  0
  3  4  1  0  0  0
  3 89  1  0  0  0
  3 90  1  0  0  0
  4  5  1  0  0  0
  4 91  1  0  0  0
  4 92  1  0  0  0
  5  6  1  0  0  0
  5 26  1  0  0  0
  5 93  1  0  0  0
  6 25  1  0  0  0
  6 94  1  0  0  0
  6 95  1  0  0  0
  7  8  2  0  0  0
  7 26  1  0  0  0
  7 29  1  0  0  0
  8  9  1  0  0  0
  8 22  1  0  0  0
  9 10  1  0  0  0
  9 27  2  0  0  0
 10 11  2  0  0  0
 10 15  1  0  0  0
 11 12  1  0  0  0
 11 96  1  0  0  0
 12 13  2  0  0  0
 12 97  1  0  0  0
 13 14  1  0  0  0
 13 31  1  0  0  0
 14 15  2  0  0  0
 14 98  1  0  0  0
 15 99  1  0  0  0
 16 17  2  0  0  0
 16 21  1  0  0  0
 16 31  1  0  0  0
 17 18  1  0  0  0
 17100  1  0  0  0
 18 19  2  0  0  0
 18101  1  0  0  0
 19 20  1  0  0  0
 19 24  1  0  0  0
 20 21  2  0  0  0
 20102  1  0  0  0
 21 23  1  0  0  0
 22 28  1  0  0  0
 22 32  2  0  0  0
 26 27  1  0  0  0
 28103  1  0  0  0
 28104  1  0  0  0
 29105  1  0  0  0
 29106  1  0  0  0
 33 34  1  0  0  0
 33 66  1  0  0  0
 33 70  2  0  0  0
 34 36  1  0  0  0
 34 59  1  0  0  0
 34107  1  0  0  0
 35 44  2  0  0  0
 35 45  1  0  0  0
 35 68  1  0  0  0
 36 56  1  0  0  0
 36108  1  0  0  0
 37 39  1  0  0  0
 37 47  1  0  0  0
 37 66  1  0  0  0
 37109  1  0  0  0
 38 43  2  0  0  0
 38 46  1  0  0  0
 38 47  1  0  0  0
 39 64  1  0  0  0
 39 67  2  0  0  0
 40 52  1  0  0  0
 40 53  2  0  0  0
 40 58  1  0  0  0
 41110  1  0  0  0
 41111  1  0  0  0
 41112  1  0  0  0
 41 48  1  0  0  0
 42 43  1  0  0  0
 42 66  1  0  0  0
 42113  1  0  0  0
 42114  1  0  0  0
 43 44  1  0  0  0
 44115  1  0  0  0
 45 46  2  0  0  0
 45116  1  0  0  0
 46117  1  0  0  0
 47118  1  0  0  0
 47119  1  0  0  0
 48 56  1  0  0  0
 48 65  1  0  0  0
 48120  1  0  0  0
 49 50  1  0  0  0
 49 53  1  0  0  0
 49 64  1  0  0  0
 49121  1  0  0  0
 50 51  1  0  0  0
 50122  1  0  0  0
 50123  1  0  0  0
 51 52  1  0  0  0
 51124  1  0  0  0
 51125  1  0  0  0
 52126  1  0  0  0
 52127  1  0  0  0
 53 54  1  0  0  0
 54 55  2  0  0  0
 54128  1  0  0  0
 55 57  1  0  0  0
 55129  1  0  0  0
 56 69  2  0  0  0
 57 58  2  0  0  0
 57130  1  0  0  0
 58131  1  0  0  0
 59 60  1  0  0  0
 59 61  1  0  0  0
 59 62  1  0  0  0
 60132  1  0  0  0
 60133  1  0  0  0
 60134  1  0  0  0
 61135  1  0  0  0
 61136  1  0  0  0
 61137  1  0  0  0
 62138  1  0  0  0
 62139  1  0  0  0
 62140  1  0  0  0
 63 65  1  0  0  0
 63141  1  0  0  0
 63142  1  0  0  0
 63143  1  0  0  0
 64144  1  0  0  0
 65145  1  0  0  0
 68 78  1  0  0  0
 71 72  2  0  0  0
 71 73  1  0  0  0
 71146  1  0  0  0
 72 75  1  0  0  0
 72147  1  0  0  0
 73 74  2  0  0  0
 73 86  1  0  0  0
 74 80  1  0  0  0
 74 82  1  0  0  0
 75 82  2  0  0  0
 75 83  1  0  0  0
 76148  1  0  0  0
 76149  1  0  0  0
 76150  1  0  0  0
 76 81  1  0  0  0
 77 81  1  0  0  0
 77151  1  0  0  0
 77152  1  0  0  0
 77153  1  0  0  0
 78 81  1  0  0  0
 78154  1  0  0  0
 78155  1  0  0  0
 79 81  1  0  0  0
 79 86  1  0  0  0
 79156  1  0  0  0
 79157  1  0  0  0
 80 84  1  0  0  0
 80 85  1  0  0  0
 80158  1  0  0  0
 83159  1  0  0  0
M  ISO  4   1 100  68 101  78 101  83 100
M  END
> <chiral flag>
0

> <version>
0

> <s_m_source_file>
/data/baiqing/PycharmProjects/Reinvent-master-3.2/result/LINK_invent/BTK/process_docking_weight1_custom_product_contain_oxygen_bond_distance_aromatic_linkinvent_7_9_3/rearranged_h_0171.sdf

> <i_m_source_file_index>
96

> <r_mmod_Potential_Energy-OPLS-2005>
-78.3813323974609

> <r_mmod_Stretch_Energy-OPLS-2005>
51.5119972229004

> <r_mmod_Bend_Energy-OPLS-2005>
128.442779541016

> <r_mmod_Torsional_Energy-OPLS-2005>
223.164901733398

> <r_mmod_Improper_Torsional_Energy-OPLS-2005>
3.71116375923157

> <r_mmod_Van_der_Waal_Energy-OPLS-2005>
155.735427856445

> <r_mmod_Electrostatic_Energy-OPLS-2005>
-444.436431884766

> <r_mmod_Solvation_Energy-OPLS-2005>
-226.257690429688

> <b_mmod_Minimization_Converged-OPLS-2005>
0

> <r_mmod_RMS_Derivative-OPLS-2005>
4.07098245620728

$$$$
96
                    3D
 Structure written by MMmdl.
163171  0  0  1  0            999 V2000
  -30.7398  -14.4528   20.5547 C   0  0  0  0  0  0
  -30.4064  -12.2900   19.4301 C   0  0  0  0  0  0
  -29.4893  -12.4950   18.2086 C   0  0  0  0  0  0
  -28.0109  -12.3657   18.6202 C   0  0  0  0  0  0
  -27.6583  -13.2146   19.8719 C   0  0  2  0  0  0
  -28.7004  -13.0209   20.9973 C   0  0  0  0  0  0
  -25.2570  -13.8187   20.5697 C   0  0  0  0  0  0
  -24.1831  -13.0451   20.9191 C   0  0  0  0  0  0
  -24.6395  -11.6920   20.8742 C   0  0  0  0  0  0
  -23.9065  -10.4299   21.0404 C   0  0  0  0  0  0
  -24.3617   -9.4213   21.9180 C   0  0  0  0  0  0
  -23.6293   -8.2247   22.0752 C   0  0  0  0  0  0
  -22.4273   -8.0285   21.3544 C   0  0  0  0  0  0
  -21.9910   -9.0258   20.4643 C   0  0  0  0  0  0
  -22.7238  -10.2138   20.3052 C   0  0  0  0  0  0
  -21.6853   -6.0736   22.5279 C   0  0  0  0  0  0
  -21.4015   -6.5639   23.8214 C   0  0  0  0  0  0
  -21.3660   -5.6791   24.9175 C   0  0  0  0  0  0
  -21.6045   -4.3055   24.7224 C   0  0  0  0  0  0
  -21.8819   -3.8147   23.4345 C   0  0  0  0  0  0
  -21.9193   -4.6964   22.3401 C   0  0  0  0  0  0
  -22.7851  -13.5240   21.1852 C   0  0  0  0  0  0
  -22.1660   -4.2151   21.0979 F   0  0  0  0  0  0
  -21.5629   -3.4538   25.7736 F   0  0  0  0  0  0
  -30.0322  -13.2971   20.4370 N   0  0  0  0  0  0
  -26.3009  -12.9372   20.3366 N   0  0  0  0  0  0
  -25.9325  -11.6524   20.5777 N   0  0  0  0  0  0
  -22.0492  -12.8228   22.0405 N   0  0  0  0  0  0
  -25.4293  -15.1906   20.4112 N   0  0  0  0  0  0
  -31.8836  -14.5518   20.1079 O   0  0  0  0  0  0
  -21.6639   -6.8879   21.4240 O   0  0  0  0  0  0
  -22.3536  -14.5545   20.6700 O   0  0  0  0  0  0
  -24.6144  -31.8697   23.2130 C   0  0  0  0  0  0
  -25.9039  -32.4829   23.8413 C   0  0  1  0  0  0
  -27.2208  -27.4265   20.0910 C   0  0  0  0  0  0
  -25.5906  -33.8629   24.2340 N   0  0  0  0  0  0
  -23.4009  -30.4967   21.5542 C   0  0  2  0  0  0
  -24.8431  -28.9696   20.1118 C   0  0  0  0  0  0
  -22.7409  -29.4667   22.4994 C   0  0  0  0  0  0
  -18.0273  -28.1373   22.8492 C   0  0  0  0  0  0
  -24.1487  -36.7320   23.2637 C   0  0  0  0  0  0
  -25.9324  -30.8309   21.3703 C   0  0  0  0  0  0
  -26.0053  -29.4670   20.7140 C   0  0  0  0  0  0
  -27.1947  -28.7015   20.7046 C   0  0  0  0  0  0
  -26.0417  -26.9640   19.4556 C   0  0  0  0  0  0
  -24.8570  -27.7176   19.4803 C   0  0  0  0  0  0
  -23.6071  -29.8368   20.1661 C   0  0  0  0  0  0
  -25.4109  -36.3119   24.0338 C   0  0  1  0  0  0
  -20.5864  -28.3657   23.1322 C   0  0  2  0  0  0
  -20.6764  -26.9396   22.5418 C   0  0  0  0  0  0
  -19.5743  -26.6382   21.5214 C   0  0  0  0  0  0
  -18.1921  -26.7920   22.1623 C   0  0  0  0  0  0
  -19.1523  -28.8832   23.2901 C   0  0  0  0  0  0
  -18.9453  -30.1440   23.8908 C   0  0  0  0  0  0
  -17.6455  -30.6579   24.0564 C   0  0  0  0  0  0
  -25.9039  -34.9480   23.5133 C   0  0  0  0  0  0
  -16.5345  -29.9082   23.6328 C   0  0  0  0  0  0
  -16.7263  -28.6501   23.0346 C   0  0  0  0  0  0
  -26.4468  -31.6605   25.0739 C   0  0  0  0  0  0
  -25.3736  -31.3713   26.1492 C   0  0  0  0  0  0
  -27.0300  -30.3051   24.6108 C   0  0  0  0  0  0
  -27.6046  -32.4326   25.7499 C   0  0  0  0  0  0
  -27.5583  -37.1812   24.8462 C   0  0  0  0  0  0
  -21.4137  -29.3029   22.3731 N   0  0  0  0  0  0
  -26.4297  -37.3801   23.9406 N   0  0  0  0  0  0
  -24.6677  -31.0797   22.1037 N   0  0  0  0  0  0
  -23.4186  -28.8201   23.3025 O   0  0  0  0  0  0
  -28.3839  -26.6786   20.1300 O   0  0  0  0  0  0
  -26.5595  -34.8924   22.4691 O   0  0  0  0  0  0
  -23.5335  -32.1455   23.7523 O   0  0  0  0  0  0
  -31.5497  -17.3981   20.3355 C   0  0  0  0  0  0
  -32.0363  -18.7016   20.5073 C   0  0  0  0  0  0
  -29.8661  -17.7793   22.0615 C   0  0  0  0  0  0
  -30.3645  -19.1091   22.2369 C   0  0  0  0  0  0
  -30.5056  -16.8881   21.1498 C   0  0  0  0  0  0
  -31.4764  -19.5389   21.4793 C   0  0  0  0  0  0
  -29.0386  -24.4444   20.9686 C   0  0  0  0  0  0
  -28.6708  -17.2940   22.8783 C   0  0  0  0  0  0
  -27.8395  -21.2519   23.9324 C   0  0  0  0  0  0
  -29.7805  -20.0607   23.2865 C   0  0  0  0  0  0
  -28.2572  -25.2561   19.9258 C   0  0  0  0  0  0
  -29.3129  -22.2383   22.3048 C   0  0  0  0  0  0
  -28.3825  -23.1194   21.4212 C   0  0  0  0  0  0
  -30.0781  -15.5146   21.0665 N   0  0  0  0  0  0
  -28.7254  -20.9700   22.8009 N   0  0  0  0  0  0
  -30.1186  -24.8413   21.4221 O   0  0  0  0  0  0
  -32.0299  -20.7578   21.6838 F   0  0  0  0  0  0
  -27.2606  -23.4326   22.0702 F   0  0  0  0  0  0
  -28.0534  -22.4087   20.3403 F   0  0  0  0  0  0
  -31.4542  -12.3531   19.1307 H   0  0  0  0  0  0
  -30.2790  -11.2869   19.8408 H   0  0  0  0  0  0
  -29.7255  -11.7649   17.4335 H   0  0  0  0  0  0
  -29.6676  -13.4780   17.7696 H   0  0  0  0  0  0
  -27.8171  -11.3114   18.8213 H   0  0  0  0  0  0
  -27.3624  -12.6385   17.7869 H   0  0  0  0  0  0
  -27.6963  -14.2594   19.5627 H   0  0  0  0  0  0
  -28.6694  -11.9966   21.3717 H   0  0  0  0  0  0
  -28.4712  -13.6546   21.8549 H   0  0  0  0  0  0
  -25.2762   -9.5688   22.4755 H   0  0  0  0  0  0
  -24.0004   -7.4637   22.7469 H   0  0  0  0  0  0
  -21.0843   -8.8776   19.8947 H   0  0  0  0  0  0
  -22.3697  -10.9677   19.6161 H   0  0  0  0  0  0
  -21.2006   -7.6149   23.9718 H   0  0  0  0  0  0
  -21.1482   -6.0521   25.9078 H   0  0  0  0  0  0
  -22.0597   -2.7610   23.2844 H   0  0  0  0  0  0
  -22.4106  -11.9888   22.4791 H   0  0  0  0  0  0
  -21.1108  -13.1250   22.2606 H   0  0  0  0  0  0
  -24.6626  -15.8456   20.5172 H   0  0  0  0  0  0
  -26.2805  -15.6286   20.0824 H   0  0  0  0  0  0
  -26.7107  -32.5537   23.1170 H   0  0  0  0  0  0
  -25.0067  -33.9802   25.0489 H   0  0  0  0  0  0
  -22.6892  -31.3141   21.4202 H   0  0  0  0  0  0
  -23.3748  -35.9655   23.3315 H   0  0  0  0  0  0
  -24.3581  -36.8922   22.2048 H   0  0  0  0  0  0
  -23.7245  -37.6530   23.6642 H   0  0  0  0  0  0
  -26.0491  -31.5985   20.6038 H   0  0  0  0  0  0
  -26.8195  -30.8795   21.9897 H   0  0  0  0  0  0
  -28.0886  -29.0776   21.1829 H   0  0  0  0  0  0
  -26.0043  -26.0290   18.9177 H   0  0  0  0  0  0
  -23.9680  -27.3368   18.9960 H   0  0  0  0  0  0
  -23.7152  -30.6151   19.4101 H   0  0  0  0  0  0
  -22.7300  -29.2589   19.8686 H   0  0  0  0  0  0
  -25.1282  -36.1989   25.0832 H   0  0  0  0  0  0
  -20.9952  -28.3221   24.1444 H   0  0  0  0  0  0
  -20.5679  -26.2261   23.3598 H   0  0  0  0  0  0
  -21.6631  -26.7449   22.1197 H   0  0  0  0  0  0
  -19.6910  -25.6300   21.1230 H   0  0  0  0  0  0
  -19.6688  -27.3206   20.6753 H   0  0  0  0  0  0
  -17.4191  -26.6674   21.4022 H   0  0  0  0  0  0
  -18.0315  -26.0060   22.9016 H   0  0  0  0  0  0
  -19.7933  -30.7248   24.2281 H   0  0  0  0  0  0
  -17.5015  -31.6265   24.5156 H   0  0  0  0  0  0
  -15.5348  -30.2983   23.7652 H   0  0  0  0  0  0
  -15.8664  -28.0826   22.7048 H   0  0  0  0  0  0
  -24.5905  -30.7062   25.7834 H   0  0  0  0  0  0
  -24.8931  -32.2869   26.4949 H   0  0  0  0  0  0
  -25.8094  -30.8879   27.0244 H   0  0  0  0  0  0
  -26.2845  -29.6820   24.1150 H   0  0  0  0  0  0
  -27.4064  -29.7275   25.4560 H   0  0  0  0  0  0
  -27.8682  -30.4376   23.9263 H   0  0  0  0  0  0
  -27.2665  -33.3612   26.2106 H   0  0  0  0  0  0
  -28.3837  -32.6911   25.0317 H   0  0  0  0  0  0
  -28.0729  -31.8435   26.5390 H   0  0  0  0  0  0
  -28.2599  -38.0110   24.7516 H   0  0  0  0  0  0
  -28.1082  -36.2643   24.6281 H   0  0  0  0  0  0
  -27.2301  -37.1453   25.8864 H   0  0  0  0  0  0
  -20.9291  -29.8770   21.6976 H   0  0  0  0  0  0
  -26.0192  -38.2881   24.1412 H   0  0  0  0  0  0
  -32.0268  -16.8077   19.5696 H   0  0  0  0  0  0
  -32.8624  -19.0536   19.9066 H   0  0  0  0  0  0
  -29.0025  -16.9037   23.8410 H   0  0  0  0  0  0
  -28.1093  -16.5111   22.3694 H   0  0  0  0  0  0
  -27.9564  -18.0971   23.0588 H   0  0  0  0  0  0
  -27.4350  -20.3270   24.3478 H   0  0  0  0  0  0
  -26.9750  -21.8471   23.6457 H   0  0  0  0  0  0
  -28.3596  -21.7762   24.7367 H   0  0  0  0  0  0
  -30.5915  -20.6356   23.7388 H   0  0  0  0  0  0
  -29.4119  -19.4428   24.1059 H   0  0  0  0  0  0
  -27.2336  -24.9005   20.0134 H   0  0  0  0  0  0
  -28.6100  -24.9967   18.9276 H   0  0  0  0  0  0
  -29.6993  -22.8203   23.1437 H   0  0  0  0  0  0
  -30.1741  -22.0111   21.6827 H   0  0  0  0  0  0
  -29.1727  -15.3038   21.4558 H   0  0  0  0  0  0
  1 25  1  0  0  0
  1 30  2  0  0  0
  1 84  1  0  0  0
  2  3  1  0  0  0
  2 25  1  0  0  0
  2 90  1  0  0  0
  2 91  1  0  0  0
  3  4  1  0  0  0
  3 92  1  0  0  0
  3 93  1  0  0  0
  4  5  1  0  0  0
  4 94  1  0  0  0
  4 95  1  0  0  0
  5  6  1  0  0  0
  5 26  1  0  0  0
  5 96  1  0  0  0
  6 25  1  0  0  0
  6 97  1  0  0  0
  6 98  1  0  0  0
  7  8  2  0  0  0
  7 26  1  0  0  0
  7 29  1  0  0  0
  8  9  1  0  0  0
  8 22  1  0  0  0
  9 10  1  0  0  0
  9 27  2  0  0  0
 10 11  2  0  0  0
 10 15  1  0  0  0
 11 12  1  0  0  0
 11 99  1  0  0  0
 12 13  2  0  0  0
 12100  1  0  0  0
 13 14  1  0  0  0
 13 31  1  0  0  0
 14 15  2  0  0  0
 14101  1  0  0  0
 15102  1  0  0  0
 16 17  2  0  0  0
 16 21  1  0  0  0
 16 31  1  0  0  0
 17 18  1  0  0  0
 17103  1  0  0  0
 18 19  2  0  0  0
 18104  1  0  0  0
 19 20  1  0  0  0
 19 24  1  0  0  0
 20 21  2  0  0  0
 20105  1  0  0  0
 21 23  1  0  0  0
 22 28  1  0  0  0
 22 32  2  0  0  0
 26 27  1  0  0  0
 28106  1  0  0  0
 28107  1  0  0  0
 29108  1  0  0  0
 29109  1  0  0  0
 33 34  1  0  0  0
 33 66  1  0  0  0
 33 70  2  0  0  0
 34 36  1  0  0  0
 34 59  1  0  0  0
 34110  1  0  0  0
 35 44  2  0  0  0
 35 45  1  0  0  0
 35 68  1  0  0  0
 36 56  1  0  0  0
 36111  1  0  0  0
 37 39  1  0  0  0
 37 47  1  0  0  0
 37 66  1  0  0  0
 37112  1  0  0  0
 38 43  2  0  0  0
 38 46  1  0  0  0
 38 47  1  0  0  0
 39 64  1  0  0  0
 39 67  2  0  0  0
 40 52  1  0  0  0
 40 53  2  0  0  0
 40 58  1  0  0  0
 41113  1  0  0  0
 41114  1  0  0  0
 41115  1  0  0  0
 41 48  1  0  0  0
 42 43  1  0  0  0
 42 66  1  0  0  0
 42116  1  0  0  0
 42117  1  0  0  0
 43 44  1  0  0  0
 44118  1  0  0  0
 45 46  2  0  0  0
 45119  1  0  0  0
 46120  1  0  0  0
 47121  1  0  0  0
 47122  1  0  0  0
 48 56  1  0  0  0
 48 65  1  0  0  0
 48123  1  0  0  0
 49 50  1  0  0  0
 49 53  1  0  0  0
 49 64  1  0  0  0
 49124  1  0  0  0
 50 51  1  0  0  0
 50125  1  0  0  0
 50126  1  0  0  0
 51 52  1  0  0  0
 51127  1  0  0  0
 51128  1  0  0  0
 52129  1  0  0  0
 52130  1  0  0  0
 53 54  1  0  0  0
 54 55  2  0  0  0
 54131  1  0  0  0
 55 57  1  0  0  0
 55132  1  0  0  0
 56 69  2  0  0  0
 57 58  2  0  0  0
 57133  1  0  0  0
 58134  1  0  0  0
 59 60  1  0  0  0
 59 61  1  0  0  0
 59 62  1  0  0  0
 60135  1  0  0  0
 60136  1  0  0  0
 60137  1  0  0  0
 61138  1  0  0  0
 61139  1  0  0  0
 61140  1  0  0  0
 62141  1  0  0  0
 62142  1  0  0  0
 62143  1  0  0  0
 63 65  1  0  0  0
 63144  1  0  0  0
 63145  1  0  0  0
 63146  1  0  0  0
 64147  1  0  0  0
 65148  1  0  0  0
 68 81  1  0  0  0
 71 72  2  0  0  0
 71 75  1  0  0  0
 71149  1  0  0  0
 72 76  1  0  0  0
 72150  1  0  0  0
 73 74  1  0  0  0
 73 75  2  0  0  0
 73 78  1  0  0  0
 74 76  2  0  0  0
 74 80  1  0  0  0
 75 84  1  0  0  0
 76 87  1  0  0  0
 77 81  1  0  0  0
 77 83  1  0  0  0
 77 86  2  0  0  0
 78151  1  0  0  0
 78152  1  0  0  0
 78153  1  0  0  0
 79 85  1  0  0  0
 79154  1  0  0  0
 79155  1  0  0  0
 79156  1  0  0  0
 80 85  1  0  0  0
 80157  1  0  0  0
 80158  1  0  0  0
 81159  1  0  0  0
 81160  1  0  0  0
 82 83  1  0  0  0
 82 85  1  0  0  0
 82161  1  0  0  0
 82162  1  0  0  0
 83 88  1  0  0  0
 83 89  1  0  0  0
 84163  1  0  0  0
M  ISO  4   1 100  68 101  81 101  84 100
M  END
> <chiral flag>
0

> <version>
0

> <s_m_source_file>
/data/baiqing/PycharmProjects/Reinvent-master-3.2/result/LINK_invent/BTK/process_docking_weight1_custom_product_contain_oxygen_bond_distance_aromatic_linkinvent_7_9_3/rearranged_h_0171.sdf

> <i_m_source_file_index>
97

> <r_mmod_Potential_Energy-OPLS-2005>
96.3999786376953

> <r_mmod_Stretch_Energy-OPLS-2005>
44.7645263671875

> <r_mmod_Bend_Energy-OPLS-2005>
104.915184020996

> <r_mmod_Torsional_Energy-OPLS-2005>
250.259628295898

> <r_mmod_Improper_Torsional_Energy-OPLS-2005>
3.05502486228943

> <r_mmod_Van_der_Waal_Energy-OPLS-2005>
181.037750244141

> <r_mmod_Electrostatic_Energy-OPLS-2005>
-292.183410644531

> <r_mmod_Solvation_Energy-OPLS-2005>
-212.051055908203

> <b_mmod_Minimization_Converged-OPLS-2005>
0

> <r_mmod_RMS_Derivative-OPLS-2005>
0.664004027843475

$$$$
97
                    3D
 Structure written by MMmdl.
155163  0  0  1  0            999 V2000
  -30.6973  -14.5046   20.5534 C   0  0  0  0  0  0
  -30.4228  -12.3219   19.4281 C   0  0  0  0  0  0
  -29.4962  -12.4970   18.2089 C   0  0  0  0  0  0
  -28.0171  -12.3568   18.6226 C   0  0  0  0  0  0
  -27.6579  -13.2100   19.8695 C   0  0  2  0  0  0
  -28.7017  -13.0204   20.9938 C   0  0  0  0  0  0
  -25.2578  -13.8176   20.5697 C   0  0  0  0  0  0
  -24.1825  -13.0447   20.9177 C   0  0  0  0  0  0
  -24.6379  -11.6915   20.8715 C   0  0  0  0  0  0
  -23.9038  -10.4304   21.0393 C   0  0  0  0  0  0
  -24.3595   -9.4228   21.9180 C   0  0  0  0  0  0
  -23.6283   -8.2248   22.0739 C   0  0  0  0  0  0
  -22.4261   -8.0285   21.3539 C   0  0  0  0  0  0
  -21.9899   -9.0247   20.4635 C   0  0  0  0  0  0
  -22.7205  -10.2143   20.3054 C   0  0  0  0  0  0
  -21.6854   -6.0731   22.5276 C   0  0  0  0  0  0
  -21.4012   -6.5628   23.8216 C   0  0  0  0  0  0
  -21.3661   -5.6779   24.9171 C   0  0  0  0  0  0
  -21.6051   -4.3045   24.7225 C   0  0  0  0  0  0
  -21.8820   -3.8139   23.4347 C   0  0  0  0  0  0
  -21.9192   -4.6952   22.3405 C   0  0  0  0  0  0
  -22.7852  -13.5249   21.1845 C   0  0  0  0  0  0
  -22.1661   -4.2141   21.0978 F   0  0  0  0  0  0
  -21.5632   -3.4534   25.7738 F   0  0  0  0  0  0
  -30.0293  -13.3232   20.4342 N   0  0  0  0  0  0
  -26.3009  -12.9343   20.3375 N   0  0  0  0  0  0
  -25.9309  -11.6499   20.5760 N   0  0  0  0  0  0
  -22.0483  -12.8251   22.0404 N   0  0  0  0  0  0
  -25.4313  -15.1898   20.4161 N   0  0  0  0  0  0
  -31.8432  -14.6511   20.1198 O   0  0  0  0  0  0
  -21.6638   -6.8873   21.4239 O   0  0  0  0  0  0
  -22.3542  -14.5553   20.6686 O   0  0  0  0  0  0
  -24.6159  -31.8655   23.2107 C   0  0  0  0  0  0
  -25.9046  -32.4820   23.8391 C   0  0  1  0  0  0
  -27.2326  -27.4031   20.0888 C   0  0  0  0  0  0
  -25.5893  -33.8611   24.2331 N   0  0  0  0  0  0
  -23.4033  -30.4914   21.5500 C   0  0  2  0  0  0
  -24.8481  -28.9499   20.1218 C   0  0  0  0  0  0
  -22.7406  -29.4641   22.4955 C   0  0  0  0  0  0
  -18.0273  -28.1365   22.8501 C   0  0  0  0  0  0
  -24.1475  -36.7319   23.2643 C   0  0  0  0  0  0
  -25.9330  -30.8246   21.3612 C   0  0  0  0  0  0
  -26.0112  -29.4530   20.7167 C   0  0  0  0  0  0
  -27.2021  -28.6845   20.6994 C   0  0  0  0  0  0
  -26.0377  -26.9179   19.5034 C   0  0  0  0  0  0
  -24.8570  -27.6835   19.5180 C   0  0  0  0  0  0
  -23.6134  -29.8245   20.1656 C   0  0  0  0  0  0
  -25.4107  -36.3114   24.0341 C   0  0  1  0  0  0
  -20.5861  -28.3672   23.1312 C   0  0  2  0  0  0
  -20.6738  -26.9400   22.5419 C   0  0  0  0  0  0
  -19.5724  -26.6376   21.5204 C   0  0  0  0  0  0
  -18.1913  -26.7905   22.1620 C   0  0  0  0  0  0
  -19.1524  -28.8826   23.2912 C   0  0  0  0  0  0
  -18.9448  -30.1427   23.8934 C   0  0  0  0  0  0
  -17.6450  -30.6580   24.0555 C   0  0  0  0  0  0
  -25.9033  -34.9473   23.5149 C   0  0  0  0  0  0
  -16.5341  -29.9093   23.6299 C   0  0  0  0  0  0
  -16.7259  -28.6495   23.0347 C   0  0  0  0  0  0
  -26.4485  -31.6595   25.0706 C   0  0  0  0  0  0
  -25.3773  -31.3662   26.1470 C   0  0  0  0  0  0
  -27.0276  -30.3046   24.6020 C   0  0  0  0  0  0
  -27.6059  -32.4303   25.7468 C   0  0  0  0  0  0
  -27.5579  -37.1822   24.8475 C   0  0  0  0  0  0
  -21.4133  -29.3048   22.3712 N   0  0  0  0  0  0
  -26.4292  -37.3812   23.9415 N   0  0  0  0  0  0
  -24.6700  -31.0730   22.1016 N   0  0  0  0  0  0
  -23.4176  -28.8165   23.2992 O   0  0  0  0  0  0
  -28.4266  -26.6914   20.0836 O   0  0  0  0  0  0
  -26.5586  -34.8926   22.4705 O   0  0  0  0  0  0
  -23.5357  -32.1373   23.7533 O   0  0  0  0  0  0
  -30.8778  -19.7406   21.0008 C   0  0  0  0  0  0
  -31.6307  -17.4213   21.1896 C   0  0  0  0  0  0
  -29.5452  -19.3088   20.8220 C   0  0  0  0  0  0
  -30.3075  -16.9501   21.0068 C   0  0  0  0  0  0
  -31.9113  -18.8026   21.1804 C   0  0  0  0  0  0
  -29.2716  -17.9094   20.8437 C   0  0  0  0  0  0
  -28.7553  -22.7721   20.0045 C   0  0  0  0  0  0
  -28.4115  -20.3199   20.5775 C   0  0  0  0  0  0
  -28.5167  -25.3573   19.5153 C   0  0  0  0  0  0
  -28.5126  -24.2054   20.5767 C   0  0  1  0  0  0
  -29.9688  -15.5492   21.0104 N   0  0  0  0  0  0
  -28.6630  -21.7473   20.8798 N   0  0  0  0  0  0
  -28.9414  -22.5877   18.8006 O   0  0  0  0  0  0
  -27.2539  -24.1957   21.2382 O   0  0  0  0  0  0
  -33.1852  -19.2323   21.3444 F   0  0  0  0  0  0
  -27.9983  -17.4717   20.6876 F   0  0  0  0  0  0
  -31.4655  -12.4208   19.1236 H   0  0  0  0  0  0
  -30.3290  -11.3167   19.8423 H   0  0  0  0  0  0
  -29.7386  -11.7604   17.4417 H   0  0  0  0  0  0
  -29.6591  -13.4762   17.7554 H   0  0  0  0  0  0
  -27.8318  -11.3010   18.8307 H   0  0  0  0  0  0
  -27.3648  -12.6190   17.7870 H   0  0  0  0  0  0
  -27.6926  -14.2540   19.5546 H   0  0  0  0  0  0
  -28.6837  -11.9936   21.3618 H   0  0  0  0  0  0
  -28.4649  -13.6453   21.8563 H   0  0  0  0  0  0
  -25.2755   -9.5706   22.4747 H   0  0  0  0  0  0
  -23.9997   -7.4648   22.7470 H   0  0  0  0  0  0
  -21.0829   -8.8763   19.8955 H   0  0  0  0  0  0
  -22.3663  -10.9668   19.6157 H   0  0  0  0  0  0
  -21.1999   -7.6138   23.9712 H   0  0  0  0  0  0
  -21.1483   -6.0512   25.9076 H   0  0  0  0  0  0
  -22.0597   -2.7603   23.2849 H   0  0  0  0  0  0
  -22.4080  -11.9925   22.4820 H   0  0  0  0  0  0
  -21.1103  -13.1291   22.2582 H   0  0  0  0  0  0
  -24.6715  -15.8465   20.5541 H   0  0  0  0  0  0
  -26.2962  -15.6432   20.1481 H   0  0  0  0  0  0
  -26.7089  -32.5527   23.1126 H   0  0  0  0  0  0
  -25.0036  -33.9761   25.0472 H   0  0  0  0  0  0
  -22.6967  -31.3126   21.4149 H   0  0  0  0  0  0
  -23.3726  -35.9660   23.3315 H   0  0  0  0  0  0
  -24.3574  -36.8922   22.2054 H   0  0  0  0  0  0
  -23.7226  -37.6535   23.6644 H   0  0  0  0  0  0
  -26.0309  -31.5837   20.5838 H   0  0  0  0  0  0
  -26.8278  -30.8965   21.9674 H   0  0  0  0  0  0
  -28.1040  -29.0690   21.1542 H   0  0  0  0  0  0
  -25.9742  -25.9502   19.0319 H   0  0  0  0  0  0
  -23.9578  -27.2906   19.0640 H   0  0  0  0  0  0
  -23.7273  -30.6000   19.4065 H   0  0  0  0  0  0
  -22.7335  -29.2522   19.8639 H   0  0  0  0  0  0
  -25.1274  -36.1981   25.0832 H   0  0  0  0  0  0
  -20.9979  -28.3235   24.1421 H   0  0  0  0  0  0
  -20.5596  -26.2289   23.3624 H   0  0  0  0  0  0
  -21.6619  -26.7390   22.1245 H   0  0  0  0  0  0
  -19.6885  -25.6295   21.1231 H   0  0  0  0  0  0
  -19.6656  -27.3178   20.6732 H   0  0  0  0  0  0
  -17.4171  -26.6654   21.4028 H   0  0  0  0  0  0
  -18.0332  -26.0037   22.9012 H   0  0  0  0  0  0
  -19.7933  -30.7226   24.2332 H   0  0  0  0  0  0
  -17.5015  -31.6266   24.5155 H   0  0  0  0  0  0
  -15.5355  -30.3009   23.7604 H   0  0  0  0  0  0
  -15.8650  -28.0822   22.7059 H   0  0  0  0  0  0
  -24.5966  -30.6976   25.7826 H   0  0  0  0  0  0
  -24.8928  -32.2783   26.4957 H   0  0  0  0  0  0
  -25.8169  -30.8827   27.0204 H   0  0  0  0  0  0
  -26.2760  -29.6844   24.1111 H   0  0  0  0  0  0
  -27.4110  -29.7253   25.4429 H   0  0  0  0  0  0
  -27.8585  -30.4385   23.9086 H   0  0  0  0  0  0
  -27.2682  -33.3602   26.2062 H   0  0  0  0  0  0
  -28.3867  -32.6864   25.0292 H   0  0  0  0  0  0
  -28.0715  -31.8397   26.5372 H   0  0  0  0  0  0
  -28.2617  -38.0099   24.7505 H   0  0  0  0  0  0
  -28.1042  -36.2631   24.6305 H   0  0  0  0  0  0
  -27.2293  -37.1490   25.8880 H   0  0  0  0  0  0
  -20.9287  -29.8839   21.6999 H   0  0  0  0  0  0
  -26.0170  -38.2889   24.1424 H   0  0  0  0  0  0
  -31.1217  -20.7939   20.9906 H   0  0  0  0  0  0
  -32.4502  -16.7351   21.3396 H   0  0  0  0  0  0
  -27.5659  -20.0171   21.1968 H   0  0  0  0  0  0
  -28.0715  -20.2038   19.5470 H   0  0  0  0  0  0
  -29.4920  -25.3384   19.0266 H   0  0  0  0  0  0
  -27.8308  -25.1661   18.6932 H   0  0  0  0  0  0
  -29.2941  -24.4072   21.3105 H   0  0  0  0  0  0
  -28.9999  -15.3415   21.2023 H   0  0  0  0  0  0
  -28.4952  -22.0361   21.8343 H   0  0  0  0  0  0
  -26.6022  -24.0076   20.5718 H   0  0  0  0  0  0
  1 25  1  0  0  0
  1 30  2  0  0  0
  1 81  1  0  0  0
  2  3  1  0  0  0
  2 25  1  0  0  0
  2 87  1  0  0  0
  2 88  1  0  0  0
  3  4  1  0  0  0
  3 89  1  0  0  0
  3 90  1  0  0  0
  4  5  1  0  0  0
  4 91  1  0  0  0
  4 92  1  0  0  0
  5  6  1  0  0  0
  5 26  1  0  0  0
  5 93  1  0  0  0
  6 25  1  0  0  0
  6 94  1  0  0  0
  6 95  1  0  0  0
  7  8  2  0  0  0
  7 26  1  0  0  0
  7 29  1  0  0  0
  8  9  1  0  0  0
  8 22  1  0  0  0
  9 10  1  0  0  0
  9 27  2  0  0  0
 10 11  2  0  0  0
 10 15  1  0  0  0
 11 12  1  0  0  0
 11 96  1  0  0  0
 12 13  2  0  0  0
 12 97  1  0  0  0
 13 14  1  0  0  0
 13 31  1  0  0  0
 14 15  2  0  0  0
 14 98  1  0  0  0
 15 99  1  0  0  0
 16 17  2  0  0  0
 16 21  1  0  0  0
 16 31  1  0  0  0
 17 18  1  0  0  0
 17100  1  0  0  0
 18 19  2  0  0  0
 18101  1  0  0  0
 19 20  1  0  0  0
 19 24  1  0  0  0
 20 21  2  0  0  0
 20102  1  0  0  0
 21 23  1  0  0  0
 22 28  1  0  0  0
 22 32  2  0  0  0
 26 27  1  0  0  0
 28103  1  0  0  0
 28104  1  0  0  0
 29105  1  0  0  0
 29106  1  0  0  0
 33 34  1  0  0  0
 33 66  1  0  0  0
 33 70  2  0  0  0
 34 36  1  0  0  0
 34 59  1  0  0  0
 34107  1  0  0  0
 35 44  2  0  0  0
 35 45  1  0  0  0
 35 68  1  0  0  0
 36 56  1  0  0  0
 36108  1  0  0  0
 37 39  1  0  0  0
 37 47  1  0  0  0
 37 66  1  0  0  0
 37109  1  0  0  0
 38 43  2  0  0  0
 38 46  1  0  0  0
 38 47  1  0  0  0
 39 64  1  0  0  0
 39 67  2  0  0  0
 40 52  1  0  0  0
 40 53  2  0  0  0
 40 58  1  0  0  0
 41110  1  0  0  0
 41111  1  0  0  0
 41112  1  0  0  0
 41 48  1  0  0  0
 42 43  1  0  0  0
 42 66  1  0  0  0
 42113  1  0  0  0
 42114  1  0  0  0
 43 44  1  0  0  0
 44115  1  0  0  0
 45 46  2  0  0  0
 45116  1  0  0  0
 46117  1  0  0  0
 47118  1  0  0  0
 47119  1  0  0  0
 48 56  1  0  0  0
 48 65  1  0  0  0
 48120  1  0  0  0
 49 50  1  0  0  0
 49 53  1  0  0  0
 49 64  1  0  0  0
 49121  1  0  0  0
 50 51  1  0  0  0
 50122  1  0  0  0
 50123  1  0  0  0
 51 52  1  0  0  0
 51124  1  0  0  0
 51125  1  0  0  0
 52126  1  0  0  0
 52127  1  0  0  0
 53 54  1  0  0  0
 54 55  2  0  0  0
 54128  1  0  0  0
 55 57  1  0  0  0
 55129  1  0  0  0
 56 69  2  0  0  0
 57 58  2  0  0  0
 57130  1  0  0  0
 58131  1  0  0  0
 59 60  1  0  0  0
 59 61  1  0  0  0
 59 62  1  0  0  0
 60132  1  0  0  0
 60133  1  0  0  0
 60134  1  0  0  0
 61135  1  0  0  0
 61136  1  0  0  0
 61137  1  0  0  0
 62138  1  0  0  0
 62139  1  0  0  0
 62140  1  0  0  0
 63 65  1  0  0  0
 63141  1  0  0  0
 63142  1  0  0  0
 63143  1  0  0  0
 64144  1  0  0  0
 65145  1  0  0  0
 68 79  1  0  0  0
 71 73  2  0  0  0
 71 75  1  0  0  0
 71146  1  0  0  0
 72 74  1  0  0  0
 72 75  2  0  0  0
 72147  1  0  0  0
 73 76  1  0  0  0
 73 78  1  0  0  0
 74 76  2  0  0  0
 74 81  1  0  0  0
 75 85  1  0  0  0
 76 86  1  0  0  0
 77 80  1  0  0  0
 77 82  1  0  0  0
 77 83  2  0  0  0
 78 82  1  0  0  0
 78148  1  0  0  0
 78149  1  0  0  0
 79 80  1  0  0  0
 79150  1  0  0  0
 79151  1  0  0  0
 80 84  1  0  0  0
 80152  1  0  0  0
 81153  1  0  0  0
 82154  1  0  0  0
 84155  1  0  0  0
M  ISO  4   1 100  68 101  79 101  81 100
M  END
> <chiral flag>
0

> <version>
0

> <s_m_source_file>
/data/baiqing/PycharmProjects/Reinvent-master-3.2/result/LINK_invent/BTK/process_docking_weight1_custom_product_contain_oxygen_bond_distance_aromatic_linkinvent_7_9_3/rearranged_h_0171.sdf

> <i_m_source_file_index>
98

> <r_mmod_Potential_Energy-OPLS-2005>
-144.52897644043

> <r_mmod_Stretch_Energy-OPLS-2005>
47.4020652770996

> <r_mmod_Bend_Energy-OPLS-2005>
114.589218139648

> <r_mmod_Torsional_Energy-OPLS-2005>
216.748123168945

> <r_mmod_Improper_Torsional_Energy-OPLS-2005>
5.40280389785767

> <r_mmod_Van_der_Waal_Energy-OPLS-2005>
154.121627807617

> <r_mmod_Electrostatic_Energy-OPLS-2005>
-463.851959228516

> <r_mmod_Solvation_Energy-OPLS-2005>
-235.760681152344

> <b_mmod_Minimization_Converged-OPLS-2005>
0

> <r_mmod_RMS_Derivative-OPLS-2005>
3.38600564002991

$$$$
