0
                    3D
 Structure written by MMmdl.
178186  0  0  1  0            999 V2000
  -30.6778  -14.4715   20.4951 C   0  0  0  0  0  0
  -30.4220  -12.2843   19.4391 C   0  0  0  0  0  0
  -29.4934  -12.4778   18.2221 C   0  0  0  0  0  0
  -28.0161  -12.3259   18.6448 C   0  0  0  0  0  0
  -27.6582  -13.1845   19.8842 C   0  0  2  0  0  0
  -28.7031  -12.9934   21.0072 C   0  0  0  0  0  0
  -25.2658  -13.8121   20.5733 C   0  0  0  0  0  0
  -24.1872  -13.0436   20.9245 C   0  0  0  0  0  0
  -24.6383  -11.6865   20.8813 C   0  0  0  0  0  0
  -23.9060  -10.4278   21.0441 C   0  0  0  0  0  0
  -24.3615   -9.4200   21.9231 C   0  0  0  0  0  0
  -23.6292   -8.2231   22.0738 C   0  0  0  0  0  0
  -22.4280   -8.0281   21.3524 C   0  0  0  0  0  0
  -21.9934   -9.0248   20.4624 C   0  0  0  0  0  0
  -22.7235  -10.2137   20.3081 C   0  0  0  0  0  0
  -21.6852   -6.0755   22.5265 C   0  0  0  0  0  0
  -21.3971   -6.5638   23.8198 C   0  0  0  0  0  0
  -21.3669   -5.6791   24.9168 C   0  0  0  0  0  0
  -21.6070   -4.3075   24.7214 C   0  0  0  0  0  0
  -21.8826   -3.8166   23.4327 C   0  0  0  0  0  0
  -21.9199   -4.6983   22.3375 C   0  0  0  0  0  0
  -22.7909  -13.5240   21.1894 C   0  0  0  0  0  0
  -22.1672   -4.2182   21.0956 F   0  0  0  0  0  0
  -21.5674   -3.4532   25.7726 F   0  0  0  0  0  0
  -30.0309  -13.2794   20.4433 N   0  0  0  0  0  0
  -26.3041  -12.9202   20.3476 N   0  0  0  0  0  0
  -25.9306  -11.6409   20.5887 N   0  0  0  0  0  0
  -22.0547  -12.8183   22.0421 N   0  0  0  0  0  0
  -25.4525  -15.1832   20.4148 N   0  0  0  0  0  0
  -31.8605  -14.6122   20.1742 O   0  0  0  0  0  0
  -21.6645   -6.8878   21.4217 O   0  0  0  0  0  0
  -22.3619  -14.5585   20.6818 O   0  0  0  0  0  0
  -24.6089  -31.8690   23.2137 C   0  0  0  0  0  0
  -25.9017  -32.4821   23.8379 C   0  0  1  0  0  0
  -27.2317  -27.4574   20.0789 C   0  0  0  0  0  0
  -25.5896  -33.8611   24.2329 N   0  0  0  0  0  0
  -23.3929  -30.4949   21.5559 C   0  0  2  0  0  0
  -24.8314  -28.9526   20.1312 C   0  0  0  0  0  0
  -22.7333  -29.4683   22.5028 C   0  0  0  0  0  0
  -18.0263  -28.1349   22.8500 C   0  0  0  0  0  0
  -24.1505  -36.7329   23.2640 C   0  0  0  0  0  0
  -25.9180  -30.8348   21.3655 C   0  0  0  0  0  0
  -25.9893  -29.4651   20.7287 C   0  0  0  0  0  0
  -27.1870  -28.7211   20.7092 C   0  0  0  0  0  0
  -26.0600  -26.9632   19.4688 C   0  0  0  0  0  0
  -24.8605  -27.6960   19.5027 C   0  0  0  0  0  0
  -23.5962  -29.8210   20.1735 C   0  0  0  0  0  0
  -25.4136  -36.3120   24.0339 C   0  0  1  0  0  0
  -20.5822  -28.3649   23.1367 C   0  0  2  0  0  0
  -20.6771  -26.9401   22.5397 C   0  0  0  0  0  0
  -19.5774  -26.6400   21.5207 C   0  0  0  0  0  0
  -18.1941  -26.7912   22.1595 C   0  0  0  0  0  0
  -19.1487  -28.8817   23.2941 C   0  0  0  0  0  0
  -18.9416  -30.1401   23.8978 C   0  0  0  0  0  0
  -17.6426  -30.6573   24.0575 C   0  0  0  0  0  0
  -25.9032  -34.9470   23.5142 C   0  0  0  0  0  0
  -16.5319  -29.9085   23.6317 C   0  0  0  0  0  0
  -16.7247  -28.6467   23.0378 C   0  0  0  0  0  0
  -26.4414  -31.6544   25.0665 C   0  0  0  0  0  0
  -25.3688  -31.3628   26.1406 C   0  0  0  0  0  0
  -27.0154  -30.2980   24.5964 C   0  0  0  0  0  0
  -27.6019  -32.4161   25.7475 C   0  0  0  0  0  0
  -27.5598  -37.1835   24.8464 C   0  0  0  0  0  0
  -21.4072  -29.3056   22.3778 N   0  0  0  0  0  0
  -26.4338  -37.3794   23.9368 N   0  0  0  0  0  0
  -24.6595  -31.0789   22.1038 N   0  0  0  0  0  0
  -23.4108  -28.8270   23.3089 O   0  0  0  0  0  0
  -28.4575  -26.8680   19.8692 O   0  0  0  0  0  0
  -26.5576  -34.8925   22.4693 O   0  0  0  0  0  0
  -23.5325  -32.1415   23.7605 O   0  0  0  0  0  0
  -30.1732  -18.6375   17.7564 C   0  0  0  0  0  0
  -29.3457  -16.4516   18.4354 C   0  0  0  0  0  0
  -30.6094  -17.8201   20.0123 C   0  0  0  0  0  0
  -29.4825  -17.4506   17.4552 C   0  0  0  0  0  0
  -30.7482  -18.8400   19.0362 C   0  0  0  0  0  0
  -29.9379  -16.6113   19.7078 C   0  0  0  0  0  0
  -31.9020  -21.0450   18.6316 C   0  0  0  0  0  0
  -27.3678  -17.2335   16.0814 C   0  0  0  0  0  0
  -29.5790  -25.0580   17.9182 C   0  0  0  0  0  0
  -31.1245  -26.3469   19.3775 C   0  0  0  0  0  0
  -29.2507  -25.7701   21.8082 C   0  0  0  0  0  0
  -27.7204  -24.5057   20.2695 C   0  0  0  0  0  0
  -28.9006  -17.2441   16.0670 C   0  0  0  0  0  0
  -32.6818  -22.1516   19.3492 C   0  0  0  0  0  0
  -32.1139  -23.5585   19.0696 C   0  0  0  0  0  0
  -30.7828  -23.8765   19.8004 C   0  0  0  0  0  0
  -30.0728  -25.2039   19.3828 C   0  0  0  0  0  0
  -28.8466  -25.5670   20.3304 C   0  0  0  0  0  0
  -31.4789  -20.0158   19.3935 N   0  0  0  0  0  0
  -29.8744  -15.5389   20.6414 N   0  0  0  0  0  0
  -31.7034  -21.1527   17.4199 O   0  0  0  0  0  0
  -31.4673  -12.3806   19.1413 H   0  0  0  0  0  0
  -30.3170  -11.2778   19.8462 H   0  0  0  0  0  0
  -29.7356  -11.7516   17.4465 H   0  0  0  0  0  0
  -29.6592  -13.4602   17.7846 H   0  0  0  0  0  0
  -27.8541  -11.2724   18.8795 H   0  0  0  0  0  0
  -27.3522  -12.5638   17.8117 H   0  0  0  0  0  0
  -27.6879  -14.2246   19.5718 H   0  0  0  0  0  0
  -28.6814  -11.9657   21.3754 H   0  0  0  0  0  0
  -28.4805  -13.6285   21.8705 H   0  0  0  0  0  0
  -25.2742   -9.5661   22.4856 H   0  0  0  0  0  0
  -24.0016   -7.4583   22.7410 H   0  0  0  0  0  0
  -21.0911   -8.8742   19.8886 H   0  0  0  0  0  0
  -22.3692  -10.9712   19.6215 H   0  0  0  0  0  0
  -21.1886   -7.6133   23.9684 H   0  0  0  0  0  0
  -21.1520   -6.0545   25.9076 H   0  0  0  0  0  0
  -22.0608   -2.7638   23.2826 H   0  0  0  0  0  0
  -22.4109  -11.9692   22.4574 H   0  0  0  0  0  0
  -21.1205  -13.1191   22.2722 H   0  0  0  0  0  0
  -24.7059  -15.8618   20.5241 H   0  0  0  0  0  0
  -26.3124  -15.6000   20.0792 H   0  0  0  0  0  0
  -26.7068  -32.5516   23.1123 H   0  0  0  0  0  0
  -25.0003  -33.9740   25.0448 H   0  0  0  0  0  0
  -22.6844  -31.3116   21.4170 H   0  0  0  0  0  0
  -23.3782  -35.9640   23.3252 H   0  0  0  0  0  0
  -24.3617  -36.8981   22.2055 H   0  0  0  0  0  0
  -23.7214  -37.6519   23.6668 H   0  0  0  0  0  0
  -26.0119  -31.5949   20.5918 H   0  0  0  0  0  0
  -26.8157  -30.8976   21.9691 H   0  0  0  0  0  0
  -28.0906  -29.1339   21.1359 H   0  0  0  0  0  0
  -26.0784  -26.0498   18.8965 H   0  0  0  0  0  0
  -23.9826  -27.3076   19.0039 H   0  0  0  0  0  0
  -23.6952  -30.5875   19.4049 H   0  0  0  0  0  0
  -22.7238  -29.2310   19.8863 H   0  0  0  0  0  0
  -25.1336  -36.2020   25.0842 H   0  0  0  0  0  0
  -20.9906  -28.3191   24.1490 H   0  0  0  0  0  0
  -20.5733  -26.2226   23.3558 H   0  0  0  0  0  0
  -21.6641  -26.7517   22.1175 H   0  0  0  0  0  0
  -19.6952  -25.6319   21.1210 H   0  0  0  0  0  0
  -19.6757  -27.3236   20.6757 H   0  0  0  0  0  0
  -17.4223  -26.6679   21.3981 H   0  0  0  0  0  0
  -18.0357  -26.0013   22.8962 H   0  0  0  0  0  0
  -19.7885  -30.7187   24.2420 H   0  0  0  0  0  0
  -17.4978  -31.6280   24.5100 H   0  0  0  0  0  0
  -15.5327  -30.3026   23.7568 H   0  0  0  0  0  0
  -15.8632  -28.0794   22.7124 H   0  0  0  0  0  0
  -24.5916  -30.6902   25.7729 H   0  0  0  0  0  0
  -24.8816  -32.2767   26.4817 H   0  0  0  0  0  0
  -25.8049  -30.8819   27.0167 H   0  0  0  0  0  0
  -26.2600  -29.6827   24.1053 H   0  0  0  0  0  0
  -27.3927  -29.7125   25.4351 H   0  0  0  0  0  0
  -27.8457  -30.4255   23.9022 H   0  0  0  0  0  0
  -27.2677  -33.3468   26.2075 H   0  0  0  0  0  0
  -28.3898  -32.6652   25.0348 H   0  0  0  0  0  0
  -28.0568  -31.8185   26.5393 H   0  0  0  0  0  0
  -28.2649  -38.0100   24.7499 H   0  0  0  0  0  0
  -28.1071  -36.2632   24.6361 H   0  0  0  0  0  0
  -27.2273  -37.1558   25.8855 H   0  0  0  0  0  0
  -20.9192  -29.8707   21.6976 H   0  0  0  0  0  0
  -26.0248  -38.2892   24.1333 H   0  0  0  0  0  0
  -30.2504  -19.3771   16.9751 H   0  0  0  0  0  0
  -28.8100  -15.5498   18.1836 H   0  0  0  0  0  0
  -31.0463  -17.9468   20.9930 H   0  0  0  0  0  0
  -26.9709  -17.1561   15.0677 H   0  0  0  0  0  0
  -26.9714  -18.1476   16.5233 H   0  0  0  0  0  0
  -26.9830  -16.3911   16.6583 H   0  0  0  0  0  0
  -30.4039  -25.0262   17.2043 H   0  0  0  0  0  0
  -28.9478  -25.8949   17.6138 H   0  0  0  0  0  0
  -29.0129  -24.1385   17.7637 H   0  0  0  0  0  0
  -31.8799  -26.1832   18.6080 H   0  0  0  0  0  0
  -31.6590  -26.4315   20.3224 H   0  0  0  0  0  0
  -30.6861  -27.3181   19.1458 H   0  0  0  0  0  0
  -29.5315  -24.8303   22.2833 H   0  0  0  0  0  0
  -28.4297  -26.1896   22.3924 H   0  0  0  0  0  0
  -30.0855  -26.4597   21.9146 H   0  0  0  0  0  0
  -28.0650  -23.5416   20.6352 H   0  0  0  0  0  0
  -27.3400  -24.3495   19.2606 H   0  0  0  0  0  0
  -26.8738  -24.7764   20.9026 H   0  0  0  0  0  0
  -29.2857  -16.3070   15.6648 H   0  0  0  0  0  0
  -29.2536  -18.0259   15.3912 H   0  0  0  0  0  0
  -33.7145  -22.1104   18.9969 H   0  0  0  0  0  0
  -32.7247  -21.9628   20.4215 H   0  0  0  0  0  0
  -32.0002  -23.6893   17.9932 H   0  0  0  0  0  0
  -32.8700  -24.2812   19.3733 H   0  0  0  0  0  0
  -31.0002  -23.8847   20.8662 H   0  0  0  0  0  0
  -30.0911  -23.0457   19.6544 H   0  0  0  0  0  0
  -31.7528  -20.0812   20.3653 H   0  0  0  0  0  0
  -28.9494  -15.3021   20.9637 H   0  0  0  0  0  0
  1 25  1  0  0  0
  1 30  2  0  0  0
  1 90  1  0  0  0
  2  3  1  0  0  0
  2 25  1  0  0  0
  2 92  1  0  0  0
  2 93  1  0  0  0
  3  4  1  0  0  0
  3 94  1  0  0  0
  3 95  1  0  0  0
  4  5  1  0  0  0
  4 96  1  0  0  0
  4 97  1  0  0  0
  5  6  1  0  0  0
  5 26  1  0  0  0
  5 98  1  0  0  0
  6 25  1  0  0  0
  6 99  1  0  0  0
  6100  1  0  0  0
  7  8  2  0  0  0
  7 26  1  0  0  0
  7 29  1  0  0  0
  8  9  1  0  0  0
  8 22  1  0  0  0
  9 10  1  0  0  0
  9 27  2  0  0  0
 10 11  2  0  0  0
 10 15  1  0  0  0
 11 12  1  0  0  0
 11101  1  0  0  0
 12 13  2  0  0  0
 12102  1  0  0  0
 13 14  1  0  0  0
 13 31  1  0  0  0
 14 15  2  0  0  0
 14103  1  0  0  0
 15104  1  0  0  0
 16 17  2  0  0  0
 16 21  1  0  0  0
 16 31  1  0  0  0
 17 18  1  0  0  0
 17105  1  0  0  0
 18 19  2  0  0  0
 18106  1  0  0  0
 19 20  1  0  0  0
 19 24  1  0  0  0
 20 21  2  0  0  0
 20107  1  0  0  0
 21 23  1  0  0  0
 22 28  1  0  0  0
 22 32  2  0  0  0
 26 27  1  0  0  0
 28108  1  0  0  0
 28109  1  0  0  0
 29110  1  0  0  0
 29111  1  0  0  0
 33 34  1  0  0  0
 33 66  1  0  0  0
 33 70  2  0  0  0
 34 36  1  0  0  0
 34 59  1  0  0  0
 34112  1  0  0  0
 35 44  2  0  0  0
 35 45  1  0  0  0
 35 68  1  0  0  0
 36 56  1  0  0  0
 36113  1  0  0  0
 37 39  1  0  0  0
 37 47  1  0  0  0
 37 66  1  0  0  0
 37114  1  0  0  0
 38 43  2  0  0  0
 38 46  1  0  0  0
 38 47  1  0  0  0
 39 64  1  0  0  0
 39 67  2  0  0  0
 40 52  1  0  0  0
 40 53  2  0  0  0
 40 58  1  0  0  0
 41115  1  0  0  0
 41116  1  0  0  0
 41117  1  0  0  0
 41 48  1  0  0  0
 42 43  1  0  0  0
 42 66  1  0  0  0
 42118  1  0  0  0
 42119  1  0  0  0
 43 44  1  0  0  0
 44120  1  0  0  0
 45 46  2  0  0  0
 45121  1  0  0  0
 46122  1  0  0  0
 47123  1  0  0  0
 47124  1  0  0  0
 48 56  1  0  0  0
 48 65  1  0  0  0
 48125  1  0  0  0
 49 50  1  0  0  0
 49 53  1  0  0  0
 49 64  1  0  0  0
 49126  1  0  0  0
 50 51  1  0  0  0
 50127  1  0  0  0
 50128  1  0  0  0
 51 52  1  0  0  0
 51129  1  0  0  0
 51130  1  0  0  0
 52131  1  0  0  0
 52132  1  0  0  0
 53 54  1  0  0  0
 54 55  2  0  0  0
 54133  1  0  0  0
 55 57  1  0  0  0
 55134  1  0  0  0
 56 69  2  0  0  0
 57 58  2  0  0  0
 57135  1  0  0  0
 58136  1  0  0  0
 59 60  1  0  0  0
 59 61  1  0  0  0
 59 62  1  0  0  0
 60137  1  0  0  0
 60138  1  0  0  0
 60139  1  0  0  0
 61140  1  0  0  0
 61141  1  0  0  0
 61142  1  0  0  0
 62143  1  0  0  0
 62144  1  0  0  0
 62145  1  0  0  0
 63 65  1  0  0  0
 63146  1  0  0  0
 63147  1  0  0  0
 63148  1  0  0  0
 64149  1  0  0  0
 65150  1  0  0  0
 68 88  1  0  0  0
 71 74  2  0  0  0
 71 75  1  0  0  0
 71151  1  0  0  0
 72 74  1  0  0  0
 72 76  2  0  0  0
 72152  1  0  0  0
 73 75  2  0  0  0
 73 76  1  0  0  0
 73153  1  0  0  0
 74 83  1  0  0  0
 75 89  1  0  0  0
 76 90  1  0  0  0
 77 84  1  0  0  0
 77 89  1  0  0  0
 77 91  2  0  0  0
 78 83  1  0  0  0
 78154  1  0  0  0
 78155  1  0  0  0
 78156  1  0  0  0
 79157  1  0  0  0
 79158  1  0  0  0
 79159  1  0  0  0
 79 87  1  0  0  0
 80 87  1  0  0  0
 80160  1  0  0  0
 80161  1  0  0  0
 80162  1  0  0  0
 81163  1  0  0  0
 81164  1  0  0  0
 81165  1  0  0  0
 81 88  1  0  0  0
 82 88  1  0  0  0
 82166  1  0  0  0
 82167  1  0  0  0
 82168  1  0  0  0
 83169  1  0  0  0
 83170  1  0  0  0
 84 85  1  0  0  0
 84171  1  0  0  0
 84172  1  0  0  0
 85 86  1  0  0  0
 85173  1  0  0  0
 85174  1  0  0  0
 86 87  1  0  0  0
 86175  1  0  0  0
 86176  1  0  0  0
 87 88  1  0  0  0
 89177  1  0  0  0
 90178  1  0  0  0
M  ISO  4   1 100  68 101  88 101  90 100
M  END
> <chiral flag>
0

> <version>
0

> <s_m_source_file>
/data/baiqing/PycharmProjects/Reinvent-master-3.2/result/LINK_invent/BTK/process_docking_weight1_custom_product_contain_oxygen_bond_distance_aromatic_linkinvent_7_9_3/rearranged_h_0144.sdf

> <i_m_source_file_index>
1

> <r_mmod_Potential_Energy-OPLS-2005>
11.5530481338501

> <r_mmod_Stretch_Energy-OPLS-2005>
40.9553527832031

> <r_mmod_Bend_Energy-OPLS-2005>
130.211227416992

> <r_mmod_Torsional_Energy-OPLS-2005>
297.987518310547

> <r_mmod_Improper_Torsional_Energy-OPLS-2005>
11.7759046554565

> <r_mmod_Van_der_Waal_Energy-OPLS-2005>
168.369415283203

> <r_mmod_Electrostatic_Energy-OPLS-2005>
-443.096252441406

> <r_mmod_Solvation_Energy-OPLS-2005>
-214.719299316406

> <b_mmod_Minimization_Converged-OPLS-2005>
0

> <r_mmod_RMS_Derivative-OPLS-2005>
5.27620363235474

$$$$
1
                    3D
 Structure written by MMmdl.
167176  0  0  1  0            999 V2000
  -30.6512  -14.5193   20.6249 C   0  0  0  0  0  0
  -30.4471  -12.3441   19.4378 C   0  0  0  0  0  0
  -29.5082  -12.5027   18.2214 C   0  0  0  0  0  0
  -28.0299  -12.3453   18.6316 C   0  0  0  0  0  0
  -27.6645  -13.1971   19.8753 C   0  0  2  0  0  0
  -28.6995  -12.9634   20.9985 C   0  0  0  0  0  0
  -25.2589  -13.8111   20.5662 C   0  0  0  0  0  0
  -24.1827  -13.0422   20.9157 C   0  0  0  0  0  0
  -24.6352  -11.6880   20.8669 C   0  0  0  0  0  0
  -23.9002  -10.4281   21.0377 C   0  0  0  0  0  0
  -24.3567   -9.4210   21.9158 C   0  0  0  0  0  0
  -23.6241   -8.2232   22.0750 C   0  0  0  0  0  0
  -22.4226   -8.0267   21.3546 C   0  0  0  0  0  0
  -21.9837   -9.0233   20.4661 C   0  0  0  0  0  0
  -22.7162  -10.2104   20.3046 C   0  0  0  0  0  0
  -21.6847   -6.0702   22.5251 C   0  0  0  0  0  0
  -21.4030   -6.5603   23.8185 C   0  0  0  0  0  0
  -21.3664   -5.6767   24.9153 C   0  0  0  0  0  0
  -21.6039   -4.3026   24.7214 C   0  0  0  0  0  0
  -21.8824   -3.8123   23.4331 C   0  0  0  0  0  0
  -21.9205   -4.6929   22.3399 C   0  0  0  0  0  0
  -22.7856  -13.5262   21.1820 C   0  0  0  0  0  0
  -22.1668   -4.2120   21.0963 F   0  0  0  0  0  0
  -21.5623   -3.4521   25.7729 F   0  0  0  0  0  0
  -30.0369  -13.3066   20.4765 N   0  0  0  0  0  0
  -26.3015  -12.9271   20.3316 N   0  0  0  0  0  0
  -25.9268  -11.6439   20.5671 N   0  0  0  0  0  0
  -22.0477  -12.8297   22.0400 N   0  0  0  0  0  0
  -25.4289  -15.1823   20.4110 N   0  0  0  0  0  0
  -31.7026  -14.8079   20.0452 O   0  0  0  0  0  0
  -21.6620   -6.8833   21.4220 O   0  0  0  0  0  0
  -22.3546  -14.5563   20.6664 O   0  0  0  0  0  0
  -24.6236  -31.8649   23.2103 C   0  0  0  0  0  0
  -25.9107  -32.4807   23.8389 C   0  0  1  0  0  0
  -27.1969  -27.3503   20.0963 C   0  0  0  0  0  0
  -25.5940  -33.8606   24.2316 N   0  0  0  0  0  0
  -23.4119  -30.4969   21.5527 C   0  0  2  0  0  0
  -24.8516  -28.9721   20.1025 C   0  0  0  0  0  0
  -22.7457  -29.4649   22.4945 C   0  0  0  0  0  0
  -18.0285  -28.1382   22.8486 C   0  0  0  0  0  0
  -24.1499  -36.7305   23.2633 C   0  0  0  0  0  0
  -25.9523  -30.8058   21.3782 C   0  0  0  0  0  0
  -26.0214  -29.4391   20.7152 C   0  0  0  0  0  0
  -27.1979  -28.6370   20.7104 C   0  0  0  0  0  0
  -26.0063  -26.9473   19.4419 C   0  0  0  0  0  0
  -24.8455  -27.7320   19.4557 C   0  0  0  0  0  0
  -23.6217  -29.8493   20.1608 C   0  0  0  0  0  0
  -25.4112  -36.3093   24.0334 C   0  0  1  0  0  0
  -20.5878  -28.3683   23.1297 C   0  0  2  0  0  0
  -20.6772  -26.9410   22.5417 C   0  0  0  0  0  0
  -19.5748  -26.6384   21.5217 C   0  0  0  0  0  0
  -18.1928  -26.7930   22.1620 C   0  0  0  0  0  0
  -19.1535  -28.8849   23.2890 C   0  0  0  0  0  0
  -18.9461  -30.1450   23.8909 C   0  0  0  0  0  0
  -17.6459  -30.6580   24.0568 C   0  0  0  0  0  0
  -25.9049  -34.9470   23.5116 C   0  0  0  0  0  0
  -16.5353  -29.9080   23.6321 C   0  0  0  0  0  0
  -16.7275  -28.6500   23.0343 C   0  0  0  0  0  0
  -26.4517  -31.6593   25.0729 C   0  0  0  0  0  0
  -25.3779  -31.3746   26.1485 C   0  0  0  0  0  0
  -27.0319  -30.3007   24.6152 C   0  0  0  0  0  0
  -27.6115  -32.4302   25.7456 C   0  0  0  0  0  0
  -27.5601  -37.1770   24.8449 C   0  0  0  0  0  0
  -21.4173  -29.3043   22.3691 N   0  0  0  0  0  0
  -26.4280  -37.3796   23.9443 N   0  0  0  0  0  0
  -24.6815  -31.0704   22.1042 N   0  0  0  0  0  0
  -23.4208  -28.8159   23.2982 O   0  0  0  0  0  0
  -28.3005  -26.4916   20.1604 O   0  0  0  0  0  0
  -26.5597  -34.8927   22.4667 O   0  0  0  0  0  0
  -23.5424  -32.1431   23.7475 O   0  0  0  0  0  0
  -27.3662  -17.9463   21.4539 C   0  0  0  0  0  0
  -27.9720  -19.0422   20.8184 C   0  0  0  0  0  0
  -28.0879  -16.7594   21.6655 C   0  0  0  0  0  0
  -30.0432  -17.7744   20.6275 C   0  0  0  0  0  0
  -29.3278  -19.0066   20.4100 C   0  0  0  0  0  0
  -29.4235  -16.6368   21.2302 C   0  0  0  0  0  0
  -29.8784  -20.1947   19.6348 C   0  0  0  0  0  0
  -28.7462  -23.2475   21.5089 C   0  0  0  0  0  0
  -29.4004  -21.8548   21.4534 C   0  0  0  0  0  0
  -29.0728  -23.9344   20.1732 C   0  0  2  0  0  0
  -29.0568  -22.6628   19.2094 C   0  0  0  0  0  0
  -30.4710  -24.5821   20.2665 C   0  0  0  0  0  0
  -27.6173  -22.3148   18.7381 C   0  0  0  0  0  0
  -29.8996  -22.9600   17.9442 C   0  0  0  0  0  0
  -28.0542  -25.0878   19.7963 C   0  0  0  0  0  0
  -29.5131  -21.4810   20.0378 N   0  0  0  0  0  0
  -30.0462  -15.3614   21.4933 N   0  0  0  0  0  0
  -30.8011  -19.8271   18.2809 S   0  0  0  0  0  0
  -31.4860  -12.4843   19.1334 H   0  0  0  0  0  0
  -30.3921  -11.3292   19.8335 H   0  0  0  0  0  0
  -29.7587  -11.7626   17.4592 H   0  0  0  0  0  0
  -29.6620  -13.4801   17.7592 H   0  0  0  0  0  0
  -27.8587  -11.2899   18.8493 H   0  0  0  0  0  0
  -27.3778  -12.5899   17.7938 H   0  0  0  0  0  0
  -27.7120  -14.2447   19.5748 H   0  0  0  0  0  0
  -28.6857  -11.9172   21.3061 H   0  0  0  0  0  0
  -28.4217  -13.5216   21.8931 H   0  0  0  0  0  0
  -25.2726   -9.5707   22.4697 H   0  0  0  0  0  0
  -23.9969   -7.4644   22.7482 H   0  0  0  0  0  0
  -21.0741   -8.8748   19.8981 H   0  0  0  0  0  0
  -22.3618  -10.9620   19.6138 H   0  0  0  0  0  0
  -21.2018   -7.6115   23.9683 H   0  0  0  0  0  0
  -21.1482   -6.0490   25.9050 H   0  0  0  0  0  0
  -22.0607   -2.7582   23.2837 H   0  0  0  0  0  0
  -22.4094  -11.9992   22.4843 H   0  0  0  0  0  0
  -21.1118  -13.1377   22.2619 H   0  0  0  0  0  0
  -24.6669  -15.8370   20.5477 H   0  0  0  0  0  0
  -26.2867  -15.6247   20.1080 H   0  0  0  0  0  0
  -26.7169  -32.5482   23.1135 H   0  0  0  0  0  0
  -25.0103  -33.9759   25.0475 H   0  0  0  0  0  0
  -22.7022  -31.3163   21.4212 H   0  0  0  0  0  0
  -23.3768  -35.9623   23.3245 H   0  0  0  0  0  0
  -24.3618  -36.8976   22.2059 H   0  0  0  0  0  0
  -23.7230  -37.6488   23.6676 H   0  0  0  0  0  0
  -26.0793  -31.5748   20.6151 H   0  0  0  0  0  0
  -26.8352  -30.8517   22.0033 H   0  0  0  0  0  0
  -28.0931  -28.9845   21.2068 H   0  0  0  0  0  0
  -25.9224  -26.0116   18.9116 H   0  0  0  0  0  0
  -23.9538  -27.3801   18.9561 H   0  0  0  0  0  0
  -23.7394  -30.6336   19.4113 H   0  0  0  0  0  0
  -22.7412  -29.2808   19.8555 H   0  0  0  0  0  0
  -25.1270  -36.1931   25.0815 H   0  0  0  0  0  0
  -20.9980  -28.3262   24.1415 H   0  0  0  0  0  0
  -20.5675  -26.2293   23.3613 H   0  0  0  0  0  0
  -21.6646  -26.7443   22.1220 H   0  0  0  0  0  0
  -19.6908  -25.6300   21.1241 H   0  0  0  0  0  0
  -19.6680  -27.3200   20.6752 H   0  0  0  0  0  0
  -17.4198  -26.6693   21.4017 H   0  0  0  0  0  0
  -18.0312  -26.0068   22.9008 H   0  0  0  0  0  0
  -19.7936  -30.7260   24.2289 H   0  0  0  0  0  0
  -17.5018  -31.6265   24.5165 H   0  0  0  0  0  0
  -15.5355  -30.2986   23.7647 H   0  0  0  0  0  0
  -15.8678  -28.0827   22.7047 H   0  0  0  0  0  0
  -24.5928  -30.7114   25.7834 H   0  0  0  0  0  0
  -24.9013  -32.2933   26.4915 H   0  0  0  0  0  0
  -25.8140  -30.8919   27.0242 H   0  0  0  0  0  0
  -26.2849  -29.6751   24.1257 H   0  0  0  0  0  0
  -27.4101  -29.7271   25.4623 H   0  0  0  0  0  0
  -27.8701  -30.4266   23.9295 H   0  0  0  0  0  0
  -27.2757  -33.3608   26.2043 H   0  0  0  0  0  0
  -28.3902  -32.6850   25.0247 H   0  0  0  0  0  0
  -28.0808  -31.8411   26.5349 H   0  0  0  0  0  0
  -28.2568  -38.0123   24.7592 H   0  0  0  0  0  0
  -28.1143  -36.2659   24.6120 H   0  0  0  0  0  0
  -27.2353  -37.1263   25.8860 H   0  0  0  0  0  0
  -20.9323  -29.8797   21.6947 H   0  0  0  0  0  0
  -26.0157  -38.2853   24.1509 H   0  0  0  0  0  0
  -26.3312  -18.0117   21.7623 H   0  0  0  0  0  0
  -27.3727  -19.9227   20.6330 H   0  0  0  0  0  0
  -27.5856  -15.9266   22.1414 H   0  0  0  0  0  0
  -31.0750  -17.6911   20.3143 H   0  0  0  0  0  0
  -29.0593  -23.8204   22.3823 H   0  0  0  0  0  0
  -27.6688  -23.1068   21.6038 H   0  0  0  0  0  0
  -28.8292  -21.1444   22.0497 H   0  0  0  0  0  0
  -30.4038  -21.8979   21.8781 H   0  0  0  0  0  0
  -31.2633  -23.8485   20.4125 H   0  0  0  0  0  0
  -30.5186  -25.2898   21.0941 H   0  0  0  0  0  0
  -30.7024  -25.1488   19.3644 H   0  0  0  0  0  0
  -27.1692  -23.0983   18.1276 H   0  0  0  0  0  0
  -26.9411  -22.1310   19.5744 H   0  0  0  0  0  0
  -27.6094  -21.4143   18.1220 H   0  0  0  0  0  0
  -29.6646  -23.9390   17.5272 H   0  0  0  0  0  0
  -29.7092  -22.2467   17.1434 H   0  0  0  0  0  0
  -30.9696  -22.9435   18.1574 H   0  0  0  0  0  0
  -27.0962  -24.7772   20.2174 H   0  0  0  0  0  0
  -27.9417  -25.0901   18.7131 H   0  0  0  0  0  0
  -29.5004  -14.8109   22.1388 H   0  0  0  0  0  0
  1 25  1  0  0  0
  1 30  2  0  0  0
  1 87  1  0  0  0
  2  3  1  0  0  0
  2 25  1  0  0  0
  2 89  1  0  0  0
  2 90  1  0  0  0
  3  4  1  0  0  0
  3 91  1  0  0  0
  3 92  1  0  0  0
  4  5  1  0  0  0
  4 93  1  0  0  0
  4 94  1  0  0  0
  5  6  1  0  0  0
  5 26  1  0  0  0
  5 95  1  0  0  0
  6 25  1  0  0  0
  6 96  1  0  0  0
  6 97  1  0  0  0
  7  8  2  0  0  0
  7 26  1  0  0  0
  7 29  1  0  0  0
  8  9  1  0  0  0
  8 22  1  0  0  0
  9 10  1  0  0  0
  9 27  2  0  0  0
 10 11  2  0  0  0
 10 15  1  0  0  0
 11 12  1  0  0  0
 11 98  1  0  0  0
 12 13  2  0  0  0
 12 99  1  0  0  0
 13 14  1  0  0  0
 13 31  1  0  0  0
 14 15  2  0  0  0
 14100  1  0  0  0
 15101  1  0  0  0
 16 17  2  0  0  0
 16 21  1  0  0  0
 16 31  1  0  0  0
 17 18  1  0  0  0
 17102  1  0  0  0
 18 19  2  0  0  0
 18103  1  0  0  0
 19 20  1  0  0  0
 19 24  1  0  0  0
 20 21  2  0  0  0
 20104  1  0  0  0
 21 23  1  0  0  0
 22 28  1  0  0  0
 22 32  2  0  0  0
 26 27  1  0  0  0
 28105  1  0  0  0
 28106  1  0  0  0
 29107  1  0  0  0
 29108  1  0  0  0
 33 34  1  0  0  0
 33 66  1  0  0  0
 33 70  2  0  0  0
 34 36  1  0  0  0
 34 59  1  0  0  0
 34109  1  0  0  0
 35 44  2  0  0  0
 35 45  1  0  0  0
 35 68  1  0  0  0
 36 56  1  0  0  0
 36110  1  0  0  0
 37 39  1  0  0  0
 37 47  1  0  0  0
 37 66  1  0  0  0
 37111  1  0  0  0
 38 43  2  0  0  0
 38 46  1  0  0  0
 38 47  1  0  0  0
 39 64  1  0  0  0
 39 67  2  0  0  0
 40 52  1  0  0  0
 40 53  2  0  0  0
 40 58  1  0  0  0
 41112  1  0  0  0
 41113  1  0  0  0
 41114  1  0  0  0
 41 48  1  0  0  0
 42 43  1  0  0  0
 42 66  1  0  0  0
 42115  1  0  0  0
 42116  1  0  0  0
 43 44  1  0  0  0
 44117  1  0  0  0
 45 46  2  0  0  0
 45118  1  0  0  0
 46119  1  0  0  0
 47120  1  0  0  0
 47121  1  0  0  0
 48 56  1  0  0  0
 48 65  1  0  0  0
 48122  1  0  0  0
 49 50  1  0  0  0
 49 53  1  0  0  0
 49 64  1  0  0  0
 49123  1  0  0  0
 50 51  1  0  0  0
 50124  1  0  0  0
 50125  1  0  0  0
 51 52  1  0  0  0
 51126  1  0  0  0
 51127  1  0  0  0
 52128  1  0  0  0
 52129  1  0  0  0
 53 54  1  0  0  0
 54 55  2  0  0  0
 54130  1  0  0  0
 55 57  1  0  0  0
 55131  1  0  0  0
 56 69  2  0  0  0
 57 58  2  0  0  0
 57132  1  0  0  0
 58133  1  0  0  0
 59 60  1  0  0  0
 59 61  1  0  0  0
 59 62  1  0  0  0
 60134  1  0  0  0
 60135  1  0  0  0
 60136  1  0  0  0
 61137  1  0  0  0
 61138  1  0  0  0
 61139  1  0  0  0
 62140  1  0  0  0
 62141  1  0  0  0
 62142  1  0  0  0
 63 65  1  0  0  0
 63143  1  0  0  0
 63144  1  0  0  0
 63145  1  0  0  0
 64146  1  0  0  0
 65147  1  0  0  0
 68 85  1  0  0  0
 71 72  2  0  0  0
 71 73  1  0  0  0
 71148  1  0  0  0
 72 75  1  0  0  0
 72149  1  0  0  0
 73 76  2  0  0  0
 73150  1  0  0  0
 74 75  2  0  0  0
 74 76  1  0  0  0
 74151  1  0  0  0
 75 77  1  0  0  0
 76 87  1  0  0  0
 77 86  1  0  0  0
 77 88  2  0  0  0
 78 79  1  0  0  0
 78 80  1  0  0  0
 78152  1  0  0  0
 78153  1  0  0  0
 79 86  1  0  0  0
 79154  1  0  0  0
 79155  1  0  0  0
 80 81  1  0  0  0
 80 82  1  0  0  0
 80 85  1  0  0  0
 81 83  1  0  0  0
 81 84  1  0  0  0
 81 86  1  0  0  0
 82156  1  0  0  0
 82157  1  0  0  0
 82158  1  0  0  0
 83159  1  0  0  0
 83160  1  0  0  0
 83161  1  0  0  0
 84162  1  0  0  0
 84163  1  0  0  0
 84164  1  0  0  0
 85165  1  0  0  0
 85166  1  0  0  0
 87167  1  0  0  0
M  ISO  4   1 100  68 101  85 101  87 100
M  END
> <chiral flag>
0

> <version>
0

> <s_m_source_file>
/data/baiqing/PycharmProjects/Reinvent-master-3.2/result/LINK_invent/BTK/process_docking_weight1_custom_product_contain_oxygen_bond_distance_aromatic_linkinvent_7_9_3/rearranged_h_0144.sdf

> <i_m_source_file_index>
2

> <r_mmod_Potential_Energy-OPLS-2005>
295.451934814453

> <r_mmod_Stretch_Energy-OPLS-2005>
76.1514434814453

> <r_mmod_Bend_Energy-OPLS-2005>
168.034652709961

> <r_mmod_Torsional_Energy-OPLS-2005>
392.326446533203

> <r_mmod_Improper_Torsional_Energy-OPLS-2005>
7.09752750396729

> <r_mmod_Van_der_Waal_Energy-OPLS-2005>
175.366790771484

> <r_mmod_Electrostatic_Energy-OPLS-2005>
-347.479797363281

> <r_mmod_Solvation_Energy-OPLS-2005>
-208.741241455078

> <b_mmod_Minimization_Converged-OPLS-2005>
0

> <r_mmod_RMS_Derivative-OPLS-2005>
3.39208817481995

$$$$
2
                    3D
 Structure written by MMmdl.
167176  0  0  1  0            999 V2000
  -30.7414  -14.3818   20.7351 C   0  0  0  0  0  0
  -30.4352  -12.3223   19.3873 C   0  0  0  0  0  0
  -29.4923  -12.5517   18.1909 C   0  0  0  0  0  0
  -28.0171  -12.3848   18.6046 C   0  0  0  0  0  0
  -27.6693  -13.1980   19.8778 C   0  0  2  0  0  0
  -28.7062  -12.9247   20.9899 C   0  0  0  0  0  0
  -25.2624  -13.8134   20.5659 C   0  0  0  0  0  0
  -24.1868  -13.0430   20.9185 C   0  0  0  0  0  0
  -24.6391  -11.6889   20.8721 C   0  0  0  0  0  0
  -23.9036  -10.4294   21.0384 C   0  0  0  0  0  0
  -24.3594   -9.4218   21.9168 C   0  0  0  0  0  0
  -23.6295   -8.2238   22.0735 C   0  0  0  0  0  0
  -22.4272   -8.0267   21.3533 C   0  0  0  0  0  0
  -21.9896   -9.0231   20.4634 C   0  0  0  0  0  0
  -22.7206  -10.2121   20.3040 C   0  0  0  0  0  0
  -21.6857   -6.0734   22.5294 C   0  0  0  0  0  0
  -21.4011   -6.5638   23.8225 C   0  0  0  0  0  0
  -21.3663   -5.6785   24.9186 C   0  0  0  0  0  0
  -21.6045   -4.3046   24.7238 C   0  0  0  0  0  0
  -21.8812   -3.8142   23.4357 C   0  0  0  0  0  0
  -21.9195   -4.6963   22.3414 C   0  0  0  0  0  0
  -22.7899  -13.5254   21.1841 C   0  0  0  0  0  0
  -22.1666   -4.2152   21.0991 F   0  0  0  0  0  0
  -21.5634   -3.4522   25.7744 F   0  0  0  0  0  0
  -30.0582  -13.2349   20.4747 N   0  0  0  0  0  0
  -26.3052  -12.9293   20.3327 N   0  0  0  0  0  0
  -25.9319  -11.6456   20.5715 N   0  0  0  0  0  0
  -22.0504  -12.8271   22.0398 N   0  0  0  0  0  0
  -25.4335  -15.1861   20.4078 N   0  0  0  0  0  0
  -31.6879  -14.7911   20.0540 O   0  0  0  0  0  0
  -21.6637   -6.8863   21.4248 O   0  0  0  0  0  0
  -22.3602  -14.5562   20.6678 O   0  0  0  0  0  0
  -24.6130  -31.8695   23.2097 C   0  0  0  0  0  0
  -25.9032  -32.4830   23.8394 C   0  0  1  0  0  0
  -27.2501  -27.4379   20.0814 C   0  0  0  0  0  0
  -25.5872  -33.8625   24.2325 N   0  0  0  0  0  0
  -23.4028  -30.4905   21.5491 C   0  0  2  0  0  0
  -24.8528  -28.9561   20.1145 C   0  0  0  0  0  0
  -22.7400  -29.4663   22.4973 C   0  0  0  0  0  0
  -18.0260  -28.1381   22.8486 C   0  0  0  0  0  0
  -24.1478  -36.7322   23.2640 C   0  0  0  0  0  0
  -25.9325  -30.8292   21.3696 C   0  0  0  0  0  0
  -26.0100  -29.4652   20.7130 C   0  0  0  0  0  0
  -27.2066  -28.7103   20.6974 C   0  0  0  0  0  0
  -26.0707  -26.9501   19.4672 C   0  0  0  0  0  0
  -24.8774  -27.6967   19.4917 C   0  0  0  0  0  0
  -23.6140  -29.8215   20.1647 C   0  0  0  0  0  0
  -25.4103  -36.3126   24.0335 C   0  0  1  0  0  0
  -20.5852  -28.3671   23.1299 C   0  0  2  0  0  0
  -20.6748  -26.9402   22.5406 C   0  0  0  0  0  0
  -19.5737  -26.6388   21.5198 C   0  0  0  0  0  0
  -18.1914  -26.7924   22.1618 C   0  0  0  0  0  0
  -19.1513  -28.8843   23.2898 C   0  0  0  0  0  0
  -18.9458  -30.1446   23.8916 C   0  0  0  0  0  0
  -17.6469  -30.6590   24.0567 C   0  0  0  0  0  0
  -25.9031  -34.9485   23.5139 C   0  0  0  0  0  0
  -16.5352  -29.9095   23.6326 C   0  0  0  0  0  0
  -16.7254  -28.6507   23.0346 C   0  0  0  0  0  0
  -26.4463  -31.6607   25.0726 C   0  0  0  0  0  0
  -25.3734  -31.3732   26.1479 C   0  0  0  0  0  0
  -27.0291  -30.3039   24.6117 C   0  0  0  0  0  0
  -27.6044  -32.4323   25.7485 C   0  0  0  0  0  0
  -27.5583  -37.1812   24.8463 C   0  0  0  0  0  0
  -21.4122  -29.3050   22.3711 N   0  0  0  0  0  0
  -26.4299  -37.3807   23.9405 N   0  0  0  0  0  0
  -24.6670  -31.0776   22.1015 N   0  0  0  0  0  0
  -23.4177  -28.8205   23.3019 O   0  0  0  0  0  0
  -28.4401  -26.7288   20.1072 O   0  0  0  0  0  0
  -26.5596  -34.8933   22.4701 O   0  0  0  0  0  0
  -23.5321  -32.1442   23.7497 O   0  0  0  0  0  0
  -29.1585  -16.3557   23.3378 C   0  0  0  0  0  0
  -28.7687  -17.6058   23.8347 C   0  0  0  0  0  0
  -30.6173  -17.4394   21.7030 C   0  0  0  0  0  0
  -30.2248  -18.7144   22.2084 C   0  0  0  0  0  0
  -30.0827  -16.2523   22.2785 C   0  0  0  0  0  0
  -29.3079  -18.7779   23.2870 C   0  0  0  0  0  0
  -29.5534  -23.2855   20.6620 C   0  0  0  0  0  0
  -30.8496  -19.9677   21.7427 C   0  0  0  0  0  0
  -29.6507  -24.5776   20.2452 C   0  0  0  0  0  0
  -28.3145  -22.4267   20.5419 C   0  0  0  0  0  0
  -28.7053  -21.0239   21.0108 C   0  0  0  0  0  0
  -30.6612  -22.4645   21.3180 C   0  0  1  0  0  0
  -30.9418  -25.3836   20.3293 C   0  0  0  0  0  0
  -30.8908  -22.9806   22.7568 C   0  0  0  0  0  0
  -28.4649  -25.3607   19.6664 C   0  0  0  0  0  0
  -30.1435  -21.0682   21.3461 N   0  0  0  0  0  0
  -30.4204  -14.9141   21.9236 N   0  0  0  0  0  0
  -32.1809  -20.0399   21.7684 N   0  3  0  0  0  0
  -28.9669  -19.9609   23.8547 F   0  0  0  0  0  0
  -31.4741  -12.4623   19.0838 H   0  0  0  0  0  0
  -30.3652  -11.2909   19.7377 H   0  0  0  0  0  0
  -29.7357  -11.8610   17.3828 H   0  0  0  0  0  0
  -29.6495  -13.5573   17.7945 H   0  0  0  0  0  0
  -27.8352  -11.3236   18.7786 H   0  0  0  0  0  0
  -27.3602  -12.6719   17.7824 H   0  0  0  0  0  0
  -27.7312  -14.2541   19.6142 H   0  0  0  0  0  0
  -28.6701  -11.8752   21.2892 H   0  0  0  0  0  0
  -28.4285  -13.4846   21.8818 H   0  0  0  0  0  0
  -25.2720   -9.5726   22.4744 H   0  0  0  0  0  0
  -24.0019   -7.4638   22.7442 H   0  0  0  0  0  0
  -21.0825   -8.8733   19.8951 H   0  0  0  0  0  0
  -22.3634  -10.9654   19.6151 H   0  0  0  0  0  0
  -21.1983   -7.6134   23.9740 H   0  0  0  0  0  0
  -21.1502   -6.0505   25.9095 H   0  0  0  0  0  0
  -22.0585   -2.7604   23.2855 H   0  0  0  0  0  0
  -22.4100  -11.9954   22.4838 H   0  0  0  0  0  0
  -21.1114  -13.1302   22.2513 H   0  0  0  0  0  0
  -24.6598  -15.8340   20.5026 H   0  0  0  0  0  0
  -26.2788  -15.6281   20.0696 H   0  0  0  0  0  0
  -26.7104  -32.5538   23.1153 H   0  0  0  0  0  0
  -24.9982  -33.9789   25.0439 H   0  0  0  0  0  0
  -22.6920  -31.3078   21.4061 H   0  0  0  0  0  0
  -23.3748  -35.9646   23.3296 H   0  0  0  0  0  0
  -24.3581  -36.8954   22.2064 H   0  0  0  0  0  0
  -23.7223  -37.6516   23.6658 H   0  0  0  0  0  0
  -26.0518  -31.5978   20.6055 H   0  0  0  0  0  0
  -26.8185  -30.8780   21.9915 H   0  0  0  0  0  0
  -28.0970  -29.1027   21.1682 H   0  0  0  0  0  0
  -26.0473  -26.0014   18.9522 H   0  0  0  0  0  0
  -23.9886  -27.3010   19.0189 H   0  0  0  0  0  0
  -23.7255  -30.5945   19.4043 H   0  0  0  0  0  0
  -22.7400  -29.2406   19.8681 H   0  0  0  0  0  0
  -25.1292  -36.1985   25.0830 H   0  0  0  0  0  0
  -20.9941  -28.3235   24.1427 H   0  0  0  0  0  0
  -20.5617  -26.2292   23.3597 H   0  0  0  0  0  0
  -21.6621  -26.7433   22.1228 H   0  0  0  0  0  0
  -19.6897  -25.6302   21.1225 H   0  0  0  0  0  0
  -19.6678  -27.3197   20.6726 H   0  0  0  0  0  0
  -17.4180  -26.6656   21.4026 H   0  0  0  0  0  0
  -18.0335  -26.0071   22.9022 H   0  0  0  0  0  0
  -19.7942  -30.7229   24.2294 H   0  0  0  0  0  0
  -17.5041  -31.6271   24.5169 H   0  0  0  0  0  0
  -15.5359  -30.3021   23.7647 H   0  0  0  0  0  0
  -15.8645  -28.0843   22.7064 H   0  0  0  0  0  0
  -24.5870  -30.7123   25.7808 H   0  0  0  0  0  0
  -24.8974  -32.2902   26.4951 H   0  0  0  0  0  0
  -25.8081  -30.8860   27.0213 H   0  0  0  0  0  0
  -26.2841  -29.6798   24.1169 H   0  0  0  0  0  0
  -27.4035  -29.7281   25.4590 H   0  0  0  0  0  0
  -27.8683  -30.4345   23.9284 H   0  0  0  0  0  0
  -27.2673  -33.3637   26.2033 H   0  0  0  0  0  0
  -28.3846  -32.6867   25.0300 H   0  0  0  0  0  0
  -28.0686  -31.8456   26.5410 H   0  0  0  0  0  0
  -28.2604  -38.0109   24.7513 H   0  0  0  0  0  0
  -28.1081  -36.2644   24.6285 H   0  0  0  0  0  0
  -27.2303  -37.1455   25.8868 H   0  0  0  0  0  0
  -20.9255  -29.8799   21.6961 H   0  0  0  0  0  0
  -26.0189  -38.2886   24.1412 H   0  0  0  0  0  0
  -28.7406  -15.4719   23.7987 H   0  0  0  0  0  0
  -28.0741  -17.6703   24.6595 H   0  0  0  0  0  0
  -31.3440  -17.3816   20.9039 H   0  0  0  0  0  0
  -27.9664  -22.4108   19.5087 H   0  0  0  0  0  0
  -27.5161  -22.8239   21.1700 H   0  0  0  0  0  0
  -28.5197  -20.2876   20.2251 H   0  0  0  0  0  0
  -28.0933  -20.7464   21.8672 H   0  0  0  0  0  0
  -31.5690  -22.5431   20.7185 H   0  0  0  0  0  0
  -31.7829  -24.8158   20.7254 H   0  0  0  0  0  0
  -30.8074  -26.2560   20.9689 H   0  0  0  0  0  0
  -31.2268  -25.7328   19.3356 H   0  0  0  0  0  0
  -30.2619  -22.4592   23.4786 H   0  0  0  0  0  0
  -30.6572  -24.0418   22.8562 H   0  0  0  0  0  0
  -31.9291  -22.8507   23.0630 H   0  0  0  0  0  0
  -27.5483  -24.8477   19.9478 H   0  0  0  0  0  0
  -28.5327  -25.3457   18.5776 H   0  0  0  0  0  0
  -29.9398  -14.2306   22.4882 H   0  0  0  0  0  0
  -32.7104  -19.2595   22.1283 H   0  0  0  0  0  0
  -32.6848  -20.8370   21.4201 H   0  0  0  0  0  0
  1 25  1  0  0  0
  1 30  2  0  0  0
  1 87  1  0  0  0
  2  3  1  0  0  0
  2 25  1  0  0  0
  2 90  1  0  0  0
  2 91  1  0  0  0
  3  4  1  0  0  0
  3 92  1  0  0  0
  3 93  1  0  0  0
  4  5  1  0  0  0
  4 94  1  0  0  0
  4 95  1  0  0  0
  5  6  1  0  0  0
  5 26  1  0  0  0
  5 96  1  0  0  0
  6 25  1  0  0  0
  6 97  1  0  0  0
  6 98  1  0  0  0
  7  8  2  0  0  0
  7 26  1  0  0  0
  7 29  1  0  0  0
  8  9  1  0  0  0
  8 22  1  0  0  0
  9 10  1  0  0  0
  9 27  2  0  0  0
 10 11  2  0  0  0
 10 15  1  0  0  0
 11 12  1  0  0  0
 11 99  1  0  0  0
 12 13  2  0  0  0
 12100  1  0  0  0
 13 14  1  0  0  0
 13 31  1  0  0  0
 14 15  2  0  0  0
 14101  1  0  0  0
 15102  1  0  0  0
 16 17  2  0  0  0
 16 21  1  0  0  0
 16 31  1  0  0  0
 17 18  1  0  0  0
 17103  1  0  0  0
 18 19  2  0  0  0
 18104  1  0  0  0
 19 20  1  0  0  0
 19 24  1  0  0  0
 20 21  2  0  0  0
 20105  1  0  0  0
 21 23  1  0  0  0
 22 28  1  0  0  0
 22 32  2  0  0  0
 26 27  1  0  0  0
 28106  1  0  0  0
 28107  1  0  0  0
 29108  1  0  0  0
 29109  1  0  0  0
 33 34  1  0  0  0
 33 66  1  0  0  0
 33 70  2  0  0  0
 34 36  1  0  0  0
 34 59  1  0  0  0
 34110  1  0  0  0
 35 44  2  0  0  0
 35 45  1  0  0  0
 35 68  1  0  0  0
 36 56  1  0  0  0
 36111  1  0  0  0
 37 39  1  0  0  0
 37 47  1  0  0  0
 37 66  1  0  0  0
 37112  1  0  0  0
 38 43  2  0  0  0
 38 46  1  0  0  0
 38 47  1  0  0  0
 39 64  1  0  0  0
 39 67  2  0  0  0
 40 52  1  0  0  0
 40 53  2  0  0  0
 40 58  1  0  0  0
 41113  1  0  0  0
 41114  1  0  0  0
 41115  1  0  0  0
 41 48  1  0  0  0
 42 43  1  0  0  0
 42 66  1  0  0  0
 42116  1  0  0  0
 42117  1  0  0  0
 43 44  1  0  0  0
 44118  1  0  0  0
 45 46  2  0  0  0
 45119  1  0  0  0
 46120  1  0  0  0
 47121  1  0  0  0
 47122  1  0  0  0
 48 56  1  0  0  0
 48 65  1  0  0  0
 48123  1  0  0  0
 49 50  1  0  0  0
 49 53  1  0  0  0
 49 64  1  0  0  0
 49124  1  0  0  0
 50 51  1  0  0  0
 50125  1  0  0  0
 50126  1  0  0  0
 51 52  1  0  0  0
 51127  1  0  0  0
 51128  1  0  0  0
 52129  1  0  0  0
 52130  1  0  0  0
 53 54  1  0  0  0
 54 55  2  0  0  0
 54131  1  0  0  0
 55 57  1  0  0  0
 55132  1  0  0  0
 56 69  2  0  0  0
 57 58  2  0  0  0
 57133  1  0  0  0
 58134  1  0  0  0
 59 60  1  0  0  0
 59 61  1  0  0  0
 59 62  1  0  0  0
 60135  1  0  0  0
 60136  1  0  0  0
 60137  1  0  0  0
 61138  1  0  0  0
 61139  1  0  0  0
 61140  1  0  0  0
 62141  1  0  0  0
 62142  1  0  0  0
 62143  1  0  0  0
 63 65  1  0  0  0
 63144  1  0  0  0
 63145  1  0  0  0
 63146  1  0  0  0
 64147  1  0  0  0
 65148  1  0  0  0
 68 85  1  0  0  0
 71 72  2  0  0  0
 71 75  1  0  0  0
 71149  1  0  0  0
 72 76  1  0  0  0
 72150  1  0  0  0
 73 74  1  0  0  0
 73 75  2  0  0  0
 73151  1  0  0  0
 74 76  2  0  0  0
 74 78  1  0  0  0
 75 87  1  0  0  0
 76 89  1  0  0  0
 77 79  2  0  0  0
 77 80  1  0  0  0
 77 82  1  0  0  0
 78 86  1  0  0  0
 78 88  2  0  0  0
 79 83  1  0  0  0
 79 85  1  0  0  0
 80 81  1  0  0  0
 80152  1  0  0  0
 80153  1  0  0  0
 81 86  1  0  0  0
 81154  1  0  0  0
 81155  1  0  0  0
 82 84  1  0  0  0
 82 86  1  0  0  0
 82156  1  0  0  0
 83157  1  0  0  0
 83158  1  0  0  0
 83159  1  0  0  0
 84160  1  0  0  0
 84161  1  0  0  0
 84162  1  0  0  0
 85163  1  0  0  0
 85164  1  0  0  0
 87165  1  0  0  0
 88166  1  0  0  0
 88167  1  0  0  0
M  CHG  1  88   1
M  ISO  4   1 100  68 101  85 101  87 100
M  END
> <chiral flag>
0

> <version>
0

> <s_m_source_file>
/data/baiqing/PycharmProjects/Reinvent-master-3.2/result/LINK_invent/BTK/process_docking_weight1_custom_product_contain_oxygen_bond_distance_aromatic_linkinvent_7_9_3/rearranged_h_0144.sdf

> <i_m_source_file_index>
3

> <r_mmod_Potential_Energy-OPLS-2005>
-146.146896362305

> <r_mmod_Stretch_Energy-OPLS-2005>
42.164966583252

> <r_mmod_Bend_Energy-OPLS-2005>
131.568939208984

> <r_mmod_Torsional_Energy-OPLS-2005>
267.400085449219

> <r_mmod_Improper_Torsional_Energy-OPLS-2005>
7.66867446899414

> <r_mmod_Van_der_Waal_Energy-OPLS-2005>
158.450912475586

> <r_mmod_Electrostatic_Energy-OPLS-2005>
-374.626434326172

> <r_mmod_Solvation_Energy-OPLS-2005>
-390.9599609375

> <b_mmod_Minimization_Converged-OPLS-2005>
0

> <r_mmod_RMS_Derivative-OPLS-2005>
2.67225670814514

$$$$
3
                    3D
 Structure written by MMmdl.
163172  0  0  1  0            999 V2000
  -30.7329  -14.3398   20.7180 C   0  0  0  0  0  0
  -30.4208  -12.2810   19.3893 C   0  0  0  0  0  0
  -29.4764  -12.4963   18.1884 C   0  0  0  0  0  0
  -27.9981  -12.3612   18.6015 C   0  0  0  0  0  0
  -27.6613  -13.1837   19.8706 C   0  0  2  0  0  0
  -28.6902  -12.8987   20.9823 C   0  0  0  0  0  0
  -25.2596  -13.8124   20.5642 C   0  0  0  0  0  0
  -24.1818  -13.0458   20.9165 C   0  0  0  0  0  0
  -24.6321  -11.6904   20.8711 C   0  0  0  0  0  0
  -23.8982  -10.4310   21.0386 C   0  0  0  0  0  0
  -24.3569   -9.4243   21.9163 C   0  0  0  0  0  0
  -23.6271   -8.2262   22.0740 C   0  0  0  0  0  0
  -22.4253   -8.0276   21.3525 C   0  0  0  0  0  0
  -21.9856   -9.0240   20.4630 C   0  0  0  0  0  0
  -22.7155  -10.2140   20.3033 C   0  0  0  0  0  0
  -21.6860   -6.0733   22.5280 C   0  0  0  0  0  0
  -21.4010   -6.5632   23.8209 C   0  0  0  0  0  0
  -21.3665   -5.6790   24.9170 C   0  0  0  0  0  0
  -21.6051   -4.3051   24.7227 C   0  0  0  0  0  0
  -21.8830   -3.8142   23.4347 C   0  0  0  0  0  0
  -21.9190   -4.6962   22.3406 C   0  0  0  0  0  0
  -22.7852  -13.5275   21.1877 C   0  0  0  0  0  0
  -22.1668   -4.2141   21.0985 F   0  0  0  0  0  0
  -21.5628   -3.4543   25.7740 F   0  0  0  0  0  0
  -30.0404  -13.2015   20.4674 N   0  0  0  0  0  0
  -26.2984  -12.9243   20.3288 N   0  0  0  0  0  0
  -25.9215  -11.6435   20.5689 N   0  0  0  0  0  0
  -22.0509  -12.8259   22.0453 N   0  0  0  0  0  0
  -25.4435  -15.1838   20.4086 N   0  0  0  0  0  0
  -31.7276  -14.6902   20.0717 O   0  0  0  0  0  0
  -21.6641   -6.8864   21.4226 O   0  0  0  0  0  0
  -22.3548  -14.5614   20.6772 O   0  0  0  0  0  0
  -24.6098  -31.8681   23.2104 C   0  0  0  0  0  0
  -25.9014  -32.4813   23.8391 C   0  0  1  0  0  0
  -27.2364  -27.4522   20.1047 C   0  0  0  0  0  0
  -25.5894  -33.8605   24.2325 N   0  0  0  0  0  0
  -23.3975  -30.4886   21.5481 C   0  0  2  0  0  0
  -24.8454  -28.9606   20.1112 C   0  0  0  0  0  0
  -22.7387  -29.4635   22.4989 C   0  0  0  0  0  0
  -18.0260  -28.1382   22.8474 C   0  0  0  0  0  0
  -24.1475  -36.7297   23.2629 C   0  0  0  0  0  0
  -25.9248  -30.8435   21.3584 C   0  0  0  0  0  0
  -26.0032  -29.4801   20.7038 C   0  0  0  0  0  0
  -27.2020  -28.7355   20.6918 C   0  0  0  0  0  0
  -26.0599  -26.9402   19.5124 C   0  0  0  0  0  0
  -24.8685  -27.6893   19.5117 C   0  0  0  0  0  0
  -23.6026  -29.8198   20.1619 C   0  0  0  0  0  0
  -25.4093  -36.3088   24.0331 C   0  0  1  0  0  0
  -20.5850  -28.3625   23.1334 C   0  0  2  0  0  0
  -20.6745  -26.9368   22.5426 C   0  0  0  0  0  0
  -19.5731  -26.6375   21.5210 C   0  0  0  0  0  0
  -18.1904  -26.7926   22.1620 C   0  0  0  0  0  0
  -19.1514  -28.8820   23.2902 C   0  0  0  0  0  0
  -18.9453  -30.1437   23.8892 C   0  0  0  0  0  0
  -17.6462  -30.6590   24.0538 C   0  0  0  0  0  0
  -25.9030  -34.9459   23.5123 C   0  0  0  0  0  0
  -16.5341  -29.9088   23.6346 C   0  0  0  0  0  0
  -16.7250  -28.6515   23.0338 C   0  0  0  0  0  0
  -26.4468  -31.6582   25.0707 C   0  0  0  0  0  0
  -25.3762  -31.3690   26.1469 C   0  0  0  0  0  0
  -27.0289  -30.3008   24.6099 C   0  0  0  0  0  0
  -27.6043  -32.4291   25.7483 C   0  0  0  0  0  0
  -27.5570  -37.1801   24.8471 C   0  0  0  0  0  0
  -21.4115  -29.2999   22.3754 N   0  0  0  0  0  0
  -26.4279  -37.3778   23.9420 N   0  0  0  0  0  0
  -24.6617  -31.0818   22.0972 N   0  0  0  0  0  0
  -23.4187  -28.8183   23.3019 O   0  0  0  0  0  0
  -28.4147  -26.7407   20.1207 O   0  0  0  0  0  0
  -26.5591  -34.8918   22.4681 O   0  0  0  0  0  0
  -23.5311  -32.1400   23.7532 O   0  0  0  0  0  0
  -30.5166  -18.1648   23.5609 C   0  0  0  0  0  0
  -30.2920  -16.7639   23.4455 C   0  0  0  0  0  0
  -30.8455  -18.7568   22.3733 C   0  0  0  0  0  0
  -30.4998  -16.2724   22.1809 C   0  0  0  0  0  0
  -30.1788  -22.2024   21.3546 C   0  0  0  0  0  0
  -29.3495  -23.2632   21.2690 C   0  0  0  0  0  0
  -31.6515  -22.1107   21.0238 C   0  0  0  0  0  0
  -29.7630  -20.8842   21.9590 C   0  0  0  0  0  0
  -31.9834  -20.6285   21.2131 C   0  0  0  0  0  0
  -30.6912  -24.8304   19.7335 C   0  0  0  0  0  0
  -30.0941  -25.4624   22.0917 C   0  0  0  0  0  0
  -28.2977  -25.3260   20.3091 C   0  0  0  0  0  0
  -29.6207  -24.7092   20.8346 C   0  0  0  0  0  0
  -30.9889  -20.1252   22.1494 N   0  0  0  0  0  0
  -30.3020  -14.9827   21.8116 N   0  0  0  0  0  0
  -30.9664  -17.5712   21.0937 S   0  0  0  0  0  0
  -31.4575  -12.4186   19.0763 H   0  0  0  0  0  0
  -30.3594  -11.2548   19.7550 H   0  0  0  0  0  0
  -29.7036  -11.7664   17.4083 H   0  0  0  0  0  0
  -29.6477  -13.4806   17.7472 H   0  0  0  0  0  0
  -27.7968  -11.3036   18.7767 H   0  0  0  0  0  0
  -27.3442  -12.6533   17.7780 H   0  0  0  0  0  0
  -27.7332  -14.2390   19.6072 H   0  0  0  0  0  0
  -28.6502  -11.8478   21.2723 H   0  0  0  0  0  0
  -28.4034  -13.4450   21.8793 H   0  0  0  0  0  0
  -25.2723   -9.5766   22.4718 H   0  0  0  0  0  0
  -24.0018   -7.4664   22.7452 H   0  0  0  0  0  0
  -21.0787   -8.8726   19.8945 H   0  0  0  0  0  0
  -22.3570  -10.9667   19.6145 H   0  0  0  0  0  0
  -21.1992   -7.6133   23.9717 H   0  0  0  0  0  0
  -21.1480   -6.0507   25.9072 H   0  0  0  0  0  0
  -22.0593   -2.7597   23.2848 H   0  0  0  0  0  0
  -22.4132  -11.9881   22.4771 H   0  0  0  0  0  0
  -21.1149  -13.1287   22.2753 H   0  0  0  0  0  0
  -24.6900  -15.8488   20.5404 H   0  0  0  0  0  0
  -26.3099  -15.6185   20.1135 H   0  0  0  0  0  0
  -26.7079  -32.5537   23.1160 H   0  0  0  0  0  0
  -25.0057  -33.9773   25.0473 H   0  0  0  0  0  0
  -22.6806  -31.3007   21.4098 H   0  0  0  0  0  0
  -23.3761  -35.9621   23.3272 H   0  0  0  0  0  0
  -24.3575  -36.8938   22.2062 H   0  0  0  0  0  0
  -23.7227  -37.6481   23.6660 H   0  0  0  0  0  0
  -26.0421  -31.6208   20.6005 H   0  0  0  0  0  0
  -26.8083  -30.8871   21.9839 H   0  0  0  0  0  0
  -28.0952  -29.1321   21.1530 H   0  0  0  0  0  0
  -26.0572  -25.9644   19.0486 H   0  0  0  0  0  0
  -23.9774  -27.2832   19.0518 H   0  0  0  0  0  0
  -23.6985  -30.5928   19.3985 H   0  0  0  0  0  0
  -22.7314  -29.2277   19.8727 H   0  0  0  0  0  0
  -25.1278  -36.1935   25.0830 H   0  0  0  0  0  0
  -20.9925  -28.3177   24.1456 H   0  0  0  0  0  0
  -20.5619  -26.2224   23.3599 H   0  0  0  0  0  0
  -21.6620  -26.7401   22.1227 H   0  0  0  0  0  0
  -19.6888  -25.6293   21.1218 H   0  0  0  0  0  0
  -19.6690  -27.3208   20.6756 H   0  0  0  0  0  0
  -17.4172  -26.6644   21.4026 H   0  0  0  0  0  0
  -18.0302  -26.0092   22.9038 H   0  0  0  0  0  0
  -19.7928  -30.7249   24.2248 H   0  0  0  0  0  0
  -17.5020  -31.6267   24.5143 H   0  0  0  0  0  0
  -15.5342  -30.2982   23.7683 H   0  0  0  0  0  0
  -15.8641  -28.0834   22.7048 H   0  0  0  0  0  0
  -24.5946  -30.7021   25.7828 H   0  0  0  0  0  0
  -24.8958  -32.2850   26.4900 H   0  0  0  0  0  0
  -25.8153  -30.8880   27.0221 H   0  0  0  0  0  0
  -26.2845  -29.6785   24.1119 H   0  0  0  0  0  0
  -27.3995  -29.7215   25.4570 H   0  0  0  0  0  0
  -27.8701  -30.4294   23.9286 H   0  0  0  0  0  0
  -27.2654  -33.3567   26.2102 H   0  0  0  0  0  0
  -28.3852  -32.6879   25.0321 H   0  0  0  0  0  0
  -28.0722  -31.8384   26.5373 H   0  0  0  0  0  0
  -28.2590  -38.0087   24.7496 H   0  0  0  0  0  0
  -28.1048  -36.2621   24.6303 H   0  0  0  0  0  0
  -27.2282  -37.1466   25.8868 H   0  0  0  0  0  0
  -20.9264  -29.8700   21.6972 H   0  0  0  0  0  0
  -26.0151  -38.2846   24.1436 H   0  0  0  0  0  0
  -30.4035  -18.6846   24.5006 H   0  0  0  0  0  0
  -29.9881  -16.1789   24.3044 H   0  0  0  0  0  0
  -28.3341  -23.0866   21.5963 H   0  0  0  0  0  0
  -32.2024  -22.7262   21.7353 H   0  0  0  0  0  0
  -31.8906  -22.4426   20.0142 H   0  0  0  0  0  0
  -29.0860  -20.3569   21.2842 H   0  0  0  0  0  0
  -29.2510  -21.0456   22.9111 H   0  0  0  0  0  0
  -33.0034  -20.4848   21.5743 H   0  0  0  0  0  0
  -31.8888  -20.1102   20.2563 H   0  0  0  0  0  0
  -31.6940  -24.6509   20.1151 H   0  0  0  0  0  0
  -30.7060  -25.8365   19.3143 H   0  0  0  0  0  0
  -30.5000  -24.1370   18.9129 H   0  0  0  0  0  0
  -31.0493  -25.0703   22.4457 H   0  0  0  0  0  0
  -29.3770  -25.3633   22.9070 H   0  0  0  0  0  0
  -30.2396  -26.5242   21.9019 H   0  0  0  0  0  0
  -28.0121  -24.8467   19.3711 H   0  0  0  0  0  0
  -27.4964  -25.1249   21.0243 H   0  0  0  0  0  0
  -29.6123  -14.4751   22.3450 H   0  0  0  0  0  0
  1 25  1  0  0  0
  1 30  2  0  0  0
  1 85  1  0  0  0
  2  3  1  0  0  0
  2 25  1  0  0  0
  2 87  1  0  0  0
  2 88  1  0  0  0
  3  4  1  0  0  0
  3 89  1  0  0  0
  3 90  1  0  0  0
  4  5  1  0  0  0
  4 91  1  0  0  0
  4 92  1  0  0  0
  5  6  1  0  0  0
  5 26  1  0  0  0
  5 93  1  0  0  0
  6 25  1  0  0  0
  6 94  1  0  0  0
  6 95  1  0  0  0
  7  8  2  0  0  0
  7 26  1  0  0  0
  7 29  1  0  0  0
  8  9  1  0  0  0
  8 22  1  0  0  0
  9 10  1  0  0  0
  9 27  2  0  0  0
 10 11  2  0  0  0
 10 15  1  0  0  0
 11 12  1  0  0  0
 11 96  1  0  0  0
 12 13  2  0  0  0
 12 97  1  0  0  0
 13 14  1  0  0  0
 13 31  1  0  0  0
 14 15  2  0  0  0
 14 98  1  0  0  0
 15 99  1  0  0  0
 16 17  2  0  0  0
 16 21  1  0  0  0
 16 31  1  0  0  0
 17 18  1  0  0  0
 17100  1  0  0  0
 18 19  2  0  0  0
 18101  1  0  0  0
 19 20  1  0  0  0
 19 24  1  0  0  0
 20 21  2  0  0  0
 20102  1  0  0  0
 21 23  1  0  0  0
 22 28  1  0  0  0
 22 32  2  0  0  0
 26 27  1  0  0  0
 28103  1  0  0  0
 28104  1  0  0  0
 29105  1  0  0  0
 29106  1  0  0  0
 33 34  1  0  0  0
 33 66  1  0  0  0
 33 70  2  0  0  0
 34 36  1  0  0  0
 34 59  1  0  0  0
 34107  1  0  0  0
 35 44  2  0  0  0
 35 45  1  0  0  0
 35 68  1  0  0  0
 36 56  1  0  0  0
 36108  1  0  0  0
 37 39  1  0  0  0
 37 47  1  0  0  0
 37 66  1  0  0  0
 37109  1  0  0  0
 38 43  2  0  0  0
 38 46  1  0  0  0
 38 47  1  0  0  0
 39 64  1  0  0  0
 39 67  2  0  0  0
 40 52  1  0  0  0
 40 53  2  0  0  0
 40 58  1  0  0  0
 41110  1  0  0  0
 41111  1  0  0  0
 41112  1  0  0  0
 41 48  1  0  0  0
 42 43  1  0  0  0
 42 66  1  0  0  0
 42113  1  0  0  0
 42114  1  0  0  0
 43 44  1  0  0  0
 44115  1  0  0  0
 45 46  2  0  0  0
 45116  1  0  0  0
 46117  1  0  0  0
 47118  1  0  0  0
 47119  1  0  0  0
 48 56  1  0  0  0
 48 65  1  0  0  0
 48120  1  0  0  0
 49 50  1  0  0  0
 49 53  1  0  0  0
 49 64  1  0  0  0
 49121  1  0  0  0
 50 51  1  0  0  0
 50122  1  0  0  0
 50123  1  0  0  0
 51 52  1  0  0  0
 51124  1  0  0  0
 51125  1  0  0  0
 52126  1  0  0  0
 52127  1  0  0  0
 53 54  1  0  0  0
 54 55  2  0  0  0
 54128  1  0  0  0
 55 57  1  0  0  0
 55129  1  0  0  0
 56 69  2  0  0  0
 57 58  2  0  0  0
 57130  1  0  0  0
 58131  1  0  0  0
 59 60  1  0  0  0
 59 61  1  0  0  0
 59 62  1  0  0  0
 60132  1  0  0  0
 60133  1  0  0  0
 60134  1  0  0  0
 61135  1  0  0  0
 61136  1  0  0  0
 61137  1  0  0  0
 62138  1  0  0  0
 62139  1  0  0  0
 62140  1  0  0  0
 63 65  1  0  0  0
 63141  1  0  0  0
 63142  1  0  0  0
 63143  1  0  0  0
 64144  1  0  0  0
 65145  1  0  0  0
 68 82  1  0  0  0
 71 72  1  0  0  0
 71 73  2  0  0  0
 71146  1  0  0  0
 72 74  2  0  0  0
 72147  1  0  0  0
 73 84  1  0  0  0
 73 86  1  0  0  0
 74 85  1  0  0  0
 74 86  1  0  0  0
 75 76  2  0  0  0
 75 77  1  0  0  0
 75 78  1  0  0  0
 76 83  1  0  0  0
 76148  1  0  0  0
 77 79  1  0  0  0
 77149  1  0  0  0
 77150  1  0  0  0
 78 84  1  0  0  0
 78151  1  0  0  0
 78152  1  0  0  0
 79 84  1  0  0  0
 79153  1  0  0  0
 79154  1  0  0  0
 80155  1  0  0  0
 80156  1  0  0  0
 80157  1  0  0  0
 80 83  1  0  0  0
 81 83  1  0  0  0
 81158  1  0  0  0
 81159  1  0  0  0
 81160  1  0  0  0
 82 83  1  0  0  0
 82161  1  0  0  0
 82162  1  0  0  0
 85163  1  0  0  0
M  ISO  4   1 100  68 101  82 101  85 100
M  END
> <chiral flag>
0

> <version>
0

> <s_m_source_file>
/data/baiqing/PycharmProjects/Reinvent-master-3.2/result/LINK_invent/BTK/process_docking_weight1_custom_product_contain_oxygen_bond_distance_aromatic_linkinvent_7_9_3/rearranged_h_0144.sdf

> <i_m_source_file_index>
4

> <r_mmod_Potential_Energy-OPLS-2005>
-1.01381742954254

> <r_mmod_Stretch_Energy-OPLS-2005>
32.0714111328125

> <r_mmod_Bend_Energy-OPLS-2005>
135.241638183594

> <r_mmod_Torsional_Energy-OPLS-2005>
251.738952636719

> <r_mmod_Improper_Torsional_Energy-OPLS-2005>
7.46727895736694

> <r_mmod_Van_der_Waal_Energy-OPLS-2005>
137.480224609375

> <r_mmod_Electrostatic_Energy-OPLS-2005>
-349.321197509766

> <r_mmod_Solvation_Energy-OPLS-2005>
-224.938323974609

> <b_mmod_Minimization_Converged-OPLS-2005>
0

> <r_mmod_RMS_Derivative-OPLS-2005>
4.62974643707275

$$$$
4
                    3D
 Structure written by MMmdl.
160169  0  0  1  0            999 V2000
  -30.6891  -14.7384   20.4060 C   0  0  0  0  0  0
  -30.4463  -12.4408   19.4888 C   0  0  0  0  0  0
  -29.5349  -12.5204   18.2473 C   0  0  0  0  0  0
  -28.0601  -12.3458   18.6582 C   0  0  0  0  0  0
  -27.6650  -13.2424   19.8642 C   0  0  2  0  0  0
  -28.7225  -13.2015   20.9956 C   0  0  0  0  0  0
  -25.2653  -13.8210   20.5711 C   0  0  0  0  0  0
  -24.1906  -13.0425   20.9140 C   0  0  0  0  0  0
  -24.6522  -11.6931   20.8726 C   0  0  0  0  0  0
  -23.9157  -10.4297   21.0374 C   0  0  0  0  0  0
  -24.3678   -9.4217   21.9170 C   0  0  0  0  0  0
  -23.6322   -8.2269   22.0764 C   0  0  0  0  0  0
  -22.4315   -8.0320   21.3558 C   0  0  0  0  0  0
  -21.9955   -9.0280   20.4661 C   0  0  0  0  0  0
  -22.7305  -10.2155   20.3044 C   0  0  0  0  0  0
  -21.6873   -6.0753   22.5272 C   0  0  0  0  0  0
  -21.4023   -6.5637   23.8210 C   0  0  0  0  0  0
  -21.3653   -5.6793   24.9162 C   0  0  0  0  0  0
  -21.6024   -4.3044   24.7215 C   0  0  0  0  0  0
  -21.8816   -3.8155   23.4322 C   0  0  0  0  0  0
  -21.9190   -4.6973   22.3395 C   0  0  0  0  0  0
  -22.7931  -13.5229   21.1730 C   0  0  0  0  0  0
  -22.1673   -4.2160   21.0973 F   0  0  0  0  0  0
  -21.5609   -3.4532   25.7717 F   0  0  0  0  0  0
  -30.0327  -13.5249   20.4029 N   0  0  0  0  0  0
  -26.3132  -12.9440   20.3407 N   0  0  0  0  0  0
  -25.9491  -11.6568   20.5816 N   0  0  0  0  0  0
  -22.0568  -12.8245   22.0322 N   0  0  0  0  0  0
  -25.4279  -15.1915   20.4160 N   0  0  0  0  0  0
  -31.8665  -14.8087   20.0517 O   0  0  0  0  0  0
  -21.6674   -6.8908   21.4260 O   0  0  0  0  0  0
  -22.3612  -14.5511   20.6558 O   0  0  0  0  0  0
  -24.6269  -31.8598   23.2021 C   0  0  0  0  0  0
  -25.9108  -32.4797   23.8373 C   0  0  1  0  0  0
  -27.2897  -27.3488   20.0756 C   0  0  0  0  0  0
  -25.5937  -33.8621   24.2269 N   0  0  0  0  0  0
  -23.4208  -30.4695   21.5519 C   0  0  2  0  0  0
  -24.8777  -28.9207   20.1180 C   0  0  0  0  0  0
  -22.7448  -29.4591   22.5064 C   0  0  0  0  0  0
  -18.0269  -28.1445   22.8476 C   0  0  0  0  0  0
  -24.1458  -36.7255   23.2646 C   0  0  0  0  0  0
  -25.9609  -30.7941   21.3657 C   0  0  0  0  0  0
  -26.0455  -29.4211   20.7084 C   0  0  0  0  0  0
  -27.2447  -28.6465   20.6834 C   0  0  0  0  0  0
  -26.0819  -26.8843   19.4994 C   0  0  0  0  0  0
  -24.8965  -27.6538   19.5149 C   0  0  0  0  0  0
  -23.6331  -29.7921   20.1737 C   0  0  0  0  0  0
  -25.4115  -36.3116   24.0336 C   0  0  1  0  0  0
  -20.5856  -28.3702   23.1372 C   0  0  2  0  0  0
  -20.6783  -26.9445   22.5476 C   0  0  0  0  0  0
  -19.5768  -26.6429   21.5273 C   0  0  0  0  0  0
  -18.1921  -26.7978   22.1646 C   0  0  0  0  0  0
  -19.1520  -28.8901   23.2891 C   0  0  0  0  0  0
  -18.9445  -30.1510   23.8882 C   0  0  0  0  0  0
  -17.6451  -30.6636   24.0584 C   0  0  0  0  0  0
  -25.9081  -34.9506   23.5107 C   0  0  0  0  0  0
  -16.5333  -29.9145   23.6359 C   0  0  0  0  0  0
  -16.7255  -28.6588   23.0318 C   0  0  0  0  0  0
  -26.4474  -31.6595   25.0737 C   0  0  0  0  0  0
  -25.3657  -31.3702   26.1393 C   0  0  0  0  0  0
  -27.0295  -30.3030   24.6191 C   0  0  0  0  0  0
  -27.6114  -32.4226   25.7483 C   0  0  0  0  0  0
  -27.5557  -37.1796   24.8491 C   0  0  0  0  0  0
  -21.4176  -29.3012   22.3758 N   0  0  0  0  0  0
  -26.4274  -37.3833   23.9438 N   0  0  0  0  0  0
  -24.6884  -31.0575   22.0974 N   0  0  0  0  0  0
  -23.4135  -28.8191   23.3213 O   0  0  0  0  0  0
  -28.4667  -26.5694   20.0672 O   0  0  0  0  0  0
  -26.5655  -34.8978   22.4680 O   0  0  0  0  0  0
  -23.5437  -32.1434   23.7327 O   0  0  0  0  0  0
  -31.3664  -19.3302   19.4086 C   0  0  0  0  0  0
  -31.2533  -17.9109   19.6087 C   0  0  0  0  0  0
  -29.2449  -18.2798   20.8543 C   0  0  0  0  0  0
  -30.4169  -20.2694   19.9168 C   0  0  0  0  0  0
  -30.1829  -17.3273   20.3576 C   0  0  0  0  0  0
  -29.3383  -19.6859   20.6339 C   0  0  0  0  0  0
  -30.6709  -22.5407   21.1900 C   0  0  0  0  0  0
  -30.3425  -24.0460   21.0110 C   0  0  0  0  0  0
  -29.6895  -22.7969   19.0181 C   0  0  0  0  0  0
  -30.6476  -21.8417   19.8251 C   0  0  2  0  0  0
  -29.8037  -24.2931   19.5832 C   0  0  1  0  0  0
  -30.8587  -25.0761   18.7637 C   0  0  0  0  0  0
  -28.4549  -25.1726   19.5676 C   0  0  0  0  0  0
  -29.9523  -15.8825   20.6278 N   0  0  0  0  0  0
  -28.3744  -20.4822   21.1554 F   0  0  0  0  0  0
  -31.4974  -12.5124   19.2074 H   0  0  0  0  0  0
  -30.3421  -11.4763   19.9847 H   0  0  0  0  0  0
  -29.8253  -11.7637   17.5179 H   0  0  0  0  0  0
  -29.6683  -13.4860   17.7561 H   0  0  0  0  0  0
  -27.9158  -11.2940   18.9076 H   0  0  0  0  0  0
  -27.4065  -12.5504   17.8117 H   0  0  0  0  0  0
  -27.6539  -14.2658   19.4888 H   0  0  0  0  0  0
  -28.7605  -12.2175   21.4657 H   0  0  0  0  0  0
  -28.4681  -13.9052   21.7899 H   0  0  0  0  0  0
  -25.2821   -9.5646   22.4747 H   0  0  0  0  0  0
  -23.9984   -7.4657   22.7494 H   0  0  0  0  0  0
  -21.0858   -8.8783   19.9000 H   0  0  0  0  0  0
  -22.3737  -10.9665   19.6138 H   0  0  0  0  0  0
  -21.2066   -7.6163   23.9696 H   0  0  0  0  0  0
  -21.1469   -6.0544   25.9057 H   0  0  0  0  0  0
  -22.0615   -2.7618   23.2824 H   0  0  0  0  0  0
  -22.4228  -11.9977   22.4768 H   0  0  0  0  0  0
  -21.1182  -13.1275   22.2485 H   0  0  0  0  0  0
  -24.6437  -15.8285   20.5087 H   0  0  0  0  0  0
  -26.2674  -15.6398   20.0728 H   0  0  0  0  0  0
  -26.7199  -32.5381   23.1144 H   0  0  0  0  0  0
  -25.0075  -33.9841   25.0401 H   0  0  0  0  0  0
  -22.7036  -31.2815   21.4085 H   0  0  0  0  0  0
  -23.3786  -35.9513   23.3337 H   0  0  0  0  0  0
  -24.3540  -36.8856   22.2058 H   0  0  0  0  0  0
  -23.7152  -37.6456   23.6616 H   0  0  0  0  0  0
  -26.0870  -31.5536   20.5920 H   0  0  0  0  0  0
  -26.8392  -30.8448   21.9956 H   0  0  0  0  0  0
  -28.1339  -29.0429   21.1558 H   0  0  0  0  0  0
  -26.0304  -25.9076   19.0426 H   0  0  0  0  0  0
  -23.9954  -27.2510   19.0719 H   0  0  0  0  0  0
  -23.7400  -30.5696   19.4188 H   0  0  0  0  0  0
  -22.7449  -29.2267   19.8740 H   0  0  0  0  0  0
  -25.1305  -36.1994   25.0834 H   0  0  0  0  0  0
  -20.9921  -28.3276   24.1516 H   0  0  0  0  0  0
  -20.5852  -26.2277   23.3657 H   0  0  0  0  0  0
  -21.6629  -26.7615   22.1162 H   0  0  0  0  0  0
  -19.6987  -25.6374   21.1249 H   0  0  0  0  0  0
  -19.6730  -27.3277   20.6831 H   0  0  0  0  0  0
  -17.4214  -26.6720   21.4025 H   0  0  0  0  0  0
  -18.0295  -26.0184   22.9098 H   0  0  0  0  0  0
  -19.7922  -30.7334   24.2205 H   0  0  0  0  0  0
  -17.5030  -31.6327   24.5187 H   0  0  0  0  0  0
  -15.5344  -30.3053   23.7794 H   0  0  0  0  0  0
  -15.8615  -28.0980   22.6981 H   0  0  0  0  0  0
  -24.5941  -30.6949   25.7669 H   0  0  0  0  0  0
  -24.8662  -32.2808   26.4691 H   0  0  0  0  0  0
  -25.7947  -30.8978   27.0230 H   0  0  0  0  0  0
  -26.2875  -29.6823   24.1153 H   0  0  0  0  0  0
  -27.3929  -29.7271   25.4717 H   0  0  0  0  0  0
  -27.8765  -30.4364   23.9464 H   0  0  0  0  0  0
  -27.2884  -33.3581   26.2040 H   0  0  0  0  0  0
  -28.3938  -32.6638   25.0271 H   0  0  0  0  0  0
  -28.0717  -31.8293   26.5396 H   0  0  0  0  0  0
  -28.2633  -38.0042   24.7537 H   0  0  0  0  0  0
  -28.0986  -36.2592   24.6295 H   0  0  0  0  0  0
  -27.2258  -37.1422   25.8890 H   0  0  0  0  0  0
  -20.9404  -29.8555   21.6799 H   0  0  0  0  0  0
  -26.0158  -38.2904   24.1477 H   0  0  0  0  0  0
  -32.2311  -19.7176   18.8835 H   0  0  0  0  0  0
  -32.0187  -17.2756   19.1812 H   0  0  0  0  0  0
  -28.4150  -17.9415   21.4535 H   0  0  0  0  0  0
  -31.6091  -22.3690   21.7156 H   0  0  0  0  0  0
  -29.8947  -22.1264   21.8260 H   0  0  0  0  0  0
  -31.2138  -24.6613   21.2498 H   0  0  0  0  0  0
  -29.5792  -24.3270   21.7330 H   0  0  0  0  0  0
  -28.6667  -22.4407   19.1114 H   0  0  0  0  0  0
  -29.9271  -22.7422   17.9509 H   0  0  0  0  0  0
  -31.6431  -21.9847   19.3958 H   0  0  0  0  0  0
  -31.7841  -24.5209   18.6022 H   0  0  0  0  0  0
  -31.1230  -26.0236   19.2381 H   0  0  0  0  0  0
  -30.4591  -25.3328   17.7842 H   0  0  0  0  0  0
  -28.1405  -25.2270   18.5248 H   0  0  0  0  0  0
  -27.6743  -24.6203   20.0953 H   0  0  0  0  0  0
  -29.0421  -15.6727   21.0091 H   0  0  0  0  0  0
  1 25  1  0  0  0
  1 30  2  0  0  0
  1 84  1  0  0  0
  2  3  1  0  0  0
  2 25  1  0  0  0
  2 86  1  0  0  0
  2 87  1  0  0  0
  3  4  1  0  0  0
  3 88  1  0  0  0
  3 89  1  0  0  0
  4  5  1  0  0  0
  4 90  1  0  0  0
  4 91  1  0  0  0
  5  6  1  0  0  0
  5 26  1  0  0  0
  5 92  1  0  0  0
  6 25  1  0  0  0
  6 93  1  0  0  0
  6 94  1  0  0  0
  7  8  2  0  0  0
  7 26  1  0  0  0
  7 29  1  0  0  0
  8  9  1  0  0  0
  8 22  1  0  0  0
  9 10  1  0  0  0
  9 27  2  0  0  0
 10 11  2  0  0  0
 10 15  1  0  0  0
 11 12  1  0  0  0
 11 95  1  0  0  0
 12 13  2  0  0  0
 12 96  1  0  0  0
 13 14  1  0  0  0
 13 31  1  0  0  0
 14 15  2  0  0  0
 14 97  1  0  0  0
 15 98  1  0  0  0
 16 17  2  0  0  0
 16 21  1  0  0  0
 16 31  1  0  0  0
 17 18  1  0  0  0
 17 99  1  0  0  0
 18 19  2  0  0  0
 18100  1  0  0  0
 19 20  1  0  0  0
 19 24  1  0  0  0
 20 21  2  0  0  0
 20101  1  0  0  0
 21 23  1  0  0  0
 22 28  1  0  0  0
 22 32  2  0  0  0
 26 27  1  0  0  0
 28102  1  0  0  0
 28103  1  0  0  0
 29104  1  0  0  0
 29105  1  0  0  0
 33 34  1  0  0  0
 33 66  1  0  0  0
 33 70  2  0  0  0
 34 36  1  0  0  0
 34 59  1  0  0  0
 34106  1  0  0  0
 35 44  2  0  0  0
 35 45  1  0  0  0
 35 68  1  0  0  0
 36 56  1  0  0  0
 36107  1  0  0  0
 37 39  1  0  0  0
 37 47  1  0  0  0
 37 66  1  0  0  0
 37108  1  0  0  0
 38 43  2  0  0  0
 38 46  1  0  0  0
 38 47  1  0  0  0
 39 64  1  0  0  0
 39 67  2  0  0  0
 40 52  1  0  0  0
 40 53  2  0  0  0
 40 58  1  0  0  0
 41109  1  0  0  0
 41110  1  0  0  0
 41111  1  0  0  0
 41 48  1  0  0  0
 42 43  1  0  0  0
 42 66  1  0  0  0
 42112  1  0  0  0
 42113  1  0  0  0
 43 44  1  0  0  0
 44114  1  0  0  0
 45 46  2  0  0  0
 45115  1  0  0  0
 46116  1  0  0  0
 47117  1  0  0  0
 47118  1  0  0  0
 48 56  1  0  0  0
 48 65  1  0  0  0
 48119  1  0  0  0
 49 50  1  0  0  0
 49 53  1  0  0  0
 49 64  1  0  0  0
 49120  1  0  0  0
 50 51  1  0  0  0
 50121  1  0  0  0
 50122  1  0  0  0
 51 52  1  0  0  0
 51123  1  0  0  0
 51124  1  0  0  0
 52125  1  0  0  0
 52126  1  0  0  0
 53 54  1  0  0  0
 54 55  2  0  0  0
 54127  1  0  0  0
 55 57  1  0  0  0
 55128  1  0  0  0
 56 69  2  0  0  0
 57 58  2  0  0  0
 57129  1  0  0  0
 58130  1  0  0  0
 59 60  1  0  0  0
 59 61  1  0  0  0
 59 62  1  0  0  0
 60131  1  0  0  0
 60132  1  0  0  0
 60133  1  0  0  0
 61134  1  0  0  0
 61135  1  0  0  0
 61136  1  0  0  0
 62137  1  0  0  0
 62138  1  0  0  0
 62139  1  0  0  0
 63 65  1  0  0  0
 63140  1  0  0  0
 63141  1  0  0  0
 63142  1  0  0  0
 64143  1  0  0  0
 65144  1  0  0  0
 68 83  1  0  0  0
 71 72  2  0  0  0
 71 74  1  0  0  0
 71145  1  0  0  0
 72 75  1  0  0  0
 72146  1  0  0  0
 73 75  2  0  0  0
 73 76  1  0  0  0
 73147  1  0  0  0
 74 76  2  0  0  0
 74 80  1  0  0  0
 75 84  1  0  0  0
 76 85  1  0  0  0
 77 78  1  0  0  0
 77 80  1  0  0  0
 77148  1  0  0  0
 77149  1  0  0  0
 78 81  1  0  0  0
 78150  1  0  0  0
 78151  1  0  0  0
 79 80  1  0  0  0
 79 81  1  0  0  0
 79152  1  0  0  0
 79153  1  0  0  0
 80154  1  0  0  0
 81 82  1  0  0  0
 81 83  1  0  0  0
 82155  1  0  0  0
 82156  1  0  0  0
 82157  1  0  0  0
 83158  1  0  0  0
 83159  1  0  0  0
 84160  1  0  0  0
M  ISO  4   1 100  68 101  83 101  84 100
M  END
> <chiral flag>
0

> <version>
0

> <s_m_source_file>
/data/baiqing/PycharmProjects/Reinvent-master-3.2/result/LINK_invent/BTK/process_docking_weight1_custom_product_contain_oxygen_bond_distance_aromatic_linkinvent_7_9_3/rearranged_h_0144.sdf

> <i_m_source_file_index>
5

> <r_mmod_Potential_Energy-OPLS-2005>
220.78254699707

> <r_mmod_Stretch_Energy-OPLS-2005>
100.211669921875

> <r_mmod_Bend_Energy-OPLS-2005>
181.507537841797

> <r_mmod_Torsional_Energy-OPLS-2005>
275.181793212891

> <r_mmod_Improper_Torsional_Energy-OPLS-2005>
4.77071094512939

> <r_mmod_Van_der_Waal_Energy-OPLS-2005>
136.819213867188

> <r_mmod_Electrostatic_Energy-OPLS-2005>
-346.844329833984

> <r_mmod_Solvation_Energy-OPLS-2005>
-195.790054321289

> <b_mmod_Minimization_Converged-OPLS-2005>
0

> <r_mmod_RMS_Derivative-OPLS-2005>
6.96408843994141

$$$$
5
                    3D
 Structure written by MMmdl.
176184  0  0  1  0            999 V2000
  -30.7039  -14.3237   20.7874 C   0  0  0  0  0  0
  -30.4427  -12.3129   19.3500 C   0  0  0  0  0  0
  -29.4851  -12.5726   18.1686 C   0  0  0  0  0  0
  -28.0056  -12.4181   18.5828 C   0  0  0  0  0  0
  -27.6730  -13.1866   19.8866 C   0  0  2  0  0  0
  -28.7094  -12.8004   20.9589 C   0  0  0  0  0  0
  -25.2619  -13.8113   20.5632 C   0  0  0  0  0  0
  -24.1850  -13.0421   20.9152 C   0  0  0  0  0  0
  -24.6371  -11.6884   20.8727 C   0  0  0  0  0  0
  -23.9023  -10.4289   21.0405 C   0  0  0  0  0  0
  -24.3577   -9.4210   21.9183 C   0  0  0  0  0  0
  -23.6261   -8.2240   22.0762 C   0  0  0  0  0  0
  -22.4246   -8.0271   21.3544 C   0  0  0  0  0  0
  -21.9867   -9.0247   20.4651 C   0  0  0  0  0  0
  -22.7196  -10.2126   20.3055 C   0  0  0  0  0  0
  -21.6850   -6.0717   22.5271 C   0  0  0  0  0  0
  -21.4023   -6.5623   23.8201 C   0  0  0  0  0  0
  -21.3667   -5.6780   24.9163 C   0  0  0  0  0  0
  -21.6055   -4.3044   24.7223 C   0  0  0  0  0  0
  -21.8819   -3.8129   23.4346 C   0  0  0  0  0  0
  -21.9191   -4.6943   22.3401 C   0  0  0  0  0  0
  -22.7884  -13.5252   21.1825 C   0  0  0  0  0  0
  -22.1662   -4.2123   21.0981 F   0  0  0  0  0  0
  -21.5622   -3.4536   25.7745 F   0  0  0  0  0  0
  -30.0522  -13.1747   20.4726 N   0  0  0  0  0  0
  -26.3059  -12.9250   20.3365 N   0  0  0  0  0  0
  -25.9283  -11.6426   20.5713 N   0  0  0  0  0  0
  -22.0495  -12.8285   22.0387 N   0  0  0  0  0  0
  -25.4309  -15.1830   20.4027 N   0  0  0  0  0  0
  -31.6589  -14.7590   20.1322 O   0  0  0  0  0  0
  -21.6624   -6.8857   21.4230 O   0  0  0  0  0  0
  -22.3589  -14.5558   20.6666 O   0  0  0  0  0  0
  -24.6104  -31.8726   23.2114 C   0  0  0  0  0  0
  -25.9010  -32.4847   23.8408 C   0  0  1  0  0  0
  -27.2431  -27.4816   20.0701 C   0  0  0  0  0  0
  -25.5876  -33.8643   24.2344 N   0  0  0  0  0  0
  -23.3964  -30.4936   21.5534 C   0  0  2  0  0  0
  -24.8422  -28.9623   20.1191 C   0  0  0  0  0  0
  -22.7398  -29.4676   22.5028 C   0  0  0  0  0  0
  -18.0275  -28.1379   22.8511 C   0  0  0  0  0  0
  -24.1480  -36.7331   23.2639 C   0  0  0  0  0  0
  -25.9198  -30.8503   21.3563 C   0  0  0  0  0  0
  -25.9996  -29.4860   20.7074 C   0  0  0  0  0  0
  -27.2031  -28.7519   20.6774 C   0  0  0  0  0  0
  -26.0678  -26.9611   19.4818 C   0  0  0  0  0  0
  -24.8685  -27.6949   19.5084 C   0  0  0  0  0  0
  -23.6022  -29.8233   20.1691 C   0  0  0  0  0  0
  -25.4104  -36.3133   24.0345 C   0  0  1  0  0  0
  -20.5860  -28.3665   23.1344 C   0  0  2  0  0  0
  -20.6762  -26.9406   22.5429 C   0  0  0  0  0  0
  -19.5736  -26.6396   21.5225 C   0  0  0  0  0  0
  -18.1917  -26.7929   22.1637 C   0  0  0  0  0  0
  -19.1522  -28.8840   23.2923 C   0  0  0  0  0  0
  -18.9452  -30.1445   23.8929 C   0  0  0  0  0  0
  -17.6453  -30.6584   24.0579 C   0  0  0  0  0  0
  -25.9026  -34.9496   23.5144 C   0  0  0  0  0  0
  -16.5343  -29.9094   23.6324 C   0  0  0  0  0  0
  -16.7265  -28.6509   23.0350 C   0  0  0  0  0  0
  -26.4457  -31.6604   25.0711 C   0  0  0  0  0  0
  -25.3729  -31.3694   26.1461 C   0  0  0  0  0  0
  -27.0285  -30.3058   24.6039 C   0  0  0  0  0  0
  -27.6048  -32.4311   25.7459 C   0  0  0  0  0  0
  -27.5587  -37.1820   24.8474 C   0  0  0  0  0  0
  -21.4128  -29.3034   22.3754 N   0  0  0  0  0  0
  -26.4297  -37.3815   23.9410 N   0  0  0  0  0  0
  -24.6607  -31.0860   22.0999 N   0  0  0  0  0  0
  -23.4183  -28.8234   23.3072 O   0  0  0  0  0  0
  -28.4432  -26.8141   20.0054 O   0  0  0  0  0  0
  -26.5598  -34.8949   22.4709 O   0  0  0  0  0  0
  -23.5302  -32.1460   23.7531 O   0  0  0  0  0  0
  -28.6271  -17.6851   23.6638 C   0  0  0  0  0  0
  -30.7043  -18.4883   22.7038 C   0  0  0  0  0  0
  -28.8638  -16.3929   23.1533 C   0  0  0  0  0  0
  -29.5303  -18.7455   23.4401 C   0  0  0  0  0  0
  -30.0499  -16.1421   22.4021 C   0  0  0  0  0  0
  -30.9707  -17.2012   22.1940 C   0  0  0  0  0  0
  -28.1682  -20.5409   23.9115 C   0  0  0  0  0  0
  -28.6176  -24.1414   22.5621 C   0  0  0  0  0  0
  -26.6796  -15.6074   24.3709 C   0  0  0  0  0  0
  -29.7590  -22.5991   25.9887 C   0  0  0  0  0  0
  -30.7030  -24.6826   21.1943 C   0  0  0  0  0  0
  -29.4775  -26.4757   22.4569 C   0  0  0  0  0  0
  -27.8329  -15.2872   23.4034 C   0  0  0  0  0  0
  -27.7142  -21.7802   24.6664 C   0  0  0  0  0  0
  -29.4886  -23.3982   23.5871 C   0  0  0  0  0  0
  -28.4439  -25.4303   20.3508 C   0  0  0  0  0  0
  -28.7537  -22.9194   24.8655 C   0  0  2  0  0  0
  -29.3043  -25.1758   21.6333 C   0  0  0  0  0  0
  -29.3211  -20.0060   24.0096 N   0  0  0  0  0  0
  -30.3005  -14.8044   21.9786 N   0  0  0  0  0  0
  -27.3984  -23.9579   22.5327 O   0  0  0  0  0  0
  -32.1420  -16.9957   21.5487 F   0  0  0  0  0  0
  -31.4773  -12.4816   19.0453 H   0  0  0  0  0  0
  -30.3918  -11.2670   19.6564 H   0  0  0  0  0  0
  -29.7143  -11.8977   17.3430 H   0  0  0  0  0  0
  -29.6504  -13.5832   17.7912 H   0  0  0  0  0  0
  -27.8025  -11.3553   18.7202 H   0  0  0  0  0  0
  -27.3524  -12.7519   17.7754 H   0  0  0  0  0  0
  -27.7643  -14.2551   19.6883 H   0  0  0  0  0  0
  -28.6827  -11.7199   21.1140 H   0  0  0  0  0  0
  -28.4451  -13.1937   21.9305 H   0  0  0  0  0  0
  -25.2713   -9.5692   22.4759 H   0  0  0  0  0  0
  -23.9969   -7.4638   22.7492 H   0  0  0  0  0  0
  -21.0788   -8.8775   19.8973 H   0  0  0  0  0  0
  -22.3650  -10.9666   19.6171 H   0  0  0  0  0  0
  -21.2028   -7.6132   23.9704 H   0  0  0  0  0  0
  -21.1485   -6.0503   25.9063 H   0  0  0  0  0  0
  -22.0591   -2.7589   23.2857 H   0  0  0  0  0  0
  -22.4073  -11.9954   22.4814 H   0  0  0  0  0  0
  -21.1131  -13.1379   22.2582 H   0  0  0  0  0  0
  -24.6604  -15.8329   20.5132 H   0  0  0  0  0  0
  -26.2780  -15.6298   20.0781 H   0  0  0  0  0  0
  -26.7087  -32.5593   23.1186 H   0  0  0  0  0  0
  -25.0015  -33.9805   25.0478 H   0  0  0  0  0  0
  -22.6824  -31.3078   21.4147 H   0  0  0  0  0  0
  -23.3741  -35.9666   23.3323 H   0  0  0  0  0  0
  -24.3567  -36.8919   22.2050 H   0  0  0  0  0  0
  -23.7234  -37.6544   23.6633 H   0  0  0  0  0  0
  -26.0203  -31.6169   20.5859 H   0  0  0  0  0  0
  -26.8117  -30.9090   21.9694 H   0  0  0  0  0  0
  -28.1039  -29.1610   21.1143 H   0  0  0  0  0  0
  -26.0794  -26.0061   18.9771 H   0  0  0  0  0  0
  -23.9798  -27.2885   19.0455 H   0  0  0  0  0  0
  -23.7054  -30.5957   19.4058 H   0  0  0  0  0  0
  -22.7288  -29.2381   19.8779 H   0  0  0  0  0  0
  -25.1269  -36.2016   25.0839 H   0  0  0  0  0  0
  -20.9958  -28.3219   24.1462 H   0  0  0  0  0  0
  -20.5686  -26.2266   23.3609 H   0  0  0  0  0  0
  -21.6634  -26.7466   22.1209 H   0  0  0  0  0  0
  -19.6895  -25.6320   21.1229 H   0  0  0  0  0  0
  -19.6663  -27.3227   20.6776 H   0  0  0  0  0  0
  -17.4192  -26.6708   21.4029 H   0  0  0  0  0  0
  -18.0299  -26.0049   22.9012 H   0  0  0  0  0  0
  -19.7922  -30.7261   24.2306 H   0  0  0  0  0  0
  -17.5006  -31.6267   24.5182 H   0  0  0  0  0  0
  -15.5343  -30.3015   23.7620 H   0  0  0  0  0  0
  -15.8663  -28.0839   22.7049 H   0  0  0  0  0  0
  -24.5895  -30.7051   25.7790 H   0  0  0  0  0  0
  -24.8923  -32.2848   26.4933 H   0  0  0  0  0  0
  -25.8079  -30.8843   27.0206 H   0  0  0  0  0  0
  -26.2816  -29.6819   24.1117 H   0  0  0  0  0  0
  -27.4111  -29.7286   25.4468 H   0  0  0  0  0  0
  -27.8621  -30.4401   23.9134 H   0  0  0  0  0  0
  -27.2682  -33.3600   26.2079 H   0  0  0  0  0  0
  -28.3826  -32.6890   25.0255 H   0  0  0  0  0  0
  -28.0753  -31.8409   26.5335 H   0  0  0  0  0  0
  -28.2627  -38.0098   24.7510 H   0  0  0  0  0  0
  -28.1051  -36.2633   24.6296 H   0  0  0  0  0  0
  -27.2304  -37.1481   25.8877 H   0  0  0  0  0  0
  -20.9284  -29.8745   21.6968 H   0  0  0  0  0  0
  -26.0198  -38.2896   24.1394 H   0  0  0  0  0  0
  -27.7490  -17.8767   24.2613 H   0  0  0  0  0  0
  -31.4256  -19.2770   22.5459 H   0  0  0  0  0  0
  -27.3829  -20.1144   23.2793 H   0  0  0  0  0  0
  -26.0114  -14.7510   24.4607 H   0  0  0  0  0  0
  -26.0713  -16.4422   24.0210 H   0  0  0  0  0  0
  -27.0492  -15.8372   25.3711 H   0  0  0  0  0  0
  -30.3767  -23.4665   26.2211 H   0  0  0  0  0  0
  -30.4315  -21.7874   25.7128 H   0  0  0  0  0  0
  -29.2480  -22.3094   26.9080 H   0  0  0  0  0  0
  -31.4021  -24.6136   22.0275 H   0  0  0  0  0  0
  -31.1477  -25.3675   20.4715 H   0  0  0  0  0  0
  -30.6515  -23.7009   20.7224 H   0  0  0  0  0  0
  -30.0443  -26.3081   23.3735 H   0  0  0  0  0  0
  -28.5118  -26.8986   22.7403 H   0  0  0  0  0  0
  -30.0148  -27.2388   21.8926 H   0  0  0  0  0  0
  -28.3468  -14.4054   23.7862 H   0  0  0  0  0  0
  -27.3952  -15.0291   22.4400 H   0  0  0  0  0  0
  -27.3452  -21.4542   25.6392 H   0  0  0  0  0  0
  -26.8312  -22.1642   24.1566 H   0  0  0  0  0  0
  -30.2896  -24.0722   23.8860 H   0  0  0  0  0  0
  -29.9699  -22.5608   23.0832 H   0  0  0  0  0  0
  -27.4327  -25.0358   20.4340 H   0  0  0  0  0  0
  -28.8660  -24.8913   19.5015 H   0  0  0  0  0  0
  -28.1816  -23.7732   25.2331 H   0  0  0  0  0  0
  -29.7117  -14.1286   22.4388 H   0  0  0  0  0  0
  1 25  1  0  0  0
  1 30  2  0  0  0
  1 90  1  0  0  0
  2  3  1  0  0  0
  2 25  1  0  0  0
  2 93  1  0  0  0
  2 94  1  0  0  0
  3  4  1  0  0  0
  3 95  1  0  0  0
  3 96  1  0  0  0
  4  5  1  0  0  0
  4 97  1  0  0  0
  4 98  1  0  0  0
  5  6  1  0  0  0
  5 26  1  0  0  0
  5 99  1  0  0  0
  6 25  1  0  0  0
  6100  1  0  0  0
  6101  1  0  0  0
  7  8  2  0  0  0
  7 26  1  0  0  0
  7 29  1  0  0  0
  8  9  1  0  0  0
  8 22  1  0  0  0
  9 10  1  0  0  0
  9 27  2  0  0  0
 10 11  2  0  0  0
 10 15  1  0  0  0
 11 12  1  0  0  0
 11102  1  0  0  0
 12 13  2  0  0  0
 12103  1  0  0  0
 13 14  1  0  0  0
 13 31  1  0  0  0
 14 15  2  0  0  0
 14104  1  0  0  0
 15105  1  0  0  0
 16 17  2  0  0  0
 16 21  1  0  0  0
 16 31  1  0  0  0
 17 18  1  0  0  0
 17106  1  0  0  0
 18 19  2  0  0  0
 18107  1  0  0  0
 19 20  1  0  0  0
 19 24  1  0  0  0
 20 21  2  0  0  0
 20108  1  0  0  0
 21 23  1  0  0  0
 22 28  1  0  0  0
 22 32  2  0  0  0
 26 27  1  0  0  0
 28109  1  0  0  0
 28110  1  0  0  0
 29111  1  0  0  0
 29112  1  0  0  0
 33 34  1  0  0  0
 33 66  1  0  0  0
 33 70  2  0  0  0
 34 36  1  0  0  0
 34 59  1  0  0  0
 34113  1  0  0  0
 35 44  2  0  0  0
 35 45  1  0  0  0
 35 68  1  0  0  0
 36 56  1  0  0  0
 36114  1  0  0  0
 37 39  1  0  0  0
 37 47  1  0  0  0
 37 66  1  0  0  0
 37115  1  0  0  0
 38 43  2  0  0  0
 38 46  1  0  0  0
 38 47  1  0  0  0
 39 64  1  0  0  0
 39 67  2  0  0  0
 40 52  1  0  0  0
 40 53  2  0  0  0
 40 58  1  0  0  0
 41116  1  0  0  0
 41117  1  0  0  0
 41118  1  0  0  0
 41 48  1  0  0  0
 42 43  1  0  0  0
 42 66  1  0  0  0
 42119  1  0  0  0
 42120  1  0  0  0
 43 44  1  0  0  0
 44121  1  0  0  0
 45 46  2  0  0  0
 45122  1  0  0  0
 46123  1  0  0  0
 47124  1  0  0  0
 47125  1  0  0  0
 48 56  1  0  0  0
 48 65  1  0  0  0
 48126  1  0  0  0
 49 50  1  0  0  0
 49 53  1  0  0  0
 49 64  1  0  0  0
 49127  1  0  0  0
 50 51  1  0  0  0
 50128  1  0  0  0
 50129  1  0  0  0
 51 52  1  0  0  0
 51130  1  0  0  0
 51131  1  0  0  0
 52132  1  0  0  0
 52133  1  0  0  0
 53 54  1  0  0  0
 54 55  2  0  0  0
 54134  1  0  0  0
 55 57  1  0  0  0
 55135  1  0  0  0
 56 69  2  0  0  0
 57 58  2  0  0  0
 57136  1  0  0  0
 58137  1  0  0  0
 59 60  1  0  0  0
 59 61  1  0  0  0
 59 62  1  0  0  0
 60138  1  0  0  0
 60139  1  0  0  0
 60140  1  0  0  0
 61141  1  0  0  0
 61142  1  0  0  0
 61143  1  0  0  0
 62144  1  0  0  0
 62145  1  0  0  0
 62146  1  0  0  0
 63 65  1  0  0  0
 63147  1  0  0  0
 63148  1  0  0  0
 63149  1  0  0  0
 64150  1  0  0  0
 65151  1  0  0  0
 68 86  1  0  0  0
 71 73  2  0  0  0
 71 74  1  0  0  0
 71152  1  0  0  0
 72 74  2  0  0  0
 72 76  1  0  0  0
 72153  1  0  0  0
 73 75  1  0  0  0
 73 83  1  0  0  0
 74 89  1  0  0  0
 75 76  2  0  0  0
 75 90  1  0  0  0
 76 92  1  0  0  0
 77 84  1  0  0  0
 77 89  2  0  0  0
 77154  1  0  0  0
 78 85  1  0  0  0
 78 88  1  0  0  0
 78 91  2  0  0  0
 79 83  1  0  0  0
 79155  1  0  0  0
 79156  1  0  0  0
 79157  1  0  0  0
 80158  1  0  0  0
 80159  1  0  0  0
 80160  1  0  0  0
 80 87  1  0  0  0
 81161  1  0  0  0
 81162  1  0  0  0
 81163  1  0  0  0
 81 88  1  0  0  0
 82 88  1  0  0  0
 82164  1  0  0  0
 82165  1  0  0  0
 82166  1  0  0  0
 83167  1  0  0  0
 83168  1  0  0  0
 84 87  1  0  0  0
 84169  1  0  0  0
 84170  1  0  0  0
 85 87  1  0  0  0
 85171  1  0  0  0
 85172  1  0  0  0
 86 88  1  0  0  0
 86173  1  0  0  0
 86174  1  0  0  0
 87175  1  0  0  0
 90176  1  0  0  0
M  ISO  4   1 100  68 101  86 101  90 100
M  END
> <chiral flag>
0

> <version>
0

> <s_m_source_file>
/data/baiqing/PycharmProjects/Reinvent-master-3.2/result/LINK_invent/BTK/process_docking_weight1_custom_product_contain_oxygen_bond_distance_aromatic_linkinvent_7_9_3/rearranged_h_0144.sdf

> <i_m_source_file_index>
6

> <r_mmod_Potential_Energy-OPLS-2005>
36.7892379760742

> <r_mmod_Stretch_Energy-OPLS-2005>
39.3592987060547

> <r_mmod_Bend_Energy-OPLS-2005>
120.496055603027

> <r_mmod_Torsional_Energy-OPLS-2005>
267.757568359375

> <r_mmod_Improper_Torsional_Energy-OPLS-2005>
7.09179258346558

> <r_mmod_Van_der_Waal_Energy-OPLS-2005>
178.894302368164

> <r_mmod_Electrostatic_Energy-OPLS-2005>
-381.342193603516

> <r_mmod_Solvation_Energy-OPLS-2005>
-211.133926391602

> <b_mmod_Minimization_Converged-OPLS-2005>
0

> <r_mmod_RMS_Derivative-OPLS-2005>
2.23947858810425

$$$$
6
                    3D
 Structure written by MMmdl.
172180  0  0  1  0            999 V2000
  -30.7083  -14.4314   20.5413 C   0  0  0  0  0  0
  -30.4165  -12.2697   19.4275 C   0  0  0  0  0  0
  -29.4965  -12.4895   18.2090 C   0  0  0  0  0  0
  -28.0159  -12.3654   18.6126 C   0  0  0  0  0  0
  -27.6624  -13.2028   19.8723 C   0  0  2  0  0  0
  -28.7000  -12.9752   20.9969 C   0  0  0  0  0  0
  -25.2596  -13.8150   20.5669 C   0  0  0  0  0  0
  -24.1838  -13.0423   20.9137 C   0  0  0  0  0  0
  -24.6371  -11.6888   20.8665 C   0  0  0  0  0  0
  -23.9028  -10.4282   21.0363 C   0  0  0  0  0  0
  -24.3597   -9.4217   21.9154 C   0  0  0  0  0  0
  -23.6263   -8.2257   22.0741 C   0  0  0  0  0  0
  -22.4247   -8.0280   21.3537 C   0  0  0  0  0  0
  -21.9866   -9.0237   20.4641 C   0  0  0  0  0  0
  -22.7187  -10.2117   20.3036 C   0  0  0  0  0  0
  -21.6872   -6.0710   22.5267 C   0  0  0  0  0  0
  -21.4014   -6.5609   23.8193 C   0  0  0  0  0  0
  -21.3656   -5.6775   24.9159 C   0  0  0  0  0  0
  -21.6065   -4.3032   24.7225 C   0  0  0  0  0  0
  -21.8818   -3.8116   23.4341 C   0  0  0  0  0  0
  -21.9190   -4.6932   22.3395 C   0  0  0  0  0  0
  -22.7873  -13.5252   21.1811 C   0  0  0  0  0  0
  -22.1674   -4.2118   21.0972 F   0  0  0  0  0  0
  -21.5612   -3.4508   25.7724 F   0  0  0  0  0  0
  -30.0389  -13.2527   20.4497 N   0  0  0  0  0  0
  -26.3019  -12.9310   20.3308 N   0  0  0  0  0  0
  -25.9294  -11.6463   20.5680 N   0  0  0  0  0  0
  -22.0515  -12.8266   22.0380 N   0  0  0  0  0  0
  -25.4363  -15.1888   20.4220 N   0  0  0  0  0  0
  -31.8538  -14.5882   20.1077 O   0  0  0  0  0  0
  -21.6656   -6.8858   21.4228 O   0  0  0  0  0  0
  -22.3572  -14.5580   20.6686 O   0  0  0  0  0  0
  -24.6089  -31.8737   23.2106 C   0  0  0  0  0  0
  -25.9000  -32.4847   23.8408 C   0  0  1  0  0  0
  -27.2603  -27.4898   20.0845 C   0  0  0  0  0  0
  -25.5862  -33.8640   24.2334 N   0  0  0  0  0  0
  -23.3958  -30.4889   21.5510 C   0  0  2  0  0  0
  -24.8476  -28.9555   20.1212 C   0  0  0  0  0  0
  -22.7382  -29.4654   22.5038 C   0  0  0  0  0  0
  -18.0249  -28.1375   22.8495 C   0  0  0  0  0  0
  -24.1496  -36.7337   23.2634 C   0  0  0  0  0  0
  -25.9179  -30.8492   21.3618 C   0  0  0  0  0  0
  -25.9999  -29.4838   20.7176 C   0  0  0  0  0  0
  -27.2026  -28.7481   20.7163 C   0  0  0  0  0  0
  -26.0869  -26.9517   19.5156 C   0  0  0  0  0  0
  -24.8789  -27.6801   19.5282 C   0  0  0  0  0  0
  -23.6020  -29.8123   20.1678 C   0  0  0  0  0  0
  -25.4107  -36.3143   24.0341 C   0  0  1  0  0  0
  -20.5836  -28.3653   23.1336 C   0  0  2  0  0  0
  -20.6746  -26.9388   22.5436 C   0  0  0  0  0  0
  -19.5727  -26.6381   21.5231 C   0  0  0  0  0  0
  -18.1899  -26.7923   22.1634 C   0  0  0  0  0  0
  -19.1502  -28.8825   23.2914 C   0  0  0  0  0  0
  -18.9445  -30.1432   23.8926 C   0  0  0  0  0  0
  -17.6450  -30.6578   24.0561 C   0  0  0  0  0  0
  -25.9027  -34.9501   23.5136 C   0  0  0  0  0  0
  -16.5332  -29.9086   23.6324 C   0  0  0  0  0  0
  -16.7247  -28.6499   23.0358 C   0  0  0  0  0  0
  -26.4425  -31.6625   25.0740 C   0  0  0  0  0  0
  -25.3681  -31.3775   26.1496 C   0  0  0  0  0  0
  -27.0228  -30.3057   24.6115 C   0  0  0  0  0  0
  -27.6018  -32.4338   25.7486 C   0  0  0  0  0  0
  -27.5581  -37.1817   24.8453 C   0  0  0  0  0  0
  -21.4124  -29.3017   22.3758 N   0  0  0  0  0  0
  -26.4302  -37.3813   23.9391 N   0  0  0  0  0  0
  -24.6574  -31.0863   22.0991 N   0  0  0  0  0  0
  -23.4179  -28.8234   23.3082 O   0  0  0  0  0  0
  -28.4213  -26.7493   20.0343 O   0  0  0  0  0  0
  -26.5615  -34.8944   22.4717 O   0  0  0  0  0  0
  -23.5284  -32.1454   23.7535 O   0  0  0  0  0  0
  -30.9164  -17.3579   19.7682 C   0  0  0  0  0  0
  -30.3255  -18.5342   19.2347 C   0  0  0  0  0  0
  -29.9039  -16.6822   20.4038 C   0  0  0  0  0  0
  -29.0130  -18.4815   19.6227 C   0  0  0  0  0  0
  -28.7135  -21.7018   19.8792 C   0  0  0  0  0  0
  -31.0852  -25.5399   20.3411 C   0  0  0  0  0  0
  -31.5277  -26.0593   17.9413 C   0  0  0  0  0  0
  -30.2362  -28.3354   19.7255 C   0  0  0  0  0  0
  -28.8849  -27.5672   17.7512 C   0  0  0  0  0  0
  -30.0662  -22.4007   19.7747 C   0  0  0  0  0  0
  -28.3407  -20.7011   18.7791 C   0  0  0  0  0  0
  -30.2360  -23.2454   18.4943 C   0  0  0  0  0  0
  -29.5352  -24.6236   18.5353 C   0  0  0  0  0  0
  -30.3972  -25.8483   18.9867 C   0  0  0  0  0  0
  -29.4748  -27.1316   19.1213 C   0  0  0  0  0  0
  -29.9654  -15.4566   20.9897 N   0  0  0  0  0  0
  -28.0026  -19.3857   19.3158 N   0  0  0  0  0  0
  -27.9690  -21.8844   20.8464 O   0  0  0  0  0  0
  -28.7257  -17.3685   20.3484 O   0  0  0  0  0  0
  -31.4660  -12.3446   19.1333 H   0  0  0  0  0  0
  -30.2913  -11.2621   19.8241 H   0  0  0  0  0  0
  -29.7244  -11.7657   17.4264 H   0  0  0  0  0  0
  -29.6792  -13.4709   17.7711 H   0  0  0  0  0  0
  -27.8192  -11.3098   18.8019 H   0  0  0  0  0  0
  -27.3809  -12.6498   17.7734 H   0  0  0  0  0  0
  -27.7058  -14.2509   19.5702 H   0  0  0  0  0  0
  -28.6575  -11.9434   21.3516 H   0  0  0  0  0  0
  -28.4729  -13.5915   21.8671 H   0  0  0  0  0  0
  -25.2745   -9.5698   22.4723 H   0  0  0  0  0  0
  -23.9952   -7.4653   22.7473 H   0  0  0  0  0  0
  -21.0787   -8.8765   19.8966 H   0  0  0  0  0  0
  -22.3638  -10.9642   19.6149 H   0  0  0  0  0  0
  -21.2034   -7.6117   23.9684 H   0  0  0  0  0  0
  -21.1488   -6.0513   25.9064 H   0  0  0  0  0  0
  -22.0610   -2.7563   23.2872 H   0  0  0  0  0  0
  -22.4145  -11.9942   22.4791 H   0  0  0  0  0  0
  -21.1141  -13.1329   22.2591 H   0  0  0  0  0  0
  -24.6780  -15.8473   20.5680 H   0  0  0  0  0  0
  -26.3059  -15.6318   20.1515 H   0  0  0  0  0  0
  -26.7104  -32.5594   23.1212 H   0  0  0  0  0  0
  -25.0016  -33.9829   25.0474 H   0  0  0  0  0  0
  -22.6798  -31.3005   21.4096 H   0  0  0  0  0  0
  -23.3758  -35.9674   23.3343 H   0  0  0  0  0  0
  -24.3567  -36.8903   22.2033 H   0  0  0  0  0  0
  -23.7265  -37.6561   23.6613 H   0  0  0  0  0  0
  -26.0267  -31.6135   20.5906 H   0  0  0  0  0  0
  -26.8027  -30.9075   21.9802 H   0  0  0  0  0  0
  -28.0797  -29.1479   21.2027 H   0  0  0  0  0  0
  -26.1187  -25.9753   19.0531 H   0  0  0  0  0  0
  -23.9881  -27.2552   19.0853 H   0  0  0  0  0  0
  -23.6942  -30.5808   19.3997 H   0  0  0  0  0  0
  -22.7306  -29.2179   19.8862 H   0  0  0  0  0  0
  -25.1285  -36.2032   25.0834 H   0  0  0  0  0  0
  -20.9907  -28.3241   24.1470 H   0  0  0  0  0  0
  -20.5671  -26.2268   23.3636 H   0  0  0  0  0  0
  -21.6624  -26.7449   22.1226 H   0  0  0  0  0  0
  -19.6903  -25.6309   21.1238 H   0  0  0  0  0  0
  -19.6675  -27.3217   20.6779 H   0  0  0  0  0  0
  -17.4179  -26.6681   21.4027 H   0  0  0  0  0  0
  -18.0274  -26.0050   22.9005 H   0  0  0  0  0  0
  -19.7927  -30.7213   24.2343 H   0  0  0  0  0  0
  -17.5011  -31.6269   24.5161 H   0  0  0  0  0  0
  -15.5342  -30.2999   23.7626 H   0  0  0  0  0  0
  -15.8650  -28.0813   22.7086 H   0  0  0  0  0  0
  -24.5819  -30.7162   25.7845 H   0  0  0  0  0  0
  -24.8923  -32.2962   26.4944 H   0  0  0  0  0  0
  -25.8004  -30.8939   27.0263 H   0  0  0  0  0  0
  -26.2787  -29.6878   24.1080 H   0  0  0  0  0  0
  -27.3886  -29.7243   25.4589 H   0  0  0  0  0  0
  -27.8672  -30.4372   23.9341 H   0  0  0  0  0  0
  -27.2646  -33.3623   26.2111 H   0  0  0  0  0  0
  -28.3779  -32.6922   25.0269 H   0  0  0  0  0  0
  -28.0733  -31.8441   26.5354 H   0  0  0  0  0  0
  -28.2627  -38.0092   24.7485 H   0  0  0  0  0  0
  -28.1054  -36.2626   24.6298 H   0  0  0  0  0  0
  -27.2299  -37.1492   25.8859 H   0  0  0  0  0  0
  -20.9310  -29.8734   21.6958 H   0  0  0  0  0  0
  -26.0222  -38.2907   24.1364 H   0  0  0  0  0  0
  -31.9458  -17.0440   19.6562 H   0  0  0  0  0  0
  -30.8110  -19.2947   18.6373 H   0  0  0  0  0  0
  -31.7124  -24.6511   20.2850 H   0  0  0  0  0  0
  -30.3612  -25.3840   21.1415 H   0  0  0  0  0  0
  -31.7558  -26.3392   20.6515 H   0  0  0  0  0  0
  -32.2350  -25.2317   17.9238 H   0  0  0  0  0  0
  -32.1307  -26.9396   18.1512 H   0  0  0  0  0  0
  -31.1418  -26.1523   16.9260 H   0  0  0  0  0  0
  -31.1603  -28.5495   19.1943 H   0  0  0  0  0  0
  -30.4862  -28.1753   20.7745 H   0  0  0  0  0  0
  -29.6545  -29.2522   19.6722 H   0  0  0  0  0  0
  -29.6652  -27.8151   17.0312 H   0  0  0  0  0  0
  -28.2764  -28.4665   17.8447 H   0  0  0  0  0  0
  -28.2465  -26.8059   17.3058 H   0  0  0  0  0  0
  -30.8278  -21.6227   19.7958 H   0  0  0  0  0  0
  -30.2245  -23.0071   20.6664 H   0  0  0  0  0  0
  -29.1536  -20.6239   18.0565 H   0  0  0  0  0  0
  -27.4840  -21.0961   18.2303 H   0  0  0  0  0  0
  -29.8431  -22.6920   17.6406 H   0  0  0  0  0  0
  -31.2968  -23.3445   18.2785 H   0  0  0  0  0  0
  -28.6349  -24.5338   19.1463 H   0  0  0  0  0  0
  -29.1672  -24.8172   17.5270 H   0  0  0  0  0  0
  -29.1191  -15.1670   21.4528 H   0  0  0  0  0  0
  -27.1655  -19.3640   19.8913 H   0  0  0  0  0  0
  1 25  1  0  0  0
  1 30  2  0  0  0
  1 86  1  0  0  0
  2  3  1  0  0  0
  2 25  1  0  0  0
  2 90  1  0  0  0
  2 91  1  0  0  0
  3  4  1  0  0  0
  3 92  1  0  0  0
  3 93  1  0  0  0
  4  5  1  0  0  0
  4 94  1  0  0  0
  4 95  1  0  0  0
  5  6  1  0  0  0
  5 26  1  0  0  0
  5 96  1  0  0  0
  6 25  1  0  0  0
  6 97  1  0  0  0
  6 98  1  0  0  0
  7  8  2  0  0  0
  7 26  1  0  0  0
  7 29  1  0  0  0
  8  9  1  0  0  0
  8 22  1  0  0  0
  9 10  1  0  0  0
  9 27  2  0  0  0
 10 11  2  0  0  0
 10 15  1  0  0  0
 11 12  1  0  0  0
 11 99  1  0  0  0
 12 13  2  0  0  0
 12100  1  0  0  0
 13 14  1  0  0  0
 13 31  1  0  0  0
 14 15  2  0  0  0
 14101  1  0  0  0
 15102  1  0  0  0
 16 17  2  0  0  0
 16 21  1  0  0  0
 16 31  1  0  0  0
 17 18  1  0  0  0
 17103  1  0  0  0
 18 19  2  0  0  0
 18104  1  0  0  0
 19 20  1  0  0  0
 19 24  1  0  0  0
 20 21  2  0  0  0
 20105  1  0  0  0
 21 23  1  0  0  0
 22 28  1  0  0  0
 22 32  2  0  0  0
 26 27  1  0  0  0
 28106  1  0  0  0
 28107  1  0  0  0
 29108  1  0  0  0
 29109  1  0  0  0
 33 34  1  0  0  0
 33 66  1  0  0  0
 33 70  2  0  0  0
 34 36  1  0  0  0
 34 59  1  0  0  0
 34110  1  0  0  0
 35 44  2  0  0  0
 35 45  1  0  0  0
 35 68  1  0  0  0
 36 56  1  0  0  0
 36111  1  0  0  0
 37 39  1  0  0  0
 37 47  1  0  0  0
 37 66  1  0  0  0
 37112  1  0  0  0
 38 43  2  0  0  0
 38 46  1  0  0  0
 38 47  1  0  0  0
 39 64  1  0  0  0
 39 67  2  0  0  0
 40 52  1  0  0  0
 40 53  2  0  0  0
 40 58  1  0  0  0
 41113  1  0  0  0
 41114  1  0  0  0
 41115  1  0  0  0
 41 48  1  0  0  0
 42 43  1  0  0  0
 42 66  1  0  0  0
 42116  1  0  0  0
 42117  1  0  0  0
 43 44  1  0  0  0
 44118  1  0  0  0
 45 46  2  0  0  0
 45119  1  0  0  0
 46120  1  0  0  0
 47121  1  0  0  0
 47122  1  0  0  0
 48 56  1  0  0  0
 48 65  1  0  0  0
 48123  1  0  0  0
 49 50  1  0  0  0
 49 53  1  0  0  0
 49 64  1  0  0  0
 49124  1  0  0  0
 50 51  1  0  0  0
 50125  1  0  0  0
 50126  1  0  0  0
 51 52  1  0  0  0
 51127  1  0  0  0
 51128  1  0  0  0
 52129  1  0  0  0
 52130  1  0  0  0
 53 54  1  0  0  0
 54 55  2  0  0  0
 54131  1  0  0  0
 55 57  1  0  0  0
 55132  1  0  0  0
 56 69  2  0  0  0
 57 58  2  0  0  0
 57133  1  0  0  0
 58134  1  0  0  0
 59 60  1  0  0  0
 59 61  1  0  0  0
 59 62  1  0  0  0
 60135  1  0  0  0
 60136  1  0  0  0
 60137  1  0  0  0
 61138  1  0  0  0
 61139  1  0  0  0
 61140  1  0  0  0
 62141  1  0  0  0
 62142  1  0  0  0
 62143  1  0  0  0
 63 65  1  0  0  0
 63144  1  0  0  0
 63145  1  0  0  0
 63146  1  0  0  0
 64147  1  0  0  0
 65148  1  0  0  0
 68 85  1  0  0  0
 71 72  1  0  0  0
 71 73  2  0  0  0
 71149  1  0  0  0
 72 74  2  0  0  0
 72150  1  0  0  0
 73 86  1  0  0  0
 73 89  1  0  0  0
 74 87  1  0  0  0
 74 89  1  0  0  0
 75 80  1  0  0  0
 75 81  1  0  0  0
 75 88  2  0  0  0
 76151  1  0  0  0
 76152  1  0  0  0
 76153  1  0  0  0
 76 84  1  0  0  0
 77 84  1  0  0  0
 77154  1  0  0  0
 77155  1  0  0  0
 77156  1  0  0  0
 78157  1  0  0  0
 78158  1  0  0  0
 78159  1  0  0  0
 78 85  1  0  0  0
 79 85  1  0  0  0
 79160  1  0  0  0
 79161  1  0  0  0
 79162  1  0  0  0
 80 82  1  0  0  0
 80163  1  0  0  0
 80164  1  0  0  0
 81 87  1  0  0  0
 81165  1  0  0  0
 81166  1  0  0  0
 82 83  1  0  0  0
 82167  1  0  0  0
 82168  1  0  0  0
 83 84  1  0  0  0
 83169  1  0  0  0
 83170  1  0  0  0
 84 85  1  0  0  0
 86171  1  0  0  0
 87172  1  0  0  0
M  ISO  4   1 100  68 101  85 101  86 100
M  END
> <chiral flag>
0

> <version>
0

> <s_m_source_file>
/data/baiqing/PycharmProjects/Reinvent-master-3.2/result/LINK_invent/BTK/process_docking_weight1_custom_product_contain_oxygen_bond_distance_aromatic_linkinvent_7_9_3/rearranged_h_0144.sdf

> <i_m_source_file_index>
7

> <r_mmod_Potential_Energy-OPLS-2005>
-52.8645095825195

> <r_mmod_Stretch_Energy-OPLS-2005>
39.534496307373

> <r_mmod_Bend_Energy-OPLS-2005>
121.023498535156

> <r_mmod_Torsional_Energy-OPLS-2005>
276.884033203125

> <r_mmod_Improper_Torsional_Energy-OPLS-2005>
8.80223083496094

> <r_mmod_Van_der_Waal_Energy-OPLS-2005>
155.485092163086

> <r_mmod_Electrostatic_Energy-OPLS-2005>
-447.487426757812

> <r_mmod_Solvation_Energy-OPLS-2005>
-217.350677490234

> <b_mmod_Minimization_Converged-OPLS-2005>
0

> <r_mmod_RMS_Derivative-OPLS-2005>
4.35058403015137

$$$$
7
                    3D
 Structure written by MMmdl.
164172  0  0  1  0            999 V2000
  -30.8008  -14.3643   20.6335 C   0  0  0  0  0  0
  -30.4112  -12.2667   19.4249 C   0  0  0  0  0  0
  -29.4950  -12.5094   18.2110 C   0  0  0  0  0  0
  -28.0182  -12.3668   18.6229 C   0  0  0  0  0  0
  -27.6715  -13.2080   19.8801 C   0  0  2  0  0  0
  -28.7086  -12.9885   21.0096 C   0  0  0  0  0  0
  -25.2619  -13.8192   20.5709 C   0  0  0  0  0  0
  -24.1859  -13.0481   20.9157 C   0  0  0  0  0  0
  -24.6398  -11.6931   20.8713 C   0  0  0  0  0  0
  -23.9065  -10.4315   21.0394 C   0  0  0  0  0  0
  -24.3628   -9.4235   21.9168 C   0  0  0  0  0  0
  -23.6303   -8.2262   22.0740 C   0  0  0  0  0  0
  -22.4278   -8.0289   21.3529 C   0  0  0  0  0  0
  -21.9911   -9.0265   20.4628 C   0  0  0  0  0  0
  -22.7241  -10.2152   20.3035 C   0  0  0  0  0  0
  -21.6867   -6.0749   22.5281 C   0  0  0  0  0  0
  -21.4023   -6.5651   23.8218 C   0  0  0  0  0  0
  -21.3641   -5.6788   24.9169 C   0  0  0  0  0  0
  -21.6049   -4.3060   24.7218 C   0  0  0  0  0  0
  -21.8818   -3.8154   23.4340 C   0  0  0  0  0  0
  -21.9195   -4.6975   22.3395 C   0  0  0  0  0  0
  -22.7876  -13.5277   21.1836 C   0  0  0  0  0  0
  -22.1660   -4.2167   21.0971 F   0  0  0  0  0  0
  -21.5622   -3.4535   25.7725 F   0  0  0  0  0  0
  -30.0597  -13.2370   20.4723 N   0  0  0  0  0  0
  -26.3084  -12.9378   20.3403 N   0  0  0  0  0  0
  -25.9345  -11.6538   20.5760 N   0  0  0  0  0  0
  -22.0520  -12.8241   22.0370 N   0  0  0  0  0  0
  -25.4400  -15.1912   20.4147 N   0  0  0  0  0  0
  -31.8661  -14.5511   20.0394 O   0  0  0  0  0  0
  -21.6644   -6.8894   21.4238 O   0  0  0  0  0  0
  -22.3556  -14.5571   20.6687 O   0  0  0  0  0  0
  -24.6157  -31.8737   23.2216 C   0  0  0  0  0  0
  -25.9051  -32.4859   23.8492 C   0  0  1  0  0  0
  -27.1961  -27.4302   20.0796 C   0  0  0  0  0  0
  -25.5907  -33.8662   24.2402 N   0  0  0  0  0  0
  -23.4008  -30.5103   21.5627 C   0  0  2  0  0  0
  -24.8427  -29.0146   20.0984 C   0  0  0  0  0  0
  -22.7444  -29.4701   22.4996 C   0  0  0  0  0  0
  -18.0310  -28.1384   22.8480 C   0  0  0  0  0  0
  -24.1494  -36.7339   23.2634 C   0  0  0  0  0  0
  -25.9386  -30.8375   21.3861 C   0  0  0  0  0  0
  -26.0100  -29.4819   20.7160 C   0  0  0  0  0  0
  -27.1904  -28.6948   20.7184 C   0  0  0  0  0  0
  -26.0225  -27.0517   19.3668 C   0  0  0  0  0  0
  -24.8453  -27.7983   19.4168 C   0  0  0  0  0  0
  -23.6069  -29.8742   20.1673 C   0  0  0  0  0  0
  -25.4106  -36.3144   24.0343 C   0  0  1  0  0  0
  -20.5885  -28.3683   23.1304 C   0  0  2  0  0  0
  -20.6763  -26.9420   22.5376 C   0  0  0  0  0  0
  -19.5725  -26.6408   21.5176 C   0  0  0  0  0  0
  -18.1930  -26.7922   22.1619 C   0  0  0  0  0  0
  -19.1533  -28.8876   23.2885 C   0  0  0  0  0  0
  -18.9449  -30.1498   23.8856 C   0  0  0  0  0  0
  -17.6441  -30.6620   24.0509 C   0  0  0  0  0  0
  -25.9026  -34.9489   23.5164 C   0  0  0  0  0  0
  -16.5347  -29.9107   23.6287 C   0  0  0  0  0  0
  -16.7291  -28.6512   23.0326 C   0  0  0  0  0  0
  -26.4476  -31.6627   25.0808 C   0  0  0  0  0  0
  -25.3737  -31.3722   26.1549 C   0  0  0  0  0  0
  -27.0284  -30.3053   24.6205 C   0  0  0  0  0  0
  -27.6058  -32.4344   25.7554 C   0  0  0  0  0  0
  -27.5593  -37.1820   24.8464 C   0  0  0  0  0  0
  -21.4188  -29.3031   22.3711 N   0  0  0  0  0  0
  -26.4304  -37.3814   23.9409 N   0  0  0  0  0  0
  -24.6700  -31.0857   22.1135 N   0  0  0  0  0  0
  -23.4224  -28.8225   23.3006 O   0  0  0  0  0  0
  -28.2643  -26.5395   20.2159 O   0  0  0  0  0  0
  -26.5583  -34.8913   22.4727 O   0  0  0  0  0  0
  -23.5341  -32.1476   23.7602 O   0  0  0  0  0  0
  -31.0828  -17.3105   20.2503 C   0  0  0  0  0  0
  -30.4352  -16.6335   21.2685 C   0  0  0  0  0  0
  -29.8884  -19.0295   21.1091 C   0  0  0  0  0  0
  -27.2610  -22.8338   20.2724 C   0  0  0  0  0  0
  -29.1583  -20.3385   21.1307 C   0  0  0  0  0  0
  -26.9014  -21.5427   20.5074 C   0  0  0  0  0  0
  -25.5268  -21.1770   19.9165 C   0  0  0  0  0  0
  -28.5356  -23.9802   22.1960 C   0  0  0  0  0  0
  -27.0181  -19.0185   20.7420 C   0  0  0  0  0  0
  -27.2178  -20.4850   22.7761 C   0  0  0  0  0  0
  -27.7996  -25.1738   20.0769 C   0  0  0  0  0  0
  -28.3571  -23.8577   20.6728 C   0  0  2  0  0  0
  -27.5965  -20.3759   21.2863 C   0  0  0  0  0  0
  -30.7653  -18.6629   20.1704 N   0  0  0  0  0  0
  -30.3184  -15.2918   21.4719 N   0  0  0  0  0  0
  -29.8338  -21.3538   20.9582 O   0  0  0  0  0  0
  -29.6518  -17.7751   22.3324 S   0  0  0  0  0  0
  -31.4594  -12.3230   19.1199 H   0  0  0  0  0  0
  -30.2711  -11.2553   19.8097 H   0  0  0  0  0  0
  -29.7345  -11.7984   17.4178 H   0  0  0  0  0  0
  -29.6749  -13.5043   17.7985 H   0  0  0  0  0  0
  -27.8324  -11.3118   18.8235 H   0  0  0  0  0  0
  -27.3608  -12.6383   17.7955 H   0  0  0  0  0  0
  -27.7255  -14.2566   19.5828 H   0  0  0  0  0  0
  -28.6553  -11.9601   21.3753 H   0  0  0  0  0  0
  -28.4683  -13.6166   21.8691 H   0  0  0  0  0  0
  -25.2773   -9.5733   22.4737 H   0  0  0  0  0  0
  -24.0037   -7.4662   22.7455 H   0  0  0  0  0  0
  -21.0850   -8.8783   19.8929 H   0  0  0  0  0  0
  -22.3698  -10.9686   19.6142 H   0  0  0  0  0  0
  -21.2017   -7.6162   23.9735 H   0  0  0  0  0  0
  -21.1460   -6.0514   25.9081 H   0  0  0  0  0  0
  -22.0606   -2.7617   23.2834 H   0  0  0  0  0  0
  -22.4147  -11.9894   22.4744 H   0  0  0  0  0  0
  -21.1118  -13.1229   22.2559 H   0  0  0  0  0  0
  -24.6814  -15.8526   20.5355 H   0  0  0  0  0  0
  -26.3068  -15.6273   20.1300 H   0  0  0  0  0  0
  -26.7144  -32.5599   23.1276 H   0  0  0  0  0  0
  -25.0054  -33.9843   25.0545 H   0  0  0  0  0  0
  -22.6898  -31.3314   21.4384 H   0  0  0  0  0  0
  -23.3744  -35.9689   23.3312 H   0  0  0  0  0  0
  -24.3588  -36.8924   22.2048 H   0  0  0  0  0  0
  -23.7244  -37.6551   23.6629 H   0  0  0  0  0  0
  -26.0679  -31.6083   20.6271 H   0  0  0  0  0  0
  -26.8207  -30.8764   22.0106 H   0  0  0  0  0  0
  -28.0735  -29.0277   21.2456 H   0  0  0  0  0  0
  -25.9520  -26.1422   18.7893 H   0  0  0  0  0  0
  -23.9585  -27.4496   18.9048 H   0  0  0  0  0  0
  -23.7187  -30.6649   19.4237 H   0  0  0  0  0  0
  -22.7314  -29.2998   19.8592 H   0  0  0  0  0  0
  -25.1276  -36.2036   25.0833 H   0  0  0  0  0  0
  -20.9994  -28.3315   24.1428 H   0  0  0  0  0  0
  -20.5709  -26.2298   23.3572 H   0  0  0  0  0  0
  -21.6615  -26.7477   22.1090 H   0  0  0  0  0  0
  -19.6867  -25.6328   21.1125 H   0  0  0  0  0  0
  -19.6612  -27.3236   20.6720 H   0  0  0  0  0  0
  -17.4186  -26.6686   21.4046 H   0  0  0  0  0  0
  -18.0349  -26.0065   22.9050 H   0  0  0  0  0  0
  -19.7891  -30.7356   24.2267 H   0  0  0  0  0  0
  -17.4963  -31.6296   24.5119 H   0  0  0  0  0  0
  -15.5347  -30.2999   23.7575 H   0  0  0  0  0  0
  -15.8709  -28.0810   22.7056 H   0  0  0  0  0  0
  -24.5919  -30.7067   25.7892 H   0  0  0  0  0  0
  -24.8909  -32.2861   26.5032 H   0  0  0  0  0  0
  -25.8077  -30.8879   27.0309 H   0  0  0  0  0  0
  -26.2838  -29.6849   24.1211 H   0  0  0  0  0  0
  -27.3971  -29.7272   25.4700 H   0  0  0  0  0  0
  -27.8744  -30.4351   23.9439 H   0  0  0  0  0  0
  -27.2695  -33.3632   26.2192 H   0  0  0  0  0  0
  -28.3832  -32.6929   25.0347 H   0  0  0  0  0  0
  -28.0789  -31.8439   26.5413 H   0  0  0  0  0  0
  -28.2610  -38.0116   24.7506 H   0  0  0  0  0  0
  -28.1077  -36.2642   24.6295 H   0  0  0  0  0  0
  -27.2311  -37.1494   25.8865 H   0  0  0  0  0  0
  -20.9354  -29.8760   21.6913 H   0  0  0  0  0  0
  -26.0208  -38.2907   24.1377 H   0  0  0  0  0  0
  -31.6964  -16.9058   19.4581 H   0  0  0  0  0  0
  -26.5437  -23.3072   19.6182 H   0  0  0  0  0  0
  -24.9554  -22.0297   19.5518 H   0  0  0  0  0  0
  -24.8840  -20.7403   20.6835 H   0  0  0  0  0  0
  -25.6108  -20.4877   19.0759 H   0  0  0  0  0  0
  -28.9678  -23.0820   22.6331 H   0  0  0  0  0  0
  -27.5881  -24.1700   22.7008 H   0  0  0  0  0  0
  -29.2043  -24.8061   22.4362 H   0  0  0  0  0  0
  -27.2000  -18.9137   19.6715 H   0  0  0  0  0  0
  -25.9493  -18.9035   20.9093 H   0  0  0  0  0  0
  -27.3925  -18.1210   21.2115 H   0  0  0  0  0  0
  -27.5602  -21.4207   23.2144 H   0  0  0  0  0  0
  -27.6446  -19.6719   23.3621 H   0  0  0  0  0  0
  -26.1360  -20.4427   22.9149 H   0  0  0  0  0  0
  -26.8148  -25.1593   20.5533 H   0  0  0  0  0  0
  -27.7076  -25.0071   19.0014 H   0  0  0  0  0  0
  -29.3029  -23.6301   20.1827 H   0  0  0  0  0  0
  -29.5802  -14.9918   22.0903 H   0  0  0  0  0  0
  1 25  1  0  0  0
  1 30  2  0  0  0
  1 85  1  0  0  0
  2  3  1  0  0  0
  2 25  1  0  0  0
  2 88  1  0  0  0
  2 89  1  0  0  0
  3  4  1  0  0  0
  3 90  1  0  0  0
  3 91  1  0  0  0
  4  5  1  0  0  0
  4 92  1  0  0  0
  4 93  1  0  0  0
  5  6  1  0  0  0
  5 26  1  0  0  0
  5 94  1  0  0  0
  6 25  1  0  0  0
  6 95  1  0  0  0
  6 96  1  0  0  0
  7  8  2  0  0  0
  7 26  1  0  0  0
  7 29  1  0  0  0
  8  9  1  0  0  0
  8 22  1  0  0  0
  9 10  1  0  0  0
  9 27  2  0  0  0
 10 11  2  0  0  0
 10 15  1  0  0  0
 11 12  1  0  0  0
 11 97  1  0  0  0
 12 13  2  0  0  0
 12 98  1  0  0  0
 13 14  1  0  0  0
 13 31  1  0  0  0
 14 15  2  0  0  0
 14 99  1  0  0  0
 15100  1  0  0  0
 16 17  2  0  0  0
 16 21  1  0  0  0
 16 31  1  0  0  0
 17 18  1  0  0  0
 17101  1  0  0  0
 18 19  2  0  0  0
 18102  1  0  0  0
 19 20  1  0  0  0
 19 24  1  0  0  0
 20 21  2  0  0  0
 20103  1  0  0  0
 21 23  1  0  0  0
 22 28  1  0  0  0
 22 32  2  0  0  0
 26 27  1  0  0  0
 28104  1  0  0  0
 28105  1  0  0  0
 29106  1  0  0  0
 29107  1  0  0  0
 33 34  1  0  0  0
 33 66  1  0  0  0
 33 70  2  0  0  0
 34 36  1  0  0  0
 34 59  1  0  0  0
 34108  1  0  0  0
 35 44  2  0  0  0
 35 45  1  0  0  0
 35 68  1  0  0  0
 36 56  1  0  0  0
 36109  1  0  0  0
 37 39  1  0  0  0
 37 47  1  0  0  0
 37 66  1  0  0  0
 37110  1  0  0  0
 38 43  2  0  0  0
 38 46  1  0  0  0
 38 47  1  0  0  0
 39 64  1  0  0  0
 39 67  2  0  0  0
 40 52  1  0  0  0
 40 53  2  0  0  0
 40 58  1  0  0  0
 41111  1  0  0  0
 41112  1  0  0  0
 41113  1  0  0  0
 41 48  1  0  0  0
 42 43  1  0  0  0
 42 66  1  0  0  0
 42114  1  0  0  0
 42115  1  0  0  0
 43 44  1  0  0  0
 44116  1  0  0  0
 45 46  2  0  0  0
 45117  1  0  0  0
 46118  1  0  0  0
 47119  1  0  0  0
 47120  1  0  0  0
 48 56  1  0  0  0
 48 65  1  0  0  0
 48121  1  0  0  0
 49 50  1  0  0  0
 49 53  1  0  0  0
 49 64  1  0  0  0
 49122  1  0  0  0
 50 51  1  0  0  0
 50123  1  0  0  0
 50124  1  0  0  0
 51 52  1  0  0  0
 51125  1  0  0  0
 51126  1  0  0  0
 52127  1  0  0  0
 52128  1  0  0  0
 53 54  1  0  0  0
 54 55  2  0  0  0
 54129  1  0  0  0
 55 57  1  0  0  0
 55130  1  0  0  0
 56 69  2  0  0  0
 57 58  2  0  0  0
 57131  1  0  0  0
 58132  1  0  0  0
 59 60  1  0  0  0
 59 61  1  0  0  0
 59 62  1  0  0  0
 60133  1  0  0  0
 60134  1  0  0  0
 60135  1  0  0  0
 61136  1  0  0  0
 61137  1  0  0  0
 61138  1  0  0  0
 62139  1  0  0  0
 62140  1  0  0  0
 62141  1  0  0  0
 63 65  1  0  0  0
 63142  1  0  0  0
 63143  1  0  0  0
 63144  1  0  0  0
 64145  1  0  0  0
 65146  1  0  0  0
 68 81  1  0  0  0
 71 72  2  0  0  0
 71 84  1  0  0  0
 71147  1  0  0  0
 72 85  1  0  0  0
 72 87  1  0  0  0
 73 75  1  0  0  0
 73 84  2  0  0  0
 73 87  1  0  0  0
 74 76  2  0  0  0
 74 82  1  0  0  0
 74148  1  0  0  0
 75 83  1  0  0  0
 75 86  2  0  0  0
 76 77  1  0  0  0
 76 83  1  0  0  0
 77149  1  0  0  0
 77150  1  0  0  0
 77151  1  0  0  0
 78152  1  0  0  0
 78153  1  0  0  0
 78154  1  0  0  0
 78 82  1  0  0  0
 79155  1  0  0  0
 79156  1  0  0  0
 79157  1  0  0  0
 79 83  1  0  0  0
 80 83  1  0  0  0
 80158  1  0  0  0
 80159  1  0  0  0
 80160  1  0  0  0
 81 82  1  0  0  0
 81161  1  0  0  0
 81162  1  0  0  0
 82163  1  0  0  0
 85164  1  0  0  0
M  ISO  4   1 100  68 101  81 101  85 100
M  END
> <chiral flag>
0

> <version>
0

> <s_m_source_file>
/data/baiqing/PycharmProjects/Reinvent-master-3.2/result/LINK_invent/BTK/process_docking_weight1_custom_product_contain_oxygen_bond_distance_aromatic_linkinvent_7_9_3/rearranged_h_0144.sdf

> <i_m_source_file_index>
8

> <r_mmod_Potential_Energy-OPLS-2005>
253.123397827148

> <r_mmod_Stretch_Energy-OPLS-2005>
50.7531089782715

> <r_mmod_Bend_Energy-OPLS-2005>
200.474639892578

> <r_mmod_Torsional_Energy-OPLS-2005>
259.374877929688

> <r_mmod_Improper_Torsional_Energy-OPLS-2005>
3.89121508598328

> <r_mmod_Van_der_Waal_Energy-OPLS-2005>
207.907577514648

> <r_mmod_Electrostatic_Energy-OPLS-2005>
-279.512512207031

> <r_mmod_Solvation_Energy-OPLS-2005>
-216.636093139648

> <b_mmod_Minimization_Converged-OPLS-2005>
0

> <r_mmod_RMS_Derivative-OPLS-2005>
4.3315110206604

$$$$
8
                    3D
 Structure written by MMmdl.
162170  0  0  1  0            999 V2000
  -30.6932  -14.4766   20.4683 C   0  0  0  0  0  0
  -30.4077  -12.2881   19.4178 C   0  0  0  0  0  0
  -29.4798  -12.4803   18.1974 C   0  0  0  0  0  0
  -28.0044  -12.3318   18.6212 C   0  0  0  0  0  0
  -27.6532  -13.1946   19.8652 C   0  0  2  0  0  0
  -28.7029  -13.0211   20.9895 C   0  0  0  0  0  0
  -25.2586  -13.8103   20.5667 C   0  0  0  0  0  0
  -24.1853  -13.0405   20.9184 C   0  0  0  0  0  0
  -24.6402  -11.6877   20.8761 C   0  0  0  0  0  0
  -23.9057  -10.4291   21.0379 C   0  0  0  0  0  0
  -24.3614   -9.4231   21.9166 C   0  0  0  0  0  0
  -23.6299   -8.2262   22.0751 C   0  0  0  0  0  0
  -22.4287   -8.0282   21.3538 C   0  0  0  0  0  0
  -21.9903   -9.0258   20.4642 C   0  0  0  0  0  0
  -22.7220  -10.2136   20.3042 C   0  0  0  0  0  0
  -21.6853   -6.0746   22.5283 C   0  0  0  0  0  0
  -21.4014   -6.5649   23.8224 C   0  0  0  0  0  0
  -21.3656   -5.6797   24.9172 C   0  0  0  0  0  0
  -21.6045   -4.3072   24.7220 C   0  0  0  0  0  0
  -21.8834   -3.8163   23.4344 C   0  0  0  0  0  0
  -21.9216   -4.6977   22.3397 C   0  0  0  0  0  0
  -22.7905  -13.5243   21.1847 C   0  0  0  0  0  0
  -22.1690   -4.2157   21.0979 F   0  0  0  0  0  0
  -21.5616   -3.4558   25.7735 F   0  0  0  0  0  0
  -30.0240  -13.2968   20.4130 N   0  0  0  0  0  0
  -26.3016  -12.9249   20.3401 N   0  0  0  0  0  0
  -25.9327  -11.6433   20.5847 N   0  0  0  0  0  0
  -22.0558  -12.8194   22.0372 N   0  0  0  0  0  0
  -25.4293  -15.1796   20.4069 N   0  0  0  0  0  0
  -31.8865  -14.5900   20.1899 O   0  0  0  0  0  0
  -21.6660   -6.8866   21.4233 O   0  0  0  0  0  0
  -22.3603  -14.5593   20.6736 O   0  0  0  0  0  0
  -24.6262  -31.8762   23.2190 C   0  0  0  0  0  0
  -25.9096  -32.4898   23.8489 C   0  0  1  0  0  0
  -27.2598  -27.4797   20.0969 C   0  0  0  0  0  0
  -25.5938  -33.8689   24.2437 N   0  0  0  0  0  0
  -23.4336  -30.4954   21.5719 C   0  0  2  0  0  0
  -24.8654  -28.9574   20.1278 C   0  0  0  0  0  0
  -22.7767  -29.4792   22.5288 C   0  0  0  0  0  0
  -17.9908  -28.1132   22.8770 C   0  0  0  0  0  0
  -24.1483  -36.7348   23.2637 C   0  0  0  0  0  0
  -25.9445  -30.8494   21.3634 C   0  0  0  0  0  0
  -26.0192  -29.4804   20.7255 C   0  0  0  0  0  0
  -27.2199  -28.7447   20.7125 C   0  0  0  0  0  0
  -26.0961  -26.9587   19.4935 C   0  0  0  0  0  0
  -24.8937  -27.6927   19.5091 C   0  0  0  0  0  0
  -23.6275  -29.8191   20.1842 C   0  0  0  0  0  0
  -25.4096  -36.3167   24.0366 C   0  0  1  0  0  0
  -20.4809  -28.4483   22.7927 C   0  0  2  0  0  0
  -20.6913  -26.9536   22.5338 C   0  0  0  0  0  0
  -19.5499  -26.4518   21.6220 C   0  0  0  0  0  0
  -18.1553  -26.7433   22.2153 C   0  0  0  0  0  0
  -19.1137  -28.8875   23.2602 C   0  0  0  0  0  0
  -18.9323  -30.1387   23.8818 C   0  0  0  0  0  0
  -17.6349  -30.6436   24.0818 C   0  0  0  0  0  0
  -25.9021  -34.9524   23.5184 C   0  0  0  0  0  0
  -16.5172  -29.8913   23.6769 C   0  0  0  0  0  0
  -16.6961  -28.6241   23.0910 C   0  0  0  0  0  0
  -26.4473  -31.6618   25.0782 C   0  0  0  0  0  0
  -25.3716  -31.3705   26.1511 C   0  0  0  0  0  0
  -27.0285  -30.3074   24.6100 C   0  0  0  0  0  0
  -27.6077  -32.4299   25.7552 C   0  0  0  0  0  0
  -27.5582  -37.1852   24.8469 C   0  0  0  0  0  0
  -21.4536  -29.4407   22.4094 N   0  0  0  0  0  0
  -26.4293  -37.3832   23.9423 N   0  0  0  0  0  0
  -24.6902  -31.0879   22.1115 N   0  0  0  0  0  0
  -23.4285  -28.7583   23.2829 O   0  0  0  0  0  0
  -28.4430  -26.7892   20.0449 O   0  0  0  0  0  0
  -26.5564  -34.8958   22.4735 O   0  0  0  0  0  0
  -23.5431  -32.1471   23.7574 O   0  0  0  0  0  0
  -28.1148  -17.0990   20.7028 C   0  0  0  0  0  0
  -27.5968  -17.9105   22.9388 C   0  0  0  0  0  0
  -29.3993  -16.2898   22.6167 C   0  0  0  0  0  0
  -27.3256  -17.9014   21.5527 C   0  0  0  0  0  0
  -29.1453  -16.2869   21.2251 C   0  0  0  0  0  0
  -28.6244  -17.1048   23.4676 C   0  0  0  0  0  0
  -28.1788  -24.4042   20.4278 C   0  0  0  0  0  0
  -26.7757  -21.0491   20.6414 C   0  0  0  0  0  0
  -25.1730  -20.4298   22.4327 C   0  0  0  0  0  0
  -26.1587  -18.6881   20.9639 C   0  0  0  0  0  0
  -27.6777  -23.3282   21.3876 C   0  0  0  0  0  0
  -28.5704  -25.7609   21.0262 C   0  0  0  0  0  0
  -26.4645  -22.5392   20.8422 C   0  0  0  0  0  0
  -29.9259  -15.5607   20.2903 N   0  0  0  0  0  0
  -26.0937  -20.1084   21.3386 N   0  0  0  0  0  0
  -28.2824  -24.1838   19.2164 O   0  0  0  0  0  0
  -27.6176  -20.7524   19.7909 O   0  0  0  0  0  0
  -28.8681  -17.1142   24.8003 F   0  0  0  0  0  0
  -31.4566  -12.3666   19.1235 H   0  0  0  0  0  0
  -30.2874  -11.2875   19.8385 H   0  0  0  0  0  0
  -29.7156  -11.7535   17.4198 H   0  0  0  0  0  0
  -29.6333  -13.4646   17.7460 H   0  0  0  0  0  0
  -27.8348  -11.2789   18.8542 H   0  0  0  0  0  0
  -27.3386  -12.5681   17.7881 H   0  0  0  0  0  0
  -27.6756  -14.2316   19.5341 H   0  0  0  0  0  0
  -28.6779  -12.0098   21.3958 H   0  0  0  0  0  0
  -28.4893  -13.6797   21.8299 H   0  0  0  0  0  0
  -25.2763   -9.5756   22.4717 H   0  0  0  0  0  0
  -24.0043   -7.4673   22.7485 H   0  0  0  0  0  0
  -21.0825   -8.8773   19.8947 H   0  0  0  0  0  0
  -22.3678  -10.9668   19.6163 H   0  0  0  0  0  0
  -21.1994   -7.6161   23.9719 H   0  0  0  0  0  0
  -21.1447   -6.0524   25.9068 H   0  0  0  0  0  0
  -22.0608   -2.7622   23.2853 H   0  0  0  0  0  0
  -22.4180  -11.9815   22.4679 H   0  0  0  0  0  0
  -21.1198  -13.1222   22.2639 H   0  0  0  0  0  0
  -24.6665  -15.8328   20.5395 H   0  0  0  0  0  0
  -26.3184  -15.6232   20.2151 H   0  0  0  0  0  0
  -26.7213  -32.5626   23.1309 H   0  0  0  0  0  0
  -25.0113  -33.9874   25.0597 H   0  0  0  0  0  0
  -22.7273  -31.3173   21.4233 H   0  0  0  0  0  0
  -23.3744  -35.9674   23.3316 H   0  0  0  0  0  0
  -24.3573  -36.8930   22.2041 H   0  0  0  0  0  0
  -23.7228  -37.6571   23.6615 H   0  0  0  0  0  0
  -26.0333  -31.6006   20.5788 H   0  0  0  0  0  0
  -26.8422  -30.9251   21.9656 H   0  0  0  0  0  0
  -28.1155  -29.1438   21.1664 H   0  0  0  0  0  0
  -26.1249  -25.9998   18.9935 H   0  0  0  0  0  0
  -24.0122  -27.2846   19.0339 H   0  0  0  0  0  0
  -23.7344  -30.5891   19.4183 H   0  0  0  0  0  0
  -22.7512  -29.2342   19.8995 H   0  0  0  0  0  0
  -25.1264  -36.2068   25.0859 H   0  0  0  0  0  0
  -20.1662  -28.6686   21.7718 H   0  0  0  0  0  0
  -20.6837  -26.4150   23.4823 H   0  0  0  0  0  0
  -21.6535  -26.7584   22.0630 H   0  0  0  0  0  0
  -19.6600  -25.3836   21.4349 H   0  0  0  0  0  0
  -19.6244  -26.9176   20.6380 H   0  0  0  0  0  0
  -17.3984  -26.6224   21.4369 H   0  0  0  0  0  0
  -17.9335  -25.9959   22.9781 H   0  0  0  0  0  0
  -19.7888  -30.7402   24.1526 H   0  0  0  0  0  0
  -17.5037  -31.6171   24.5368 H   0  0  0  0  0  0
  -15.5222  -30.2889   23.8241 H   0  0  0  0  0  0
  -15.8302  -28.0418   22.7982 H   0  0  0  0  0  0
  -24.5892  -30.7058   25.7833 H   0  0  0  0  0  0
  -24.8871  -32.2844   26.4975 H   0  0  0  0  0  0
  -25.8019  -30.8853   27.0280 H   0  0  0  0  0  0
  -26.2827  -29.6889   24.1094 H   0  0  0  0  0  0
  -27.4023  -29.7251   25.4530 H   0  0  0  0  0  0
  -27.8668  -30.4435   23.9261 H   0  0  0  0  0  0
  -27.2736  -33.3610   26.2158 H   0  0  0  0  0  0
  -28.3865  -32.6849   25.0347 H   0  0  0  0  0  0
  -28.0766  -31.8377   26.5433 H   0  0  0  0  0  0
  -28.2625  -38.0127   24.7509 H   0  0  0  0  0  0
  -28.1060  -36.2671   24.6298 H   0  0  0  0  0  0
  -27.2310  -37.1504   25.8873 H   0  0  0  0  0  0
  -21.0730  -30.1624   21.8126 H   0  0  0  0  0  0
  -26.0205  -38.2928   24.1381 H   0  0  0  0  0  0
  -27.9129  -17.0941   19.6388 H   0  0  0  0  0  0
  -27.0114  -18.5226   23.6069 H   0  0  0  0  0  0
  -30.1935  -15.6992   23.0479 H   0  0  0  0  0  0
  -24.2703  -20.9061   22.0459 H   0  0  0  0  0  0
  -25.6457  -21.0950   23.1579 H   0  0  0  0  0  0
  -24.8606  -19.5409   22.9786 H   0  0  0  0  0  0
  -25.2391  -18.1783   21.2497 H   0  0  0  0  0  0
  -26.1837  -18.6064   19.8747 H   0  0  0  0  0  0
  -27.3947  -23.8037   22.3260 H   0  0  0  0  0  0
  -28.5120  -22.6649   21.6185 H   0  0  0  0  0  0
  -29.6126  -25.7084   21.3422 H   0  0  0  0  0  0
  -27.9765  -25.9779   21.9152 H   0  0  0  0  0  0
  -25.6154  -22.7105   21.4990 H   0  0  0  0  0  0
  -26.1346  -22.9223   19.8750 H   0  0  0  0  0  0
  -30.3191  -16.1604   19.5780 H   0  0  0  0  0  0
  1 25  1  0  0  0
  1 30  2  0  0  0
  1 84  1  0  0  0
  2  3  1  0  0  0
  2 25  1  0  0  0
  2 89  1  0  0  0
  2 90  1  0  0  0
  3  4  1  0  0  0
  3 91  1  0  0  0
  3 92  1  0  0  0
  4  5  1  0  0  0
  4 93  1  0  0  0
  4 94  1  0  0  0
  5  6  1  0  0  0
  5 26  1  0  0  0
  5 95  1  0  0  0
  6 25  1  0  0  0
  6 96  1  0  0  0
  6 97  1  0  0  0
  7  8  2  0  0  0
  7 26  1  0  0  0
  7 29  1  0  0  0
  8  9  1  0  0  0
  8 22  1  0  0  0
  9 10  1  0  0  0
  9 27  2  0  0  0
 10 11  2  0  0  0
 10 15  1  0  0  0
 11 12  1  0  0  0
 11 98  1  0  0  0
 12 13  2  0  0  0
 12 99  1  0  0  0
 13 14  1  0  0  0
 13 31  1  0  0  0
 14 15  2  0  0  0
 14100  1  0  0  0
 15101  1  0  0  0
 16 17  2  0  0  0
 16 21  1  0  0  0
 16 31  1  0  0  0
 17 18  1  0  0  0
 17102  1  0  0  0
 18 19  2  0  0  0
 18103  1  0  0  0
 19 20  1  0  0  0
 19 24  1  0  0  0
 20 21  2  0  0  0
 20104  1  0  0  0
 21 23  1  0  0  0
 22 28  1  0  0  0
 22 32  2  0  0  0
 26 27  1  0  0  0
 28105  1  0  0  0
 28106  1  0  0  0
 29107  1  0  0  0
 29108  1  0  0  0
 33 34  1  0  0  0
 33 66  1  0  0  0
 33 70  2  0  0  0
 34 36  1  0  0  0
 34 59  1  0  0  0
 34109  1  0  0  0
 35 44  2  0  0  0
 35 45  1  0  0  0
 35 68  1  0  0  0
 36 56  1  0  0  0
 36110  1  0  0  0
 37 39  1  0  0  0
 37 47  1  0  0  0
 37 66  1  0  0  0
 37111  1  0  0  0
 38 43  2  0  0  0
 38 46  1  0  0  0
 38 47  1  0  0  0
 39 64  1  0  0  0
 39 67  2  0  0  0
 40 52  1  0  0  0
 40 53  2  0  0  0
 40 58  1  0  0  0
 41112  1  0  0  0
 41113  1  0  0  0
 41114  1  0  0  0
 41 48  1  0  0  0
 42 43  1  0  0  0
 42 66  1  0  0  0
 42115  1  0  0  0
 42116  1  0  0  0
 43 44  1  0  0  0
 44117  1  0  0  0
 45 46  2  0  0  0
 45118  1  0  0  0
 46119  1  0  0  0
 47120  1  0  0  0
 47121  1  0  0  0
 48 56  1  0  0  0
 48 65  1  0  0  0
 48122  1  0  0  0
 49 50  1  0  0  0
 49 53  1  0  0  0
 49 64  1  0  0  0
 49123  1  0  0  0
 50 51  1  0  0  0
 50124  1  0  0  0
 50125  1  0  0  0
 51 52  1  0  0  0
 51126  1  0  0  0
 51127  1  0  0  0
 52128  1  0  0  0
 52129  1  0  0  0
 53 54  1  0  0  0
 54 55  2  0  0  0
 54130  1  0  0  0
 55 57  1  0  0  0
 55131  1  0  0  0
 56 69  2  0  0  0
 57 58  2  0  0  0
 57132  1  0  0  0
 58133  1  0  0  0
 59 60  1  0  0  0
 59 61  1  0  0  0
 59 62  1  0  0  0
 60134  1  0  0  0
 60135  1  0  0  0
 60136  1  0  0  0
 61137  1  0  0  0
 61138  1  0  0  0
 61139  1  0  0  0
 62140  1  0  0  0
 62141  1  0  0  0
 62142  1  0  0  0
 63 65  1  0  0  0
 63143  1  0  0  0
 63144  1  0  0  0
 63145  1  0  0  0
 64146  1  0  0  0
 65147  1  0  0  0
 68 82  1  0  0  0
 71 74  2  0  0  0
 71 75  1  0  0  0
 71148  1  0  0  0
 72 74  1  0  0  0
 72 76  2  0  0  0
 72149  1  0  0  0
 73 75  2  0  0  0
 73 76  1  0  0  0
 73150  1  0  0  0
 74 80  1  0  0  0
 75 84  1  0  0  0
 76 88  1  0  0  0
 77 81  1  0  0  0
 77 82  1  0  0  0
 77 86  2  0  0  0
 78 83  1  0  0  0
 78 85  1  0  0  0
 78 87  2  0  0  0
 79 85  1  0  0  0
 79151  1  0  0  0
 79152  1  0  0  0
 79153  1  0  0  0
 80 85  1  0  0  0
 80154  1  0  0  0
 80155  1  0  0  0
 81 83  1  0  0  0
 81156  1  0  0  0
 81157  1  0  0  0
 82158  1  0  0  0
 82159  1  0  0  0
 83160  1  0  0  0
 83161  1  0  0  0
 84162  1  0  0  0
M  ISO  4   1 100  68 101  82 101  84 100
M  END
> <chiral flag>
0

> <version>
0

> <s_m_source_file>
/data/baiqing/PycharmProjects/Reinvent-master-3.2/result/LINK_invent/BTK/process_docking_weight1_custom_product_contain_oxygen_bond_distance_aromatic_linkinvent_7_9_3/rearranged_h_0144.sdf

> <i_m_source_file_index>
9

> <r_mmod_Potential_Energy-OPLS-2005>
123.917930603027

> <r_mmod_Stretch_Energy-OPLS-2005>
30.1049785614014

> <r_mmod_Bend_Energy-OPLS-2005>
207.251480102539

> <r_mmod_Torsional_Energy-OPLS-2005>
312.507904052734

> <r_mmod_Improper_Torsional_Energy-OPLS-2005>
22.1968421936035

> <r_mmod_Van_der_Waal_Energy-OPLS-2005>
153.157043457031

> <r_mmod_Electrostatic_Energy-OPLS-2005>
-393.013458251953

> <r_mmod_Solvation_Energy-OPLS-2005>
-245.583740234375

> <b_mmod_Minimization_Converged-OPLS-2005>
0

> <r_mmod_RMS_Derivative-OPLS-2005>
4.59248876571655

$$$$
9
                    3D
 Structure written by MMmdl.
158167  0  0  1  0            999 V2000
  -30.6469  -14.4932   20.5873 C   0  0  0  0  0  0
  -30.4423  -12.3254   19.4121 C   0  0  0  0  0  0
  -29.4999  -12.5135   18.2025 C   0  0  0  0  0  0
  -28.0196  -12.3648   18.6125 C   0  0  0  0  0  0
  -27.6643  -13.1930   19.8754 C   0  0  2  0  0  0
  -28.7058  -12.9400   20.9893 C   0  0  0  0  0  0
  -25.2608  -13.8130   20.5648 C   0  0  0  0  0  0
  -24.1855  -13.0430   20.9186 C   0  0  0  0  0  0
  -24.6388  -11.6890   20.8738 C   0  0  0  0  0  0
  -23.9050  -10.4283   21.0411 C   0  0  0  0  0  0
  -24.3607   -9.4201   21.9185 C   0  0  0  0  0  0
  -23.6284   -8.2240   22.0756 C   0  0  0  0  0  0
  -22.4266   -8.0277   21.3546 C   0  0  0  0  0  0
  -21.9899   -9.0253   20.4651 C   0  0  0  0  0  0
  -22.7230  -10.2131   20.3056 C   0  0  0  0  0  0
  -21.6847   -6.0731   22.5282 C   0  0  0  0  0  0
  -21.4014   -6.5636   23.8215 C   0  0  0  0  0  0
  -21.3656   -5.6791   24.9176 C   0  0  0  0  0  0
  -21.6043   -4.3054   24.7227 C   0  0  0  0  0  0
  -21.8821   -3.8143   23.4349 C   0  0  0  0  0  0
  -21.9195   -4.6960   22.3405 C   0  0  0  0  0  0
  -22.7880  -13.5242   21.1848 C   0  0  0  0  0  0
  -22.1659   -4.2144   21.0984 F   0  0  0  0  0  0
  -21.5629   -3.4539   25.7740 F   0  0  0  0  0  0
  -30.0352  -13.2843   20.4491 N   0  0  0  0  0  0
  -26.3027  -12.9269   20.3331 N   0  0  0  0  0  0
  -25.9304  -11.6444   20.5753 N   0  0  0  0  0  0
  -22.0504  -12.8235   22.0395 N   0  0  0  0  0  0
  -25.4344  -15.1847   20.3983 N   0  0  0  0  0  0
  -31.7701  -14.7368   20.1318 O   0  0  0  0  0  0
  -21.6632   -6.8873   21.4243 O   0  0  0  0  0  0
  -22.3573  -14.5552   20.6697 O   0  0  0  0  0  0
  -24.6154  -31.8682   23.2103 C   0  0  0  0  0  0
  -25.9049  -32.4824   23.8413 C   0  0  1  0  0  0
  -27.2357  -27.4253   20.1036 C   0  0  0  0  0  0
  -25.5901  -33.8626   24.2335 N   0  0  0  0  0  0
  -23.4044  -30.4892   21.5511 C   0  0  2  0  0  0
  -24.8539  -28.9500   20.1200 C   0  0  0  0  0  0
  -22.7421  -29.4651   22.4993 C   0  0  0  0  0  0
  -18.0262  -28.1376   22.8494 C   0  0  0  0  0  0
  -24.1473  -36.7330   23.2631 C   0  0  0  0  0  0
  -25.9343  -30.8312   21.3644 C   0  0  0  0  0  0
  -26.0142  -29.4606   20.7192 C   0  0  0  0  0  0
  -27.2115  -28.7048   20.7103 C   0  0  0  0  0  0
  -26.0613  -26.9297   19.5035 C   0  0  0  0  0  0
  -24.8716  -27.6824   19.5115 C   0  0  0  0  0  0
  -23.6152  -29.8181   20.1671 C   0  0  0  0  0  0
  -25.4098  -36.3131   24.0329 C   0  0  1  0  0  0
  -20.5855  -28.3666   23.1324 C   0  0  2  0  0  0
  -20.6748  -26.9406   22.5414 C   0  0  0  0  0  0
  -19.5727  -26.6411   21.5202 C   0  0  0  0  0  0
  -18.1906  -26.7931   22.1622 C   0  0  0  0  0  0
  -19.1508  -28.8839   23.2914 C   0  0  0  0  0  0
  -18.9433  -30.1437   23.8932 C   0  0  0  0  0  0
  -17.6436  -30.6583   24.0556 C   0  0  0  0  0  0
  -25.9032  -34.9487   23.5135 C   0  0  0  0  0  0
  -16.5328  -29.9085   23.6315 C   0  0  0  0  0  0
  -16.7251  -28.6498   23.0355 C   0  0  0  0  0  0
  -26.4474  -31.6584   25.0726 C   0  0  0  0  0  0
  -25.3744  -31.3667   26.1472 C   0  0  0  0  0  0
  -27.0288  -30.3023   24.6090 C   0  0  0  0  0  0
  -27.6074  -32.4273   25.7477 C   0  0  0  0  0  0
  -27.5573  -37.1815   24.8459 C   0  0  0  0  0  0
  -21.4143  -29.3039   22.3749 N   0  0  0  0  0  0
  -26.4286  -37.3813   23.9406 N   0  0  0  0  0  0
  -24.6698  -31.0770   22.1008 N   0  0  0  0  0  0
  -23.4199  -28.8194   23.3029 O   0  0  0  0  0  0
  -28.3736  -26.6547   20.0367 O   0  0  0  0  0  0
  -26.5607  -34.8937   22.4704 O   0  0  0  0  0  0
  -23.5350  -32.1442   23.7489 O   0  0  0  0  0  0
  -28.6784  -18.9557   21.5607 C   0  0  0  0  0  0
  -28.7006  -17.5555   21.3674 C   0  0  0  0  0  0
  -31.1218  -17.6039   21.1909 C   0  0  0  0  0  0
  -29.8807  -19.6918   21.6315 C   0  0  0  0  0  0
  -29.9195  -16.8556   21.2028 C   0  0  0  0  0  0
  -31.1038  -19.0040   21.4192 C   0  0  0  0  0  0
  -28.8487  -24.4541   20.9251 C   0  0  0  0  0  0
  -28.6002  -25.7776   21.0727 C   0  0  0  0  0  0
  -29.8380  -21.0825   22.1399 C   0  0  0  0  0  0
  -28.8217  -23.6651   19.6342 C   0  0  0  0  0  0
  -29.2009  -23.5190   22.0664 C   0  0  0  0  0  0
  -29.0180  -22.1849   20.0273 C   0  0  0  0  0  0
  -29.3815  -22.1743   21.4589 N   0  0  0  0  0  0
  -29.8461  -15.4271   21.1444 N   0  0  0  0  0  0
  -30.2290  -21.2682   23.4005 N   0  3  0  0  0  0
  -32.2814  -19.6727   21.4793 F   0  0  0  0  0  0
  -31.4818  -12.4636   19.1085 H   0  0  0  0  0  0
  -30.3773  -11.3067   19.7975 H   0  0  0  0  0  0
  -29.7443  -11.7935   17.4205 H   0  0  0  0  0  0
  -29.6577  -13.5012   17.7661 H   0  0  0  0  0  0
  -27.8307  -11.3069   18.7985 H   0  0  0  0  0  0
  -27.3703  -12.6469   17.7827 H   0  0  0  0  0  0
  -27.7150  -14.2438   19.5899 H   0  0  0  0  0  0
  -28.6951  -11.8890   21.2815 H   0  0  0  0  0  0
  -28.4556  -13.4863   21.8998 H   0  0  0  0  0  0
  -25.2755   -9.5671   22.4755 H   0  0  0  0  0  0
  -23.9991   -7.4626   22.7469 H   0  0  0  0  0  0
  -21.0831   -8.8775   19.8951 H   0  0  0  0  0  0
  -22.3697  -10.9670   19.6159 H   0  0  0  0  0  0
  -21.2005   -7.6144   23.9717 H   0  0  0  0  0  0
  -21.1474   -6.0520   25.9079 H   0  0  0  0  0  0
  -22.0603   -2.7605   23.2855 H   0  0  0  0  0  0
  -22.4099  -11.9887   22.4789 H   0  0  0  0  0  0
  -21.1116  -13.1266   22.2577 H   0  0  0  0  0  0
  -24.6547  -15.8291   20.4729 H   0  0  0  0  0  0
  -26.2509  -15.6035   19.9728 H   0  0  0  0  0  0
  -26.7122  -32.5528   23.1187 H   0  0  0  0  0  0
  -25.0018  -33.9782   25.0459 H   0  0  0  0  0  0
  -22.6913  -31.3046   21.4113 H   0  0  0  0  0  0
  -23.3730  -35.9666   23.3313 H   0  0  0  0  0  0
  -24.3571  -36.8930   22.2043 H   0  0  0  0  0  0
  -23.7230  -37.6538   23.6642 H   0  0  0  0  0  0
  -26.0387  -31.5912   20.5893 H   0  0  0  0  0  0
  -26.8271  -30.8971   21.9751 H   0  0  0  0  0  0
  -28.1122  -29.0966   21.1617 H   0  0  0  0  0  0
  -26.0764  -25.9577   19.0291 H   0  0  0  0  0  0
  -23.9799  -27.2817   19.0474 H   0  0  0  0  0  0
  -23.7191  -30.5935   19.4077 H   0  0  0  0  0  0
  -22.7400  -29.2363   19.8718 H   0  0  0  0  0  0
  -25.1261  -36.2011   25.0818 H   0  0  0  0  0  0
  -20.9929  -28.3231   24.1450 H   0  0  0  0  0  0
  -20.5623  -26.2281   23.3604 H   0  0  0  0  0  0
  -21.6620  -26.7440   22.1203 H   0  0  0  0  0  0
  -19.6888  -25.6340   21.1188 H   0  0  0  0  0  0
  -19.6649  -27.3261   20.6762 H   0  0  0  0  0  0
  -17.4162  -26.6681   21.4030 H   0  0  0  0  0  0
  -18.0311  -26.0060   22.9007 H   0  0  0  0  0  0
  -19.7904  -30.7242   24.2338 H   0  0  0  0  0  0
  -17.4982  -31.6256   24.5173 H   0  0  0  0  0  0
  -15.5329  -30.2992   23.7632 H   0  0  0  0  0  0
  -15.8650  -28.0829   22.7070 H   0  0  0  0  0  0
  -24.5949  -30.6977   25.7803 H   0  0  0  0  0  0
  -24.8890  -32.2799   26.4919 H   0  0  0  0  0  0
  -25.8107  -30.8844   27.0233 H   0  0  0  0  0  0
  -26.2825  -29.6805   24.1129 H   0  0  0  0  0  0
  -27.4036  -29.7230   25.4543 H   0  0  0  0  0  0
  -27.8677  -30.4320   23.9250 H   0  0  0  0  0  0
  -27.2735  -33.3579   26.2079 H   0  0  0  0  0  0
  -28.3881  -32.6813   25.0292 H   0  0  0  0  0  0
  -28.0758  -31.8372   26.5367 H   0  0  0  0  0  0
  -28.2600  -38.0102   24.7504 H   0  0  0  0  0  0
  -28.1064  -36.2641   24.6287 H   0  0  0  0  0  0
  -27.2297  -37.1449   25.8862 H   0  0  0  0  0  0
  -20.9321  -29.8782   21.6974 H   0  0  0  0  0  0
  -26.0187  -38.2894   24.1407 H   0  0  0  0  0  0
  -27.7339  -19.4490   21.7433 H   0  0  0  0  0  0
  -27.7640  -17.0161   21.3890 H   0  0  0  0  0  0
  -32.0746  -17.1118   21.0685 H   0  0  0  0  0  0
  -28.6228  -26.2806   22.0306 H   0  0  0  0  0  0
  -29.6246  -24.0036   18.9779 H   0  0  0  0  0  0
  -27.8739  -23.8172   19.1165 H   0  0  0  0  0  0
  -28.3947  -23.5098   22.8022 H   0  0  0  0  0  0
  -30.1150  -23.8661   22.5511 H   0  0  0  0  0  0
  -29.7962  -21.7256   19.4155 H   0  0  0  0  0  0
  -28.0967  -21.6197   19.8733 H   0  0  0  0  0  0
  -28.9624  -15.0392   21.4335 H   0  0  0  0  0  0
  -30.5336  -20.4718   23.9411 H   0  0  0  0  0  0
  -30.2238  -22.1703   23.8429 H   0  0  0  0  0  0
  1 25  1  0  0  0
  1 30  2  0  0  0
  1 84  1  0  0  0
  2  3  1  0  0  0
  2 25  1  0  0  0
  2 87  1  0  0  0
  2 88  1  0  0  0
  3  4  1  0  0  0
  3 89  1  0  0  0
  3 90  1  0  0  0
  4  5  1  0  0  0
  4 91  1  0  0  0
  4 92  1  0  0  0
  5  6  1  0  0  0
  5 26  1  0  0  0
  5 93  1  0  0  0
  6 25  1  0  0  0
  6 94  1  0  0  0
  6 95  1  0  0  0
  7  8  2  0  0  0
  7 26  1  0  0  0
  7 29  1  0  0  0
  8  9  1  0  0  0
  8 22  1  0  0  0
  9 10  1  0  0  0
  9 27  2  0  0  0
 10 11  2  0  0  0
 10 15  1  0  0  0
 11 12  1  0  0  0
 11 96  1  0  0  0
 12 13  2  0  0  0
 12 97  1  0  0  0
 13 14  1  0  0  0
 13 31  1  0  0  0
 14 15  2  0  0  0
 14 98  1  0  0  0
 15 99  1  0  0  0
 16 17  2  0  0  0
 16 21  1  0  0  0
 16 31  1  0  0  0
 17 18  1  0  0  0
 17100  1  0  0  0
 18 19  2  0  0  0
 18101  1  0  0  0
 19 20  1  0  0  0
 19 24  1  0  0  0
 20 21  2  0  0  0
 20102  1  0  0  0
 21 23  1  0  0  0
 22 28  1  0  0  0
 22 32  2  0  0  0
 26 27  1  0  0  0
 28103  1  0  0  0
 28104  1  0  0  0
 29105  1  0  0  0
 29106  1  0  0  0
 33 34  1  0  0  0
 33 66  1  0  0  0
 33 70  2  0  0  0
 34 36  1  0  0  0
 34 59  1  0  0  0
 34107  1  0  0  0
 35 44  2  0  0  0
 35 45  1  0  0  0
 35 68  1  0  0  0
 36 56  1  0  0  0
 36108  1  0  0  0
 37 39  1  0  0  0
 37 47  1  0  0  0
 37 66  1  0  0  0
 37109  1  0  0  0
 38 43  2  0  0  0
 38 46  1  0  0  0
 38 47  1  0  0  0
 39 64  1  0  0  0
 39 67  2  0  0  0
 40 52  1  0  0  0
 40 53  2  0  0  0
 40 58  1  0  0  0
 41110  1  0  0  0
 41111  1  0  0  0
 41112  1  0  0  0
 41 48  1  0  0  0
 42 43  1  0  0  0
 42 66  1  0  0  0
 42113  1  0  0  0
 42114  1  0  0  0
 43 44  1  0  0  0
 44115  1  0  0  0
 45 46  2  0  0  0
 45116  1  0  0  0
 46117  1  0  0  0
 47118  1  0  0  0
 47119  1  0  0  0
 48 56  1  0  0  0
 48 65  1  0  0  0
 48120  1  0  0  0
 49 50  1  0  0  0
 49 53  1  0  0  0
 49 64  1  0  0  0
 49121  1  0  0  0
 50 51  1  0  0  0
 50122  1  0  0  0
 50123  1  0  0  0
 51 52  1  0  0  0
 51124  1  0  0  0
 51125  1  0  0  0
 52126  1  0  0  0
 52127  1  0  0  0
 53 54  1  0  0  0
 54 55  2  0  0  0
 54128  1  0  0  0
 55 57  1  0  0  0
 55129  1  0  0  0
 56 69  2  0  0  0
 57 58  2  0  0  0
 57130  1  0  0  0
 58131  1  0  0  0
 59 60  1  0  0  0
 59 61  1  0  0  0
 59 62  1  0  0  0
 60132  1  0  0  0
 60133  1  0  0  0
 60134  1  0  0  0
 61135  1  0  0  0
 61136  1  0  0  0
 61137  1  0  0  0
 62138  1  0  0  0
 62139  1  0  0  0
 62140  1  0  0  0
 63 65  1  0  0  0
 63141  1  0  0  0
 63142  1  0  0  0
 63143  1  0  0  0
 64144  1  0  0  0
 65145  1  0  0  0
 68 78  1  0  0  0
 71 72  2  0  0  0
 71 74  1  0  0  0
 71146  1  0  0  0
 72 75  1  0  0  0
 72147  1  0  0  0
 73 75  2  0  0  0
 73 76  1  0  0  0
 73148  1  0  0  0
 74 76  2  0  0  0
 74 79  1  0  0  0
 75 84  1  0  0  0
 76 86  1  0  0  0
 77 78  2  0  0  0
 77 80  1  0  0  0
 77 81  1  0  0  0
 78149  1  0  0  0
 79 83  1  0  0  0
 79 85  2  0  0  0
 80 82  1  0  0  0
 80150  1  0  0  0
 80151  1  0  0  0
 81 83  1  0  0  0
 81152  1  0  0  0
 81153  1  0  0  0
 82 83  1  0  0  0
 82154  1  0  0  0
 82155  1  0  0  0
 84156  1  0  0  0
 85157  1  0  0  0
 85158  1  0  0  0
M  CHG  1  85   1
M  ISO  4   1 100  68 101  78 101  84 100
M  END
> <chiral flag>
0

> <version>
0

> <s_m_source_file>
/data/baiqing/PycharmProjects/Reinvent-master-3.2/result/LINK_invent/BTK/process_docking_weight1_custom_product_contain_oxygen_bond_distance_aromatic_linkinvent_7_9_3/rearranged_h_0144.sdf

> <i_m_source_file_index>
10

> <r_mmod_Potential_Energy-OPLS-2005>
-116.513999938965

> <r_mmod_Stretch_Energy-OPLS-2005>
39.8415946960449

> <r_mmod_Bend_Energy-OPLS-2005>
124.698974609375

> <r_mmod_Torsional_Energy-OPLS-2005>
274.397979736328

> <r_mmod_Improper_Torsional_Energy-OPLS-2005>
5.93097829818726

> <r_mmod_Van_der_Waal_Energy-OPLS-2005>
141.989196777344

> <r_mmod_Electrostatic_Energy-OPLS-2005>
-319.269714355469

> <r_mmod_Solvation_Energy-OPLS-2005>
-398.368988037109

> <b_mmod_Minimization_Converged-OPLS-2005>
0

> <r_mmod_RMS_Derivative-OPLS-2005>
1.84196138381958

$$$$
10
                    3D
 Structure written by MMmdl.
171179  0  0  1  0            999 V2000
  -30.7767  -14.3449   20.7059 C   0  0  0  0  0  0
  -30.4145  -12.2871   19.3907 C   0  0  0  0  0  0
  -29.4811  -12.5290   18.1905 C   0  0  0  0  0  0
  -28.0061  -12.3813   18.6072 C   0  0  0  0  0  0
  -27.6653  -13.2006   19.8794 C   0  0  2  0  0  0
  -28.7015  -12.9347   20.9933 C   0  0  0  0  0  0
  -25.2597  -13.8155   20.5668 C   0  0  0  0  0  0
  -24.1840  -13.0442   20.9160 C   0  0  0  0  0  0
  -24.6385  -11.6903   20.8717 C   0  0  0  0  0  0
  -23.9050  -10.4294   21.0395 C   0  0  0  0  0  0
  -24.3606   -9.4213   21.9179 C   0  0  0  0  0  0
  -23.6287   -8.2247   22.0754 C   0  0  0  0  0  0
  -22.4268   -8.0281   21.3547 C   0  0  0  0  0  0
  -21.9900   -9.0251   20.4645 C   0  0  0  0  0  0
  -22.7222  -10.2131   20.3051 C   0  0  0  0  0  0
  -21.6851   -6.0736   22.5281 C   0  0  0  0  0  0
  -21.4014   -6.5641   23.8215 C   0  0  0  0  0  0
  -21.3658   -5.6791   24.9175 C   0  0  0  0  0  0
  -21.6044   -4.3056   24.7224 C   0  0  0  0  0  0
  -21.8819   -3.8149   23.4345 C   0  0  0  0  0  0
  -21.9193   -4.6966   22.3402 C   0  0  0  0  0  0
  -22.7865  -13.5246   21.1835 C   0  0  0  0  0  0
  -22.1661   -4.2153   21.0979 F   0  0  0  0  0  0
  -21.5628   -3.4539   25.7736 F   0  0  0  0  0  0
  -30.0465  -13.2267   20.4599 N   0  0  0  0  0  0
  -26.3033  -12.9312   20.3371 N   0  0  0  0  0  0
  -25.9308  -11.6475   20.5745 N   0  0  0  0  0  0
  -22.0504  -12.8239   22.0388 N   0  0  0  0  0  0
  -25.4351  -15.1871   20.4088 N   0  0  0  0  0  0
  -31.7894  -14.6408   20.0612 O   0  0  0  0  0  0
  -21.6638   -6.8877   21.4241 O   0  0  0  0  0  0
  -22.3550  -14.5559   20.6693 O   0  0  0  0  0  0
  -24.6104  -31.8706   23.2143 C   0  0  0  0  0  0
  -25.9015  -32.4842   23.8412 C   0  0  1  0  0  0
  -27.2329  -27.4721   20.0936 C   0  0  0  0  0  0
  -25.5882  -33.8642   24.2351 N   0  0  0  0  0  0
  -23.3969  -30.4935   21.5541 C   0  0  2  0  0  0
  -24.8448  -28.9650   20.1165 C   0  0  0  0  0  0
  -22.7389  -29.4665   22.5023 C   0  0  0  0  0  0
  -18.0275  -28.1376   22.8505 C   0  0  0  0  0  0
  -24.1476  -36.7339   23.2642 C   0  0  0  0  0  0
  -25.9217  -30.8451   21.3651 C   0  0  0  0  0  0
  -26.0012  -29.4809   20.7172 C   0  0  0  0  0  0
  -27.2006  -28.7384   20.7114 C   0  0  0  0  0  0
  -26.0707  -26.9695   19.4734 C   0  0  0  0  0  0
  -24.8711  -27.7041   19.4945 C   0  0  0  0  0  0
  -23.6036  -29.8252   20.1683 C   0  0  0  0  0  0
  -25.4097  -36.3138   24.0347 C   0  0  1  0  0  0
  -20.5861  -28.3642   23.1347 C   0  0  2  0  0  0
  -20.6757  -26.9382   22.5425 C   0  0  0  0  0  0
  -19.5738  -26.6377   21.5220 C   0  0  0  0  0  0
  -18.1916  -26.7925   22.1633 C   0  0  0  0  0  0
  -19.1524  -28.8828   23.2923 C   0  0  0  0  0  0
  -18.9447  -30.1437   23.8925 C   0  0  0  0  0  0
  -17.6451  -30.6581   24.0572 C   0  0  0  0  0  0
  -25.9026  -34.9497   23.5149 C   0  0  0  0  0  0
  -16.5344  -29.9082   23.6335 C   0  0  0  0  0  0
  -16.7266  -28.6504   23.0353 C   0  0  0  0  0  0
  -26.4477  -31.6597   25.0707 C   0  0  0  0  0  0
  -25.3761  -31.3646   26.1451 C   0  0  0  0  0  0
  -27.0352  -30.3070   24.6041 C   0  0  0  0  0  0
  -27.6025  -32.4353   25.7474 C   0  0  0  0  0  0
  -27.5582  -37.1820   24.8466 C   0  0  0  0  0  0
  -21.4122  -29.3021   22.3764 N   0  0  0  0  0  0
  -26.4294  -37.3812   23.9411 N   0  0  0  0  0  0
  -24.6607  -31.0834   22.1034 N   0  0  0  0  0  0
  -23.4176  -28.8211   23.3055 O   0  0  0  0  0  0
  -28.3842  -26.7274   20.0466 O   0  0  0  0  0  0
  -26.5593  -34.8946   22.4715 O   0  0  0  0  0  0
  -23.5309  -32.1443   23.7565 O   0  0  0  0  0  0
  -32.3860  -17.9101   22.8525 C   0  0  0  0  0  0
  -32.1913  -16.6309   22.2587 C   0  0  0  0  0  0
  -31.2211  -18.5030   23.2792 C   0  0  0  0  0  0
  -30.8767  -16.2301   22.2267 C   0  0  0  0  0  0
  -30.2681  -24.3516   23.5170 C   0  0  0  0  0  0
  -31.8543  -20.7564   23.9436 C   0  0  0  0  0  0
  -28.4037  -21.7663   23.0445 C   0  0  0  0  0  0
  -27.3459  -25.0455   21.5845 C   0  0  0  0  0  0
  -31.9591  -23.1483   22.0215 C   0  0  0  0  0  0
  -30.5983  -25.6554   22.7614 C   0  0  0  0  0  0
  -31.2381  -22.1287   24.2522 C   0  0  0  0  0  0
  -29.6305  -22.2333   22.2306 C   0  0  0  0  0  0
  -29.3738  -26.4635   22.2756 C   0  0  0  0  0  0
  -28.6089  -25.7960   21.1138 C   0  0  2  0  0  0
  -30.7717  -22.9634   23.0066 C   0  0  1  0  0  0
  -30.9980  -19.7294   23.8160 N   0  0  0  0  0  0
  -30.3297  -15.0927   21.7277 N   0  0  0  0  0  0
  -29.5984  -24.4281   24.5500 O   0  0  0  0  0  0
  -33.0799  -20.6447   23.8670 O   0  0  0  0  0  0
  -29.8718  -17.4301   22.9978 S   0  0  0  0  0  0
  -31.4574  -12.3879   19.0853 H   0  0  0  0  0  0
  -30.3140  -11.2623   19.7516 H   0  0  0  0  0  0
  -29.7132  -11.8305   17.3855 H   0  0  0  0  0  0
  -29.6503  -13.5289   17.7877 H   0  0  0  0  0  0
  -27.8129  -11.3224   18.7841 H   0  0  0  0  0  0
  -27.3532  -12.6758   17.7846 H   0  0  0  0  0  0
  -27.7262  -14.2555   19.6107 H   0  0  0  0  0  0
  -28.6608  -11.8885   21.3005 H   0  0  0  0  0  0
  -28.4432  -13.5018   21.8872 H   0  0  0  0  0  0
  -25.2753   -9.5694   22.4748 H   0  0  0  0  0  0
  -24.0003   -7.4639   22.7473 H   0  0  0  0  0  0
  -21.0834   -8.8761   19.8949 H   0  0  0  0  0  0
  -22.3682  -10.9666   19.6156 H   0  0  0  0  0  0
  -21.2007   -7.6148   23.9722 H   0  0  0  0  0  0
  -21.1478   -6.0520   25.9078 H   0  0  0  0  0  0
  -22.0600   -2.7612   23.2845 H   0  0  0  0  0  0
  -22.4115  -11.9895   22.4767 H   0  0  0  0  0  0
  -21.1126  -13.1269   22.2603 H   0  0  0  0  0  0
  -24.6750  -15.8490   20.5218 H   0  0  0  0  0  0
  -26.2980  -15.6224   20.1068 H   0  0  0  0  0  0
  -26.7080  -32.5584   23.1179 H   0  0  0  0  0  0
  -25.0015  -33.9816   25.0482 H   0  0  0  0  0  0
  -22.6845  -31.3088   21.4169 H   0  0  0  0  0  0
  -23.3738  -35.9672   23.3318 H   0  0  0  0  0  0
  -24.3571  -36.8937   22.2053 H   0  0  0  0  0  0
  -23.7228  -37.6549   23.6640 H   0  0  0  0  0  0
  -26.0296  -31.6095   20.5943 H   0  0  0  0  0  0
  -26.8106  -30.9016   21.9807 H   0  0  0  0  0  0
  -28.0952  -29.1316   21.1733 H   0  0  0  0  0  0
  -26.0964  -26.0069   18.9823 H   0  0  0  0  0  0
  -23.9845  -27.3031   19.0225 H   0  0  0  0  0  0
  -23.7021  -30.5980   19.4054 H   0  0  0  0  0  0
  -22.7303  -29.2381   19.8795 H   0  0  0  0  0  0
  -25.1269  -36.2022   25.0843 H   0  0  0  0  0  0
  -20.9970  -28.3180   24.1461 H   0  0  0  0  0  0
  -20.5648  -26.2242   23.3599 H   0  0  0  0  0  0
  -21.6626  -26.7418   22.1215 H   0  0  0  0  0  0
  -19.6890  -25.6290   21.1235 H   0  0  0  0  0  0
  -19.6682  -27.3202   20.6764 H   0  0  0  0  0  0
  -17.4182  -26.6698   21.4033 H   0  0  0  0  0  0
  -18.0303  -26.0055   22.9016 H   0  0  0  0  0  0
  -19.7919  -30.7252   24.2298 H   0  0  0  0  0  0
  -17.5003  -31.6270   24.5153 H   0  0  0  0  0  0
  -15.5343  -30.2996   23.7638 H   0  0  0  0  0  0
  -15.8669  -28.0837   22.7053 H   0  0  0  0  0  0
  -24.6028  -30.6875   25.7809 H   0  0  0  0  0  0
  -24.8830  -32.2769   26.4818 H   0  0  0  0  0  0
  -25.8155  -30.8930   27.0248 H   0  0  0  0  0  0
  -26.2935  -29.6856   24.1008 H   0  0  0  0  0  0
  -27.4079  -29.7253   25.4483 H   0  0  0  0  0  0
  -27.8773  -30.4450   23.9253 H   0  0  0  0  0  0
  -27.2540  -33.3481   26.2322 H   0  0  0  0  0  0
  -28.3658  -32.7228   25.0231 H   0  0  0  0  0  0
  -28.0928  -31.8375   26.5169 H   0  0  0  0  0  0
  -28.2605  -38.0110   24.7503 H   0  0  0  0  0  0
  -28.1066  -36.2644   24.6291 H   0  0  0  0  0  0
  -27.2308  -37.1481   25.8871 H   0  0  0  0  0  0
  -20.9262  -29.8750   21.7009 H   0  0  0  0  0  0
  -26.0203  -38.2901   24.1403 H   0  0  0  0  0  0
  -33.3734  -18.3437   22.9182 H   0  0  0  0  0  0
  -33.0251  -16.0634   21.8698 H   0  0  0  0  0  0
  -27.6272  -21.3935   22.3759 H   0  0  0  0  0  0
  -27.9613  -22.5639   23.6387 H   0  0  0  0  0  0
  -28.6398  -20.9554   23.7299 H   0  0  0  0  0  0
  -26.8853  -24.4904   20.7677 H   0  0  0  0  0  0
  -26.5981  -25.7207   22.0003 H   0  0  0  0  0  0
  -27.5793  -24.3348   22.3706 H   0  0  0  0  0  0
  -32.7623  -23.7393   22.4636 H   0  0  0  0  0  0
  -31.6511  -23.6300   21.0928 H   0  0  0  0  0  0
  -32.3949  -22.1988   21.7131 H   0  0  0  0  0  0
  -31.2633  -25.4935   21.9185 H   0  0  0  0  0  0
  -31.1671  -26.2747   23.4548 H   0  0  0  0  0  0
  -31.9865  -22.6995   24.8052 H   0  0  0  0  0  0
  -30.4195  -21.9864   24.9591 H   0  0  0  0  0  0
  -29.2775  -22.8790   21.4277 H   0  0  0  0  0  0
  -30.0388  -21.3640   21.7133 H   0  0  0  0  0  0
  -29.7449  -27.4322   21.9407 H   0  0  0  0  0  0
  -28.6999  -26.6842   23.1046 H   0  0  0  0  0  0
  -29.2712  -25.0576   20.6621 H   0  0  0  0  0  0
  -30.0288  -19.9525   23.9965 H   0  0  0  0  0  0
  -29.4470  -14.8017   22.1212 H   0  0  0  0  0  0
  1 25  1  0  0  0
  1 30  2  0  0  0
  1 87  1  0  0  0
  2  3  1  0  0  0
  2 25  1  0  0  0
  2 91  1  0  0  0
  2 92  1  0  0  0
  3  4  1  0  0  0
  3 93  1  0  0  0
  3 94  1  0  0  0
  4  5  1  0  0  0
  4 95  1  0  0  0
  4 96  1  0  0  0
  5  6  1  0  0  0
  5 26  1  0  0  0
  5 97  1  0  0  0
  6 25  1  0  0  0
  6 98  1  0  0  0
  6 99  1  0  0  0
  7  8  2  0  0  0
  7 26  1  0  0  0
  7 29  1  0  0  0
  8  9  1  0  0  0
  8 22  1  0  0  0
  9 10  1  0  0  0
  9 27  2  0  0  0
 10 11  2  0  0  0
 10 15  1  0  0  0
 11 12  1  0  0  0
 11100  1  0  0  0
 12 13  2  0  0  0
 12101  1  0  0  0
 13 14  1  0  0  0
 13 31  1  0  0  0
 14 15  2  0  0  0
 14102  1  0  0  0
 15103  1  0  0  0
 16 17  2  0  0  0
 16 21  1  0  0  0
 16 31  1  0  0  0
 17 18  1  0  0  0
 17104  1  0  0  0
 18 19  2  0  0  0
 18105  1  0  0  0
 19 20  1  0  0  0
 19 24  1  0  0  0
 20 21  2  0  0  0
 20106  1  0  0  0
 21 23  1  0  0  0
 22 28  1  0  0  0
 22 32  2  0  0  0
 26 27  1  0  0  0
 28107  1  0  0  0
 28108  1  0  0  0
 29109  1  0  0  0
 29110  1  0  0  0
 33 34  1  0  0  0
 33 66  1  0  0  0
 33 70  2  0  0  0
 34 36  1  0  0  0
 34 59  1  0  0  0
 34111  1  0  0  0
 35 44  2  0  0  0
 35 45  1  0  0  0
 35 68  1  0  0  0
 36 56  1  0  0  0
 36112  1  0  0  0
 37 39  1  0  0  0
 37 47  1  0  0  0
 37 66  1  0  0  0
 37113  1  0  0  0
 38 43  2  0  0  0
 38 46  1  0  0  0
 38 47  1  0  0  0
 39 64  1  0  0  0
 39 67  2  0  0  0
 40 52  1  0  0  0
 40 53  2  0  0  0
 40 58  1  0  0  0
 41114  1  0  0  0
 41115  1  0  0  0
 41116  1  0  0  0
 41 48  1  0  0  0
 42 43  1  0  0  0
 42 66  1  0  0  0
 42117  1  0  0  0
 42118  1  0  0  0
 43 44  1  0  0  0
 44119  1  0  0  0
 45 46  2  0  0  0
 45120  1  0  0  0
 46121  1  0  0  0
 47122  1  0  0  0
 47123  1  0  0  0
 48 56  1  0  0  0
 48 65  1  0  0  0
 48124  1  0  0  0
 49 50  1  0  0  0
 49 53  1  0  0  0
 49 64  1  0  0  0
 49125  1  0  0  0
 50 51  1  0  0  0
 50126  1  0  0  0
 50127  1  0  0  0
 51 52  1  0  0  0
 51128  1  0  0  0
 51129  1  0  0  0
 52130  1  0  0  0
 52131  1  0  0  0
 53 54  1  0  0  0
 54 55  2  0  0  0
 54132  1  0  0  0
 55 57  1  0  0  0
 55133  1  0  0  0
 56 69  2  0  0  0
 57 58  2  0  0  0
 57134  1  0  0  0
 58135  1  0  0  0
 59 60  1  0  0  0
 59 61  1  0  0  0
 59 62  1  0  0  0
 60136  1  0  0  0
 60137  1  0  0  0
 60138  1  0  0  0
 61139  1  0  0  0
 61140  1  0  0  0
 61141  1  0  0  0
 62142  1  0  0  0
 62143  1  0  0  0
 62144  1  0  0  0
 63 65  1  0  0  0
 63145  1  0  0  0
 63146  1  0  0  0
 63147  1  0  0  0
 64148  1  0  0  0
 65149  1  0  0  0
 68 84  1  0  0  0
 71 72  1  0  0  0
 71 73  2  0  0  0
 71150  1  0  0  0
 72 74  2  0  0  0
 72151  1  0  0  0
 73 86  1  0  0  0
 73 90  1  0  0  0
 74 87  1  0  0  0
 74 90  1  0  0  0
 75 80  1  0  0  0
 75 88  2  0  0  0
 75 85  1  0  0  0
 76 81  1  0  0  0
 76 86  1  0  0  0
 76 89  2  0  0  0
 77 82  1  0  0  0
 77152  1  0  0  0
 77153  1  0  0  0
 77154  1  0  0  0
 78155  1  0  0  0
 78156  1  0  0  0
 78157  1  0  0  0
 78 84  1  0  0  0
 79158  1  0  0  0
 79159  1  0  0  0
 79160  1  0  0  0
 79 85  1  0  0  0
 80 83  1  0  0  0
 80161  1  0  0  0
 80162  1  0  0  0
 81 85  1  0  0  0
 81163  1  0  0  0
 81164  1  0  0  0
 82 85  1  0  0  0
 82165  1  0  0  0
 82166  1  0  0  0
 83 84  1  0  0  0
 83167  1  0  0  0
 83168  1  0  0  0
 84169  1  0  0  0
 86170  1  0  0  0
 87171  1  0  0  0
M  ISO  4   1 100  68 101  84 101  87 100
M  END
> <chiral flag>
0

> <version>
0

> <s_m_source_file>
/data/baiqing/PycharmProjects/Reinvent-master-3.2/result/LINK_invent/BTK/process_docking_weight1_custom_product_contain_oxygen_bond_distance_aromatic_linkinvent_7_9_3/rearranged_h_0144.sdf

> <i_m_source_file_index>
11

> <r_mmod_Potential_Energy-OPLS-2005>
-108.726165771484

> <r_mmod_Stretch_Energy-OPLS-2005>
37.6484756469727

> <r_mmod_Bend_Energy-OPLS-2005>
119.809829711914

> <r_mmod_Torsional_Energy-OPLS-2005>
254.757339477539

> <r_mmod_Improper_Torsional_Energy-OPLS-2005>
2.21716260910034

> <r_mmod_Van_der_Waal_Energy-OPLS-2005>
147.595306396484

> <r_mmod_Electrostatic_Energy-OPLS-2005>
-450.515472412109

> <r_mmod_Solvation_Energy-OPLS-2005>
-226.678131103516

> <b_mmod_Minimization_Converged-OPLS-2005>
0

> <r_mmod_RMS_Derivative-OPLS-2005>
1.08127272129059

$$$$
11
                    3D
 Structure written by MMmdl.
160168  0  0  1  0            999 V2000
  -30.6987  -14.4456   20.5729 C   0  0  0  0  0  0
  -30.4185  -12.2897   19.4231 C   0  0  0  0  0  0
  -29.4972  -12.5218   18.2080 C   0  0  0  0  0  0
  -28.0131  -12.3876   18.6076 C   0  0  0  0  0  0
  -27.6624  -13.2045   19.8815 C   0  0  2  0  0  0
  -28.7018  -12.9617   21.0003 C   0  0  0  0  0  0
  -25.2579  -13.8150   20.5664 C   0  0  0  0  0  0
  -24.1823  -13.0431   20.9160 C   0  0  0  0  0  0
  -24.6363  -11.6892   20.8690 C   0  0  0  0  0  0
  -23.9033  -10.4284   21.0374 C   0  0  0  0  0  0
  -24.3594   -9.4207   21.9150 C   0  0  0  0  0  0
  -23.6290   -8.2232   22.0731 C   0  0  0  0  0  0
  -22.4277   -8.0260   21.3528 C   0  0  0  0  0  0
  -21.9892   -9.0235   20.4642 C   0  0  0  0  0  0
  -22.7199  -10.2123   20.3035 C   0  0  0  0  0  0
  -21.6871   -6.0729   22.5283 C   0  0  0  0  0  0
  -21.4011   -6.5632   23.8214 C   0  0  0  0  0  0
  -21.3662   -5.6783   24.9170 C   0  0  0  0  0  0
  -21.6055   -4.3052   24.7230 C   0  0  0  0  0  0
  -21.8813   -3.8136   23.4348 C   0  0  0  0  0  0
  -21.9192   -4.6949   22.3405 C   0  0  0  0  0  0
  -22.7851  -13.5231   21.1849 C   0  0  0  0  0  0
  -22.1661   -4.2121   21.0992 F   0  0  0  0  0  0
  -21.5639   -3.4542   25.7745 F   0  0  0  0  0  0
  -30.0391  -13.2621   20.4586 N   0  0  0  0  0  0
  -26.3015  -12.9312   20.3371 N   0  0  0  0  0  0
  -25.9291  -11.6468   20.5733 N   0  0  0  0  0  0
  -22.0504  -12.8222   22.0410 N   0  0  0  0  0  0
  -25.4346  -15.1865   20.4102 N   0  0  0  0  0  0
  -31.8227  -14.6451   20.0978 O   0  0  0  0  0  0
  -21.6642   -6.8859   21.4243 O   0  0  0  0  0  0
  -22.3528  -14.5547   20.6716 O   0  0  0  0  0  0
  -24.6127  -31.8689   23.2113 C   0  0  0  0  0  0
  -25.9032  -32.4825   23.8404 C   0  0  1  0  0  0
  -27.2368  -27.4498   20.0944 C   0  0  0  0  0  0
  -25.5890  -33.8621   24.2334 N   0  0  0  0  0  0
  -23.3983  -30.4947   21.5512 C   0  0  2  0  0  0
  -24.8443  -28.9597   20.1177 C   0  0  0  0  0  0
  -22.7392  -29.4677   22.4993 C   0  0  0  0  0  0
  -18.0266  -28.1370   22.8489 C   0  0  0  0  0  0
  -24.1479  -36.7313   23.2639 C   0  0  0  0  0  0
  -25.9259  -30.8407   21.3607 C   0  0  0  0  0  0
  -26.0042  -29.4767   20.7069 C   0  0  0  0  0  0
  -27.2030  -28.7314   20.6876 C   0  0  0  0  0  0
  -26.0548  -26.9395   19.5073 C   0  0  0  0  0  0
  -24.8638  -27.6894   19.5162 C   0  0  0  0  0  0
  -23.6062  -29.8260   20.1656 C   0  0  0  0  0  0
  -25.4097  -36.3112   24.0344 C   0  0  1  0  0  0
  -20.5852  -28.3657   23.1318 C   0  0  2  0  0  0
  -20.6753  -26.9397   22.5415 C   0  0  0  0  0  0
  -19.5734  -26.6380   21.5203 C   0  0  0  0  0  0
  -18.1915  -26.7916   22.1621 C   0  0  0  0  0  0
  -19.1518  -28.8829   23.2899 C   0  0  0  0  0  0
  -18.9449  -30.1440   23.8906 C   0  0  0  0  0  0
  -17.6453  -30.6583   24.0561 C   0  0  0  0  0  0
  -25.9030  -34.9478   23.5139 C   0  0  0  0  0  0
  -16.5346  -29.9088   23.6330 C   0  0  0  0  0  0
  -16.7253  -28.6504   23.0351 C   0  0  0  0  0  0
  -26.4471  -31.6602   25.0727 C   0  0  0  0  0  0
  -25.3755  -31.3705   26.1491 C   0  0  0  0  0  0
  -27.0304  -30.3047   24.6097 C   0  0  0  0  0  0
  -27.6051  -32.4319   25.7481 C   0  0  0  0  0  0
  -27.5580  -37.1802   24.8461 C   0  0  0  0  0  0
  -21.4123  -29.3030   22.3728 N   0  0  0  0  0  0
  -26.4276  -37.3801   23.9427 N   0  0  0  0  0  0
  -24.6637  -31.0818   22.0994 N   0  0  0  0  0  0
  -23.4180  -28.8216   23.3024 O   0  0  0  0  0  0
  -28.4220  -26.7468   20.0933 O   0  0  0  0  0  0
  -26.5592  -34.8928   22.4704 O   0  0  0  0  0  0
  -23.5327  -32.1430   23.7528 O   0  0  0  0  0  0
  -30.2552  -17.9230   21.1143 C   0  0  0  0  0  0
  -29.3793  -16.7906   19.1360 C   0  0  0  0  0  0
  -29.6740  -19.2081   19.1245 C   0  0  0  0  0  0
  -29.8863  -16.7240   20.4534 C   0  0  0  0  0  0
  -30.1688  -19.1750   20.4509 C   0  0  0  0  0  0
  -29.2803  -18.0249   18.4744 C   0  0  0  0  0  0
  -29.7057  -24.6986   20.3677 C   0  0  0  0  0  0
  -32.4043  -21.2281   19.7116 C   0  0  0  0  0  0
  -29.8459  -23.5723   21.4064 C   0  0  0  0  0  0
  -28.3161  -25.3225   20.1892 C   0  0  0  0  0  0
  -31.1518  -22.7457   21.3170 C   0  0  0  0  0  0
  -31.0516  -21.5216   20.3827 C   0  0  2  0  0  0
  -29.9863  -15.4559   21.0986 N   0  0  0  0  0  0
  -30.5712  -20.3486   21.1218 N   0  0  0  0  0  0
  -30.6704  -25.0979   19.7062 O   0  0  0  0  0  0
  -28.8065  -18.0750   17.2054 F   0  0  0  0  0  0
  -31.4661  -12.3795   19.1287 H   0  0  0  0  0  0
  -30.3043  -11.2721   19.7991 H   0  0  0  0  0  0
  -29.7366  -11.8151   17.4129 H   0  0  0  0  0  0
  -29.6784  -13.5166   17.7968 H   0  0  0  0  0  0
  -27.8063  -11.3293   18.7722 H   0  0  0  0  0  0
  -27.3720  -12.6957   17.7805 H   0  0  0  0  0  0
  -27.7102  -14.2579   19.6053 H   0  0  0  0  0  0
  -28.6643  -11.9200   21.3232 H   0  0  0  0  0  0
  -28.4679  -13.5492   21.8888 H   0  0  0  0  0  0
  -25.2734   -9.5715   22.4723 H   0  0  0  0  0  0
  -24.0020   -7.4630   22.7443 H   0  0  0  0  0  0
  -21.0826   -8.8740   19.8961 H   0  0  0  0  0  0
  -22.3633  -10.9651   19.6145 H   0  0  0  0  0  0
  -21.1990   -7.6146   23.9706 H   0  0  0  0  0  0
  -21.1504   -6.0518   25.9077 H   0  0  0  0  0  0
  -22.0594   -2.7597   23.2861 H   0  0  0  0  0  0
  -22.4134  -11.9901   22.4823 H   0  0  0  0  0  0
  -21.1119  -13.1233   22.2628 H   0  0  0  0  0  0
  -24.6763  -15.8497   20.5272 H   0  0  0  0  0  0
  -26.2976  -15.6243   20.1148 H   0  0  0  0  0  0
  -26.7104  -32.5541   23.1169 H   0  0  0  0  0  0
  -25.0040  -33.9783   25.0479 H   0  0  0  0  0  0
  -22.6860  -31.3106   21.4129 H   0  0  0  0  0  0
  -23.3735  -35.9652   23.3311 H   0  0  0  0  0  0
  -24.3576  -36.8913   22.2051 H   0  0  0  0  0  0
  -23.7231  -37.6525   23.6639 H   0  0  0  0  0  0
  -26.0387  -31.6096   20.5950 H   0  0  0  0  0  0
  -26.8135  -30.8911   21.9795 H   0  0  0  0  0  0
  -28.1009  -29.1317   21.1373 H   0  0  0  0  0  0
  -26.0363  -25.9721   19.0273 H   0  0  0  0  0  0
  -23.9702  -27.2860   19.0614 H   0  0  0  0  0  0
  -23.7147  -30.6005   19.4046 H   0  0  0  0  0  0
  -22.7289  -29.2470   19.8703 H   0  0  0  0  0  0
  -25.1266  -36.1976   25.0832 H   0  0  0  0  0  0
  -20.9948  -28.3221   24.1434 H   0  0  0  0  0  0
  -20.5640  -26.2270   23.3600 H   0  0  0  0  0  0
  -21.6629  -26.7430   22.1222 H   0  0  0  0  0  0
  -19.6899  -25.6293   21.1225 H   0  0  0  0  0  0
  -19.6675  -27.3196   20.6738 H   0  0  0  0  0  0
  -17.4183  -26.6655   21.4028 H   0  0  0  0  0  0
  -18.0330  -26.0057   22.9019 H   0  0  0  0  0  0
  -19.7934  -30.7243   24.2283 H   0  0  0  0  0  0
  -17.5022  -31.6269   24.5157 H   0  0  0  0  0  0
  -15.5351  -30.2995   23.7652 H   0  0  0  0  0  0
  -15.8651  -28.0825   22.7064 H   0  0  0  0  0  0
  -24.5908  -30.7065   25.7845 H   0  0  0  0  0  0
  -24.8967  -32.2861   26.4973 H   0  0  0  0  0  0
  -25.8126  -30.8856   27.0231 H   0  0  0  0  0  0
  -26.2850  -29.6800   24.1156 H   0  0  0  0  0  0
  -27.4091  -29.7285   25.4553 H   0  0  0  0  0  0
  -27.8678  -30.4371   23.9237 H   0  0  0  0  0  0
  -27.2667  -33.3595   26.2111 H   0  0  0  0  0  0
  -28.3830  -32.6921   25.0290 H   0  0  0  0  0  0
  -28.0759  -31.8417   26.5353 H   0  0  0  0  0  0
  -28.2584  -38.0113   24.7541 H   0  0  0  0  0  0
  -28.1084  -36.2651   24.6231 H   0  0  0  0  0  0
  -27.2313  -37.1392   25.8865 H   0  0  0  0  0  0
  -20.9273  -29.8770   21.6969 H   0  0  0  0  0  0
  -26.0166  -38.2871   24.1456 H   0  0  0  0  0  0
  -30.6243  -17.8729   22.1292 H   0  0  0  0  0  0
  -29.0683  -15.8977   18.6148 H   0  0  0  0  0  0
  -29.5782  -20.1322   18.5772 H   0  0  0  0  0  0
  -32.7445  -22.0895   19.1353 H   0  0  0  0  0  0
  -32.3456  -20.3890   19.0173 H   0  0  0  0  0  0
  -33.1799  -20.9990   20.4424 H   0  0  0  0  0  0
  -28.9798  -22.9130   21.3502 H   0  0  0  0  0  0
  -29.8024  -24.0496   22.3855 H   0  0  0  0  0  0
  -27.6779  -25.0449   21.0286 H   0  0  0  0  0  0
  -27.8783  -24.9089   19.2810 H   0  0  0  0  0  0
  -31.4491  -22.4319   22.3180 H   0  0  0  0  0  0
  -31.9690  -23.3925   20.9945 H   0  0  0  0  0  0
  -30.3436  -21.7825   19.5959 H   0  0  0  0  0  0
  -29.1623  -15.1588   21.6004 H   0  0  0  0  0  0
  -30.9505  -20.2314   22.0593 H   0  0  0  0  0  0
  1 25  1  0  0  0
  1 30  2  0  0  0
  1 83  1  0  0  0
  2  3  1  0  0  0
  2 25  1  0  0  0
  2 87  1  0  0  0
  2 88  1  0  0  0
  3  4  1  0  0  0
  3 89  1  0  0  0
  3 90  1  0  0  0
  4  5  1  0  0  0
  4 91  1  0  0  0
  4 92  1  0  0  0
  5  6  1  0  0  0
  5 26  1  0  0  0
  5 93  1  0  0  0
  6 25  1  0  0  0
  6 94  1  0  0  0
  6 95  1  0  0  0
  7  8  2  0  0  0
  7 26  1  0  0  0
  7 29  1  0  0  0
  8  9  1  0  0  0
  8 22  1  0  0  0
  9 10  1  0  0  0
  9 27  2  0  0  0
 10 11  2  0  0  0
 10 15  1  0  0  0
 11 12  1  0  0  0
 11 96  1  0  0  0
 12 13  2  0  0  0
 12 97  1  0  0  0
 13 14  1  0  0  0
 13 31  1  0  0  0
 14 15  2  0  0  0
 14 98  1  0  0  0
 15 99  1  0  0  0
 16 17  2  0  0  0
 16 21  1  0  0  0
 16 31  1  0  0  0
 17 18  1  0  0  0
 17100  1  0  0  0
 18 19  2  0  0  0
 18101  1  0  0  0
 19 20  1  0  0  0
 19 24  1  0  0  0
 20 21  2  0  0  0
 20102  1  0  0  0
 21 23  1  0  0  0
 22 28  1  0  0  0
 22 32  2  0  0  0
 26 27  1  0  0  0
 28103  1  0  0  0
 28104  1  0  0  0
 29105  1  0  0  0
 29106  1  0  0  0
 33 34  1  0  0  0
 33 66  1  0  0  0
 33 70  2  0  0  0
 34 36  1  0  0  0
 34 59  1  0  0  0
 34107  1  0  0  0
 35 44  2  0  0  0
 35 45  1  0  0  0
 35 68  1  0  0  0
 36 56  1  0  0  0
 36108  1  0  0  0
 37 39  1  0  0  0
 37 47  1  0  0  0
 37 66  1  0  0  0
 37109  1  0  0  0
 38 43  2  0  0  0
 38 46  1  0  0  0
 38 47  1  0  0  0
 39 64  1  0  0  0
 39 67  2  0  0  0
 40 52  1  0  0  0
 40 53  2  0  0  0
 40 58  1  0  0  0
 41110  1  0  0  0
 41111  1  0  0  0
 41112  1  0  0  0
 41 48  1  0  0  0
 42 43  1  0  0  0
 42 66  1  0  0  0
 42113  1  0  0  0
 42114  1  0  0  0
 43 44  1  0  0  0
 44115  1  0  0  0
 45 46  2  0  0  0
 45116  1  0  0  0
 46117  1  0  0  0
 47118  1  0  0  0
 47119  1  0  0  0
 48 56  1  0  0  0
 48 65  1  0  0  0
 48120  1  0  0  0
 49 50  1  0  0  0
 49 53  1  0  0  0
 49 64  1  0  0  0
 49121  1  0  0  0
 50 51  1  0  0  0
 50122  1  0  0  0
 50123  1  0  0  0
 51 52  1  0  0  0
 51124  1  0  0  0
 51125  1  0  0  0
 52126  1  0  0  0
 52127  1  0  0  0
 53 54  1  0  0  0
 54 55  2  0  0  0
 54128  1  0  0  0
 55 57  1  0  0  0
 55129  1  0  0  0
 56 69  2  0  0  0
 57 58  2  0  0  0
 57130  1  0  0  0
 58131  1  0  0  0
 59 60  1  0  0  0
 59 61  1  0  0  0
 59 62  1  0  0  0
 60132  1  0  0  0
 60133  1  0  0  0
 60134  1  0  0  0
 61135  1  0  0  0
 61136  1  0  0  0
 61137  1  0  0  0
 62138  1  0  0  0
 62139  1  0  0  0
 62140  1  0  0  0
 63 65  1  0  0  0
 63141  1  0  0  0
 63142  1  0  0  0
 63143  1  0  0  0
 64144  1  0  0  0
 65145  1  0  0  0
 68 80  1  0  0  0
 71 74  2  0  0  0
 71 75  1  0  0  0
 71146  1  0  0  0
 72 74  1  0  0  0
 72 76  2  0  0  0
 72147  1  0  0  0
 73 75  2  0  0  0
 73 76  1  0  0  0
 73148  1  0  0  0
 74 83  1  0  0  0
 75 84  1  0  0  0
 76 86  1  0  0  0
 77 79  1  0  0  0
 77 80  1  0  0  0
 77 85  2  0  0  0
 78149  1  0  0  0
 78150  1  0  0  0
 78151  1  0  0  0
 78 82  1  0  0  0
 79 81  1  0  0  0
 79152  1  0  0  0
 79153  1  0  0  0
 80154  1  0  0  0
 80155  1  0  0  0
 81 82  1  0  0  0
 81156  1  0  0  0
 81157  1  0  0  0
 82 84  1  0  0  0
 82158  1  0  0  0
 83159  1  0  0  0
 84160  1  0  0  0
M  ISO  4   1 100  68 101  80 101  83 100
M  END
> <chiral flag>
0

> <version>
0

> <s_m_source_file>
/data/baiqing/PycharmProjects/Reinvent-master-3.2/result/LINK_invent/BTK/process_docking_weight1_custom_product_contain_oxygen_bond_distance_aromatic_linkinvent_7_9_3/rearranged_h_0144.sdf

> <i_m_source_file_index>
12

> <r_mmod_Potential_Energy-OPLS-2005>
-16.1514682769775

> <r_mmod_Stretch_Energy-OPLS-2005>
35.8970680236816

> <r_mmod_Bend_Energy-OPLS-2005>
98.7393341064453

> <r_mmod_Torsional_Energy-OPLS-2005>
253.57112121582

> <r_mmod_Improper_Torsional_Energy-OPLS-2005>
8.22854995727539

> <r_mmod_Van_der_Waal_Energy-OPLS-2005>
152.649536132812

> <r_mmod_Electrostatic_Energy-OPLS-2005>
-342.327850341797

> <r_mmod_Solvation_Energy-OPLS-2005>
-233.294631958008

> <b_mmod_Minimization_Converged-OPLS-2005>
0

> <r_mmod_RMS_Derivative-OPLS-2005>
2.20265913009644

$$$$
12
                    3D
 Structure written by MMmdl.
187195  0  0  1  0            999 V2000
  -30.6473  -14.4347   20.5594 C   0  0  0  0  0  0
  -30.4171  -12.2795   19.3978 C   0  0  0  0  0  0
  -29.4933  -12.5309   18.1890 C   0  0  0  0  0  0
  -28.0029  -12.4215   18.5818 C   0  0  0  0  0  0
  -27.6556  -13.2002   19.8807 C   0  0  2  0  0  0
  -28.6965  -12.9102   20.9847 C   0  0  0  0  0  0
  -25.2558  -13.8152   20.5639 C   0  0  0  0  0  0
  -24.1823  -13.0405   20.9133 C   0  0  0  0  0  0
  -24.6379  -11.6875   20.8683 C   0  0  0  0  0  0
  -23.9054  -10.4261   21.0341 C   0  0  0  0  0  0
  -24.3631   -9.4201   21.9118 C   0  0  0  0  0  0
  -23.6300   -8.2255   22.0736 C   0  0  0  0  0  0
  -22.4272   -8.0275   21.3539 C   0  0  0  0  0  0
  -21.9901   -9.0235   20.4628 C   0  0  0  0  0  0
  -22.7224  -10.2101   20.2995 C   0  0  0  0  0  0
  -21.6896   -6.0728   22.5243 C   0  0  0  0  0  0
  -21.4026   -6.5636   23.8171 C   0  0  0  0  0  0
  -21.3669   -5.6786   24.9142 C   0  0  0  0  0  0
  -21.6045   -4.3056   24.7184 C   0  0  0  0  0  0
  -21.8845   -3.8142   23.4322 C   0  0  0  0  0  0
  -21.9218   -4.6955   22.3378 C   0  0  0  0  0  0
  -22.7847  -13.5168   21.1824 C   0  0  0  0  0  0
  -22.1658   -4.2169   21.0938 F   0  0  0  0  0  0
  -21.5643   -3.4504   25.7690 F   0  0  0  0  0  0
  -30.0246  -13.2340   20.4429 N   0  0  0  0  0  0
  -26.2966  -12.9319   20.3346 N   0  0  0  0  0  0
  -25.9290  -11.6505   20.5720 N   0  0  0  0  0  0
  -22.0511  -12.8163   22.0405 N   0  0  0  0  0  0
  -25.4219  -15.1888   20.4066 N   0  0  0  0  0  0
  -31.7805  -14.6619   20.1240 O   0  0  0  0  0  0
  -21.6691   -6.8843   21.4207 O   0  0  0  0  0  0
  -22.3479  -14.5433   20.6636 O   0  0  0  0  0  0
  -24.6084  -31.8702   23.2138 C   0  0  0  0  0  0
  -25.8986  -32.4848   23.8409 C   0  0  1  0  0  0
  -27.2474  -27.4879   20.0812 C   0  0  0  0  0  0
  -25.5862  -33.8656   24.2335 N   0  0  0  0  0  0
  -23.3972  -30.4900   21.5523 C   0  0  2  0  0  0
  -24.8434  -28.9506   20.1317 C   0  0  0  0  0  0
  -22.7372  -29.4644   22.5009 C   0  0  0  0  0  0
  -18.0272  -28.1324   22.8548 C   0  0  0  0  0  0
  -24.1479  -36.7330   23.2650 C   0  0  0  0  0  0
  -25.9160  -30.8453   21.3612 C   0  0  0  0  0  0
  -25.9960  -29.4732   20.7336 C   0  0  0  0  0  0
  -27.1971  -28.7391   20.7276 C   0  0  0  0  0  0
  -26.0773  -26.9460   19.5149 C   0  0  0  0  0  0
  -24.8739  -27.6787   19.5295 C   0  0  0  0  0  0
  -23.6044  -29.8166   20.1690 C   0  0  0  0  0  0
  -25.4104  -36.3132   24.0359 C   0  0  1  0  0  0
  -20.5846  -28.3592   23.1345 C   0  0  2  0  0  0
  -20.6740  -26.9325   22.5444 C   0  0  0  0  0  0
  -19.5745  -26.6349   21.5226 C   0  0  0  0  0  0
  -18.1920  -26.7876   22.1634 C   0  0  0  0  0  0
  -19.1512  -28.8792   23.2959 C   0  0  0  0  0  0
  -18.9428  -30.1394   23.8957 C   0  0  0  0  0  0
  -17.6430  -30.6554   24.0541 C   0  0  0  0  0  0
  -25.9022  -34.9503   23.5157 C   0  0  0  0  0  0
  -16.5325  -29.9068   23.6288 C   0  0  0  0  0  0
  -16.7252  -28.6470   23.0356 C   0  0  0  0  0  0
  -26.4475  -31.6577   25.0690 C   0  0  0  0  0  0
  -25.3778  -31.3590   26.1448 C   0  0  0  0  0  0
  -27.0288  -30.3045   24.5973 C   0  0  0  0  0  0
  -27.6054  -32.4261   25.7480 C   0  0  0  0  0  0
  -27.5581  -37.1823   24.8479 C   0  0  0  0  0  0
  -21.4101  -29.2987   22.3742 N   0  0  0  0  0  0
  -26.4277  -37.3812   23.9434 N   0  0  0  0  0  0
  -24.6576  -31.0825   22.1016 N   0  0  0  0  0  0
  -23.4168  -28.8163   23.3013 O   0  0  0  0  0  0
  -28.4431  -26.8492   19.8842 O   0  0  0  0  0  0
  -26.5585  -34.8972   22.4724 O   0  0  0  0  0  0
  -23.5293  -32.1414   23.7584 O   0  0  0  0  0  0
  -30.9654  -18.8810   21.7268 C   0  0  0  0  0  0
  -30.6695  -17.5141   21.8864 C   0  0  0  0  0  0
  -29.8843  -18.8461   19.5533 C   0  0  0  0  0  0
  -30.6186  -19.5413   20.5320 C   0  0  0  0  0  0
  -29.5981  -17.4710   19.6848 C   0  0  0  0  0  0
  -30.0436  -16.7923   20.8505 C   0  0  0  0  0  0
  -31.6171  -23.3275   18.3172 C   0  0  0  0  0  0
  -29.1811  -17.2443   17.1359 C   0  0  0  0  0  0
  -32.9878  -23.4853   20.4926 C   0  0  0  0  0  0
  -34.0262  -22.8368   18.3432 C   0  0  0  0  0  0
  -33.5430  -20.5248   20.4346 C   0  0  0  0  0  0
  -32.4448  -20.2260   18.2569 C   0  0  0  0  0  0
  -31.2062  -27.8512   17.4627 C   0  0  0  0  0  0
  -31.4355  -26.9789   19.7838 C   0  0  0  0  0  0
  -31.0589  -20.9789   20.2731 C   0  0  0  0  0  0
  -28.8290  -16.7707   18.5613 C   0  0  0  0  0  0
  -30.4243  -25.4786   17.9206 C   0  0  0  0  0  0
  -29.1618  -27.5105   18.8313 C   0  0  0  0  0  0
  -32.7348  -22.6598   19.1864 C   0  0  0  0  0  0
  -32.4349  -21.1259   19.5267 C   0  0  0  0  0  0
  -30.5544  -26.9209   18.5156 C   0  0  0  0  0  0
  -29.8412  -15.4018   21.0364 N   0  0  0  0  0  0
  -31.1215  -24.4898   18.7417 N   0  0  0  0  0  0
  -31.2617  -22.8433   17.2389 O   0  0  0  0  0  0
  -31.4607  -12.3940   19.1068 H   0  0  0  0  0  0
  -30.3090  -11.2537   19.7512 H   0  0  0  0  0  0
  -29.7177  -11.8252   17.3878 H   0  0  0  0  0  0
  -29.7012  -13.5243   17.7843 H   0  0  0  0  0  0
  -27.7601  -11.3638   18.6988 H   0  0  0  0  0  0
  -27.3825  -12.7870   17.7616 H   0  0  0  0  0  0
  -27.7000  -14.2605   19.6521 H   0  0  0  0  0  0
  -28.6639  -11.8533   21.2536 H   0  0  0  0  0  0
  -28.4658  -13.4466   21.9080 H   0  0  0  0  0  0
  -25.2790   -9.5733   22.4692 H   0  0  0  0  0  0
  -24.0073   -7.4674   22.7465 H   0  0  0  0  0  0
  -21.0839   -8.8690   19.8925 H   0  0  0  0  0  0
  -22.3637  -10.9638   19.6122 H   0  0  0  0  0  0
  -21.1983   -7.6136   23.9672 H   0  0  0  0  0  0
  -21.1473   -6.0506   25.9041 H   0  0  0  0  0  0
  -22.0620   -2.7607   23.2806 H   0  0  0  0  0  0
  -22.4167  -11.9856   22.4845 H   0  0  0  0  0  0
  -21.1083  -13.1050   22.2560 H   0  0  0  0  0  0
  -24.6379  -15.8245   20.4940 H   0  0  0  0  0  0
  -26.2634  -15.6504   20.0823 H   0  0  0  0  0  0
  -26.7061  -32.5586   23.1185 H   0  0  0  0  0  0
  -25.0014  -33.9800   25.0494 H   0  0  0  0  0  0
  -22.6884  -31.3077   21.4140 H   0  0  0  0  0  0
  -23.3756  -35.9631   23.3300 H   0  0  0  0  0  0
  -24.3579  -36.8941   22.2053 H   0  0  0  0  0  0
  -23.7186  -37.6549   23.6642 H   0  0  0  0  0  0
  -26.0049  -31.5986   20.5758 H   0  0  0  0  0  0
  -26.8130  -30.9170   21.9646 H   0  0  0  0  0  0
  -28.0991  -29.1550   21.1570 H   0  0  0  0  0  0
  -26.1083  -25.9917   19.0085 H   0  0  0  0  0  0
  -23.9870  -27.2635   19.0712 H   0  0  0  0  0  0
  -23.7205  -30.5922   19.4099 H   0  0  0  0  0  0
  -22.7256  -29.2382   19.8749 H   0  0  0  0  0  0
  -25.1261  -36.2007   25.0836 H   0  0  0  0  0  0
  -20.9967  -28.3115   24.1454 H   0  0  0  0  0  0
  -20.5586  -26.2186   23.3611 H   0  0  0  0  0  0
  -21.6610  -26.7363   22.1239 H   0  0  0  0  0  0
  -19.6886  -25.6288   21.1200 H   0  0  0  0  0  0
  -19.6673  -27.3188   20.6784 H   0  0  0  0  0  0
  -17.4184  -26.6660   21.4018 H   0  0  0  0  0  0
  -18.0306  -25.9952   22.8968 H   0  0  0  0  0  0
  -19.7910  -30.7178   24.2339 H   0  0  0  0  0  0
  -17.5003  -31.6245   24.5110 H   0  0  0  0  0  0
  -15.5328  -30.2988   23.7580 H   0  0  0  0  0  0
  -15.8653  -28.0784   22.7064 H   0  0  0  0  0  0
  -24.6049  -30.6816   25.7807 H   0  0  0  0  0  0
  -24.8885  -32.2689   26.4926 H   0  0  0  0  0  0
  -25.8192  -30.8806   27.0198 H   0  0  0  0  0  0
  -26.2782  -29.6797   24.1136 H   0  0  0  0  0  0
  -27.4215  -29.7249   25.4330 H   0  0  0  0  0  0
  -27.8543  -30.4402   23.8986 H   0  0  0  0  0  0
  -27.2727  -33.3583   26.2074 H   0  0  0  0  0  0
  -28.3939  -32.6762   25.0358 H   0  0  0  0  0  0
  -28.0669  -31.8362   26.5412 H   0  0  0  0  0  0
  -28.2608  -38.0120   24.7556 H   0  0  0  0  0  0
  -28.1064  -36.2659   24.6259 H   0  0  0  0  0  0
  -27.2305  -37.1434   25.8883 H   0  0  0  0  0  0
  -20.9174  -29.8785   21.7083 H   0  0  0  0  0  0
  -26.0184  -38.2890   24.1454 H   0  0  0  0  0  0
  -31.4985  -19.4027   22.5079 H   0  0  0  0  0  0
  -30.9435  -17.0175   22.8052 H   0  0  0  0  0  0
  -29.5818  -19.3859   18.6692 H   0  0  0  0  0  0
  -28.7007  -16.6079   16.3904 H   0  0  0  0  0  0
  -30.2585  -17.2233   16.9681 H   0  0  0  0  0  0
  -28.8367  -18.2610   16.9467 H   0  0  0  0  0  0
  -33.2068  -24.5324   20.2860 H   0  0  0  0  0  0
  -33.8646  -23.1371   21.0313 H   0  0  0  0  0  0
  -32.1525  -23.4708   21.1944 H   0  0  0  0  0  0
  -34.2570  -23.8982   18.2424 H   0  0  0  0  0  0
  -33.9352  -22.4583   17.3259 H   0  0  0  0  0  0
  -34.8972  -22.3696   18.7974 H   0  0  0  0  0  0
  -33.3514  -19.4781   20.6684 H   0  0  0  0  0  0
  -33.6330  -21.0271   21.3933 H   0  0  0  0  0  0
  -34.5154  -20.5434   19.9461 H   0  0  0  0  0  0
  -32.4221  -19.1659   18.5127 H   0  0  0  0  0  0
  -33.3460  -20.3558   17.6604 H   0  0  0  0  0  0
  -31.5930  -20.3993   17.6017 H   0  0  0  0  0  0
  -32.2476  -27.5859   17.2742 H   0  0  0  0  0  0
  -31.2033  -28.8923   17.7889 H   0  0  0  0  0  0
  -30.6821  -27.8226   16.5056 H   0  0  0  0  0  0
  -32.4438  -26.6096   19.5881 H   0  0  0  0  0  0
  -31.0107  -26.3902   20.5985 H   0  0  0  0  0  0
  -31.5542  -27.9974   20.1477 H   0  0  0  0  0  0
  -31.0786  -21.5101   21.2240 H   0  0  0  0  0  0
  -30.2552  -21.4497   19.7043 H   0  0  0  0  0  0
  -27.7614  -16.9188   18.7348 H   0  0  0  0  0  0
  -28.9912  -15.6982   18.6011 H   0  0  0  0  0  0
  -30.8482  -25.4534   16.9113 H   0  0  0  0  0  0
  -29.3769  -25.1808   17.8007 H   0  0  0  0  0  0
  -28.5518  -27.5190   17.9222 H   0  0  0  0  0  0
  -29.3007  -28.5581   19.1086 H   0  0  0  0  0  0
  -28.9228  -15.1069   21.3224 H   0  0  0  0  0  0
  -31.4592  -24.8157   19.6379 H   0  0  0  0  0  0
  1 25  1  0  0  0
  1 30  2  0  0  0
  1 92  1  0  0  0
  2  3  1  0  0  0
  2 25  1  0  0  0
  2 95  1  0  0  0
  2 96  1  0  0  0
  3  4  1  0  0  0
  3 97  1  0  0  0
  3 98  1  0  0  0
  4  5  1  0  0  0
  4 99  1  0  0  0
  4100  1  0  0  0
  5  6  1  0  0  0
  5 26  1  0  0  0
  5101  1  0  0  0
  6 25  1  0  0  0
  6102  1  0  0  0
  6103  1  0  0  0
  7  8  2  0  0  0
  7 26  1  0  0  0
  7 29  1  0  0  0
  8  9  1  0  0  0
  8 22  1  0  0  0
  9 10  1  0  0  0
  9 27  2  0  0  0
 10 11  2  0  0  0
 10 15  1  0  0  0
 11 12  1  0  0  0
 11104  1  0  0  0
 12 13  2  0  0  0
 12105  1  0  0  0
 13 14  1  0  0  0
 13 31  1  0  0  0
 14 15  2  0  0  0
 14106  1  0  0  0
 15107  1  0  0  0
 16 17  2  0  0  0
 16 21  1  0  0  0
 16 31  1  0  0  0
 17 18  1  0  0  0
 17108  1  0  0  0
 18 19  2  0  0  0
 18109  1  0  0  0
 19 20  1  0  0  0
 19 24  1  0  0  0
 20 21  2  0  0  0
 20110  1  0  0  0
 21 23  1  0  0  0
 22 28  1  0  0  0
 22 32  2  0  0  0
 26 27  1  0  0  0
 28111  1  0  0  0
 28112  1  0  0  0
 29113  1  0  0  0
 29114  1  0  0  0
 33 34  1  0  0  0
 33 66  1  0  0  0
 33 70  2  0  0  0
 34 36  1  0  0  0
 34 59  1  0  0  0
 34115  1  0  0  0
 35 44  2  0  0  0
 35 45  1  0  0  0
 35 68  1  0  0  0
 36 56  1  0  0  0
 36116  1  0  0  0
 37 39  1  0  0  0
 37 47  1  0  0  0
 37 66  1  0  0  0
 37117  1  0  0  0
 38 43  2  0  0  0
 38 46  1  0  0  0
 38 47  1  0  0  0
 39 64  1  0  0  0
 39 67  2  0  0  0
 40 52  1  0  0  0
 40 53  2  0  0  0
 40 58  1  0  0  0
 41118  1  0  0  0
 41119  1  0  0  0
 41120  1  0  0  0
 41 48  1  0  0  0
 42 43  1  0  0  0
 42 66  1  0  0  0
 42121  1  0  0  0
 42122  1  0  0  0
 43 44  1  0  0  0
 44123  1  0  0  0
 45 46  2  0  0  0
 45124  1  0  0  0
 46125  1  0  0  0
 47126  1  0  0  0
 47127  1  0  0  0
 48 56  1  0  0  0
 48 65  1  0  0  0
 48128  1  0  0  0
 49 50  1  0  0  0
 49 53  1  0  0  0
 49 64  1  0  0  0
 49129  1  0  0  0
 50 51  1  0  0  0
 50130  1  0  0  0
 50131  1  0  0  0
 51 52  1  0  0  0
 51132  1  0  0  0
 51133  1  0  0  0
 52134  1  0  0  0
 52135  1  0  0  0
 53 54  1  0  0  0
 54 55  2  0  0  0
 54136  1  0  0  0
 55 57  1  0  0  0
 55137  1  0  0  0
 56 69  2  0  0  0
 57 58  2  0  0  0
 57138  1  0  0  0
 58139  1  0  0  0
 59 60  1  0  0  0
 59 61  1  0  0  0
 59 62  1  0  0  0
 60140  1  0  0  0
 60141  1  0  0  0
 60142  1  0  0  0
 61143  1  0  0  0
 61144  1  0  0  0
 61145  1  0  0  0
 62146  1  0  0  0
 62147  1  0  0  0
 62148  1  0  0  0
 63 65  1  0  0  0
 63149  1  0  0  0
 63150  1  0  0  0
 63151  1  0  0  0
 64152  1  0  0  0
 65153  1  0  0  0
 68 88  1  0  0  0
 71 72  2  0  0  0
 71 74  1  0  0  0
 71154  1  0  0  0
 72 76  1  0  0  0
 72155  1  0  0  0
 73 74  2  0  0  0
 73 75  1  0  0  0
 73156  1  0  0  0
 74 85  1  0  0  0
 75 76  2  0  0  0
 75 86  1  0  0  0
 76 92  1  0  0  0
 77 89  1  0  0  0
 77 93  1  0  0  0
 77 94  2  0  0  0
 78 86  1  0  0  0
 78157  1  0  0  0
 78158  1  0  0  0
 78159  1  0  0  0
 79160  1  0  0  0
 79161  1  0  0  0
 79162  1  0  0  0
 79 89  1  0  0  0
 80 89  1  0  0  0
 80163  1  0  0  0
 80164  1  0  0  0
 80165  1  0  0  0
 81166  1  0  0  0
 81167  1  0  0  0
 81168  1  0  0  0
 81 90  1  0  0  0
 82 90  1  0  0  0
 82169  1  0  0  0
 82170  1  0  0  0
 82171  1  0  0  0
 83172  1  0  0  0
 83173  1  0  0  0
 83174  1  0  0  0
 83 91  1  0  0  0
 84 91  1  0  0  0
 84175  1  0  0  0
 84176  1  0  0  0
 84177  1  0  0  0
 85 90  1  0  0  0
 85178  1  0  0  0
 85179  1  0  0  0
 86180  1  0  0  0
 86181  1  0  0  0
 87 91  1  0  0  0
 87 93  1  0  0  0
 87182  1  0  0  0
 87183  1  0  0  0
 88 91  1  0  0  0
 88184  1  0  0  0
 88185  1  0  0  0
 89 90  1  0  0  0
 92186  1  0  0  0
 93187  1  0  0  0
M  ISO  4   1 100  68 101  88 101  92 100
M  END
> <chiral flag>
0

> <version>
0

> <s_m_source_file>
/data/baiqing/PycharmProjects/Reinvent-master-3.2/result/LINK_invent/BTK/process_docking_weight1_custom_product_contain_oxygen_bond_distance_aromatic_linkinvent_7_9_3/rearranged_h_0144.sdf

> <i_m_source_file_index>
13

> <r_mmod_Potential_Energy-OPLS-2005>
21.9401226043701

> <r_mmod_Stretch_Energy-OPLS-2005>
48.3686714172363

> <r_mmod_Bend_Energy-OPLS-2005>
117.87174987793

> <r_mmod_Torsional_Energy-OPLS-2005>
320.637756347656

> <r_mmod_Improper_Torsional_Energy-OPLS-2005>
6.60045146942139

> <r_mmod_Van_der_Waal_Energy-OPLS-2005>
189.212356567383

> <r_mmod_Electrostatic_Energy-OPLS-2005>
-462.497528076172

> <r_mmod_Solvation_Energy-OPLS-2005>
-210.771484375

> <b_mmod_Minimization_Converged-OPLS-2005>
0

> <r_mmod_RMS_Derivative-OPLS-2005>
7.27030801773071

$$$$
13
                    3D
 Structure written by MMmdl.
174183  0  0  1  0            999 V2000
  -30.7243  -14.4416   20.5328 C   0  0  0  0  0  0
  -30.4179  -12.2774   19.4293 C   0  0  0  0  0  0
  -29.4979  -12.4909   18.2103 C   0  0  0  0  0  0
  -28.0153  -12.3663   18.6162 C   0  0  0  0  0  0
  -27.6626  -13.2091   19.8736 C   0  0  2  0  0  0
  -28.7034  -12.9983   20.9968 C   0  0  0  0  0  0
  -25.2589  -13.8165   20.5665 C   0  0  0  0  0  0
  -24.1849  -13.0428   20.9167 C   0  0  0  0  0  0
  -24.6412  -11.6903   20.8721 C   0  0  0  0  0  0
  -23.9093  -10.4278   21.0391 C   0  0  0  0  0  0
  -24.3638   -9.4198   21.9169 C   0  0  0  0  0  0
  -23.6299   -8.2248   22.0749 C   0  0  0  0  0  0
  -22.4281   -8.0285   21.3543 C   0  0  0  0  0  0
  -21.9934   -9.0255   20.4638 C   0  0  0  0  0  0
  -22.7268  -10.2127   20.3047 C   0  0  0  0  0  0
  -21.6860   -6.0752   22.5283 C   0  0  0  0  0  0
  -21.4017   -6.5649   23.8213 C   0  0  0  0  0  0
  -21.3657   -5.6798   24.9168 C   0  0  0  0  0  0
  -21.6049   -4.3064   24.7218 C   0  0  0  0  0  0
  -21.8825   -3.8163   23.4340 C   0  0  0  0  0  0
  -21.9191   -4.6985   22.3397 C   0  0  0  0  0  0
  -22.7874  -13.5219   21.1843 C   0  0  0  0  0  0
  -22.1656   -4.2181   21.0966 F   0  0  0  0  0  0
  -21.5628   -3.4546   25.7728 F   0  0  0  0  0  0
  -30.0406  -13.2709   20.4440 N   0  0  0  0  0  0
  -26.3039  -12.9335   20.3366 N   0  0  0  0  0  0
  -25.9339  -11.6487   20.5776 N   0  0  0  0  0  0
  -22.0525  -12.8187   22.0388 N   0  0  0  0  0  0
  -25.4272  -15.1888   20.4067 N   0  0  0  0  0  0
  -31.8778  -14.5743   20.1183 O   0  0  0  0  0  0
  -21.6627   -6.8896   21.4248 O   0  0  0  0  0  0
  -22.3553  -14.5533   20.6715 O   0  0  0  0  0  0
  -24.6083  -31.8713   23.2138 C   0  0  0  0  0  0
  -25.8999  -32.4849   23.8408 C   0  0  1  0  0  0
  -27.2417  -27.4758   20.0902 C   0  0  0  0  0  0
  -25.5871  -33.8646   24.2340 N   0  0  0  0  0  0
  -23.3945  -30.4929   21.5533 C   0  0  2  0  0  0
  -24.8432  -28.9630   20.1220 C   0  0  0  0  0  0
  -22.7364  -29.4670   22.5026 C   0  0  0  0  0  0
  -18.0262  -28.1367   22.8492 C   0  0  0  0  0  0
  -24.1478  -36.7327   23.2638 C   0  0  0  0  0  0
  -25.9165  -30.8521   21.3585 C   0  0  0  0  0  0
  -25.9996  -29.4871   20.7131 C   0  0  0  0  0  0
  -27.2008  -28.7495   20.7028 C   0  0  0  0  0  0
  -26.0620  -26.9489   19.5271 C   0  0  0  0  0  0
  -24.8649  -27.6882   19.5315 C   0  0  0  0  0  0
  -23.6024  -29.8224   20.1690 C   0  0  0  0  0  0
  -25.4109  -36.3135   24.0333 C   0  0  1  0  0  0
  -20.5837  -28.3633   23.1340 C   0  0  2  0  0  0
  -20.6747  -26.9377   22.5429 C   0  0  0  0  0  0
  -19.5742  -26.6375   21.5208 C   0  0  0  0  0  0
  -18.1914  -26.7923   22.1611 C   0  0  0  0  0  0
  -19.1503  -28.8820   23.2920 C   0  0  0  0  0  0
  -18.9443  -30.1428   23.8931 C   0  0  0  0  0  0
  -17.6446  -30.6591   24.0559 C   0  0  0  0  0  0
  -25.9029  -34.9495   23.5149 C   0  0  0  0  0  0
  -16.5333  -29.9087   23.6326 C   0  0  0  0  0  0
  -16.7254  -28.6497   23.0359 C   0  0  0  0  0  0
  -26.4450  -31.6610   25.0716 C   0  0  0  0  0  0
  -25.3733  -31.3681   26.1479 C   0  0  0  0  0  0
  -27.0263  -30.3066   24.6033 C   0  0  0  0  0  0
  -27.6021  -32.4318   25.7497 C   0  0  0  0  0  0
  -27.5601  -37.1811   24.8457 C   0  0  0  0  0  0
  -21.4090  -29.3014   22.3767 N   0  0  0  0  0  0
  -26.4302  -37.3816   23.9422 N   0  0  0  0  0  0
  -24.6580  -31.0830   22.1026 N   0  0  0  0  0  0
  -23.4150  -28.8224   23.3065 O   0  0  0  0  0  0
  -28.3735  -26.6995   20.0120 O   0  0  0  0  0  0
  -26.5611  -34.8936   22.4719 O   0  0  0  0  0  0
  -23.5284  -32.1454   23.7542 O   0  0  0  0  0  0
  -29.5234  -19.2149   20.8287 C   0  0  0  0  0  0
  -30.8875  -18.5644   18.9235 C   0  0  0  0  0  0
  -29.4797  -17.8662   21.2516 C   0  0  0  0  0  0
  -30.8392  -17.2218   19.3415 C   0  0  0  0  0  0
  -30.2355  -19.5742   19.6622 C   0  0  0  0  0  0
  -30.1399  -16.8529   20.5198 C   0  0  0  0  0  0
  -30.2955  -20.9554   19.1551 C   0  0  0  0  0  0
  -30.5817  -26.7306   18.9070 C   0  0  0  0  0  0
  -31.6576  -23.2796   21.6959 C   0  0  0  0  0  0
  -32.0590  -23.9488   20.3845 C   0  0  0  0  0  0
  -31.2073  -21.8811   21.2810 C   0  0  0  0  0  0
  -31.1267  -23.3381   19.3246 C   0  0  2  0  0  0
  -28.9271  -25.8180   17.1941 C   0  0  0  0  0  0
  -31.2916  -25.1970   17.0085 C   0  0  0  0  0  0
  -29.6256  -27.3699   19.9379 C   0  0  0  0  0  0
  -29.9036  -24.2200   18.9357 C   0  0  0  0  0  0
  -30.1762  -25.4886   18.0500 C   0  0  0  0  0  0
  -30.7497  -22.0106   19.8805 N   0  0  0  0  0  0
  -30.0092  -15.4970   20.9565 N   0  0  0  0  0  0
  -29.9268  -21.1522   17.8900 N   0  3  0  0  0  0
  -31.7002  -27.2343   18.7684 O   0  0  0  0  0  0
  -31.4656  -12.3548   19.1313 H   0  0  0  0  0  0
  -30.3004  -11.2709   19.8301 H   0  0  0  0  0  0
  -29.7344  -11.7655   17.4310 H   0  0  0  0  0  0
  -29.6816  -13.4753   17.7780 H   0  0  0  0  0  0
  -27.8117  -11.3116   18.8053 H   0  0  0  0  0  0
  -27.3751  -12.6571   17.7827 H   0  0  0  0  0  0
  -27.7045  -14.2562   19.5741 H   0  0  0  0  0  0
  -28.6607  -11.9705   21.3634 H   0  0  0  0  0  0
  -28.4779  -13.6273   21.8596 H   0  0  0  0  0  0
  -25.2793   -9.5675   22.4735 H   0  0  0  0  0  0
  -24.0024   -7.4640   22.7477 H   0  0  0  0  0  0
  -21.0890   -8.8777   19.8913 H   0  0  0  0  0  0
  -22.3749  -10.9672   19.6156 H   0  0  0  0  0  0
  -21.2001   -7.6151   23.9734 H   0  0  0  0  0  0
  -21.1475   -6.0514   25.9073 H   0  0  0  0  0  0
  -22.0605   -2.7629   23.2827 H   0  0  0  0  0  0
  -22.4148  -11.9817   22.4721 H   0  0  0  0  0  0
  -21.1150  -13.1181   22.2594 H   0  0  0  0  0  0
  -24.6587  -15.8408   20.5163 H   0  0  0  0  0  0
  -26.2749  -15.6338   20.0792 H   0  0  0  0  0  0
  -26.7077  -32.5572   23.1185 H   0  0  0  0  0  0
  -24.9979  -33.9803   25.0456 H   0  0  0  0  0  0
  -22.6842  -31.3098   21.4102 H   0  0  0  0  0  0
  -23.3757  -35.9638   23.3265 H   0  0  0  0  0  0
  -24.3586  -36.8990   22.2064 H   0  0  0  0  0  0
  -23.7190  -37.6504   23.6671 H   0  0  0  0  0  0
  -26.0085  -31.6139   20.5824 H   0  0  0  0  0  0
  -26.8128  -30.9188   21.9647 H   0  0  0  0  0  0
  -28.0840  -29.1621   21.1701 H   0  0  0  0  0  0
  -26.0725  -25.9676   19.0734 H   0  0  0  0  0  0
  -23.9697  -27.2706   19.0899 H   0  0  0  0  0  0
  -23.7053  -30.5942   19.4050 H   0  0  0  0  0  0
  -22.7297  -29.2355   19.8754 H   0  0  0  0  0  0
  -25.1285  -36.2016   25.0824 H   0  0  0  0  0  0
  -20.9923  -28.3188   24.1459 H   0  0  0  0  0  0
  -20.5631  -26.2236   23.3596 H   0  0  0  0  0  0
  -21.6624  -26.7423   22.1235 H   0  0  0  0  0  0
  -19.6896  -25.6291   21.1239 H   0  0  0  0  0  0
  -19.6710  -27.3194   20.6755 H   0  0  0  0  0  0
  -17.4186  -26.6682   21.4006 H   0  0  0  0  0  0
  -18.0316  -26.0053   22.8991 H   0  0  0  0  0  0
  -19.7911  -30.7229   24.2321 H   0  0  0  0  0  0
  -17.5001  -31.6288   24.5137 H   0  0  0  0  0  0
  -15.5332  -30.3003   23.7638 H   0  0  0  0  0  0
  -15.8654  -28.0831   22.7062 H   0  0  0  0  0  0
  -24.5894  -30.7044   25.7824 H   0  0  0  0  0  0
  -24.8937  -32.2814   26.5001 H   0  0  0  0  0  0
  -25.8099  -30.8799   27.0199 H   0  0  0  0  0  0
  -26.2781  -29.6861   24.1084 H   0  0  0  0  0  0
  -27.4063  -29.7268   25.4454 H   0  0  0  0  0  0
  -27.8603  -30.4422   23.9147 H   0  0  0  0  0  0
  -27.2635  -33.3590   26.2131 H   0  0  0  0  0  0
  -28.3822  -32.6918   25.0334 H   0  0  0  0  0  0
  -28.0696  -31.8403   26.5380 H   0  0  0  0  0  0
  -28.2577  -38.0153   24.7580 H   0  0  0  0  0  0
  -28.1138  -36.2684   24.6185 H   0  0  0  0  0  0
  -27.2315  -37.1375   25.8858 H   0  0  0  0  0  0
  -20.9236  -29.8744   21.7004 H   0  0  0  0  0  0
  -26.0191  -38.2878   24.1495 H   0  0  0  0  0  0
  -28.9874  -19.9648   21.3924 H   0  0  0  0  0  0
  -31.4339  -18.8177   18.0248 H   0  0  0  0  0  0
  -28.9227  -17.6151   22.1429 H   0  0  0  0  0  0
  -31.3358  -16.4902   18.7210 H   0  0  0  0  0  0
  -30.8385  -23.8157   22.1795 H   0  0  0  0  0  0
  -32.4920  -23.2419   22.3980 H   0  0  0  0  0  0
  -33.0943  -23.7146   20.1350 H   0  0  0  0  0  0
  -31.9936  -25.0303   20.4658 H   0  0  0  0  0  0
  -30.4265  -21.5267   21.9523 H   0  0  0  0  0  0
  -32.0415  -21.1785   21.3321 H   0  0  0  0  0  0
  -31.7211  -23.1357   18.4334 H   0  0  0  0  0  0
  -28.7076  -25.0172   16.4876 H   0  0  0  0  0  0
  -29.0715  -26.7259   16.6059 H   0  0  0  0  0  0
  -28.0234  -25.9529   17.7776 H   0  0  0  0  0  0
  -31.3938  -26.0196   16.2978 H   0  0  0  0  0  0
  -31.0811  -24.2994   16.4264 H   0  0  0  0  0  0
  -32.2742  -25.0703   17.4670 H   0  0  0  0  0  0
  -29.5054  -28.4142   19.6512 H   0  0  0  0  0  0
  -30.0917  -27.3515   20.9230 H   0  0  0  0  0  0
  -29.3884  -24.4960   19.8546 H   0  0  0  0  0  0
  -29.1773  -23.6028   18.4113 H   0  0  0  0  0  0
  -29.1672  -15.2736   21.4622 H   0  0  0  0  0  0
  -29.5372  -20.3760   17.3777 H   0  0  0  0  0  0
  -29.8676  -22.0691   17.4839 H   0  0  0  0  0  0
  1 25  1  0  0  0
  1 30  2  0  0  0
  1 89  1  0  0  0
  2  3  1  0  0  0
  2 25  1  0  0  0
  2 92  1  0  0  0
  2 93  1  0  0  0
  3  4  1  0  0  0
  3 94  1  0  0  0
  3 95  1  0  0  0
  4  5  1  0  0  0
  4 96  1  0  0  0
  4 97  1  0  0  0
  5  6  1  0  0  0
  5 26  1  0  0  0
  5 98  1  0  0  0
  6 25  1  0  0  0
  6 99  1  0  0  0
  6100  1  0  0  0
  7  8  2  0  0  0
  7 26  1  0  0  0
  7 29  1  0  0  0
  8  9  1  0  0  0
  8 22  1  0  0  0
  9 10  1  0  0  0
  9 27  2  0  0  0
 10 11  2  0  0  0
 10 15  1  0  0  0
 11 12  1  0  0  0
 11101  1  0  0  0
 12 13  2  0  0  0
 12102  1  0  0  0
 13 14  1  0  0  0
 13 31  1  0  0  0
 14 15  2  0  0  0
 14103  1  0  0  0
 15104  1  0  0  0
 16 17  2  0  0  0
 16 21  1  0  0  0
 16 31  1  0  0  0
 17 18  1  0  0  0
 17105  1  0  0  0
 18 19  2  0  0  0
 18106  1  0  0  0
 19 20  1  0  0  0
 19 24  1  0  0  0
 20 21  2  0  0  0
 20107  1  0  0  0
 21 23  1  0  0  0
 22 28  1  0  0  0
 22 32  2  0  0  0
 26 27  1  0  0  0
 28108  1  0  0  0
 28109  1  0  0  0
 29110  1  0  0  0
 29111  1  0  0  0
 33 34  1  0  0  0
 33 66  1  0  0  0
 33 70  2  0  0  0
 34 36  1  0  0  0
 34 59  1  0  0  0
 34112  1  0  0  0
 35 44  2  0  0  0
 35 45  1  0  0  0
 35 68  1  0  0  0
 36 56  1  0  0  0
 36113  1  0  0  0
 37 39  1  0  0  0
 37 47  1  0  0  0
 37 66  1  0  0  0
 37114  1  0  0  0
 38 43  2  0  0  0
 38 46  1  0  0  0
 38 47  1  0  0  0
 39 64  1  0  0  0
 39 67  2  0  0  0
 40 52  1  0  0  0
 40 53  2  0  0  0
 40 58  1  0  0  0
 41115  1  0  0  0
 41116  1  0  0  0
 41117  1  0  0  0
 41 48  1  0  0  0
 42 43  1  0  0  0
 42 66  1  0  0  0
 42118  1  0  0  0
 42119  1  0  0  0
 43 44  1  0  0  0
 44120  1  0  0  0
 45 46  2  0  0  0
 45121  1  0  0  0
 46122  1  0  0  0
 47123  1  0  0  0
 47124  1  0  0  0
 48 56  1  0  0  0
 48 65  1  0  0  0
 48125  1  0  0  0
 49 50  1  0  0  0
 49 53  1  0  0  0
 49 64  1  0  0  0
 49126  1  0  0  0
 50 51  1  0  0  0
 50127  1  0  0  0
 50128  1  0  0  0
 51 52  1  0  0  0
 51129  1  0  0  0
 51130  1  0  0  0
 52131  1  0  0  0
 52132  1  0  0  0
 53 54  1  0  0  0
 54 55  2  0  0  0
 54133  1  0  0  0
 55 57  1  0  0  0
 55134  1  0  0  0
 56 69  2  0  0  0
 57 58  2  0  0  0
 57135  1  0  0  0
 58136  1  0  0  0
 59 60  1  0  0  0
 59 61  1  0  0  0
 59 62  1  0  0  0
 60137  1  0  0  0
 60138  1  0  0  0
 60139  1  0  0  0
 61140  1  0  0  0
 61141  1  0  0  0
 61142  1  0  0  0
 62143  1  0  0  0
 62144  1  0  0  0
 62145  1  0  0  0
 63 65  1  0  0  0
 63146  1  0  0  0
 63147  1  0  0  0
 63148  1  0  0  0
 64149  1  0  0  0
 65150  1  0  0  0
 68 85  1  0  0  0
 71 73  2  0  0  0
 71 75  1  0  0  0
 71151  1  0  0  0
 72 74  1  0  0  0
 72 75  2  0  0  0
 72152  1  0  0  0
 73 76  1  0  0  0
 73153  1  0  0  0
 74 76  2  0  0  0
 74154  1  0  0  0
 75 77  1  0  0  0
 76 89  1  0  0  0
 77 88  1  0  0  0
 77 90  2  0  0  0
 78 85  1  0  0  0
 78 87  1  0  0  0
 78 91  2  0  0  0
 79 80  1  0  0  0
 79 81  1  0  0  0
 79155  1  0  0  0
 79156  1  0  0  0
 80 82  1  0  0  0
 80157  1  0  0  0
 80158  1  0  0  0
 81 88  1  0  0  0
 81159  1  0  0  0
 81160  1  0  0  0
 82 86  1  0  0  0
 82 88  1  0  0  0
 82161  1  0  0  0
 83162  1  0  0  0
 83163  1  0  0  0
 83164  1  0  0  0
 83 87  1  0  0  0
 84 87  1  0  0  0
 84165  1  0  0  0
 84166  1  0  0  0
 84167  1  0  0  0
 85168  1  0  0  0
 85169  1  0  0  0
 86 87  1  0  0  0
 86170  1  0  0  0
 86171  1  0  0  0
 89172  1  0  0  0
 90173  1  0  0  0
 90174  1  0  0  0
M  CHG  1  90   1
M  ISO  4   1 100  68 101  85 101  89 100
M  END
> <chiral flag>
0

> <version>
0

> <s_m_source_file>
/data/baiqing/PycharmProjects/Reinvent-master-3.2/result/LINK_invent/BTK/process_docking_weight1_custom_product_contain_oxygen_bond_distance_aromatic_linkinvent_7_9_3/rearranged_h_0144.sdf

> <i_m_source_file_index>
14

> <r_mmod_Potential_Energy-OPLS-2005>
-27.9215812683105

> <r_mmod_Stretch_Energy-OPLS-2005>
41.5618133544922

> <r_mmod_Bend_Energy-OPLS-2005>
139.50276184082

> <r_mmod_Torsional_Energy-OPLS-2005>
329.742767333984

> <r_mmod_Improper_Torsional_Energy-OPLS-2005>
5.3593864440918

> <r_mmod_Van_der_Waal_Energy-OPLS-2005>
174.128204345703

> <r_mmod_Electrostatic_Energy-OPLS-2005>
-334.083740234375

> <r_mmod_Solvation_Energy-OPLS-2005>
-395.720397949219

> <b_mmod_Minimization_Converged-OPLS-2005>
0

> <r_mmod_RMS_Derivative-OPLS-2005>
2.85057473182678

$$$$
14
                    3D
 Structure written by MMmdl.
159168  0  0  1  0            999 V2000
  -30.7612  -14.3494   20.6557 C   0  0  0  0  0  0
  -30.4121  -12.2627   19.4007 C   0  0  0  0  0  0
  -29.4853  -12.5102   18.1959 C   0  0  0  0  0  0
  -28.0074  -12.3782   18.6100 C   0  0  0  0  0  0
  -27.6665  -13.1991   19.8822 C   0  0  2  0  0  0
  -28.7024  -12.9322   20.9966 C   0  0  0  0  0  0
  -25.2600  -13.8152   20.5673 C   0  0  0  0  0  0
  -24.1835  -13.0442   20.9157 C   0  0  0  0  0  0
  -24.6377  -11.6904   20.8722 C   0  0  0  0  0  0
  -23.9041  -10.4294   21.0396 C   0  0  0  0  0  0
  -24.3594   -9.4214   21.9180 C   0  0  0  0  0  0
  -23.6275   -8.2247   22.0760 C   0  0  0  0  0  0
  -22.4261   -8.0282   21.3546 C   0  0  0  0  0  0
  -21.9886   -9.0253   20.4653 C   0  0  0  0  0  0
  -22.7207  -10.2135   20.3055 C   0  0  0  0  0  0
  -21.6853   -6.0734   22.5275 C   0  0  0  0  0  0
  -21.4018   -6.5636   23.8210 C   0  0  0  0  0  0
  -21.3660   -5.6788   24.9170 C   0  0  0  0  0  0
  -21.6037   -4.3050   24.7226 C   0  0  0  0  0  0
  -21.8816   -3.8143   23.4346 C   0  0  0  0  0  0
  -21.9192   -4.6961   22.3400 C   0  0  0  0  0  0
  -22.7860  -13.5254   21.1816 C   0  0  0  0  0  0
  -22.1658   -4.2144   21.0979 F   0  0  0  0  0  0
  -21.5629   -3.4535   25.7740 F   0  0  0  0  0  0
  -30.0469  -13.2136   20.4587 N   0  0  0  0  0  0
  -26.3038  -12.9310   20.3384 N   0  0  0  0  0  0
  -25.9302  -11.6475   20.5751 N   0  0  0  0  0  0
  -22.0492  -12.8268   22.0384 N   0  0  0  0  0  0
  -25.4344  -15.1866   20.4070 N   0  0  0  0  0  0
  -31.8241  -14.5893   20.0707 O   0  0  0  0  0  0
  -21.6635   -6.8875   21.4236 O   0  0  0  0  0  0
  -22.3552  -14.5564   20.6669 O   0  0  0  0  0  0
  -24.6078  -31.8710   23.2121 C   0  0  0  0  0  0
  -25.8994  -32.4841   23.8404 C   0  0  1  0  0  0
  -27.2439  -27.4908   20.0862 C   0  0  0  0  0  0
  -25.5867  -33.8638   24.2336 N   0  0  0  0  0  0
  -23.3933  -30.4919   21.5522 C   0  0  2  0  0  0
  -24.8393  -28.9567   20.1206 C   0  0  0  0  0  0
  -22.7375  -29.4666   22.5027 C   0  0  0  0  0  0
  -18.0261  -28.1374   22.8503 C   0  0  0  0  0  0
  -24.1481  -36.7329   23.2642 C   0  0  0  0  0  0
  -25.9140  -30.8535   21.3551 C   0  0  0  0  0  0
  -25.9931  -29.4897   20.7070 C   0  0  0  0  0  0
  -27.1966  -28.7633   20.6838 C   0  0  0  0  0  0
  -26.0742  -26.9472   19.5091 C   0  0  0  0  0  0
  -24.8714  -27.6821   19.5229 C   0  0  0  0  0  0
  -23.5983  -29.8176   20.1682 C   0  0  0  0  0  0
  -25.4101  -36.3127   24.0342 C   0  0  1  0  0  0
  -20.5846  -28.3648   23.1350 C   0  0  2  0  0  0
  -20.6746  -26.9391   22.5430 C   0  0  0  0  0  0
  -19.5728  -26.6388   21.5220 C   0  0  0  0  0  0
  -18.1907  -26.7922   22.1629 C   0  0  0  0  0  0
  -19.1508  -28.8829   23.2922 C   0  0  0  0  0  0
  -18.9439  -30.1438   23.8929 C   0  0  0  0  0  0
  -17.6444  -30.6585   24.0572 C   0  0  0  0  0  0
  -25.9025  -34.9489   23.5139 C   0  0  0  0  0  0
  -16.5336  -29.9093   23.6324 C   0  0  0  0  0  0
  -16.7252  -28.6507   23.0350 C   0  0  0  0  0  0
  -26.4452  -31.6618   25.0718 C   0  0  0  0  0  0
  -25.3739  -31.3708   26.1485 C   0  0  0  0  0  0
  -27.0286  -30.3074   24.6061 C   0  0  0  0  0  0
  -27.6040  -32.4339   25.7461 C   0  0  0  0  0  0
  -27.5581  -37.1812   24.8463 C   0  0  0  0  0  0
  -21.4109  -29.3022   22.3768 N   0  0  0  0  0  0
  -26.4294  -37.3804   23.9410 N   0  0  0  0  0  0
  -24.6565  -31.0857   22.0994 N   0  0  0  0  0  0
  -23.4170  -28.8212   23.3054 O   0  0  0  0  0  0
  -28.4602  -26.8662   20.0569 O   0  0  0  0  0  0
  -26.5594  -34.8934   22.4704 O   0  0  0  0  0  0
  -23.5288  -32.1436   23.7553 O   0  0  0  0  0  0
  -29.8993  -17.5900   21.1079 C   0  0  0  0  0  0
  -31.8407  -18.6542   21.7932 C   0  0  0  0  0  0
  -30.6253  -18.8140   21.1736 C   0  0  0  0  0  0
  -30.5968  -16.5113   21.5810 C   0  0  0  0  0  0
  -29.8013  -25.0578   20.8014 C   0  0  0  0  0  0
  -31.7761  -23.4180   21.0293 C   0  0  0  0  0  0
  -31.8844  -21.8989   20.9875 C   0  0  0  0  0  0
  -29.5162  -22.5309   20.9071 C   0  0  0  0  0  0
  -30.3932  -23.6970   20.4305 C   0  0  1  0  0  0
  -30.4667  -21.3820   21.2982 C   0  0  1  0  0  0
  -30.0891  -20.0785   20.5704 C   0  0  0  0  0  0
  -28.4962  -25.4524   20.1087 C   0  0  0  0  0  0
  -30.2114  -15.2220   21.5084 N   0  0  0  0  0  0
  -30.3522  -25.8061   21.6184 O   0  0  0  0  0  0
  -32.1305  -17.0042   22.2529 S   0  0  0  0  0  0
  -31.4583  -12.3468   19.1006 H   0  0  0  0  0  0
  -30.2966  -11.2421   19.7695 H   0  0  0  0  0  0
  -29.7122  -11.8035   17.3965 H   0  0  0  0  0  0
  -29.6674  -13.5052   17.7853 H   0  0  0  0  0  0
  -27.8057  -11.3211   18.7882 H   0  0  0  0  0  0
  -27.3576  -12.6759   17.7865 H   0  0  0  0  0  0
  -27.7294  -14.2534   19.6123 H   0  0  0  0  0  0
  -28.6570  -11.8884   21.3103 H   0  0  0  0  0  0
  -28.4586  -13.5044   21.8918 H   0  0  0  0  0  0
  -25.2742   -9.5694   22.4755 H   0  0  0  0  0  0
  -23.9988   -7.4640   22.7483 H   0  0  0  0  0  0
  -21.0817   -8.8764   19.8966 H   0  0  0  0  0  0
  -22.3659  -10.9670   19.6167 H   0  0  0  0  0  0
  -21.2015   -7.6145   23.9709 H   0  0  0  0  0  0
  -21.1483   -6.0522   25.9071 H   0  0  0  0  0  0
  -22.0599   -2.7606   23.2844 H   0  0  0  0  0  0
  -22.4093  -11.9933   22.4788 H   0  0  0  0  0  0
  -21.1120  -13.1329   22.2594 H   0  0  0  0  0  0
  -24.6704  -15.8453   20.5132 H   0  0  0  0  0  0
  -26.2907  -15.6217   20.0865 H   0  0  0  0  0  0
  -26.7072  -32.5576   23.1182 H   0  0  0  0  0  0
  -25.0003  -33.9809   25.0471 H   0  0  0  0  0  0
  -22.6796  -31.3063   21.4127 H   0  0  0  0  0  0
  -23.3737  -35.9669   23.3318 H   0  0  0  0  0  0
  -24.3574  -36.8930   22.2054 H   0  0  0  0  0  0
  -23.7239  -37.6541   23.6646 H   0  0  0  0  0  0
  -26.0165  -31.6207   20.5862 H   0  0  0  0  0  0
  -26.8055  -30.9104   21.9679 H   0  0  0  0  0  0
  -28.0948  -29.1791   21.1199 H   0  0  0  0  0  0
  -26.0898  -25.9790   19.0297 H   0  0  0  0  0  0
  -23.9820  -27.2664   19.0689 H   0  0  0  0  0  0
  -23.7025  -30.5890   19.4041 H   0  0  0  0  0  0
  -22.7245  -29.2319   19.8768 H   0  0  0  0  0  0
  -25.1276  -36.2000   25.0836 H   0  0  0  0  0  0
  -20.9935  -28.3198   24.1471 H   0  0  0  0  0  0
  -20.5655  -26.2247   23.3604 H   0  0  0  0  0  0
  -21.6618  -26.7442   22.1219 H   0  0  0  0  0  0
  -19.6885  -25.6307   21.1229 H   0  0  0  0  0  0
  -19.6665  -27.3218   20.6768 H   0  0  0  0  0  0
  -17.4175  -26.6685   21.4029 H   0  0  0  0  0  0
  -18.0296  -26.0058   22.9018 H   0  0  0  0  0  0
  -19.7916  -30.7245   24.2308 H   0  0  0  0  0  0
  -17.5002  -31.6268   24.5168 H   0  0  0  0  0  0
  -15.5338  -30.3007   23.7631 H   0  0  0  0  0  0
  -15.8649  -28.0839   22.7049 H   0  0  0  0  0  0
  -24.5887  -30.7087   25.7821 H   0  0  0  0  0  0
  -24.8957  -32.2862   26.4984 H   0  0  0  0  0  0
  -25.8105  -30.8834   27.0212 H   0  0  0  0  0  0
  -26.2809  -29.6818   24.1170 H   0  0  0  0  0  0
  -27.4143  -29.7329   25.4493 H   0  0  0  0  0  0
  -27.8602  -30.4419   23.9138 H   0  0  0  0  0  0
  -27.2667  -33.3627   26.2078 H   0  0  0  0  0  0
  -28.3814  -32.6926   25.0260 H   0  0  0  0  0  0
  -28.0752  -31.8446   26.5338 H   0  0  0  0  0  0
  -28.2610  -38.0099   24.7510 H   0  0  0  0  0  0
  -28.1064  -36.2633   24.6287 H   0  0  0  0  0  0
  -27.2302  -37.1470   25.8868 H   0  0  0  0  0  0
  -20.9260  -29.8748   21.7002 H   0  0  0  0  0  0
  -26.0189  -38.2889   24.1402 H   0  0  0  0  0  0
  -28.9236  -17.5309   20.6445 H   0  0  0  0  0  0
  -32.6087  -19.3891   21.9918 H   0  0  0  0  0  0
  -32.5768  -23.9031   20.4694 H   0  0  0  0  0  0
  -31.8387  -23.7578   22.0648 H   0  0  0  0  0  0
  -32.6329  -21.5425   21.6944 H   0  0  0  0  0  0
  -32.1979  -21.5865   19.9898 H   0  0  0  0  0  0
  -28.8279  -22.2469   20.1094 H   0  0  0  0  0  0
  -28.9014  -22.8069   21.7663 H   0  0  0  0  0  0
  -30.4751  -23.6498   19.3440 H   0  0  0  0  0  0
  -30.3679  -21.2317   22.3750 H   0  0  0  0  0  0
  -29.0011  -20.0023   20.5530 H   0  0  0  0  0  0
  -30.3806  -20.1434   19.5211 H   0  0  0  0  0  0
  -27.6578  -25.0536   20.6798 H   0  0  0  0  0  0
  -28.4574  -25.0346   19.1025 H   0  0  0  0  0  0
  -29.3040  -14.9763   21.8734 H   0  0  0  0  0  0
  1 25  1  0  0  0
  1 30  2  0  0  0
  1 83  1  0  0  0
  2  3  1  0  0  0
  2 25  1  0  0  0
  2 86  1  0  0  0
  2 87  1  0  0  0
  3  4  1  0  0  0
  3 88  1  0  0  0
  3 89  1  0  0  0
  4  5  1  0  0  0
  4 90  1  0  0  0
  4 91  1  0  0  0
  5  6  1  0  0  0
  5 26  1  0  0  0
  5 92  1  0  0  0
  6 25  1  0  0  0
  6 93  1  0  0  0
  6 94  1  0  0  0
  7  8  2  0  0  0
  7 26  1  0  0  0
  7 29  1  0  0  0
  8  9  1  0  0  0
  8 22  1  0  0  0
  9 10  1  0  0  0
  9 27  2  0  0  0
 10 11  2  0  0  0
 10 15  1  0  0  0
 11 12  1  0  0  0
 11 95  1  0  0  0
 12 13  2  0  0  0
 12 96  1  0  0  0
 13 14  1  0  0  0
 13 31  1  0  0  0
 14 15  2  0  0  0
 14 97  1  0  0  0
 15 98  1  0  0  0
 16 17  2  0  0  0
 16 21  1  0  0  0
 16 31  1  0  0  0
 17 18  1  0  0  0
 17 99  1  0  0  0
 18 19  2  0  0  0
 18100  1  0  0  0
 19 20  1  0  0  0
 19 24  1  0  0  0
 20 21  2  0  0  0
 20101  1  0  0  0
 21 23  1  0  0  0
 22 28  1  0  0  0
 22 32  2  0  0  0
 26 27  1  0  0  0
 28102  1  0  0  0
 28103  1  0  0  0
 29104  1  0  0  0
 29105  1  0  0  0
 33 34  1  0  0  0
 33 66  1  0  0  0
 33 70  2  0  0  0
 34 36  1  0  0  0
 34 59  1  0  0  0
 34106  1  0  0  0
 35 44  2  0  0  0
 35 45  1  0  0  0
 35 68  1  0  0  0
 36 56  1  0  0  0
 36107  1  0  0  0
 37 39  1  0  0  0
 37 47  1  0  0  0
 37 66  1  0  0  0
 37108  1  0  0  0
 38 43  2  0  0  0
 38 46  1  0  0  0
 38 47  1  0  0  0
 39 64  1  0  0  0
 39 67  2  0  0  0
 40 52  1  0  0  0
 40 53  2  0  0  0
 40 58  1  0  0  0
 41109  1  0  0  0
 41110  1  0  0  0
 41111  1  0  0  0
 41 48  1  0  0  0
 42 43  1  0  0  0
 42 66  1  0  0  0
 42112  1  0  0  0
 42113  1  0  0  0
 43 44  1  0  0  0
 44114  1  0  0  0
 45 46  2  0  0  0
 45115  1  0  0  0
 46116  1  0  0  0
 47117  1  0  0  0
 47118  1  0  0  0
 48 56  1  0  0  0
 48 65  1  0  0  0
 48119  1  0  0  0
 49 50  1  0  0  0
 49 53  1  0  0  0
 49 64  1  0  0  0
 49120  1  0  0  0
 50 51  1  0  0  0
 50121  1  0  0  0
 50122  1  0  0  0
 51 52  1  0  0  0
 51123  1  0  0  0
 51124  1  0  0  0
 52125  1  0  0  0
 52126  1  0  0  0
 53 54  1  0  0  0
 54 55  2  0  0  0
 54127  1  0  0  0
 55 57  1  0  0  0
 55128  1  0  0  0
 56 69  2  0  0  0
 57 58  2  0  0  0
 57129  1  0  0  0
 58130  1  0  0  0
 59 60  1  0  0  0
 59 61  1  0  0  0
 59 62  1  0  0  0
 60131  1  0  0  0
 60132  1  0  0  0
 60133  1  0  0  0
 61134  1  0  0  0
 61135  1  0  0  0
 61136  1  0  0  0
 62137  1  0  0  0
 62138  1  0  0  0
 62139  1  0  0  0
 63 65  1  0  0  0
 63140  1  0  0  0
 63141  1  0  0  0
 63142  1  0  0  0
 64143  1  0  0  0
 65144  1  0  0  0
 68 82  1  0  0  0
 71 73  1  0  0  0
 71 74  2  0  0  0
 71145  1  0  0  0
 72 73  2  0  0  0
 72 85  1  0  0  0
 72146  1  0  0  0
 73 81  1  0  0  0
 74 83  1  0  0  0
 74 85  1  0  0  0
 75 82  1  0  0  0
 75 84  2  0  0  0
 75 79  1  0  0  0
 76 77  1  0  0  0
 76 79  1  0  0  0
 76147  1  0  0  0
 76148  1  0  0  0
 77 80  1  0  0  0
 77149  1  0  0  0
 77150  1  0  0  0
 78 79  1  0  0  0
 78 80  1  0  0  0
 78151  1  0  0  0
 78152  1  0  0  0
 79153  1  0  0  0
 80 81  1  0  0  0
 80154  1  0  0  0
 81155  1  0  0  0
 81156  1  0  0  0
 82157  1  0  0  0
 82158  1  0  0  0
 83159  1  0  0  0
M  ISO  4   1 100  68 101  82 101  83 100
M  END
> <chiral flag>
0

> <version>
0

> <s_m_source_file>
/data/baiqing/PycharmProjects/Reinvent-master-3.2/result/LINK_invent/BTK/process_docking_weight1_custom_product_contain_oxygen_bond_distance_aromatic_linkinvent_7_9_3/rearranged_h_0144.sdf

> <i_m_source_file_index>
15

> <r_mmod_Potential_Energy-OPLS-2005>
36.5203475952148

> <r_mmod_Stretch_Energy-OPLS-2005>
28.9426345825195

> <r_mmod_Bend_Energy-OPLS-2005>
119.805099487305

> <r_mmod_Torsional_Energy-OPLS-2005>
285.819580078125

> <r_mmod_Improper_Torsional_Energy-OPLS-2005>
3.14921116828918

> <r_mmod_Van_der_Waal_Energy-OPLS-2005>
136.895416259766

> <r_mmod_Electrostatic_Energy-OPLS-2005>
-314.744232177734

> <r_mmod_Solvation_Energy-OPLS-2005>
-232.283493041992

> <b_mmod_Minimization_Converged-OPLS-2005>
0

> <r_mmod_RMS_Derivative-OPLS-2005>
1.07888627052307

$$$$
15
                    3D
 Structure written by MMmdl.
164172  0  0  1  0            999 V2000
  -30.7471  -14.3918   20.6408 C   0  0  0  0  0  0
  -30.4160  -12.2837   19.4037 C   0  0  0  0  0  0
  -29.4859  -12.5141   18.1968 C   0  0  0  0  0  0
  -28.0084  -12.3771   18.6120 C   0  0  0  0  0  0
  -27.6655  -13.2024   19.8805 C   0  0  2  0  0  0
  -28.7046  -12.9489   20.9956 C   0  0  0  0  0  0
  -25.2605  -13.8158   20.5680 C   0  0  0  0  0  0
  -24.1844  -13.0441   20.9164 C   0  0  0  0  0  0
  -24.6388  -11.6905   20.8724 C   0  0  0  0  0  0
  -23.9051  -10.4291   21.0397 C   0  0  0  0  0  0
  -24.3607   -9.4210   21.9179 C   0  0  0  0  0  0
  -23.6286   -8.2244   22.0752 C   0  0  0  0  0  0
  -22.4270   -8.0279   21.3542 C   0  0  0  0  0  0
  -21.9902   -9.0247   20.4642 C   0  0  0  0  0  0
  -22.7225  -10.2129   20.3048 C   0  0  0  0  0  0
  -21.6852   -6.0730   22.5278 C   0  0  0  0  0  0
  -21.4011   -6.5634   23.8211 C   0  0  0  0  0  0
  -21.3660   -5.6788   24.9174 C   0  0  0  0  0  0
  -21.6046   -4.3053   24.7223 C   0  0  0  0  0  0
  -21.8821   -3.8143   23.4345 C   0  0  0  0  0  0
  -21.9192   -4.6959   22.3402 C   0  0  0  0  0  0
  -22.7866  -13.5242   21.1834 C   0  0  0  0  0  0
  -22.1662   -4.2146   21.0980 F   0  0  0  0  0  0
  -21.5630   -3.4538   25.7735 F   0  0  0  0  0  0
  -30.0438  -13.2444   20.4528 N   0  0  0  0  0  0
  -26.3041  -12.9320   20.3391 N   0  0  0  0  0  0
  -25.9315  -11.6479   20.5765 N   0  0  0  0  0  0
  -22.0509  -12.8231   22.0389 N   0  0  0  0  0  0
  -25.4352  -15.1874   20.4092 N   0  0  0  0  0  0
  -31.8204  -14.6184   20.0723 O   0  0  0  0  0  0
  -21.6638   -6.8874   21.4240 O   0  0  0  0  0  0
  -22.3552  -14.5550   20.6689 O   0  0  0  0  0  0
  -24.6112  -31.8702   23.2126 C   0  0  0  0  0  0
  -25.9021  -32.4831   23.8408 C   0  0  1  0  0  0
  -27.2382  -27.4711   20.0919 C   0  0  0  0  0  0
  -25.5894  -33.8628   24.2346 N   0  0  0  0  0  0
  -23.3975  -30.4929   21.5529 C   0  0  2  0  0  0
  -24.8449  -28.9608   20.1187 C   0  0  0  0  0  0
  -22.7391  -29.4664   22.5015 C   0  0  0  0  0  0
  -18.0270  -28.1378   22.8500 C   0  0  0  0  0  0
  -24.1487  -36.7310   23.2641 C   0  0  0  0  0  0
  -25.9221  -30.8470   21.3597 C   0  0  0  0  0  0
  -26.0023  -29.4832   20.7096 C   0  0  0  0  0  0
  -27.2046  -28.7459   20.6912 C   0  0  0  0  0  0
  -26.0667  -26.9501   19.5019 C   0  0  0  0  0  0
  -24.8694  -27.6907   19.5147 C   0  0  0  0  0  0
  -23.6040  -29.8228   20.1681 C   0  0  0  0  0  0
  -25.4109  -36.3116   24.0344 C   0  0  1  0  0  0
  -20.5858  -28.3651   23.1336 C   0  0  2  0  0  0
  -20.6767  -26.9391   22.5424 C   0  0  0  0  0  0
  -19.5743  -26.6384   21.5222 C   0  0  0  0  0  0
  -18.1919  -26.7927   22.1627 C   0  0  0  0  0  0
  -19.1520  -28.8831   23.2915 C   0  0  0  0  0  0
  -18.9449  -30.1438   23.8920 C   0  0  0  0  0  0
  -17.6453  -30.6584   24.0569 C   0  0  0  0  0  0
  -25.9033  -34.9479   23.5141 C   0  0  0  0  0  0
  -16.5342  -29.9086   23.6331 C   0  0  0  0  0  0
  -16.7260  -28.6505   23.0350 C   0  0  0  0  0  0
  -26.4462  -31.6589   25.0715 C   0  0  0  0  0  0
  -25.3736  -31.3683   26.1465 C   0  0  0  0  0  0
  -27.0292  -30.3038   24.6059 C   0  0  0  0  0  0
  -27.6047  -32.4296   25.7479 C   0  0  0  0  0  0
  -27.5581  -37.1808   24.8467 C   0  0  0  0  0  0
  -21.4123  -29.3019   22.3747 N   0  0  0  0  0  0
  -26.4298  -37.3796   23.9413 N   0  0  0  0  0  0
  -24.6619  -31.0830   22.1011 N   0  0  0  0  0  0
  -23.4176  -28.8209   23.3045 O   0  0  0  0  0  0
  -28.4141  -26.7653   20.0579 O   0  0  0  0  0  0
  -26.5587  -34.8926   22.4695 O   0  0  0  0  0  0
  -23.5313  -32.1439   23.7542 O   0  0  0  0  0  0
  -31.8339  -17.0893   21.7346 C   0  0  0  0  0  0
  -31.8874  -18.4934   21.9947 C   0  0  0  0  0  0
  -30.5643  -16.5673   21.6855 C   0  0  0  0  0  0
  -30.6364  -19.0626   22.1474 C   0  0  0  0  0  0
  -33.1876  -19.2354   22.0783 C   0  0  0  0  0  0
  -28.8199  -25.6432   22.1709 C   0  0  0  0  0  0
  -29.2425  -21.0666   22.4484 C   0  0  0  0  0  0
  -26.6531  -25.3575   23.4007 C   0  0  0  0  0  0
  -28.7915  -24.9963   24.6320 C   0  0  0  0  0  0
  -28.3632  -25.4957   20.7109 C   0  0  0  0  0  0
  -29.3831  -22.5730   22.7068 C   0  0  0  0  0  0
  -28.0287  -23.3011   22.9030 C   0  0  0  0  0  0
  -28.0925  -24.8144   23.2616 C   0  0  0  0  0  0
  -30.3969  -20.3839   22.3795 N   0  0  0  0  0  0
  -30.1611  -15.2919   21.4476 N   0  0  0  0  0  0
  -34.2733  -18.6371   21.9245 O   0  5  0  0  0  0
  -33.2104  -20.4647   22.3057 O   0  0  0  0  0  0
  -29.7379  -26.4191   22.4594 O   0  0  0  0  0  0
  -28.1258  -20.5600   22.3150 O   0  0  0  0  0  0
  -29.3997  -17.8207   22.0131 S   0  0  0  0  0  0
  -31.4607  -12.3745   19.1005 H   0  0  0  0  0  0
  -30.3077  -11.2650   19.7793 H   0  0  0  0  0  0
  -29.7172  -11.8031   17.4026 H   0  0  0  0  0  0
  -29.6605  -13.5071   17.7796 H   0  0  0  0  0  0
  -27.8117  -11.3197   18.7932 H   0  0  0  0  0  0
  -27.3576  -12.6691   17.7868 H   0  0  0  0  0  0
  -27.7220  -14.2556   19.6039 H   0  0  0  0  0  0
  -28.6694  -11.9051   21.3112 H   0  0  0  0  0  0
  -28.4596  -13.5227   21.8896 H   0  0  0  0  0  0
  -25.2755   -9.5689   22.4749 H   0  0  0  0  0  0
  -23.9999   -7.4637   22.7471 H   0  0  0  0  0  0
  -21.0838   -8.8759   19.8945 H   0  0  0  0  0  0
  -22.3686  -10.9663   19.6151 H   0  0  0  0  0  0
  -21.2001   -7.6142   23.9713 H   0  0  0  0  0  0
  -21.1481   -6.0519   25.9076 H   0  0  0  0  0  0
  -22.0599   -2.7604   23.2846 H   0  0  0  0  0  0
  -22.4122  -11.9888   22.4770 H   0  0  0  0  0  0
  -21.1129  -13.1257   22.2601 H   0  0  0  0  0  0
  -24.6733  -15.8482   20.5178 H   0  0  0  0  0  0
  -26.2960  -15.6237   20.1026 H   0  0  0  0  0  0
  -26.7096  -32.5562   23.1183 H   0  0  0  0  0  0
  -25.0061  -33.9793   25.0501 H   0  0  0  0  0  0
  -22.6854  -31.3088   21.4144 H   0  0  0  0  0  0
  -23.3753  -35.9637   23.3319 H   0  0  0  0  0  0
  -24.3583  -36.8906   22.2052 H   0  0  0  0  0  0
  -23.7229  -37.6517   23.6640 H   0  0  0  0  0  0
  -26.0268  -31.6140   20.5910 H   0  0  0  0  0  0
  -26.8123  -30.9026   21.9741 H   0  0  0  0  0  0
  -28.1028  -29.1483   21.1388 H   0  0  0  0  0  0
  -26.0811  -25.9823   19.0210 H   0  0  0  0  0  0
  -23.9796  -27.2829   19.0559 H   0  0  0  0  0  0
  -23.7058  -30.5963   19.4060 H   0  0  0  0  0  0
  -22.7300  -29.2378   19.8765 H   0  0  0  0  0  0
  -25.1285  -36.1988   25.0837 H   0  0  0  0  0  0
  -20.9949  -28.3206   24.1458 H   0  0  0  0  0  0
  -20.5692  -26.2247   23.3599 H   0  0  0  0  0  0
  -21.6633  -26.7448   22.1201 H   0  0  0  0  0  0
  -19.6904  -25.6302   21.1232 H   0  0  0  0  0  0
  -19.6695  -27.3212   20.6768 H   0  0  0  0  0  0
  -17.4193  -26.6690   21.4022 H   0  0  0  0  0  0
  -18.0306  -26.0060   22.9015 H   0  0  0  0  0  0
  -19.7924  -30.7249   24.2297 H   0  0  0  0  0  0
  -17.5009  -31.6270   24.5157 H   0  0  0  0  0  0
  -15.5344  -30.2994   23.7651 H   0  0  0  0  0  0
  -15.8661  -28.0835   22.7052 H   0  0  0  0  0  0
  -24.5900  -30.7049   25.7786 H   0  0  0  0  0  0
  -24.8937  -32.2834   26.4939 H   0  0  0  0  0  0
  -25.8081  -30.8817   27.0205 H   0  0  0  0  0  0
  -26.2826  -29.6803   24.1124 H   0  0  0  0  0  0
  -27.4102  -29.7260   25.4490 H   0  0  0  0  0  0
  -27.8640  -30.4386   23.9176 H   0  0  0  0  0  0
  -27.2677  -33.3580   26.2099 H   0  0  0  0  0  0
  -28.3833  -32.6876   25.0288 H   0  0  0  0  0  0
  -28.0740  -31.8389   26.5357 H   0  0  0  0  0  0
  -28.2600  -38.0104   24.7515 H   0  0  0  0  0  0
  -28.1074  -36.2633   24.6293 H   0  0  0  0  0  0
  -27.2295  -37.1457   25.8869 H   0  0  0  0  0  0
  -20.9274  -29.8736   21.6971 H   0  0  0  0  0  0
  -26.0193  -38.2876   24.1414 H   0  0  0  0  0  0
  -32.7420  -16.5217   21.5876 H   0  0  0  0  0  0
  -26.6439  -26.4326   23.5890 H   0  0  0  0  0  0
  -26.1288  -24.8814   24.2297 H   0  0  0  0  0  0
  -26.0559  -25.1818   22.5054 H   0  0  0  0  0  0
  -28.7273  -26.0283   24.9799 H   0  0  0  0  0  0
  -29.8507  -24.7418   24.5922 H   0  0  0  0  0  0
  -28.3352  -24.3701   25.3991 H   0  0  0  0  0  0
  -27.3727  -25.0452   20.6623 H   0  0  0  0  0  0
  -29.0450  -24.8134   20.2037 H   0  0  0  0  0  0
  -29.9332  -23.0070   21.8716 H   0  0  0  0  0  0
  -30.0084  -22.6960   23.5909 H   0  0  0  0  0  0
  -27.4735  -22.7875   23.6898 H   0  0  0  0  0  0
  -27.4259  -23.1631   22.0041 H   0  0  0  0  0  0
  -31.2514  -20.9298   22.4810 H   0  0  0  0  0  0
  -29.2476  -15.0321   21.7886 H   0  0  0  0  0  0
  1 25  1  0  0  0
  1 30  2  0  0  0
  1 85  1  0  0  0
  2  3  1  0  0  0
  2 25  1  0  0  0
  2 91  1  0  0  0
  2 92  1  0  0  0
  3  4  1  0  0  0
  3 93  1  0  0  0
  3 94  1  0  0  0
  4  5  1  0  0  0
  4 95  1  0  0  0
  4 96  1  0  0  0
  5  6  1  0  0  0
  5 26  1  0  0  0
  5 97  1  0  0  0
  6 25  1  0  0  0
  6 98  1  0  0  0
  6 99  1  0  0  0
  7  8  2  0  0  0
  7 26  1  0  0  0
  7 29  1  0  0  0
  8  9  1  0  0  0
  8 22  1  0  0  0
  9 10  1  0  0  0
  9 27  2  0  0  0
 10 11  2  0  0  0
 10 15  1  0  0  0
 11 12  1  0  0  0
 11100  1  0  0  0
 12 13  2  0  0  0
 12101  1  0  0  0
 13 14  1  0  0  0
 13 31  1  0  0  0
 14 15  2  0  0  0
 14102  1  0  0  0
 15103  1  0  0  0
 16 17  2  0  0  0
 16 21  1  0  0  0
 16 31  1  0  0  0
 17 18  1  0  0  0
 17104  1  0  0  0
 18 19  2  0  0  0
 18105  1  0  0  0
 19 20  1  0  0  0
 19 24  1  0  0  0
 20 21  2  0  0  0
 20106  1  0  0  0
 21 23  1  0  0  0
 22 28  1  0  0  0
 22 32  2  0  0  0
 26 27  1  0  0  0
 28107  1  0  0  0
 28108  1  0  0  0
 29109  1  0  0  0
 29110  1  0  0  0
 33 34  1  0  0  0
 33 66  1  0  0  0
 33 70  2  0  0  0
 34 36  1  0  0  0
 34 59  1  0  0  0
 34111  1  0  0  0
 35 44  2  0  0  0
 35 45  1  0  0  0
 35 68  1  0  0  0
 36 56  1  0  0  0
 36112  1  0  0  0
 37 39  1  0  0  0
 37 47  1  0  0  0
 37 66  1  0  0  0
 37113  1  0  0  0
 38 43  2  0  0  0
 38 46  1  0  0  0
 38 47  1  0  0  0
 39 64  1  0  0  0
 39 67  2  0  0  0
 40 52  1  0  0  0
 40 53  2  0  0  0
 40 58  1  0  0  0
 41114  1  0  0  0
 41115  1  0  0  0
 41116  1  0  0  0
 41 48  1  0  0  0
 42 43  1  0  0  0
 42 66  1  0  0  0
 42117  1  0  0  0
 42118  1  0  0  0
 43 44  1  0  0  0
 44119  1  0  0  0
 45 46  2  0  0  0
 45120  1  0  0  0
 46121  1  0  0  0
 47122  1  0  0  0
 47123  1  0  0  0
 48 56  1  0  0  0
 48 65  1  0  0  0
 48124  1  0  0  0
 49 50  1  0  0  0
 49 53  1  0  0  0
 49 64  1  0  0  0
 49125  1  0  0  0
 50 51  1  0  0  0
 50126  1  0  0  0
 50127  1  0  0  0
 51 52  1  0  0  0
 51128  1  0  0  0
 51129  1  0  0  0
 52130  1  0  0  0
 52131  1  0  0  0
 53 54  1  0  0  0
 54 55  2  0  0  0
 54132  1  0  0  0
 55 57  1  0  0  0
 55133  1  0  0  0
 56 69  2  0  0  0
 57 58  2  0  0  0
 57134  1  0  0  0
 58135  1  0  0  0
 59 60  1  0  0  0
 59 61  1  0  0  0
 59 62  1  0  0  0
 60136  1  0  0  0
 60137  1  0  0  0
 60138  1  0  0  0
 61139  1  0  0  0
 61140  1  0  0  0
 61141  1  0  0  0
 62142  1  0  0  0
 62143  1  0  0  0
 62144  1  0  0  0
 63 65  1  0  0  0
 63145  1  0  0  0
 63146  1  0  0  0
 63147  1  0  0  0
 64148  1  0  0  0
 65149  1  0  0  0
 68 80  1  0  0  0
 71 72  1  0  0  0
 71 73  2  0  0  0
 71150  1  0  0  0
 72 74  2  0  0  0
 72 75  1  0  0  0
 73 85  1  0  0  0
 73 90  1  0  0  0
 74 84  1  0  0  0
 74 90  1  0  0  0
 75 86  1  0  0  0
 75 87  2  0  0  0
 76 80  1  0  0  0
 76 83  1  0  0  0
 76 88  2  0  0  0
 77 81  1  0  0  0
 77 84  1  0  0  0
 77 89  2  0  0  0
 78151  1  0  0  0
 78152  1  0  0  0
 78153  1  0  0  0
 78 83  1  0  0  0
 79 83  1  0  0  0
 79154  1  0  0  0
 79155  1  0  0  0
 79156  1  0  0  0
 80157  1  0  0  0
 80158  1  0  0  0
 81 82  1  0  0  0
 81159  1  0  0  0
 81160  1  0  0  0
 82 83  1  0  0  0
 82161  1  0  0  0
 82162  1  0  0  0
 84163  1  0  0  0
 85164  1  0  0  0
M  CHG  1  86  -1
M  ISO  4   1 100  68 101  80 101  85 100
M  END
> <chiral flag>
0

> <version>
0

> <s_m_source_file>
/data/baiqing/PycharmProjects/Reinvent-master-3.2/result/LINK_invent/BTK/process_docking_weight1_custom_product_contain_oxygen_bond_distance_aromatic_linkinvent_7_9_3/rearranged_h_0144.sdf

> <i_m_source_file_index>
16

> <r_mmod_Potential_Energy-OPLS-2005>
-357.747314453125

> <r_mmod_Stretch_Energy-OPLS-2005>
35.2812232971191

> <r_mmod_Bend_Energy-OPLS-2005>
113.803153991699

> <r_mmod_Torsional_Energy-OPLS-2005>
231.938842773438

> <r_mmod_Improper_Torsional_Energy-OPLS-2005>
2.27762031555176

> <r_mmod_Van_der_Waal_Energy-OPLS-2005>
146.179046630859

> <r_mmod_Electrostatic_Energy-OPLS-2005>
-382.487976074219

> <r_mmod_Solvation_Energy-OPLS-2005>
-511.843444824219

> <b_mmod_Minimization_Converged-OPLS-2005>
0

> <r_mmod_RMS_Derivative-OPLS-2005>
0.671650648117065

$$$$
16
                    3D
 Structure written by MMmdl.
178187  0  0  1  0            999 V2000
  -30.0463  -15.0897   20.7513 C   0  0  0  0  0  0
  -30.4248  -12.7765   19.6195 C   0  0  0  0  0  0
  -29.5734  -12.6396   18.3294 C   0  0  0  0  0  0
  -28.0899  -12.3448   18.6569 C   0  0  0  0  0  0
  -27.5809  -13.2191   19.8368 C   0  0  2  0  0  0
  -28.5267  -13.1654   21.0354 C   0  0  0  0  0  0
  -25.2158  -13.8056   20.5575 C   0  0  0  0  0  0
  -24.1553  -13.0290   20.9155 C   0  0  0  0  0  0
  -24.6190  -11.6796   20.8652 C   0  0  0  0  0  0
  -23.8948  -10.4217   21.0399 C   0  0  0  0  0  0
  -24.3567   -9.4188   21.9190 C   0  0  0  0  0  0
  -23.6268   -8.2221   22.0779 C   0  0  0  0  0  0
  -22.4253   -8.0243   21.3562 C   0  0  0  0  0  0
  -21.9836   -9.0194   20.4671 C   0  0  0  0  0  0
  -22.7131  -10.2072   20.3061 C   0  0  0  0  0  0
  -21.6855   -6.0713   22.5280 C   0  0  0  0  0  0
  -21.4017   -6.5637   23.8203 C   0  0  0  0  0  0
  -21.3654   -5.6800   24.9170 C   0  0  0  0  0  0
  -21.6041   -4.3061   24.7231 C   0  0  0  0  0  0
  -21.8825   -3.8140   23.4358 C   0  0  0  0  0  0
  -21.9201   -4.6946   22.3409 C   0  0  0  0  0  0
  -22.7635  -13.5139   21.1874 C   0  0  0  0  0  0
  -22.1676   -4.2131   21.0987 F   0  0  0  0  0  0
  -21.5619   -3.4551   25.7748 F   0  0  0  0  0  0
  -29.7429  -13.7495   20.5359 N   0  0  0  0  0  0
  -26.2432  -12.9217   20.2802 N   0  0  0  0  0  0
  -25.9025  -11.6378   20.5389 N   0  0  0  0  0  0
  -22.0288  -12.8193   22.0464 N   0  0  0  0  0  0
  -25.3545  -15.1832   20.4316 N   0  0  0  0  0  0
  -31.2462  -15.3548   20.5065 O   0  0  0  0  0  0
  -21.6642   -6.8835   21.4239 O   0  0  0  0  0  0
  -22.3371  -14.5466   20.6717 O   0  0  0  0  0  0
  -24.6892  -31.9711   23.2008 C   0  0  0  0  0  0
  -25.9782  -32.5161   23.8493 C   0  0  1  0  0  0
  -25.6214  -27.1674   20.6342 C   0  0  0  0  0  0
  -25.6616  -33.8878   24.2546 N   0  0  0  0  0  0
  -23.4745  -30.6870   21.5406 C   0  0  2  0  0  0
  -24.7674  -29.3259   19.7852 C   0  0  0  0  0  0
  -23.0647  -29.6278   22.5746 C   0  0  0  0  0  0
  -18.7892  -27.8275   22.4433 C   0  0  0  0  0  0
  -24.1532  -36.7357   23.2589 C   0  0  0  0  0  0
  -25.9936  -30.8178   21.3856 C   0  0  0  0  0  0
  -25.8454  -29.4906   20.6629 C   0  0  0  0  0  0
  -26.4487  -28.2822   21.0441 C   0  0  0  0  0  0
  -25.5443  -27.0854   19.2684 C   0  0  0  0  0  0
  -24.7115  -28.1651   18.9602 C   0  0  0  0  0  0
  -23.5857  -30.2039   20.0459 C   0  0  0  0  0  0
  -25.4167  -36.3224   24.0303 C   0  0  1  0  0  0
  -21.3861  -28.2303   23.4556 C   0  0  2  0  0  0
  -22.4324  -26.5354   23.2732 C   0  0  0  0  0  0
  -20.9170  -25.4895   21.5502 C   0  0  0  0  0  0
  -19.3319  -26.5460   21.4215 C   0  0  0  0  0  0
  -19.7448  -28.5834   23.2552 C   0  0  0  0  0  0
  -19.2534  -29.7975   23.8916 C   0  0  0  0  0  0
  -17.9061  -30.2428   23.9102 C   0  0  0  0  0  0
  -25.9241  -34.9661   23.5104 C   0  0  0  0  0  0
  -16.9425  -29.4135   23.3219 C   0  0  0  0  0  0
  -17.3840  -28.2433   22.6143 C   0  0  0  0  0  0
  -26.4708  -31.6664   25.0813 C   0  0  0  0  0  0
  -25.3721  -31.3803   26.1314 C   0  0  0  0  0  0
  -27.0456  -30.3081   24.6183 C   0  0  0  0  0  0
  -27.6248  -32.4184   25.7816 C   0  0  0  0  0  0
  -27.5606  -37.1920   24.8464 C   0  0  0  0  0  0
  -21.7972  -29.4062   22.7372 N   0  0  0  0  0  0
  -26.4313  -37.3930   23.9417 N   0  0  0  0  0  0
  -24.7434  -31.2375   22.0555 N   0  0  0  0  0  0
  -23.8711  -29.0059   23.2628 O   0  0  0  0  0  0
  -24.2471  -26.9495   21.2402 O   0  0  0  0  0  0
  -26.5554  -34.9083   22.4521 O   0  0  0  0  0  0
  -23.6081  -32.2459   23.7494 O   0  0  0  0  0  0
  -27.9357  -17.7529   24.2173 C   0  0  0  0  0  0
  -26.8529  -18.6471   24.0032 C   0  0  0  0  0  0
  -28.5604  -16.9928   23.1976 C   0  0  0  0  0  0
  -27.1126  -18.1929   21.6359 C   0  0  0  0  0  0
  -26.3162  -18.9272   22.7233 C   0  0  0  0  0  0
  -28.2054  -17.1085   21.8383 C   0  0  0  0  0  0
  -26.8057  -18.5684   20.2143 C   0  0  0  0  0  0
  -24.4527  -20.9815   23.4392 C   0  0  0  0  0  0
  -26.1785  -20.2327   18.3109 C   0  0  0  0  0  0
  -27.6605  -20.3648   18.5103 C   0  0  0  0  0  0
  -26.7745  -20.0477   19.7020 C   0  0  0  0  0  0
  -26.6032  -21.2162   20.6800 C   0  0  0  0  0  0
  -19.8271  -23.3640   24.1748 C   0  0  0  0  0  0
  -21.1075  -24.6055   25.7495 C   0  0  0  0  0  0
  -22.9987  -21.8802   23.1975 C   0  0  0  0  0  0
  -22.5271  -23.4485   23.8525 C   0  0  0  0  0  0
  -20.3836  -25.9932   23.5961 C   0  0  0  0  0  0
  -22.2775  -27.2210   21.2396 C   0  0  0  0  0  0
  -21.0081  -24.3604   24.1977 C   0  0  0  0  0  0
  -25.0151  -19.8655   22.6724 N   0  0  0  0  0  0
  -28.9410  -16.0814   20.8454 N   0  0  0  0  0  0
  -26.6793  -17.6644   19.3817 O   0  0  0  0  0  0
  -25.0996  -21.3515   24.4196 O   0  0  0  0  0  0
  -31.4305  -13.1260   19.3781 H   0  0  0  0  0  0
  -30.5539  -11.8153   20.1180 H   0  0  0  0  0  0
  -29.9999  -11.8790   17.6749 H   0  0  0  0  0  0
  -29.6384  -13.5811   17.7803 H   0  0  0  0  0  0
  -28.0014  -11.2873   18.9052 H   0  0  0  0  0  0
  -27.4833  -12.5106   17.7664 H   0  0  0  0  0  0
  -27.5489  -14.2378   19.4507 H   0  0  0  0  0  0
  -28.6735  -12.1520   21.4100 H   0  0  0  0  0  0
  -28.1230  -13.7488   21.8672 H   0  0  0  0  0  0
  -25.2720   -9.5719   22.4740 H   0  0  0  0  0  0
  -23.9997   -7.4641   22.7521 H   0  0  0  0  0  0
  -21.0752   -8.8703   19.9008 H   0  0  0  0  0  0
  -22.3579  -10.9616   19.6182 H   0  0  0  0  0  0
  -21.2019   -7.6151   23.9685 H   0  0  0  0  0  0
  -21.1465   -6.0547   25.9064 H   0  0  0  0  0  0
  -22.0609   -2.7602   23.2866 H   0  0  0  0  0  0
  -22.3902  -11.9902   22.4936 H   0  0  0  0  0  0
  -21.0903  -13.1253   22.2600 H   0  0  0  0  0  0
  -24.5274  -15.7554   20.5603 H   0  0  0  0  0  0
  -26.1440  -15.7217   20.0966 H   0  0  0  0  0  0
  -26.7898  -32.5596   23.1240 H   0  0  0  0  0  0
  -25.0881  -33.9984   25.0777 H   0  0  0  0  0  0
  -22.7195  -31.4759   21.5437 H   0  0  0  0  0  0
  -23.3819  -35.9667   23.3273 H   0  0  0  0  0  0
  -24.3623  -36.8957   22.2000 H   0  0  0  0  0  0
  -23.7257  -37.6557   23.6584 H   0  0  0  0  0  0
  -26.2666  -31.5775   20.6521 H   0  0  0  0  0  0
  -26.8484  -30.7219   22.0450 H   0  0  0  0  0  0
  -26.9575  -28.2704   21.9973 H   0  0  0  0  0  0
  -25.2320  -26.1729   18.7787 H   0  0  0  0  0  0
  -23.9520  -28.0589   18.1976 H   0  0  0  0  0  0
  -23.7075  -31.0785   19.4056 H   0  0  0  0  0  0
  -22.6705  -29.7337   19.6954 H   0  0  0  0  0  0
  -25.1319  -36.2073   25.0787 H   0  0  0  0  0  0
  -21.5700  -28.4917   24.5019 H   0  0  0  0  0  0
  -22.5675  -26.1259   24.2711 H   0  0  0  0  0  0
  -23.5093  -26.5436   23.1752 H   0  0  0  0  0  0
  -20.6374  -24.4656   21.8143 H   0  0  0  0  0  0
  -21.3424  -25.1307   20.6080 H   0  0  0  0  0  0
  -19.3521  -26.9605   20.4151 H   0  0  0  0  0  0
  -18.5120  -25.8270   21.3845 H   0  0  0  0  0  0
  -19.9725  -30.4091   24.4205 H   0  0  0  0  0  0
  -17.6286  -31.1603   24.4094 H   0  0  0  0  0  0
  -15.8923  -29.6628   23.3652 H   0  0  0  0  0  0
  -16.6340  -27.6392   22.1234 H   0  0  0  0  0  0
  -24.5925  -30.7255   25.7402 H   0  0  0  0  0  0
  -24.8916  -32.2988   26.4692 H   0  0  0  0  0  0
  -25.7824  -30.8873   27.0133 H   0  0  0  0  0  0
  -26.3020  -29.6994   24.1044 H   0  0  0  0  0  0
  -27.3998  -29.7169   25.4633 H   0  0  0  0  0  0
  -27.8995  -30.4367   23.9526 H   0  0  0  0  0  0
  -27.2905  -33.3456   26.2480 H   0  0  0  0  0  0
  -28.4185  -32.6750   25.0785 H   0  0  0  0  0  0
  -28.0747  -31.8152   26.5712 H   0  0  0  0  0  0
  -28.2594  -38.0247   24.7560 H   0  0  0  0  0  0
  -28.1144  -36.2784   24.6243 H   0  0  0  0  0  0
  -27.2324  -37.1501   25.8865 H   0  0  0  0  0  0
  -21.0980  -29.9661   22.2715 H   0  0  0  0  0  0
  -26.0178  -38.2988   24.1462 H   0  0  0  0  0  0
  -28.2879  -17.6107   25.2301 H   0  0  0  0  0  0
  -26.4232  -19.1202   24.8748 H   0  0  0  0  0  0
  -29.3318  -16.2915   23.4865 H   0  0  0  0  0  0
  -25.8411  -19.3660   17.7464 H   0  0  0  0  0  0
  -25.6014  -21.1390   18.1345 H   0  0  0  0  0  0
  -28.0654  -21.3721   18.4178 H   0  0  0  0  0  0
  -28.3161  -19.5746   18.1552 H   0  0  0  0  0  0
  -25.5468  -21.4312   20.8407 H   0  0  0  0  0  0
  -26.9974  -22.1398   20.2573 H   0  0  0  0  0  0
  -27.1263  -21.0769   21.6242 H   0  0  0  0  0  0
  -19.9784  -22.5362   24.8719 H   0  0  0  0  0  0
  -19.6479  -22.9338   23.1944 H   0  0  0  0  0  0
  -18.9047  -23.8493   24.5034 H   0  0  0  0  0  0
  -21.3070  -23.6908   26.3112 H   0  0  0  0  0  0
  -20.1790  -25.0052   26.1627 H   0  0  0  0  0  0
  -21.8891  -25.3026   26.0522 H   0  0  0  0  0  0
  -22.1944  -21.1841   23.4403 H   0  0  0  0  0  0
  -22.9286  -21.9894   22.1164 H   0  0  0  0  0  0
  -23.2076  -24.1291   23.3519 H   0  0  0  0  0  0
  -22.9987  -23.3687   24.8344 H   0  0  0  0  0  0
  -19.3180  -25.7828   23.5299 H   0  0  0  0  0  0
  -20.3209  -26.5414   24.5448 H   0  0  0  0  0  0
  -21.8974  -28.1557   20.8468 H   0  0  0  0  0  0
  -22.1346  -26.8650   20.2157 H   0  0  0  0  0  0
  -24.4101  -19.6463   21.8922 H   0  0  0  0  0  0
  -28.3810  -15.9694   20.0132 H   0  0  0  0  0  0
  1 25  1  0  0  0
  1 30  2  0  0  0
  1 91  1  0  0  0
  2  3  1  0  0  0
  2 25  1  0  0  0
  2 94  1  0  0  0
  2 95  1  0  0  0
  3  4  1  0  0  0
  3 96  1  0  0  0
  3 97  1  0  0  0
  4  5  1  0  0  0
  4 98  1  0  0  0
  4 99  1  0  0  0
  5  6  1  0  0  0
  5 26  1  0  0  0
  5100  1  0  0  0
  6 25  1  0  0  0
  6101  1  0  0  0
  6102  1  0  0  0
  7  8  2  0  0  0
  7 26  1  0  0  0
  7 29  1  0  0  0
  8  9  1  0  0  0
  8 22  1  0  0  0
  9 10  1  0  0  0
  9 27  2  0  0  0
 10 11  2  0  0  0
 10 15  1  0  0  0
 11 12  1  0  0  0
 11103  1  0  0  0
 12 13  2  0  0  0
 12104  1  0  0  0
 13 14  1  0  0  0
 13 31  1  0  0  0
 14 15  2  0  0  0
 14105  1  0  0  0
 15106  1  0  0  0
 16 17  2  0  0  0
 16 21  1  0  0  0
 16 31  1  0  0  0
 17 18  1  0  0  0
 17107  1  0  0  0
 18 19  2  0  0  0
 18108  1  0  0  0
 19 20  1  0  0  0
 19 24  1  0  0  0
 20 21  2  0  0  0
 20109  1  0  0  0
 21 23  1  0  0  0
 22 28  1  0  0  0
 22 32  2  0  0  0
 26 27  1  0  0  0
 28110  1  0  0  0
 28111  1  0  0  0
 29112  1  0  0  0
 29113  1  0  0  0
 33 34  1  0  0  0
 33 66  1  0  0  0
 33 70  2  0  0  0
 34 36  1  0  0  0
 34 59  1  0  0  0
 34114  1  0  0  0
 35 44  2  0  0  0
 35 45  1  0  0  0
 35 68  1  0  0  0
 36 56  1  0  0  0
 36115  1  0  0  0
 37 39  1  0  0  0
 37 47  1  0  0  0
 37 66  1  0  0  0
 37116  1  0  0  0
 38 43  2  0  0  0
 38 46  1  0  0  0
 38 47  1  0  0  0
 39 64  1  0  0  0
 39 67  2  0  0  0
 40 52  1  0  0  0
 40 53  2  0  0  0
 40 58  1  0  0  0
 41117  1  0  0  0
 41118  1  0  0  0
 41119  1  0  0  0
 41 48  1  0  0  0
 42 43  1  0  0  0
 42 66  1  0  0  0
 42120  1  0  0  0
 42121  1  0  0  0
 43 44  1  0  0  0
 44122  1  0  0  0
 45 46  2  0  0  0
 45123  1  0  0  0
 46124  1  0  0  0
 47125  1  0  0  0
 47126  1  0  0  0
 48 56  1  0  0  0
 48 65  1  0  0  0
 48127  1  0  0  0
 49 50  1  0  0  0
 49 53  1  0  0  0
 49 64  1  0  0  0
 49128  1  0  0  0
 50 51  1  0  0  0
 50129  1  0  0  0
 50130  1  0  0  0
 51 52  1  0  0  0
 51131  1  0  0  0
 51132  1  0  0  0
 52133  1  0  0  0
 52134  1  0  0  0
 53 54  1  0  0  0
 54 55  2  0  0  0
 54135  1  0  0  0
 55 57  1  0  0  0
 55136  1  0  0  0
 56 69  2  0  0  0
 57 58  2  0  0  0
 57137  1  0  0  0
 58138  1  0  0  0
 59 60  1  0  0  0
 59 61  1  0  0  0
 59 62  1  0  0  0
 60139  1  0  0  0
 60140  1  0  0  0
 60141  1  0  0  0
 61142  1  0  0  0
 61143  1  0  0  0
 61144  1  0  0  0
 62145  1  0  0  0
 62146  1  0  0  0
 62147  1  0  0  0
 63 65  1  0  0  0
 63148  1  0  0  0
 63149  1  0  0  0
 63150  1  0  0  0
 64151  1  0  0  0
 65152  1  0  0  0
 68 88  1  0  0  0
 71 72  2  0  0  0
 71 73  1  0  0  0
 71153  1  0  0  0
 72 75  1  0  0  0
 72154  1  0  0  0
 73 76  2  0  0  0
 73155  1  0  0  0
 74 75  2  0  0  0
 74 76  1  0  0  0
 74 77  1  0  0  0
 75 90  1  0  0  0
 76 91  1  0  0  0
 77 81  1  0  0  0
 77 92  2  0  0  0
 78 85  1  0  0  0
 78 90  1  0  0  0
 78 93  2  0  0  0
 79 80  1  0  0  0
 79 81  1  0  0  0
 79156  1  0  0  0
 79157  1  0  0  0
 80 81  1  0  0  0
 80158  1  0  0  0
 80159  1  0  0  0
 81 82  1  0  0  0
 82160  1  0  0  0
 82161  1  0  0  0
 82162  1  0  0  0
 83163  1  0  0  0
 83164  1  0  0  0
 83165  1  0  0  0
 83 89  1  0  0  0
 84 89  1  0  0  0
 84166  1  0  0  0
 84167  1  0  0  0
 84168  1  0  0  0
 85 86  1  0  0  0
 85169  1  0  0  0
 85170  1  0  0  0
 86 89  1  0  0  0
 86171  1  0  0  0
 86172  1  0  0  0
 87 88  1  0  0  0
 87 89  1  0  0  0
 87173  1  0  0  0
 87174  1  0  0  0
 88175  1  0  0  0
 88176  1  0  0  0
 90177  1  0  0  0
 91178  1  0  0  0
M  ISO  4   1 100  68 101  88 101  91 100
M  END
> <chiral flag>
0

> <version>
0

> <s_m_source_file>
/data/baiqing/PycharmProjects/Reinvent-master-3.2/result/LINK_invent/BTK/process_docking_weight1_custom_product_contain_oxygen_bond_distance_aromatic_linkinvent_7_9_3/rearranged_h_0144.sdf

> <i_m_source_file_index>
17

> <r_mmod_Potential_Energy-OPLS-2005>
13332.169921875

> <r_mmod_Stretch_Energy-OPLS-2005>
6172.69873046875

> <r_mmod_Bend_Energy-OPLS-2005>
963.46240234375

> <r_mmod_Torsional_Energy-OPLS-2005>
690.840637207031

> <r_mmod_Improper_Torsional_Energy-OPLS-2005>
49.3764877319336

> <r_mmod_Van_der_Waal_Energy-OPLS-2005>
1933.62182617188

> <r_mmod_Electrostatic_Energy-OPLS-2005>
-338.925628662109

> <r_mmod_Solvation_Energy-OPLS-2005>
-207.932601928711

> <b_mmod_Minimization_Converged-OPLS-2005>
0

> <r_mmod_RMS_Derivative-OPLS-2005>
9.00677490234375

$$$$
17
                    3D
 Structure written by MMmdl.
171179  0  0  1  0            999 V2000
  -30.7476  -14.3794   20.6653 C   0  0  0  0  0  0
  -30.4144  -12.2847   19.4016 C   0  0  0  0  0  0
  -29.4827  -12.5235   18.1961 C   0  0  0  0  0  0
  -28.0041  -12.3860   18.6120 C   0  0  0  0  0  0
  -27.6654  -13.2024   19.8875 C   0  0  2  0  0  0
  -28.7034  -12.9320   20.9980 C   0  0  0  0  0  0
  -25.2614  -13.8191   20.5729 C   0  0  0  0  0  0
  -24.1834  -13.0475   20.9199 C   0  0  0  0  0  0
  -24.6387  -11.6928   20.8777 C   0  0  0  0  0  0
  -23.9068  -10.4319   21.0425 C   0  0  0  0  0  0
  -24.3621   -9.4221   21.9186 C   0  0  0  0  0  0
  -23.6287   -8.2260   22.0760 C   0  0  0  0  0  0
  -22.4273   -8.0307   21.3562 C   0  0  0  0  0  0
  -21.9919   -9.0284   20.4658 C   0  0  0  0  0  0
  -22.7253  -10.2157   20.3061 C   0  0  0  0  0  0
  -21.6845   -6.0767   22.5279 C   0  0  0  0  0  0
  -21.4009   -6.5658   23.8211 C   0  0  0  0  0  0
  -21.3655   -5.6815   24.9174 C   0  0  0  0  0  0
  -21.6026   -4.3076   24.7230 C   0  0  0  0  0  0
  -21.8819   -3.8173   23.4357 C   0  0  0  0  0  0
  -21.9192   -4.6985   22.3409 C   0  0  0  0  0  0
  -22.7845  -13.5256   21.1838 C   0  0  0  0  0  0
  -22.1680   -4.2169   21.0991 F   0  0  0  0  0  0
  -21.5606   -3.4554   25.7747 F   0  0  0  0  0  0
  -30.0426  -13.2358   20.4595 N   0  0  0  0  0  0
  -26.3044  -12.9336   20.3453 N   0  0  0  0  0  0
  -25.9309  -11.6503   20.5818 N   0  0  0  0  0  0
  -22.0467  -12.8262   22.0404 N   0  0  0  0  0  0
  -25.4427  -15.1891   20.4135 N   0  0  0  0  0  0
  -31.8033  -14.6214   20.0707 O   0  0  0  0  0  0
  -21.6655   -6.8898   21.4234 O   0  0  0  0  0  0
  -22.3542  -14.5562   20.6676 O   0  0  0  0  0  0
  -24.6109  -31.8695   23.2131 C   0  0  0  0  0  0
  -25.9016  -32.4823   23.8399 C   0  0  1  0  0  0
  -27.2264  -27.4523   20.1060 C   0  0  0  0  0  0
  -25.5866  -33.8620   24.2315 N   0  0  0  0  0  0
  -23.3978  -30.4947   21.5516 C   0  0  2  0  0  0
  -24.8445  -28.9635   20.1148 C   0  0  0  0  0  0
  -22.7398  -29.4667   22.4999 C   0  0  0  0  0  0
  -18.0280  -28.1357   22.8503 C   0  0  0  0  0  0
  -24.1501  -36.7339   23.2636 C   0  0  0  0  0  0
  -25.9246  -30.8394   21.3669 C   0  0  0  0  0  0
  -26.0017  -29.4721   20.7238 C   0  0  0  0  0  0
  -27.1959  -28.7193   20.7266 C   0  0  0  0  0  0
  -26.0688  -26.9670   19.4674 C   0  0  0  0  0  0
  -24.8710  -27.7062   19.4868 C   0  0  0  0  0  0
  -23.6064  -29.8286   20.1648 C   0  0  0  0  0  0
  -25.4116  -36.3109   24.0330 C   0  0  1  0  0  0
  -20.5867  -28.3635   23.1336 C   0  0  2  0  0  0
  -20.6760  -26.9369   22.5430 C   0  0  0  0  0  0
  -19.5739  -26.6363   21.5219 C   0  0  0  0  0  0
  -18.1921  -26.7902   22.1635 C   0  0  0  0  0  0
  -19.1527  -28.8816   23.2916 C   0  0  0  0  0  0
  -18.9442  -30.1423   23.8914 C   0  0  0  0  0  0
  -17.6438  -30.6562   24.0561 C   0  0  0  0  0  0
  -25.9033  -34.9474   23.5129 C   0  0  0  0  0  0
  -16.5340  -29.9060   23.6320 C   0  0  0  0  0  0
  -16.7261  -28.6485   23.0341 C   0  0  0  0  0  0
  -26.4465  -31.6607   25.0731 C   0  0  0  0  0  0
  -25.3750  -31.3698   26.1494 C   0  0  0  0  0  0
  -27.0293  -30.3031   24.6129 C   0  0  0  0  0  0
  -27.6031  -32.4353   25.7483 C   0  0  0  0  0  0
  -27.5594  -37.1833   24.8457 C   0  0  0  0  0  0
  -21.4129  -29.3014   22.3747 N   0  0  0  0  0  0
  -26.4308  -37.3789   23.9396 N   0  0  0  0  0  0
  -24.6618  -31.0831   22.1022 N   0  0  0  0  0  0
  -23.4194  -28.8201   23.3014 O   0  0  0  0  0  0
  -28.3739  -26.7018   20.0804 O   0  0  0  0  0  0
  -26.5611  -34.8931   22.4700 O   0  0  0  0  0  0
  -23.5316  -32.1429   23.7565 O   0  0  0  0  0  0
  -29.9737  -17.1290   23.0532 C   0  0  0  0  0  0
  -31.4610  -17.3545   21.1395 C   0  0  0  0  0  0
  -31.1444  -19.2304   22.6633 C   0  0  0  0  0  0
  -30.5737  -16.5583   21.9070 C   0  0  0  0  0  0
  -30.2364  -18.4648   23.4316 C   0  0  0  0  0  0
  -31.7502  -18.6759   21.5237 C   0  0  0  0  0  0
  -29.0573  -23.4413   21.9270 C   0  0  0  0  0  0
  -27.0343  -19.9304   23.6988 C   0  0  0  0  0  0
  -28.5153  -23.9501   19.5211 C   0  0  0  0  0  0
  -26.7070  -24.0727   21.2570 C   0  0  0  0  0  0
  -28.7855  -23.4457   23.4369 C   0  0  0  0  0  0
  -27.8522  -22.3146   23.9373 C   0  0  0  0  0  0
  -29.3492  -20.3529   24.6618 C   0  0  0  0  0  0
  -28.5774  -25.8503   21.2195 C   0  0  0  0  0  0
  -28.2743  -20.8433   23.6625 C   0  0  1  0  0  0
  -28.2060  -24.3455   20.9873 C   0  0  0  0  0  0
  -30.2116  -15.2181   21.5692 N   0  0  0  0  0  0
  -29.9629  -22.7246   21.4885 O   0  0  0  0  0  0
  -29.5917  -18.9485   24.5508 O   0  0  0  0  0  0
  -32.6110  -19.4205   20.7883 F   0  0  0  0  0  0
  -31.4593  -12.3776   19.1037 H   0  0  0  0  0  0
  -30.3092  -11.2626   19.7701 H   0  0  0  0  0  0
  -29.7101  -11.8231   17.3910 H   0  0  0  0  0  0
  -29.6589  -13.5197   17.7869 H   0  0  0  0  0  0
  -27.8041  -11.3279   18.7828 H   0  0  0  0  0  0
  -27.3495  -12.6917   17.7948 H   0  0  0  0  0  0
  -27.7285  -14.2581   19.6246 H   0  0  0  0  0  0
  -28.6657  -11.8813   21.2882 H   0  0  0  0  0  0
  -28.4570  -13.4835   21.9043 H   0  0  0  0  0  0
  -25.2781   -9.5684   22.4749 H   0  0  0  0  0  0
  -24.0001   -7.4628   22.7468 H   0  0  0  0  0  0
  -21.0866   -8.8807   19.8943 H   0  0  0  0  0  0
  -22.3738  -10.9694   19.6160 H   0  0  0  0  0  0
  -21.2020   -7.6163   23.9726 H   0  0  0  0  0  0
  -21.1467   -6.0543   25.9074 H   0  0  0  0  0  0
  -22.0605   -2.7639   23.2847 H   0  0  0  0  0  0
  -22.4068  -11.9922   22.4798 H   0  0  0  0  0  0
  -21.1097  -13.1312   22.2654 H   0  0  0  0  0  0
  -24.6907  -15.8608   20.5239 H   0  0  0  0  0  0
  -26.3157  -15.6198   20.1297 H   0  0  0  0  0  0
  -26.7115  -32.5555   23.1190 H   0  0  0  0  0  0
  -24.9968  -33.9772   25.0429 H   0  0  0  0  0  0
  -22.6838  -31.3093   21.4161 H   0  0  0  0  0  0
  -23.3740  -35.9699   23.3302 H   0  0  0  0  0  0
  -24.3599  -36.8959   22.2050 H   0  0  0  0  0  0
  -23.7300  -37.6563   23.6662 H   0  0  0  0  0  0
  -26.0379  -31.6028   20.5960 H   0  0  0  0  0  0
  -26.8123  -30.8925   21.9851 H   0  0  0  0  0  0
  -28.0889  -29.1031   21.1989 H   0  0  0  0  0  0
  -26.0943  -26.0199   18.9488 H   0  0  0  0  0  0
  -23.9872  -27.3148   19.0012 H   0  0  0  0  0  0
  -23.7109  -30.6036   19.4044 H   0  0  0  0  0  0
  -22.7312  -29.2471   19.8704 H   0  0  0  0  0  0
  -25.1304  -36.1972   25.0825 H   0  0  0  0  0  0
  -20.9971  -28.3191   24.1444 H   0  0  0  0  0  0
  -20.5657  -26.2221   23.3606 H   0  0  0  0  0  0
  -21.6630  -26.7393   22.1228 H   0  0  0  0  0  0
  -19.6889  -25.6279   21.1223 H   0  0  0  0  0  0
  -19.6686  -27.3192   20.6764 H   0  0  0  0  0  0
  -17.4191  -26.6653   21.4034 H   0  0  0  0  0  0
  -18.0329  -26.0025   22.9011 H   0  0  0  0  0  0
  -19.7911  -30.7242   24.2285 H   0  0  0  0  0  0
  -17.4985  -31.6239   24.5157 H   0  0  0  0  0  0
  -15.5339  -30.2961   23.7613 H   0  0  0  0  0  0
  -15.8668  -28.0802   22.7035 H   0  0  0  0  0  0
  -24.5914  -30.7055   25.7836 H   0  0  0  0  0  0
  -24.8947  -32.2840   26.4986 H   0  0  0  0  0  0
  -25.8106  -30.8838   27.0228 H   0  0  0  0  0  0
  -26.2822  -29.6788   24.1207 H   0  0  0  0  0  0
  -27.4058  -29.7287   25.4607 H   0  0  0  0  0  0
  -27.8668  -30.4314   23.9269 H   0  0  0  0  0  0
  -27.2621  -33.3630   26.2092 H   0  0  0  0  0  0
  -28.3797  -32.6968   25.0284 H   0  0  0  0  0  0
  -28.0750  -31.8477   26.5371 H   0  0  0  0  0  0
  -28.2607  -38.0131   24.7480 H   0  0  0  0  0  0
  -28.1092  -36.2659   24.6299 H   0  0  0  0  0  0
  -27.2305  -37.1506   25.8857 H   0  0  0  0  0  0
  -20.9269  -29.8755   21.7004 H   0  0  0  0  0  0
  -26.0192  -38.2879   24.1352 H   0  0  0  0  0  0
  -29.2856  -16.5444   23.6503 H   0  0  0  0  0  0
  -31.9340  -16.9858   20.2426 H   0  0  0  0  0  0
  -31.3963  -20.2460   22.9250 H   0  0  0  0  0  0
  -26.2713  -20.2710   22.9971 H   0  0  0  0  0  0
  -26.5883  -19.8974   24.6938 H   0  0  0  0  0  0
  -27.2818  -18.9085   23.4106 H   0  0  0  0  0  0
  -29.5719  -24.0859   19.2838 H   0  0  0  0  0  0
  -27.9452  -24.5422   18.8078 H   0  0  0  0  0  0
  -28.2661  -22.9059   19.3248 H   0  0  0  0  0  0
  -26.4966  -23.0025   21.2847 H   0  0  0  0  0  0
  -26.0639  -24.4746   20.4793 H   0  0  0  0  0  0
  -26.3754  -24.5033   22.2005 H   0  0  0  0  0  0
  -28.3523  -24.4106   23.6989 H   0  0  0  0  0  0
  -29.7399  -23.3983   23.9598 H   0  0  0  0  0  0
  -26.8636  -22.4866   23.5162 H   0  0  0  0  0  0
  -27.7158  -22.4431   25.0114 H   0  0  0  0  0  0
  -28.9923  -20.5236   25.6754 H   0  0  0  0  0  0
  -30.2680  -20.9349   24.5856 H   0  0  0  0  0  0
  -29.6371  -25.9331   21.4629 H   0  0  0  0  0  0
  -28.0565  -26.2431   22.0941 H   0  0  0  0  0  0
  -28.6782  -20.7629   22.6546 H   0  0  0  0  0  0
  -29.4046  -14.8451   22.0471 H   0  0  0  0  0  0
  1 25  1  0  0  0
  1 30  2  0  0  0
  1 87  1  0  0  0
  2  3  1  0  0  0
  2 25  1  0  0  0
  2 91  1  0  0  0
  2 92  1  0  0  0
  3  4  1  0  0  0
  3 93  1  0  0  0
  3 94  1  0  0  0
  4  5  1  0  0  0
  4 95  1  0  0  0
  4 96  1  0  0  0
  5  6  1  0  0  0
  5 26  1  0  0  0
  5 97  1  0  0  0
  6 25  1  0  0  0
  6 98  1  0  0  0
  6 99  1  0  0  0
  7  8  2  0  0  0
  7 26  1  0  0  0
  7 29  1  0  0  0
  8  9  1  0  0  0
  8 22  1  0  0  0
  9 10  1  0  0  0
  9 27  2  0  0  0
 10 11  2  0  0  0
 10 15  1  0  0  0
 11 12  1  0  0  0
 11100  1  0  0  0
 12 13  2  0  0  0
 12101  1  0  0  0
 13 14  1  0  0  0
 13 31  1  0  0  0
 14 15  2  0  0  0
 14102  1  0  0  0
 15103  1  0  0  0
 16 17  2  0  0  0
 16 21  1  0  0  0
 16 31  1  0  0  0
 17 18  1  0  0  0
 17104  1  0  0  0
 18 19  2  0  0  0
 18105  1  0  0  0
 19 20  1  0  0  0
 19 24  1  0  0  0
 20 21  2  0  0  0
 20106  1  0  0  0
 21 23  1  0  0  0
 22 28  1  0  0  0
 22 32  2  0  0  0
 26 27  1  0  0  0
 28107  1  0  0  0
 28108  1  0  0  0
 29109  1  0  0  0
 29110  1  0  0  0
 33 34  1  0  0  0
 33 66  1  0  0  0
 33 70  2  0  0  0
 34 36  1  0  0  0
 34 59  1  0  0  0
 34111  1  0  0  0
 35 44  2  0  0  0
 35 45  1  0  0  0
 35 68  1  0  0  0
 36 56  1  0  0  0
 36112  1  0  0  0
 37 39  1  0  0  0
 37 47  1  0  0  0
 37 66  1  0  0  0
 37113  1  0  0  0
 38 43  2  0  0  0
 38 46  1  0  0  0
 38 47  1  0  0  0
 39 64  1  0  0  0
 39 67  2  0  0  0
 40 52  1  0  0  0
 40 53  2  0  0  0
 40 58  1  0  0  0
 41114  1  0  0  0
 41115  1  0  0  0
 41116  1  0  0  0
 41 48  1  0  0  0
 42 43  1  0  0  0
 42 66  1  0  0  0
 42117  1  0  0  0
 42118  1  0  0  0
 43 44  1  0  0  0
 44119  1  0  0  0
 45 46  2  0  0  0
 45120  1  0  0  0
 46121  1  0  0  0
 47122  1  0  0  0
 47123  1  0  0  0
 48 56  1  0  0  0
 48 65  1  0  0  0
 48124  1  0  0  0
 49 50  1  0  0  0
 49 53  1  0  0  0
 49 64  1  0  0  0
 49125  1  0  0  0
 50 51  1  0  0  0
 50126  1  0  0  0
 50127  1  0  0  0
 51 52  1  0  0  0
 51128  1  0  0  0
 51129  1  0  0  0
 52130  1  0  0  0
 52131  1  0  0  0
 53 54  1  0  0  0
 54 55  2  0  0  0
 54132  1  0  0  0
 55 57  1  0  0  0
 55133  1  0  0  0
 56 69  2  0  0  0
 57 58  2  0  0  0
 57134  1  0  0  0
 58135  1  0  0  0
 59 60  1  0  0  0
 59 61  1  0  0  0
 59 62  1  0  0  0
 60136  1  0  0  0
 60137  1  0  0  0
 60138  1  0  0  0
 61139  1  0  0  0
 61140  1  0  0  0
 61141  1  0  0  0
 62142  1  0  0  0
 62143  1  0  0  0
 62144  1  0  0  0
 63 65  1  0  0  0
 63145  1  0  0  0
 63146  1  0  0  0
 63147  1  0  0  0
 64148  1  0  0  0
 65149  1  0  0  0
 68 84  1  0  0  0
 71 74  2  0  0  0
 71 75  1  0  0  0
 71150  1  0  0  0
 72 74  1  0  0  0
 72 76  2  0  0  0
 72151  1  0  0  0
 73 75  2  0  0  0
 73 76  1  0  0  0
 73152  1  0  0  0
 74 87  1  0  0  0
 75 89  1  0  0  0
 76 90  1  0  0  0
 77 81  1  0  0  0
 77 86  1  0  0  0
 77 88  2  0  0  0
 78153  1  0  0  0
 78154  1  0  0  0
 78155  1  0  0  0
 78 85  1  0  0  0
 79156  1  0  0  0
 79157  1  0  0  0
 79158  1  0  0  0
 79 86  1  0  0  0
 80 86  1  0  0  0
 80159  1  0  0  0
 80160  1  0  0  0
 80161  1  0  0  0
 81 82  1  0  0  0
 81162  1  0  0  0
 81163  1  0  0  0
 82 85  1  0  0  0
 82164  1  0  0  0
 82165  1  0  0  0
 83 85  1  0  0  0
 83 89  1  0  0  0
 83166  1  0  0  0
 83167  1  0  0  0
 84 86  1  0  0  0
 84168  1  0  0  0
 84169  1  0  0  0
 85170  1  0  0  0
 87171  1  0  0  0
M  ISO  4   1 100  68 101  84 101  87 100
M  END
> <chiral flag>
0

> <version>
0

> <s_m_source_file>
/data/baiqing/PycharmProjects/Reinvent-master-3.2/result/LINK_invent/BTK/process_docking_weight1_custom_product_contain_oxygen_bond_distance_aromatic_linkinvent_7_9_3/rearranged_h_0144.sdf

> <i_m_source_file_index>
18

> <r_mmod_Potential_Energy-OPLS-2005>
23.2438812255859

> <r_mmod_Stretch_Energy-OPLS-2005>
39.4692039489746

> <r_mmod_Bend_Energy-OPLS-2005>
115.011123657227

> <r_mmod_Torsional_Energy-OPLS-2005>
254.446136474609

> <r_mmod_Improper_Torsional_Energy-OPLS-2005>
1.81071269512177

> <r_mmod_Van_der_Waal_Energy-OPLS-2005>
161.052947998047

> <r_mmod_Electrostatic_Energy-OPLS-2005>
-348.169311523438

> <r_mmod_Solvation_Energy-OPLS-2005>
-208.129150390625

> <b_mmod_Minimization_Converged-OPLS-2005>
0

> <r_mmod_RMS_Derivative-OPLS-2005>
3.15291690826416

$$$$
18
                    3D
 Structure written by MMmdl.
157166  0  0  1  0            999 V2000
  -30.6435  -14.5437   20.6120 C   0  0  0  0  0  0
  -30.4397  -12.3580   19.4359 C   0  0  0  0  0  0
  -29.5035  -12.5229   18.2166 C   0  0  0  0  0  0
  -28.0245  -12.3640   18.6230 C   0  0  0  0  0  0
  -27.6613  -13.2053   19.8744 C   0  0  2  0  0  0
  -28.6979  -12.9758   20.9963 C   0  0  0  0  0  0
  -25.2578  -13.8136   20.5647 C   0  0  0  0  0  0
  -24.1826  -13.0421   20.9157 C   0  0  0  0  0  0
  -24.6382  -11.6892   20.8719 C   0  0  0  0  0  0
  -23.9050  -10.4281   21.0405 C   0  0  0  0  0  0
  -24.3611   -9.4204   21.9185 C   0  0  0  0  0  0
  -23.6291   -8.2240   22.0755 C   0  0  0  0  0  0
  -22.4273   -8.0276   21.3545 C   0  0  0  0  0  0
  -21.9905   -9.0247   20.4646 C   0  0  0  0  0  0
  -22.7230  -10.2124   20.3049 C   0  0  0  0  0  0
  -21.6851   -6.0738   22.5284 C   0  0  0  0  0  0
  -21.4014   -6.5639   23.8219 C   0  0  0  0  0  0
  -21.3658   -5.6794   24.9180 C   0  0  0  0  0  0
  -21.6039   -4.3055   24.7232 C   0  0  0  0  0  0
  -21.8818   -3.8147   23.4353 C   0  0  0  0  0  0
  -21.9189   -4.6965   22.3407 C   0  0  0  0  0  0
  -22.7852  -13.5228   21.1832 C   0  0  0  0  0  0
  -22.1660   -4.2153   21.0987 F   0  0  0  0  0  0
  -21.5625   -3.4533   25.7743 F   0  0  0  0  0  0
  -30.0330  -13.3269   20.4717 N   0  0  0  0  0  0
  -26.3016  -12.9308   20.3329 N   0  0  0  0  0  0
  -25.9308  -11.6471   20.5745 N   0  0  0  0  0  0
  -22.0495  -12.8229   22.0399 N   0  0  0  0  0  0
  -25.4255  -15.1849   20.4038 N   0  0  0  0  0  0
  -31.7096  -14.8199   20.0517 O   0  0  0  0  0  0
  -21.6629   -6.8880   21.4250 O   0  0  0  0  0  0
  -22.3535  -14.5536   20.6686 O   0  0  0  0  0  0
  -24.6218  -31.8637   23.2045 C   0  0  0  0  0  0
  -25.9075  -32.4802   23.8357 C   0  0  1  0  0  0
  -27.2274  -27.3489   20.1241 C   0  0  0  0  0  0
  -25.5907  -33.8607   24.2291 N   0  0  0  0  0  0
  -23.4159  -30.4858   21.5461 C   0  0  2  0  0  0
  -24.8641  -28.9426   20.1188 C   0  0  0  0  0  0
  -22.7445  -29.4643   22.4937 C   0  0  0  0  0  0
  -18.0285  -28.1399   22.8492 C   0  0  0  0  0  0
  -24.1488  -36.7289   23.2635 C   0  0  0  0  0  0
  -25.9530  -30.8049   21.3710 C   0  0  0  0  0  0
  -26.0314  -29.4330   20.7163 C   0  0  0  0  0  0
  -27.2199  -28.6489   20.7104 C   0  0  0  0  0  0
  -26.0390  -26.9040   19.5129 C   0  0  0  0  0  0
  -24.8649  -27.6781   19.5110 C   0  0  0  0  0  0
  -23.6325  -29.8211   20.1610 C   0  0  0  0  0  0
  -25.4115  -36.3103   24.0332 C   0  0  1  0  0  0
  -20.5884  -28.3688   23.1290 C   0  0  2  0  0  0
  -20.6790  -26.9415   22.5418 C   0  0  0  0  0  0
  -19.5772  -26.6396   21.5220 C   0  0  0  0  0  0
  -18.1948  -26.7945   22.1624 C   0  0  0  0  0  0
  -19.1549  -28.8858   23.2890 C   0  0  0  0  0  0
  -18.9475  -30.1454   23.8907 C   0  0  0  0  0  0
  -17.6485  -30.6610   24.0566 C   0  0  0  0  0  0
  -25.9050  -34.9475   23.5108 C   0  0  0  0  0  0
  -16.5364  -29.9114   23.6341 C   0  0  0  0  0  0
  -16.7277  -28.6524   23.0354 C   0  0  0  0  0  0
  -26.4476  -31.6606   25.0707 C   0  0  0  0  0  0
  -25.3718  -31.3775   26.1440 C   0  0  0  0  0  0
  -27.0297  -30.3028   24.6137 C   0  0  0  0  0  0
  -27.6024  -32.4335   25.7501 C   0  0  0  0  0  0
  -27.5586  -37.1813   24.8467 C   0  0  0  0  0  0
  -21.4170  -29.3052   22.3679 N   0  0  0  0  0  0
  -26.4297  -37.3792   23.9419 N   0  0  0  0  0  0
  -24.6827  -31.0658   22.0987 N   0  0  0  0  0  0
  -23.4179  -28.8173   23.3016 O   0  0  0  0  0  0
  -28.3537  -26.5239   20.0997 O   0  0  0  0  0  0
  -26.5603  -34.8937   22.4672 O   0  0  0  0  0  0
  -23.5391  -32.1413   23.7397 O   0  0  0  0  0  0
  -30.2333  -17.8886   20.8328 C   0  0  0  0  0  0
  -28.1814  -18.7940   21.4763 C   0  0  0  0  0  0
  -29.4106  -19.0892   20.9571 C   0  0  0  0  0  0
  -29.6189  -16.7191   21.2835 C   0  0  0  0  0  0
  -28.9924  -22.7580   20.5287 C   0  0  0  0  0  0
  -28.3675  -23.9014   20.0865 C   0  0  0  0  0  0
  -29.8545  -22.5913   21.7573 C   0  0  0  0  0  0
  -28.9189  -21.3567   19.8977 C   0  0  0  0  0  0
  -30.5481  -21.2138   21.6074 C   0  0  0  0  0  0
  -27.5399  -23.8621   18.8124 C   0  0  0  0  0  0
  -28.2918  -25.2639   20.8598 C   0  0  0  0  0  0
  -29.8178  -20.4253   20.6132 N   0  0  0  0  0  0
  -30.0050  -15.4064   21.4394 N   0  0  0  0  0  0
  -28.0131  -17.1061   21.8540 S   0  0  0  0  0  0
  -31.4811  -12.4910   19.1367 H   0  0  0  0  0  0
  -30.3724  -11.3424   19.8322 H   0  0  0  0  0  0
  -29.7585  -11.7930   17.4469 H   0  0  0  0  0  0
  -29.6522  -13.5060   17.7696 H   0  0  0  0  0  0
  -27.8465  -11.3065   18.8259 H   0  0  0  0  0  0
  -27.3712  -12.6236   17.7884 H   0  0  0  0  0  0
  -27.7074  -14.2536   19.5810 H   0  0  0  0  0  0
  -28.6894  -11.9273   21.2988 H   0  0  0  0  0  0
  -28.4226  -13.5285   21.8947 H   0  0  0  0  0  0
  -25.2760   -9.5673   22.4753 H   0  0  0  0  0  0
  -23.9998   -7.4626   22.7473 H   0  0  0  0  0  0
  -21.0835   -8.8765   19.8954 H   0  0  0  0  0  0
  -22.3699  -10.9658   19.6147 H   0  0  0  0  0  0
  -21.2010   -7.6148   23.9729 H   0  0  0  0  0  0
  -21.1477   -6.0519   25.9085 H   0  0  0  0  0  0
  -22.0597   -2.7612   23.2849 H   0  0  0  0  0  0
  -22.4115  -11.9887   22.4775 H   0  0  0  0  0  0
  -21.1115  -13.1256   22.2607 H   0  0  0  0  0  0
  -24.6623  -15.8412   20.5274 H   0  0  0  0  0  0
  -26.2874  -15.6284   20.1128 H   0  0  0  0  0  0
  -26.7125  -32.5486   23.1101 H   0  0  0  0  0  0
  -25.0105  -33.9758   25.0469 H   0  0  0  0  0  0
  -22.7105  -31.3047   21.4022 H   0  0  0  0  0  0
  -23.3765  -35.9606   23.3317 H   0  0  0  0  0  0
  -24.3578  -36.8880   22.2041 H   0  0  0  0  0  0
  -23.7231  -37.6497   23.6633 H   0  0  0  0  0  0
  -26.0777  -31.5721   20.6054 H   0  0  0  0  0  0
  -26.8345  -30.8532   21.9992 H   0  0  0  0  0  0
  -28.1187  -29.0273   21.1761 H   0  0  0  0  0  0
  -26.0048  -25.9488   19.0242 H   0  0  0  0  0  0
  -23.9690  -27.2926   19.0450 H   0  0  0  0  0  0
  -23.7595  -30.5988   19.4074 H   0  0  0  0  0  0
  -22.7528  -29.2524   19.8529 H   0  0  0  0  0  0
  -25.1310  -36.1956   25.0821 H   0  0  0  0  0  0
  -20.9968  -28.3255   24.1414 H   0  0  0  0  0  0
  -20.5719  -26.2280   23.3615 H   0  0  0  0  0  0
  -21.6657  -26.7496   22.1191 H   0  0  0  0  0  0
  -19.6947  -25.6311   21.1245 H   0  0  0  0  0  0
  -19.6719  -27.3201   20.6749 H   0  0  0  0  0  0
  -17.4225  -26.6676   21.4014 H   0  0  0  0  0  0
  -18.0344  -26.0104   22.9032 H   0  0  0  0  0  0
  -19.7948  -30.7265   24.2268 H   0  0  0  0  0  0
  -17.5054  -31.6292   24.5166 H   0  0  0  0  0  0
  -15.5366  -30.3034   23.7682 H   0  0  0  0  0  0
  -15.8670  -28.0869   22.7063 H   0  0  0  0  0  0
  -24.5894  -30.7109   25.7809 H   0  0  0  0  0  0
  -24.8907  -32.2952   26.4824 H   0  0  0  0  0  0
  -25.8046  -30.9014   27.0244 H   0  0  0  0  0  0
  -26.2859  -29.6827   24.1116 H   0  0  0  0  0  0
  -27.3949  -29.7237   25.4626 H   0  0  0  0  0  0
  -27.8749  -30.4321   23.9380 H   0  0  0  0  0  0
  -27.2608  -33.3634   26.2071 H   0  0  0  0  0  0
  -28.3856  -32.6894   25.0356 H   0  0  0  0  0  0
  -28.0652  -31.8460   26.5446 H   0  0  0  0  0  0
  -28.2614  -38.0105   24.7528 H   0  0  0  0  0  0
  -28.1072  -36.2637   24.6282 H   0  0  0  0  0  0
  -27.2297  -37.1444   25.8868 H   0  0  0  0  0  0
  -20.9327  -29.8770   21.6903 H   0  0  0  0  0  0
  -26.0185  -38.2865   24.1442 H   0  0  0  0  0  0
  -31.2415  -17.9297   20.4446 H   0  0  0  0  0  0
  -27.3622  -19.4668   21.6943 H   0  0  0  0  0  0
  -29.2152  -22.5948   22.6404 H   0  0  0  0  0  0
  -30.5812  -23.3988   21.8581 H   0  0  0  0  0  0
  -29.2020  -21.4017   18.8477 H   0  0  0  0  0  0
  -27.8884  -21.0026   19.9433 H   0  0  0  0  0  0
  -30.6120  -20.6998   22.5695 H   0  0  0  0  0  0
  -31.5698  -21.3531   21.2492 H   0  0  0  0  0  0
  -27.7068  -22.9617   18.2226 H   0  0  0  0  0  0
  -27.7859  -24.7092   18.1727 H   0  0  0  0  0  0
  -26.4800  -23.8847   19.0579 H   0  0  0  0  0  0
  -29.0871  -25.2922   21.6032 H   0  0  0  0  0  0
  -27.3675  -25.2415   21.4397 H   0  0  0  0  0  0
  -29.3533  -14.8912   22.0117 H   0  0  0  0  0  0
  1 25  1  0  0  0
  1 30  2  0  0  0
  1 83  1  0  0  0
  2  3  1  0  0  0
  2 25  1  0  0  0
  2 85  1  0  0  0
  2 86  1  0  0  0
  3  4  1  0  0  0
  3 87  1  0  0  0
  3 88  1  0  0  0
  4  5  1  0  0  0
  4 89  1  0  0  0
  4 90  1  0  0  0
  5  6  1  0  0  0
  5 26  1  0  0  0
  5 91  1  0  0  0
  6 25  1  0  0  0
  6 92  1  0  0  0
  6 93  1  0  0  0
  7  8  2  0  0  0
  7 26  1  0  0  0
  7 29  1  0  0  0
  8  9  1  0  0  0
  8 22  1  0  0  0
  9 10  1  0  0  0
  9 27  2  0  0  0
 10 11  2  0  0  0
 10 15  1  0  0  0
 11 12  1  0  0  0
 11 94  1  0  0  0
 12 13  2  0  0  0
 12 95  1  0  0  0
 13 14  1  0  0  0
 13 31  1  0  0  0
 14 15  2  0  0  0
 14 96  1  0  0  0
 15 97  1  0  0  0
 16 17  2  0  0  0
 16 21  1  0  0  0
 16 31  1  0  0  0
 17 18  1  0  0  0
 17 98  1  0  0  0
 18 19  2  0  0  0
 18 99  1  0  0  0
 19 20  1  0  0  0
 19 24  1  0  0  0
 20 21  2  0  0  0
 20100  1  0  0  0
 21 23  1  0  0  0
 22 28  1  0  0  0
 22 32  2  0  0  0
 26 27  1  0  0  0
 28101  1  0  0  0
 28102  1  0  0  0
 29103  1  0  0  0
 29104  1  0  0  0
 33 34  1  0  0  0
 33 66  1  0  0  0
 33 70  2  0  0  0
 34 36  1  0  0  0
 34 59  1  0  0  0
 34105  1  0  0  0
 35 44  2  0  0  0
 35 45  1  0  0  0
 35 68  1  0  0  0
 36 56  1  0  0  0
 36106  1  0  0  0
 37 39  1  0  0  0
 37 47  1  0  0  0
 37 66  1  0  0  0
 37107  1  0  0  0
 38 43  2  0  0  0
 38 46  1  0  0  0
 38 47  1  0  0  0
 39 64  1  0  0  0
 39 67  2  0  0  0
 40 52  1  0  0  0
 40 53  2  0  0  0
 40 58  1  0  0  0
 41108  1  0  0  0
 41109  1  0  0  0
 41110  1  0  0  0
 41 48  1  0  0  0
 42 43  1  0  0  0
 42 66  1  0  0  0
 42111  1  0  0  0
 42112  1  0  0  0
 43 44  1  0  0  0
 44113  1  0  0  0
 45 46  2  0  0  0
 45114  1  0  0  0
 46115  1  0  0  0
 47116  1  0  0  0
 47117  1  0  0  0
 48 56  1  0  0  0
 48 65  1  0  0  0
 48118  1  0  0  0
 49 50  1  0  0  0
 49 53  1  0  0  0
 49 64  1  0  0  0
 49119  1  0  0  0
 50 51  1  0  0  0
 50120  1  0  0  0
 50121  1  0  0  0
 51 52  1  0  0  0
 51122  1  0  0  0
 51123  1  0  0  0
 52124  1  0  0  0
 52125  1  0  0  0
 53 54  1  0  0  0
 54 55  2  0  0  0
 54126  1  0  0  0
 55 57  1  0  0  0
 55127  1  0  0  0
 56 69  2  0  0  0
 57 58  2  0  0  0
 57128  1  0  0  0
 58129  1  0  0  0
 59 60  1  0  0  0
 59 61  1  0  0  0
 59 62  1  0  0  0
 60130  1  0  0  0
 60131  1  0  0  0
 60132  1  0  0  0
 61133  1  0  0  0
 61134  1  0  0  0
 61135  1  0  0  0
 62136  1  0  0  0
 62137  1  0  0  0
 62138  1  0  0  0
 63 65  1  0  0  0
 63139  1  0  0  0
 63140  1  0  0  0
 63141  1  0  0  0
 64142  1  0  0  0
 65143  1  0  0  0
 68 81  1  0  0  0
 71 73  1  0  0  0
 71 74  2  0  0  0
 71144  1  0  0  0
 72 73  2  0  0  0
 72 84  1  0  0  0
 72145  1  0  0  0
 73 82  1  0  0  0
 74 83  1  0  0  0
 74 84  1  0  0  0
 75 76  2  0  0  0
 75 77  1  0  0  0
 75 78  1  0  0  0
 76 80  1  0  0  0
 76 81  1  0  0  0
 77 79  1  0  0  0
 77146  1  0  0  0
 77147  1  0  0  0
 78 82  1  0  0  0
 78148  1  0  0  0
 78149  1  0  0  0
 79 82  1  0  0  0
 79150  1  0  0  0
 79151  1  0  0  0
 80152  1  0  0  0
 80153  1  0  0  0
 80154  1  0  0  0
 81155  1  0  0  0
 81156  1  0  0  0
 83157  1  0  0  0
M  ISO  4   1 100  68 101  81 101  83 100
M  END
> <chiral flag>
0

> <version>
0

> <s_m_source_file>
/data/baiqing/PycharmProjects/Reinvent-master-3.2/result/LINK_invent/BTK/process_docking_weight1_custom_product_contain_oxygen_bond_distance_aromatic_linkinvent_7_9_3/rearranged_h_0144.sdf

> <i_m_source_file_index>
19

> <r_mmod_Potential_Energy-OPLS-2005>
62.3209800720215

> <r_mmod_Stretch_Energy-OPLS-2005>
60.3371391296387

> <r_mmod_Bend_Energy-OPLS-2005>
155.803451538086

> <r_mmod_Torsional_Energy-OPLS-2005>
299.564422607422

> <r_mmod_Improper_Torsional_Energy-OPLS-2005>
8.76527404785156

> <r_mmod_Van_der_Waal_Energy-OPLS-2005>
115.911491394043

> <r_mmod_Electrostatic_Energy-OPLS-2005>
-382.660034179688

> <r_mmod_Solvation_Energy-OPLS-2005>
-224.190231323242

> <b_mmod_Minimization_Converged-OPLS-2005>
0

> <r_mmod_RMS_Derivative-OPLS-2005>
2.86346864700317

$$$$
19
                    3D
 Structure written by MMmdl.
162171  0  0  1  0            999 V2000
  -30.6742  -14.5974   20.5059 C   0  0  0  0  0  0
  -30.4217  -12.3686   19.4490 C   0  0  0  0  0  0
  -29.4967  -12.4954   18.2208 C   0  0  0  0  0  0
  -28.0207  -12.3490   18.6325 C   0  0  0  0  0  0
  -27.6500  -13.2229   19.8606 C   0  0  2  0  0  0
  -28.6953  -13.0901   20.9925 C   0  0  0  0  0  0
  -25.2546  -13.8221   20.5701 C   0  0  0  0  0  0
  -24.1816  -13.0475   20.9187 C   0  0  0  0  0  0
  -24.6384  -11.6941   20.8734 C   0  0  0  0  0  0
  -23.9050  -10.4319   21.0392 C   0  0  0  0  0  0
  -24.3600   -9.4241   21.9180 C   0  0  0  0  0  0
  -23.6284   -8.2275   22.0748 C   0  0  0  0  0  0
  -22.4276   -8.0294   21.3539 C   0  0  0  0  0  0
  -21.9899   -9.0263   20.4646 C   0  0  0  0  0  0
  -22.7219  -10.2154   20.3041 C   0  0  0  0  0  0
  -21.6855   -6.0734   22.5277 C   0  0  0  0  0  0
  -21.4020   -6.5624   23.8212 C   0  0  0  0  0  0
  -21.3662   -5.6775   24.9167 C   0  0  0  0  0  0
  -21.6035   -4.3037   24.7217 C   0  0  0  0  0  0
  -21.8825   -3.8134   23.4339 C   0  0  0  0  0  0
  -21.9209   -4.6961   22.3397 C   0  0  0  0  0  0
  -22.7836  -13.5272   21.1818 C   0  0  0  0  0  0
  -22.1668   -4.2150   21.0971 F   0  0  0  0  0  0
  -21.5624   -3.4517   25.7726 F   0  0  0  0  0  0
  -30.0156  -13.4011   20.4248 N   0  0  0  0  0  0
  -26.2967  -12.9412   20.3314 N   0  0  0  0  0  0
  -25.9309  -11.6552   20.5720 N   0  0  0  0  0  0
  -22.0459  -12.8282   22.0372 N   0  0  0  0  0  0
  -25.4241  -15.1948   20.4125 N   0  0  0  0  0  0
  -31.8403  -14.7027   20.1185 O   0  0  0  0  0  0
  -21.6643   -6.8890   21.4244 O   0  0  0  0  0  0
  -22.3536  -14.5583   20.6659 O   0  0  0  0  0  0
  -24.6196  -31.8620   23.2060 C   0  0  0  0  0  0
  -25.9080  -32.4783   23.8353 C   0  0  1  0  0  0
  -27.2305  -27.3577   20.1068 C   0  0  0  0  0  0
  -25.5935  -33.8582   24.2307 N   0  0  0  0  0  0
  -23.4103  -30.4902   21.5450 C   0  0  2  0  0  0
  -24.8563  -28.9434   20.1117 C   0  0  0  0  0  0
  -22.7440  -29.4651   22.4916 C   0  0  0  0  0  0
  -18.0289  -28.1375   22.8495 C   0  0  0  0  0  0
  -24.1497  -36.7297   23.2637 C   0  0  0  0  0  0
  -25.9453  -30.8069   21.3685 C   0  0  0  0  0  0
  -26.0200  -29.4354   20.7118 C   0  0  0  0  0  0
  -27.2055  -28.6523   20.7026 C   0  0  0  0  0  0
  -26.0381  -26.8970   19.5016 C   0  0  0  0  0  0
  -24.8645  -27.6754   19.5048 C   0  0  0  0  0  0
  -23.6248  -29.8250   20.1582 C   0  0  0  0  0  0
  -25.4120  -36.3082   24.0328 C   0  0  1  0  0  0
  -20.5879  -28.3699   23.1301 C   0  0  2  0  0  0
  -20.6810  -26.9408   22.5432 C   0  0  0  0  0  0
  -19.5781  -26.6335   21.5241 C   0  0  0  0  0  0
  -18.1940  -26.7930   22.1618 C   0  0  0  0  0  0
  -19.1540  -28.8852   23.2898 C   0  0  0  0  0  0
  -18.9466  -30.1451   23.8913 C   0  0  0  0  0  0
  -17.6478  -30.6598   24.0558 C   0  0  0  0  0  0
  -25.9043  -34.9447   23.5104 C   0  0  0  0  0  0
  -16.5372  -29.9101   23.6313 C   0  0  0  0  0  0
  -16.7288  -28.6509   23.0343 C   0  0  0  0  0  0
  -26.4512  -31.6579   25.0705 C   0  0  0  0  0  0
  -25.3781  -31.3709   26.1465 C   0  0  0  0  0  0
  -27.0346  -30.3008   24.6110 C   0  0  0  0  0  0
  -27.6069  -32.4304   25.7480 C   0  0  0  0  0  0
  -27.5587  -37.1809   24.8463 C   0  0  0  0  0  0
  -21.4151  -29.3082   22.3700 N   0  0  0  0  0  0
  -26.4305  -37.3776   23.9409 N   0  0  0  0  0  0
  -24.6771  -31.0691   22.0977 N   0  0  0  0  0  0
  -23.4205  -28.8158   23.2934 O   0  0  0  0  0  0
  -28.3954  -26.5894   20.1537 O   0  0  0  0  0  0
  -26.5572  -34.8907   22.4646 O   0  0  0  0  0  0
  -23.5382  -32.1400   23.7430 O   0  0  0  0  0  0
  -31.5693  -19.0539   20.0487 C   0  0  0  0  0  0
  -30.5826  -19.9721   20.4658 C   0  0  0  0  0  0
  -31.3831  -17.6588   20.1792 C   0  0  0  0  0  0
  -29.1993  -18.0703   21.1270 C   0  0  0  0  0  0
  -29.3826  -19.4933   21.0229 C   0  0  0  0  0  0
  -30.1867  -17.1204   20.7215 C   0  0  0  0  0  0
  -28.3507  -20.4109   21.5925 C   0  0  0  0  0  0
  -28.3543  -24.0438   20.5542 C   0  0  0  0  0  0
  -25.8104  -22.4120   20.0041 C   0  0  0  0  0  0
  -27.0201  -22.4391   19.0564 C   0  0  0  0  0  0
  -26.3502  -21.8085   21.3157 C   0  0  0  0  0  0
  -28.2197  -22.5425   20.0082 C   0  0  2  0  0  0
  -28.4847  -25.2507   19.5538 C   0  0  0  0  0  0
  -27.7952  -21.5603   21.0678 N   0  0  0  0  0  0
  -29.9296  -15.6854   20.8711 N   0  0  0  0  0  0
  -27.8785  -20.0256   22.7807 N   0  3  0  0  0  0
  -28.3566  -24.2779   21.7676 O   0  0  0  0  0  0
  -31.4647  -12.4625   19.1414 H   0  0  0  0  0  0
  -30.3294  -11.3792   19.8985 H   0  0  0  0  0  0
  -29.7464  -11.7313   17.4836 H   0  0  0  0  0  0
  -29.6512  -13.4564   17.7288 H   0  0  0  0  0  0
  -27.8491  -11.2968   18.8579 H   0  0  0  0  0  0
  -27.3645  -12.5834   17.7933 H   0  0  0  0  0  0
  -27.6690  -14.2561   19.5133 H   0  0  0  0  0  0
  -28.6983  -12.0801   21.4053 H   0  0  0  0  0  0
  -28.4461  -13.7537   21.8208 H   0  0  0  0  0  0
  -25.2748   -9.5732   22.4759 H   0  0  0  0  0  0
  -24.0000   -7.4676   22.7470 H   0  0  0  0  0  0
  -21.0820   -8.8772   19.8968 H   0  0  0  0  0  0
  -22.3657  -10.9681   19.6139 H   0  0  0  0  0  0
  -21.1999   -7.6135   23.9709 H   0  0  0  0  0  0
  -21.1474   -6.0501   25.9071 H   0  0  0  0  0  0
  -22.0603   -2.7599   23.2830 H   0  0  0  0  0  0
  -22.4058  -11.9972   22.4813 H   0  0  0  0  0  0
  -21.1063  -13.1321   22.2518 H   0  0  0  0  0  0
  -24.6532  -15.8430   20.5331 H   0  0  0  0  0  0
  -26.2519  -15.6355   20.0302 H   0  0  0  0  0  0
  -26.7136  -32.5482   23.1097 H   0  0  0  0  0  0
  -25.0220  -33.9734   25.0542 H   0  0  0  0  0  0
  -22.7014  -31.3082   21.4054 H   0  0  0  0  0  0
  -23.3746  -35.9639   23.3291 H   0  0  0  0  0  0
  -24.3600  -36.8911   22.2051 H   0  0  0  0  0  0
  -23.7249  -37.6506   23.6647 H   0  0  0  0  0  0
  -26.0681  -31.5748   20.6032 H   0  0  0  0  0  0
  -26.8280  -30.8566   21.9933 H   0  0  0  0  0  0
  -28.1018  -29.0335   21.1742 H   0  0  0  0  0  0
  -25.9748  -25.9267   19.0359 H   0  0  0  0  0  0
  -23.9658  -27.2858   19.0454 H   0  0  0  0  0  0
  -23.7490  -30.6019   19.4025 H   0  0  0  0  0  0
  -22.7424  -29.2605   19.8530 H   0  0  0  0  0  0
  -25.1297  -36.1937   25.0821 H   0  0  0  0  0  0
  -20.9958  -28.3316   24.1419 H   0  0  0  0  0  0
  -20.5729  -26.2292   23.3634 H   0  0  0  0  0  0
  -21.6670  -26.7456   22.1215 H   0  0  0  0  0  0
  -19.6928  -25.6211   21.1347 H   0  0  0  0  0  0
  -19.6740  -27.3086   20.6721 H   0  0  0  0  0  0
  -17.4240  -26.6729   21.3982 H   0  0  0  0  0  0
  -18.0291  -26.0025   22.8960 H   0  0  0  0  0  0
  -19.7940  -30.7252   24.2301 H   0  0  0  0  0  0
  -17.5054  -31.6286   24.5142 H   0  0  0  0  0  0
  -15.5376  -30.3031   23.7620 H   0  0  0  0  0  0
  -15.8688  -28.0840   22.7035 H   0  0  0  0  0  0
  -24.5940  -30.7073   25.7838 H   0  0  0  0  0  0
  -24.9020  -32.2883   26.4929 H   0  0  0  0  0  0
  -25.8153  -30.8887   27.0216 H   0  0  0  0  0  0
  -26.2902  -29.6752   24.1186 H   0  0  0  0  0  0
  -27.4137  -29.7278   25.4585 H   0  0  0  0  0  0
  -27.8727  -30.4330   23.9260 H   0  0  0  0  0  0
  -27.2669  -33.3581   26.2098 H   0  0  0  0  0  0
  -28.3871  -32.6890   25.0307 H   0  0  0  0  0  0
  -28.0748  -31.8402   26.5378 H   0  0  0  0  0  0
  -28.2601  -38.0114   24.7510 H   0  0  0  0  0  0
  -28.1081  -36.2636   24.6280 H   0  0  0  0  0  0
  -27.2303  -37.1455   25.8869 H   0  0  0  0  0  0
  -20.9286  -29.8957   21.7064 H   0  0  0  0  0  0
  -26.0170  -38.2848   24.1405 H   0  0  0  0  0  0
  -32.4976  -19.4239   19.6362 H   0  0  0  0  0  0
  -30.7724  -21.0345   20.3915 H   0  0  0  0  0  0
  -32.1927  -17.0270   19.8499 H   0  0  0  0  0  0
  -28.2746  -17.6982   21.5461 H   0  0  0  0  0  0
  -24.9901  -21.8276   19.5875 H   0  0  0  0  0  0
  -25.4334  -23.4173   20.1905 H   0  0  0  0  0  0
  -26.9478  -23.2372   18.3184 H   0  0  0  0  0  0
  -27.0834  -21.5026   18.4987 H   0  0  0  0  0  0
  -25.8033  -20.8845   21.5193 H   0  0  0  0  0  0
  -26.1985  -22.4732   22.1668 H   0  0  0  0  0  0
  -29.1378  -22.2412   19.5066 H   0  0  0  0  0  0
  -27.8160  -25.1410   18.7052 H   0  0  0  0  0  0
  -29.4858  -25.1705   19.1309 H   0  0  0  0  0  0
  -29.0096  -15.4446   21.2045 H   0  0  0  0  0  0
  -28.3301  -19.2553   23.2453 H   0  0  0  0  0  0
  -27.3098  -20.6441   23.3317 H   0  0  0  0  0  0
  1 25  1  0  0  0
  1 30  2  0  0  0
  1 85  1  0  0  0
  2  3  1  0  0  0
  2 25  1  0  0  0
  2 88  1  0  0  0
  2 89  1  0  0  0
  3  4  1  0  0  0
  3 90  1  0  0  0
  3 91  1  0  0  0
  4  5  1  0  0  0
  4 92  1  0  0  0
  4 93  1  0  0  0
  5  6  1  0  0  0
  5 26  1  0  0  0
  5 94  1  0  0  0
  6 25  1  0  0  0
  6 95  1  0  0  0
  6 96  1  0  0  0
  7  8  2  0  0  0
  7 26  1  0  0  0
  7 29  1  0  0  0
  8  9  1  0  0  0
  8 22  1  0  0  0
  9 10  1  0  0  0
  9 27  2  0  0  0
 10 11  2  0  0  0
 10 15  1  0  0  0
 11 12  1  0  0  0
 11 97  1  0  0  0
 12 13  2  0  0  0
 12 98  1  0  0  0
 13 14  1  0  0  0
 13 31  1  0  0  0
 14 15  2  0  0  0
 14 99  1  0  0  0
 15100  1  0  0  0
 16 17  2  0  0  0
 16 21  1  0  0  0
 16 31  1  0  0  0
 17 18  1  0  0  0
 17101  1  0  0  0
 18 19  2  0  0  0
 18102  1  0  0  0
 19 20  1  0  0  0
 19 24  1  0  0  0
 20 21  2  0  0  0
 20103  1  0  0  0
 21 23  1  0  0  0
 22 28  1  0  0  0
 22 32  2  0  0  0
 26 27  1  0  0  0
 28104  1  0  0  0
 28105  1  0  0  0
 29106  1  0  0  0
 29107  1  0  0  0
 33 34  1  0  0  0
 33 66  1  0  0  0
 33 70  2  0  0  0
 34 36  1  0  0  0
 34 59  1  0  0  0
 34108  1  0  0  0
 35 44  2  0  0  0
 35 45  1  0  0  0
 35 68  1  0  0  0
 36 56  1  0  0  0
 36109  1  0  0  0
 37 39  1  0  0  0
 37 47  1  0  0  0
 37 66  1  0  0  0
 37110  1  0  0  0
 38 43  2  0  0  0
 38 46  1  0  0  0
 38 47  1  0  0  0
 39 64  1  0  0  0
 39 67  2  0  0  0
 40 52  1  0  0  0
 40 53  2  0  0  0
 40 58  1  0  0  0
 41111  1  0  0  0
 41112  1  0  0  0
 41113  1  0  0  0
 41 48  1  0  0  0
 42 43  1  0  0  0
 42 66  1  0  0  0
 42114  1  0  0  0
 42115  1  0  0  0
 43 44  1  0  0  0
 44116  1  0  0  0
 45 46  2  0  0  0
 45117  1  0  0  0
 46118  1  0  0  0
 47119  1  0  0  0
 47120  1  0  0  0
 48 56  1  0  0  0
 48 65  1  0  0  0
 48121  1  0  0  0
 49 50  1  0  0  0
 49 53  1  0  0  0
 49 64  1  0  0  0
 49122  1  0  0  0
 50 51  1  0  0  0
 50123  1  0  0  0
 50124  1  0  0  0
 51 52  1  0  0  0
 51125  1  0  0  0
 51126  1  0  0  0
 52127  1  0  0  0
 52128  1  0  0  0
 53 54  1  0  0  0
 54 55  2  0  0  0
 54129  1  0  0  0
 55 57  1  0  0  0
 55130  1  0  0  0
 56 69  2  0  0  0
 57 58  2  0  0  0
 57131  1  0  0  0
 58132  1  0  0  0
 59 60  1  0  0  0
 59 61  1  0  0  0
 59 62  1  0  0  0
 60133  1  0  0  0
 60134  1  0  0  0
 60135  1  0  0  0
 61136  1  0  0  0
 61137  1  0  0  0
 61138  1  0  0  0
 62139  1  0  0  0
 62140  1  0  0  0
 62141  1  0  0  0
 63 65  1  0  0  0
 63142  1  0  0  0
 63143  1  0  0  0
 63144  1  0  0  0
 64145  1  0  0  0
 65146  1  0  0  0
 68 83  1  0  0  0
 71 72  2  0  0  0
 71 73  1  0  0  0
 71147  1  0  0  0
 72 75  1  0  0  0
 72148  1  0  0  0
 73 76  2  0  0  0
 73149  1  0  0  0
 74 75  2  0  0  0
 74 76  1  0  0  0
 74150  1  0  0  0
 75 77  1  0  0  0
 76 85  1  0  0  0
 77 84  1  0  0  0
 77 86  2  0  0  0
 78 83  1  0  0  0
 78 87  2  0  0  0
 78 82  1  0  0  0
 79 80  1  0  0  0
 79 81  1  0  0  0
 79151  1  0  0  0
 79152  1  0  0  0
 80 82  1  0  0  0
 80153  1  0  0  0
 80154  1  0  0  0
 81 84  1  0  0  0
 81155  1  0  0  0
 81156  1  0  0  0
 82 84  1  0  0  0
 82157  1  0  0  0
 83158  1  0  0  0
 83159  1  0  0  0
 85160  1  0  0  0
 86161  1  0  0  0
 86162  1  0  0  0
M  CHG  1  86   1
M  ISO  4   1 100  68 101  83 101  85 100
M  END
> <chiral flag>
0

> <version>
0

> <s_m_source_file>
/data/baiqing/PycharmProjects/Reinvent-master-3.2/result/LINK_invent/BTK/process_docking_weight1_custom_product_contain_oxygen_bond_distance_aromatic_linkinvent_7_9_3/rearranged_h_0144.sdf

> <i_m_source_file_index>
20

> <r_mmod_Potential_Energy-OPLS-2005>
-16.2948951721191

> <r_mmod_Stretch_Energy-OPLS-2005>
73.4437561035156

> <r_mmod_Bend_Energy-OPLS-2005>
189.94694519043

> <r_mmod_Torsional_Energy-OPLS-2005>
293.770812988281

> <r_mmod_Improper_Torsional_Energy-OPLS-2005>
5.87732744216919

> <r_mmod_Van_der_Waal_Energy-OPLS-2005>
156.106948852539

> <r_mmod_Electrostatic_Energy-OPLS-2005>
-339.557434082031

> <r_mmod_Solvation_Energy-OPLS-2005>
-429.717895507812

> <b_mmod_Minimization_Converged-OPLS-2005>
0

> <r_mmod_RMS_Derivative-OPLS-2005>
3.16217470169067

$$$$
20
                    3D
 Structure written by MMmdl.
165174  0  0  1  0            999 V2000
  -30.6543  -14.5224   20.5523 C   0  0  0  0  0  0
  -30.4379  -12.3315   19.4264 C   0  0  0  0  0  0
  -29.5037  -12.5118   18.2098 C   0  0  0  0  0  0
  -28.0226  -12.3660   18.6185 C   0  0  0  0  0  0
  -27.6620  -13.2037   19.8740 C   0  0  2  0  0  0
  -28.7050  -12.9828   20.9934 C   0  0  0  0  0  0
  -25.2590  -13.8138   20.5672 C   0  0  0  0  0  0
  -24.1838  -13.0426   20.9176 C   0  0  0  0  0  0
  -24.6388  -11.6893   20.8732 C   0  0  0  0  0  0
  -23.9047  -10.4278   21.0396 C   0  0  0  0  0  0
  -24.3593   -9.4200   21.9181 C   0  0  0  0  0  0
  -23.6275   -8.2236   22.0754 C   0  0  0  0  0  0
  -22.4261   -8.0272   21.3544 C   0  0  0  0  0  0
  -21.9891   -9.0248   20.4654 C   0  0  0  0  0  0
  -22.7217  -10.2125   20.3051 C   0  0  0  0  0  0
  -21.6850   -6.0725   22.5276 C   0  0  0  0  0  0
  -21.4012   -6.5632   23.8208 C   0  0  0  0  0  0
  -21.3659   -5.6787   24.9173 C   0  0  0  0  0  0
  -21.6046   -4.3051   24.7224 C   0  0  0  0  0  0
  -21.8816   -3.8141   23.4346 C   0  0  0  0  0  0
  -21.9195   -4.6954   22.3402 C   0  0  0  0  0  0
  -22.7861  -13.5230   21.1838 C   0  0  0  0  0  0
  -22.1659   -4.2138   21.0977 F   0  0  0  0  0  0
  -21.5634   -3.4532   25.7736 F   0  0  0  0  0  0
  -30.0331  -13.3133   20.4451 N   0  0  0  0  0  0
  -26.3025  -12.9306   20.3347 N   0  0  0  0  0  0
  -25.9311  -11.6471   20.5741 N   0  0  0  0  0  0
  -22.0489  -12.8240   22.0403 N   0  0  0  0  0  0
  -25.4314  -15.1846   20.4043 N   0  0  0  0  0  0
  -31.7912  -14.7347   20.1199 O   0  0  0  0  0  0
  -21.6633   -6.8868   21.4239 O   0  0  0  0  0  0
  -22.3561  -14.5550   20.6698 O   0  0  0  0  0  0
  -24.6165  -31.8675   23.2086 C   0  0  0  0  0  0
  -25.9051  -32.4820   23.8392 C   0  0  1  0  0  0
  -27.2361  -27.4139   20.1084 C   0  0  0  0  0  0
  -25.5904  -33.8615   24.2329 N   0  0  0  0  0  0
  -23.4050  -30.4891   21.5507 C   0  0  2  0  0  0
  -24.8516  -28.9473   20.1214 C   0  0  0  0  0  0
  -22.7417  -29.4660   22.5008 C   0  0  0  0  0  0
  -18.0263  -28.1372   22.8489 C   0  0  0  0  0  0
  -24.1489  -36.7306   23.2642 C   0  0  0  0  0  0
  -25.9356  -30.8262   21.3644 C   0  0  0  0  0  0
  -26.0131  -29.4580   20.7141 C   0  0  0  0  0  0
  -27.2102  -28.7012   20.6981 C   0  0  0  0  0  0
  -26.0574  -26.9228   19.5071 C   0  0  0  0  0  0
  -24.8691  -27.6791   19.5149 C   0  0  0  0  0  0
  -23.6139  -29.8160   20.1677 C   0  0  0  0  0  0
  -25.4110  -36.3112   24.0345 C   0  0  1  0  0  0
  -20.5856  -28.3666   23.1324 C   0  0  2  0  0  0
  -20.6760  -26.9404   22.5419 C   0  0  0  0  0  0
  -19.5742  -26.6378   21.5214 C   0  0  0  0  0  0
  -18.1913  -26.7920   22.1613 C   0  0  0  0  0  0
  -19.1511  -28.8836   23.2898 C   0  0  0  0  0  0
  -18.9438  -30.1442   23.8910 C   0  0  0  0  0  0
  -17.6442  -30.6589   24.0556 C   0  0  0  0  0  0
  -25.9041  -34.9478   23.5136 C   0  0  0  0  0  0
  -16.5334  -29.9086   23.6326 C   0  0  0  0  0  0
  -16.7252  -28.6498   23.0353 C   0  0  0  0  0  0
  -26.4468  -31.6603   25.0729 C   0  0  0  0  0  0
  -25.3726  -31.3715   26.1475 C   0  0  0  0  0  0
  -27.0290  -30.3041   24.6114 C   0  0  0  0  0  0
  -27.6058  -32.4316   25.7480 C   0  0  0  0  0  0
  -27.5589  -37.1806   24.8467 C   0  0  0  0  0  0
  -21.4144  -29.3035   22.3735 N   0  0  0  0  0  0
  -26.4299  -37.3797   23.9414 N   0  0  0  0  0  0
  -24.6706  -31.0760   22.0991 N   0  0  0  0  0  0
  -23.4180  -28.8208   23.3058 O   0  0  0  0  0  0
  -28.4096  -26.6834   20.0764 O   0  0  0  0  0  0
  -26.5594  -34.8929   22.4693 O   0  0  0  0  0  0
  -23.5352  -32.1435   23.7467 O   0  0  0  0  0  0
  -30.7889  -19.1863   21.1566 C   0  0  0  0  0  0
  -30.8748  -17.7761   21.3282 C   0  0  0  0  0  0
  -28.8466  -17.4722   20.0060 C   0  0  0  0  0  0
  -28.7974  -18.8720   19.8293 C   0  0  0  0  0  0
  -29.7268  -19.7348   20.4007 C   0  0  0  0  0  0
  -29.9017  -16.9063   20.7642 C   0  0  0  0  0  0
  -27.7763  -19.6473   19.0583 C   0  0  0  0  0  0
  -28.2531  -21.1018   19.2590 C   0  0  0  0  0  0
  -31.5839  -23.0758   19.8304 C   0  0  0  0  0  0
  -30.8860  -24.1612   21.9424 C   0  0  0  0  0  0
  -29.4805  -24.4630   19.8451 C   0  0  0  0  0  0
  -29.6358  -22.1290   21.1417 C   0  0  0  0  0  0
  -28.3711  -25.3133   20.5378 C   0  0  0  0  0  0
  -30.3487  -23.4498   20.6808 C   0  0  0  0  0  0
  -29.4545  -21.0922   20.1081 N   0  0  0  0  0  0
  -29.8680  -15.5039   21.0494 N   0  0  0  0  0  0
  -31.4807  -12.4506   19.1265 H   0  0  0  0  0  0
  -30.3564  -11.3198   19.8257 H   0  0  0  0  0  0
  -29.7492  -11.7848   17.4349 H   0  0  0  0  0  0
  -29.6671  -13.4953   17.7657 H   0  0  0  0  0  0
  -27.8352  -11.3095   18.8137 H   0  0  0  0  0  0
  -27.3751  -12.6409   17.7845 H   0  0  0  0  0  0
  -27.7041  -14.2503   19.5734 H   0  0  0  0  0  0
  -28.6930  -11.9426   21.3214 H   0  0  0  0  0  0
  -28.4587  -13.5648   21.8827 H   0  0  0  0  0  0
  -25.2728   -9.5692   22.4760 H   0  0  0  0  0  0
  -23.9990   -7.4626   22.7468 H   0  0  0  0  0  0
  -21.0825   -8.8766   19.8955 H   0  0  0  0  0  0
  -22.3671  -10.9664   19.6163 H   0  0  0  0  0  0
  -21.2000   -7.6138   23.9708 H   0  0  0  0  0  0
  -21.1489   -6.0517   25.9076 H   0  0  0  0  0  0
  -22.0600   -2.7605   23.2845 H   0  0  0  0  0  0
  -22.4066  -11.9885   22.4799 H   0  0  0  0  0  0
  -21.1118  -13.1309   22.2600 H   0  0  0  0  0  0
  -24.6641  -15.8402   20.4998 H   0  0  0  0  0  0
  -26.2765  -15.6159   20.0564 H   0  0  0  0  0  0
  -26.7118  -32.5529   23.1152 H   0  0  0  0  0  0
  -25.0080  -33.9769   25.0493 H   0  0  0  0  0  0
  -22.6947  -31.3061   21.4095 H   0  0  0  0  0  0
  -23.3759  -35.9633   23.3310 H   0  0  0  0  0  0
  -24.3591  -36.8902   22.2057 H   0  0  0  0  0  0
  -23.7233  -37.6513   23.6642 H   0  0  0  0  0  0
  -26.0508  -31.5907   20.5953 H   0  0  0  0  0  0
  -26.8221  -30.8801   21.9843 H   0  0  0  0  0  0
  -28.1092  -29.0958   21.1495 H   0  0  0  0  0  0
  -26.0534  -25.9587   19.0188 H   0  0  0  0  0  0
  -23.9759  -27.2794   19.0545 H   0  0  0  0  0  0
  -23.7226  -30.5878   19.4052 H   0  0  0  0  0  0
  -22.7374  -29.2355   19.8747 H   0  0  0  0  0  0
  -25.1281  -36.1985   25.0839 H   0  0  0  0  0  0
  -20.9927  -28.3225   24.1456 H   0  0  0  0  0  0
  -20.5675  -26.2268   23.3598 H   0  0  0  0  0  0
  -21.6633  -26.7462   22.1216 H   0  0  0  0  0  0
  -19.6916  -25.6291   21.1239 H   0  0  0  0  0  0
  -19.6691  -27.3188   20.6744 H   0  0  0  0  0  0
  -17.4193  -26.6672   21.4004 H   0  0  0  0  0  0
  -18.0311  -26.0058   22.9006 H   0  0  0  0  0  0
  -19.7919  -30.7240   24.2297 H   0  0  0  0  0  0
  -17.5007  -31.6278   24.5141 H   0  0  0  0  0  0
  -15.5335  -30.2988   23.7663 H   0  0  0  0  0  0
  -15.8647  -28.0818   22.7079 H   0  0  0  0  0  0
  -24.5883  -30.7083   25.7806 H   0  0  0  0  0  0
  -24.8929  -32.2869   26.4954 H   0  0  0  0  0  0
  -25.8067  -30.8852   27.0221 H   0  0  0  0  0  0
  -26.2832  -29.6811   24.1163 H   0  0  0  0  0  0
  -27.4043  -29.7277   25.4580 H   0  0  0  0  0  0
  -27.8682  -30.4353   23.9277 H   0  0  0  0  0  0
  -27.2705  -33.3621   26.2077 H   0  0  0  0  0  0
  -28.3856  -32.6863   25.0290 H   0  0  0  0  0  0
  -28.0744  -31.8423   26.5372 H   0  0  0  0  0  0
  -28.2611  -38.0100   24.7514 H   0  0  0  0  0  0
  -28.1066  -36.2625   24.6277 H   0  0  0  0  0  0
  -27.2301  -37.1461   25.8868 H   0  0  0  0  0  0
  -20.9313  -29.8741   21.6939 H   0  0  0  0  0  0
  -26.0188  -38.2883   24.1384 H   0  0  0  0  0  0
  -31.5377  -19.8272   21.5984 H   0  0  0  0  0  0
  -31.6804  -17.3681   21.9219 H   0  0  0  0  0  0
  -28.0800  -16.8495   19.5691 H   0  0  0  0  0  0
  -26.7759  -19.4869   19.4617 H   0  0  0  0  0  0
  -27.7850  -19.3601   18.0061 H   0  0  0  0  0  0
  -27.4625  -21.7045   19.7088 H   0  0  0  0  0  0
  -28.4952  -21.5583   18.2985 H   0  0  0  0  0  0
  -32.1994  -23.9485   19.6090 H   0  0  0  0  0  0
  -31.2971  -22.6361   18.8747 H   0  0  0  0  0  0
  -32.2186  -22.3526   20.3440 H   0  0  0  0  0  0
  -31.3316  -25.1274   21.7022 H   0  0  0  0  0  0
  -31.6559  -23.5676   22.4371 H   0  0  0  0  0  0
  -30.1084  -24.3320   22.6866 H   0  0  0  0  0  0
  -30.1729  -25.1827   19.4065 H   0  0  0  0  0  0
  -29.0458  -23.9546   18.9847 H   0  0  0  0  0  0
  -28.6678  -22.3724   21.5831 H   0  0  0  0  0  0
  -30.2098  -21.6951   21.9616 H   0  0  0  0  0  0
  -28.5056  -25.3511   21.6167 H   0  0  0  0  0  0
  -27.4048  -24.8327   20.3841 H   0  0  0  0  0  0
  -28.9690  -15.1520   21.3392 H   0  0  0  0  0  0
  1 25  1  0  0  0
  1 30  2  0  0  0
  1 86  1  0  0  0
  2  3  1  0  0  0
  2 25  1  0  0  0
  2 87  1  0  0  0
  2 88  1  0  0  0
  3  4  1  0  0  0
  3 89  1  0  0  0
  3 90  1  0  0  0
  4  5  1  0  0  0
  4 91  1  0  0  0
  4 92  1  0  0  0
  5  6  1  0  0  0
  5 26  1  0  0  0
  5 93  1  0  0  0
  6 25  1  0  0  0
  6 94  1  0  0  0
  6 95  1  0  0  0
  7  8  2  0  0  0
  7 26  1  0  0  0
  7 29  1  0  0  0
  8  9  1  0  0  0
  8 22  1  0  0  0
  9 10  1  0  0  0
  9 27  2  0  0  0
 10 11  2  0  0  0
 10 15  1  0  0  0
 11 12  1  0  0  0
 11 96  1  0  0  0
 12 13  2  0  0  0
 12 97  1  0  0  0
 13 14  1  0  0  0
 13 31  1  0  0  0
 14 15  2  0  0  0
 14 98  1  0  0  0
 15 99  1  0  0  0
 16 17  2  0  0  0
 16 21  1  0  0  0
 16 31  1  0  0  0
 17 18  1  0  0  0
 17100  1  0  0  0
 18 19  2  0  0  0
 18101  1  0  0  0
 19 20  1  0  0  0
 19 24  1  0  0  0
 20 21  2  0  0  0
 20102  1  0  0  0
 21 23  1  0  0  0
 22 28  1  0  0  0
 22 32  2  0  0  0
 26 27  1  0  0  0
 28103  1  0  0  0
 28104  1  0  0  0
 29105  1  0  0  0
 29106  1  0  0  0
 33 34  1  0  0  0
 33 66  1  0  0  0
 33 70  2  0  0  0
 34 36  1  0  0  0
 34 59  1  0  0  0
 34107  1  0  0  0
 35 44  2  0  0  0
 35 45  1  0  0  0
 35 68  1  0  0  0
 36 56  1  0  0  0
 36108  1  0  0  0
 37 39  1  0  0  0
 37 47  1  0  0  0
 37 66  1  0  0  0
 37109  1  0  0  0
 38 43  2  0  0  0
 38 46  1  0  0  0
 38 47  1  0  0  0
 39 64  1  0  0  0
 39 67  2  0  0  0
 40 52  1  0  0  0
 40 53  2  0  0  0
 40 58  1  0  0  0
 41110  1  0  0  0
 41111  1  0  0  0
 41112  1  0  0  0
 41 48  1  0  0  0
 42 43  1  0  0  0
 42 66  1  0  0  0
 42113  1  0  0  0
 42114  1  0  0  0
 43 44  1  0  0  0
 44115  1  0  0  0
 45 46  2  0  0  0
 45116  1  0  0  0
 46117  1  0  0  0
 47118  1  0  0  0
 47119  1  0  0  0
 48 56  1  0  0  0
 48 65  1  0  0  0
 48120  1  0  0  0
 49 50  1  0  0  0
 49 53  1  0  0  0
 49 64  1  0  0  0
 49121  1  0  0  0
 50 51  1  0  0  0
 50122  1  0  0  0
 50123  1  0  0  0
 51 52  1  0  0  0
 51124  1  0  0  0
 51125  1  0  0  0
 52126  1  0  0  0
 52127  1  0  0  0
 53 54  1  0  0  0
 54 55  2  0  0  0
 54128  1  0  0  0
 55 57  1  0  0  0
 55129  1  0  0  0
 56 69  2  0  0  0
 57 58  2  0  0  0
 57130  1  0  0  0
 58131  1  0  0  0
 59 60  1  0  0  0
 59 61  1  0  0  0
 59 62  1  0  0  0
 60132  1  0  0  0
 60133  1  0  0  0
 60134  1  0  0  0
 61135  1  0  0  0
 61136  1  0  0  0
 61137  1  0  0  0
 62138  1  0  0  0
 62139  1  0  0  0
 62140  1  0  0  0
 63 65  1  0  0  0
 63141  1  0  0  0
 63142  1  0  0  0
 63143  1  0  0  0
 64144  1  0  0  0
 65145  1  0  0  0
 68 83  1  0  0  0
 71 72  2  0  0  0
 71 75  1  0  0  0
 71146  1  0  0  0
 72 76  1  0  0  0
 72147  1  0  0  0
 73 74  1  0  0  0
 73 76  2  0  0  0
 73148  1  0  0  0
 74 75  2  0  0  0
 74 77  1  0  0  0
 75 85  1  0  0  0
 76 86  1  0  0  0
 77 78  1  0  0  0
 77149  1  0  0  0
 77150  1  0  0  0
 78 85  1  0  0  0
 78151  1  0  0  0
 78152  1  0  0  0
 79153  1  0  0  0
 79154  1  0  0  0
 79155  1  0  0  0
 79 84  1  0  0  0
 80 84  1  0  0  0
 80156  1  0  0  0
 80157  1  0  0  0
 80158  1  0  0  0
 81 83  1  0  0  0
 81 84  1  0  0  0
 81159  1  0  0  0
 81160  1  0  0  0
 82 84  1  0  0  0
 82 85  1  0  0  0
 82161  1  0  0  0
 82162  1  0  0  0
 83163  1  0  0  0
 83164  1  0  0  0
 86165  1  0  0  0
M  ISO  4   1 100  68 101  83 101  86 100
M  END
> <chiral flag>
0

> <version>
0

> <s_m_source_file>
/data/baiqing/PycharmProjects/Reinvent-master-3.2/result/LINK_invent/BTK/process_docking_weight1_custom_product_contain_oxygen_bond_distance_aromatic_linkinvent_7_9_3/rearranged_h_0144.sdf

> <i_m_source_file_index>
21

> <r_mmod_Potential_Energy-OPLS-2005>
41.2241439819336

> <r_mmod_Stretch_Energy-OPLS-2005>
47.121467590332

> <r_mmod_Bend_Energy-OPLS-2005>
155.902008056641

> <r_mmod_Torsional_Energy-OPLS-2005>
295.2021484375

> <r_mmod_Improper_Torsional_Energy-OPLS-2005>
8.78814888000488

> <r_mmod_Van_der_Waal_Energy-OPLS-2005>
142.028457641602

> <r_mmod_Electrostatic_Energy-OPLS-2005>
-408.899597167969

> <r_mmod_Solvation_Energy-OPLS-2005>
-215.766265869141

> <b_mmod_Minimization_Converged-OPLS-2005>
0

> <r_mmod_RMS_Derivative-OPLS-2005>
1.52162206172943

$$$$
21
                    3D
 Structure written by MMmdl.
169177  0  0  1  0            999 V2000
  -30.7028  -14.3891   20.6755 C   0  0  0  0  0  0
  -30.4321  -12.2975   19.3846 C   0  0  0  0  0  0
  -29.4877  -12.5358   18.1885 C   0  0  0  0  0  0
  -28.0091  -12.3917   18.6021 C   0  0  0  0  0  0
  -27.6697  -13.1954   19.8844 C   0  0  2  0  0  0
  -28.7056  -12.8894   20.9865 C   0  0  0  0  0  0
  -25.2622  -13.8144   20.5658 C   0  0  0  0  0  0
  -24.1853  -13.0437   20.9164 C   0  0  0  0  0  0
  -24.6390  -11.6901   20.8724 C   0  0  0  0  0  0
  -23.9052  -10.4293   21.0401 C   0  0  0  0  0  0
  -24.3610   -9.4207   21.9180 C   0  0  0  0  0  0
  -23.6287   -8.2242   22.0749 C   0  0  0  0  0  0
  -22.4265   -8.0284   21.3544 C   0  0  0  0  0  0
  -21.9901   -9.0255   20.4644 C   0  0  0  0  0  0
  -22.7229  -10.2132   20.3050 C   0  0  0  0  0  0
  -21.6849   -6.0737   22.5282 C   0  0  0  0  0  0
  -21.4009   -6.5639   23.8219 C   0  0  0  0  0  0
  -21.3656   -5.6789   24.9179 C   0  0  0  0  0  0
  -21.6045   -4.3054   24.7225 C   0  0  0  0  0  0
  -21.8820   -3.8147   23.4347 C   0  0  0  0  0  0
  -21.9193   -4.6965   22.3404 C   0  0  0  0  0  0
  -22.7875  -13.5244   21.1842 C   0  0  0  0  0  0
  -22.1660   -4.2153   21.0980 F   0  0  0  0  0  0
  -21.5630   -3.4534   25.7736 F   0  0  0  0  0  0
  -30.0494  -13.2166   20.4651 N   0  0  0  0  0  0
  -26.3055  -12.9290   20.3383 N   0  0  0  0  0  0
  -25.9310  -11.6458   20.5744 N   0  0  0  0  0  0
  -22.0513  -12.8237   22.0399 N   0  0  0  0  0  0
  -25.4387  -15.1853   20.4074 N   0  0  0  0  0  0
  -31.7291  -14.7177   20.0683 O   0  0  0  0  0  0
  -21.6633   -6.8877   21.4243 O   0  0  0  0  0  0
  -22.3562  -14.5557   20.6704 O   0  0  0  0  0  0
  -24.6110  -31.8686   23.2100 C   0  0  0  0  0  0
  -25.9014  -32.4832   23.8382 C   0  0  1  0  0  0
  -27.2431  -27.4557   20.0756 C   0  0  0  0  0  0
  -25.5879  -33.8632   24.2317 N   0  0  0  0  0  0
  -23.3988  -30.4913   21.5494 C   0  0  2  0  0  0
  -24.8442  -28.9544   20.1169 C   0  0  0  0  0  0
  -22.7390  -29.4657   22.4988 C   0  0  0  0  0  0
  -18.0274  -28.1370   22.8508 C   0  0  0  0  0  0
  -24.1487  -36.7305   23.2637 C   0  0  0  0  0  0
  -25.9251  -30.8361   21.3611 C   0  0  0  0  0  0
  -26.0018  -29.4698   20.7129 C   0  0  0  0  0  0
  -27.1982  -28.7224   20.6982 C   0  0  0  0  0  0
  -26.0611  -26.9403   19.4932 C   0  0  0  0  0  0
  -24.8664  -27.6857   19.5113 C   0  0  0  0  0  0
  -23.6058  -29.8183   20.1656 C   0  0  0  0  0  0
  -25.4104  -36.3107   24.0342 C   0  0  1  0  0  0
  -20.5858  -28.3651   23.1325 C   0  0  2  0  0  0
  -20.6758  -26.9389   22.5423 C   0  0  0  0  0  0
  -19.5742  -26.6367   21.5216 C   0  0  0  0  0  0
  -18.1918  -26.7919   22.1626 C   0  0  0  0  0  0
  -19.1522  -28.8825   23.2912 C   0  0  0  0  0  0
  -18.9458  -30.1425   23.8925 C   0  0  0  0  0  0
  -17.6469  -30.6587   24.0564 C   0  0  0  0  0  0
  -25.9032  -34.9480   23.5125 C   0  0  0  0  0  0
  -16.5352  -29.9105   23.6318 C   0  0  0  0  0  0
  -16.7264  -28.6510   23.0358 C   0  0  0  0  0  0
  -26.4459  -31.6605   25.0703 C   0  0  0  0  0  0
  -25.3751  -31.3718   26.1468 C   0  0  0  0  0  0
  -27.0279  -30.3053   24.6050 C   0  0  0  0  0  0
  -27.6031  -32.4320   25.7480 C   0  0  0  0  0  0
  -27.5574  -37.1803   24.8468 C   0  0  0  0  0  0
  -21.4121  -29.3033   22.3731 N   0  0  0  0  0  0
  -26.4286  -37.3784   23.9421 N   0  0  0  0  0  0
  -24.6634  -31.0785   22.1002 N   0  0  0  0  0  0
  -23.4177  -28.8176   23.2993 O   0  0  0  0  0  0
  -28.4444  -26.7821   20.0672 O   0  0  0  0  0  0
  -26.5583  -34.8937   22.4686 O   0  0  0  0  0  0
  -23.5314  -32.1425   23.7516 O   0  0  0  0  0  0
  -29.6393  -16.9886   23.0874 C   0  0  0  0  0  0
  -30.5010  -17.4805   20.8577 C   0  0  0  0  0  0
  -29.5444  -18.3661   23.3713 C   0  0  0  0  0  0
  -30.1348  -16.5341   21.8464 C   0  0  0  0  0  0
  -30.3906  -18.8641   21.1332 C   0  0  0  0  0  0
  -29.9410  -19.3043   22.3963 C   0  0  0  0  0  0
  -30.0479  -25.1875   19.1910 C   0  0  0  0  0  0
  -30.1327  -20.1052   19.0367 C   0  0  0  0  0  0
  -29.0079  -18.8242   24.7166 C   0  0  0  0  0  0
  -31.9978  -24.0341   18.0746 C   0  0  0  0  0  0
  -29.7973  -24.1501   16.8838 C   0  0  0  0  0  0
  -28.5675  -25.6013   19.2698 C   0  0  0  0  0  0
  -30.5724  -21.3668   18.2896 C   0  0  0  0  0  0
  -30.0304  -22.6627   18.9459 C   0  0  0  0  0  0
  -30.4593  -23.9999   18.2723 C   0  0  0  0  0  0
  -30.7663  -19.8475   20.1883 N   0  0  0  0  0  0
  -30.1622  -15.1269   21.6565 N   0  0  0  0  0  0
  -30.8920  -25.7751   19.8780 O   0  0  0  0  0  0
  -29.2628  -19.3744   18.5575 O   0  0  0  0  0  0
  -29.8762  -20.6435   22.6615 O   0  0  0  0  0  0
  -31.4711  -12.4306   19.0790 H   0  0  0  0  0  0
  -30.3569  -11.2651   19.7299 H   0  0  0  0  0  0
  -29.7181  -11.8383   17.3822 H   0  0  0  0  0  0
  -29.6567  -13.5350   17.7850 H   0  0  0  0  0  0
  -27.8081  -11.3322   18.7632 H   0  0  0  0  0  0
  -27.3585  -12.7004   17.7834 H   0  0  0  0  0  0
  -27.7405  -14.2555   19.6394 H   0  0  0  0  0  0
  -28.6720  -11.8283   21.2391 H   0  0  0  0  0  0
  -28.4417  -13.4001   21.9124 H   0  0  0  0  0  0
  -25.2758   -9.5681   22.4751 H   0  0  0  0  0  0
  -24.0001   -7.4626   22.7458 H   0  0  0  0  0  0
  -21.0837   -8.8773   19.8944 H   0  0  0  0  0  0
  -22.3696  -10.9671   19.6153 H   0  0  0  0  0  0
  -21.1995   -7.6147   23.9725 H   0  0  0  0  0  0
  -21.1474   -6.0516   25.9083 H   0  0  0  0  0  0
  -22.0601   -2.7611   23.2845 H   0  0  0  0  0  0
  -22.4111  -11.9887   22.4778 H   0  0  0  0  0  0
  -21.1137  -13.1271   22.2611 H   0  0  0  0  0  0
  -24.6811  -15.8501   20.5195 H   0  0  0  0  0  0
  -26.3046  -15.6180   20.1096 H   0  0  0  0  0  0
  -26.7084  -32.5538   23.1147 H   0  0  0  0  0  0
  -25.0068  -33.9786   25.0490 H   0  0  0  0  0  0
  -22.6874  -31.3078   21.4067 H   0  0  0  0  0  0
  -23.3752  -35.9636   23.3331 H   0  0  0  0  0  0
  -24.3579  -36.8877   22.2039 H   0  0  0  0  0  0
  -23.7237  -37.6523   23.6639 H   0  0  0  0  0  0
  -26.0341  -31.6008   20.5904 H   0  0  0  0  0  0
  -26.8168  -30.8929   21.9742 H   0  0  0  0  0  0
  -28.0945  -29.1182   21.1567 H   0  0  0  0  0  0
  -26.0420  -25.9676   19.0236 H   0  0  0  0  0  0
  -23.9733  -27.2819   19.0548 H   0  0  0  0  0  0
  -23.7128  -30.5914   19.4040 H   0  0  0  0  0  0
  -22.7329  -29.2345   19.8667 H   0  0  0  0  0  0
  -25.1287  -36.1961   25.0834 H   0  0  0  0  0  0
  -20.9972  -28.3222   24.1433 H   0  0  0  0  0  0
  -20.5655  -26.2258   23.3610 H   0  0  0  0  0  0
  -21.6631  -26.7433   22.1206 H   0  0  0  0  0  0
  -19.6923  -25.6292   21.1212 H   0  0  0  0  0  0
  -19.6696  -27.3200   20.6767 H   0  0  0  0  0  0
  -17.4195  -26.6676   21.4022 H   0  0  0  0  0  0
  -18.0334  -26.0046   22.9011 H   0  0  0  0  0  0
  -19.7942  -30.7215   24.2318 H   0  0  0  0  0  0
  -17.5047  -31.6281   24.5157 H   0  0  0  0  0  0
  -15.5362  -30.3036   23.7634 H   0  0  0  0  0  0
  -15.8649  -28.0835   22.7082 H   0  0  0  0  0  0
  -24.5924  -30.7049   25.7834 H   0  0  0  0  0  0
  -24.8950  -32.2878   26.4914 H   0  0  0  0  0  0
  -25.8118  -30.8907   27.0223 H   0  0  0  0  0  0
  -26.2802  -29.6831   24.1115 H   0  0  0  0  0  0
  -27.4074  -29.7251   25.4468 H   0  0  0  0  0  0
  -27.8632  -30.4387   23.9175 H   0  0  0  0  0  0
  -27.2637  -33.3601   26.2093 H   0  0  0  0  0  0
  -28.3837  -32.6899   25.0316 H   0  0  0  0  0  0
  -28.0717  -31.8432   26.5367 H   0  0  0  0  0  0
  -28.2599  -38.0093   24.7495 H   0  0  0  0  0  0
  -28.1051  -36.2613   24.6320 H   0  0  0  0  0  0
  -27.2287  -37.1478   25.8870 H   0  0  0  0  0  0
  -20.9273  -29.8769   21.6977 H   0  0  0  0  0  0
  -26.0175  -38.2861   24.1438 H   0  0  0  0  0  0
  -29.3293  -16.2730   23.8360 H   0  0  0  0  0  0
  -30.8568  -17.1621   19.8884 H   0  0  0  0  0  0
  -28.7503  -17.9781   25.3540 H   0  0  0  0  0  0
  -28.1066  -19.4243   24.5835 H   0  0  0  0  0  0
  -29.7509  -19.4247   25.2423 H   0  0  0  0  0  0
  -32.3423  -25.0195   17.7560 H   0  0  0  0  0  0
  -32.3291  -23.3351   17.3080 H   0  0  0  0  0  0
  -32.5261  -23.7876   18.9960 H   0  0  0  0  0  0
  -29.9941  -25.1312   16.4494 H   0  0  0  0  0  0
  -28.7155  -24.0157   16.9259 H   0  0  0  0  0  0
  -30.1793  -23.4146   16.1763 H   0  0  0  0  0  0
  -28.1958  -25.7952   18.2644 H   0  0  0  0  0  0
  -27.9822  -24.7899   19.7042 H   0  0  0  0  0  0
  -30.2341  -21.2951   17.2565 H   0  0  0  0  0  0
  -31.6621  -21.3638   18.2576 H   0  0  0  0  0  0
  -30.3429  -22.6770   19.9927 H   0  0  0  0  0  0
  -28.9401  -22.6052   18.9733 H   0  0  0  0  0  0
  -31.3531  -20.5901   20.5426 H   0  0  0  0  0  0
  -29.5132  -14.6091   22.2300 H   0  0  0  0  0  0
  -29.5594  -20.8197   23.5400 H   0  0  0  0  0  0
  1 25  1  0  0  0
  1 30  2  0  0  0
  1 87  1  0  0  0
  2  3  1  0  0  0
  2 25  1  0  0  0
  2 91  1  0  0  0
  2 92  1  0  0  0
  3  4  1  0  0  0
  3 93  1  0  0  0
  3 94  1  0  0  0
  4  5  1  0  0  0
  4 95  1  0  0  0
  4 96  1  0  0  0
  5  6  1  0  0  0
  5 26  1  0  0  0
  5 97  1  0  0  0
  6 25  1  0  0  0
  6 98  1  0  0  0
  6 99  1  0  0  0
  7  8  2  0  0  0
  7 26  1  0  0  0
  7 29  1  0  0  0
  8  9  1  0  0  0
  8 22  1  0  0  0
  9 10  1  0  0  0
  9 27  2  0  0  0
 10 11  2  0  0  0
 10 15  1  0  0  0
 11 12  1  0  0  0
 11100  1  0  0  0
 12 13  2  0  0  0
 12101  1  0  0  0
 13 14  1  0  0  0
 13 31  1  0  0  0
 14 15  2  0  0  0
 14102  1  0  0  0
 15103  1  0  0  0
 16 17  2  0  0  0
 16 21  1  0  0  0
 16 31  1  0  0  0
 17 18  1  0  0  0
 17104  1  0  0  0
 18 19  2  0  0  0
 18105  1  0  0  0
 19 20  1  0  0  0
 19 24  1  0  0  0
 20 21  2  0  0  0
 20106  1  0  0  0
 21 23  1  0  0  0
 22 28  1  0  0  0
 22 32  2  0  0  0
 26 27  1  0  0  0
 28107  1  0  0  0
 28108  1  0  0  0
 29109  1  0  0  0
 29110  1  0  0  0
 33 34  1  0  0  0
 33 66  1  0  0  0
 33 70  2  0  0  0
 34 36  1  0  0  0
 34 59  1  0  0  0
 34111  1  0  0  0
 35 44  2  0  0  0
 35 45  1  0  0  0
 35 68  1  0  0  0
 36 56  1  0  0  0
 36112  1  0  0  0
 37 39  1  0  0  0
 37 47  1  0  0  0
 37 66  1  0  0  0
 37113  1  0  0  0
 38 43  2  0  0  0
 38 46  1  0  0  0
 38 47  1  0  0  0
 39 64  1  0  0  0
 39 67  2  0  0  0
 40 52  1  0  0  0
 40 53  2  0  0  0
 40 58  1  0  0  0
 41114  1  0  0  0
 41115  1  0  0  0
 41116  1  0  0  0
 41 48  1  0  0  0
 42 43  1  0  0  0
 42 66  1  0  0  0
 42117  1  0  0  0
 42118  1  0  0  0
 43 44  1  0  0  0
 44119  1  0  0  0
 45 46  2  0  0  0
 45120  1  0  0  0
 46121  1  0  0  0
 47122  1  0  0  0
 47123  1  0  0  0
 48 56  1  0  0  0
 48 65  1  0  0  0
 48124  1  0  0  0
 49 50  1  0  0  0
 49 53  1  0  0  0
 49 64  1  0  0  0
 49125  1  0  0  0
 50 51  1  0  0  0
 50126  1  0  0  0
 50127  1  0  0  0
 51 52  1  0  0  0
 51128  1  0  0  0
 51129  1  0  0  0
 52130  1  0  0  0
 52131  1  0  0  0
 53 54  1  0  0  0
 54 55  2  0  0  0
 54132  1  0  0  0
 55 57  1  0  0  0
 55133  1  0  0  0
 56 69  2  0  0  0
 57 58  2  0  0  0
 57134  1  0  0  0
 58135  1  0  0  0
 59 60  1  0  0  0
 59 61  1  0  0  0
 59 62  1  0  0  0
 60136  1  0  0  0
 60137  1  0  0  0
 60138  1  0  0  0
 61139  1  0  0  0
 61140  1  0  0  0
 61141  1  0  0  0
 62142  1  0  0  0
 62143  1  0  0  0
 62144  1  0  0  0
 63 65  1  0  0  0
 63145  1  0  0  0
 63146  1  0  0  0
 63147  1  0  0  0
 64148  1  0  0  0
 65149  1  0  0  0
 68 82  1  0  0  0
 71 73  2  0  0  0
 71 74  1  0  0  0
 71150  1  0  0  0
 72 74  2  0  0  0
 72 75  1  0  0  0
 72151  1  0  0  0
 73 76  1  0  0  0
 73 79  1  0  0  0
 74 87  1  0  0  0
 75 76  2  0  0  0
 75 86  1  0  0  0
 76 90  1  0  0  0
 77 82  1  0  0  0
 77 85  1  0  0  0
 77 88  2  0  0  0
 78 83  1  0  0  0
 78 86  1  0  0  0
 78 89  2  0  0  0
 79152  1  0  0  0
 79153  1  0  0  0
 79154  1  0  0  0
 80155  1  0  0  0
 80156  1  0  0  0
 80157  1  0  0  0
 80 85  1  0  0  0
 81 85  1  0  0  0
 81158  1  0  0  0
 81159  1  0  0  0
 81160  1  0  0  0
 82161  1  0  0  0
 82162  1  0  0  0
 83 84  1  0  0  0
 83163  1  0  0  0
 83164  1  0  0  0
 84 85  1  0  0  0
 84165  1  0  0  0
 84166  1  0  0  0
 86167  1  0  0  0
 87168  1  0  0  0
 90169  1  0  0  0
M  ISO  4   1 100  68 101  82 101  87 100
M  END
> <chiral flag>
0

> <version>
0

> <s_m_source_file>
/data/baiqing/PycharmProjects/Reinvent-master-3.2/result/LINK_invent/BTK/process_docking_weight1_custom_product_contain_oxygen_bond_distance_aromatic_linkinvent_7_9_3/rearranged_h_0144.sdf

> <i_m_source_file_index>
22

> <r_mmod_Potential_Energy-OPLS-2005>
-124.075340270996

> <r_mmod_Stretch_Energy-OPLS-2005>
37.1631088256836

> <r_mmod_Bend_Energy-OPLS-2005>
105.187652587891

> <r_mmod_Torsional_Energy-OPLS-2005>
261.480560302734

> <r_mmod_Improper_Torsional_Energy-OPLS-2005>
4.14471292495728

> <r_mmod_Van_der_Waal_Energy-OPLS-2005>
166.082641601562

> <r_mmod_Electrostatic_Energy-OPLS-2005>
-448.552734375

> <r_mmod_Solvation_Energy-OPLS-2005>
-258.567687988281

> <b_mmod_Minimization_Converged-OPLS-2005>
0

> <r_mmod_RMS_Derivative-OPLS-2005>
2.11162066459656

$$$$
22
                    3D
 Structure written by MMmdl.
166175  0  0  1  0            999 V2000
  -30.7234  -14.4081   20.5445 C   0  0  0  0  0  0
  -30.4223  -12.2604   19.4279 C   0  0  0  0  0  0
  -29.5031  -12.4955   18.2126 C   0  0  0  0  0  0
  -28.0237  -12.3692   18.6203 C   0  0  0  0  0  0
  -27.6689  -13.2021   19.8804 C   0  0  2  0  0  0
  -28.7063  -12.9760   21.0063 C   0  0  0  0  0  0
  -25.2633  -13.8149   20.5685 C   0  0  0  0  0  0
  -24.1861  -13.0459   20.9160 C   0  0  0  0  0  0
  -24.6380  -11.6916   20.8705 C   0  0  0  0  0  0
  -23.9042  -10.4314   21.0394 C   0  0  0  0  0  0
  -24.3597   -9.4233   21.9180 C   0  0  0  0  0  0
  -23.6283   -8.2259   22.0748 C   0  0  0  0  0  0
  -22.4272   -8.0290   21.3542 C   0  0  0  0  0  0
  -21.9894   -9.0254   20.4647 C   0  0  0  0  0  0
  -22.7204  -10.2145   20.3056 C   0  0  0  0  0  0
  -21.6853   -6.0735   22.5270 C   0  0  0  0  0  0
  -21.4002   -6.5634   23.8199 C   0  0  0  0  0  0
  -21.3658   -5.6791   24.9162 C   0  0  0  0  0  0
  -21.6055   -4.3049   24.7224 C   0  0  0  0  0  0
  -21.8825   -3.8146   23.4335 C   0  0  0  0  0  0
  -21.9195   -4.6962   22.3395 C   0  0  0  0  0  0
  -22.7885  -13.5279   21.1858 C   0  0  0  0  0  0
  -22.1676   -4.2150   21.0970 F   0  0  0  0  0  0
  -21.5640   -3.4534   25.7735 F   0  0  0  0  0  0
  -30.0490  -13.2368   20.4584 N   0  0  0  0  0  0
  -26.3061  -12.9305   20.3366 N   0  0  0  0  0  0
  -25.9307  -11.6476   20.5731 N   0  0  0  0  0  0
  -22.0499  -12.8277   22.0380 N   0  0  0  0  0  0
  -25.4412  -15.1860   20.4111 N   0  0  0  0  0  0
  -31.8695  -14.5733   20.1166 O   0  0  0  0  0  0
  -21.6641   -6.8882   21.4242 O   0  0  0  0  0  0
  -22.3586  -14.5610   20.6726 O   0  0  0  0  0  0
  -24.6059  -31.8709   23.2107 C   0  0  0  0  0  0
  -25.8979  -32.4818   23.8398 C   0  0  1  0  0  0
  -27.2600  -27.5074   20.0806 C   0  0  0  0  0  0
  -25.5842  -33.8618   24.2335 N   0  0  0  0  0  0
  -23.3896  -30.4896   21.5523 C   0  0  2  0  0  0
  -24.8374  -28.9586   20.1132 C   0  0  0  0  0  0
  -22.7333  -29.4672   22.5051 C   0  0  0  0  0  0
  -18.0228  -28.1382   22.8519 C   0  0  0  0  0  0
  -24.1458  -36.7307   23.2641 C   0  0  0  0  0  0
  -25.9061  -30.8545   21.3552 C   0  0  0  0  0  0
  -25.9847  -29.4915   20.7103 C   0  0  0  0  0  0
  -27.1858  -28.7660   20.7004 C   0  0  0  0  0  0
  -26.1011  -26.9749   19.4670 C   0  0  0  0  0  0
  -24.8894  -27.6960   19.4916 C   0  0  0  0  0  0
  -23.5894  -29.8089   20.1701 C   0  0  0  0  0  0
  -25.4074  -36.3093   24.0341 C   0  0  1  0  0  0
  -20.5808  -28.3639   23.1354 C   0  0  2  0  0  0
  -20.6686  -26.9383   22.5447 C   0  0  0  0  0  0
  -19.5670  -26.6401   21.5219 C   0  0  0  0  0  0
  -18.1853  -26.7935   22.1647 C   0  0  0  0  0  0
  -19.1479  -28.8827   23.2927 C   0  0  0  0  0  0
  -18.9435  -30.1439   23.8935 C   0  0  0  0  0  0
  -17.6443  -30.6598   24.0577 C   0  0  0  0  0  0
  -25.9009  -34.9465   23.5141 C   0  0  0  0  0  0
  -16.5322  -29.9116   23.6341 C   0  0  0  0  0  0
  -16.7222  -28.6519   23.0378 C   0  0  0  0  0  0
  -26.4463  -31.6551   25.0689 C   0  0  0  0  0  0
  -25.3773  -31.3623   26.1471 C   0  0  0  0  0  0
  -27.0298  -30.2998   24.6037 C   0  0  0  0  0  0
  -27.6064  -32.4258   25.7430 C   0  0  0  0  0  0
  -27.5537  -37.1793   24.8468 C   0  0  0  0  0  0
  -21.4076  -29.2992   22.3754 N   0  0  0  0  0  0
  -26.4253  -37.3774   23.9413 N   0  0  0  0  0  0
  -24.6512  -31.0857   22.0985 N   0  0  0  0  0  0
  -23.4118  -28.8275   23.3137 O   0  0  0  0  0  0
  -28.5087  -26.9370   20.1401 O   0  0  0  0  0  0
  -26.5609  -34.8913   22.4719 O   0  0  0  0  0  0
  -23.5271  -32.1473   23.7525 O   0  0  0  0  0  0
  -30.1464  -18.1054   18.3073 C   0  0  0  0  0  0
  -30.0322  -19.2571   19.1002 C   0  0  0  0  0  0
  -30.1394  -16.8395   18.9125 C   0  0  0  0  0  0
  -29.8831  -17.8762   21.1092 C   0  0  0  0  0  0
  -29.8986  -19.1536   20.5054 C   0  0  0  0  0  0
  -30.0211  -16.7185   20.3202 C   0  0  0  0  0  0
  -28.8375  -20.5538   22.2284 C   0  0  0  0  0  0
  -28.5919  -23.1646   20.2331 C   0  0  0  0  0  0
  -28.6534  -22.0388   22.4842 C   0  0  0  0  0  0
  -30.4568  -21.5768   20.9433 C   0  0  0  0  0  0
  -29.4936  -22.6815   21.3763 C   0  0  1  0  0  0
  -28.8570  -25.6498   18.1087 C   0  0  0  0  0  0
  -30.3571  -25.6519   20.1106 C   0  0  0  0  0  0
  -28.0403  -24.5749   20.3611 C   0  0  0  0  0  0
  -28.8832  -25.6643   19.6497 C   0  0  0  0  0  0
  -29.7712  -20.3359   21.2850 N   0  0  0  0  0  0
  -29.9913  -15.4506   20.9519 N   0  0  0  0  0  0
  -28.1817  -19.7034   22.8370 O   0  0  0  0  0  0
  -28.2849  -22.4385   19.2848 O   0  0  0  0  0  0
  -31.4680  -12.3451   19.1279 H   0  0  0  0  0  0
  -30.3079  -11.2459   19.8120 H   0  0  0  0  0  0
  -29.7341  -11.7787   17.4243 H   0  0  0  0  0  0
  -29.6911  -13.4831   17.7889 H   0  0  0  0  0  0
  -27.8300  -11.3142   18.8147 H   0  0  0  0  0  0
  -27.3810  -12.6549   17.7880 H   0  0  0  0  0  0
  -27.7170  -14.2510   19.5849 H   0  0  0  0  0  0
  -28.6604  -11.9514   21.3758 H   0  0  0  0  0  0
  -28.4794  -13.6058   21.8668 H   0  0  0  0  0  0
  -25.2733   -9.5723   22.4765 H   0  0  0  0  0  0
  -24.0009   -7.4651   22.7452 H   0  0  0  0  0  0
  -21.0833   -8.8746   19.8939 H   0  0  0  0  0  0
  -22.3636  -10.9687   19.6177 H   0  0  0  0  0  0
  -21.1968   -7.6139   23.9695 H   0  0  0  0  0  0
  -21.1486   -6.0520   25.9064 H   0  0  0  0  0  0
  -22.0603   -2.7609   23.2824 H   0  0  0  0  0  0
  -22.4096  -11.9941   22.4808 H   0  0  0  0  0  0
  -21.1114  -13.1313   22.2591 H   0  0  0  0  0  0
  -24.6832  -15.8503   20.5185 H   0  0  0  0  0  0
  -26.3078  -15.6171   20.1145 H   0  0  0  0  0  0
  -26.7058  -32.5589   23.1178 H   0  0  0  0  0  0
  -24.9859  -33.9773   25.0390 H   0  0  0  0  0  0
  -22.6762  -31.3023   21.4099 H   0  0  0  0  0  0
  -23.3683  -35.9676   23.3338 H   0  0  0  0  0  0
  -24.3556  -36.8899   22.2048 H   0  0  0  0  0  0
  -23.7237  -37.6528   23.6654 H   0  0  0  0  0  0
  -26.0059  -31.6169   20.5806 H   0  0  0  0  0  0
  -26.7992  -30.9147   21.9660 H   0  0  0  0  0  0
  -28.0731  -29.1779   21.1609 H   0  0  0  0  0  0
  -26.1094  -26.0314   18.9468 H   0  0  0  0  0  0
  -24.0109  -27.2801   19.0166 H   0  0  0  0  0  0
  -23.6705  -30.5746   19.3983 H   0  0  0  0  0  0
  -22.7192  -29.2060   19.8989 H   0  0  0  0  0  0
  -25.1229  -36.1951   25.0830 H   0  0  0  0  0  0
  -20.9913  -28.3211   24.1461 H   0  0  0  0  0  0
  -20.5517  -26.2268   23.3638 H   0  0  0  0  0  0
  -21.6572  -26.7375   22.1281 H   0  0  0  0  0  0
  -19.6819  -25.6326   21.1198 H   0  0  0  0  0  0
  -19.6605  -27.3259   20.6786 H   0  0  0  0  0  0
  -17.4113  -26.6695   21.4049 H   0  0  0  0  0  0
  -18.0246  -26.0068   22.9036 H   0  0  0  0  0  0
  -19.7916  -30.7226   24.2332 H   0  0  0  0  0  0
  -17.5014  -31.6296   24.5154 H   0  0  0  0  0  0
  -15.5331  -30.3040   23.7650 H   0  0  0  0  0  0
  -15.8611  -28.0847   22.7116 H   0  0  0  0  0  0
  -24.5969  -30.6928   25.7823 H   0  0  0  0  0  0
  -24.8945  -32.2760   26.4945 H   0  0  0  0  0  0
  -25.8184  -30.8790   27.0201 H   0  0  0  0  0  0
  -26.2836  -29.6724   24.1155 H   0  0  0  0  0  0
  -27.4124  -29.7252   25.4476 H   0  0  0  0  0  0
  -27.8632  -30.4289   23.9138 H   0  0  0  0  0  0
  -27.2694  -33.3529   26.2084 H   0  0  0  0  0  0
  -28.3826  -32.6865   25.0218 H   0  0  0  0  0  0
  -28.0806  -31.8340   26.5274 H   0  0  0  0  0  0
  -28.2586  -38.0053   24.7440 H   0  0  0  0  0  0
  -28.0991  -36.2573   24.6361 H   0  0  0  0  0  0
  -27.2278  -37.1541   25.8885 H   0  0  0  0  0  0
  -20.9238  -29.8655   21.6919 H   0  0  0  0  0  0
  -26.0131  -38.2846   24.1424 H   0  0  0  0  0  0
  -30.2357  -18.2009   17.2333 H   0  0  0  0  0  0
  -30.0209  -20.2125   18.6005 H   0  0  0  0  0  0
  -30.2258  -15.9654   18.2822 H   0  0  0  0  0  0
  -29.7830  -17.7808   22.1814 H   0  0  0  0  0  0
  -29.0257  -22.3055   23.4714 H   0  0  0  0  0  0
  -27.5968  -22.3046   22.4336 H   0  0  0  0  0  0
  -31.3749  -21.6355   21.5282 H   0  0  0  0  0  0
  -30.7539  -21.6757   19.9010 H   0  0  0  0  0  0
  -30.0600  -23.5280   21.7614 H   0  0  0  0  0  0
  -29.3161  -26.5567   17.7079 H   0  0  0  0  0  0
  -27.8512  -25.5876   17.7010 H   0  0  0  0  0  0
  -29.4227  -24.8057   17.7133 H   0  0  0  0  0  0
  -30.8949  -24.7648   19.7796 H   0  0  0  0  0  0
  -30.4335  -25.7026   21.1974 H   0  0  0  0  0  0
  -30.8960  -26.5150   19.7177 H   0  0  0  0  0  0
  -27.9815  -24.8076   21.4248 H   0  0  0  0  0  0
  -27.0116  -24.5506   20.0149 H   0  0  0  0  0  0
  -29.1713  -15.2425   21.5017 H   0  0  0  0  0  0
  1 25  1  0  0  0
  1 30  2  0  0  0
  1 87  1  0  0  0
  2  3  1  0  0  0
  2 25  1  0  0  0
  2 90  1  0  0  0
  2 91  1  0  0  0
  3  4  1  0  0  0
  3 92  1  0  0  0
  3 93  1  0  0  0
  4  5  1  0  0  0
  4 94  1  0  0  0
  4 95  1  0  0  0
  5  6  1  0  0  0
  5 26  1  0  0  0
  5 96  1  0  0  0
  6 25  1  0  0  0
  6 97  1  0  0  0
  6 98  1  0  0  0
  7  8  2  0  0  0
  7 26  1  0  0  0
  7 29  1  0  0  0
  8  9  1  0  0  0
  8 22  1  0  0  0
  9 10  1  0  0  0
  9 27  2  0  0  0
 10 11  2  0  0  0
 10 15  1  0  0  0
 11 12  1  0  0  0
 11 99  1  0  0  0
 12 13  2  0  0  0
 12100  1  0  0  0
 13 14  1  0  0  0
 13 31  1  0  0  0
 14 15  2  0  0  0
 14101  1  0  0  0
 15102  1  0  0  0
 16 17  2  0  0  0
 16 21  1  0  0  0
 16 31  1  0  0  0
 17 18  1  0  0  0
 17103  1  0  0  0
 18 19  2  0  0  0
 18104  1  0  0  0
 19 20  1  0  0  0
 19 24  1  0  0  0
 20 21  2  0  0  0
 20105  1  0  0  0
 21 23  1  0  0  0
 22 28  1  0  0  0
 22 32  2  0  0  0
 26 27  1  0  0  0
 28106  1  0  0  0
 28107  1  0  0  0
 29108  1  0  0  0
 29109  1  0  0  0
 33 34  1  0  0  0
 33 66  1  0  0  0
 33 70  2  0  0  0
 34 36  1  0  0  0
 34 59  1  0  0  0
 34110  1  0  0  0
 35 44  2  0  0  0
 35 45  1  0  0  0
 35 68  1  0  0  0
 36 56  1  0  0  0
 36111  1  0  0  0
 37 39  1  0  0  0
 37 47  1  0  0  0
 37 66  1  0  0  0
 37112  1  0  0  0
 38 43  2  0  0  0
 38 46  1  0  0  0
 38 47  1  0  0  0
 39 64  1  0  0  0
 39 67  2  0  0  0
 40 52  1  0  0  0
 40 53  2  0  0  0
 40 58  1  0  0  0
 41113  1  0  0  0
 41114  1  0  0  0
 41115  1  0  0  0
 41 48  1  0  0  0
 42 43  1  0  0  0
 42 66  1  0  0  0
 42116  1  0  0  0
 42117  1  0  0  0
 43 44  1  0  0  0
 44118  1  0  0  0
 45 46  2  0  0  0
 45119  1  0  0  0
 46120  1  0  0  0
 47121  1  0  0  0
 47122  1  0  0  0
 48 56  1  0  0  0
 48 65  1  0  0  0
 48123  1  0  0  0
 49 50  1  0  0  0
 49 53  1  0  0  0
 49 64  1  0  0  0
 49124  1  0  0  0
 50 51  1  0  0  0
 50125  1  0  0  0
 50126  1  0  0  0
 51 52  1  0  0  0
 51127  1  0  0  0
 51128  1  0  0  0
 52129  1  0  0  0
 52130  1  0  0  0
 53 54  1  0  0  0
 54 55  2  0  0  0
 54131  1  0  0  0
 55 57  1  0  0  0
 55132  1  0  0  0
 56 69  2  0  0  0
 57 58  2  0  0  0
 57133  1  0  0  0
 58134  1  0  0  0
 59 60  1  0  0  0
 59 61  1  0  0  0
 59 62  1  0  0  0
 60135  1  0  0  0
 60136  1  0  0  0
 60137  1  0  0  0
 61138  1  0  0  0
 61139  1  0  0  0
 61140  1  0  0  0
 62141  1  0  0  0
 62142  1  0  0  0
 62143  1  0  0  0
 63 65  1  0  0  0
 63144  1  0  0  0
 63145  1  0  0  0
 63146  1  0  0  0
 64147  1  0  0  0
 65148  1  0  0  0
 68 85  1  0  0  0
 71 72  2  0  0  0
 71 73  1  0  0  0
 71149  1  0  0  0
 72 75  1  0  0  0
 72150  1  0  0  0
 73 76  2  0  0  0
 73151  1  0  0  0
 74 75  2  0  0  0
 74 76  1  0  0  0
 74152  1  0  0  0
 75 86  1  0  0  0
 76 87  1  0  0  0
 77 79  1  0  0  0
 77 86  1  0  0  0
 77 88  2  0  0  0
 78 84  1  0  0  0
 78 89  2  0  0  0
 78 81  1  0  0  0
 79 81  1  0  0  0
 79153  1  0  0  0
 79154  1  0  0  0
 80 81  1  0  0  0
 80 86  1  0  0  0
 80155  1  0  0  0
 80156  1  0  0  0
 81157  1  0  0  0
 82158  1  0  0  0
 82159  1  0  0  0
 82160  1  0  0  0
 82 85  1  0  0  0
 83 85  1  0  0  0
 83161  1  0  0  0
 83162  1  0  0  0
 83163  1  0  0  0
 84 85  1  0  0  0
 84164  1  0  0  0
 84165  1  0  0  0
 87166  1  0  0  0
M  ISO  4   1 100  68 101  85 101  87 100
M  END
> <chiral flag>
0

> <version>
0

> <s_m_source_file>
/data/baiqing/PycharmProjects/Reinvent-master-3.2/result/LINK_invent/BTK/process_docking_weight1_custom_product_contain_oxygen_bond_distance_aromatic_linkinvent_7_9_3/rearranged_h_0144.sdf

> <i_m_source_file_index>
23

> <r_mmod_Potential_Energy-OPLS-2005>
5.18231058120728

> <r_mmod_Stretch_Energy-OPLS-2005>
31.5155925750732

> <r_mmod_Bend_Energy-OPLS-2005>
154.992706298828

> <r_mmod_Torsional_Energy-OPLS-2005>
270.297912597656

> <r_mmod_Improper_Torsional_Energy-OPLS-2005>
6.24264478683472

> <r_mmod_Van_der_Waal_Energy-OPLS-2005>
163.214691162109

> <r_mmod_Electrostatic_Energy-OPLS-2005>
-412.704071044922

> <r_mmod_Solvation_Energy-OPLS-2005>
-225.486343383789

> <b_mmod_Minimization_Converged-OPLS-2005>
0

> <r_mmod_RMS_Derivative-OPLS-2005>
3.70697546005249

$$$$
23
                    3D
 Structure written by MMmdl.
171179  0  0  1  0            999 V2000
  -30.6905  -14.3924   20.5848 C   0  0  0  0  0  0
  -30.4360  -12.2572   19.3796 C   0  0  0  0  0  0
  -29.4879  -12.4697   18.1808 C   0  0  0  0  0  0
  -28.0099  -12.3375   18.6057 C   0  0  0  0  0  0
  -27.6653  -13.1766   19.8630 C   0  0  2  0  0  0
  -28.7122  -12.9140   20.9719 C   0  0  0  0  0  0
  -25.2666  -13.8100   20.5730 C   0  0  0  0  0  0
  -24.1876  -13.0425   20.9213 C   0  0  0  0  0  0
  -24.6364  -11.6867   20.8715 C   0  0  0  0  0  0
  -23.9012  -10.4283   21.0367 C   0  0  0  0  0  0
  -24.3552   -9.4213   21.9165 C   0  0  0  0  0  0
  -23.6254   -8.2237   22.0748 C   0  0  0  0  0  0
  -22.4239   -8.0261   21.3541 C   0  0  0  0  0  0
  -21.9876   -9.0233   20.4636 C   0  0  0  0  0  0
  -22.7174  -10.2119   20.3032 C   0  0  0  0  0  0
  -21.6855   -6.0718   22.5265 C   0  0  0  0  0  0
  -21.4028   -6.5630   23.8198 C   0  0  0  0  0  0
  -21.3665   -5.6782   24.9159 C   0  0  0  0  0  0
  -21.6033   -4.3049   24.7214 C   0  0  0  0  0  0
  -21.8821   -3.8134   23.4338 C   0  0  0  0  0  0
  -21.9200   -4.6950   22.3388 C   0  0  0  0  0  0
  -22.7895  -13.5244   21.1852 C   0  0  0  0  0  0
  -22.1656   -4.2141   21.0968 F   0  0  0  0  0  0
  -21.5634   -3.4533   25.7730 F   0  0  0  0  0  0
  -30.0468  -13.2154   20.4152 N   0  0  0  0  0  0
  -26.3035  -12.9195   20.3287 N   0  0  0  0  0  0
  -25.9277  -11.6392   20.5705 N   0  0  0  0  0  0
  -22.0514  -12.8260   22.0368 N   0  0  0  0  0  0
  -25.4460  -15.1816   20.4195 N   0  0  0  0  0  0
  -31.8498  -14.6203   20.2269 O   0  0  0  0  0  0
  -21.6624   -6.8841   21.4212 O   0  0  0  0  0  0
  -22.3614  -14.5579   20.6703 O   0  0  0  0  0  0
  -24.6124  -31.8772   23.2212 C   0  0  0  0  0  0
  -25.9068  -32.4857   23.8475 C   0  0  1  0  0  0
  -27.2162  -27.4628   20.0501 C   0  0  0  0  0  0
  -25.5919  -33.8650   24.2412 N   0  0  0  0  0  0
  -23.3983  -30.5001   21.5703 C   0  0  2  0  0  0
  -24.8324  -28.9871   20.1138 C   0  0  0  0  0  0
  -22.7425  -29.4680   22.5160 C   0  0  0  0  0  0
  -18.0354  -28.1302   22.8387 C   0  0  0  0  0  0
  -24.1473  -36.7254   23.2638 C   0  0  0  0  0  0
  -25.9291  -30.8401   21.3771 C   0  0  0  0  0  0
  -25.9961  -29.4818   20.7105 C   0  0  0  0  0  0
  -27.1842  -28.7232   20.6921 C   0  0  0  0  0  0
  -26.0268  -26.9898   19.4494 C   0  0  0  0  0  0
  -24.8418  -27.7326   19.4879 C   0  0  0  0  0  0
  -23.5952  -29.8503   20.1785 C   0  0  0  0  0  0
  -25.4111  -36.3129   24.0347 C   0  0  1  0  0  0
  -20.5888  -28.3630   23.1468 C   0  0  2  0  0  0
  -20.6914  -26.9368   22.5582 C   0  0  0  0  0  0
  -19.6001  -26.6395   21.5236 C   0  0  0  0  0  0
  -18.2122  -26.7850   22.1534 C   0  0  0  0  0  0
  -19.1527  -28.8801   23.2903 C   0  0  0  0  0  0
  -18.9336  -30.1368   23.8969 C   0  0  0  0  0  0
  -17.6308  -30.6430   24.0572 C   0  0  0  0  0  0
  -25.9041  -34.9466   23.5173 C   0  0  0  0  0  0
  -16.5268  -29.8890   23.6192 C   0  0  0  0  0  0
  -16.7275  -28.6353   23.0170 C   0  0  0  0  0  0
  -26.4502  -31.6590   25.0775 C   0  0  0  0  0  0
  -25.3781  -31.3656   26.1538 C   0  0  0  0  0  0
  -27.0325  -30.3006   24.6139 C   0  0  0  0  0  0
  -27.6111  -32.4302   25.7476 C   0  0  0  0  0  0
  -27.5584  -37.1793   24.8490 C   0  0  0  0  0  0
  -21.4163  -29.2969   22.3845 N   0  0  0  0  0  0
  -26.4311  -37.3802   23.9418 N   0  0  0  0  0  0
  -24.6635  -31.0858   22.1120 N   0  0  0  0  0  0
  -23.4182  -28.8266   23.3259 O   0  0  0  0  0  0
  -28.3910  -26.7382   20.0433 O   0  0  0  0  0  0
  -26.5610  -34.8908   22.4739 O   0  0  0  0  0  0
  -23.5301  -32.1597   23.7566 O   0  0  0  0  0  0
  -28.8063  -17.3125   21.7717 C   0  0  0  0  0  0
  -29.7766  -18.5778   23.6065 C   0  0  0  0  0  0
  -30.9708  -16.6476   22.6848 C   0  0  0  0  0  0
  -28.7207  -18.3835   22.6791 C   0  0  0  0  0  0
  -29.9139  -16.4440   21.7695 C   0  0  0  0  0  0
  -30.8962  -17.7166   23.6003 C   0  0  0  0  0  0
  -27.1478  -24.3534   21.2497 C   0  0  0  0  0  0
  -27.0663  -20.1196   23.4054 C   0  0  0  0  0  0
  -24.7357  -24.2026   21.9905 C   0  0  0  0  0  0
  -26.9201  -23.5325   18.8108 C   0  0  0  0  0  0
  -29.0236  -23.1967   20.1024 C   0  0  0  0  0  0
  -25.9872  -21.0588   22.8457 C   0  0  0  0  0  0
  -26.4806  -22.5225   22.8467 C   0  0  0  0  0  0
  -28.4542  -25.5234   19.2775 C   0  0  0  0  0  0
  -26.0054  -23.3980   21.6568 C   0  0  2  0  0  0
  -27.8592  -24.1836   19.8718 C   0  0  0  0  0  0
  -27.5908  -19.2380   22.5410 N   0  0  0  0  0  0
  -29.8311  -15.3728   20.8560 N   0  0  0  0  0  0
  -27.5854  -25.1344   22.0975 O   0  0  0  0  0  0
  -27.3879  -20.2046   24.5921 O   0  0  0  0  0  0
  -31.9062  -17.9148   24.4805 F   0  0  0  0  0  0
  -31.4772  -12.3732   19.0688 H   0  0  0  0  0  0
  -30.3462  -11.2416   19.7631 H   0  0  0  0  0  0
  -29.7126  -11.7485   17.3937 H   0  0  0  0  0  0
  -29.6578  -13.4540   17.7393 H   0  0  0  0  0  0
  -27.8223  -11.2818   18.8104 H   0  0  0  0  0  0
  -27.3535  -12.6078   17.7772 H   0  0  0  0  0  0
  -27.7137  -14.2240   19.5669 H   0  0  0  0  0  0
  -28.6716  -11.8716   21.2957 H   0  0  0  0  0  0
  -28.4888  -13.5042   21.8618 H   0  0  0  0  0  0
  -25.2674   -9.5744   22.4750 H   0  0  0  0  0  0
  -23.9988   -7.4643   22.7483 H   0  0  0  0  0  0
  -21.0826   -8.8717   19.8948 H   0  0  0  0  0  0
  -22.3598  -10.9648   19.6156 H   0  0  0  0  0  0
  -21.2017   -7.6140   23.9707 H   0  0  0  0  0  0
  -21.1485   -6.0505   25.9065 H   0  0  0  0  0  0
  -22.0597   -2.7602   23.2825 H   0  0  0  0  0  0
  -22.4114  -11.9899   22.4737 H   0  0  0  0  0  0
  -21.1143  -13.1328   22.2542 H   0  0  0  0  0  0
  -24.6845  -15.8367   20.5516 H   0  0  0  0  0  0
  -26.2730  -15.6139   20.0279 H   0  0  0  0  0  0
  -26.7202  -32.5578   23.1276 H   0  0  0  0  0  0
  -25.0101  -33.9836   25.0574 H   0  0  0  0  0  0
  -22.6812  -31.3150   21.4525 H   0  0  0  0  0  0
  -23.3763  -35.9562   23.3355 H   0  0  0  0  0  0
  -24.3557  -36.8790   22.2049 H   0  0  0  0  0  0
  -23.7182  -37.6448   23.6609 H   0  0  0  0  0  0
  -26.0650  -31.6134   20.6192 H   0  0  0  0  0  0
  -26.8124  -30.8724   22.0068 H   0  0  0  0  0  0
  -28.0725  -29.1161   21.1629 H   0  0  0  0  0  0
  -25.9721  -26.0524   18.9322 H   0  0  0  0  0  0
  -23.9498  -27.3398   19.0187 H   0  0  0  0  0  0
  -23.6909  -30.6428   19.4350 H   0  0  0  0  0  0
  -22.7236  -29.2629   19.8844 H   0  0  0  0  0  0
  -25.1275  -36.2008   25.0842 H   0  0  0  0  0  0
  -20.9929  -28.3218   24.1623 H   0  0  0  0  0  0
  -20.5786  -26.2138   23.3713 H   0  0  0  0  0  0
  -21.6841  -26.7462   22.1494 H   0  0  0  0  0  0
  -19.7267  -25.6346   21.1230 H   0  0  0  0  0  0
  -19.7086  -27.3246   20.6831 H   0  0  0  0  0  0
  -18.0506  -26.0021   22.8986 H   0  0  0  0  0  0
  -17.4500  -26.6509   21.3851 H   0  0  0  0  0  0
  -19.7779  -30.7184   24.2363 H   0  0  0  0  0  0
  -17.4780  -31.6061   24.5277 H   0  0  0  0  0  0
  -15.5235  -30.2752   23.7470 H   0  0  0  0  0  0
  -15.8737  -28.0654   22.6756 H   0  0  0  0  0  0
  -24.5972  -30.6983   25.7829 H   0  0  0  0  0  0
  -24.8967  -32.2806   26.5020 H   0  0  0  0  0  0
  -25.8156  -30.8793   27.0272 H   0  0  0  0  0  0
  -26.2856  -29.6792   24.1194 H   0  0  0  0  0  0
  -27.4080  -29.7198   25.4578 H   0  0  0  0  0  0
  -27.8706  -30.4295   23.9292 H   0  0  0  0  0  0
  -27.2780  -33.3586   26.2129 H   0  0  0  0  0  0
  -28.3845  -32.6910   25.0223 H   0  0  0  0  0  0
  -28.0928  -31.8417   26.5324 H   0  0  0  0  0  0
  -28.2645  -38.0050   24.7532 H   0  0  0  0  0  0
  -28.1035  -36.2582   24.6329 H   0  0  0  0  0  0
  -27.2304  -37.1450   25.8897 H   0  0  0  0  0  0
  -20.9351  -29.8560   21.6933 H   0  0  0  0  0  0
  -26.0191  -38.2856   24.1450 H   0  0  0  0  0  0
  -28.0066  -17.1486   21.0611 H   0  0  0  0  0  0
  -29.7593  -19.3918   24.3178 H   0  0  0  0  0  0
  -31.8289  -15.9900   22.7115 H   0  0  0  0  0  0
  -24.3345  -24.6650   21.0893 H   0  0  0  0  0  0
  -24.9474  -24.9994   22.7122 H   0  0  0  0  0  0
  -23.9473  -23.5764   22.4055 H   0  0  0  0  0  0
  -27.3476  -23.6062   17.8130 H   0  0  0  0  0  0
  -26.7740  -22.4661   18.9878 H   0  0  0  0  0  0
  -25.9271  -23.9782   18.7705 H   0  0  0  0  0  0
  -28.6686  -22.2083   20.4021 H   0  0  0  0  0  0
  -29.6932  -23.5532   20.8838 H   0  0  0  0  0  0
  -29.6230  -23.0700   19.1971 H   0  0  0  0  0  0
  -25.0732  -20.9535   23.4329 H   0  0  0  0  0  0
  -25.7259  -20.7335   21.8368 H   0  0  0  0  0  0
  -27.5723  -22.5126   22.8524 H   0  0  0  0  0  0
  -26.2039  -22.9971   23.7902 H   0  0  0  0  0  0
  -29.5205  -25.3791   19.0951 H   0  0  0  0  0  0
  -28.0644  -25.7145   18.2750 H   0  0  0  0  0  0
  -25.7717  -22.7419   20.8229 H   0  0  0  0  0  0
  -27.1112  -19.1900   21.6524 H   0  0  0  0  0  0
  -28.8886  -15.1140   20.6144 H   0  0  0  0  0  0
  1 25  1  0  0  0
  1 30  2  0  0  0
  1 88  1  0  0  0
  2  3  1  0  0  0
  2 25  1  0  0  0
  2 92  1  0  0  0
  2 93  1  0  0  0
  3  4  1  0  0  0
  3 94  1  0  0  0
  3 95  1  0  0  0
  4  5  1  0  0  0
  4 96  1  0  0  0
  4 97  1  0  0  0
  5  6  1  0  0  0
  5 26  1  0  0  0
  5 98  1  0  0  0
  6 25  1  0  0  0
  6 99  1  0  0  0
  6100  1  0  0  0
  7  8  2  0  0  0
  7 26  1  0  0  0
  7 29  1  0  0  0
  8  9  1  0  0  0
  8 22  1  0  0  0
  9 10  1  0  0  0
  9 27  2  0  0  0
 10 11  2  0  0  0
 10 15  1  0  0  0
 11 12  1  0  0  0
 11101  1  0  0  0
 12 13  2  0  0  0
 12102  1  0  0  0
 13 14  1  0  0  0
 13 31  1  0  0  0
 14 15  2  0  0  0
 14103  1  0  0  0
 15104  1  0  0  0
 16 17  2  0  0  0
 16 21  1  0  0  0
 16 31  1  0  0  0
 17 18  1  0  0  0
 17105  1  0  0  0
 18 19  2  0  0  0
 18106  1  0  0  0
 19 20  1  0  0  0
 19 24  1  0  0  0
 20 21  2  0  0  0
 20107  1  0  0  0
 21 23  1  0  0  0
 22 28  1  0  0  0
 22 32  2  0  0  0
 26 27  1  0  0  0
 28108  1  0  0  0
 28109  1  0  0  0
 29110  1  0  0  0
 29111  1  0  0  0
 33 34  1  0  0  0
 33 66  1  0  0  0
 33 70  2  0  0  0
 34 36  1  0  0  0
 34 59  1  0  0  0
 34112  1  0  0  0
 35 44  2  0  0  0
 35 45  1  0  0  0
 35 68  1  0  0  0
 36 56  1  0  0  0
 36113  1  0  0  0
 37 39  1  0  0  0
 37 47  1  0  0  0
 37 66  1  0  0  0
 37114  1  0  0  0
 38 43  2  0  0  0
 38 46  1  0  0  0
 38 47  1  0  0  0
 39 64  1  0  0  0
 39 67  2  0  0  0
 40 52  1  0  0  0
 40 53  2  0  0  0
 40 58  1  0  0  0
 41115  1  0  0  0
 41116  1  0  0  0
 41117  1  0  0  0
 41 48  1  0  0  0
 42 43  1  0  0  0
 42 66  1  0  0  0
 42118  1  0  0  0
 42119  1  0  0  0
 43 44  1  0  0  0
 44120  1  0  0  0
 45 46  2  0  0  0
 45121  1  0  0  0
 46122  1  0  0  0
 47123  1  0  0  0
 47124  1  0  0  0
 48 56  1  0  0  0
 48 65  1  0  0  0
 48125  1  0  0  0
 49 50  1  0  0  0
 49 53  1  0  0  0
 49 64  1  0  0  0
 49126  1  0  0  0
 50 51  1  0  0  0
 50127  1  0  0  0
 50128  1  0  0  0
 51 52  1  0  0  0
 51129  1  0  0  0
 51130  1  0  0  0
 52131  1  0  0  0
 52132  1  0  0  0
 53 54  1  0  0  0
 54 55  2  0  0  0
 54133  1  0  0  0
 55 57  1  0  0  0
 55134  1  0  0  0
 56 69  2  0  0  0
 57 58  2  0  0  0
 57135  1  0  0  0
 58136  1  0  0  0
 59 60  1  0  0  0
 59 61  1  0  0  0
 59 62  1  0  0  0
 60137  1  0  0  0
 60138  1  0  0  0
 60139  1  0  0  0
 61140  1  0  0  0
 61141  1  0  0  0
 61142  1  0  0  0
 62143  1  0  0  0
 62144  1  0  0  0
 62145  1  0  0  0
 63 65  1  0  0  0
 63146  1  0  0  0
 63147  1  0  0  0
 63148  1  0  0  0
 64149  1  0  0  0
 65150  1  0  0  0
 68 84  1  0  0  0
 71 74  2  0  0  0
 71 75  1  0  0  0
 71151  1  0  0  0
 72 74  1  0  0  0
 72 76  2  0  0  0
 72152  1  0  0  0
 73 75  2  0  0  0
 73 76  1  0  0  0
 73153  1  0  0  0
 74 87  1  0  0  0
 75 88  1  0  0  0
 76 91  1  0  0  0
 77 85  1  0  0  0
 77 86  1  0  0  0
 77 89  2  0  0  0
 78 82  1  0  0  0
 78 87  1  0  0  0
 78 90  2  0  0  0
 79154  1  0  0  0
 79155  1  0  0  0
 79156  1  0  0  0
 79 85  1  0  0  0
 80157  1  0  0  0
 80158  1  0  0  0
 80159  1  0  0  0
 80 86  1  0  0  0
 81 86  1  0  0  0
 81160  1  0  0  0
 81161  1  0  0  0
 81162  1  0  0  0
 82 83  1  0  0  0
 82163  1  0  0  0
 82164  1  0  0  0
 83 85  1  0  0  0
 83165  1  0  0  0
 83166  1  0  0  0
 84 86  1  0  0  0
 84167  1  0  0  0
 84168  1  0  0  0
 85169  1  0  0  0
 87170  1  0  0  0
 88171  1  0  0  0
M  ISO  4   1 100  68 101  84 101  88 100
M  END
> <chiral flag>
0

> <version>
0

> <s_m_source_file>
/data/baiqing/PycharmProjects/Reinvent-master-3.2/result/LINK_invent/BTK/process_docking_weight1_custom_product_contain_oxygen_bond_distance_aromatic_linkinvent_7_9_3/rearranged_h_0144.sdf

> <i_m_source_file_index>
24

> <r_mmod_Potential_Energy-OPLS-2005>
76.4420928955078

> <r_mmod_Stretch_Energy-OPLS-2005>
40.6369857788086

> <r_mmod_Bend_Energy-OPLS-2005>
132.113952636719

> <r_mmod_Torsional_Energy-OPLS-2005>
279.087951660156

> <r_mmod_Improper_Torsional_Energy-OPLS-2005>
12.4771881103516

> <r_mmod_Van_der_Waal_Energy-OPLS-2005>
170.593780517578

> <r_mmod_Electrostatic_Energy-OPLS-2005>
-317.661437988281

> <r_mmod_Solvation_Energy-OPLS-2005>
-256.666412353516

> <b_mmod_Minimization_Converged-OPLS-2005>
0

> <r_mmod_RMS_Derivative-OPLS-2005>
7.11575222015381

$$$$
24
                    3D
 Structure written by MMmdl.
159167  0  0  1  0            999 V2000
  -30.7106  -14.4165   20.5550 C   0  0  0  0  0  0
  -30.4223  -12.2645   19.4240 C   0  0  0  0  0  0
  -29.4955  -12.4723   18.2088 C   0  0  0  0  0  0
  -28.0154  -12.3499   18.6229 C   0  0  0  0  0  0
  -27.6655  -13.1961   19.8760 C   0  0  2  0  0  0
  -28.7038  -12.9619   20.9974 C   0  0  0  0  0  0
  -25.2615  -13.8135   20.5666 C   0  0  0  0  0  0
  -24.1850  -13.0441   20.9166 C   0  0  0  0  0  0
  -24.6377  -11.6896   20.8738 C   0  0  0  0  0  0
  -23.9041  -10.4292   21.0404 C   0  0  0  0  0  0
  -24.3594   -9.4209   21.9184 C   0  0  0  0  0  0
  -23.6273   -8.2239   22.0761 C   0  0  0  0  0  0
  -22.4258   -8.0270   21.3543 C   0  0  0  0  0  0
  -21.9885   -9.0246   20.4649 C   0  0  0  0  0  0
  -22.7216  -10.2129   20.3058 C   0  0  0  0  0  0
  -21.6851   -6.0724   22.5271 C   0  0  0  0  0  0
  -21.4013   -6.5628   23.8205 C   0  0  0  0  0  0
  -21.3657   -5.6786   24.9168 C   0  0  0  0  0  0
  -21.6044   -4.3046   24.7226 C   0  0  0  0  0  0
  -21.8822   -3.8139   23.4345 C   0  0  0  0  0  0
  -21.9194   -4.6949   22.3401 C   0  0  0  0  0  0
  -22.7876  -13.5243   21.1826 C   0  0  0  0  0  0
  -22.1661   -4.2133   21.0977 F   0  0  0  0  0  0
  -21.5630   -3.4537   25.7738 F   0  0  0  0  0  0
  -30.0410  -13.2429   20.4494 N   0  0  0  0  0  0
  -26.3045  -12.9291   20.3365 N   0  0  0  0  0  0
  -25.9303  -11.6463   20.5785 N   0  0  0  0  0  0
  -22.0510  -12.8257   22.0383 N   0  0  0  0  0  0
  -25.4371  -15.1858   20.4071 N   0  0  0  0  0  0
  -31.8463  -14.5971   20.1043 O   0  0  0  0  0  0
  -21.6627   -6.8862   21.4235 O   0  0  0  0  0  0
  -22.3568  -14.5554   20.6663 O   0  0  0  0  0  0
  -24.6133  -31.8709   23.2145 C   0  0  0  0  0  0
  -25.9040  -32.4839   23.8414 C   0  0  1  0  0  0
  -27.2203  -27.4463   20.0750 C   0  0  0  0  0  0
  -25.5905  -33.8634   24.2361 N   0  0  0  0  0  0
  -23.3990  -30.4953   21.5592 C   0  0  2  0  0  0
  -24.8387  -28.9646   20.1231 C   0  0  0  0  0  0
  -22.7405  -29.4655   22.5047 C   0  0  0  0  0  0
  -18.0271  -28.1362   22.8508 C   0  0  0  0  0  0
  -24.1510  -36.7345   23.2632 C   0  0  0  0  0  0
  -25.9262  -30.8370   21.3638 C   0  0  0  0  0  0
  -26.0016  -29.4686   20.7193 C   0  0  0  0  0  0
  -27.1975  -28.7152   20.6986 C   0  0  0  0  0  0
  -26.0399  -26.9571   19.4770 C   0  0  0  0  0  0
  -24.8516  -27.7054   19.5029 C   0  0  0  0  0  0
  -23.6047  -29.8348   20.1720 C   0  0  0  0  0  0
  -25.4125  -36.3130   24.0340 C   0  0  1  0  0  0
  -20.5854  -28.3645   23.1352 C   0  0  2  0  0  0
  -20.6768  -26.9385   22.5435 C   0  0  0  0  0  0
  -19.5752  -26.6384   21.5223 C   0  0  0  0  0  0
  -18.1927  -26.7914   22.1628 C   0  0  0  0  0  0
  -19.1512  -28.8828   23.2925 C   0  0  0  0  0  0
  -18.9430  -30.1439   23.8924 C   0  0  0  0  0  0
  -17.6426  -30.6573   24.0569 C   0  0  0  0  0  0
  -25.9039  -34.9487   23.5156 C   0  0  0  0  0  0
  -16.5324  -29.9069   23.6321 C   0  0  0  0  0  0
  -16.7257  -28.6484   23.0351 C   0  0  0  0  0  0
  -26.4477  -31.6580   25.0708 C   0  0  0  0  0  0
  -25.3754  -31.3639   26.1460 C   0  0  0  0  0  0
  -27.0274  -30.3034   24.6000 C   0  0  0  0  0  0
  -27.6098  -32.4252   25.7461 C   0  0  0  0  0  0
  -27.5600  -37.1833   24.8466 C   0  0  0  0  0  0
  -21.4133  -29.3015   22.3775 N   0  0  0  0  0  0
  -26.4329  -37.3800   23.9393 N   0  0  0  0  0  0
  -24.6653  -31.0807   22.1059 N   0  0  0  0  0  0
  -23.4194  -28.8170   23.3057 O   0  0  0  0  0  0
  -28.3887  -26.7249   19.9861 O   0  0  0  0  0  0
  -26.5590  -34.8929   22.4706 O   0  0  0  0  0  0
  -23.5329  -32.1461   23.7547 O   0  0  0  0  0  0
  -30.3655  -17.8563   21.0408 C   0  0  0  0  0  0
  -29.9798  -18.5759   18.8556 C   0  0  0  0  0  0
  -30.3630  -18.9418   20.1153 C   0  0  0  0  0  0
  -30.0230  -16.6573   20.4668 C   0  0  0  0  0  0
  -29.5114  -22.3353   20.7469 C   0  0  0  0  0  0
  -27.9972  -24.2666   20.2020 C   0  0  0  0  0  0
  -26.9892  -21.9688   20.6231 C   0  0  0  0  0  0
  -27.9825  -23.2557   22.5492 C   0  0  0  0  0  0
  -29.8327  -20.9672   21.3619 C   0  0  0  0  0  0
  -28.4810  -25.5847   20.8504 C   0  0  0  0  0  0
  -28.1193  -22.9577   21.0346 C   0  0  0  0  0  0
  -30.7494  -20.2304   20.5001 N   0  0  0  0  0  0
  -29.9981  -15.4357   21.0503 N   0  0  0  0  0  0
  -30.3676  -22.8836   20.0387 O   0  0  0  0  0  0
  -27.5863  -24.2327   19.0345 O   0  0  0  0  0  0
  -29.6058  -16.8795   18.7782 S   0  0  0  0  0  0
  -31.4679  -12.3555   19.1229 H   0  0  0  0  0  0
  -30.3167  -11.2550   19.8230 H   0  0  0  0  0  0
  -29.7231  -11.7309   17.4414 H   0  0  0  0  0  0
  -29.6772  -13.4496   17.7592 H   0  0  0  0  0  0
  -27.8211  -11.2971   18.8308 H   0  0  0  0  0  0
  -27.3649  -12.6179   17.7892 H   0  0  0  0  0  0
  -27.7163  -14.2430   19.5754 H   0  0  0  0  0  0
  -28.6678  -11.9257   21.3359 H   0  0  0  0  0  0
  -28.4737  -13.5644   21.8769 H   0  0  0  0  0  0
  -25.2742   -9.5680   22.4768 H   0  0  0  0  0  0
  -23.9976   -7.4632   22.7488 H   0  0  0  0  0  0
  -21.0815   -8.8769   19.8960 H   0  0  0  0  0  0
  -22.3672  -10.9669   19.6168 H   0  0  0  0  0  0
  -21.2003   -7.6140   23.9701 H   0  0  0  0  0  0
  -21.1476   -6.0517   25.9069 H   0  0  0  0  0  0
  -22.0606   -2.7602   23.2853 H   0  0  0  0  0  0
  -22.4100  -11.9909   22.4790 H   0  0  0  0  0  0
  -21.1138  -13.1324   22.2595 H   0  0  0  0  0  0
  -24.6736  -15.8449   20.5121 H   0  0  0  0  0  0
  -26.2904  -15.6221   20.0838 H   0  0  0  0  0  0
  -26.7110  -32.5562   23.1178 H   0  0  0  0  0  0
  -25.0067  -33.9823   25.0511 H   0  0  0  0  0  0
  -22.6838  -31.3093   21.4270 H   0  0  0  0  0  0
  -23.3758  -35.9694   23.3303 H   0  0  0  0  0  0
  -24.3615  -36.8941   22.2045 H   0  0  0  0  0  0
  -23.7283  -37.6569   23.6624 H   0  0  0  0  0  0
  -26.0243  -31.5968   20.5870 H   0  0  0  0  0  0
  -26.8216  -30.9017   21.9703 H   0  0  0  0  0  0
  -28.0986  -29.1070   21.1499 H   0  0  0  0  0  0
  -26.0200  -26.0136   18.9580 H   0  0  0  0  0  0
  -23.9623  -27.3153   19.0270 H   0  0  0  0  0  0
  -23.7144  -30.6134   19.4162 H   0  0  0  0  0  0
  -22.7265  -29.2583   19.8760 H   0  0  0  0  0  0
  -25.1294  -36.2029   25.0834 H   0  0  0  0  0  0
  -20.9938  -28.3196   24.1477 H   0  0  0  0  0  0
  -20.5702  -26.2227   23.3600 H   0  0  0  0  0  0
  -21.6635  -26.7466   22.1197 H   0  0  0  0  0  0
  -19.6922  -25.6308   21.1223 H   0  0  0  0  0  0
  -19.6699  -27.3221   20.6765 H   0  0  0  0  0  0
  -17.4200  -26.6671   21.4023 H   0  0  0  0  0  0
  -18.0331  -26.0053   22.9010 H   0  0  0  0  0  0
  -19.7902  -30.7256   24.2305 H   0  0  0  0  0  0
  -17.4972  -31.6256   24.5152 H   0  0  0  0  0  0
  -15.5325  -30.2961   23.7637 H   0  0  0  0  0  0
  -15.8661  -28.0804   22.7053 H   0  0  0  0  0  0
  -24.5955  -30.6965   25.7773 H   0  0  0  0  0  0
  -24.8905  -32.2760   26.4941 H   0  0  0  0  0  0
  -25.8125  -30.8779   27.0193 H   0  0  0  0  0  0
  -26.2767  -29.6819   24.1100 H   0  0  0  0  0  0
  -27.4130  -29.7237   25.4397 H   0  0  0  0  0  0
  -27.8570  -30.4380   23.9059 H   0  0  0  0  0  0
  -27.2770  -33.3536   26.2115 H   0  0  0  0  0  0
  -28.3869  -32.6823   25.0248 H   0  0  0  0  0  0
  -28.0799  -31.8297   26.5302 H   0  0  0  0  0  0
  -28.2630  -38.0115   24.7481 H   0  0  0  0  0  0
  -28.1085  -36.2645   24.6333 H   0  0  0  0  0  0
  -27.2304  -37.1529   25.8865 H   0  0  0  0  0  0
  -20.9289  -29.8739   21.7006 H   0  0  0  0  0  0
  -26.0231  -38.2900   24.1342 H   0  0  0  0  0  0
  -30.6621  -17.9803   22.0726 H   0  0  0  0  0  0
  -29.8837  -19.1810   17.9631 H   0  0  0  0  0  0
  -26.6763  -21.3396   21.4575 H   0  0  0  0  0  0
  -27.2950  -21.2959   19.8206 H   0  0  0  0  0  0
  -26.0902  -22.4844   20.2849 H   0  0  0  0  0  0
  -28.8738  -23.7352   22.9581 H   0  0  0  0  0  0
  -27.8257  -22.3449   23.1286 H   0  0  0  0  0  0
  -27.1306  -23.9053   22.7548 H   0  0  0  0  0  0
  -30.2963  -21.1191   22.3367 H   0  0  0  0  0  0
  -28.9156  -20.4002   21.5288 H   0  0  0  0  0  0
  -29.5256  -25.4529   21.1341 H   0  0  0  0  0  0
  -27.9237  -25.7732   21.7657 H   0  0  0  0  0  0
  -31.0114  -20.8410   19.7258 H   0  0  0  0  0  0
  -29.1325  -15.1757   21.4985 H   0  0  0  0  0  0
  1 25  1  0  0  0
  1 30  2  0  0  0
  1 83  1  0  0  0
  2  3  1  0  0  0
  2 25  1  0  0  0
  2 87  1  0  0  0
  2 88  1  0  0  0
  3  4  1  0  0  0
  3 89  1  0  0  0
  3 90  1  0  0  0
  4  5  1  0  0  0
  4 91  1  0  0  0
  4 92  1  0  0  0
  5  6  1  0  0  0
  5 26  1  0  0  0
  5 93  1  0  0  0
  6 25  1  0  0  0
  6 94  1  0  0  0
  6 95  1  0  0  0
  7  8  2  0  0  0
  7 26  1  0  0  0
  7 29  1  0  0  0
  8  9  1  0  0  0
  8 22  1  0  0  0
  9 10  1  0  0  0
  9 27  2  0  0  0
 10 11  2  0  0  0
 10 15  1  0  0  0
 11 12  1  0  0  0
 11 96  1  0  0  0
 12 13  2  0  0  0
 12 97  1  0  0  0
 13 14  1  0  0  0
 13 31  1  0  0  0
 14 15  2  0  0  0
 14 98  1  0  0  0
 15 99  1  0  0  0
 16 17  2  0  0  0
 16 21  1  0  0  0
 16 31  1  0  0  0
 17 18  1  0  0  0
 17100  1  0  0  0
 18 19  2  0  0  0
 18101  1  0  0  0
 19 20  1  0  0  0
 19 24  1  0  0  0
 20 21  2  0  0  0
 20102  1  0  0  0
 21 23  1  0  0  0
 22 28  1  0  0  0
 22 32  2  0  0  0
 26 27  1  0  0  0
 28103  1  0  0  0
 28104  1  0  0  0
 29105  1  0  0  0
 29106  1  0  0  0
 33 34  1  0  0  0
 33 66  1  0  0  0
 33 70  2  0  0  0
 34 36  1  0  0  0
 34 59  1  0  0  0
 34107  1  0  0  0
 35 44  2  0  0  0
 35 45  1  0  0  0
 35 68  1  0  0  0
 36 56  1  0  0  0
 36108  1  0  0  0
 37 39  1  0  0  0
 37 47  1  0  0  0
 37 66  1  0  0  0
 37109  1  0  0  0
 38 43  2  0  0  0
 38 46  1  0  0  0
 38 47  1  0  0  0
 39 64  1  0  0  0
 39 67  2  0  0  0
 40 52  1  0  0  0
 40 53  2  0  0  0
 40 58  1  0  0  0
 41110  1  0  0  0
 41111  1  0  0  0
 41112  1  0  0  0
 41 48  1  0  0  0
 42 43  1  0  0  0
 42 66  1  0  0  0
 42113  1  0  0  0
 42114  1  0  0  0
 43 44  1  0  0  0
 44115  1  0  0  0
 45 46  2  0  0  0
 45116  1  0  0  0
 46117  1  0  0  0
 47118  1  0  0  0
 47119  1  0  0  0
 48 56  1  0  0  0
 48 65  1  0  0  0
 48120  1  0  0  0
 49 50  1  0  0  0
 49 53  1  0  0  0
 49 64  1  0  0  0
 49121  1  0  0  0
 50 51  1  0  0  0
 50122  1  0  0  0
 50123  1  0  0  0
 51 52  1  0  0  0
 51124  1  0  0  0
 51125  1  0  0  0
 52126  1  0  0  0
 52127  1  0  0  0
 53 54  1  0  0  0
 54 55  2  0  0  0
 54128  1  0  0  0
 55 57  1  0  0  0
 55129  1  0  0  0
 56 69  2  0  0  0
 57 58  2  0  0  0
 57130  1  0  0  0
 58131  1  0  0  0
 59 60  1  0  0  0
 59 61  1  0  0  0
 59 62  1  0  0  0
 60132  1  0  0  0
 60133  1  0  0  0
 60134  1  0  0  0
 61135  1  0  0  0
 61136  1  0  0  0
 61137  1  0  0  0
 62138  1  0  0  0
 62139  1  0  0  0
 62140  1  0  0  0
 63 65  1  0  0  0
 63141  1  0  0  0
 63142  1  0  0  0
 63143  1  0  0  0
 64144  1  0  0  0
 65145  1  0  0  0
 68 80  1  0  0  0
 71 73  1  0  0  0
 71 74  2  0  0  0
 71146  1  0  0  0
 72 73  2  0  0  0
 72 86  1  0  0  0
 72147  1  0  0  0
 73 82  1  0  0  0
 74 83  1  0  0  0
 74 86  1  0  0  0
 75 79  1  0  0  0
 75 81  1  0  0  0
 75 84  2  0  0  0
 76 80  1  0  0  0
 76 81  1  0  0  0
 76 85  2  0  0  0
 77148  1  0  0  0
 77149  1  0  0  0
 77150  1  0  0  0
 77 81  1  0  0  0
 78 81  1  0  0  0
 78151  1  0  0  0
 78152  1  0  0  0
 78153  1  0  0  0
 79 82  1  0  0  0
 79154  1  0  0  0
 79155  1  0  0  0
 80156  1  0  0  0
 80157  1  0  0  0
 82158  1  0  0  0
 83159  1  0  0  0
M  ISO  4   1 100  68 101  80 101  83 100
M  END
> <chiral flag>
0

> <version>
0

> <s_m_source_file>
/data/baiqing/PycharmProjects/Reinvent-master-3.2/result/LINK_invent/BTK/process_docking_weight1_custom_product_contain_oxygen_bond_distance_aromatic_linkinvent_7_9_3/rearranged_h_0144.sdf

> <i_m_source_file_index>
25

> <r_mmod_Potential_Energy-OPLS-2005>
1.40548610687256

> <r_mmod_Stretch_Energy-OPLS-2005>
35.202205657959

> <r_mmod_Bend_Energy-OPLS-2005>
92.6914978027344

> <r_mmod_Torsional_Energy-OPLS-2005>
301.416198730469

> <r_mmod_Improper_Torsional_Energy-OPLS-2005>
11.5496616363525

> <r_mmod_Van_der_Waal_Energy-OPLS-2005>
145.309600830078

> <r_mmod_Electrostatic_Energy-OPLS-2005>
-345.785522460938

> <r_mmod_Solvation_Energy-OPLS-2005>
-250.052551269531

> <b_mmod_Minimization_Converged-OPLS-2005>
0

> <r_mmod_RMS_Derivative-OPLS-2005>
2.66021871566772

$$$$
25
                    3D
 Structure written by MMmdl.
181189  0  0  1  0            999 V2000
  -30.7263  -14.4251   20.5937 C   0  0  0  0  0  0
  -30.4186  -12.2849   19.4156 C   0  0  0  0  0  0
  -29.4945  -12.5051   18.2015 C   0  0  0  0  0  0
  -28.0156  -12.3658   18.6133 C   0  0  0  0  0  0
  -27.6630  -13.1991   19.8746 C   0  0  2  0  0  0
  -28.7033  -12.9672   20.9950 C   0  0  0  0  0  0
  -25.2543  -13.8100   20.5622 C   0  0  0  0  0  0
  -24.1818  -13.0395   20.9176 C   0  0  0  0  0  0
  -24.6386  -11.6871   20.8736 C   0  0  0  0  0  0
  -23.9058  -10.4268   21.0398 C   0  0  0  0  0  0
  -24.3606   -9.4187   21.9179 C   0  0  0  0  0  0
  -23.6277   -8.2236   22.0759 C   0  0  0  0  0  0
  -22.4257   -8.0274   21.3551 C   0  0  0  0  0  0
  -21.9893   -9.0245   20.4654 C   0  0  0  0  0  0
  -22.7232  -10.2115   20.3050 C   0  0  0  0  0  0
  -21.6852   -6.0725   22.5280 C   0  0  0  0  0  0
  -21.4017   -6.5633   23.8212 C   0  0  0  0  0  0
  -21.3650   -5.6784   24.9174 C   0  0  0  0  0  0
  -21.6035   -4.3046   24.7227 C   0  0  0  0  0  0
  -21.8823   -3.8142   23.4347 C   0  0  0  0  0  0
  -21.9197   -4.6953   22.3400 C   0  0  0  0  0  0
  -22.7846  -13.5208   21.1823 C   0  0  0  0  0  0
  -22.1664   -4.2143   21.0980 F   0  0  0  0  0  0
  -21.5618   -3.4535   25.7738 F   0  0  0  0  0  0
  -30.0399  -13.2615   20.4473 N   0  0  0  0  0  0
  -26.3012  -12.9289   20.3342 N   0  0  0  0  0  0
  -25.9312  -11.6456   20.5763 N   0  0  0  0  0  0
  -22.0477  -12.8228   22.0397 N   0  0  0  0  0  0
  -25.4146  -15.1799   20.3923 N   0  0  0  0  0  0
  -31.8391  -14.6099   20.0895 O   0  0  0  0  0  0
  -21.6630   -6.8866   21.4243 O   0  0  0  0  0  0
  -22.3535  -14.5506   20.6663 O   0  0  0  0  0  0
  -24.6083  -31.8707   23.2123 C   0  0  0  0  0  0
  -25.8998  -32.4831   23.8410 C   0  0  1  0  0  0
  -27.2600  -27.4764   20.0896 C   0  0  0  0  0  0
  -25.5868  -33.8629   24.2338 N   0  0  0  0  0  0
  -23.3951  -30.4903   21.5504 C   0  0  2  0  0  0
  -24.8465  -28.9562   20.1187 C   0  0  0  0  0  0
  -22.7374  -29.4654   22.5010 C   0  0  0  0  0  0
  -18.0263  -28.1372   22.8489 C   0  0  0  0  0  0
  -24.1486  -36.7317   23.2637 C   0  0  0  0  0  0
  -25.9163  -30.8458   21.3627 C   0  0  0  0  0  0
  -25.9959  -29.4783   20.7220 C   0  0  0  0  0  0
  -27.1946  -28.7392   20.7272 C   0  0  0  0  0  0
  -26.0875  -26.9528   19.5076 C   0  0  0  0  0  0
  -24.8826  -27.6855   19.5164 C   0  0  0  0  0  0
  -23.6039  -29.8164   20.1656 C   0  0  0  0  0  0
  -25.4094  -36.3110   24.0344 C   0  0  1  0  0  0
  -20.5848  -28.3647   23.1330 C   0  0  2  0  0  0
  -20.6755  -26.9390   22.5421 C   0  0  0  0  0  0
  -19.5739  -26.6380   21.5213 C   0  0  0  0  0  0
  -18.1912  -26.7923   22.1617 C   0  0  0  0  0  0
  -19.1512  -28.8826   23.2909 C   0  0  0  0  0  0
  -18.9441  -30.1434   23.8919 C   0  0  0  0  0  0
  -17.6447  -30.6580   24.0567 C   0  0  0  0  0  0
  -25.9012  -34.9474   23.5137 C   0  0  0  0  0  0
  -16.5337  -29.9085   23.6323 C   0  0  0  0  0  0
  -16.7255  -28.6500   23.0345 C   0  0  0  0  0  0
  -26.4448  -31.6597   25.0718 C   0  0  0  0  0  0
  -25.3733  -31.3702   26.1485 C   0  0  0  0  0  0
  -27.0265  -30.3046   24.6052 C   0  0  0  0  0  0
  -27.6048  -32.4302   25.7455 C   0  0  0  0  0  0
  -27.5578  -37.1801   24.8454 C   0  0  0  0  0  0
  -21.4112  -29.3015   22.3738 N   0  0  0  0  0  0
  -26.4279  -37.3791   23.9415 N   0  0  0  0  0  0
  -24.6571  -31.0834   22.1012 N   0  0  0  0  0  0
  -23.4162  -28.8210   23.3055 O   0  0  0  0  0  0
  -28.4139  -26.7212   20.0039 O   0  0  0  0  0  0
  -26.5575  -34.8922   22.4699 O   0  0  0  0  0  0
  -23.5289  -32.1460   23.7538 O   0  0  0  0  0  0
  -31.9331  -18.6664   21.1766 C   0  0  0  0  0  0
  -31.6490  -17.2998   21.3664 C   0  0  0  0  0  0
  -29.6018  -19.0742   20.6137 C   0  0  0  0  0  0
  -29.3147  -17.7049   20.7969 C   0  0  0  0  0  0
  -30.9185  -19.5614   20.7764 C   0  0  0  0  0  0
  -30.3484  -16.7973   21.1363 C   0  0  0  0  0  0
  -30.5609  -21.9921   20.2484 C   0  0  0  0  0  0
  -27.8990  -17.2221   20.5610 C   0  0  0  0  0  0
  -32.5329  -30.4888   18.7307 C   0  0  0  0  0  0
  -31.9523  -25.1849   17.4977 C   0  0  0  0  0  0
  -32.6346  -25.9954   19.7437 C   0  0  0  0  0  0
  -29.5139  -26.7979   17.4767 C   0  0  0  0  0  0
  -31.3096  -23.1429   19.5665 C   0  0  0  0  0  0
  -32.0675  -29.1415   19.2978 C   0  0  0  0  0  0
  -30.5941  -24.5264   19.5335 C   0  0  0  0  0  0
  -31.3593  -28.2747   18.2181 C   0  0  0  0  0  0
  -29.6605  -27.4217   19.8902 C   0  0  0  0  0  0
  -31.4008  -25.6943   18.8602 C   0  0  0  0  0  0
  -30.5145  -27.0114   18.6467 C   0  0  1  0  0  0
  -31.3065  -20.8918   20.4541 N   0  0  0  0  0  0
  -30.0647  -15.4051   21.2356 N   0  0  0  0  0  0
  -29.3822  -22.1152   20.5900 O   0  0  0  0  0  0
  -31.4643  -12.3702   19.1171 H   0  0  0  0  0  0
  -30.3043  -11.2718   19.8054 H   0  0  0  0  0  0
  -29.7337  -11.7906   17.4122 H   0  0  0  0  0  0
  -29.6684  -13.4956   17.7772 H   0  0  0  0  0  0
  -27.8255  -11.3094   18.8055 H   0  0  0  0  0  0
  -27.3678  -12.6456   17.7815 H   0  0  0  0  0  0
  -27.7132  -14.2467   19.5839 H   0  0  0  0  0  0
  -28.6720  -11.9292   21.3293 H   0  0  0  0  0  0
  -28.4643  -13.5598   21.8787 H   0  0  0  0  0  0
  -25.2750   -9.5665   22.4748 H   0  0  0  0  0  0
  -23.9989   -7.4626   22.7475 H   0  0  0  0  0  0
  -21.0826   -8.8762   19.8954 H   0  0  0  0  0  0
  -22.3698  -10.9648   19.6150 H   0  0  0  0  0  0
  -21.2020   -7.6138   23.9713 H   0  0  0  0  0  0
  -21.1457   -6.0513   25.9072 H   0  0  0  0  0  0
  -22.0612   -2.7606   23.2856 H   0  0  0  0  0  0
  -22.4071  -11.9893   22.4798 H   0  0  0  0  0  0
  -21.1099  -13.1282   22.2579 H   0  0  0  0  0  0
  -24.6378  -15.8252   20.4798 H   0  0  0  0  0  0
  -26.2482  -15.6125   20.0202 H   0  0  0  0  0  0
  -26.7078  -32.5567   23.1194 H   0  0  0  0  0  0
  -25.0026  -33.9802   25.0485 H   0  0  0  0  0  0
  -22.6809  -31.3042   21.4093 H   0  0  0  0  0  0
  -23.3749  -35.9648   23.3285 H   0  0  0  0  0  0
  -24.3603  -36.8942   22.2054 H   0  0  0  0  0  0
  -23.7240  -37.6519   23.6662 H   0  0  0  0  0  0
  -26.0189  -31.6061   20.5871 H   0  0  0  0  0  0
  -26.8074  -30.9110   21.9743 H   0  0  0  0  0  0
  -28.0604  -29.1516   21.2244 H   0  0  0  0  0  0
  -26.1156  -25.9837   19.0291 H   0  0  0  0  0  0
  -23.9977  -27.2705   19.0536 H   0  0  0  0  0  0
  -23.7046  -30.5873   19.4008 H   0  0  0  0  0  0
  -22.7315  -29.2273   19.8764 H   0  0  0  0  0  0
  -25.1274  -36.1975   25.0840 H   0  0  0  0  0  0
  -20.9937  -28.3214   24.1451 H   0  0  0  0  0  0
  -20.5660  -26.2253   23.3601 H   0  0  0  0  0  0
  -21.6632  -26.7447   22.1212 H   0  0  0  0  0  0
  -19.6902  -25.6300   21.1226 H   0  0  0  0  0  0
  -19.6674  -27.3204   20.6752 H   0  0  0  0  0  0
  -17.4190  -26.6676   21.4011 H   0  0  0  0  0  0
  -18.0297  -26.0057   22.9000 H   0  0  0  0  0  0
  -19.7918  -30.7245   24.2293 H   0  0  0  0  0  0
  -17.5005  -31.6268   24.5156 H   0  0  0  0  0  0
  -15.5340  -30.2996   23.7635 H   0  0  0  0  0  0
  -15.8651  -28.0828   22.7058 H   0  0  0  0  0  0
  -24.5871  -30.7087   25.7831 H   0  0  0  0  0  0
  -24.8965  -32.2862   26.4978 H   0  0  0  0  0  0
  -25.8090  -30.8830   27.0214 H   0  0  0  0  0  0
  -26.2785  -29.6813   24.1136 H   0  0  0  0  0  0
  -27.4095  -29.7267   25.4474 H   0  0  0  0  0  0
  -27.8592  -30.4388   23.9144 H   0  0  0  0  0  0
  -27.2704  -33.3614   26.2042 H   0  0  0  0  0  0
  -28.3831  -32.6838   25.0246 H   0  0  0  0  0  0
  -28.0735  -31.8417   26.5353 H   0  0  0  0  0  0
  -28.2581  -38.0112   24.7538 H   0  0  0  0  0  0
  -28.1088  -36.2654   24.6223 H   0  0  0  0  0  0
  -27.2316  -37.1390   25.8860 H   0  0  0  0  0  0
  -20.9264  -29.8719   21.6949 H   0  0  0  0  0  0
  -26.0170  -38.2864   24.1439 H   0  0  0  0  0  0
  -32.9489  -19.0106   21.3135 H   0  0  0  0  0  0
  -32.4501  -16.6350   21.6552 H   0  0  0  0  0  0
  -28.8058  -19.7319   20.2964 H   0  0  0  0  0  0
  -27.2109  -18.0535   20.4064 H   0  0  0  0  0  0
  -27.5419  -16.6539   21.4200 H   0  0  0  0  0  0
  -27.8662  -16.5920   19.6728 H   0  0  0  0  0  0
  -33.0288  -31.0849   19.4978 H   0  0  0  0  0  0
  -31.6917  -31.0742   18.3580 H   0  0  0  0  0  0
  -33.2363  -30.3514   17.9091 H   0  0  0  0  0  0
  -32.7226  -24.4245   17.6271 H   0  0  0  0  0  0
  -32.4202  -25.9691   16.9063 H   0  0  0  0  0  0
  -31.1699  -24.7382   16.8829 H   0  0  0  0  0  0
  -33.2064  -25.1074   19.9991 H   0  0  0  0  0  0
  -32.3637  -26.4776   20.6825 H   0  0  0  0  0  0
  -33.3481  -26.6273   19.2187 H   0  0  0  0  0  0
  -28.8128  -27.6301   17.4002 H   0  0  0  0  0  0
  -28.9111  -25.8997   17.5978 H   0  0  0  0  0  0
  -30.0147  -26.7285   16.5115 H   0  0  0  0  0  0
  -31.4934  -22.7996   18.5483 H   0  0  0  0  0  0
  -32.2808  -23.2166   20.0508 H   0  0  0  0  0  0
  -31.4187  -29.3525   20.1461 H   0  0  0  0  0  0
  -32.9370  -28.6421   19.7150 H   0  0  0  0  0  0
  -30.3316  -24.8076   20.5541 H   0  0  0  0  0  0
  -29.6420  -24.3892   19.0226 H   0  0  0  0  0  0
  -32.0908  -28.0121   17.4562 H   0  0  0  0  0  0
  -30.6828  -28.9584   17.7025 H   0  0  0  0  0  0
  -29.4678  -28.4862   19.7784 H   0  0  0  0  0  0
  -30.2208  -27.3132   20.8182 H   0  0  0  0  0  0
  -32.2910  -21.0099   20.2602 H   0  0  0  0  0  0
  -29.1374  -15.1505   21.5366 H   0  0  0  0  0  0
  1 25  1  0  0  0
  1 30  2  0  0  0
  1 91  1  0  0  0
  2  3  1  0  0  0
  2 25  1  0  0  0
  2 93  1  0  0  0
  2 94  1  0  0  0
  3  4  1  0  0  0
  3 95  1  0  0  0
  3 96  1  0  0  0
  4  5  1  0  0  0
  4 97  1  0  0  0
  4 98  1  0  0  0
  5  6  1  0  0  0
  5 26  1  0  0  0
  5 99  1  0  0  0
  6 25  1  0  0  0
  6100  1  0  0  0
  6101  1  0  0  0
  7  8  2  0  0  0
  7 26  1  0  0  0
  7 29  1  0  0  0
  8  9  1  0  0  0
  8 22  1  0  0  0
  9 10  1  0  0  0
  9 27  2  0  0  0
 10 11  2  0  0  0
 10 15  1  0  0  0
 11 12  1  0  0  0
 11102  1  0  0  0
 12 13  2  0  0  0
 12103  1  0  0  0
 13 14  1  0  0  0
 13 31  1  0  0  0
 14 15  2  0  0  0
 14104  1  0  0  0
 15105  1  0  0  0
 16 17  2  0  0  0
 16 21  1  0  0  0
 16 31  1  0  0  0
 17 18  1  0  0  0
 17106  1  0  0  0
 18 19  2  0  0  0
 18107  1  0  0  0
 19 20  1  0  0  0
 19 24  1  0  0  0
 20 21  2  0  0  0
 20108  1  0  0  0
 21 23  1  0  0  0
 22 28  1  0  0  0
 22 32  2  0  0  0
 26 27  1  0  0  0
 28109  1  0  0  0
 28110  1  0  0  0
 29111  1  0  0  0
 29112  1  0  0  0
 33 34  1  0  0  0
 33 66  1  0  0  0
 33 70  2  0  0  0
 34 36  1  0  0  0
 34 59  1  0  0  0
 34113  1  0  0  0
 35 44  2  0  0  0
 35 45  1  0  0  0
 35 68  1  0  0  0
 36 56  1  0  0  0
 36114  1  0  0  0
 37 39  1  0  0  0
 37 47  1  0  0  0
 37 66  1  0  0  0
 37115  1  0  0  0
 38 43  2  0  0  0
 38 46  1  0  0  0
 38 47  1  0  0  0
 39 64  1  0  0  0
 39 67  2  0  0  0
 40 52  1  0  0  0
 40 53  2  0  0  0
 40 58  1  0  0  0
 41116  1  0  0  0
 41117  1  0  0  0
 41118  1  0  0  0
 41 48  1  0  0  0
 42 43  1  0  0  0
 42 66  1  0  0  0
 42119  1  0  0  0
 42120  1  0  0  0
 43 44  1  0  0  0
 44121  1  0  0  0
 45 46  2  0  0  0
 45122  1  0  0  0
 46123  1  0  0  0
 47124  1  0  0  0
 47125  1  0  0  0
 48 56  1  0  0  0
 48 65  1  0  0  0
 48126  1  0  0  0
 49 50  1  0  0  0
 49 53  1  0  0  0
 49 64  1  0  0  0
 49127  1  0  0  0
 50 51  1  0  0  0
 50128  1  0  0  0
 50129  1  0  0  0
 51 52  1  0  0  0
 51130  1  0  0  0
 51131  1  0  0  0
 52132  1  0  0  0
 52133  1  0  0  0
 53 54  1  0  0  0
 54 55  2  0  0  0
 54134  1  0  0  0
 55 57  1  0  0  0
 55135  1  0  0  0
 56 69  2  0  0  0
 57 58  2  0  0  0
 57136  1  0  0  0
 58137  1  0  0  0
 59 60  1  0  0  0
 59 61  1  0  0  0
 59 62  1  0  0  0
 60138  1  0  0  0
 60139  1  0  0  0
 60140  1  0  0  0
 61141  1  0  0  0
 61142  1  0  0  0
 61143  1  0  0  0
 62144  1  0  0  0
 62145  1  0  0  0
 62146  1  0  0  0
 63 65  1  0  0  0
 63147  1  0  0  0
 63148  1  0  0  0
 63149  1  0  0  0
 64150  1  0  0  0
 65151  1  0  0  0
 68 87  1  0  0  0
 71 72  2  0  0  0
 71 75  1  0  0  0
 71152  1  0  0  0
 72 76  1  0  0  0
 72153  1  0  0  0
 73 74  1  0  0  0
 73 75  2  0  0  0
 73154  1  0  0  0
 74 76  2  0  0  0
 74 78  1  0  0  0
 75 90  1  0  0  0
 76 91  1  0  0  0
 77 83  1  0  0  0
 77 90  1  0  0  0
 77 92  2  0  0  0
 78155  1  0  0  0
 78156  1  0  0  0
 78157  1  0  0  0
 79 84  1  0  0  0
 79158  1  0  0  0
 79159  1  0  0  0
 79160  1  0  0  0
 80161  1  0  0  0
 80162  1  0  0  0
 80163  1  0  0  0
 80 88  1  0  0  0
 81 88  1  0  0  0
 81164  1  0  0  0
 81165  1  0  0  0
 81166  1  0  0  0
 82167  1  0  0  0
 82168  1  0  0  0
 82169  1  0  0  0
 82 89  1  0  0  0
 83 85  1  0  0  0
 83170  1  0  0  0
 83171  1  0  0  0
 84 86  1  0  0  0
 84172  1  0  0  0
 84173  1  0  0  0
 85 88  1  0  0  0
 85174  1  0  0  0
 85175  1  0  0  0
 86 89  1  0  0  0
 86176  1  0  0  0
 86177  1  0  0  0
 87 89  1  0  0  0
 87178  1  0  0  0
 87179  1  0  0  0
 88 89  1  0  0  0
 90180  1  0  0  0
 91181  1  0  0  0
M  ISO  4   1 100  68 101  87 101  91 100
M  END
> <chiral flag>
0

> <version>
0

> <s_m_source_file>
/data/baiqing/PycharmProjects/Reinvent-master-3.2/result/LINK_invent/BTK/process_docking_weight1_custom_product_contain_oxygen_bond_distance_aromatic_linkinvent_7_9_3/rearranged_h_0144.sdf

> <i_m_source_file_index>
26

> <r_mmod_Potential_Energy-OPLS-2005>
-1.51235771179199

> <r_mmod_Stretch_Energy-OPLS-2005>
49.1078987121582

> <r_mmod_Bend_Energy-OPLS-2005>
133.458023071289

> <r_mmod_Torsional_Energy-OPLS-2005>
285.267883300781

> <r_mmod_Improper_Torsional_Energy-OPLS-2005>
4.56005048751831

> <r_mmod_Van_der_Waal_Energy-OPLS-2005>
190.093902587891

> <r_mmod_Electrostatic_Energy-OPLS-2005>
-458.272277832031

> <r_mmod_Solvation_Energy-OPLS-2005>
-213.800735473633

> <b_mmod_Minimization_Converged-OPLS-2005>
0

> <r_mmod_RMS_Derivative-OPLS-2005>
1.73919141292572

$$$$
26
                    3D
 Structure written by MMmdl.
161170  0  0  1  0            999 V2000
  -30.6729  -14.6288   20.5039 C   0  0  0  0  0  0
  -30.4160  -12.3855   19.4654 C   0  0  0  0  0  0
  -29.5000  -12.4897   18.2293 C   0  0  0  0  0  0
  -28.0256  -12.3315   18.6404 C   0  0  0  0  0  0
  -27.6433  -13.2214   19.8525 C   0  0  2  0  0  0
  -28.6845  -13.1231   20.9893 C   0  0  0  0  0  0
  -25.2522  -13.8182   20.5675 C   0  0  0  0  0  0
  -24.1801  -13.0437   20.9200 C   0  0  0  0  0  0
  -24.6387  -11.6917   20.8748 C   0  0  0  0  0  0
  -23.9059  -10.4292   21.0414 C   0  0  0  0  0  0
  -24.3608   -9.4207   21.9197 C   0  0  0  0  0  0
  -23.6273   -8.2248   22.0767 C   0  0  0  0  0  0
  -22.4257   -8.0279   21.3544 C   0  0  0  0  0  0
  -21.9893   -9.0264   20.4655 C   0  0  0  0  0  0
  -22.7228  -10.2147   20.3073 C   0  0  0  0  0  0
  -21.6847   -6.0744   22.5284 C   0  0  0  0  0  0
  -21.3997   -6.5645   23.8213 C   0  0  0  0  0  0
  -21.3663   -5.6804   24.9181 C   0  0  0  0  0  0
  -21.6044   -4.3066   24.7236 C   0  0  0  0  0  0
  -21.8803   -3.8155   23.4350 C   0  0  0  0  0  0
  -21.9183   -4.6968   22.3407 C   0  0  0  0  0  0
  -22.7823  -13.5240   21.1853 C   0  0  0  0  0  0
  -22.1647   -4.2157   21.0982 F   0  0  0  0  0  0
  -21.5641   -3.4547   25.7747 F   0  0  0  0  0  0
  -29.9974  -13.4387   20.4150 N   0  0  0  0  0  0
  -26.2935  -12.9370   20.3274 N   0  0  0  0  0  0
  -25.9315  -11.6519   20.5752 N   0  0  0  0  0  0
  -22.0456  -12.8264   22.0408 N   0  0  0  0  0  0
  -25.4221  -15.1915   20.4066 N   0  0  0  0  0  0
  -31.8470  -14.6971   20.1333 O   0  0  0  0  0  0
  -21.6618   -6.8882   21.4241 O   0  0  0  0  0  0
  -22.3519  -14.5544   20.6684 O   0  0  0  0  0  0
  -24.6247  -31.8578   23.2010 C   0  0  0  0  0  0
  -25.9083  -32.4764   23.8363 C   0  0  1  0  0  0
  -27.2265  -27.3277   20.1229 C   0  0  0  0  0  0
  -25.5914  -33.8575   24.2274 N   0  0  0  0  0  0
  -23.4211  -30.4794   21.5403 C   0  0  2  0  0  0
  -24.8701  -28.9268   20.1170 C   0  0  0  0  0  0
  -22.7456  -29.4616   22.4912 C   0  0  0  0  0  0
  -18.0269  -28.1397   22.8447 C   0  0  0  0  0  0
  -24.1482  -36.7303   23.2640 C   0  0  0  0  0  0
  -25.9602  -30.7918   21.3690 C   0  0  0  0  0  0
  -26.0380  -29.4182   20.7153 C   0  0  0  0  0  0
  -27.2256  -28.6312   20.7023 C   0  0  0  0  0  0
  -26.0403  -26.8745   19.5147 C   0  0  0  0  0  0
  -24.8698  -27.6584   19.5109 C   0  0  0  0  0  0
  -23.6387  -29.8079   20.1587 C   0  0  0  0  0  0
  -25.4105  -36.3085   24.0326 C   0  0  1  0  0  0
  -20.5861  -28.3700   23.1242 C   0  0  2  0  0  0
  -20.6750  -26.9421   22.5388 C   0  0  0  0  0  0
  -19.5743  -26.6375   21.5175 C   0  0  0  0  0  0
  -18.1921  -26.7933   22.1595 C   0  0  0  0  0  0
  -19.1522  -28.8858   23.2847 C   0  0  0  0  0  0
  -18.9462  -30.1445   23.8894 C   0  0  0  0  0  0
  -17.6475  -30.6592   24.0560 C   0  0  0  0  0  0
  -25.9034  -34.9451   23.5098 C   0  0  0  0  0  0
  -16.5354  -29.9103   23.6324 C   0  0  0  0  0  0
  -16.7262  -28.6518   23.0336 C   0  0  0  0  0  0
  -26.4495  -31.6583   25.0727 C   0  0  0  0  0  0
  -25.3761  -31.3737   26.1482 C   0  0  0  0  0  0
  -27.0329  -30.2998   24.6184 C   0  0  0  0  0  0
  -27.6050  -32.4339   25.7518 C   0  0  0  0  0  0
  -27.5578  -37.1798   24.8468 C   0  0  0  0  0  0
  -21.4166  -29.3068   22.3659 N   0  0  0  0  0  0
  -26.4286  -37.3774   23.9409 N   0  0  0  0  0  0
  -24.6877  -31.0601   22.0940 N   0  0  0  0  0  0
  -23.4176  -28.8142   23.2988 O   0  0  0  0  0  0
  -28.3404  -26.4860   20.1139 O   0  0  0  0  0  0
  -26.5611  -34.8917   22.4666 O   0  0  0  0  0  0
  -23.5400  -32.1385   23.7309 O   0  0  0  0  0  0
  -31.5665  -19.7745   21.1780 C   0  0  0  0  0  0
  -29.6716  -18.3449   20.6497 C   0  0  0  0  0  0
  -31.7830  -17.3571   21.3810 C   0  0  0  0  0  0
  -30.2172  -19.6857   20.7458 C   0  0  0  0  0  0
  -32.3395  -18.6422   21.4869 C   0  0  0  0  0  0
  -30.4560  -17.1555   20.9293 C   0  0  0  0  0  0
  -29.5438  -23.3267   19.4993 C   0  0  0  0  0  0
  -27.8397  -22.6409   21.2128 C   0  0  0  0  0  0
  -30.3263  -22.1562   20.1853 C   0  0  0  0  0  0
  -28.1171  -21.1674   20.7269 C   0  0  0  0  0  0
  -28.2350  -23.7848   20.2140 C   0  0  0  0  0  0
  -28.2509  -25.2353   20.8887 C   0  0  0  0  0  0
  -29.5343  -20.9201   20.4099 N   0  0  0  0  0  0
  -33.6683  -18.7972   21.8925 N   0  0  0  0  0  0
  -29.9590  -15.7730   20.7989 N   0  0  0  0  0  0
  -31.4612  -12.4758   19.1660 H   0  0  0  0  0  0
  -30.3249  -11.4029   19.9289 H   0  0  0  0  0  0
  -29.7682  -11.7300   17.4952 H   0  0  0  0  0  0
  -29.6468  -13.4531   17.7389 H   0  0  0  0  0  0
  -27.8648  -11.2814   18.8881 H   0  0  0  0  0  0
  -27.3707  -12.5432   17.7954 H   0  0  0  0  0  0
  -27.6488  -14.2477   19.4859 H   0  0  0  0  0  0
  -28.6909  -12.1184   21.4154 H   0  0  0  0  0  0
  -28.4331  -13.8006   21.8074 H   0  0  0  0  0  0
  -25.2766   -9.5681   22.4764 H   0  0  0  0  0  0
  -23.9984   -7.4642   22.7494 H   0  0  0  0  0  0
  -21.0817   -8.8779   19.8966 H   0  0  0  0  0  0
  -22.3676  -10.9683   19.6182 H   0  0  0  0  0  0
  -21.1967   -7.6153   23.9712 H   0  0  0  0  0  0
  -21.1504   -6.0544   25.9087 H   0  0  0  0  0  0
  -22.0574   -2.7618   23.2855 H   0  0  0  0  0  0
  -22.4046  -11.9934   22.4837 H   0  0  0  0  0  0
  -21.1075  -13.1319   22.2581 H   0  0  0  0  0  0
  -24.6496  -15.8405   20.5058 H   0  0  0  0  0  0
  -26.2623  -15.6309   20.0524 H   0  0  0  0  0  0
  -26.7150  -32.5432   23.1120 H   0  0  0  0  0  0
  -25.0072  -33.9735   25.0433 H   0  0  0  0  0  0
  -22.7159  -31.2993   21.3884 H   0  0  0  0  0  0
  -23.3728  -35.9655   23.3329 H   0  0  0  0  0  0
  -24.3577  -36.8904   22.2051 H   0  0  0  0  0  0
  -23.7245  -37.6514   23.6653 H   0  0  0  0  0  0
  -26.0831  -31.5506   20.5968 H   0  0  0  0  0  0
  -26.8452  -30.8471   21.9928 H   0  0  0  0  0  0
  -28.1287  -29.0050   21.1621 H   0  0  0  0  0  0
  -26.0172  -25.8974   19.0529 H   0  0  0  0  0  0
  -23.9735  -27.2704   19.0471 H   0  0  0  0  0  0
  -23.7686  -30.5816   19.4019 H   0  0  0  0  0  0
  -22.7607  -29.2378   19.8475 H   0  0  0  0  0  0
  -25.1276  -36.1953   25.0816 H   0  0  0  0  0  0
  -20.9941  -28.3289   24.1374 H   0  0  0  0  0  0
  -20.5572  -26.2342   23.3601 H   0  0  0  0  0  0
  -21.6629  -26.7407   22.1241 H   0  0  0  0  0  0
  -19.6924  -25.6278   21.1230 H   0  0  0  0  0  0
  -19.6692  -27.3165   20.6688 H   0  0  0  0  0  0
  -17.4173  -26.6616   21.4022 H   0  0  0  0  0  0
  -18.0379  -26.0091   22.9013 H   0  0  0  0  0  0
  -19.7944  -30.7224   24.2289 H   0  0  0  0  0  0
  -17.5044  -31.6274   24.5163 H   0  0  0  0  0  0
  -15.5359  -30.3020   23.7652 H   0  0  0  0  0  0
  -15.8650  -28.0843   22.7068 H   0  0  0  0  0  0
  -24.5910  -30.7091   25.7860 H   0  0  0  0  0  0
  -24.8980  -32.2902   26.4939 H   0  0  0  0  0  0
  -25.8113  -30.8919   27.0242 H   0  0  0  0  0  0
  -26.2886  -29.6759   24.1194 H   0  0  0  0  0  0
  -27.4001  -29.7241   25.4695 H   0  0  0  0  0  0
  -27.8792  -30.4286   23.9428 H   0  0  0  0  0  0
  -27.2628  -33.3618   26.2130 H   0  0  0  0  0  0
  -28.3859  -32.6930   25.0357 H   0  0  0  0  0  0
  -28.0732  -31.8446   26.5417 H   0  0  0  0  0  0
  -28.2585  -38.0097   24.7474 H   0  0  0  0  0  0
  -28.1065  -36.2607   24.6329 H   0  0  0  0  0  0
  -27.2297  -37.1520   25.8874 H   0  0  0  0  0  0
  -20.9342  -29.8862   21.6932 H   0  0  0  0  0  0
  -26.0167  -38.2850   24.1408 H   0  0  0  0  0  0
  -32.0458  -20.7340   21.2908 H   0  0  0  0  0  0
  -28.6499  -18.2255   20.3146 H   0  0  0  0  0  0
  -32.4052  -16.5147   21.6495 H   0  0  0  0  0  0
  -29.2974  -23.0078   18.4860 H   0  0  0  0  0  0
  -30.2027  -24.1847   19.3716 H   0  0  0  0  0  0
  -28.3808  -22.7995   22.1479 H   0  0  0  0  0  0
  -26.7855  -22.7428   21.4796 H   0  0  0  0  0  0
  -30.7171  -22.5085   21.1419 H   0  0  0  0  0  0
  -31.1947  -21.9183   19.5667 H   0  0  0  0  0  0
  -27.5216  -20.9560   19.8387 H   0  0  0  0  0  0
  -27.7831  -20.4652   21.4925 H   0  0  0  0  0  0
  -27.4561  -23.8112   19.4517 H   0  0  0  0  0  0
  -29.0907  -25.2583   21.5850 H   0  0  0  0  0  0
  -27.3693  -25.3021   21.5300 H   0  0  0  0  0  0
  -34.1356  -19.6688   21.6598 H   0  0  0  0  0  0
  -34.2892  -18.0000   21.7854 H   0  0  0  0  0  0
  -28.9661  -15.6406   20.9046 H   0  0  0  0  0  0
  1 25  1  0  0  0
  1 30  2  0  0  0
  1 85  1  0  0  0
  2  3  1  0  0  0
  2 25  1  0  0  0
  2 86  1  0  0  0
  2 87  1  0  0  0
  3  4  1  0  0  0
  3 88  1  0  0  0
  3 89  1  0  0  0
  4  5  1  0  0  0
  4 90  1  0  0  0
  4 91  1  0  0  0
  5  6  1  0  0  0
  5 26  1  0  0  0
  5 92  1  0  0  0
  6 25  1  0  0  0
  6 93  1  0  0  0
  6 94  1  0  0  0
  7  8  2  0  0  0
  7 26  1  0  0  0
  7 29  1  0  0  0
  8  9  1  0  0  0
  8 22  1  0  0  0
  9 10  1  0  0  0
  9 27  2  0  0  0
 10 11  2  0  0  0
 10 15  1  0  0  0
 11 12  1  0  0  0
 11 95  1  0  0  0
 12 13  2  0  0  0
 12 96  1  0  0  0
 13 14  1  0  0  0
 13 31  1  0  0  0
 14 15  2  0  0  0
 14 97  1  0  0  0
 15 98  1  0  0  0
 16 17  2  0  0  0
 16 21  1  0  0  0
 16 31  1  0  0  0
 17 18  1  0  0  0
 17 99  1  0  0  0
 18 19  2  0  0  0
 18100  1  0  0  0
 19 20  1  0  0  0
 19 24  1  0  0  0
 20 21  2  0  0  0
 20101  1  0  0  0
 21 23  1  0  0  0
 22 28  1  0  0  0
 22 32  2  0  0  0
 26 27  1  0  0  0
 28102  1  0  0  0
 28103  1  0  0  0
 29104  1  0  0  0
 29105  1  0  0  0
 33 34  1  0  0  0
 33 66  1  0  0  0
 33 70  2  0  0  0
 34 36  1  0  0  0
 34 59  1  0  0  0
 34106  1  0  0  0
 35 44  2  0  0  0
 35 45  1  0  0  0
 35 68  1  0  0  0
 36 56  1  0  0  0
 36107  1  0  0  0
 37 39  1  0  0  0
 37 47  1  0  0  0
 37 66  1  0  0  0
 37108  1  0  0  0
 38 43  2  0  0  0
 38 46  1  0  0  0
 38 47  1  0  0  0
 39 64  1  0  0  0
 39 67  2  0  0  0
 40 52  1  0  0  0
 40 53  2  0  0  0
 40 58  1  0  0  0
 41109  1  0  0  0
 41110  1  0  0  0
 41111  1  0  0  0
 41 48  1  0  0  0
 42 43  1  0  0  0
 42 66  1  0  0  0
 42112  1  0  0  0
 42113  1  0  0  0
 43 44  1  0  0  0
 44114  1  0  0  0
 45 46  2  0  0  0
 45115  1  0  0  0
 46116  1  0  0  0
 47117  1  0  0  0
 47118  1  0  0  0
 48 56  1  0  0  0
 48 65  1  0  0  0
 48119  1  0  0  0
 49 50  1  0  0  0
 49 53  1  0  0  0
 49 64  1  0  0  0
 49120  1  0  0  0
 50 51  1  0  0  0
 50121  1  0  0  0
 50122  1  0  0  0
 51 52  1  0  0  0
 51123  1  0  0  0
 51124  1  0  0  0
 52125  1  0  0  0
 52126  1  0  0  0
 53 54  1  0  0  0
 54 55  2  0  0  0
 54127  1  0  0  0
 55 57  1  0  0  0
 55128  1  0  0  0
 56 69  2  0  0  0
 57 58  2  0  0  0
 57129  1  0  0  0
 58130  1  0  0  0
 59 60  1  0  0  0
 59 61  1  0  0  0
 59 62  1  0  0  0
 60131  1  0  0  0
 60132  1  0  0  0
 60133  1  0  0  0
 61134  1  0  0  0
 61135  1  0  0  0
 61136  1  0  0  0
 62137  1  0  0  0
 62138  1  0  0  0
 62139  1  0  0  0
 63 65  1  0  0  0
 63140  1  0  0  0
 63141  1  0  0  0
 63142  1  0  0  0
 64143  1  0  0  0
 65144  1  0  0  0
 68 82  1  0  0  0
 71 74  2  0  0  0
 71 75  1  0  0  0
 71145  1  0  0  0
 72 74  1  0  0  0
 72 76  2  0  0  0
 72146  1  0  0  0
 73 75  2  0  0  0
 73 76  1  0  0  0
 73147  1  0  0  0
 74 83  1  0  0  0
 75 84  1  0  0  0
 76 85  1  0  0  0
 77 79  1  0  0  0
 77 81  1  0  0  0
 77148  1  0  0  0
 77149  1  0  0  0
 78 80  1  0  0  0
 78 81  1  0  0  0
 78150  1  0  0  0
 78151  1  0  0  0
 79 83  1  0  0  0
 79152  1  0  0  0
 79153  1  0  0  0
 80 83  1  0  0  0
 80154  1  0  0  0
 80155  1  0  0  0
 81 82  1  0  0  0
 81156  1  0  0  0
 82157  1  0  0  0
 82158  1  0  0  0
 84159  1  0  0  0
 84160  1  0  0  0
 85161  1  0  0  0
M  ISO  4   1 100  68 101  82 101  85 100
M  END
> <chiral flag>
0

> <version>
0

> <s_m_source_file>
/data/baiqing/PycharmProjects/Reinvent-master-3.2/result/LINK_invent/BTK/process_docking_weight1_custom_product_contain_oxygen_bond_distance_aromatic_linkinvent_7_9_3/rearranged_h_0144.sdf

> <i_m_source_file_index>
27

> <r_mmod_Potential_Energy-OPLS-2005>
204.507705688477

> <r_mmod_Stretch_Energy-OPLS-2005>
87.245979309082

> <r_mmod_Bend_Energy-OPLS-2005>
150.713272094727

> <r_mmod_Torsional_Energy-OPLS-2005>
291.093109130859

> <r_mmod_Improper_Torsional_Energy-OPLS-2005>
9.81277465820312

> <r_mmod_Van_der_Waal_Energy-OPLS-2005>
158.607543945312

> <r_mmod_Electrostatic_Energy-OPLS-2005>
-305.326171875

> <r_mmod_Solvation_Energy-OPLS-2005>
-234.102035522461

> <b_mmod_Minimization_Converged-OPLS-2005>
0

> <r_mmod_RMS_Derivative-OPLS-2005>
3.31059861183167

$$$$
27
                    3D
 Structure written by MMmdl.
183192  0  0  1  0            999 V2000
  -30.7566  -14.3739   20.6532 C   0  0  0  0  0  0
  -30.4187  -12.2806   19.3952 C   0  0  0  0  0  0
  -29.4860  -12.5255   18.1938 C   0  0  0  0  0  0
  -28.0083  -12.3888   18.6081 C   0  0  0  0  0  0
  -27.6685  -13.2038   19.8839 C   0  0  2  0  0  0
  -28.7080  -12.9346   20.9949 C   0  0  0  0  0  0
  -25.2609  -13.8159   20.5687 C   0  0  0  0  0  0
  -24.1848  -13.0441   20.9171 C   0  0  0  0  0  0
  -24.6395  -11.6908   20.8726 C   0  0  0  0  0  0
  -23.9056  -10.4297   21.0400 C   0  0  0  0  0  0
  -24.3610   -9.4209   21.9185 C   0  0  0  0  0  0
  -23.6289   -8.2247   22.0755 C   0  0  0  0  0  0
  -22.4274   -8.0280   21.3548 C   0  0  0  0  0  0
  -21.9905   -9.0252   20.4643 C   0  0  0  0  0  0
  -22.7233  -10.2128   20.3051 C   0  0  0  0  0  0
  -21.6852   -6.0734   22.5282 C   0  0  0  0  0  0
  -21.4012   -6.5640   23.8212 C   0  0  0  0  0  0
  -21.3657   -5.6794   24.9169 C   0  0  0  0  0  0
  -21.6047   -4.3051   24.7226 C   0  0  0  0  0  0
  -21.8819   -3.8140   23.4343 C   0  0  0  0  0  0
  -21.9194   -4.6963   22.3403 C   0  0  0  0  0  0
  -22.7871  -13.5245   21.1833 C   0  0  0  0  0  0
  -22.1661   -4.2152   21.0977 F   0  0  0  0  0  0
  -21.5628   -3.4532   25.7728 F   0  0  0  0  0  0
  -30.0516  -13.2287   20.4566 N   0  0  0  0  0  0
  -26.3052  -12.9327   20.3405 N   0  0  0  0  0  0
  -25.9327  -11.6489   20.5776 N   0  0  0  0  0  0
  -22.0495  -12.8233   22.0376 N   0  0  0  0  0  0
  -25.4356  -15.1874   20.4112 N   0  0  0  0  0  0
  -31.8045  -14.6224   20.0515 O   0  0  0  0  0  0
  -21.6638   -6.8871   21.4236 O   0  0  0  0  0  0
  -22.3569  -14.5560   20.6698 O   0  0  0  0  0  0
  -24.6169  -31.8682   23.2150 C   0  0  0  0  0  0
  -25.9076  -32.4812   23.8434 C   0  0  1  0  0  0
  -27.2290  -27.4611   20.0679 C   0  0  0  0  0  0
  -25.5943  -33.8610   24.2368 N   0  0  0  0  0  0
  -23.3998  -30.4995   21.5556 C   0  0  2  0  0  0
  -24.8406  -28.9767   20.1074 C   0  0  0  0  0  0
  -22.7402  -29.4682   22.5002 C   0  0  0  0  0  0
  -18.0263  -28.1378   22.8498 C   0  0  0  0  0  0
  -24.1483  -36.7308   23.2643 C   0  0  0  0  0  0
  -25.9280  -30.8461   21.3591 C   0  0  0  0  0  0
  -26.0032  -29.4860   20.6987 C   0  0  0  0  0  0
  -27.1990  -28.7362   20.6757 C   0  0  0  0  0  0
  -26.0459  -26.9745   19.4579 C   0  0  0  0  0  0
  -24.8564  -27.7197   19.4851 C   0  0  0  0  0  0
  -23.6031  -29.8414   20.1659 C   0  0  0  0  0  0
  -25.4097  -36.3098   24.0352 C   0  0  1  0  0  0
  -20.5859  -28.3677   23.1301 C   0  0  2  0  0  0
  -20.6757  -26.9414   22.5411 C   0  0  0  0  0  0
  -19.5739  -26.6390   21.5211 C   0  0  0  0  0  0
  -18.1919  -26.7928   22.1628 C   0  0  0  0  0  0
  -19.1518  -28.8842   23.2900 C   0  0  0  0  0  0
  -18.9442  -30.1448   23.8912 C   0  0  0  0  0  0
  -17.6444  -30.6587   24.0578 C   0  0  0  0  0  0
  -25.9038  -34.9461   23.5141 C   0  0  0  0  0  0
  -16.5333  -29.9098   23.6327 C   0  0  0  0  0  0
  -16.7257  -28.6515   23.0351 C   0  0  0  0  0  0
  -26.4500  -31.6576   25.0751 C   0  0  0  0  0  0
  -25.3777  -31.3637   26.1507 C   0  0  0  0  0  0
  -27.0359  -30.3042   24.6094 C   0  0  0  0  0  0
  -27.6086  -32.4283   25.7514 C   0  0  0  0  0  0
  -27.5560  -37.1825   24.8470 C   0  0  0  0  0  0
  -21.4135  -29.3053   22.3725 N   0  0  0  0  0  0
  -26.4263  -37.3798   23.9427 N   0  0  0  0  0  0
  -24.6670  -31.0834   22.1026 N   0  0  0  0  0  0
  -23.4175  -28.8210   23.3031 O   0  0  0  0  0  0
  -28.3923  -26.7188   20.1437 O   0  0  0  0  0  0
  -26.5577  -34.8898   22.4689 O   0  0  0  0  0  0
  -23.5373  -32.1403   23.7578 O   0  0  0  0  0  0
  -30.9927  -19.2341   22.6589 C   0  0  0  0  0  0
  -31.5107  -17.3334   21.2211 C   0  0  0  0  0  0
  -29.7960  -17.1272   22.9387 C   0  0  0  0  0  0
  -31.7325  -18.6731   21.6004 C   0  0  0  0  0  0
  -30.0119  -18.4666   23.3191 C   0  0  0  0  0  0
  -30.5411  -16.5462   21.8924 C   0  0  0  0  0  0
  -26.7434  -21.4428   22.9338 C   0  0  0  0  0  0
  -26.4247  -22.5189   22.1967 C   0  0  0  0  0  0
  -25.9266  -20.9382   24.0938 C   0  0  0  0  0  0
  -27.9730  -20.5793   22.7786 C   0  0  0  0  0  0
  -26.9215  -20.0808   24.8710 C   0  0  0  0  0  0
  -34.1654  -19.3427   21.4365 C   0  0  0  0  0  0
  -26.2988  -23.0214   19.7921 C   0  0  0  0  0  0
  -26.7396  -25.3548   22.1717 C   0  0  0  0  0  0
  -32.7562  -19.5161   20.8626 C   0  0  0  0  0  0
  -29.1536  -19.0916   24.4062 C   0  0  0  0  0  0
  -29.0308  -24.3500   22.2897 C   0  0  0  0  0  0
  -28.2952  -25.2852   20.0588 C   0  0  0  0  0  0
  -27.2139  -23.1108   21.0311 C   0  0  1  0  0  0
  -27.7963  -24.5440   21.3640 C   0  0  2  0  0  0
  -30.2223  -15.1994   21.5661 N   0  0  0  0  0  0
  -27.8638  -19.5654   23.8550 N   0  3  2  0  0  0
  -29.5966  -25.5862   22.6956 O   0  0  0  0  0  0
  -31.4625  -12.3754   19.0902 H   0  0  0  0  0  0
  -30.3125  -11.2576   19.7590 H   0  0  0  0  0  0
  -29.7145  -11.8252   17.3898 H   0  0  0  0  0  0
  -29.6627  -13.5236   17.7895 H   0  0  0  0  0  0
  -27.8059  -11.3309   18.7775 H   0  0  0  0  0  0
  -27.3599  -12.6930   17.7865 H   0  0  0  0  0  0
  -27.7283  -14.2605   19.6221 H   0  0  0  0  0  0
  -28.6689  -11.8864   21.2961 H   0  0  0  0  0  0
  -28.4585  -13.4960   21.8953 H   0  0  0  0  0  0
  -25.2754   -9.5692   22.4762 H   0  0  0  0  0  0
  -23.9998   -7.4639   22.7476 H   0  0  0  0  0  0
  -21.0840   -8.8770   19.8945 H   0  0  0  0  0  0
  -22.3699  -10.9667   19.6155 H   0  0  0  0  0  0
  -21.1998   -7.6151   23.9718 H   0  0  0  0  0  0
  -21.1477   -6.0516   25.9077 H   0  0  0  0  0  0
  -22.0596   -2.7609   23.2837 H   0  0  0  0  0  0
  -22.4086  -11.9872   22.4746 H   0  0  0  0  0  0
  -21.1107  -13.1268   22.2565 H   0  0  0  0  0  0
  -24.6709  -15.8455   20.5109 H   0  0  0  0  0  0
  -26.2944  -15.6212   20.0954 H   0  0  0  0  0  0
  -26.7179  -32.5514   23.1233 H   0  0  0  0  0  0
  -25.0195  -33.9778   25.0580 H   0  0  0  0  0  0
  -22.6895  -31.3182   21.4213 H   0  0  0  0  0  0
  -23.3716  -35.9671   23.3291 H   0  0  0  0  0  0
  -24.3609  -36.8913   22.2059 H   0  0  0  0  0  0
  -23.7234  -37.6511   23.6660 H   0  0  0  0  0  0
  -26.0273  -31.6149   20.5922 H   0  0  0  0  0  0
  -26.8217  -30.8995   21.9689 H   0  0  0  0  0  0
  -28.0919  -29.1220   21.1472 H   0  0  0  0  0  0
  -26.0009  -26.0187   18.9631 H   0  0  0  0  0  0
  -23.9648  -27.3238   19.0199 H   0  0  0  0  0  0
  -23.7120  -30.6230   19.4136 H   0  0  0  0  0  0
  -22.7255  -29.2673   19.8616 H   0  0  0  0  0  0
  -25.1257  -36.1980   25.0843 H   0  0  0  0  0  0
  -20.9951  -28.3225   24.1419 H   0  0  0  0  0  0
  -20.5647  -26.2289   23.3600 H   0  0  0  0  0  0
  -21.6625  -26.7445   22.1205 H   0  0  0  0  0  0
  -19.6903  -25.6297   21.1238 H   0  0  0  0  0  0
  -19.6688  -27.3205   20.6741 H   0  0  0  0  0  0
  -17.4198  -26.6696   21.4016 H   0  0  0  0  0  0
  -18.0311  -26.0046   22.8996 H   0  0  0  0  0  0
  -19.7920  -30.7274   24.2285 H   0  0  0  0  0  0
  -17.5003  -31.6268   24.5179 H   0  0  0  0  0  0
  -15.5344  -30.3024   23.7632 H   0  0  0  0  0  0
  -15.8646  -28.0855   22.7046 H   0  0  0  0  0  0
  -24.6042  -30.6872   25.7851 H   0  0  0  0  0  0
  -24.8864  -32.2746   26.4933 H   0  0  0  0  0  0
  -25.8170  -30.8871   27.0279 H   0  0  0  0  0  0
  -26.2916  -29.6783   24.1164 H   0  0  0  0  0  0
  -27.4157  -29.7299   25.4549 H   0  0  0  0  0  0
  -27.8721  -30.4370   23.9229 H   0  0  0  0  0  0
  -27.2754  -33.3613   26.2071 H   0  0  0  0  0  0
  -28.3929  -32.6773   25.0353 H   0  0  0  0  0  0
  -28.0725  -31.8402   26.5444 H   0  0  0  0  0  0
  -28.2570  -38.0128   24.7510 H   0  0  0  0  0  0
  -28.1042  -36.2650   24.6282 H   0  0  0  0  0  0
  -27.2291  -37.1445   25.8876 H   0  0  0  0  0  0
  -20.9309  -29.8826   21.6979 H   0  0  0  0  0  0
  -26.0126  -38.2859   24.1449 H   0  0  0  0  0  0
  -31.1644  -20.2619   22.9483 H   0  0  0  0  0  0
  -32.0949  -16.9434   20.4012 H   0  0  0  0  0  0
  -29.0399  -16.5464   23.4491 H   0  0  0  0  0  0
  -25.4986  -23.0252   22.4327 H   0  0  0  0  0  0
  -25.1047  -20.3306   23.7142 H   0  0  0  0  0  0
  -25.5138  -21.7488   24.6958 H   0  0  0  0  0  0
  -28.8607  -21.2019   22.8993 H   0  0  0  0  0  0
  -28.0062  -20.1062   21.7959 H   0  0  0  0  0  0
  -26.4380  -19.2792   25.4313 H   0  0  0  0  0  0
  -27.4611  -20.7066   25.5837 H   0  0  0  0  0  0
  -34.8779  -19.9823   20.9149 H   0  0  0  0  0  0
  -34.5079  -18.3126   21.3337 H   0  0  0  0  0  0
  -34.1937  -19.6037   22.4951 H   0  0  0  0  0  0
  -25.8038  -22.0495   19.7411 H   0  0  0  0  0  0
  -26.8536  -23.1112   18.8594 H   0  0  0  0  0  0
  -25.5167  -23.7806   19.8053 H   0  0  0  0  0  0
  -27.0771  -26.3666   22.3877 H   0  0  0  0  0  0
  -26.5532  -24.9216   23.1551 H   0  0  0  0  0  0
  -25.7816  -25.4178   21.6564 H   0  0  0  0  0  0
  -32.4628  -20.5660   20.9065 H   0  0  0  0  0  0
  -32.7498  -19.2460   19.8056 H   0  0  0  0  0  0
  -29.6893  -19.9169   24.8774 H   0  0  0  0  0  0
  -28.9684  -18.3530   25.1877 H   0  0  0  0  0  0
  -29.8019  -23.7667   21.7863 H   0  0  0  0  0  0
  -28.7602  -23.7831   23.1814 H   0  0  0  0  0  0
  -27.7602  -25.0122   19.1574 H   0  0  0  0  0  0
  -29.3014  -24.9323   19.8283 H   0  0  0  0  0  0
  -28.0563  -22.4498   20.8226 H   0  0  0  0  0  0
  -29.4165  -14.8131   22.0335 H   0  0  0  0  0  0
  -27.4117  -18.7663   23.4376 H   0  0  0  0  0  0
  -29.5899  -26.1664   21.9379 H   0  0  0  0  0  0
  1 25  1  0  0  0
  1 30  2  0  0  0
  1 91  1  0  0  0
  2  3  1  0  0  0
  2 25  1  0  0  0
  2 94  1  0  0  0
  2 95  1  0  0  0
  3  4  1  0  0  0
  3 96  1  0  0  0
  3 97  1  0  0  0
  4  5  1  0  0  0
  4 98  1  0  0  0
  4 99  1  0  0  0
  5  6  1  0  0  0
  5 26  1  0  0  0
  5100  1  0  0  0
  6 25  1  0  0  0
  6101  1  0  0  0
  6102  1  0  0  0
  7  8  2  0  0  0
  7 26  1  0  0  0
  7 29  1  0  0  0
  8  9  1  0  0  0
  8 22  1  0  0  0
  9 10  1  0  0  0
  9 27  2  0  0  0
 10 11  2  0  0  0
 10 15  1  0  0  0
 11 12  1  0  0  0
 11103  1  0  0  0
 12 13  2  0  0  0
 12104  1  0  0  0
 13 14  1  0  0  0
 13 31  1  0  0  0
 14 15  2  0  0  0
 14105  1  0  0  0
 15106  1  0  0  0
 16 17  2  0  0  0
 16 21  1  0  0  0
 16 31  1  0  0  0
 17 18  1  0  0  0
 17107  1  0  0  0
 18 19  2  0  0  0
 18108  1  0  0  0
 19 20  1  0  0  0
 19 24  1  0  0  0
 20 21  2  0  0  0
 20109  1  0  0  0
 21 23  1  0  0  0
 22 28  1  0  0  0
 22 32  2  0  0  0
 26 27  1  0  0  0
 28110  1  0  0  0
 28111  1  0  0  0
 29112  1  0  0  0
 29113  1  0  0  0
 33 34  1  0  0  0
 33 66  1  0  0  0
 33 70  2  0  0  0
 34 36  1  0  0  0
 34 59  1  0  0  0
 34114  1  0  0  0
 35 44  2  0  0  0
 35 45  1  0  0  0
 35 68  1  0  0  0
 36 56  1  0  0  0
 36115  1  0  0  0
 37 39  1  0  0  0
 37 47  1  0  0  0
 37 66  1  0  0  0
 37116  1  0  0  0
 38 43  2  0  0  0
 38 46  1  0  0  0
 38 47  1  0  0  0
 39 64  1  0  0  0
 39 67  2  0  0  0
 40 52  1  0  0  0
 40 53  2  0  0  0
 40 58  1  0  0  0
 41117  1  0  0  0
 41118  1  0  0  0
 41119  1  0  0  0
 41 48  1  0  0  0
 42 43  1  0  0  0
 42 66  1  0  0  0
 42120  1  0  0  0
 42121  1  0  0  0
 43 44  1  0  0  0
 44122  1  0  0  0
 45 46  2  0  0  0
 45123  1  0  0  0
 46124  1  0  0  0
 47125  1  0  0  0
 47126  1  0  0  0
 48 56  1  0  0  0
 48 65  1  0  0  0
 48127  1  0  0  0
 49 50  1  0  0  0
 49 53  1  0  0  0
 49 64  1  0  0  0
 49128  1  0  0  0
 50 51  1  0  0  0
 50129  1  0  0  0
 50130  1  0  0  0
 51 52  1  0  0  0
 51131  1  0  0  0
 51132  1  0  0  0
 52133  1  0  0  0
 52134  1  0  0  0
 53 54  1  0  0  0
 54 55  2  0  0  0
 54135  1  0  0  0
 55 57  1  0  0  0
 55136  1  0  0  0
 56 69  2  0  0  0
 57 58  2  0  0  0
 57137  1  0  0  0
 58138  1  0  0  0
 59 60  1  0  0  0
 59 61  1  0  0  0
 59 62  1  0  0  0
 60139  1  0  0  0
 60140  1  0  0  0
 60141  1  0  0  0
 61142  1  0  0  0
 61143  1  0  0  0
 61144  1  0  0  0
 62145  1  0  0  0
 62146  1  0  0  0
 62147  1  0  0  0
 63 65  1  0  0  0
 63148  1  0  0  0
 63149  1  0  0  0
 63150  1  0  0  0
 64151  1  0  0  0
 65152  1  0  0  0
 68 88  1  0  0  0
 71 74  2  0  0  0
 71 75  1  0  0  0
 71153  1  0  0  0
 72 74  1  0  0  0
 72 76  2  0  0  0
 72154  1  0  0  0
 73 75  2  0  0  0
 73 76  1  0  0  0
 73155  1  0  0  0
 74 85  1  0  0  0
 75 86  1  0  0  0
 76 91  1  0  0  0
 77 78  2  0  0  0
 77 79  1  0  0  0
 77 80  1  0  0  0
 78 89  1  0  0  0
 78156  1  0  0  0
 79 81  1  0  0  0
 79157  1  0  0  0
 79158  1  0  0  0
 80 92  1  0  0  0
 80159  1  0  0  0
 80160  1  0  0  0
 81 92  1  0  0  0
 81161  1  0  0  0
 81162  1  0  0  0
 82 85  1  0  0  0
 82163  1  0  0  0
 82164  1  0  0  0
 82165  1  0  0  0
 83166  1  0  0  0
 83167  1  0  0  0
 83168  1  0  0  0
 83 89  1  0  0  0
 84169  1  0  0  0
 84170  1  0  0  0
 84171  1  0  0  0
 84 90  1  0  0  0
 85172  1  0  0  0
 85173  1  0  0  0
 86174  1  0  0  0
 86175  1  0  0  0
 86 92  1  0  0  0
 87 90  1  0  0  0
 87 93  1  0  0  0
 87176  1  0  0  0
 87177  1  0  0  0
 88 90  1  0  0  0
 88178  1  0  0  0
 88179  1  0  0  0
 89 90  1  0  0  0
 89180  1  0  0  0
 91181  1  0  0  0
 92182  1  0  0  0
 93183  1  0  0  0
M  CHG  1  92   1
M  ISO  4   1 100  68 101  88 101  91 100
M  END
> <chiral flag>
0

> <version>
0

> <s_m_source_file>
/data/baiqing/PycharmProjects/Reinvent-master-3.2/result/LINK_invent/BTK/process_docking_weight1_custom_product_contain_oxygen_bond_distance_aromatic_linkinvent_7_9_3/rearranged_h_0144.sdf

> <i_m_source_file_index>
28

> <r_mmod_Potential_Energy-OPLS-2005>
-99.2317962646484

> <r_mmod_Stretch_Energy-OPLS-2005>
42.4735450744629

> <r_mmod_Bend_Energy-OPLS-2005>
143.816390991211

> <r_mmod_Torsional_Energy-OPLS-2005>
253.118560791016

> <r_mmod_Improper_Torsional_Energy-OPLS-2005>
2.07136535644531

> <r_mmod_Van_der_Waal_Energy-OPLS-2005>
170.865478515625

> <r_mmod_Electrostatic_Energy-OPLS-2005>
-265.733489990234

> <r_mmod_Solvation_Energy-OPLS-2005>
-455.390960693359

> <b_mmod_Minimization_Converged-OPLS-2005>
0

> <r_mmod_RMS_Derivative-OPLS-2005>
2.23040103912354

$$$$
28
                    3D
 Structure written by MMmdl.
166175  0  0  1  0            999 V2000
  -30.6007  -14.6218   20.5364 C   0  0  0  0  0  0
  -30.4505  -12.3904   19.4438 C   0  0  0  0  0  0
  -29.5109  -12.5205   18.2226 C   0  0  0  0  0  0
  -28.0318  -12.3563   18.6313 C   0  0  0  0  0  0
  -27.6600  -13.2083   19.8735 C   0  0  2  0  0  0
  -28.7039  -13.0158   20.9970 C   0  0  0  0  0  0
  -25.2578  -13.8152   20.5660 C   0  0  0  0  0  0
  -24.1838  -13.0426   20.9189 C   0  0  0  0  0  0
  -24.6400  -11.6898   20.8748 C   0  0  0  0  0  0
  -23.9060  -10.4288   21.0415 C   0  0  0  0  0  0
  -24.3613   -9.4205   21.9190 C   0  0  0  0  0  0
  -23.6292   -8.2237   22.0755 C   0  0  0  0  0  0
  -22.4273   -8.0276   21.3547 C   0  0  0  0  0  0
  -21.9909   -9.0250   20.4646 C   0  0  0  0  0  0
  -22.7237  -10.2131   20.3061 C   0  0  0  0  0  0
  -21.6843   -6.0736   22.5281 C   0  0  0  0  0  0
  -21.4012   -6.5641   23.8217 C   0  0  0  0  0  0
  -21.3663   -5.6793   24.9179 C   0  0  0  0  0  0
  -21.6043   -4.3057   24.7227 C   0  0  0  0  0  0
  -21.8818   -3.8148   23.4349 C   0  0  0  0  0  0
  -21.9193   -4.6965   22.3405 C   0  0  0  0  0  0
  -22.7859  -13.5228   21.1849 C   0  0  0  0  0  0
  -22.1657   -4.2152   21.0981 F   0  0  0  0  0  0
  -21.5634   -3.4543   25.7741 F   0  0  0  0  0  0
  -30.0234  -13.3821   20.4487 N   0  0  0  0  0  0
  -26.3015  -12.9314   20.3347 N   0  0  0  0  0  0
  -25.9329  -11.6479   20.5768 N   0  0  0  0  0  0
  -22.0494  -12.8228   22.0408 N   0  0  0  0  0  0
  -25.4280  -15.1859   20.4006 N   0  0  0  0  0  0
  -31.7360  -14.8466   20.1021 O   0  0  0  0  0  0
  -21.6631   -6.8878   21.4243 O   0  0  0  0  0  0
  -22.3550  -14.5540   20.6700 O   0  0  0  0  0  0
  -24.6241  -31.8592   23.2017 C   0  0  0  0  0  0
  -25.9096  -32.4764   23.8343 C   0  0  1  0  0  0
  -27.2381  -27.3405   20.0964 C   0  0  0  0  0  0
  -25.5922  -33.8567   24.2277 N   0  0  0  0  0  0
  -23.4162  -30.4837   21.5436 C   0  0  2  0  0  0
  -24.8589  -28.9334   20.1164 C   0  0  0  0  0  0
  -22.7448  -29.4636   22.4935 C   0  0  0  0  0  0
  -18.0279  -28.1383   22.8468 C   0  0  0  0  0  0
  -24.1494  -36.7292   23.2642 C   0  0  0  0  0  0
  -25.9544  -30.7976   21.3663 C   0  0  0  0  0  0
  -26.0264  -29.4256   20.7084 C   0  0  0  0  0  0
  -27.2124  -28.6406   20.6849 C   0  0  0  0  0  0
  -26.0277  -26.8721   19.5375 C   0  0  0  0  0  0
  -24.8591  -27.6585   19.5295 C   0  0  0  0  0  0
  -23.6281  -29.8136   20.1604 C   0  0  0  0  0  0
  -25.4120  -36.3080   24.0333 C   0  0  1  0  0  0
  -20.5870  -28.3683   23.1275 C   0  0  2  0  0  0
  -20.6764  -26.9412   22.5397 C   0  0  0  0  0  0
  -19.5749  -26.6381   21.5190 C   0  0  0  0  0  0
  -18.1924  -26.7922   22.1603 C   0  0  0  0  0  0
  -19.1530  -28.8850   23.2867 C   0  0  0  0  0  0
  -18.9463  -30.1443   23.8899 C   0  0  0  0  0  0
  -17.6470  -30.6585   24.0560 C   0  0  0  0  0  0
  -25.9052  -34.9448   23.5109 C   0  0  0  0  0  0
  -16.5357  -29.9089   23.6326 C   0  0  0  0  0  0
  -16.7269  -28.6505   23.0347 C   0  0  0  0  0  0
  -26.4489  -31.6573   25.0710 C   0  0  0  0  0  0
  -25.3733  -31.3711   26.1444 C   0  0  0  0  0  0
  -27.0328  -30.3003   24.6142 C   0  0  0  0  0  0
  -27.6054  -32.4297   25.7487 C   0  0  0  0  0  0
  -27.5585  -37.1802   24.8466 C   0  0  0  0  0  0
  -21.4164  -29.3051   22.3680 N   0  0  0  0  0  0
  -26.4297  -37.3774   23.9408 N   0  0  0  0  0  0
  -24.6835  -31.0638   22.0943 N   0  0  0  0  0  0
  -23.4175  -28.8181   23.3014 O   0  0  0  0  0  0
  -28.4374  -26.6134   20.1162 O   0  0  0  0  0  0
  -26.5613  -34.8915   22.4671 O   0  0  0  0  0  0
  -23.5412  -32.1387   23.7359 O   0  0  0  0  0  0
  -28.1528  -18.9801   21.2741 C   0  0  0  0  0  0
  -30.3873  -19.3794   20.4780 C   0  0  0  0  0  0
  -28.4024  -17.5854   21.2841 C   0  0  0  0  0  0
  -30.6387  -17.9640   20.4788 C   0  0  0  0  0  0
  -29.1381  -19.9269   20.8967 C   0  0  0  0  0  0
  -29.6492  -17.0327   20.9053 C   0  0  0  0  0  0
  -29.2764  -24.3056   21.8928 C   0  0  0  0  0  0
  -29.0322  -22.5786   20.0432 C   0  0  0  0  0  0
  -29.0330  -23.1766   22.9122 C   0  0  0  0  0  0
  -28.8378  -21.4556   21.1477 C   0  0  2  0  0  0
  -28.5819  -24.0377   20.5371 C   0  0  2  0  0  0
  -30.2452  -25.5106   19.2319 C   0  0  0  0  0  0
  -28.0907  -24.9930   18.1793 C   0  0  0  0  0  0
  -28.7514  -25.2813   19.5446 C   0  0  0  0  0  0
  -29.7749  -15.5857   21.0403 N   0  0  0  0  0  0
  -29.5011  -21.8708   22.3994 N   0  3  0  0  0  0
  -31.4885  -12.5381   19.1411 H   0  0  0  0  0  0
  -30.4023  -11.3845   19.8629 H   0  0  0  0  0  0
  -29.7734  -11.7808   17.4654 H   0  0  0  0  0  0
  -29.6526  -13.4968   17.7556 H   0  0  0  0  0  0
  -27.8617  -11.2997   18.8440 H   0  0  0  0  0  0
  -27.3795  -12.6063   17.7942 H   0  0  0  0  0  0
  -27.6909  -14.2514   19.5585 H   0  0  0  0  0  0
  -28.7147  -11.9760   21.3283 H   0  0  0  0  0  0
  -28.4404  -13.5949   21.8834 H   0  0  0  0  0  0
  -25.2759   -9.5676   22.4766 H   0  0  0  0  0  0
  -24.0001   -7.4623   22.7473 H   0  0  0  0  0  0
  -21.0845   -8.8770   19.8945 H   0  0  0  0  0  0
  -22.3702  -10.9673   19.6168 H   0  0  0  0  0  0
  -21.1996   -7.6148   23.9724 H   0  0  0  0  0  0
  -21.1488   -6.0522   25.9083 H   0  0  0  0  0  0
  -22.0595   -2.7610   23.2849 H   0  0  0  0  0  0
  -22.4093  -11.9884   22.4800 H   0  0  0  0  0  0
  -21.1110  -13.1260   22.2605 H   0  0  0  0  0  0
  -24.6488  -15.8314   20.4724 H   0  0  0  0  0  0
  -26.2590  -15.6134   20.0115 H   0  0  0  0  0  0
  -26.7160  -32.5427   23.1091 H   0  0  0  0  0  0
  -25.0097  -33.9717   25.0438 H   0  0  0  0  0  0
  -22.7097  -31.3034   21.3977 H   0  0  0  0  0  0
  -23.3755  -35.9623   23.3299 H   0  0  0  0  0  0
  -24.3601  -36.8914   22.2060 H   0  0  0  0  0  0
  -23.7240  -37.6491   23.6662 H   0  0  0  0  0  0
  -26.0844  -31.5629   20.5995 H   0  0  0  0  0  0
  -26.8361  -30.8442   21.9944 H   0  0  0  0  0  0
  -28.1164  -29.0266   21.1340 H   0  0  0  0  0  0
  -25.9333  -25.8867   19.1238 H   0  0  0  0  0  0
  -23.9549  -27.2610   19.0887 H   0  0  0  0  0  0
  -23.7484  -30.5863   19.4006 H   0  0  0  0  0  0
  -22.7483  -29.2422   19.8581 H   0  0  0  0  0  0
  -25.1301  -36.1944   25.0823 H   0  0  0  0  0  0
  -20.9961  -28.3259   24.1398 H   0  0  0  0  0  0
  -20.5647  -26.2302   23.3598 H   0  0  0  0  0  0
  -21.6634  -26.7434   22.1208 H   0  0  0  0  0  0
  -19.6917  -25.6292   21.1226 H   0  0  0  0  0  0
  -19.6692  -27.3178   20.6711 H   0  0  0  0  0  0
  -17.4190  -26.6647   21.4011 H   0  0  0  0  0  0
  -18.0347  -26.0070   22.9012 H   0  0  0  0  0  0
  -19.7950  -30.7234   24.2279 H   0  0  0  0  0  0
  -17.5043  -31.6272   24.5149 H   0  0  0  0  0  0
  -15.5364  -30.3003   23.7658 H   0  0  0  0  0  0
  -15.8659  -28.0831   22.7074 H   0  0  0  0  0  0
  -24.5922  -30.7036   25.7791 H   0  0  0  0  0  0
  -24.8905  -32.2870   26.4857 H   0  0  0  0  0  0
  -25.8073  -30.8916   27.0226 H   0  0  0  0  0  0
  -26.2890  -29.6754   24.1180 H   0  0  0  0  0  0
  -27.4056  -29.7260   25.4635 H   0  0  0  0  0  0
  -27.8745  -30.4305   23.9338 H   0  0  0  0  0  0
  -27.2678  -33.3611   26.2045 H   0  0  0  0  0  0
  -28.3882  -32.6818   25.0322 H   0  0  0  0  0  0
  -28.0688  -31.8416   26.5421 H   0  0  0  0  0  0
  -28.2591  -38.0109   24.7513 H   0  0  0  0  0  0
  -28.1087  -36.2635   24.6287 H   0  0  0  0  0  0
  -27.2302  -37.1448   25.8869 H   0  0  0  0  0  0
  -20.9334  -29.8809   21.6926 H   0  0  0  0  0  0
  -26.0182  -38.2849   24.1399 H   0  0  0  0  0  0
  -27.1850  -19.3193   21.6185 H   0  0  0  0  0  0
  -31.1887  -20.0479   20.1942 H   0  0  0  0  0  0
  -27.6080  -16.9329   21.6206 H   0  0  0  0  0  0
  -31.6147  -17.6058   20.1822 H   0  0  0  0  0  0
  -30.3513  -24.4237   21.7581 H   0  0  0  0  0  0
  -28.9210  -25.2476   22.3119 H   0  0  0  0  0  0
  -28.4571  -22.3037   19.1584 H   0  0  0  0  0  0
  -30.0759  -22.5941   19.7300 H   0  0  0  0  0  0
  -27.9732  -23.1138   23.1632 H   0  0  0  0  0  0
  -29.5573  -23.4010   23.8413 H   0  0  0  0  0  0
  -27.7686  -21.4850   21.3671 H   0  0  0  0  0  0
  -27.5115  -23.9751   20.7428 H   0  0  0  0  0  0
  -30.8057  -25.8400   20.1071 H   0  0  0  0  0  0
  -30.3683  -26.2918   18.4808 H   0  0  0  0  0  0
  -30.7293  -24.6167   18.8407 H   0  0  0  0  0  0
  -28.7065  -24.3257   17.5747 H   0  0  0  0  0  0
  -27.9490  -25.9053   17.5997 H   0  0  0  0  0  0
  -27.1348  -24.4815   18.2742 H   0  0  0  0  0  0
  -28.9567  -15.1565   21.4438 H   0  0  0  0  0  0
  -29.3206  -21.1705   23.1001 H   0  0  0  0  0  0
  -30.4967  -21.9004   22.2546 H   0  0  0  0  0  0
  1 25  1  0  0  0
  1 30  2  0  0  0
  1 85  1  0  0  0
  2  3  1  0  0  0
  2 25  1  0  0  0
  2 87  1  0  0  0
  2 88  1  0  0  0
  3  4  1  0  0  0
  3 89  1  0  0  0
  3 90  1  0  0  0
  4  5  1  0  0  0
  4 91  1  0  0  0
  4 92  1  0  0  0
  5  6  1  0  0  0
  5 26  1  0  0  0
  5 93  1  0  0  0
  6 25  1  0  0  0
  6 94  1  0  0  0
  6 95  1  0  0  0
  7  8  2  0  0  0
  7 26  1  0  0  0
  7 29  1  0  0  0
  8  9  1  0  0  0
  8 22  1  0  0  0
  9 10  1  0  0  0
  9 27  2  0  0  0
 10 11  2  0  0  0
 10 15  1  0  0  0
 11 12  1  0  0  0
 11 96  1  0  0  0
 12 13  2  0  0  0
 12 97  1  0  0  0
 13 14  1  0  0  0
 13 31  1  0  0  0
 14 15  2  0  0  0
 14 98  1  0  0  0
 15 99  1  0  0  0
 16 17  2  0  0  0
 16 21  1  0  0  0
 16 31  1  0  0  0
 17 18  1  0  0  0
 17100  1  0  0  0
 18 19  2  0  0  0
 18101  1  0  0  0
 19 20  1  0  0  0
 19 24  1  0  0  0
 20 21  2  0  0  0
 20102  1  0  0  0
 21 23  1  0  0  0
 22 28  1  0  0  0
 22 32  2  0  0  0
 26 27  1  0  0  0
 28103  1  0  0  0
 28104  1  0  0  0
 29105  1  0  0  0
 29106  1  0  0  0
 33 34  1  0  0  0
 33 66  1  0  0  0
 33 70  2  0  0  0
 34 36  1  0  0  0
 34 59  1  0  0  0
 34107  1  0  0  0
 35 44  2  0  0  0
 35 45  1  0  0  0
 35 68  1  0  0  0
 36 56  1  0  0  0
 36108  1  0  0  0
 37 39  1  0  0  0
 37 47  1  0  0  0
 37 66  1  0  0  0
 37109  1  0  0  0
 38 43  2  0  0  0
 38 46  1  0  0  0
 38 47  1  0  0  0
 39 64  1  0  0  0
 39 67  2  0  0  0
 40 52  1  0  0  0
 40 53  2  0  0  0
 40 58  1  0  0  0
 41110  1  0  0  0
 41111  1  0  0  0
 41112  1  0  0  0
 41 48  1  0  0  0
 42 43  1  0  0  0
 42 66  1  0  0  0
 42113  1  0  0  0
 42114  1  0  0  0
 43 44  1  0  0  0
 44115  1  0  0  0
 45 46  2  0  0  0
 45116  1  0  0  0
 46117  1  0  0  0
 47118  1  0  0  0
 47119  1  0  0  0
 48 56  1  0  0  0
 48 65  1  0  0  0
 48120  1  0  0  0
 49 50  1  0  0  0
 49 53  1  0  0  0
 49 64  1  0  0  0
 49121  1  0  0  0
 50 51  1  0  0  0
 50122  1  0  0  0
 50123  1  0  0  0
 51 52  1  0  0  0
 51124  1  0  0  0
 51125  1  0  0  0
 52126  1  0  0  0
 52127  1  0  0  0
 53 54  1  0  0  0
 54 55  2  0  0  0
 54128  1  0  0  0
 55 57  1  0  0  0
 55129  1  0  0  0
 56 69  2  0  0  0
 57 58  2  0  0  0
 57130  1  0  0  0
 58131  1  0  0  0
 59 60  1  0  0  0
 59 61  1  0  0  0
 59 62  1  0  0  0
 60132  1  0  0  0
 60133  1  0  0  0
 60134  1  0  0  0
 61135  1  0  0  0
 61136  1  0  0  0
 61137  1  0  0  0
 62138  1  0  0  0
 62139  1  0  0  0
 62140  1  0  0  0
 63 65  1  0  0  0
 63141  1  0  0  0
 63142  1  0  0  0
 63143  1  0  0  0
 64144  1  0  0  0
 65145  1  0  0  0
 68 84  1  0  0  0
 71 73  2  0  0  0
 71 75  1  0  0  0
 71146  1  0  0  0
 72 74  1  0  0  0
 72 75  2  0  0  0
 72147  1  0  0  0
 73 76  1  0  0  0
 73148  1  0  0  0
 74 76  2  0  0  0
 74149  1  0  0  0
 75 80  1  0  0  0
 76 85  1  0  0  0
 77 79  1  0  0  0
 77150  1  0  0  0
 77151  1  0  0  0
 77 81  1  0  0  0
 78 80  1  0  0  0
 78 81  1  0  0  0
 78152  1  0  0  0
 78153  1  0  0  0
 79 86  1  0  0  0
 79154  1  0  0  0
 79155  1  0  0  0
 80 86  1  0  0  0
 80156  1  0  0  0
 81 84  1  0  0  0
 81157  1  0  0  0
 82158  1  0  0  0
 82159  1  0  0  0
 82160  1  0  0  0
 82 84  1  0  0  0
 83 84  1  0  0  0
 83161  1  0  0  0
 83162  1  0  0  0
 83163  1  0  0  0
 85164  1  0  0  0
 86165  1  0  0  0
 86166  1  0  0  0
M  CHG  1  86   1
M  ISO  4   1 100  68 101  84 101  85 100
M  END
> <chiral flag>
0

> <version>
0

> <s_m_source_file>
/data/baiqing/PycharmProjects/Reinvent-master-3.2/result/LINK_invent/BTK/process_docking_weight1_custom_product_contain_oxygen_bond_distance_aromatic_linkinvent_7_9_3/rearranged_h_0144.sdf

> <i_m_source_file_index>
29

> <r_mmod_Potential_Energy-OPLS-2005>
-112.182693481445

> <r_mmod_Stretch_Energy-OPLS-2005>
80.4008255004883

> <r_mmod_Bend_Energy-OPLS-2005>
196.409072875977

> <r_mmod_Torsional_Energy-OPLS-2005>
241.854446411133

> <r_mmod_Improper_Torsional_Energy-OPLS-2005>
4.65469169616699

> <r_mmod_Van_der_Waal_Energy-OPLS-2005>
146.172286987305

> <r_mmod_Electrostatic_Energy-OPLS-2005>
-363.554016113281

> <r_mmod_Solvation_Energy-OPLS-2005>
-455.846618652344

> <b_mmod_Minimization_Converged-OPLS-2005>
0

> <r_mmod_RMS_Derivative-OPLS-2005>
1.4302304983139

$$$$
29
                    3D
 Structure written by MMmdl.
162171  0  0  1  0            999 V2000
  -30.6190  -14.7273   20.4586 C   0  0  0  0  0  0
  -30.4326  -12.4395   19.4951 C   0  0  0  0  0  0
  -29.5255  -12.5107   18.2494 C   0  0  0  0  0  0
  -28.0444  -12.3488   18.6460 C   0  0  0  0  0  0
  -27.6472  -13.2351   19.8587 C   0  0  2  0  0  0
  -28.6859  -13.1612   20.9985 C   0  0  0  0  0  0
  -25.2526  -13.8199   20.5669 C   0  0  0  0  0  0
  -24.1821  -13.0445   20.9166 C   0  0  0  0  0  0
  -24.6406  -11.6929   20.8724 C   0  0  0  0  0  0
  -23.9079  -10.4301   21.0375 C   0  0  0  0  0  0
  -24.3651   -9.4219   21.9148 C   0  0  0  0  0  0
  -23.6319   -8.2260   22.0738 C   0  0  0  0  0  0
  -22.4287   -8.0290   21.3545 C   0  0  0  0  0  0
  -21.9914   -9.0253   20.4638 C   0  0  0  0  0  0
  -22.7242  -10.2130   20.3027 C   0  0  0  0  0  0
  -21.6869   -6.0739   22.5262 C   0  0  0  0  0  0
  -21.4032   -6.5634   23.8195 C   0  0  0  0  0  0
  -21.3668   -5.6783   24.9150 C   0  0  0  0  0  0
  -21.6041   -4.3044   24.7198 C   0  0  0  0  0  0
  -21.8829   -3.8140   23.4318 C   0  0  0  0  0  0
  -21.9205   -4.6965   22.3380 C   0  0  0  0  0  0
  -22.7843  -13.5230   21.1810 C   0  0  0  0  0  0
  -22.1656   -4.2158   21.0957 F   0  0  0  0  0  0
  -21.5634   -3.4520   25.7706 F   0  0  0  0  0  0
  -29.9936  -13.5025   20.4282 N   0  0  0  0  0  0
  -26.2959  -12.9410   20.3288 N   0  0  0  0  0  0
  -25.9339  -11.6550   20.5759 N   0  0  0  0  0  0
  -22.0487  -12.8241   22.0380 N   0  0  0  0  0  0
  -25.4204  -15.1924   20.4070 N   0  0  0  0  0  0
  -31.8024  -14.8101   20.1171 O   0  0  0  0  0  0
  -21.6666   -6.8881   21.4225 O   0  0  0  0  0  0
  -22.3510  -14.5512   20.6621 O   0  0  0  0  0  0
  -24.6328  -31.8570   23.2006 C   0  0  0  0  0  0
  -25.9158  -32.4753   23.8340 C   0  0  1  0  0  0
  -27.2109  -27.2719   20.1310 C   0  0  0  0  0  0
  -25.5974  -33.8559   24.2270 N   0  0  0  0  0  0
  -23.4265  -30.4838   21.5437 C   0  0  2  0  0  0
  -24.8723  -28.9404   20.1076 C   0  0  0  0  0  0
  -22.7513  -29.4604   22.4905 C   0  0  0  0  0  0
  -18.0295  -28.1345   22.8484 C   0  0  0  0  0  0
  -24.1493  -36.7289   23.2630 C   0  0  0  0  0  0
  -25.9724  -30.7775   21.3757 C   0  0  0  0  0  0
  -26.0449  -29.4011   20.7188 C   0  0  0  0  0  0
  -27.2184  -28.5796   20.7204 C   0  0  0  0  0  0
  -26.0120  -26.8870   19.4805 C   0  0  0  0  0  0
  -24.8616  -27.6910   19.4762 C   0  0  0  0  0  0
  -23.6439  -29.8249   20.1569 C   0  0  0  0  0  0
  -25.4114  -36.3057   24.0318 C   0  0  1  0  0  0
  -20.5906  -28.3663   23.1269 C   0  0  2  0  0  0
  -20.6780  -26.9379   22.5406 C   0  0  0  0  0  0
  -19.5750  -26.6346   21.5214 C   0  0  0  0  0  0
  -18.1930  -26.7885   22.1616 C   0  0  0  0  0  0
  -19.1551  -28.8826   23.2867 C   0  0  0  0  0  0
  -18.9463  -30.1434   23.8871 C   0  0  0  0  0  0
  -17.6458  -30.6556   24.0542 C   0  0  0  0  0  0
  -25.9064  -34.9437   23.5093 C   0  0  0  0  0  0
  -16.5359  -29.9050   23.6311 C   0  0  0  0  0  0
  -16.7279  -28.6462   23.0343 C   0  0  0  0  0  0
  -26.4522  -31.6560   25.0723 C   0  0  0  0  0  0
  -25.3771  -31.3685   26.1460 C   0  0  0  0  0  0
  -27.0387  -30.2993   24.6167 C   0  0  0  0  0  0
  -27.6045  -32.4310   25.7534 C   0  0  0  0  0  0
  -27.5570  -37.1810   24.8455 C   0  0  0  0  0  0
  -21.4219  -29.3032   22.3672 N   0  0  0  0  0  0
  -26.4272  -37.3774   23.9412 N   0  0  0  0  0  0
  -24.6965  -31.0570   22.0965 N   0  0  0  0  0  0
  -23.4233  -28.8128   23.2973 O   0  0  0  0  0  0
  -28.2863  -26.3554   20.2126 O   0  0  0  0  0  0
  -26.5612  -34.8908   22.4641 O   0  0  0  0  0  0
  -23.5481  -32.1363   23.7320 O   0  0  0  0  0  0
  -29.4617  -18.4655   20.7569 C   0  0  0  0  0  0
  -30.4154  -19.8680   19.0161 C   0  0  0  0  0  0
  -30.7855  -17.4435   18.9981 C   0  0  0  0  0  0
  -29.6289  -19.7979   20.1847 C   0  0  0  0  0  0
  -30.0456  -17.2544   20.1884 C   0  0  0  0  0  0
  -30.9712  -18.7171   18.4286 C   0  0  0  0  0  0
  -30.1584  -24.0730   20.9325 C   0  0  0  0  0  0
  -28.9690  -23.7376   20.3861 C   0  0  0  0  0  0
  -31.2499  -23.1602   21.3261 C   0  0  0  0  0  0
  -31.0135  -21.8833   22.1497 C   0  0  0  0  0  0
  -29.5994  -21.2853   22.1239 C   0  0  0  0  0  0
  -28.4940  -22.2400   20.0847 C   0  0  1  0  0  0
  -28.1910  -22.0243   18.5898 C   0  0  0  0  0  0
  -27.9602  -24.9036   20.0124 C   0  0  0  0  0  0
  -29.1440  -21.0431   20.7633 N   0  0  0  0  0  0
  -29.8669  -15.8695   20.7125 N   0  0  0  0  0  0
  -32.4189  -23.4382   21.0430 O   0  0  0  0  0  0
  -31.7112  -18.8397   17.3008 F   0  0  0  0  0  0
  -31.4804  -12.5458   19.2101 H   0  0  0  0  0  0
  -30.3514  -11.4614   19.9706 H   0  0  0  0  0  0
  -29.8099  -11.7368   17.5350 H   0  0  0  0  0  0
  -29.6746  -13.4656   17.7432 H   0  0  0  0  0  0
  -27.8807  -11.2977   18.8873 H   0  0  0  0  0  0
  -27.4045  -12.5691   17.7920 H   0  0  0  0  0  0
  -27.6453  -14.2615   19.4934 H   0  0  0  0  0  0
  -28.7116  -12.1641   21.4382 H   0  0  0  0  0  0
  -28.4234  -13.8408   21.8105 H   0  0  0  0  0  0
  -25.2807   -9.5709   22.4708 H   0  0  0  0  0  0
  -24.0037   -7.4662   22.7457 H   0  0  0  0  0  0
  -21.0845   -8.8764   19.8959 H   0  0  0  0  0  0
  -22.3681  -10.9670   19.6146 H   0  0  0  0  0  0
  -21.2024   -7.6141   23.9699 H   0  0  0  0  0  0
  -21.1481   -6.0505   25.9060 H   0  0  0  0  0  0
  -22.0606   -2.7607   23.2803 H   0  0  0  0  0  0
  -22.4126  -11.9971   22.4884 H   0  0  0  0  0  0
  -21.1078  -13.1227   22.2502 H   0  0  0  0  0  0
  -24.6528  -15.8461   20.5199 H   0  0  0  0  0  0
  -26.2646  -15.6344   20.0657 H   0  0  0  0  0  0
  -26.7232  -32.5418   23.1087 H   0  0  0  0  0  0
  -25.0202  -33.9687   25.0473 H   0  0  0  0  0  0
  -22.7203  -31.3047   21.4013 H   0  0  0  0  0  0
  -23.3747  -35.9630   23.3260 H   0  0  0  0  0  0
  -24.3583  -36.8947   22.2048 H   0  0  0  0  0  0
  -23.7249  -37.6485   23.6677 H   0  0  0  0  0  0
  -26.1045  -31.5359   20.6024 H   0  0  0  0  0  0
  -26.8537  -30.8313   22.0026 H   0  0  0  0  0  0
  -28.1147  -28.9255   21.2151 H   0  0  0  0  0  0
  -25.9154  -25.9358   18.9819 H   0  0  0  0  0  0
  -23.9661  -27.3350   18.9860 H   0  0  0  0  0  0
  -23.7683  -30.6039   19.4036 H   0  0  0  0  0  0
  -22.7620  -29.2591   19.8484 H   0  0  0  0  0  0
  -25.1292  -36.1885   25.0809 H   0  0  0  0  0  0
  -20.9996  -28.3223   24.1387 H   0  0  0  0  0  0
  -20.5671  -26.2278   23.3609 H   0  0  0  0  0  0
  -21.6649  -26.7384   22.1205 H   0  0  0  0  0  0
  -19.6914  -25.6256   21.1238 H   0  0  0  0  0  0
  -19.6683  -27.3160   20.6746 H   0  0  0  0  0  0
  -17.4215  -26.6651   21.4003 H   0  0  0  0  0  0
  -18.0310  -26.0008   22.8987 H   0  0  0  0  0  0
  -19.7953  -30.7264   24.2209 H   0  0  0  0  0  0
  -17.5014  -31.6231   24.5146 H   0  0  0  0  0  0
  -15.5353  -30.2940   23.7635 H   0  0  0  0  0  0
  -15.8678  -28.0772   22.7053 H   0  0  0  0  0  0
  -24.5924  -30.7049   25.7801 H   0  0  0  0  0  0
  -24.8997  -32.2858   26.4932 H   0  0  0  0  0  0
  -25.8135  -30.8835   27.0203 H   0  0  0  0  0  0
  -26.2980  -29.6734   24.1177 H   0  0  0  0  0  0
  -27.4087  -29.7232   25.4656 H   0  0  0  0  0  0
  -27.8838  -30.4280   23.9398 H   0  0  0  0  0  0
  -27.2596  -33.3571   26.2142 H   0  0  0  0  0  0
  -28.3877  -32.6943   25.0416 H   0  0  0  0  0  0
  -28.0696  -31.8429   26.5452 H   0  0  0  0  0  0
  -28.2572  -38.0124   24.7512 H   0  0  0  0  0  0
  -28.1083  -36.2659   24.6263 H   0  0  0  0  0  0
  -27.2292  -37.1422   25.8857 H   0  0  0  0  0  0
  -20.9390  -29.8811   21.6942 H   0  0  0  0  0  0
  -26.0132  -38.2843   24.1425 H   0  0  0  0  0  0
  -28.8725  -18.3725   21.6582 H   0  0  0  0  0  0
  -30.6382  -20.8196   18.5609 H   0  0  0  0  0  0
  -31.2307  -16.6067   18.4837 H   0  0  0  0  0  0
  -30.3695  -25.1233   21.0725 H   0  0  0  0  0  0
  -31.3036  -22.0842   23.1804 H   0  0  0  0  0  0
  -31.7113  -21.1294   21.7855 H   0  0  0  0  0  0
  -28.9101  -21.9676   22.6261 H   0  0  0  0  0  0
  -29.5819  -20.3655   22.7083 H   0  0  0  0  0  0
  -27.5033  -22.2253   20.5435 H   0  0  0  0  0  0
  -29.0712  -22.1626   17.9646 H   0  0  0  0  0  0
  -27.4422  -22.7299   18.2291 H   0  0  0  0  0  0
  -27.7801  -21.0324   18.3976 H   0  0  0  0  0  0
  -27.0387  -24.6751   20.5519 H   0  0  0  0  0  0
  -27.7472  -24.7834   18.9527 H   0  0  0  0  0  0
  -28.9947  -15.7011   21.1908 H   0  0  0  0  0  0
  1 25  1  0  0  0
  1 30  2  0  0  0
  1 86  1  0  0  0
  2  3  1  0  0  0
  2 25  1  0  0  0
  2 89  1  0  0  0
  2 90  1  0  0  0
  3  4  1  0  0  0
  3 91  1  0  0  0
  3 92  1  0  0  0
  4  5  1  0  0  0
  4 93  1  0  0  0
  4 94  1  0  0  0
  5  6  1  0  0  0
  5 26  1  0  0  0
  5 95  1  0  0  0
  6 25  1  0  0  0
  6 96  1  0  0  0
  6 97  1  0  0  0
  7  8  2  0  0  0
  7 26  1  0  0  0
  7 29  1  0  0  0
  8  9  1  0  0  0
  8 22  1  0  0  0
  9 10  1  0  0  0
  9 27  2  0  0  0
 10 11  2  0  0  0
 10 15  1  0  0  0
 11 12  1  0  0  0
 11 98  1  0  0  0
 12 13  2  0  0  0
 12 99  1  0  0  0
 13 14  1  0  0  0
 13 31  1  0  0  0
 14 15  2  0  0  0
 14100  1  0  0  0
 15101  1  0  0  0
 16 17  2  0  0  0
 16 21  1  0  0  0
 16 31  1  0  0  0
 17 18  1  0  0  0
 17102  1  0  0  0
 18 19  2  0  0  0
 18103  1  0  0  0
 19 20  1  0  0  0
 19 24  1  0  0  0
 20 21  2  0  0  0
 20104  1  0  0  0
 21 23  1  0  0  0
 22 28  1  0  0  0
 22 32  2  0  0  0
 26 27  1  0  0  0
 28105  1  0  0  0
 28106  1  0  0  0
 29107  1  0  0  0
 29108  1  0  0  0
 33 34  1  0  0  0
 33 66  1  0  0  0
 33 70  2  0  0  0
 34 36  1  0  0  0
 34 59  1  0  0  0
 34109  1  0  0  0
 35 44  2  0  0  0
 35 45  1  0  0  0
 35 68  1  0  0  0
 36 56  1  0  0  0
 36110  1  0  0  0
 37 39  1  0  0  0
 37 47  1  0  0  0
 37 66  1  0  0  0
 37111  1  0  0  0
 38 43  2  0  0  0
 38 46  1  0  0  0
 38 47  1  0  0  0
 39 64  1  0  0  0
 39 67  2  0  0  0
 40 52  1  0  0  0
 40 53  2  0  0  0
 40 58  1  0  0  0
 41112  1  0  0  0
 41113  1  0  0  0
 41114  1  0  0  0
 41 48  1  0  0  0
 42 43  1  0  0  0
 42 66  1  0  0  0
 42115  1  0  0  0
 42116  1  0  0  0
 43 44  1  0  0  0
 44117  1  0  0  0
 45 46  2  0  0  0
 45118  1  0  0  0
 46119  1  0  0  0
 47120  1  0  0  0
 47121  1  0  0  0
 48 56  1  0  0  0
 48 65  1  0  0  0
 48122  1  0  0  0
 49 50  1  0  0  0
 49 53  1  0  0  0
 49 64  1  0  0  0
 49123  1  0  0  0
 50 51  1  0  0  0
 50124  1  0  0  0
 50125  1  0  0  0
 51 52  1  0  0  0
 51126  1  0  0  0
 51127  1  0  0  0
 52128  1  0  0  0
 52129  1  0  0  0
 53 54  1  0  0  0
 54 55  2  0  0  0
 54130  1  0  0  0
 55 57  1  0  0  0
 55131  1  0  0  0
 56 69  2  0  0  0
 57 58  2  0  0  0
 57132  1  0  0  0
 58133  1  0  0  0
 59 60  1  0  0  0
 59 61  1  0  0  0
 59 62  1  0  0  0
 60134  1  0  0  0
 60135  1  0  0  0
 60136  1  0  0  0
 61137  1  0  0  0
 61138  1  0  0  0
 61139  1  0  0  0
 62140  1  0  0  0
 62141  1  0  0  0
 62142  1  0  0  0
 63 65  1  0  0  0
 63143  1  0  0  0
 63144  1  0  0  0
 63145  1  0  0  0
 64146  1  0  0  0
 65147  1  0  0  0
 68 84  1  0  0  0
 71 74  2  0  0  0
 71 75  1  0  0  0
 71148  1  0  0  0
 72 74  1  0  0  0
 72 76  2  0  0  0
 72149  1  0  0  0
 73 75  2  0  0  0
 73 76  1  0  0  0
 73150  1  0  0  0
 74 85  1  0  0  0
 75 86  1  0  0  0
 76 88  1  0  0  0
 77 78  2  0  0  0
 77 79  1  0  0  0
 77151  1  0  0  0
 78 82  1  0  0  0
 78 84  1  0  0  0
 79 80  1  0  0  0
 79 87  2  0  0  0
 80 81  1  0  0  0
 80152  1  0  0  0
 80153  1  0  0  0
 81 85  1  0  0  0
 81154  1  0  0  0
 81155  1  0  0  0
 82 83  1  0  0  0
 82 85  1  0  0  0
 82156  1  0  0  0
 83157  1  0  0  0
 83158  1  0  0  0
 83159  1  0  0  0
 84160  1  0  0  0
 84161  1  0  0  0
 86162  1  0  0  0
M  ISO  4   1 100  68 101  84 101  86 100
M  END
> <chiral flag>
0

> <version>
0

> <s_m_source_file>
/data/baiqing/PycharmProjects/Reinvent-master-3.2/result/LINK_invent/BTK/process_docking_weight1_custom_product_contain_oxygen_bond_distance_aromatic_linkinvent_7_9_3/rearranged_h_0144.sdf

> <i_m_source_file_index>
30

> <r_mmod_Potential_Energy-OPLS-2005>
203.373046875

> <r_mmod_Stretch_Energy-OPLS-2005>
122.650566101074

> <r_mmod_Bend_Energy-OPLS-2005>
191.882781982422

> <r_mmod_Torsional_Energy-OPLS-2005>
238.157348632812

> <r_mmod_Improper_Torsional_Energy-OPLS-2005>
5.13011264801025

> <r_mmod_Van_der_Waal_Energy-OPLS-2005>
156.151885986328

> <r_mmod_Electrostatic_Energy-OPLS-2005>
-359.563903808594

> <r_mmod_Solvation_Energy-OPLS-2005>
-232.7978515625

> <b_mmod_Minimization_Converged-OPLS-2005>
0

> <r_mmod_RMS_Derivative-OPLS-2005>
2.91643691062927

$$$$
30
                    3D
 Structure written by MMmdl.
179188  0  0  1  0            999 V2000
  -29.6713  -15.7156   20.3171 C   0  0  0  0  0  0
  -30.3205  -13.1792   19.5710 C   0  0  0  0  0  0
  -29.5125  -12.6735   18.3385 C   0  0  0  0  0  0
  -28.0851  -12.2695   18.7485 C   0  0  0  0  0  0
  -27.5178  -13.2544   19.7969 C   0  0  2  0  0  0
  -28.4648  -13.5073   20.9618 C   0  0  0  0  0  0
  -25.1995  -13.8114   20.5742 C   0  0  0  0  0  0
  -24.1410  -13.0315   20.9306 C   0  0  0  0  0  0
  -24.6080  -11.6822   20.8783 C   0  0  0  0  0  0
  -23.8875  -10.4204   21.0456 C   0  0  0  0  0  0
  -24.3508   -9.4150   21.9212 C   0  0  0  0  0  0
  -23.6234   -8.2161   22.0747 C   0  0  0  0  0  0
  -22.4218   -8.0197   21.3532 C   0  0  0  0  0  0
  -21.9810   -9.0148   20.4642 C   0  0  0  0  0  0
  -22.7086  -10.2042   20.3078 C   0  0  0  0  0  0
  -21.6819   -6.0681   22.5285 C   0  0  0  0  0  0
  -21.3999   -6.5608   23.8213 C   0  0  0  0  0  0
  -21.3659   -5.6775   24.9184 C   0  0  0  0  0  0
  -21.6043   -4.3036   24.7241 C   0  0  0  0  0  0
  -21.8821   -3.8116   23.4366 C   0  0  0  0  0  0
  -21.9188   -4.6920   22.3417 C   0  0  0  0  0  0
  -22.7509  -13.5124   21.2011 C   0  0  0  0  0  0
  -22.1659   -4.2104   21.0997 F   0  0  0  0  0  0
  -21.5635   -3.4532   25.7762 F   0  0  0  0  0  0
  -29.5184  -14.2638   20.3201 N   0  0  0  0  0  0
  -26.2161  -12.9248   20.2928 N   0  0  0  0  0  0
  -25.8928  -11.6401   20.5568 N   0  0  0  0  0  0
  -22.0206  -12.8091   22.0589 N   0  0  0  0  0  0
  -25.3782  -15.1844   20.4342 N   0  0  0  0  0  0
  -30.9182  -15.8680   20.1550 O   0  0  0  0  0  0
  -21.6597   -6.8796   21.4234 O   0  0  0  0  0  0
  -22.3225  -14.5456   20.6888 O   0  0  0  0  0  0
  -24.7759  -31.8137   22.7684 C   0  0  0  0  0  0
  -25.9515  -32.4506   23.6687 C   0  0  1  0  0  0
  -26.3952  -28.0425   21.6007 C   0  0  0  0  0  0
  -25.5599  -33.8159   24.0958 N   0  0  0  0  0  0
  -24.1192  -29.5428   20.9623 C   0  0  2  0  0  0
  -25.5174  -29.1179   19.4543 C   0  0  0  0  0  0
  -23.6044  -27.5995   21.8126 C   0  0  0  0  0  0
  -18.2146  -28.0766   22.7667 C   0  0  0  0  0  0
  -24.1525  -36.7306   23.2727 C   0  0  0  0  0  0
  -26.1806  -31.0525   20.9597 C   0  0  0  0  0  0
  -26.5041  -29.7552   20.2867 C   0  0  0  0  0  0
  -27.3226  -28.9192   21.0566 C   0  0  0  0  0  0
  -26.0821  -27.1135   20.5014 C   0  0  0  0  0  0
  -25.5956  -27.7237   19.3481 C   0  0  0  0  0  0
  -24.1695  -29.7223   19.5234 C   0  0  0  0  0  0
  -25.4170  -36.2881   24.0256 C   0  0  1  0  0  0
  -20.8776  -27.6946   23.3363 C   0  0  2  0  0  0
  -20.3329  -26.3144   23.1839 C   0  0  0  0  0  0
  -19.4780  -26.0506   21.9547 C   0  0  0  0  0  0
  -18.1590  -26.7786   22.0041 C   0  0  0  0  0  0
  -19.4680  -28.6301   23.2357 C   0  0  0  0  0  0
  -19.2645  -29.9100   23.8645 C   0  0  0  0  0  0
  -17.9898  -30.5411   24.0206 C   0  0  0  0  0  0
  -25.9146  -34.9366   23.4640 C   0  0  0  0  0  0
  -16.8045  -29.9156   23.6019 C   0  0  0  0  0  0
  -16.9345  -28.6696   22.9751 C   0  0  0  0  0  0
  -26.4902  -31.7087   24.9965 C   0  0  0  0  0  0
  -25.4999  -31.6293   26.1992 C   0  0  0  0  0  0
  -27.0316  -30.2984   24.6805 C   0  0  0  0  0  0
  -27.7003  -32.4978   25.5751 C   0  0  0  0  0  0
  -27.5618  -37.1739   24.8506 C   0  0  0  0  0  0
  -22.3536  -27.3235   22.6800 N   0  0  0  0  0  0
  -26.4279  -37.3672   23.9504 N   0  0  0  0  0  0
  -24.9352  -30.8956   21.6515 N   0  0  0  0  0  0
  -24.1789  -26.9425   22.6524 O   0  0  0  0  0  0
  -25.5074  -28.7964   22.6946 O   0  0  0  0  0  0
  -26.6053  -34.9241   22.4451 O   0  0  0  0  0  0
  -23.6644  -32.2219   23.1362 O   0  0  0  0  0  0
  -25.3196  -20.1153   20.2354 C   0  0  0  0  0  0
  -26.1615  -18.7978   20.3326 C   0  0  0  0  0  0
  -27.9941  -19.9214   20.2154 C   0  0  0  0  0  0
  -25.6642  -21.5850   20.0900 C   0  0  0  0  0  0
  -27.6435  -18.4497   20.2976 C   0  0  0  0  0  0
  -27.1668  -21.2600   20.1065 C   0  0  0  0  0  0
  -24.7452  -23.1721   19.6158 C   0  0  0  0  0  0
  -22.7816  -26.8969   18.8069 C   0  0  0  0  0  0
  -23.4018  -25.3778   18.5611 C   0  0  0  0  0  0
  -22.4357  -25.4636   20.4725 C   0  0  0  0  0  0
  -21.8384  -27.3346   20.0966 C   0  0  2  0  0  0
  -20.4909  -27.5688   19.3092 C   0  0  0  0  0  0
  -29.5351  -24.7746   20.2997 C   0  0  0  0  0  0
  -22.9781  -30.0564   24.5162 C   0  0  0  0  0  0
  -21.8219  -29.1727   21.3754 C   0  0  0  0  0  0
  -29.5231  -23.8495   19.0705 C   0  0  0  0  0  0
  -29.1845  -22.4013   19.4257 C   0  0  0  0  0  0
  -23.4936  -29.4910   23.1756 C   0  0  1  0  0  0
  -23.6989  -24.4644   19.7518 N   0  0  0  0  0  0
  -28.5351  -16.8713   20.3796 N   0  0  0  0  0  0
  -25.2967  -23.3093   18.4043 N   0  3  0  0  0  0
  -27.8942  -22.4250   20.0277 O   0  0  0  0  0  0
  -31.2798  -13.5750   19.2307 H   0  0  0  0  0  0
  -30.5793  -12.3460   20.2328 H   0  0  0  0  0  0
  -30.0247  -11.8423   17.8515 H   0  0  0  0  0  0
  -29.4560  -13.4793   17.6073 H   0  0  0  0  0  0
  -28.1208  -11.2668   19.1765 H   0  0  0  0  0  0
  -27.4331  -12.2105   17.8756 H   0  0  0  0  0  0
  -27.3857  -14.1851   19.2428 H   0  0  0  0  0  0
  -28.7887  -12.5839   21.4450 H   0  0  0  0  0  0
  -27.9968  -14.1176   21.7352 H   0  0  0  0  0  0
  -25.2647   -9.5648   22.4783 H   0  0  0  0  0  0
  -23.9962   -7.4536   22.7440 H   0  0  0  0  0  0
  -21.0744   -8.8631   19.8952 H   0  0  0  0  0  0
  -22.3524  -10.9580   19.6195 H   0  0  0  0  0  0
  -21.1983   -7.6119   23.9695 H   0  0  0  0  0  0
  -21.1489   -6.0516   25.9077 H   0  0  0  0  0  0
  -22.0607   -2.7580   23.2884 H   0  0  0  0  0  0
  -22.3837  -11.9727   22.4909 H   0  0  0  0  0  0
  -21.0830  -13.1103   22.2863 H   0  0  0  0  0  0
  -24.6205  -15.8376   20.5948 H   0  0  0  0  0  0
  -26.2481  -15.6263   20.1632 H   0  0  0  0  0  0
  -26.8250  -32.5950   23.0488 H   0  0  0  0  0  0
  -24.9204  -33.8902   24.8697 H   0  0  0  0  0  0
  -23.5074  -30.4431   21.0275 H   0  0  0  0  0  0
  -23.3788  -35.9652   23.3225 H   0  0  0  0  0  0
  -24.3519  -36.9174   22.2177 H   0  0  0  0  0  0
  -23.7312  -37.6429   23.6942 H   0  0  0  0  0  0
  -26.0233  -31.8274   20.2087 H   0  0  0  0  0  0
  -27.0457  -31.3228   21.5621 H   0  0  0  0  0  0
  -27.9347  -29.4194   21.7920 H   0  0  0  0  0  0
  -25.8648  -26.0585   20.6364 H   0  0  0  0  0  0
  -25.2207  -27.1311   18.5435 H   0  0  0  0  0  0
  -24.2288  -30.7658   19.1897 H   0  0  0  0  0  0
  -23.2981  -29.3742   18.9929 H   0  0  0  0  0  0
  -25.1412  -36.1394   25.0703 H   0  0  0  0  0  0
  -21.1428  -27.8390   24.3856 H   0  0  0  0  0  0
  -19.6814  -26.1511   24.0442 H   0  0  0  0  0  0
  -21.0693  -25.5217   23.3214 H   0  0  0  0  0  0
  -19.2575  -24.9849   21.9313 H   0  0  0  0  0  0
  -20.0089  -26.1524   21.0553 H   0  0  0  0  0  0
  -17.8004  -26.9618   20.9900 H   0  0  0  0  0  0
  -17.4313  -26.1252   22.4807 H   0  0  0  0  0  0
  -20.1173  -30.4207   24.2944 H   0  0  0  0  0  0
  -17.9202  -31.5092   24.4949 H   0  0  0  0  0  0
  -15.8330  -30.3718   23.7373 H   0  0  0  0  0  0
  -16.0464  -28.1623   22.6314 H   0  0  0  0  0  0
  -24.5298  -32.0688   25.9786 H   0  0  0  0  0  0
  -25.8503  -32.2490   27.0317 H   0  0  0  0  0  0
  -25.3952  -30.6280   26.6190 H   0  0  0  0  0  0
  -26.2430  -29.5575   24.7280 H   0  0  0  0  0  0
  -27.7621  -29.9665   25.4185 H   0  0  0  0  0  0
  -27.5322  -30.2463   23.7198 H   0  0  0  0  0  0
  -27.4312  -33.5195   25.8495 H   0  0  0  0  0  0
  -28.5318  -32.5637   24.8712 H   0  0  0  0  0  0
  -28.0957  -32.0291   26.4743 H   0  0  0  0  0  0
  -28.2495  -38.0175   24.7563 H   0  0  0  0  0  0
  -28.1230  -36.2633   24.6212 H   0  0  0  0  0  0
  -27.2366  -37.1320   25.8933 H   0  0  0  0  0  0
  -22.8355  -26.7273   23.3507 H   0  0  0  0  0  0
  -26.0116  -38.2749   24.1424 H   0  0  0  0  0  0
  -24.2575  -19.9381   20.2412 H   0  0  0  0  0  0
  -25.5405  -17.9211   20.4472 H   0  0  0  0  0  0
  -29.0651  -20.0457   20.2593 H   0  0  0  0  0  0
  -22.1129  -26.8536   17.9542 H   0  0  0  0  0  0
  -23.3548  -27.6399   18.2839 H   0  0  0  0  0  0
  -24.2449  -25.4411   17.8773 H   0  0  0  0  0  0
  -22.6182  -24.8665   17.9974 H   0  0  0  0  0  0
  -21.5635  -24.9088   20.1314 H   0  0  0  0  0  0
  -22.3686  -25.1893   21.5178 H   0  0  0  0  0  0
  -20.1430  -26.7037   18.7329 H   0  0  0  0  0  0
  -20.5959  -28.3932   18.6031 H   0  0  0  0  0  0
  -19.6610  -27.8953   19.9329 H   0  0  0  0  0  0
  -29.7433  -25.8031   20.0021 H   0  0  0  0  0  0
  -30.3006  -24.4692   21.0158 H   0  0  0  0  0  0
  -28.5701  -24.7695   20.8132 H   0  0  0  0  0  0
  -22.2878  -30.8866   24.3954 H   0  0  0  0  0  0
  -23.8491  -30.3344   25.0841 H   0  0  0  0  0  0
  -22.4296  -29.3750   25.1672 H   0  0  0  0  0  0
  -20.8499  -29.4460   21.6600 H   0  0  0  0  0  0
  -21.7345  -29.9655   20.6424 H   0  0  0  0  0  0
  -30.4937  -23.8845   18.5699 H   0  0  0  0  0  0
  -28.7864  -24.2033   18.3515 H   0  0  0  0  0  0
  -29.9573  -22.0059   20.0893 H   0  0  0  0  0  0
  -29.1653  -21.7928   18.5181 H   0  0  0  0  0  0
  -23.5690  -28.7044   23.9282 H   0  0  0  0  0  0
  -29.3983  -17.3925   20.4345 H   0  0  0  0  0  0
  -25.9814  -22.6177   18.1258 H   0  0  0  0  0  0
  -25.0971  -24.0508   17.7612 H   0  0  0  0  0  0
  1 25  1  0  0  0
  1 30  2  0  0  0
  1 90  1  0  0  0
  2  3  1  0  0  0
  2 25  1  0  0  0
  2 93  1  0  0  0
  2 94  1  0  0  0
  3  4  1  0  0  0
  3 95  1  0  0  0
  3 96  1  0  0  0
  4  5  1  0  0  0
  4 97  1  0  0  0
  4 98  1  0  0  0
  5  6  1  0  0  0
  5 26  1  0  0  0
  5 99  1  0  0  0
  6 25  1  0  0  0
  6100  1  0  0  0
  6101  1  0  0  0
  7  8  2  0  0  0
  7 26  1  0  0  0
  7 29  1  0  0  0
  8  9  1  0  0  0
  8 22  1  0  0  0
  9 10  1  0  0  0
  9 27  2  0  0  0
 10 11  2  0  0  0
 10 15  1  0  0  0
 11 12  1  0  0  0
 11102  1  0  0  0
 12 13  2  0  0  0
 12103  1  0  0  0
 13 14  1  0  0  0
 13 31  1  0  0  0
 14 15  2  0  0  0
 14104  1  0  0  0
 15105  1  0  0  0
 16 17  2  0  0  0
 16 21  1  0  0  0
 16 31  1  0  0  0
 17 18  1  0  0  0
 17106  1  0  0  0
 18 19  2  0  0  0
 18107  1  0  0  0
 19 20  1  0  0  0
 19 24  1  0  0  0
 20 21  2  0  0  0
 20108  1  0  0  0
 21 23  1  0  0  0
 22 28  1  0  0  0
 22 32  2  0  0  0
 26 27  1  0  0  0
 28109  1  0  0  0
 28110  1  0  0  0
 29111  1  0  0  0
 29112  1  0  0  0
 33 34  1  0  0  0
 33 66  1  0  0  0
 33 70  2  0  0  0
 34 36  1  0  0  0
 34 59  1  0  0  0
 34113  1  0  0  0
 35 44  2  0  0  0
 35 45  1  0  0  0
 35 68  1  0  0  0
 36 56  1  0  0  0
 36114  1  0  0  0
 37 39  1  0  0  0
 37 47  1  0  0  0
 37 66  1  0  0  0
 37115  1  0  0  0
 38 43  2  0  0  0
 38 46  1  0  0  0
 38 47  1  0  0  0
 39 64  1  0  0  0
 39 67  2  0  0  0
 40 52  1  0  0  0
 40 53  2  0  0  0
 40 58  1  0  0  0
 41116  1  0  0  0
 41117  1  0  0  0
 41118  1  0  0  0
 41 48  1  0  0  0
 42 43  1  0  0  0
 42 66  1  0  0  0
 42119  1  0  0  0
 42120  1  0  0  0
 43 44  1  0  0  0
 44121  1  0  0  0
 45 46  2  0  0  0
 45122  1  0  0  0
 46123  1  0  0  0
 47124  1  0  0  0
 47125  1  0  0  0
 48 56  1  0  0  0
 48 65  1  0  0  0
 48126  1  0  0  0
 49 50  1  0  0  0
 49 53  1  0  0  0
 49 64  1  0  0  0
 49127  1  0  0  0
 50 51  1  0  0  0
 50128  1  0  0  0
 50129  1  0  0  0
 51 52  1  0  0  0
 51130  1  0  0  0
 51131  1  0  0  0
 52132  1  0  0  0
 52133  1  0  0  0
 53 54  1  0  0  0
 54 55  2  0  0  0
 54134  1  0  0  0
 55 57  1  0  0  0
 55135  1  0  0  0
 56 69  2  0  0  0
 57 58  2  0  0  0
 57136  1  0  0  0
 58137  1  0  0  0
 59 60  1  0  0  0
 59 61  1  0  0  0
 59 62  1  0  0  0
 60138  1  0  0  0
 60139  1  0  0  0
 60140  1  0  0  0
 61141  1  0  0  0
 61142  1  0  0  0
 61143  1  0  0  0
 62144  1  0  0  0
 62145  1  0  0  0
 62146  1  0  0  0
 63 65  1  0  0  0
 63147  1  0  0  0
 63148  1  0  0  0
 63149  1  0  0  0
 64150  1  0  0  0
 65151  1  0  0  0
 68 88  1  0  0  0
 71 72  2  0  0  0
 71 74  1  0  0  0
 71152  1  0  0  0
 72 75  1  0  0  0
 72153  1  0  0  0
 73 75  2  0  0  0
 73 76  1  0  0  0
 73154  1  0  0  0
 74 76  2  0  0  0
 74 77  1  0  0  0
 75 90  1  0  0  0
 76 92  1  0  0  0
 77 89  1  0  0  0
 77 91  2  0  0  0
 78 79  1  0  0  0
 78 81  1  0  0  0
 78155  1  0  0  0
 78156  1  0  0  0
 79 89  1  0  0  0
 79157  1  0  0  0
 79158  1  0  0  0
 80 81  1  0  0  0
 80 89  1  0  0  0
 80159  1  0  0  0
 80160  1  0  0  0
 81 82  1  0  0  0
 81 85  1  0  0  0
 82161  1  0  0  0
 82162  1  0  0  0
 82163  1  0  0  0
 83 86  1  0  0  0
 83164  1  0  0  0
 83165  1  0  0  0
 83166  1  0  0  0
 84167  1  0  0  0
 84168  1  0  0  0
 84169  1  0  0  0
 84 88  1  0  0  0
 85 88  1  0  0  0
 85170  1  0  0  0
 85171  1  0  0  0
 86 87  1  0  0  0
 86172  1  0  0  0
 86173  1  0  0  0
 87 92  1  0  0  0
 87174  1  0  0  0
 87175  1  0  0  0
 88176  1  0  0  0
 90177  1  0  0  0
 91178  1  0  0  0
 91179  1  0  0  0
M  CHG  1  91   1
M  ISO  4   1 100  68 101  88 101  90 100
M  END
> <chiral flag>
0

> <version>
0

> <s_m_source_file>
/data/baiqing/PycharmProjects/Reinvent-master-3.2/result/LINK_invent/BTK/process_docking_weight1_custom_product_contain_oxygen_bond_distance_aromatic_linkinvent_7_9_3/rearranged_h_0144.sdf

> <i_m_source_file_index>
31

> <r_mmod_Potential_Energy-OPLS-2005>
15376.0146484375

> <r_mmod_Stretch_Energy-OPLS-2005>
5085.623046875

> <r_mmod_Bend_Energy-OPLS-2005>
2618.07641601562

> <r_mmod_Torsional_Energy-OPLS-2005>
812.970642089844

> <r_mmod_Improper_Torsional_Energy-OPLS-2005>
103.477523803711

> <r_mmod_Van_der_Waal_Energy-OPLS-2005>
1945.05749511719

> <r_mmod_Electrostatic_Energy-OPLS-2005>
-342.555908203125

> <r_mmod_Solvation_Energy-OPLS-2005>
-375.042877197266

> <b_mmod_Minimization_Converged-OPLS-2005>
0

> <r_mmod_RMS_Derivative-OPLS-2005>
20.5647010803223

$$$$
31
                    3D
 Structure written by MMmdl.
158167  0  0  1  0            999 V2000
  -30.6565  -14.5878   20.4908 C   0  0  0  0  0  0
  -30.4238  -12.3566   19.4459 C   0  0  0  0  0  0
  -29.5024  -12.4972   18.2151 C   0  0  0  0  0  0
  -28.0227  -12.3519   18.6248 C   0  0  0  0  0  0
  -27.6524  -13.2175   19.8596 C   0  0  2  0  0  0
  -28.6958  -13.0689   20.9898 C   0  0  0  0  0  0
  -25.2566  -13.8167   20.5678 C   0  0  0  0  0  0
  -24.1838  -13.0432   20.9183 C   0  0  0  0  0  0
  -24.6404  -11.6903   20.8722 C   0  0  0  0  0  0
  -23.9074  -10.4287   21.0391 C   0  0  0  0  0  0
  -24.3630   -9.4206   21.9168 C   0  0  0  0  0  0
  -23.6301   -8.2243   22.0748 C   0  0  0  0  0  0
  -22.4277   -8.0280   21.3544 C   0  0  0  0  0  0
  -21.9914   -9.0255   20.4646 C   0  0  0  0  0  0
  -22.7244  -10.2131   20.3048 C   0  0  0  0  0  0
  -21.6857   -6.0732   22.5277 C   0  0  0  0  0  0
  -21.4014   -6.5640   23.8206 C   0  0  0  0  0  0
  -21.3655   -5.6792   24.9169 C   0  0  0  0  0  0
  -21.6043   -4.3053   24.7223 C   0  0  0  0  0  0
  -21.8823   -3.8148   23.4342 C   0  0  0  0  0  0
  -21.9196   -4.6962   22.3399 C   0  0  0  0  0  0
  -22.7862  -13.5224   21.1842 C   0  0  0  0  0  0
  -22.1667   -4.2152   21.0973 F   0  0  0  0  0  0
  -21.5629   -3.4537   25.7735 F   0  0  0  0  0  0
  -30.0143  -13.3833   20.4238 N   0  0  0  0  0  0
  -26.2994  -12.9353   20.3291 N   0  0  0  0  0  0
  -25.9328  -11.6505   20.5731 N   0  0  0  0  0  0
  -22.0508  -12.8219   22.0401 N   0  0  0  0  0  0
  -25.4268  -15.1885   20.4085 N   0  0  0  0  0  0
  -31.8327  -14.6954   20.1365 O   0  0  0  0  0  0
  -21.6637   -6.8879   21.4240 O   0  0  0  0  0  0
  -22.3547  -14.5525   20.6681 O   0  0  0  0  0  0
  -24.6220  -31.8632   23.2033 C   0  0  0  0  0  0
  -25.9089  -32.4797   23.8350 C   0  0  1  0  0  0
  -27.2270  -27.3594   20.1079 C   0  0  0  0  0  0
  -25.5924  -33.8591   24.2298 N   0  0  0  0  0  0
  -23.4130  -30.4855   21.5446 C   0  0  2  0  0  0
  -24.8574  -28.9393   20.1096 C   0  0  0  0  0  0
  -22.7446  -29.4652   22.4946 C   0  0  0  0  0  0
  -18.0293  -28.1410   22.8508 C   0  0  0  0  0  0
  -24.1481  -36.7279   23.2642 C   0  0  0  0  0  0
  -25.9481  -30.8045   21.3668 C   0  0  0  0  0  0
  -26.0199  -29.4335   20.7122 C   0  0  0  0  0  0
  -27.2037  -28.6500   20.7064 C   0  0  0  0  0  0
  -26.0444  -26.8972   19.4898 C   0  0  0  0  0  0
  -24.8684  -27.6751   19.4937 C   0  0  0  0  0  0
  -23.6250  -29.8177   20.1598 C   0  0  0  0  0  0
  -25.4109  -36.3092   24.0342 C   0  0  1  0  0  0
  -20.5890  -28.3707   23.1311 C   0  0  2  0  0  0
  -20.6775  -26.9430   22.5439 C   0  0  0  0  0  0
  -19.5753  -26.6410   21.5232 C   0  0  0  0  0  0
  -18.1928  -26.7964   22.1627 C   0  0  0  0  0  0
  -19.1545  -28.8871   23.2912 C   0  0  0  0  0  0
  -18.9464  -30.1477   23.8927 C   0  0  0  0  0  0
  -17.6462  -30.6603   24.0594 C   0  0  0  0  0  0
  -25.9052  -34.9465   23.5117 C   0  0  0  0  0  0
  -16.5359  -29.9111   23.6332 C   0  0  0  0  0  0
  -16.7280  -28.6531   23.0351 C   0  0  0  0  0  0
  -26.4482  -31.6603   25.0707 C   0  0  0  0  0  0
  -25.3730  -31.3747   26.1449 C   0  0  0  0  0  0
  -27.0303  -30.3031   24.6132 C   0  0  0  0  0  0
  -27.6072  -32.4323   25.7453 C   0  0  0  0  0  0
  -27.5588  -37.1791   24.8468 C   0  0  0  0  0  0
  -21.4162  -29.3051   22.3685 N   0  0  0  0  0  0
  -26.4288  -37.3792   23.9433 N   0  0  0  0  0  0
  -24.6797  -31.0674   22.0959 N   0  0  0  0  0  0
  -23.4177  -28.8194   23.3026 O   0  0  0  0  0  0
  -28.3826  -26.5859   20.1634 O   0  0  0  0  0  0
  -26.5615  -34.8928   22.4680 O   0  0  0  0  0  0
  -23.5394  -32.1429   23.7386 O   0  0  0  0  0  0
  -29.2454  -18.1018   21.0803 C   0  0  0  0  0  0
  -30.6122  -19.9120   20.1882 C   0  0  0  0  0  0
  -31.2257  -17.5728   19.7850 C   0  0  0  0  0  0
  -29.4814  -19.5155   20.9279 C   0  0  0  0  0  0
  -30.1287  -17.1026   20.5524 C   0  0  0  0  0  0
  -31.4609  -18.9521   19.6077 C   0  0  0  0  0  0
  -28.3475  -24.1530   20.5302 C   0  0  0  0  0  0
  -28.4452  -25.2570   19.7325 C   0  0  0  0  0  0
  -28.6846  -20.5347   21.6889 C   0  0  0  0  0  0
  -27.9428  -24.1998   21.9756 C   0  0  0  0  0  0
  -28.6546  -22.6795   20.1553 C   0  0  0  0  0  0
  -27.7496  -22.7403   22.4021 C   0  0  0  0  0  0
  -28.4058  -21.8627   21.3932 N   0  0  0  0  0  0
  -29.8866  -15.6790   20.7919 N   0  0  0  0  0  0
  -28.2259  -20.0868   22.8580 N   0  3  0  0  0  0
  -32.5347  -19.3622   18.8920 F   0  0  0  0  0  0
  -31.4690  -12.4536   19.1471 H   0  0  0  0  0  0
  -30.3305  -11.3607   19.8817 H   0  0  0  0  0  0
  -29.7545  -11.7460   17.4652 H   0  0  0  0  0  0
  -29.6634  -13.4664   17.7403 H   0  0  0  0  0  0
  -27.8442  -11.2987   18.8436 H   0  0  0  0  0  0
  -27.3737  -12.5993   17.7835 H   0  0  0  0  0  0
  -27.6722  -14.2541   19.5227 H   0  0  0  0  0  0
  -28.6938  -12.0508   21.3815 H   0  0  0  0  0  0
  -28.4539  -13.7145   21.8360 H   0  0  0  0  0  0
  -25.2781   -9.5677   22.4734 H   0  0  0  0  0  0
  -24.0015   -7.4632   22.7466 H   0  0  0  0  0  0
  -21.0844   -8.8773   19.8954 H   0  0  0  0  0  0
  -22.3702  -10.9669   19.6159 H   0  0  0  0  0  0
  -21.2004   -7.6149   23.9712 H   0  0  0  0  0  0
  -21.1470   -6.0516   25.9069 H   0  0  0  0  0  0
  -22.0606   -2.7613   23.2836 H   0  0  0  0  0  0
  -22.4136  -11.9892   22.4805 H   0  0  0  0  0  0
  -21.1124  -13.1237   22.2594 H   0  0  0  0  0  0
  -24.6515  -15.8357   20.5033 H   0  0  0  0  0  0
  -26.2623  -15.6256   20.0421 H   0  0  0  0  0  0
  -26.7158  -32.5478   23.1099 H   0  0  0  0  0  0
  -25.0076  -33.9744   25.0444 H   0  0  0  0  0  0
  -22.7068  -31.3062   21.4039 H   0  0  0  0  0  0
  -23.3755  -35.9601   23.3302 H   0  0  0  0  0  0
  -24.3576  -36.8894   22.2060 H   0  0  0  0  0  0
  -23.7209  -37.6471   23.6649 H   0  0  0  0  0  0
  -26.0751  -31.5665   20.5972 H   0  0  0  0  0  0
  -26.8302  -30.8546   21.9938 H   0  0  0  0  0  0
  -28.1000  -29.0247   21.1798 H   0  0  0  0  0  0
  -26.0152  -25.9259   19.0183 H   0  0  0  0  0  0
  -23.9747  -27.2901   19.0229 H   0  0  0  0  0  0
  -23.7464  -30.5929   19.4027 H   0  0  0  0  0  0
  -22.7440  -29.2484   19.8570 H   0  0  0  0  0  0
  -25.1285  -36.1944   25.0835 H   0  0  0  0  0  0
  -21.0021  -28.3302   24.1418 H   0  0  0  0  0  0
  -20.5677  -26.2313   23.3637 H   0  0  0  0  0  0
  -21.6644  -26.7467   22.1241 H   0  0  0  0  0  0
  -19.6894  -25.6318   21.1265 H   0  0  0  0  0  0
  -19.6693  -27.3211   20.6754 H   0  0  0  0  0  0
  -17.4211  -26.6760   21.4011 H   0  0  0  0  0  0
  -18.0293  -26.0099   22.9002 H   0  0  0  0  0  0
  -19.7935  -30.7304   24.2298 H   0  0  0  0  0  0
  -17.5008  -31.6281   24.5197 H   0  0  0  0  0  0
  -15.5357  -30.3019   23.7625 H   0  0  0  0  0  0
  -15.8688  -28.0852   22.7051 H   0  0  0  0  0  0
  -24.5936  -30.7038   25.7796 H   0  0  0  0  0  0
  -24.8868  -32.2905   26.4826 H   0  0  0  0  0  0
  -25.8078  -30.8987   27.0248 H   0  0  0  0  0  0
  -26.2845  -29.6790   24.1187 H   0  0  0  0  0  0
  -27.4039  -29.7287   25.4620 H   0  0  0  0  0  0
  -27.8700  -30.4321   23.9301 H   0  0  0  0  0  0
  -27.2720  -33.3635   26.2034 H   0  0  0  0  0  0
  -28.3859  -32.6867   25.0248 H   0  0  0  0  0  0
  -28.0752  -31.8435   26.5356 H   0  0  0  0  0  0
  -28.2624  -38.0077   24.7545 H   0  0  0  0  0  0
  -28.1070  -36.2618   24.6249 H   0  0  0  0  0  0
  -27.2328  -37.1413   25.8879 H   0  0  0  0  0  0
  -20.9318  -29.8738   21.6880 H   0  0  0  0  0  0
  -26.0167  -38.2864   24.1447 H   0  0  0  0  0  0
  -28.3940  -17.7718   21.6592 H   0  0  0  0  0  0
  -30.8766  -20.9510   20.0899 H   0  0  0  0  0  0
  -31.9250  -16.9015   19.3143 H   0  0  0  0  0  0
  -28.7500  -25.1974   18.6964 H   0  0  0  0  0  0
  -27.0280  -24.7817   22.0988 H   0  0  0  0  0  0
  -28.7305  -24.6733   22.5615 H   0  0  0  0  0  0
  -29.6875  -22.6204   19.8195 H   0  0  0  0  0  0
  -28.0095  -22.3526   19.3384 H   0  0  0  0  0  0
  -26.6851  -22.4997   22.4482 H   0  0  0  0  0  0
  -28.1628  -22.5975   23.4020 H   0  0  0  0  0  0
  -28.9752  -15.4468   21.1561 H   0  0  0  0  0  0
  -28.4800  -19.1570   23.1516 H   0  0  0  0  0  0
  -27.6441  -20.6381   23.4638 H   0  0  0  0  0  0
  1 25  1  0  0  0
  1 30  2  0  0  0
  1 84  1  0  0  0
  2  3  1  0  0  0
  2 25  1  0  0  0
  2 87  1  0  0  0
  2 88  1  0  0  0
  3  4  1  0  0  0
  3 89  1  0  0  0
  3 90  1  0  0  0
  4  5  1  0  0  0
  4 91  1  0  0  0
  4 92  1  0  0  0
  5  6  1  0  0  0
  5 26  1  0  0  0
  5 93  1  0  0  0
  6 25  1  0  0  0
  6 94  1  0  0  0
  6 95  1  0  0  0
  7  8  2  0  0  0
  7 26  1  0  0  0
  7 29  1  0  0  0
  8  9  1  0  0  0
  8 22  1  0  0  0
  9 10  1  0  0  0
  9 27  2  0  0  0
 10 11  2  0  0  0
 10 15  1  0  0  0
 11 12  1  0  0  0
 11 96  1  0  0  0
 12 13  2  0  0  0
 12 97  1  0  0  0
 13 14  1  0  0  0
 13 31  1  0  0  0
 14 15  2  0  0  0
 14 98  1  0  0  0
 15 99  1  0  0  0
 16 17  2  0  0  0
 16 21  1  0  0  0
 16 31  1  0  0  0
 17 18  1  0  0  0
 17100  1  0  0  0
 18 19  2  0  0  0
 18101  1  0  0  0
 19 20  1  0  0  0
 19 24  1  0  0  0
 20 21  2  0  0  0
 20102  1  0  0  0
 21 23  1  0  0  0
 22 28  1  0  0  0
 22 32  2  0  0  0
 26 27  1  0  0  0
 28103  1  0  0  0
 28104  1  0  0  0
 29105  1  0  0  0
 29106  1  0  0  0
 33 34  1  0  0  0
 33 66  1  0  0  0
 33 70  2  0  0  0
 34 36  1  0  0  0
 34 59  1  0  0  0
 34107  1  0  0  0
 35 44  2  0  0  0
 35 45  1  0  0  0
 35 68  1  0  0  0
 36 56  1  0  0  0
 36108  1  0  0  0
 37 39  1  0  0  0
 37 47  1  0  0  0
 37 66  1  0  0  0
 37109  1  0  0  0
 38 43  2  0  0  0
 38 46  1  0  0  0
 38 47  1  0  0  0
 39 64  1  0  0  0
 39 67  2  0  0  0
 40 52  1  0  0  0
 40 53  2  0  0  0
 40 58  1  0  0  0
 41110  1  0  0  0
 41111  1  0  0  0
 41112  1  0  0  0
 41 48  1  0  0  0
 42 43  1  0  0  0
 42 66  1  0  0  0
 42113  1  0  0  0
 42114  1  0  0  0
 43 44  1  0  0  0
 44115  1  0  0  0
 45 46  2  0  0  0
 45116  1  0  0  0
 46117  1  0  0  0
 47118  1  0  0  0
 47119  1  0  0  0
 48 56  1  0  0  0
 48 65  1  0  0  0
 48120  1  0  0  0
 49 50  1  0  0  0
 49 53  1  0  0  0
 49 64  1  0  0  0
 49121  1  0  0  0
 50 51  1  0  0  0
 50122  1  0  0  0
 50123  1  0  0  0
 51 52  1  0  0  0
 51124  1  0  0  0
 51125  1  0  0  0
 52126  1  0  0  0
 52127  1  0  0  0
 53 54  1  0  0  0
 54 55  2  0  0  0
 54128  1  0  0  0
 55 57  1  0  0  0
 55129  1  0  0  0
 56 69  2  0  0  0
 57 58  2  0  0  0
 57130  1  0  0  0
 58131  1  0  0  0
 59 60  1  0  0  0
 59 61  1  0  0  0
 59 62  1  0  0  0
 60132  1  0  0  0
 60133  1  0  0  0
 60134  1  0  0  0
 61135  1  0  0  0
 61136  1  0  0  0
 61137  1  0  0  0
 62138  1  0  0  0
 62139  1  0  0  0
 62140  1  0  0  0
 63 65  1  0  0  0
 63141  1  0  0  0
 63142  1  0  0  0
 63143  1  0  0  0
 64144  1  0  0  0
 65145  1  0  0  0
 68 78  1  0  0  0
 71 74  2  0  0  0
 71 75  1  0  0  0
 71146  1  0  0  0
 72 74  1  0  0  0
 72 76  2  0  0  0
 72147  1  0  0  0
 73 75  2  0  0  0
 73 76  1  0  0  0
 73148  1  0  0  0
 74 79  1  0  0  0
 75 84  1  0  0  0
 76 86  1  0  0  0
 77 78  2  0  0  0
 77 80  1  0  0  0
 77 81  1  0  0  0
 78149  1  0  0  0
 79 83  1  0  0  0
 79 85  2  0  0  0
 80 82  1  0  0  0
 80150  1  0  0  0
 80151  1  0  0  0
 81 83  1  0  0  0
 81152  1  0  0  0
 81153  1  0  0  0
 82 83  1  0  0  0
 82154  1  0  0  0
 82155  1  0  0  0
 84156  1  0  0  0
 85157  1  0  0  0
 85158  1  0  0  0
M  CHG  1  85   1
M  ISO  4   1 100  68 101  78 101  84 100
M  END
> <chiral flag>
0

> <version>
0

> <s_m_source_file>
/data/baiqing/PycharmProjects/Reinvent-master-3.2/result/LINK_invent/BTK/process_docking_weight1_custom_product_contain_oxygen_bond_distance_aromatic_linkinvent_7_9_3/rearranged_h_0144.sdf

> <i_m_source_file_index>
32

> <r_mmod_Potential_Energy-OPLS-2005>
-162.573883056641

> <r_mmod_Stretch_Energy-OPLS-2005>
66.0307464599609

> <r_mmod_Bend_Energy-OPLS-2005>
153.479354858398

> <r_mmod_Torsional_Energy-OPLS-2005>
249.654190063477

> <r_mmod_Improper_Torsional_Energy-OPLS-2005>
5.64215850830078

> <r_mmod_Van_der_Waal_Energy-OPLS-2005>
156.392730712891

> <r_mmod_Electrostatic_Energy-OPLS-2005>
-411.867706298828

> <r_mmod_Solvation_Energy-OPLS-2005>
-415.372192382812

> <b_mmod_Minimization_Converged-OPLS-2005>
0

> <r_mmod_RMS_Derivative-OPLS-2005>
1.80793857574463

$$$$
32
                    3D
 Structure written by MMmdl.
156165  0  0  1  0            999 V2000
  -30.6457  -14.7630   20.4319 C   0  0  0  0  0  0
  -30.4182  -12.4610   19.4884 C   0  0  0  0  0  0
  -29.5135  -12.5064   18.2388 C   0  0  0  0  0  0
  -28.0324  -12.3607   18.6374 C   0  0  0  0  0  0
  -27.6390  -13.2512   19.8474 C   0  0  2  0  0  0
  -28.6833  -13.2117   20.9833 C   0  0  0  0  0  0
  -25.2476  -13.8235   20.5700 C   0  0  0  0  0  0
  -24.1798  -13.0449   20.9223 C   0  0  0  0  0  0
  -24.6418  -11.6945   20.8747 C   0  0  0  0  0  0
  -23.9106  -10.4317   21.0395 C   0  0  0  0  0  0
  -24.3655   -9.4237   21.9175 C   0  0  0  0  0  0
  -23.6338   -8.2261   22.0741 C   0  0  0  0  0  0
  -22.4313   -8.0297   21.3533 C   0  0  0  0  0  0
  -21.9954   -9.0272   20.4636 C   0  0  0  0  0  0
  -22.7270  -10.2155   20.3052 C   0  0  0  0  0  0
  -21.6873   -6.0756   22.5277 C   0  0  0  0  0  0
  -21.4034   -6.5656   23.8204 C   0  0  0  0  0  0
  -21.3660   -5.6796   24.9161 C   0  0  0  0  0  0
  -21.6041   -4.3060   24.7205 C   0  0  0  0  0  0
  -21.8816   -3.8157   23.4324 C   0  0  0  0  0  0
  -21.9197   -4.6984   22.3386 C   0  0  0  0  0  0
  -22.7815  -13.5212   21.1890 C   0  0  0  0  0  0
  -22.1665   -4.2166   21.0964 F   0  0  0  0  0  0
  -21.5631   -3.4539   25.7717 F   0  0  0  0  0  0
  -29.9830  -13.5515   20.3941 N   0  0  0  0  0  0
  -26.2931  -12.9493   20.3265 N   0  0  0  0  0  0
  -25.9359  -11.6615   20.5740 N   0  0  0  0  0  0
  -22.0464  -12.8180   22.0431 N   0  0  0  0  0  0
  -25.4106  -15.1961   20.4130 N   0  0  0  0  0  0
  -31.8497  -14.7689   20.1677 O   0  0  0  0  0  0
  -21.6662   -6.8902   21.4238 O   0  0  0  0  0  0
  -22.3495  -14.5518   20.6746 O   0  0  0  0  0  0
  -24.6271  -31.8546   23.2014 C   0  0  0  0  0  0
  -25.9101  -32.4764   23.8334 C   0  0  1  0  0  0
  -27.2231  -27.2711   20.1250 C   0  0  0  0  0  0
  -25.5897  -33.8571   24.2242 N   0  0  0  0  0  0
  -23.4225  -30.4775   21.5447 C   0  0  2  0  0  0
  -24.8705  -28.9261   20.1108 C   0  0  0  0  0  0
  -22.7471  -29.4579   22.4922 C   0  0  0  0  0  0
  -18.0276  -28.1382   22.8485 C   0  0  0  0  0  0
  -24.1475  -36.7292   23.2641 C   0  0  0  0  0  0
  -25.9667  -30.7751   21.3742 C   0  0  0  0  0  0
  -26.0407  -29.3979   20.7156 C   0  0  0  0  0  0
  -27.2154  -28.5817   20.7118 C   0  0  0  0  0  0
  -26.0225  -26.8624   19.4980 C   0  0  0  0  0  0
  -24.8658  -27.6671   19.4939 C   0  0  0  0  0  0
  -23.6407  -29.8115   20.1601 C   0  0  0  0  0  0
  -25.4105  -36.3067   24.0312 C   0  0  1  0  0  0
  -20.5873  -28.3667   23.1300 C   0  0  2  0  0  0
  -20.6766  -26.9381   22.5437 C   0  0  0  0  0  0
  -19.5751  -26.6362   21.5233 C   0  0  0  0  0  0
  -18.1919  -26.7923   22.1622 C   0  0  0  0  0  0
  -19.1529  -28.8845   23.2884 C   0  0  0  0  0  0
  -18.9455  -30.1454   23.8888 C   0  0  0  0  0  0
  -17.6459  -30.6588   24.0554 C   0  0  0  0  0  0
  -25.9041  -34.9438   23.5077 C   0  0  0  0  0  0
  -16.5346  -29.9088   23.6330 C   0  0  0  0  0  0
  -16.7264  -28.6506   23.0346 C   0  0  0  0  0  0
  -26.4489  -31.6609   25.0726 C   0  0  0  0  0  0
  -25.3733  -31.3765   26.1467 C   0  0  0  0  0  0
  -27.0331  -30.3026   24.6202 C   0  0  0  0  0  0
  -27.6007  -32.4370   25.7528 C   0  0  0  0  0  0
  -27.5554  -37.1804   24.8447 C   0  0  0  0  0  0
  -21.4175  -29.3012   22.3676 N   0  0  0  0  0  0
  -26.4266  -37.3768   23.9393 N   0  0  0  0  0  0
  -24.6917  -31.0521   22.0982 N   0  0  0  0  0  0
  -23.4186  -28.8096   23.2986 O   0  0  0  0  0  0
  -28.3490  -26.4205   20.2219 O   0  0  0  0  0  0
  -26.5611  -34.8912   22.4648 O   0  0  0  0  0  0
  -23.5426  -32.1348   23.7339 O   0  0  0  0  0  0
  -31.8075  -18.8672   18.9318 C   0  0  0  0  0  0
  -31.0829  -20.0122   19.2984 C   0  0  0  0  0  0
  -31.4219  -17.5857   19.3602 C   0  0  0  0  0  0
  -29.5548  -18.5892   20.5458 C   0  0  0  0  0  0
  -29.9307  -19.9387   20.1115 C   0  0  0  0  0  0
  -30.2941  -17.3692   20.1908 C   0  0  0  0  0  0
  -27.5938  -22.8459   21.0172 C   0  0  0  0  0  0
  -28.1484  -21.4141   21.3117 C   0  0  0  0  0  0
  -29.6379  -22.5563   19.8501 C   0  0  0  0  0  0
  -28.7797  -23.7096   20.5282 C   0  0  1  0  0  0
  -28.4316  -25.0339   19.6533 C   0  0  0  0  0  0
  -29.2689  -21.2086   20.4020 N   0  0  0  0  0  0
  -29.9331  -15.9596   20.5767 N   0  0  0  0  0  0
  -31.4635  -12.5562   19.1928 H   0  0  0  0  0  0
  -30.3372  -11.4964   19.9917 H   0  0  0  0  0  0
  -29.7940  -11.7106   17.5468 H   0  0  0  0  0  0
  -29.6636  -13.4446   17.7017 H   0  0  0  0  0  0
  -27.8597  -11.3117   18.8775 H   0  0  0  0  0  0
  -27.3916  -12.5876   17.7834 H   0  0  0  0  0  0
  -27.6285  -14.2747   19.4714 H   0  0  0  0  0  0
  -28.7176  -12.2269   21.4529 H   0  0  0  0  0  0
  -28.4197  -13.9213   21.7683 H   0  0  0  0  0  0
  -25.2796   -9.5729   22.4751 H   0  0  0  0  0  0
  -24.0055   -7.4659   22.7461 H   0  0  0  0  0  0
  -21.0878   -8.8782   19.8953 H   0  0  0  0  0  0
  -22.3712  -10.9694   19.6170 H   0  0  0  0  0  0
  -21.2044   -7.6163   23.9720 H   0  0  0  0  0  0
  -21.1485   -6.0519   25.9061 H   0  0  0  0  0  0
  -22.0599   -2.7626   23.2801 H   0  0  0  0  0  0
  -22.4134  -11.9863   22.4820 H   0  0  0  0  0  0
  -21.1072  -13.1165   22.2637 H   0  0  0  0  0  0
  -24.6378  -15.8410   20.5379 H   0  0  0  0  0  0
  -26.2464  -15.6421   20.0583 H   0  0  0  0  0  0
  -26.7143  -32.5423   23.1056 H   0  0  0  0  0  0
  -25.0020  -33.9709   25.0368 H   0  0  0  0  0  0
  -22.7177  -31.2991   21.4000 H   0  0  0  0  0  0
  -23.3725  -35.9639   23.3315 H   0  0  0  0  0  0
  -24.3545  -36.8920   22.2051 H   0  0  0  0  0  0
  -23.7258  -37.6500   23.6684 H   0  0  0  0  0  0
  -26.0892  -31.5373   20.6039 H   0  0  0  0  0  0
  -26.8502  -30.8322   21.9986 H   0  0  0  0  0  0
  -28.1108  -28.9420   21.1978 H   0  0  0  0  0  0
  -25.9192  -25.8990   19.0285 H   0  0  0  0  0  0
  -23.9631  -27.2971   19.0266 H   0  0  0  0  0  0
  -23.7658  -30.5892   19.4064 H   0  0  0  0  0  0
  -22.7609  -29.2435   19.8521 H   0  0  0  0  0  0
  -25.1306  -36.1890   25.0804 H   0  0  0  0  0  0
  -20.9964  -28.3250   24.1424 H   0  0  0  0  0  0
  -20.5660  -26.2266   23.3632 H   0  0  0  0  0  0
  -21.6638  -26.7407   22.1237 H   0  0  0  0  0  0
  -19.6905  -25.6269   21.1266 H   0  0  0  0  0  0
  -19.6718  -27.3172   20.6767 H   0  0  0  0  0  0
  -17.4199  -26.6669   21.4014 H   0  0  0  0  0  0
  -18.0304  -26.0076   22.9026 H   0  0  0  0  0  0
  -19.7936  -30.7269   24.2245 H   0  0  0  0  0  0
  -17.5017  -31.6273   24.5153 H   0  0  0  0  0  0
  -15.5344  -30.2987   23.7681 H   0  0  0  0  0  0
  -15.8653  -28.0836   22.7057 H   0  0  0  0  0  0
  -24.5877  -30.7143   25.7819 H   0  0  0  0  0  0
  -24.8975  -32.2954   26.4906 H   0  0  0  0  0  0
  -25.8080  -30.8935   27.0229 H   0  0  0  0  0  0
  -26.2916  -29.6793   24.1194 H   0  0  0  0  0  0
  -27.3969  -29.7273   25.4725 H   0  0  0  0  0  0
  -27.8811  -30.4295   23.9469 H   0  0  0  0  0  0
  -27.2556  -33.3651   26.2102 H   0  0  0  0  0  0
  -28.3851  -32.6972   25.0412 H   0  0  0  0  0  0
  -28.0642  -31.8510   26.5474 H   0  0  0  0  0  0
  -28.2572  -38.0094   24.7468 H   0  0  0  0  0  0
  -28.1042  -36.2621   24.6311 H   0  0  0  0  0  0
  -27.2256  -37.1501   25.8843 H   0  0  0  0  0  0
  -20.9342  -29.8715   21.6873 H   0  0  0  0  0  0
  -26.0132  -38.2824   24.1436 H   0  0  0  0  0  0
  -32.6752  -18.9758   18.2959 H   0  0  0  0  0  0
  -31.4439  -20.9573   18.9208 H   0  0  0  0  0  0
  -32.0309  -16.7723   18.9992 H   0  0  0  0  0  0
  -28.6702  -18.4912   21.1577 H   0  0  0  0  0  0
  -27.0942  -23.2824   21.8842 H   0  0  0  0  0  0
  -26.8495  -22.7810   20.2224 H   0  0  0  0  0  0
  -27.3764  -20.6522   21.1907 H   0  0  0  0  0  0
  -28.5161  -21.3530   22.3380 H   0  0  0  0  0  0
  -30.6978  -22.7687   20.0024 H   0  0  0  0  0  0
  -29.4709  -22.5506   18.7723 H   0  0  0  0  0  0
  -29.3384  -24.0422   21.4048 H   0  0  0  0  0  0
  -27.6046  -24.7921   18.9939 H   0  0  0  0  0  0
  -29.2641  -25.1304   18.9565 H   0  0  0  0  0  0
  -28.9870  -15.8360   20.9049 H   0  0  0  0  0  0
  1 25  1  0  0  0
  1 30  2  0  0  0
  1 83  1  0  0  0
  2  3  1  0  0  0
  2 25  1  0  0  0
  2 84  1  0  0  0
  2 85  1  0  0  0
  3  4  1  0  0  0
  3 86  1  0  0  0
  3 87  1  0  0  0
  4  5  1  0  0  0
  4 88  1  0  0  0
  4 89  1  0  0  0
  5  6  1  0  0  0
  5 26  1  0  0  0
  5 90  1  0  0  0
  6 25  1  0  0  0
  6 91  1  0  0  0
  6 92  1  0  0  0
  7  8  2  0  0  0
  7 26  1  0  0  0
  7 29  1  0  0  0
  8  9  1  0  0  0
  8 22  1  0  0  0
  9 10  1  0  0  0
  9 27  2  0  0  0
 10 11  2  0  0  0
 10 15  1  0  0  0
 11 12  1  0  0  0
 11 93  1  0  0  0
 12 13  2  0  0  0
 12 94  1  0  0  0
 13 14  1  0  0  0
 13 31  1  0  0  0
 14 15  2  0  0  0
 14 95  1  0  0  0
 15 96  1  0  0  0
 16 17  2  0  0  0
 16 21  1  0  0  0
 16 31  1  0  0  0
 17 18  1  0  0  0
 17 97  1  0  0  0
 18 19  2  0  0  0
 18 98  1  0  0  0
 19 20  1  0  0  0
 19 24  1  0  0  0
 20 21  2  0  0  0
 20 99  1  0  0  0
 21 23  1  0  0  0
 22 28  1  0  0  0
 22 32  2  0  0  0
 26 27  1  0  0  0
 28100  1  0  0  0
 28101  1  0  0  0
 29102  1  0  0  0
 29103  1  0  0  0
 33 34  1  0  0  0
 33 66  1  0  0  0
 33 70  2  0  0  0
 34 36  1  0  0  0
 34 59  1  0  0  0
 34104  1  0  0  0
 35 44  2  0  0  0
 35 45  1  0  0  0
 35 68  1  0  0  0
 36 56  1  0  0  0
 36105  1  0  0  0
 37 39  1  0  0  0
 37 47  1  0  0  0
 37 66  1  0  0  0
 37106  1  0  0  0
 38 43  2  0  0  0
 38 46  1  0  0  0
 38 47  1  0  0  0
 39 64  1  0  0  0
 39 67  2  0  0  0
 40 52  1  0  0  0
 40 53  2  0  0  0
 40 58  1  0  0  0
 41107  1  0  0  0
 41108  1  0  0  0
 41109  1  0  0  0
 41 48  1  0  0  0
 42 43  1  0  0  0
 42 66  1  0  0  0
 42110  1  0  0  0
 42111  1  0  0  0
 43 44  1  0  0  0
 44112  1  0  0  0
 45 46  2  0  0  0
 45113  1  0  0  0
 46114  1  0  0  0
 47115  1  0  0  0
 47116  1  0  0  0
 48 56  1  0  0  0
 48 65  1  0  0  0
 48117  1  0  0  0
 49 50  1  0  0  0
 49 53  1  0  0  0
 49 64  1  0  0  0
 49118  1  0  0  0
 50 51  1  0  0  0
 50119  1  0  0  0
 50120  1  0  0  0
 51 52  1  0  0  0
 51121  1  0  0  0
 51122  1  0  0  0
 52123  1  0  0  0
 52124  1  0  0  0
 53 54  1  0  0  0
 54 55  2  0  0  0
 54125  1  0  0  0
 55 57  1  0  0  0
 55126  1  0  0  0
 56 69  2  0  0  0
 57 58  2  0  0  0
 57127  1  0  0  0
 58128  1  0  0  0
 59 60  1  0  0  0
 59 61  1  0  0  0
 59 62  1  0  0  0
 60129  1  0  0  0
 60130  1  0  0  0
 60131  1  0  0  0
 61132  1  0  0  0
 61133  1  0  0  0
 61134  1  0  0  0
 62135  1  0  0  0
 62136  1  0  0  0
 62137  1  0  0  0
 63 65  1  0  0  0
 63138  1  0  0  0
 63139  1  0  0  0
 63140  1  0  0  0
 64141  1  0  0  0
 65142  1  0  0  0
 68 81  1  0  0  0
 71 72  2  0  0  0
 71 73  1  0  0  0
 71143  1  0  0  0
 72 75  1  0  0  0
 72144  1  0  0  0
 73 76  2  0  0  0
 73145  1  0  0  0
 74 75  2  0  0  0
 74 76  1  0  0  0
 74146  1  0  0  0
 75 82  1  0  0  0
 76 83  1  0  0  0
 77 78  1  0  0  0
 77 80  1  0  0  0
 77147  1  0  0  0
 77148  1  0  0  0
 78 82  1  0  0  0
 78149  1  0  0  0
 78150  1  0  0  0
 79 80  1  0  0  0
 79 82  1  0  0  0
 79151  1  0  0  0
 79152  1  0  0  0
 80 81  1  0  0  0
 80153  1  0  0  0
 81154  1  0  0  0
 81155  1  0  0  0
 83156  1  0  0  0
M  ISO  4   1 100  68 101  81 101  83 100
M  END
> <chiral flag>
0

> <version>
0

> <s_m_source_file>
/data/baiqing/PycharmProjects/Reinvent-master-3.2/result/LINK_invent/BTK/process_docking_weight1_custom_product_contain_oxygen_bond_distance_aromatic_linkinvent_7_9_3/rearranged_h_0144.sdf

> <i_m_source_file_index>
33

> <r_mmod_Potential_Energy-OPLS-2005>
293.615936279297

> <r_mmod_Stretch_Energy-OPLS-2005>
128.153930664062

> <r_mmod_Bend_Energy-OPLS-2005>
228.837036132812

> <r_mmod_Torsional_Energy-OPLS-2005>
266.962707519531

> <r_mmod_Improper_Torsional_Energy-OPLS-2005>
4.23241806030273

> <r_mmod_Van_der_Waal_Energy-OPLS-2005>
145.832733154297

> <r_mmod_Electrostatic_Energy-OPLS-2005>
-338.919158935547

> <r_mmod_Solvation_Energy-OPLS-2005>
-228.24755859375

> <b_mmod_Minimization_Converged-OPLS-2005>
0

> <r_mmod_RMS_Derivative-OPLS-2005>
2.42631459236145

$$$$
33
                    3D
 Structure written by MMmdl.
165174  0  0  1  0            999 V2000
  -30.7816  -14.4281   20.5968 C   0  0  0  0  0  0
  -30.4106  -12.2967   19.4063 C   0  0  0  0  0  0
  -29.4792  -12.4551   18.1895 C   0  0  0  0  0  0
  -28.0039  -12.3161   18.6147 C   0  0  0  0  0  0
  -27.6457  -13.1663   19.8614 C   0  0  2  0  0  0
  -28.7065  -13.0228   20.9778 C   0  0  0  0  0  0
  -25.2586  -13.8031   20.5655 C   0  0  0  0  0  0
  -24.1812  -13.0366   20.9182 C   0  0  0  0  0  0
  -24.6319  -11.6817   20.8779 C   0  0  0  0  0  0
  -23.8959  -10.4230   21.0452 C   0  0  0  0  0  0
  -24.3538   -9.4155   21.9217 C   0  0  0  0  0  0
  -23.6233   -8.2178   22.0770 C   0  0  0  0  0  0
  -22.4234   -8.0225   21.3545 C   0  0  0  0  0  0
  -21.9843   -9.0186   20.4659 C   0  0  0  0  0  0
  -22.7141  -10.2078   20.3082 C   0  0  0  0  0  0
  -21.6832   -6.0710   22.5269 C   0  0  0  0  0  0
  -21.4004   -6.5636   23.8194 C   0  0  0  0  0  0
  -21.3643   -5.6785   24.9155 C   0  0  0  0  0  0
  -21.6038   -4.3047   24.7210 C   0  0  0  0  0  0
  -21.8816   -3.8137   23.4328 C   0  0  0  0  0  0
  -21.9171   -4.6946   22.3390 C   0  0  0  0  0  0
  -22.7855  -13.5231   21.1804 C   0  0  0  0  0  0
  -22.1647   -4.2137   21.0965 F   0  0  0  0  0  0
  -21.5619   -3.4528   25.7725 F   0  0  0  0  0  0
  -30.0294  -13.3089   20.3982 N   0  0  0  0  0  0
  -26.2957  -12.9080   20.3370 N   0  0  0  0  0  0
  -25.9231  -11.6301   20.5825 N   0  0  0  0  0  0
  -22.0461  -12.8302   22.0402 N   0  0  0  0  0  0
  -25.4293  -15.1734   20.3954 N   0  0  0  0  0  0
  -31.9189  -14.5668   20.1477 O   0  0  0  0  0  0
  -21.6599   -6.8831   21.4226 O   0  0  0  0  0  0
  -22.3605  -14.5546   20.6629 O   0  0  0  0  0  0
  -24.6135  -31.8698   23.2131 C   0  0  0  0  0  0
  -25.9041  -32.4830   23.8401 C   0  0  1  0  0  0
  -27.2401  -27.4649   20.0842 C   0  0  0  0  0  0
  -25.5901  -33.8620   24.2345 N   0  0  0  0  0  0
  -23.4003  -30.4987   21.5524 C   0  0  2  0  0  0
  -24.8442  -28.9713   20.1185 C   0  0  0  0  0  0
  -22.7402  -29.4683   22.4963 C   0  0  0  0  0  0
  -18.0283  -28.1390   22.8479 C   0  0  0  0  0  0
  -24.1467  -36.7327   23.2633 C   0  0  0  0  0  0
  -25.9269  -30.8444   21.3653 C   0  0  0  0  0  0
  -26.0035  -29.4849   20.7078 C   0  0  0  0  0  0
  -27.2010  -28.7398   20.6902 C   0  0  0  0  0  0
  -26.0518  -26.9598   19.5020 C   0  0  0  0  0  0
  -24.8604  -27.7024   19.5194 C   0  0  0  0  0  0
  -23.6089  -29.8363   20.1652 C   0  0  0  0  0  0
  -25.4095  -36.3120   24.0338 C   0  0  1  0  0  0
  -20.5870  -28.3656   23.1280 C   0  0  2  0  0  0
  -20.6748  -26.9393   22.5355 C   0  0  0  0  0  0
  -19.5723  -26.6409   21.5134 C   0  0  0  0  0  0
  -18.1924  -26.7946   22.1597 C   0  0  0  0  0  0
  -19.1533  -28.8839   23.2898 C   0  0  0  0  0  0
  -18.9457  -30.1454   23.8906 C   0  0  0  0  0  0
  -17.6457  -30.6580   24.0577 C   0  0  0  0  0  0
  -25.9029  -34.9476   23.5140 C   0  0  0  0  0  0
  -16.5347  -29.9089   23.6326 C   0  0  0  0  0  0
  -16.7273  -28.6517   23.0330 C   0  0  0  0  0  0
  -26.4494  -31.6605   25.0724 C   0  0  0  0  0  0
  -25.3774  -31.3673   26.1478 C   0  0  0  0  0  0
  -27.0293  -30.3028   24.6098 C   0  0  0  0  0  0
  -27.6081  -32.4313   25.7488 C   0  0  0  0  0  0
  -27.5578  -37.1821   24.8470 C   0  0  0  0  0  0
  -21.4124  -29.3046   22.3702 N   0  0  0  0  0  0
  -26.4287  -37.3795   23.9422 N   0  0  0  0  0  0
  -24.6651  -31.0837   22.1026 N   0  0  0  0  0  0
  -23.4200  -28.8221   23.2974 O   0  0  0  0  0  0
  -28.4399  -26.7811   20.0854 O   0  0  0  0  0  0
  -26.5585  -34.8917   22.4699 O   0  0  0  0  0  0
  -23.5335  -32.1425   23.7551 O   0  0  0  0  0  0
  -27.9055  -16.9867   18.5844 C   0  0  0  0  0  0
  -27.3313  -18.0283   19.3306 C   0  0  0  0  0  0
  -28.9196  -16.2019   19.1531 C   0  0  0  0  0  0
  -28.7428  -17.4518   21.2367 C   0  0  0  0  0  0
  -27.8226  -18.3300   20.6207 C   0  0  0  0  0  0
  -29.2717  -16.3563   20.5172 C   0  0  0  0  0  0
  -27.1219  -22.0612   21.1296 C   0  0  0  0  0  0
  -27.4133  -19.5696   21.2947 C   0  0  0  0  0  0
  -28.4220  -22.4331   19.1677 C   0  0  0  0  0  0
  -28.1512  -20.9419   19.3275 C   0  0  0  0  0  0
  -27.3719  -23.1225   20.0491 C   0  0  1  0  0  0
  -26.0471  -23.3342   19.2769 C   0  0  0  0  0  0
  -27.8909  -24.4511   20.6539 C   0  0  0  0  0  0
  -28.4759  -25.4340   19.6160 C   0  0  0  0  0  0
  -27.5371  -20.7701   20.6596 N   0  0  0  0  0  0
  -30.1835  -15.4804   21.1738 N   0  0  0  0  0  0
  -26.9530  -19.4749   22.5462 N   0  3  0  0  0  0
  -26.6114  -22.2768   22.2331 O   0  0  0  0  0  0
  -31.4555  -12.3713   19.0993 H   0  0  0  0  0  0
  -30.3008  -11.3022   19.8413 H   0  0  0  0  0  0
  -29.7182  -11.6970   17.4431 H   0  0  0  0  0  0
  -29.6461  -13.4143   17.7028 H   0  0  0  0  0  0
  -27.8212  -11.2604   18.8193 H   0  0  0  0  0  0
  -27.3447  -12.5705   17.7834 H   0  0  0  0  0  0
  -27.6331  -14.1844   19.5188 H   0  0  0  0  0  0
  -28.6942  -12.0095   21.3816 H   0  0  0  0  0  0
  -28.4748  -13.6816   21.8143 H   0  0  0  0  0  0
  -25.2673   -9.5631   22.4785 H   0  0  0  0  0  0
  -23.9927   -7.4580   22.7510 H   0  0  0  0  0  0
  -21.0749   -8.8660   19.9017 H   0  0  0  0  0  0
  -22.3565  -10.9587   19.6179 H   0  0  0  0  0  0
  -21.2045   -7.6150   23.9693 H   0  0  0  0  0  0
  -21.1466   -6.0527   25.9051 H   0  0  0  0  0  0
  -22.0636   -2.7606   23.2819 H   0  0  0  0  0  0
  -22.4017  -11.9951   22.4817 H   0  0  0  0  0  0
  -21.1115  -13.1438   22.2602 H   0  0  0  0  0  0
  -24.6410  -15.8093   20.4416 H   0  0  0  0  0  0
  -26.2703  -15.6110   20.0441 H   0  0  0  0  0  0
  -26.7119  -32.5563   23.1167 H   0  0  0  0  0  0
  -25.0018  -33.9772   25.0463 H   0  0  0  0  0  0
  -22.6905  -31.3187   21.4161 H   0  0  0  0  0  0
  -23.3703  -35.9680   23.3306 H   0  0  0  0  0  0
  -24.3539  -36.8921   22.2039 H   0  0  0  0  0  0
  -23.7232  -37.6541   23.6637 H   0  0  0  0  0  0
  -26.0467  -31.6176   20.6058 H   0  0  0  0  0  0
  -26.8117  -30.8891   21.9883 H   0  0  0  0  0  0
  -28.0988  -29.1433   21.1387 H   0  0  0  0  0  0
  -26.0131  -25.9989   19.0217 H   0  0  0  0  0  0
  -23.9659  -27.2940   19.0709 H   0  0  0  0  0  0
  -23.7190  -30.6135   19.4065 H   0  0  0  0  0  0
  -22.7328  -29.2590   19.8653 H   0  0  0  0  0  0
  -25.1254  -36.1983   25.0822 H   0  0  0  0  0  0
  -21.0011  -28.3171   24.1372 H   0  0  0  0  0  0
  -20.5565  -26.2236   23.3517 H   0  0  0  0  0  0
  -21.6634  -26.7401   22.1191 H   0  0  0  0  0  0
  -19.6863  -25.6333   21.1117 H   0  0  0  0  0  0
  -19.6636  -27.3225   20.6664 H   0  0  0  0  0  0
  -17.4164  -26.6713   21.4036 H   0  0  0  0  0  0
  -18.0368  -26.0078   22.8990 H   0  0  0  0  0  0
  -19.7925  -30.7277   24.2272 H   0  0  0  0  0  0
  -17.5001  -31.6238   24.5226 H   0  0  0  0  0  0
  -15.5354  -30.2998   23.7651 H   0  0  0  0  0  0
  -15.8670  -28.0861   22.7028 H   0  0  0  0  0  0
  -24.5975  -30.6998   25.7803 H   0  0  0  0  0  0
  -24.8939  -32.2799   26.4970 H   0  0  0  0  0  0
  -25.8164  -30.8819   27.0203 H   0  0  0  0  0  0
  -26.2791  -29.6814   24.1191 H   0  0  0  0  0  0
  -27.4057  -29.7283   25.4572 H   0  0  0  0  0  0
  -27.8653  -30.4295   23.9217 H   0  0  0  0  0  0
  -27.2708  -33.3594   26.2114 H   0  0  0  0  0  0
  -28.3874  -32.6906   25.0314 H   0  0  0  0  0  0
  -28.0761  -31.8396   26.5361 H   0  0  0  0  0  0
  -28.2622  -38.0097   24.7503 H   0  0  0  0  0  0
  -28.1073  -36.2639   24.6326 H   0  0  0  0  0  0
  -27.2314  -37.1484   25.8879 H   0  0  0  0  0  0
  -20.9253  -29.8843   21.7012 H   0  0  0  0  0  0
  -26.0190  -38.2879   24.1398 H   0  0  0  0  0  0
  -27.5811  -16.7934   17.5709 H   0  0  0  0  0  0
  -26.5535  -18.6277   18.8795 H   0  0  0  0  0  0
  -29.3618  -15.4348   18.5391 H   0  0  0  0  0  0
  -29.0653  -17.6425   22.2529 H   0  0  0  0  0  0
  -28.3435  -22.7357   18.1236 H   0  0  0  0  0  0
  -29.4400  -22.6605   19.4902 H   0  0  0  0  0  0
  -29.0702  -20.3651   19.2074 H   0  0  0  0  0  0
  -27.4530  -20.6257   18.5524 H   0  0  0  0  0  0
  -25.6151  -22.3917   18.9406 H   0  0  0  0  0  0
  -26.1919  -23.9392   18.3834 H   0  0  0  0  0  0
  -25.2974  -23.8257   19.8981 H   0  0  0  0  0  0
  -28.6596  -24.2529   21.4045 H   0  0  0  0  0  0
  -27.0781  -24.9236   21.2055 H   0  0  0  0  0  0
  -29.5217  -25.1746   19.4490 H   0  0  0  0  0  0
  -28.0107  -25.3467   18.6337 H   0  0  0  0  0  0
  -30.8069  -15.9751   21.7950 H   0  0  0  0  0  0
  -26.8920  -18.5784   23.0025 H   0  0  0  0  0  0
  -26.6696  -20.3107   23.0394 H   0  0  0  0  0  0
  1 25  1  0  0  0
  1 30  2  0  0  0
  1 86  1  0  0  0
  2  3  1  0  0  0
  2 25  1  0  0  0
  2 89  1  0  0  0
  2 90  1  0  0  0
  3  4  1  0  0  0
  3 91  1  0  0  0
  3 92  1  0  0  0
  4  5  1  0  0  0
  4 93  1  0  0  0
  4 94  1  0  0  0
  5  6  1  0  0  0
  5 26  1  0  0  0
  5 95  1  0  0  0
  6 25  1  0  0  0
  6 96  1  0  0  0
  6 97  1  0  0  0
  7  8  2  0  0  0
  7 26  1  0  0  0
  7 29  1  0  0  0
  8  9  1  0  0  0
  8 22  1  0  0  0
  9 10  1  0  0  0
  9 27  2  0  0  0
 10 11  2  0  0  0
 10 15  1  0  0  0
 11 12  1  0  0  0
 11 98  1  0  0  0
 12 13  2  0  0  0
 12 99  1  0  0  0
 13 14  1  0  0  0
 13 31  1  0  0  0
 14 15  2  0  0  0
 14100  1  0  0  0
 15101  1  0  0  0
 16 17  2  0  0  0
 16 21  1  0  0  0
 16 31  1  0  0  0
 17 18  1  0  0  0
 17102  1  0  0  0
 18 19  2  0  0  0
 18103  1  0  0  0
 19 20  1  0  0  0
 19 24  1  0  0  0
 20 21  2  0  0  0
 20104  1  0  0  0
 21 23  1  0  0  0
 22 28  1  0  0  0
 22 32  2  0  0  0
 26 27  1  0  0  0
 28105  1  0  0  0
 28106  1  0  0  0
 29107  1  0  0  0
 29108  1  0  0  0
 33 34  1  0  0  0
 33 66  1  0  0  0
 33 70  2  0  0  0
 34 36  1  0  0  0
 34 59  1  0  0  0
 34109  1  0  0  0
 35 44  2  0  0  0
 35 45  1  0  0  0
 35 68  1  0  0  0
 36 56  1  0  0  0
 36110  1  0  0  0
 37 39  1  0  0  0
 37 47  1  0  0  0
 37 66  1  0  0  0
 37111  1  0  0  0
 38 43  2  0  0  0
 38 46  1  0  0  0
 38 47  1  0  0  0
 39 64  1  0  0  0
 39 67  2  0  0  0
 40 52  1  0  0  0
 40 53  2  0  0  0
 40 58  1  0  0  0
 41112  1  0  0  0
 41113  1  0  0  0
 41114  1  0  0  0
 41 48  1  0  0  0
 42 43  1  0  0  0
 42 66  1  0  0  0
 42115  1  0  0  0
 42116  1  0  0  0
 43 44  1  0  0  0
 44117  1  0  0  0
 45 46  2  0  0  0
 45118  1  0  0  0
 46119  1  0  0  0
 47120  1  0  0  0
 47121  1  0  0  0
 48 56  1  0  0  0
 48 65  1  0  0  0
 48122  1  0  0  0
 49 50  1  0  0  0
 49 53  1  0  0  0
 49 64  1  0  0  0
 49123  1  0  0  0
 50 51  1  0  0  0
 50124  1  0  0  0
 50125  1  0  0  0
 51 52  1  0  0  0
 51126  1  0  0  0
 51127  1  0  0  0
 52128  1  0  0  0
 52129  1  0  0  0
 53 54  1  0  0  0
 54 55  2  0  0  0
 54130  1  0  0  0
 55 57  1  0  0  0
 55131  1  0  0  0
 56 69  2  0  0  0
 57 58  2  0  0  0
 57132  1  0  0  0
 58133  1  0  0  0
 59 60  1  0  0  0
 59 61  1  0  0  0
 59 62  1  0  0  0
 60134  1  0  0  0
 60135  1  0  0  0
 60136  1  0  0  0
 61137  1  0  0  0
 61138  1  0  0  0
 61139  1  0  0  0
 62140  1  0  0  0
 62141  1  0  0  0
 62142  1  0  0  0
 63 65  1  0  0  0
 63143  1  0  0  0
 63144  1  0  0  0
 63145  1  0  0  0
 64146  1  0  0  0
 65147  1  0  0  0
 68 84  1  0  0  0
 71 72  2  0  0  0
 71 73  1  0  0  0
 71148  1  0  0  0
 72 75  1  0  0  0
 72149  1  0  0  0
 73 76  2  0  0  0
 73150  1  0  0  0
 74 75  2  0  0  0
 74 76  1  0  0  0
 74151  1  0  0  0
 75 78  1  0  0  0
 76 86  1  0  0  0
 77 81  1  0  0  0
 77 85  1  0  0  0
 77 88  2  0  0  0
 78 85  1  0  0  0
 78 87  2  0  0  0
 79 80  1  0  0  0
 79 81  1  0  0  0
 79152  1  0  0  0
 79153  1  0  0  0
 80 85  1  0  0  0
 80154  1  0  0  0
 80155  1  0  0  0
 81 82  1  0  0  0
 81 83  1  0  0  0
 82156  1  0  0  0
 82157  1  0  0  0
 82158  1  0  0  0
 83 84  1  0  0  0
 83159  1  0  0  0
 83160  1  0  0  0
 84161  1  0  0  0
 84162  1  0  0  0
 86163  1  0  0  0
 87164  1  0  0  0
 87165  1  0  0  0
M  CHG  1  87   1
M  ISO  4   1 100  68 101  84 101  86 100
M  END
> <chiral flag>
0

> <version>
0

> <s_m_source_file>
/data/baiqing/PycharmProjects/Reinvent-master-3.2/result/LINK_invent/BTK/process_docking_weight1_custom_product_contain_oxygen_bond_distance_aromatic_linkinvent_7_9_3/rearranged_h_0144.sdf

> <i_m_source_file_index>
34

> <r_mmod_Potential_Energy-OPLS-2005>
-156.323348999023

> <r_mmod_Stretch_Energy-OPLS-2005>
35.0550079345703

> <r_mmod_Bend_Energy-OPLS-2005>
140.591506958008

> <r_mmod_Torsional_Energy-OPLS-2005>
297.657958984375

> <r_mmod_Improper_Torsional_Energy-OPLS-2005>
7.03446674346924

> <r_mmod_Van_der_Waal_Energy-OPLS-2005>
173.017517089844

> <r_mmod_Electrostatic_Energy-OPLS-2005>
-412.185882568359

> <r_mmod_Solvation_Energy-OPLS-2005>
-413.520233154297

> <b_mmod_Minimization_Converged-OPLS-2005>
0

> <r_mmod_RMS_Derivative-OPLS-2005>
3.33208227157593

$$$$
34
                    3D
 Structure written by MMmdl.
160168  0  0  1  0            999 V2000
  -29.4000  -15.5840   20.6720 C   0  0  0  0  0  0
  -30.2832  -13.1614   19.6904 C   0  0  0  0  0  0
  -29.5323  -12.7508   18.3765 C   0  0  0  0  0  0
  -28.0803  -12.3226   18.6720 C   0  0  0  0  0  0
  -27.4929  -13.2149   19.7879 C   0  0  2  0  0  0
  -28.3775  -13.2863   21.0243 C   0  0  0  0  0  0
  -25.1780  -13.7922   20.5331 C   0  0  0  0  0  0
  -24.1292  -13.0196   20.9222 C   0  0  0  0  0  0
  -24.5913  -11.6677   20.8685 C   0  0  0  0  0  0
  -23.8741  -10.4107   21.0438 C   0  0  0  0  0  0
  -24.3428   -9.4078   21.9193 C   0  0  0  0  0  0
  -23.6180   -8.2085   22.0736 C   0  0  0  0  0  0
  -22.4171   -8.0111   21.3517 C   0  0  0  0  0  0
  -21.9717   -9.0036   20.4626 C   0  0  0  0  0  0
  -22.6951  -10.1949   20.3061 C   0  0  0  0  0  0
  -21.6781   -6.0627   22.5277 C   0  0  0  0  0  0
  -21.3975   -6.5563   23.8201 C   0  0  0  0  0  0
  -21.3692   -5.6742   24.9176 C   0  0  0  0  0  0
  -21.6058   -4.3005   24.7239 C   0  0  0  0  0  0
  -21.8823   -3.8072   23.4368 C   0  0  0  0  0  0
  -21.9171   -4.6869   22.3413 C   0  0  0  0  0  0
  -22.7449  -13.5082   21.2078 C   0  0  0  0  0  0
  -22.1627   -4.2047   21.0987 F   0  0  0  0  0  0
  -21.5678   -3.4512   25.7774 F   0  0  0  0  0  0
  -29.4270  -14.1292   20.5540 N   0  0  0  0  0  0
  -26.1808  -12.8969   20.2309 N   0  0  0  0  0  0
  -25.8656  -11.6177   20.5193 N   0  0  0  0  0  0
  -22.0197  -12.8068   22.0686 N   0  0  0  0  0  0
  -25.3561  -15.1657   20.3793 N   0  0  0  0  0  0
  -30.5829  -15.9020   20.3429 O   0  0  0  0  0  0
  -21.6564   -6.8716   21.4218 O   0  0  0  0  0  0
  -22.3208  -14.5462   20.7011 O   0  0  0  0  0  0
  -24.6546  -31.9393   23.2350 C   0  0  0  0  0  0
  -25.9503  -32.5064   23.8647 C   0  0  1  0  0  0
  -26.1472  -27.2184   20.3535 C   0  0  0  0  0  0
  -25.6422  -33.8813   24.2589 N   0  0  0  0  0  0
  -23.4510  -30.5919   21.6036 C   0  0  2  0  0  0
  -24.8480  -29.3599   19.8014 C   0  0  0  0  0  0
  -23.0905  -29.4819   22.6282 C   0  0  0  0  0  0
  -18.6918  -27.6020   22.4774 C   0  0  0  0  0  0
  -24.1538  -36.7335   23.2586 C   0  0  0  0  0  0
  -25.9837  -30.8256   21.4480 C   0  0  0  0  0  0
  -25.9115  -29.5288   20.6849 C   0  0  0  0  0  0
  -26.7499  -28.4139   20.8666 C   0  0  0  0  0  0
  -25.9024  -27.3007   19.0117 C   0  0  0  0  0  0
  -24.9842  -28.3442   18.8015 C   0  0  0  0  0  0
  -23.5981  -30.1630   20.0955 C   0  0  0  0  0  0
  -25.4151  -36.3173   24.0330 C   0  0  1  0  0  0
  -21.4496  -27.9365   23.5478 C   0  0  2  0  0  0
  -22.4793  -26.2155   22.7163 C   0  0  0  0  0  0
  -20.8387  -25.1733   21.1018 C   0  0  0  0  0  0
  -19.0379  -26.2418   21.3152 C   0  0  0  0  0  0
  -19.7238  -28.3237   23.3345 C   0  0  0  0  0  0
  -19.2717  -29.5845   23.9456 C   0  0  0  0  0  0
  -17.9598  -30.1341   23.9304 C   0  0  0  0  0  0
  -25.9186  -34.9587   23.5149 C   0  0  0  0  0  0
  -16.9579  -29.3770   23.3181 C   0  0  0  0  0  0
  -17.3290  -28.1682   22.6267 C   0  0  0  0  0  0
  -26.4647  -31.6683   25.0966 C   0  0  0  0  0  0
  -25.3779  -31.3831   26.1584 C   0  0  0  0  0  0
  -27.0485  -30.3073   24.6529 C   0  0  0  0  0  0
  -27.6215  -32.4334   25.7823 C   0  0  0  0  0  0
  -27.5612  -37.1896   24.8466 C   0  0  0  0  0  0
  -21.8533  -29.2629   22.9807 N   0  0  0  0  0  0
  -26.4298  -37.3875   23.9456 N   0  0  0  0  0  0
  -24.7080  -31.1919   22.1050 N   0  0  0  0  0  0
  -23.9357  -28.8113   23.1967 O   0  0  0  0  0  0
  -24.8250  -26.9311   20.9024 O   0  0  0  0  0  0
  -26.5511  -34.8983   22.4564 O   0  0  0  0  0  0
  -23.5767  -32.2061   23.7869 O   0  0  0  0  0  0
  -25.7691  -18.5940   21.8889 C   0  0  0  0  0  0
  -27.3818  -19.3522   20.7681 C   0  0  0  0  0  0
  -27.1629  -18.0419   21.2499 C   0  0  0  0  0  0
  -25.2716  -20.0471   21.8273 C   0  0  0  0  0  0
  -21.2835  -27.4277   21.1755 C   0  0  0  0  0  0
  -20.5859  -25.8506   24.8347 C   0  0  0  0  0  0
  -19.0367  -24.8436   23.4674 C   0  0  0  0  0  0
  -23.0624  -27.1425   20.4076 C   0  0  0  0  0  0
  -23.1925  -22.6997   22.3706 C   0  0  0  0  0  0
  -21.6113  -23.7506   23.1783 C   0  0  1  0  0  0
  -20.4463  -25.6137   23.2276 C   0  0  0  0  0  0
  -28.0947  -16.4932   21.0626 N   0  0  0  0  0  0
  -23.9738  -21.0582   22.3867 N   0  0  0  0  0  0
  -20.6336  -28.3422   20.6402 O   0  0  0  0  0  0
  -26.3905  -20.4260   21.0576 O   0  0  0  0  0  0
  -20.6953  -22.7776   23.1113 F   0  0  0  0  0  0
  -31.2504  -13.6055   19.4526 H   0  0  0  0  0  0
  -30.5338  -12.2549   20.2458 H   0  0  0  0  0  0
  -30.0685  -11.9706   17.8323 H   0  0  0  0  0  0
  -29.5113  -13.6163   17.7124 H   0  0  0  0  0  0
  -28.0720  -11.2770   18.9811 H   0  0  0  0  0  0
  -27.4770  -12.3891   17.7649 H   0  0  0  0  0  0
  -27.4075  -14.1962   19.3145 H   0  0  0  0  0  0
  -28.6839  -12.2877   21.3563 H   0  0  0  0  0  0
  -27.8660  -13.7645   21.8627 H   0  0  0  0  0  0
  -25.2580   -9.5603   22.4727 H   0  0  0  0  0  0
  -23.9913   -7.4455   22.7416 H   0  0  0  0  0  0
  -21.0658   -8.8464   19.8931 H   0  0  0  0  0  0
  -22.3358  -10.9465   19.6172 H   0  0  0  0  0  0
  -21.1938   -7.6067   23.9663 H   0  0  0  0  0  0
  -21.1544   -6.0488   25.9074 H   0  0  0  0  0  0
  -22.0602   -2.7527   23.2898 H   0  0  0  0  0  0
  -22.3843  -11.9681   22.4972 H   0  0  0  0  0  0
  -21.0849  -13.1067   22.3018 H   0  0  0  0  0  0
  -24.5226  -15.7341   20.4747 H   0  0  0  0  0  0
  -25.9198  -15.4903   19.6009 H   0  0  0  0  0  0
  -26.7563  -32.5523   23.1354 H   0  0  0  0  0  0
  -25.0905  -34.0026   25.0955 H   0  0  0  0  0  0
  -22.6529  -31.3383   21.6284 H   0  0  0  0  0  0
  -23.3822  -35.9629   23.3206 H   0  0  0  0  0  0
  -24.3682  -36.8986   22.2011 H   0  0  0  0  0  0
  -23.7276  -37.6532   23.6599 H   0  0  0  0  0  0
  -26.2613  -31.6191   20.7556 H   0  0  0  0  0  0
  -26.8168  -30.7113   22.1273 H   0  0  0  0  0  0
  -27.4977  -28.3971   21.6464 H   0  0  0  0  0  0
  -25.8680  -26.4360   18.3632 H   0  0  0  0  0  0
  -24.3114  -28.3104   17.9562 H   0  0  0  0  0  0
  -23.6673  -31.0685   19.4944 H   0  0  0  0  0  0
  -22.6900  -29.6903   19.7305 H   0  0  0  0  0  0
  -25.1283  -36.2021   25.0812 H   0  0  0  0  0  0
  -21.7234  -28.0801   24.5968 H   0  0  0  0  0  0
  -22.8193  -25.6416   23.5769 H   0  0  0  0  0  0
  -23.5235  -26.3255   22.4992 H   0  0  0  0  0  0
  -20.6347  -24.1055   21.1200 H   0  0  0  0  0  0
  -21.1561  -25.2048   20.0555 H   0  0  0  0  0  0
  -18.8551  -26.6964   20.3408 H   0  0  0  0  0  0
  -18.1724  -25.5822   21.2750 H   0  0  0  0  0  0
  -20.0028  -30.1623   24.4989 H   0  0  0  0  0  0
  -17.7390  -31.0743   24.4187 H   0  0  0  0  0  0
  -15.9317  -29.7214   23.3194 H   0  0  0  0  0  0
  -16.5361  -27.6584   22.1000 H   0  0  0  0  0  0
  -24.5962  -30.7235   25.7803 H   0  0  0  0  0  0
  -24.8993  -32.3010   26.4993 H   0  0  0  0  0  0
  -25.7996  -30.8959   27.0387 H   0  0  0  0  0  0
  -26.3149  -29.6896   24.1380 H   0  0  0  0  0  0
  -27.3884  -29.7276   25.5120 H   0  0  0  0  0  0
  -27.9146  -30.4292   24.0042 H   0  0  0  0  0  0
  -27.2840  -33.3612   26.2461 H   0  0  0  0  0  0
  -28.4053  -32.6953   25.0691 H   0  0  0  0  0  0
  -28.0841  -31.8411   26.5738 H   0  0  0  0  0  0
  -28.2574  -38.0248   24.7567 H   0  0  0  0  0  0
  -28.1196  -36.2800   24.6204 H   0  0  0  0  0  0
  -27.2372  -37.1428   25.8877 H   0  0  0  0  0  0
  -21.1181  -29.8160   22.5565 H   0  0  0  0  0  0
  -26.0155  -38.2914   24.1548 H   0  0  0  0  0  0
  -25.1227  -17.8883   22.3856 H   0  0  0  0  0  0
  -28.1881  -19.7495   20.1636 H   0  0  0  0  0  0
  -19.8940  -26.5914   25.2363 H   0  0  0  0  0  0
  -21.5858  -26.0911   25.1919 H   0  0  0  0  0  0
  -20.4141  -24.9609   25.4406 H   0  0  0  0  0  0
  -18.2023  -25.4884   23.7463 H   0  0  0  0  0  0
  -19.0548  -24.0934   24.2577 H   0  0  0  0  0  0
  -18.7395  -24.1892   22.6481 H   0  0  0  0  0  0
  -22.9420  -27.6779   19.4784 H   0  0  0  0  0  0
  -22.9552  -26.1418   19.9999 H   0  0  0  0  0  0
  -24.0336  -23.3145   22.6887 H   0  0  0  0  0  0
  -23.1110  -22.9100   21.3041 H   0  0  0  0  0  0
  -21.9154  -23.6817   24.2247 H   0  0  0  0  0  0
  -27.4253  -15.7792   21.3220 H   0  0  0  0  0  0
  -23.5017  -20.5014   23.0985 H   0  0  0  0  0  0
  1 25  1  0  0  0
  1 30  2  0  0  0
  1 82  1  0  0  0
  2  3  1  0  0  0
  2 25  1  0  0  0
  2 87  1  0  0  0
  2 88  1  0  0  0
  3  4  1  0  0  0
  3 89  1  0  0  0
  3 90  1  0  0  0
  4  5  1  0  0  0
  4 91  1  0  0  0
  4 92  1  0  0  0
  5  6  1  0  0  0
  5 26  1  0  0  0
  5 93  1  0  0  0
  6 25  1  0  0  0
  6 94  1  0  0  0
  6 95  1  0  0  0
  7  8  2  0  0  0
  7 26  1  0  0  0
  7 29  1  0  0  0
  8  9  1  0  0  0
  8 22  1  0  0  0
  9 10  1  0  0  0
  9 27  2  0  0  0
 10 11  2  0  0  0
 10 15  1  0  0  0
 11 12  1  0  0  0
 11 96  1  0  0  0
 12 13  2  0  0  0
 12 97  1  0  0  0
 13 14  1  0  0  0
 13 31  1  0  0  0
 14 15  2  0  0  0
 14 98  1  0  0  0
 15 99  1  0  0  0
 16 17  2  0  0  0
 16 21  1  0  0  0
 16 31  1  0  0  0
 17 18  1  0  0  0
 17100  1  0  0  0
 18 19  2  0  0  0
 18101  1  0  0  0
 19 20  1  0  0  0
 19 24  1  0  0  0
 20 21  2  0  0  0
 20102  1  0  0  0
 21 23  1  0  0  0
 22 28  1  0  0  0
 22 32  2  0  0  0
 26 27  1  0  0  0
 28103  1  0  0  0
 28104  1  0  0  0
 29105  1  0  0  0
 29106  1  0  0  0
 33 34  1  0  0  0
 33 66  1  0  0  0
 33 70  2  0  0  0
 34 36  1  0  0  0
 34 59  1  0  0  0
 34107  1  0  0  0
 35 44  2  0  0  0
 35 45  1  0  0  0
 35 68  1  0  0  0
 36 56  1  0  0  0
 36108  1  0  0  0
 37 39  1  0  0  0
 37 47  1  0  0  0
 37 66  1  0  0  0
 37109  1  0  0  0
 38 43  2  0  0  0
 38 46  1  0  0  0
 38 47  1  0  0  0
 39 64  1  0  0  0
 39 67  2  0  0  0
 40 52  1  0  0  0
 40 53  2  0  0  0
 40 58  1  0  0  0
 41110  1  0  0  0
 41111  1  0  0  0
 41112  1  0  0  0
 41 48  1  0  0  0
 42 43  1  0  0  0
 42 66  1  0  0  0
 42113  1  0  0  0
 42114  1  0  0  0
 43 44  1  0  0  0
 44115  1  0  0  0
 45 46  2  0  0  0
 45116  1  0  0  0
 46117  1  0  0  0
 47118  1  0  0  0
 47119  1  0  0  0
 48 56  1  0  0  0
 48 65  1  0  0  0
 48120  1  0  0  0
 49 50  1  0  0  0
 49 53  1  0  0  0
 49 64  1  0  0  0
 49121  1  0  0  0
 50 51  1  0  0  0
 50122  1  0  0  0
 50123  1  0  0  0
 51 52  1  0  0  0
 51124  1  0  0  0
 51125  1  0  0  0
 52126  1  0  0  0
 52127  1  0  0  0
 53 54  1  0  0  0
 54 55  2  0  0  0
 54128  1  0  0  0
 55 57  1  0  0  0
 55129  1  0  0  0
 56 69  2  0  0  0
 57 58  2  0  0  0
 57130  1  0  0  0
 58131  1  0  0  0
 59 60  1  0  0  0
 59 61  1  0  0  0
 59 62  1  0  0  0
 60132  1  0  0  0
 60133  1  0  0  0
 60134  1  0  0  0
 61135  1  0  0  0
 61136  1  0  0  0
 61137  1  0  0  0
 62138  1  0  0  0
 62139  1  0  0  0
 62140  1  0  0  0
 63 65  1  0  0  0
 63141  1  0  0  0
 63142  1  0  0  0
 63143  1  0  0  0
 64144  1  0  0  0
 65145  1  0  0  0
 68 78  1  0  0  0
 71 73  1  0  0  0
 71 74  2  0  0  0
 71146  1  0  0  0
 72 73  2  0  0  0
 72 85  1  0  0  0
 72147  1  0  0  0
 73 82  1  0  0  0
 74 83  1  0  0  0
 74 85  1  0  0  0
 75 78  1  0  0  0
 75 81  1  0  0  0
 75 84  2  0  0  0
 76148  1  0  0  0
 76149  1  0  0  0
 76150  1  0  0  0
 76 81  1  0  0  0
 77 81  1  0  0  0
 77151  1  0  0  0
 77152  1  0  0  0
 77153  1  0  0  0
 78154  1  0  0  0
 78155  1  0  0  0
 79 80  1  0  0  0
 79 83  1  0  0  0
 79156  1  0  0  0
 79157  1  0  0  0
 80 81  1  0  0  0
 80 86  1  0  0  0
 80158  1  0  0  0
 82159  1  0  0  0
 83160  1  0  0  0
M  ISO  4   1 100  68 101  78 101  82 100
M  END
> <chiral flag>
0

> <version>
0

> <s_m_source_file>
/data/baiqing/PycharmProjects/Reinvent-master-3.2/result/LINK_invent/BTK/process_docking_weight1_custom_product_contain_oxygen_bond_distance_aromatic_linkinvent_7_9_3/rearranged_h_0144.sdf

> <i_m_source_file_index>
35

> <r_mmod_Potential_Energy-OPLS-2005>
14952.9228515625

> <r_mmod_Stretch_Energy-OPLS-2005>
7133.91650390625

> <r_mmod_Bend_Energy-OPLS-2005>
1480.83410644531

> <r_mmod_Torsional_Energy-OPLS-2005>
532.235717773438

> <r_mmod_Improper_Torsional_Energy-OPLS-2005>
41.2041168212891

> <r_mmod_Van_der_Waal_Energy-OPLS-2005>
2205.81323242188

> <r_mmod_Electrostatic_Energy-OPLS-2005>
-376.559875488281

> <r_mmod_Solvation_Energy-OPLS-2005>
-220.38346862793

> <b_mmod_Minimization_Converged-OPLS-2005>
0

> <r_mmod_RMS_Derivative-OPLS-2005>
11.0109596252441

$$$$
35
                    3D
 Structure written by MMmdl.
168177  0  0  1  0            999 V2000
  -30.6002  -14.8709   20.4200 C   0  0  0  0  0  0
  -30.4309  -12.5502   19.4724 C   0  0  0  0  0  0
  -29.5056  -12.5070   18.2376 C   0  0  0  0  0  0
  -28.0383  -12.3129   18.6603 C   0  0  0  0  0  0
  -27.6240  -13.2494   19.8259 C   0  0  2  0  0  0
  -28.6695  -13.2871   20.9607 C   0  0  0  0  0  0
  -25.2418  -13.8223   20.5709 C   0  0  0  0  0  0
  -24.1761  -13.0465   20.9233 C   0  0  0  0  0  0
  -24.6374  -11.6936   20.8749 C   0  0  0  0  0  0
  -23.9070  -10.4309   21.0410 C   0  0  0  0  0  0
  -24.3624   -9.4220   21.9190 C   0  0  0  0  0  0
  -23.6297   -8.2252   22.0756 C   0  0  0  0  0  0
  -22.4278   -8.0285   21.3544 C   0  0  0  0  0  0
  -21.9920   -9.0259   20.4648 C   0  0  0  0  0  0
  -22.7241  -10.2141   20.3060 C   0  0  0  0  0  0
  -21.6859   -6.0735   22.5277 C   0  0  0  0  0  0
  -21.4014   -6.5640   23.8208 C   0  0  0  0  0  0
  -21.3655   -5.6792   24.9174 C   0  0  0  0  0  0
  -21.6048   -4.3054   24.7225 C   0  0  0  0  0  0
  -21.8819   -3.8144   23.4345 C   0  0  0  0  0  0
  -21.9195   -4.6961   22.3400 C   0  0  0  0  0  0
  -22.7773  -13.5211   21.1898 C   0  0  0  0  0  0
  -22.1665   -4.2144   21.0978 F   0  0  0  0  0  0
  -21.5631   -3.4540   25.7737 F   0  0  0  0  0  0
  -29.9552  -13.6485   20.3531 N   0  0  0  0  0  0
  -26.2851  -12.9482   20.3204 N   0  0  0  0  0  0
  -25.9301  -11.6610   20.5724 N   0  0  0  0  0  0
  -22.0423  -12.8190   22.0448 N   0  0  0  0  0  0
  -25.4046  -15.1978   20.4126 N   0  0  0  0  0  0
  -31.8082  -14.8841   20.1679 O   0  0  0  0  0  0
  -21.6651   -6.8878   21.4239 O   0  0  0  0  0  0
  -22.3449  -14.5522   20.6742 O   0  0  0  0  0  0
  -24.6259  -31.8525   23.1945 C   0  0  0  0  0  0
  -25.9133  -32.4692   23.8268 C   0  0  1  0  0  0
  -27.2166  -27.2289   20.1397 C   0  0  0  0  0  0
  -25.5975  -33.8506   24.2196 N   0  0  0  0  0  0
  -23.4214  -30.4721   21.5356 C   0  0  2  0  0  0
  -24.8735  -28.9182   20.0975 C   0  0  0  0  0  0
  -22.7480  -29.4535   22.4859 C   0  0  0  0  0  0
  -18.0303  -28.1339   22.8473 C   0  0  0  0  0  0
  -24.1540  -36.7253   23.2637 C   0  0  0  0  0  0
  -25.9679  -30.7553   21.3805 C   0  0  0  0  0  0
  -26.0408  -29.3752   20.7215 C   0  0  0  0  0  0
  -27.2081  -28.5397   20.7375 C   0  0  0  0  0  0
  -26.0215  -26.8410   19.4936 C   0  0  0  0  0  0
  -24.8711  -27.6591   19.4724 C   0  0  0  0  0  0
  -23.6439  -29.8118   20.1468 C   0  0  0  0  0  0
  -25.4160  -36.3001   24.0285 C   0  0  1  0  0  0
  -20.5886  -28.3638   23.1294 C   0  0  2  0  0  0
  -20.6789  -26.9351   22.5425 C   0  0  0  0  0  0
  -19.5785  -26.6344   21.5206 C   0  0  0  0  0  0
  -18.1957  -26.7887   22.1599 C   0  0  0  0  0  0
  -19.1539  -28.8805   23.2885 C   0  0  0  0  0  0
  -18.9460  -30.1412   23.8891 C   0  0  0  0  0  0
  -17.6463  -30.6551   24.0533 C   0  0  0  0  0  0
  -25.9091  -34.9390   23.5031 C   0  0  0  0  0  0
  -16.5360  -29.9029   23.6321 C   0  0  0  0  0  0
  -16.7289  -28.6445   23.0340 C   0  0  0  0  0  0
  -26.4531  -31.6525   25.0659 C   0  0  0  0  0  0
  -25.3739  -31.3690   26.1375 C   0  0  0  0  0  0
  -27.0416  -30.2946   24.6168 C   0  0  0  0  0  0
  -27.6068  -32.4288   25.7453 C   0  0  0  0  0  0
  -27.5598  -37.1773   24.8459 C   0  0  0  0  0  0
  -21.4176  -29.2982   22.3674 N   0  0  0  0  0  0
  -26.4330  -37.3699   23.9368 N   0  0  0  0  0  0
  -24.6887  -31.0461   22.0930 N   0  0  0  0  0  0
  -23.4203  -28.8081   23.2950 O   0  0  0  0  0  0
  -28.3205  -26.3376   20.2440 O   0  0  0  0  0  0
  -26.5673  -34.8881   22.4608 O   0  0  0  0  0  0
  -23.5428  -32.1411   23.7233 O   0  0  0  0  0  0
  -31.2914  -20.1834   21.0624 C   0  0  0  0  0  0
  -31.6219  -17.7607   21.0466 C   0  0  0  0  0  0
  -29.4778  -18.7501   20.4719 C   0  0  0  0  0  0
  -32.1177  -19.0586   21.2309 C   0  0  0  0  0  0
  -29.9291  -20.1514   20.6763 C   0  0  0  0  0  0
  -30.2920  -17.5219   20.6484 C   0  0  0  0  0  0
  -28.5253  -22.1412   19.5039 C   0  0  0  0  0  0
  -28.3896  -23.4904   20.3602 C   0  0  2  0  0  0
  -29.6718  -22.8549   21.0625 C   0  0  0  0  0  0
  -27.0991  -23.5495   21.2021 C   0  0  0  0  0  0
  -31.0259  -23.2771   20.4348 C   0  0  0  0  0  0
  -29.7560  -22.9622   22.5934 C   0  0  0  0  0  0
  -34.4529  -19.3140   20.3393 C   0  0  0  0  0  0
  -33.5782  -19.2604   21.5959 C   0  0  0  0  0  0
  -28.4129  -24.9616   19.6059 C   0  0  0  0  0  0
  -29.1859  -21.4849   20.6519 N   0  0  0  0  0  0
  -29.8609  -16.0738   20.5047 N   0  0  0  0  0  0
  -31.4600  -12.7034   19.1406 H   0  0  0  0  0  0
  -30.4269  -11.6030   20.0113 H   0  0  0  0  0  0
  -29.8108  -11.7042   17.5657 H   0  0  0  0  0  0
  -29.6031  -13.4350   17.6701 H   0  0  0  0  0  0
  -27.9166  -11.2710   18.9592 H   0  0  0  0  0  0
  -27.3780  -12.4609   17.8047 H   0  0  0  0  0  0
  -27.5818  -14.2490   19.3916 H   0  0  0  0  0  0
  -28.7354  -12.3313   21.4800 H   0  0  0  0  0  0
  -28.3812  -14.0307   21.7060 H   0  0  0  0  0  0
  -25.2767   -9.5709   22.4769 H   0  0  0  0  0  0
  -24.0012   -7.4651   22.7482 H   0  0  0  0  0  0
  -21.0848   -8.8775   19.8951 H   0  0  0  0  0  0
  -22.3691  -10.9684   19.6173 H   0  0  0  0  0  0
  -21.2000   -7.6145   23.9707 H   0  0  0  0  0  0
  -21.1480   -6.0523   25.9075 H   0  0  0  0  0  0
  -22.0599   -2.7604   23.2848 H   0  0  0  0  0  0
  -22.4050  -11.9849   22.4832 H   0  0  0  0  0  0
  -21.1039  -13.1203   22.2662 H   0  0  0  0  0  0
  -24.6292  -15.8418   20.5267 H   0  0  0  0  0  0
  -26.2397  -15.6472   20.0618 H   0  0  0  0  0  0
  -26.7175  -32.5333   23.0971 H   0  0  0  0  0  0
  -25.0101  -33.9648   25.0320 H   0  0  0  0  0  0
  -22.7128  -31.2905   21.3947 H   0  0  0  0  0  0
  -23.3781  -35.9613   23.3278 H   0  0  0  0  0  0
  -24.3642  -36.8918   22.2059 H   0  0  0  0  0  0
  -23.7353  -37.6455   23.6714 H   0  0  0  0  0  0
  -26.1152  -31.5206   20.6169 H   0  0  0  0  0  0
  -26.8423  -30.8044   22.0167 H   0  0  0  0  0  0
  -28.0939  -28.8759   21.2595 H   0  0  0  0  0  0
  -25.9268  -25.8695   19.0391 H   0  0  0  0  0  0
  -23.9760  -27.2959   18.9859 H   0  0  0  0  0  0
  -23.7737  -30.6030   19.4057 H   0  0  0  0  0  0
  -22.7609  -29.2506   19.8330 H   0  0  0  0  0  0
  -25.1355  -36.1808   25.0775 H   0  0  0  0  0  0
  -20.9991  -28.3220   24.1403 H   0  0  0  0  0  0
  -20.5713  -26.2193   23.3596 H   0  0  0  0  0  0
  -21.6653  -26.7403   22.1193 H   0  0  0  0  0  0
  -19.6963  -25.6266   21.1216 H   0  0  0  0  0  0
  -19.6761  -27.3165   20.6750 H   0  0  0  0  0  0
  -17.4228  -26.6628   21.4005 H   0  0  0  0  0  0
  -18.0363  -26.0030   22.8995 H   0  0  0  0  0  0
  -19.7943  -30.7219   24.2250 H   0  0  0  0  0  0
  -17.5017  -31.6240   24.5130 H   0  0  0  0  0  0
  -15.5348  -30.2913   23.7665 H   0  0  0  0  0  0
  -15.8691  -28.0774   22.7029 H   0  0  0  0  0  0
  -24.5911  -30.7056   25.7670 H   0  0  0  0  0  0
  -24.8946  -32.2870   26.4771 H   0  0  0  0  0  0
  -25.8034  -30.8861   27.0157 H   0  0  0  0  0  0
  -26.3029  -29.6617   24.1233 H   0  0  0  0  0  0
  -27.4169  -29.7268   25.4690 H   0  0  0  0  0  0
  -27.8860  -30.4201   23.9382 H   0  0  0  0  0  0
  -27.2663  -33.3593   26.1994 H   0  0  0  0  0  0
  -28.3898  -32.6831   25.0292 H   0  0  0  0  0  0
  -28.0711  -31.8433   26.5390 H   0  0  0  0  0  0
  -28.2552  -38.0124   24.7490 H   0  0  0  0  0  0
  -28.1163  -36.2635   24.6305 H   0  0  0  0  0  0
  -27.2312  -37.1409   25.8869 H   0  0  0  0  0  0
  -20.9305  -29.8689   21.6912 H   0  0  0  0  0  0
  -26.0184  -38.2760   24.1384 H   0  0  0  0  0  0
  -31.7674  -21.1188   21.2714 H   0  0  0  0  0  0
  -32.3052  -16.9487   21.2309 H   0  0  0  0  0  0
  -28.4409  -18.6100   20.2012 H   0  0  0  0  0  0
  -29.1794  -22.2473   18.6313 H   0  0  0  0  0  0
  -27.5712  -21.6925   19.2290 H   0  0  0  0  0  0
  -26.9000  -22.6066   21.7139 H   0  0  0  0  0  0
  -26.2230  -23.7552   20.5894 H   0  0  0  0  0  0
  -27.1367  -24.3275   21.9659 H   0  0  0  0  0  0
  -31.0395  -24.3293   20.1587 H   0  0  0  0  0  0
  -31.2799  -22.7155   19.5348 H   0  0  0  0  0  0
  -31.8606  -23.1851   21.1287 H   0  0  0  0  0  0
  -29.9778  -23.9849   22.9034 H   0  0  0  0  0  0
  -30.5317  -22.3241   23.0169 H   0  0  0  0  0  0
  -28.8242  -22.6862   23.0877 H   0  0  0  0  0  0
  -35.4966  -19.5048   20.5873 H   0  0  0  0  0  0
  -34.1200  -20.1104   19.6735 H   0  0  0  0  0  0
  -34.4082  -18.3746   19.7879 H   0  0  0  0  0  0
  -33.9139  -18.4632   22.2608 H   0  0  0  0  0  0
  -33.6942  -20.1879   22.1590 H   0  0  0  0  0  0
  -27.7224  -24.9013   18.7683 H   0  0  0  0  0  0
  -29.3593  -25.0474   19.0766 H   0  0  0  0  0  0
  -28.8627  -15.9338   20.4560 H   0  0  0  0  0  0
  1 25  1  0  0  0
  1 30  2  0  0  0
  1 87  1  0  0  0
  2  3  1  0  0  0
  2 25  1  0  0  0
  2 88  1  0  0  0
  2 89  1  0  0  0
  3  4  1  0  0  0
  3 90  1  0  0  0
  3 91  1  0  0  0
  4  5  1  0  0  0
  4 92  1  0  0  0
  4 93  1  0  0  0
  5  6  1  0  0  0
  5 26  1  0  0  0
  5 94  1  0  0  0
  6 25  1  0  0  0
  6 95  1  0  0  0
  6 96  1  0  0  0
  7  8  2  0  0  0
  7 26  1  0  0  0
  7 29  1  0  0  0
  8  9  1  0  0  0
  8 22  1  0  0  0
  9 10  1  0  0  0
  9 27  2  0  0  0
 10 11  2  0  0  0
 10 15  1  0  0  0
 11 12  1  0  0  0
 11 97  1  0  0  0
 12 13  2  0  0  0
 12 98  1  0  0  0
 13 14  1  0  0  0
 13 31  1  0  0  0
 14 15  2  0  0  0
 14 99  1  0  0  0
 15100  1  0  0  0
 16 17  2  0  0  0
 16 21  1  0  0  0
 16 31  1  0  0  0
 17 18  1  0  0  0
 17101  1  0  0  0
 18 19  2  0  0  0
 18102  1  0  0  0
 19 20  1  0  0  0
 19 24  1  0  0  0
 20 21  2  0  0  0
 20103  1  0  0  0
 21 23  1  0  0  0
 22 28  1  0  0  0
 22 32  2  0  0  0
 26 27  1  0  0  0
 28104  1  0  0  0
 28105  1  0  0  0
 29106  1  0  0  0
 29107  1  0  0  0
 33 34  1  0  0  0
 33 66  1  0  0  0
 33 70  2  0  0  0
 34 36  1  0  0  0
 34 59  1  0  0  0
 34108  1  0  0  0
 35 44  2  0  0  0
 35 45  1  0  0  0
 35 68  1  0  0  0
 36 56  1  0  0  0
 36109  1  0  0  0
 37 39  1  0  0  0
 37 47  1  0  0  0
 37 66  1  0  0  0
 37110  1  0  0  0
 38 43  2  0  0  0
 38 46  1  0  0  0
 38 47  1  0  0  0
 39 64  1  0  0  0
 39 67  2  0  0  0
 40 52  1  0  0  0
 40 53  2  0  0  0
 40 58  1  0  0  0
 41111  1  0  0  0
 41112  1  0  0  0
 41113  1  0  0  0
 41 48  1  0  0  0
 42 43  1  0  0  0
 42 66  1  0  0  0
 42114  1  0  0  0
 42115  1  0  0  0
 43 44  1  0  0  0
 44116  1  0  0  0
 45 46  2  0  0  0
 45117  1  0  0  0
 46118  1  0  0  0
 47119  1  0  0  0
 47120  1  0  0  0
 48 56  1  0  0  0
 48 65  1  0  0  0
 48121  1  0  0  0
 49 50  1  0  0  0
 49 53  1  0  0  0
 49 64  1  0  0  0
 49122  1  0  0  0
 50 51  1  0  0  0
 50123  1  0  0  0
 50124  1  0  0  0
 51 52  1  0  0  0
 51125  1  0  0  0
 51126  1  0  0  0
 52127  1  0  0  0
 52128  1  0  0  0
 53 54  1  0  0  0
 54 55  2  0  0  0
 54129  1  0  0  0
 55 57  1  0  0  0
 55130  1  0  0  0
 56 69  2  0  0  0
 57 58  2  0  0  0
 57131  1  0  0  0
 58132  1  0  0  0
 59 60  1  0  0  0
 59 61  1  0  0  0
 59 62  1  0  0  0
 60133  1  0  0  0
 60134  1  0  0  0
 60135  1  0  0  0
 61136  1  0  0  0
 61137  1  0  0  0
 61138  1  0  0  0
 62139  1  0  0  0
 62140  1  0  0  0
 62141  1  0  0  0
 63 65  1  0  0  0
 63142  1  0  0  0
 63143  1  0  0  0
 63144  1  0  0  0
 64145  1  0  0  0
 65146  1  0  0  0
 68 85  1  0  0  0
 71 74  2  0  0  0
 71 75  1  0  0  0
 71147  1  0  0  0
 72 74  1  0  0  0
 72 76  2  0  0  0
 72148  1  0  0  0
 73 75  2  0  0  0
 73 76  1  0  0  0
 73149  1  0  0  0
 74 84  1  0  0  0
 75 86  1  0  0  0
 76 87  1  0  0  0
 77 78  1  0  0  0
 77 86  1  0  0  0
 77150  1  0  0  0
 77151  1  0  0  0
 78 79  1  0  0  0
 78 80  1  0  0  0
 78 85  1  0  0  0
 79 81  1  0  0  0
 79 82  1  0  0  0
 79 86  1  0  0  0
 80152  1  0  0  0
 80153  1  0  0  0
 80154  1  0  0  0
 81155  1  0  0  0
 81156  1  0  0  0
 81157  1  0  0  0
 82158  1  0  0  0
 82159  1  0  0  0
 82160  1  0  0  0
 83 84  1  0  0  0
 83161  1  0  0  0
 83162  1  0  0  0
 83163  1  0  0  0
 84164  1  0  0  0
 84165  1  0  0  0
 85166  1  0  0  0
 85167  1  0  0  0
 87168  1  0  0  0
M  ISO  4   1 100  68 101  85 101  87 100
M  END
> <chiral flag>
0

> <version>
0

> <s_m_source_file>
/data/baiqing/PycharmProjects/Reinvent-master-3.2/result/LINK_invent/BTK/process_docking_weight1_custom_product_contain_oxygen_bond_distance_aromatic_linkinvent_7_9_3/rearranged_h_0144.sdf

> <i_m_source_file_index>
36

> <r_mmod_Potential_Energy-OPLS-2005>
451.334320068359

> <r_mmod_Stretch_Energy-OPLS-2005>
188.391937255859

> <r_mmod_Bend_Energy-OPLS-2005>
286.144073486328

> <r_mmod_Torsional_Energy-OPLS-2005>
275.172912597656

> <r_mmod_Improper_Torsional_Energy-OPLS-2005>
12.221887588501

> <r_mmod_Van_der_Waal_Energy-OPLS-2005>
151.783142089844

> <r_mmod_Electrostatic_Energy-OPLS-2005>
-388.909606933594

> <r_mmod_Solvation_Energy-OPLS-2005>
-207.38102722168

> <b_mmod_Minimization_Converged-OPLS-2005>
0

> <r_mmod_RMS_Derivative-OPLS-2005>
4.82604742050171

$$$$
36
                    3D
 Structure written by MMmdl.
178187  0  0  1  0            999 V2000
  -30.7013  -14.4072   20.5677 C   0  0  0  0  0  0
  -30.4133  -12.2631   19.4189 C   0  0  0  0  0  0
  -29.4952  -12.5050   18.2038 C   0  0  0  0  0  0
  -28.0101  -12.3882   18.6007 C   0  0  0  0  0  0
  -27.6607  -13.2029   19.8755 C   0  0  2  0  0  0
  -28.6941  -12.9443   20.9937 C   0  0  0  0  0  0
  -25.2532  -13.8121   20.5551 C   0  0  0  0  0  0
  -24.1830  -13.0410   20.9147 C   0  0  0  0  0  0
  -24.6395  -11.6884   20.8736 C   0  0  0  0  0  0
  -23.9069  -10.4279   21.0410 C   0  0  0  0  0  0
  -24.3624   -9.4202   21.9185 C   0  0  0  0  0  0
  -23.6305   -8.2242   22.0757 C   0  0  0  0  0  0
  -22.4292   -8.0280   21.3544 C   0  0  0  0  0  0
  -21.9943   -9.0247   20.4627 C   0  0  0  0  0  0
  -22.7256  -10.2121   20.3044 C   0  0  0  0  0  0
  -21.6848   -6.0747   22.5293 C   0  0  0  0  0  0
  -21.4005   -6.5644   23.8223 C   0  0  0  0  0  0
  -21.3661   -5.6785   24.9179 C   0  0  0  0  0  0
  -21.6056   -4.3060   24.7222 C   0  0  0  0  0  0
  -21.8816   -3.8159   23.4342 C   0  0  0  0  0  0
  -21.9197   -4.6980   22.3397 C   0  0  0  0  0  0
  -22.7867  -13.5222   21.1846 C   0  0  0  0  0  0
  -22.1667   -4.2168   21.0972 F   0  0  0  0  0  0
  -21.5634   -3.4540   25.7737 F   0  0  0  0  0  0
  -30.0364  -13.2301   20.4565 N   0  0  0  0  0  0
  -26.3001  -12.9295   20.3322 N   0  0  0  0  0  0
  -25.9313  -11.6464   20.5742 N   0  0  0  0  0  0
  -22.0523  -12.8196   22.0375 N   0  0  0  0  0  0
  -25.4139  -15.1818   20.3772 N   0  0  0  0  0  0
  -31.8441  -14.5807   20.1321 O   0  0  0  0  0  0
  -21.6635   -6.8895   21.4246 O   0  0  0  0  0  0
  -22.3565  -14.5546   20.6724 O   0  0  0  0  0  0
  -24.6117  -31.8692   23.2159 C   0  0  0  0  0  0
  -25.9041  -32.4840   23.8434 C   0  0  1  0  0  0
  -27.2309  -27.4603   20.1073 C   0  0  0  0  0  0
  -25.5938  -33.8653   24.2369 N   0  0  0  0  0  0
  -23.3978  -30.4939   21.5555 C   0  0  2  0  0  0
  -24.8456  -28.9667   20.1193 C   0  0  0  0  0  0
  -22.7383  -29.4648   22.5023 C   0  0  0  0  0  0
  -18.0268  -28.1374   22.8502 C   0  0  0  0  0  0
  -24.1495  -36.7294   23.2640 C   0  0  0  0  0  0
  -25.9242  -30.8415   21.3724 C   0  0  0  0  0  0
  -26.0025  -29.4790   20.7218 C   0  0  0  0  0  0
  -27.1989  -28.7308   20.7188 C   0  0  0  0  0  0
  -26.0703  -26.9760   19.4689 C   0  0  0  0  0  0
  -24.8728  -27.7110   19.4922 C   0  0  0  0  0  0
  -23.6062  -29.8291   20.1692 C   0  0  0  0  0  0
  -25.4128  -36.3138   24.0340 C   0  0  1  0  0  0
  -20.5843  -28.3654   23.1337 C   0  0  2  0  0  0
  -20.6754  -26.9399   22.5428 C   0  0  0  0  0  0
  -19.5728  -26.6363   21.5234 C   0  0  0  0  0  0
  -18.1902  -26.7919   22.1629 C   0  0  0  0  0  0
  -19.1517  -28.8842   23.2899 C   0  0  0  0  0  0
  -18.9448  -30.1459   23.8885 C   0  0  0  0  0  0
  -17.6448  -30.6597   24.0565 C   0  0  0  0  0  0
  -25.9056  -34.9497   23.5142 C   0  0  0  0  0  0
  -16.5348  -29.9089   23.6346 C   0  0  0  0  0  0
  -16.7255  -28.6501   23.0357 C   0  0  0  0  0  0
  -26.4469  -31.6604   25.0760 C   0  0  0  0  0  0
  -25.3720  -31.3712   26.1493 C   0  0  0  0  0  0
  -27.0328  -30.3053   24.6130 C   0  0  0  0  0  0
  -27.6009  -32.4350   25.7564 C   0  0  0  0  0  0
  -27.5606  -37.1810   24.8466 C   0  0  0  0  0  0
  -21.4116  -29.3018   22.3764 N   0  0  0  0  0  0
  -26.4305  -37.3827   23.9435 N   0  0  0  0  0  0
  -24.6617  -31.0820   22.1054 N   0  0  0  0  0  0
  -23.4176  -28.8196   23.3056 O   0  0  0  0  0  0
  -28.3918  -26.7195   20.0837 O   0  0  0  0  0  0
  -26.5584  -34.8922   22.4683 O   0  0  0  0  0  0
  -23.5319  -32.1426   23.7584 O   0  0  0  0  0  0
  -30.6114  -17.1909   19.4525 C   0  0  0  0  0  0
  -30.3666  -18.4355   18.8610 C   0  0  0  0  0  0
  -28.7848  -17.5630   21.0512 C   0  0  0  0  0  0
  -29.8168  -16.7275   20.5322 C   0  0  0  0  0  0
  -28.5433  -18.8238   20.4357 C   0  0  0  0  0  0
  -29.3267  -19.2428   19.3326 C   0  0  0  0  0  0
  -27.1569  -23.7940   19.8875 C   0  0  0  0  0  0
  -27.5356  -20.9516   21.1157 C   0  0  0  0  0  0
  -27.6978  -17.9618   23.4400 C   0  0  0  0  0  0
  -28.5710  -16.7370   23.5504 C   0  0  0  0  0  0
  -27.9423  -17.0985   22.2201 C   0  0  0  0  0  0
  -25.9391  -21.9660   18.6105 C   0  0  0  0  0  0
  -24.6627  -23.4578   20.1393 C   0  0  0  0  0  0
  -28.6579  -26.3846   22.4818 C   0  0  0  0  0  0
  -29.9417  -25.0595   20.8231 C   0  0  0  0  0  0
  -27.4191  -24.6487   21.1432 C   0  0  0  0  0  0
  -26.2147  -21.7344   21.1379 C   0  0  0  0  0  0
  -26.0177  -22.7361   19.9554 C   0  0  0  0  0  0
  -28.5673  -25.7067   21.0982 C   0  0  0  0  0  0
  -27.4575  -19.6411   20.8461 N   0  0  0  0  0  0
  -29.9658  -15.4114   21.0694 N   0  0  0  0  0  0
  -27.7738  -23.9866   18.8355 O   0  0  0  0  0  0
  -28.5947  -21.5181   21.3955 O   0  0  0  0  0  0
  -29.0680  -20.4048   18.6893 F   0  0  0  0  0  0
  -31.4616  -12.3439   19.1263 H   0  0  0  0  0  0
  -30.2873  -11.2479   19.7967 H   0  0  0  0  0  0
  -29.7236  -11.7918   17.4109 H   0  0  0  0  0  0
  -29.6862  -13.4951   17.7871 H   0  0  0  0  0  0
  -27.7903  -11.3313   18.7603 H   0  0  0  0  0  0
  -27.3801  -12.7056   17.7692 H   0  0  0  0  0  0
  -27.7151  -14.2587   19.6076 H   0  0  0  0  0  0
  -28.6432  -11.9024   21.3164 H   0  0  0  0  0  0
  -28.4609  -13.5315   21.8827 H   0  0  0  0  0  0
  -25.2764   -9.5677   22.4756 H   0  0  0  0  0  0
  -24.0016   -7.4628   22.7479 H   0  0  0  0  0  0
  -21.0891   -8.8762   19.8907 H   0  0  0  0  0  0
  -22.3749  -10.9663   19.6146 H   0  0  0  0  0  0
  -21.1980   -7.6146   23.9732 H   0  0  0  0  0  0
  -21.1491   -6.0515   25.9077 H   0  0  0  0  0  0
  -22.0597   -2.7629   23.2835 H   0  0  0  0  0  0
  -22.4164  -11.9834   22.4709 H   0  0  0  0  0  0
  -21.1133  -13.1191   22.2582 H   0  0  0  0  0  0
  -24.6240  -15.8145   20.4345 H   0  0  0  0  0  0
  -26.2369  -15.6138   19.9806 H   0  0  0  0  0  0
  -26.7146  -32.5562   23.1224 H   0  0  0  0  0  0
  -25.0200  -33.9849   25.0595 H   0  0  0  0  0  0
  -22.6854  -31.3099   21.4188 H   0  0  0  0  0  0
  -23.3812  -35.9572   23.3278 H   0  0  0  0  0  0
  -24.3586  -36.8931   22.2066 H   0  0  0  0  0  0
  -23.7162  -37.6446   23.6663 H   0  0  0  0  0  0
  -26.0419  -31.6120   20.6087 H   0  0  0  0  0  0
  -26.8092  -30.8904   21.9939 H   0  0  0  0  0  0
  -28.0917  -29.1198   21.1877 H   0  0  0  0  0  0
  -26.0872  -26.0370   18.9417 H   0  0  0  0  0  0
  -23.9892  -27.3154   19.0115 H   0  0  0  0  0  0
  -23.7139  -30.6038   19.4089 H   0  0  0  0  0  0
  -22.7314  -29.2486   19.8701 H   0  0  0  0  0  0
  -25.1288  -36.2015   25.0825 H   0  0  0  0  0  0
  -20.9929  -28.3212   24.1453 H   0  0  0  0  0  0
  -20.5724  -26.2242   23.3598 H   0  0  0  0  0  0
  -21.6615  -26.7457   22.1196 H   0  0  0  0  0  0
  -19.6894  -25.6270   21.1264 H   0  0  0  0  0  0
  -19.6677  -27.3170   20.6766 H   0  0  0  0  0  0
  -17.4174  -26.6710   21.4012 H   0  0  0  0  0  0
  -18.0272  -26.0061   22.9022 H   0  0  0  0  0  0
  -19.7936  -30.7302   24.2201 H   0  0  0  0  0  0
  -17.5007  -31.6272   24.5182 H   0  0  0  0  0  0
  -15.5353  -30.2995   23.7664 H   0  0  0  0  0  0
  -15.8646  -28.0838   22.7055 H   0  0  0  0  0  0
  -24.5848  -30.7126   25.7793 H   0  0  0  0  0  0
  -24.8979  -32.2895   26.4979 H   0  0  0  0  0  0
  -25.8043  -30.8805   27.0222 H   0  0  0  0  0  0
  -26.2903  -29.6835   24.1105 H   0  0  0  0  0  0
  -27.4030  -29.7252   25.4591 H   0  0  0  0  0  0
  -27.8759  -30.4383   23.9344 H   0  0  0  0  0  0
  -27.2564  -33.3605   26.2189 H   0  0  0  0  0  0
  -28.3825  -32.6993   25.0434 H   0  0  0  0  0  0
  -28.0670  -31.8450   26.5457 H   0  0  0  0  0  0
  -28.2575  -38.0163   24.7627 H   0  0  0  0  0  0
  -28.1156  -36.2693   24.6182 H   0  0  0  0  0  0
  -27.2307  -37.1332   25.8858 H   0  0  0  0  0  0
  -20.9292  -29.8756   21.6986 H   0  0  0  0  0  0
  -26.0194  -38.2887   24.1497 H   0  0  0  0  0  0
  -31.4078  -16.6048   19.0219 H   0  0  0  0  0  0
  -30.9543  -18.7592   18.0156 H   0  0  0  0  0  0
  -28.1900  -18.9303   23.4943 H   0  0  0  0  0  0
  -26.7118  -17.9140   23.8978 H   0  0  0  0  0  0
  -28.1595  -15.8919   24.1003 H   0  0  0  0  0  0
  -29.6418  -16.8909   23.6701 H   0  0  0  0  0  0
  -27.1247  -16.4718   21.8776 H   0  0  0  0  0  0
  -25.6714  -22.6287   17.7872 H   0  0  0  0  0  0
  -25.1952  -21.1703   18.6447 H   0  0  0  0  0  0
  -26.8910  -21.5080   18.3425 H   0  0  0  0  0  0
  -24.5153  -24.2513   19.4047 H   0  0  0  0  0  0
  -24.5631  -23.9028   21.1287 H   0  0  0  0  0  0
  -23.8342  -22.7585   20.0245 H   0  0  0  0  0  0
  -28.9135  -25.6599   23.2553 H   0  0  0  0  0  0
  -27.7131  -26.8428   22.7775 H   0  0  0  0  0  0
  -29.4297  -27.1563   22.4983 H   0  0  0  0  0  0
  -30.1652  -24.2777   21.5518 H   0  0  0  0  0  0
  -30.7441  -25.7976   20.8768 H   0  0  0  0  0  0
  -29.9990  -24.5988   19.8387 H   0  0  0  0  0  0
  -27.6294  -23.9579   21.9573 H   0  0  0  0  0  0
  -26.4835  -25.1341   21.4156 H   0  0  0  0  0  0
  -26.1485  -22.2544   22.0928 H   0  0  0  0  0  0
  -25.3864  -21.0239   21.1506 H   0  0  0  0  0  0
  -26.5444  -19.2105   20.8568 H   0  0  0  0  0  0
  -29.1795  -15.0966   21.6154 H   0  0  0  0  0  0
  1 25  1  0  0  0
  1 30  2  0  0  0
  1 91  1  0  0  0
  2  3  1  0  0  0
  2 25  1  0  0  0
  2 95  1  0  0  0
  2 96  1  0  0  0
  3  4  1  0  0  0
  3 97  1  0  0  0
  3 98  1  0  0  0
  4  5  1  0  0  0
  4 99  1  0  0  0
  4100  1  0  0  0
  5  6  1  0  0  0
  5 26  1  0  0  0
  5101  1  0  0  0
  6 25  1  0  0  0
  6102  1  0  0  0
  6103  1  0  0  0
  7  8  2  0  0  0
  7 26  1  0  0  0
  7 29  1  0  0  0
  8  9  1  0  0  0
  8 22  1  0  0  0
  9 10  1  0  0  0
  9 27  2  0  0  0
 10 11  2  0  0  0
 10 15  1  0  0  0
 11 12  1  0  0  0
 11104  1  0  0  0
 12 13  2  0  0  0
 12105  1  0  0  0
 13 14  1  0  0  0
 13 31  1  0  0  0
 14 15  2  0  0  0
 14106  1  0  0  0
 15107  1  0  0  0
 16 17  2  0  0  0
 16 21  1  0  0  0
 16 31  1  0  0  0
 17 18  1  0  0  0
 17108  1  0  0  0
 18 19  2  0  0  0
 18109  1  0  0  0
 19 20  1  0  0  0
 19 24  1  0  0  0
 20 21  2  0  0  0
 20110  1  0  0  0
 21 23  1  0  0  0
 22 28  1  0  0  0
 22 32  2  0  0  0
 26 27  1  0  0  0
 28111  1  0  0  0
 28112  1  0  0  0
 29113  1  0  0  0
 29114  1  0  0  0
 33 34  1  0  0  0
 33 66  1  0  0  0
 33 70  2  0  0  0
 34 36  1  0  0  0
 34 59  1  0  0  0
 34115  1  0  0  0
 35 44  2  0  0  0
 35 45  1  0  0  0
 35 68  1  0  0  0
 36 56  1  0  0  0
 36116  1  0  0  0
 37 39  1  0  0  0
 37 47  1  0  0  0
 37 66  1  0  0  0
 37117  1  0  0  0
 38 43  2  0  0  0
 38 46  1  0  0  0
 38 47  1  0  0  0
 39 64  1  0  0  0
 39 67  2  0  0  0
 40 52  1  0  0  0
 40 53  2  0  0  0
 40 58  1  0  0  0
 41118  1  0  0  0
 41119  1  0  0  0
 41120  1  0  0  0
 41 48  1  0  0  0
 42 43  1  0  0  0
 42 66  1  0  0  0
 42121  1  0  0  0
 42122  1  0  0  0
 43 44  1  0  0  0
 44123  1  0  0  0
 45 46  2  0  0  0
 45124  1  0  0  0
 46125  1  0  0  0
 47126  1  0  0  0
 47127  1  0  0  0
 48 56  1  0  0  0
 48 65  1  0  0  0
 48128  1  0  0  0
 49 50  1  0  0  0
 49 53  1  0  0  0
 49 64  1  0  0  0
 49129  1  0  0  0
 50 51  1  0  0  0
 50130  1  0  0  0
 50131  1  0  0  0
 51 52  1  0  0  0
 51132  1  0  0  0
 51133  1  0  0  0
 52134  1  0  0  0
 52135  1  0  0  0
 53 54  1  0  0  0
 54 55  2  0  0  0
 54136  1  0  0  0
 55 57  1  0  0  0
 55137  1  0  0  0
 56 69  2  0  0  0
 57 58  2  0  0  0
 57138  1  0  0  0
 58139  1  0  0  0
 59 60  1  0  0  0
 59 61  1  0  0  0
 59 62  1  0  0  0
 60140  1  0  0  0
 60141  1  0  0  0
 60142  1  0  0  0
 61143  1  0  0  0
 61144  1  0  0  0
 61145  1  0  0  0
 62146  1  0  0  0
 62147  1  0  0  0
 62148  1  0  0  0
 63 65  1  0  0  0
 63149  1  0  0  0
 63150  1  0  0  0
 63151  1  0  0  0
 64152  1  0  0  0
 65153  1  0  0  0
 68 89  1  0  0  0
 71 72  2  0  0  0
 71 74  1  0  0  0
 71154  1  0  0  0
 72 76  1  0  0  0
 72155  1  0  0  0
 73 74  2  0  0  0
 73 75  1  0  0  0
 73 81  1  0  0  0
 74 91  1  0  0  0
 75 76  2  0  0  0
 75 90  1  0  0  0
 76 94  1  0  0  0
 77 86  1  0  0  0
 77 88  1  0  0  0
 77 92  2  0  0  0
 78 87  1  0  0  0
 78 90  1  0  0  0
 78 93  2  0  0  0
 79 80  1  0  0  0
 79 81  1  0  0  0
 79156  1  0  0  0
 79157  1  0  0  0
 80 81  1  0  0  0
 80158  1  0  0  0
 80159  1  0  0  0
 81160  1  0  0  0
 82161  1  0  0  0
 82162  1  0  0  0
 82163  1  0  0  0
 82 88  1  0  0  0
 83 88  1  0  0  0
 83164  1  0  0  0
 83165  1  0  0  0
 83166  1  0  0  0
 84167  1  0  0  0
 84168  1  0  0  0
 84169  1  0  0  0
 84 89  1  0  0  0
 85 89  1  0  0  0
 85170  1  0  0  0
 85171  1  0  0  0
 85172  1  0  0  0
 86 89  1  0  0  0
 86173  1  0  0  0
 86174  1  0  0  0
 87 88  1  0  0  0
 87175  1  0  0  0
 87176  1  0  0  0
 90177  1  0  0  0
 91178  1  0  0  0
M  ISO  4   1 100  68 101  89 101  91 100
M  END
> <chiral flag>
0

> <version>
0

> <s_m_source_file>
/data/baiqing/PycharmProjects/Reinvent-master-3.2/result/LINK_invent/BTK/process_docking_weight1_custom_product_contain_oxygen_bond_distance_aromatic_linkinvent_7_9_3/rearranged_h_0144.sdf

> <i_m_source_file_index>
37

> <r_mmod_Potential_Energy-OPLS-2005>
-45.2262306213379

> <r_mmod_Stretch_Energy-OPLS-2005>
41.5083808898926

> <r_mmod_Bend_Energy-OPLS-2005>
108.406227111816

> <r_mmod_Torsional_Energy-OPLS-2005>
298.756500244141

> <r_mmod_Improper_Torsional_Energy-OPLS-2005>
6.69414615631104

> <r_mmod_Van_der_Waal_Energy-OPLS-2005>
163.472885131836

> <r_mmod_Electrostatic_Energy-OPLS-2005>
-437.481811523438

> <r_mmod_Solvation_Energy-OPLS-2005>
-236.954360961914

> <b_mmod_Minimization_Converged-OPLS-2005>
0

> <r_mmod_RMS_Derivative-OPLS-2005>
2.99139666557312

$$$$
37
                    3D
 Structure written by MMmdl.
161170  0  0  1  0            999 V2000
  -30.6931  -14.4967   20.5366 C   0  0  0  0  0  0
  -30.4219  -12.3114   19.4335 C   0  0  0  0  0  0
  -29.4964  -12.5056   18.2144 C   0  0  0  0  0  0
  -28.0175  -12.3664   18.6269 C   0  0  0  0  0  0
  -27.6606  -13.2137   19.8780 C   0  0  2  0  0  0
  -28.7037  -13.0096   21.0014 C   0  0  0  0  0  0
  -25.2569  -13.8188   20.5709 C   0  0  0  0  0  0
  -24.1821  -13.0440   20.9152 C   0  0  0  0  0  0
  -24.6398  -11.6916   20.8722 C   0  0  0  0  0  0
  -23.9081  -10.4294   21.0395 C   0  0  0  0  0  0
  -24.3638   -9.4209   21.9173 C   0  0  0  0  0  0
  -23.6311   -8.2247   22.0753 C   0  0  0  0  0  0
  -22.4292   -8.0288   21.3544 C   0  0  0  0  0  0
  -21.9926   -9.0257   20.4642 C   0  0  0  0  0  0
  -22.7257  -10.2133   20.3044 C   0  0  0  0  0  0
  -21.6858   -6.0743   22.5281 C   0  0  0  0  0  0
  -21.4017   -6.5647   23.8211 C   0  0  0  0  0  0
  -21.3670   -5.6799   24.9173 C   0  0  0  0  0  0
  -21.6050   -4.3060   24.7220 C   0  0  0  0  0  0
  -21.8816   -3.8147   23.4341 C   0  0  0  0  0  0
  -21.9194   -4.6970   22.3399 C   0  0  0  0  0  0
  -22.7841  -13.5224   21.1842 C   0  0  0  0  0  0
  -22.1660   -4.2157   21.0976 F   0  0  0  0  0  0
  -21.5635   -3.4535   25.7726 F   0  0  0  0  0  0
  -30.0349  -13.3074   20.4461 N   0  0  0  0  0  0
  -26.3023  -12.9375   20.3409 N   0  0  0  0  0  0
  -25.9334  -11.6525   20.5784 N   0  0  0  0  0  0
  -22.0509  -12.8183   22.0400 N   0  0  0  0  0  0
  -25.4260  -15.1915   20.4228 N   0  0  0  0  0  0
  -31.8378  -14.6470   20.1029 O   0  0  0  0  0  0
  -21.6647   -6.8891   21.4244 O   0  0  0  0  0  0
  -22.3507  -14.5530   20.6714 O   0  0  0  0  0  0
  -24.6149  -31.8670   23.2088 C   0  0  0  0  0  0
  -25.9038  -32.4817   23.8386 C   0  0  1  0  0  0
  -27.2369  -27.4295   20.0849 C   0  0  0  0  0  0
  -25.5888  -33.8619   24.2313 N   0  0  0  0  0  0
  -23.4032  -30.4907   21.5501 C   0  0  2  0  0  0
  -24.8493  -28.9555   20.1124 C   0  0  0  0  0  0
  -22.7410  -29.4654   22.4988 C   0  0  0  0  0  0
  -18.0269  -28.1379   22.8498 C   0  0  0  0  0  0
  -24.1488  -36.7322   23.2638 C   0  0  0  0  0  0
  -25.9328  -30.8299   21.3622 C   0  0  0  0  0  0
  -26.0102  -29.4645   20.7079 C   0  0  0  0  0  0
  -27.2051  -28.7072   20.6938 C   0  0  0  0  0  0
  -26.0500  -26.9294   19.5010 C   0  0  0  0  0  0
  -24.8641  -27.6873   19.5071 C   0  0  0  0  0  0
  -23.6116  -29.8222   20.1645 C   0  0  0  0  0  0
  -25.4109  -36.3117   24.0336 C   0  0  1  0  0  0
  -20.5862  -28.3669   23.1322 C   0  0  2  0  0  0
  -20.6759  -26.9404   22.5426 C   0  0  0  0  0  0
  -19.5738  -26.6386   21.5222 C   0  0  0  0  0  0
  -18.1916  -26.7923   22.1627 C   0  0  0  0  0  0
  -19.1519  -28.8840   23.2904 C   0  0  0  0  0  0
  -18.9448  -30.1447   23.8911 C   0  0  0  0  0  0
  -17.6451  -30.6585   24.0572 C   0  0  0  0  0  0
  -25.9035  -34.9479   23.5124 C   0  0  0  0  0  0
  -16.5343  -29.9093   23.6322 C   0  0  0  0  0  0
  -16.7260  -28.6508   23.0347 C   0  0  0  0  0  0
  -26.4466  -31.6592   25.0715 C   0  0  0  0  0  0
  -25.3729  -31.3693   26.1460 C   0  0  0  0  0  0
  -27.0302  -30.3039   24.6087 C   0  0  0  0  0  0
  -27.6030  -32.4321   25.7481 C   0  0  0  0  0  0
  -27.5589  -37.1812   24.8458 C   0  0  0  0  0  0
  -21.4138  -29.3036   22.3726 N   0  0  0  0  0  0
  -26.4296  -37.3804   23.9410 N   0  0  0  0  0  0
  -24.6689  -31.0769   22.0989 N   0  0  0  0  0  0
  -23.4181  -28.8198   23.3031 O   0  0  0  0  0  0
  -28.3985  -26.6774   20.1260 O   0  0  0  0  0  0
  -26.5609  -34.8930   22.4694 O   0  0  0  0  0  0
  -23.5340  -32.1427   23.7479 O   0  0  0  0  0  0
  -31.0422  -18.8670   19.5356 C   0  0  0  0  0  0
  -31.1357  -17.5489   20.0384 C   0  0  0  0  0  0
  -28.7117  -18.9741   20.2085 C   0  0  0  0  0  0
  -29.8235  -19.5835   19.5861 C   0  0  0  0  0  0
  -29.9980  -16.9016   20.5845 C   0  0  0  0  0  0
  -28.8002  -17.6468   20.6917 C   0  0  0  0  0  0
  -28.8315  -24.4031   19.5224 C   0  0  0  0  0  0
  -29.6984  -20.8570   18.8462 C   0  0  0  0  0  0
  -28.6361  -25.7006   19.1811 C   0  0  0  0  0  0
  -28.7783  -23.8303   20.9212 C   0  0  0  0  0  0
  -29.1468  -23.2865   18.5447 C   0  0  0  0  0  0
  -28.9891  -22.3081   20.7796 C   0  0  0  0  0  0
  -28.7294  -26.2371   17.7616 C   0  0  0  0  0  0
  -29.2917  -22.0512   19.3576 N   0  0  0  0  0  0
  -29.9615  -15.5292   21.0055 N   0  0  0  0  0  0
  -30.0161  -20.8126   17.5538 N   0  3  0  0  0  0
  -27.7018  -17.0531   21.2176 F   0  0  0  0  0  0
  -31.4674  -12.4032   19.1324 H   0  0  0  0  0  0
  -30.3153  -11.3033   19.8375 H   0  0  0  0  0  0
  -29.7358  -11.7788   17.4369 H   0  0  0  0  0  0
  -29.6651  -13.4906   17.7750 H   0  0  0  0  0  0
  -27.8293  -11.3113   18.8293 H   0  0  0  0  0  0
  -27.3664  -12.6347   17.7946 H   0  0  0  0  0  0
  -27.6974  -14.2597   19.5718 H   0  0  0  0  0  0
  -28.6795  -11.9794   21.3595 H   0  0  0  0  0  0
  -28.4683  -13.6251   21.8719 H   0  0  0  0  0  0
  -25.2801   -9.5681   22.4723 H   0  0  0  0  0  0
  -24.0026   -7.4642   22.7475 H   0  0  0  0  0  0
  -21.0856   -8.8778   19.8947 H   0  0  0  0  0  0
  -22.3730  -10.9663   19.6136 H   0  0  0  0  0  0
  -21.2010   -7.6157   23.9709 H   0  0  0  0  0  0
  -21.1502   -6.0532   25.9076 H   0  0  0  0  0  0
  -22.0587   -2.7608   23.2827 H   0  0  0  0  0  0
  -22.4169  -11.9844   22.4747 H   0  0  0  0  0  0
  -21.1125  -13.1160   22.2651 H   0  0  0  0  0  0
  -24.6642  -15.8440   20.5697 H   0  0  0  0  0  0
  -26.3135  -15.6540   20.2640 H   0  0  0  0  0  0
  -26.7108  -32.5532   23.1147 H   0  0  0  0  0  0
  -25.0018  -33.9778   25.0445 H   0  0  0  0  0  0
  -22.6912  -31.3074   21.4107 H   0  0  0  0  0  0
  -23.3758  -35.9645   23.3283 H   0  0  0  0  0  0
  -24.3583  -36.8963   22.2055 H   0  0  0  0  0  0
  -23.7231  -37.6515   23.6669 H   0  0  0  0  0  0
  -26.0440  -31.5962   20.5940 H   0  0  0  0  0  0
  -26.8210  -30.8841   21.9804 H   0  0  0  0  0  0
  -28.1017  -29.0924   21.1589 H   0  0  0  0  0  0
  -26.0294  -25.9483   19.0478 H   0  0  0  0  0  0
  -23.9695  -27.2870   19.0516 H   0  0  0  0  0  0
  -23.7163  -30.5968   19.4037 H   0  0  0  0  0  0
  -22.7352  -29.2411   19.8710 H   0  0  0  0  0  0
  -25.1285  -36.1980   25.0829 H   0  0  0  0  0  0
  -20.9953  -28.3245   24.1444 H   0  0  0  0  0  0
  -20.5667  -26.2278   23.3618 H   0  0  0  0  0  0
  -21.6632  -26.7446   22.1221 H   0  0  0  0  0  0
  -19.6901  -25.6307   21.1233 H   0  0  0  0  0  0
  -19.6675  -27.3214   20.6763 H   0  0  0  0  0  0
  -17.4193  -26.6690   21.4022 H   0  0  0  0  0  0
  -18.0300  -26.0059   22.9012 H   0  0  0  0  0  0
  -19.7929  -30.7261   24.2282 H   0  0  0  0  0  0
  -17.5011  -31.6263   24.5180 H   0  0  0  0  0  0
  -15.5344  -30.3001   23.7634 H   0  0  0  0  0  0
  -15.8661  -28.0834   22.7045 H   0  0  0  0  0  0
  -24.5905  -30.7036   25.7797 H   0  0  0  0  0  0
  -24.8914  -32.2844   26.4911 H   0  0  0  0  0  0
  -25.8086  -30.8860   27.0211 H   0  0  0  0  0  0
  -26.2852  -29.6799   24.1136 H   0  0  0  0  0  0
  -27.4076  -29.7271   25.4539 H   0  0  0  0  0  0
  -27.8679  -30.4363   23.9234 H   0  0  0  0  0  0
  -27.2633  -33.3605   26.2078 H   0  0  0  0  0  0
  -28.3821  -32.6905   25.0299 H   0  0  0  0  0  0
  -28.0712  -31.8435   26.5377 H   0  0  0  0  0  0
  -28.2590  -38.0130   24.7542 H   0  0  0  0  0  0
  -28.1107  -36.2662   24.6242 H   0  0  0  0  0  0
  -27.2309  -37.1409   25.8861 H   0  0  0  0  0  0
  -20.9296  -29.8771   21.6961 H   0  0  0  0  0  0
  -26.0189  -38.2879   24.1430 H   0  0  0  0  0  0
  -31.9089  -19.3157   19.0680 H   0  0  0  0  0  0
  -32.0845  -17.0414   19.9565 H   0  0  0  0  0  0
  -27.7616  -19.4856   20.2460 H   0  0  0  0  0  0
  -27.8188  -24.0578   21.3866 H   0  0  0  0  0  0
  -29.5633  -24.2773   21.5319 H   0  0  0  0  0  0
  -30.0690  -23.5202   18.0101 H   0  0  0  0  0  0
  -28.3375  -23.1879   17.8195 H   0  0  0  0  0  0
  -28.0874  -21.7700   21.0756 H   0  0  0  0  0  0
  -29.8039  -21.9651   21.4205 H   0  0  0  0  0  0
  -27.8553  -25.9363   17.1839 H   0  0  0  0  0  0
  -29.6202  -25.8584   17.2610 H   0  0  0  0  0  0
  -28.7863  -27.3259   17.7539 H   0  0  0  0  0  0
  -29.0788  -15.2586   21.4102 H   0  0  0  0  0  0
  -30.2742  -19.9251   17.1480 H   0  0  0  0  0  0
  -29.9702  -21.6183   16.9553 H   0  0  0  0  0  0
  1 25  1  0  0  0
  1 30  2  0  0  0
  1 85  1  0  0  0
  2  3  1  0  0  0
  2 25  1  0  0  0
  2 88  1  0  0  0
  2 89  1  0  0  0
  3  4  1  0  0  0
  3 90  1  0  0  0
  3 91  1  0  0  0
  4  5  1  0  0  0
  4 92  1  0  0  0
  4 93  1  0  0  0
  5  6  1  0  0  0
  5 26  1  0  0  0
  5 94  1  0  0  0
  6 25  1  0  0  0
  6 95  1  0  0  0
  6 96  1  0  0  0
  7  8  2  0  0  0
  7 26  1  0  0  0
  7 29  1  0  0  0
  8  9  1  0  0  0
  8 22  1  0  0  0
  9 10  1  0  0  0
  9 27  2  0  0  0
 10 11  2  0  0  0
 10 15  1  0  0  0
 11 12  1  0  0  0
 11 97  1  0  0  0
 12 13  2  0  0  0
 12 98  1  0  0  0
 13 14  1  0  0  0
 13 31  1  0  0  0
 14 15  2  0  0  0
 14 99  1  0  0  0
 15100  1  0  0  0
 16 17  2  0  0  0
 16 21  1  0  0  0
 16 31  1  0  0  0
 17 18  1  0  0  0
 17101  1  0  0  0
 18 19  2  0  0  0
 18102  1  0  0  0
 19 20  1  0  0  0
 19 24  1  0  0  0
 20 21  2  0  0  0
 20103  1  0  0  0
 21 23  1  0  0  0
 22 28  1  0  0  0
 22 32  2  0  0  0
 26 27  1  0  0  0
 28104  1  0  0  0
 28105  1  0  0  0
 29106  1  0  0  0
 29107  1  0  0  0
 33 34  1  0  0  0
 33 66  1  0  0  0
 33 70  2  0  0  0
 34 36  1  0  0  0
 34 59  1  0  0  0
 34108  1  0  0  0
 35 44  2  0  0  0
 35 45  1  0  0  0
 35 68  1  0  0  0
 36 56  1  0  0  0
 36109  1  0  0  0
 37 39  1  0  0  0
 37 47  1  0  0  0
 37 66  1  0  0  0
 37110  1  0  0  0
 38 43  2  0  0  0
 38 46  1  0  0  0
 38 47  1  0  0  0
 39 64  1  0  0  0
 39 67  2  0  0  0
 40 52  1  0  0  0
 40 53  2  0  0  0
 40 58  1  0  0  0
 41111  1  0  0  0
 41112  1  0  0  0
 41113  1  0  0  0
 41 48  1  0  0  0
 42 43  1  0  0  0
 42 66  1  0  0  0
 42114  1  0  0  0
 42115  1  0  0  0
 43 44  1  0  0  0
 44116  1  0  0  0
 45 46  2  0  0  0
 45117  1  0  0  0
 46118  1  0  0  0
 47119  1  0  0  0
 47120  1  0  0  0
 48 56  1  0  0  0
 48 65  1  0  0  0
 48121  1  0  0  0
 49 50  1  0  0  0
 49 53  1  0  0  0
 49 64  1  0  0  0
 49122  1  0  0  0
 50 51  1  0  0  0
 50123  1  0  0  0
 50124  1  0  0  0
 51 52  1  0  0  0
 51125  1  0  0  0
 51126  1  0  0  0
 52127  1  0  0  0
 52128  1  0  0  0
 53 54  1  0  0  0
 54 55  2  0  0  0
 54129  1  0  0  0
 55 57  1  0  0  0
 55130  1  0  0  0
 56 69  2  0  0  0
 57 58  2  0  0  0
 57131  1  0  0  0
 58132  1  0  0  0
 59 60  1  0  0  0
 59 61  1  0  0  0
 59 62  1  0  0  0
 60133  1  0  0  0
 60134  1  0  0  0
 60135  1  0  0  0
 61136  1  0  0  0
 61137  1  0  0  0
 61138  1  0  0  0
 62139  1  0  0  0
 62140  1  0  0  0
 62141  1  0  0  0
 63 65  1  0  0  0
 63142  1  0  0  0
 63143  1  0  0  0
 63144  1  0  0  0
 64145  1  0  0  0
 65146  1  0  0  0
 68 79  1  0  0  0
 71 72  2  0  0  0
 71 74  1  0  0  0
 71147  1  0  0  0
 72 75  1  0  0  0
 72148  1  0  0  0
 73 74  2  0  0  0
 73 76  1  0  0  0
 73149  1  0  0  0
 74 78  1  0  0  0
 75 76  2  0  0  0
 75 85  1  0  0  0
 76 87  1  0  0  0
 77 79  2  0  0  0
 77 80  1  0  0  0
 77 81  1  0  0  0
 78 84  1  0  0  0
 78 86  2  0  0  0
 79 83  1  0  0  0
 80 82  1  0  0  0
 80150  1  0  0  0
 80151  1  0  0  0
 81 84  1  0  0  0
 81152  1  0  0  0
 81153  1  0  0  0
 82 84  1  0  0  0
 82154  1  0  0  0
 82155  1  0  0  0
 83156  1  0  0  0
 83157  1  0  0  0
 83158  1  0  0  0
 85159  1  0  0  0
 86160  1  0  0  0
 86161  1  0  0  0
M  CHG  1  86   1
M  ISO  4   1 100  68 101  79 101  85 100
M  END
> <chiral flag>
0

> <version>
0

> <s_m_source_file>
/data/baiqing/PycharmProjects/Reinvent-master-3.2/result/LINK_invent/BTK/process_docking_weight1_custom_product_contain_oxygen_bond_distance_aromatic_linkinvent_7_9_3/rearranged_h_0144.sdf

> <i_m_source_file_index>
38

> <r_mmod_Potential_Energy-OPLS-2005>
-248.214050292969

> <r_mmod_Stretch_Energy-OPLS-2005>
39.997917175293

> <r_mmod_Bend_Energy-OPLS-2005>
119.427040100098

> <r_mmod_Torsional_Energy-OPLS-2005>
259.210723876953

> <r_mmod_Improper_Torsional_Energy-OPLS-2005>
5.71734619140625

> <r_mmod_Van_der_Waal_Energy-OPLS-2005>
153.580047607422

> <r_mmod_Electrostatic_Energy-OPLS-2005>
-447.219268798828

> <r_mmod_Solvation_Energy-OPLS-2005>
-394.779449462891

> <b_mmod_Minimization_Converged-OPLS-2005>
0

> <r_mmod_RMS_Derivative-OPLS-2005>
1.1687399148941

$$$$
38
                    3D
 Structure written by MMmdl.
177185  0  0  1  0            999 V2000
  -30.8050  -14.4023   20.6538 C   0  0  0  0  0  0
  -30.4128  -12.3131   19.4060 C   0  0  0  0  0  0
  -29.4755  -12.5043   18.2035 C   0  0  0  0  0  0
  -28.0039  -12.3452   18.6282 C   0  0  0  0  0  0
  -27.6510  -13.1934   19.8748 C   0  0  2  0  0  0
  -28.7031  -13.0123   20.9947 C   0  0  0  0  0  0
  -25.2511  -13.7997   20.5764 C   0  0  0  0  0  0
  -24.1752  -13.0343   20.9210 C   0  0  0  0  0  0
  -24.6309  -11.6829   20.8747 C   0  0  0  0  0  0
  -23.9014  -10.4248   21.0410 C   0  0  0  0  0  0
  -24.3583   -9.4193   21.9199 C   0  0  0  0  0  0
  -23.6257   -8.2237   22.0760 C   0  0  0  0  0  0
  -22.4238   -8.0287   21.3545 C   0  0  0  0  0  0
  -21.9873   -9.0253   20.4648 C   0  0  0  0  0  0
  -22.7196  -10.2123   20.3059 C   0  0  0  0  0  0
  -21.6846   -6.0740   22.5286 C   0  0  0  0  0  0
  -21.4009   -6.5642   23.8225 C   0  0  0  0  0  0
  -21.3662   -5.6787   24.9171 C   0  0  0  0  0  0
  -21.6052   -4.3057   24.7218 C   0  0  0  0  0  0
  -21.8836   -3.8161   23.4329 C   0  0  0  0  0  0
  -21.9194   -4.6971   22.3401 C   0  0  0  0  0  0
  -22.7795  -13.5226   21.1861 C   0  0  0  0  0  0
  -22.1663   -4.2178   21.0964 F   0  0  0  0  0  0
  -21.5634   -3.4543   25.7726 F   0  0  0  0  0  0
  -30.0404  -13.2953   20.4367 N   0  0  0  0  0  0
  -26.2969  -12.9203   20.3432 N   0  0  0  0  0  0
  -25.9224  -11.6389   20.5765 N   0  0  0  0  0  0
  -22.0390  -12.8247   22.0396 N   0  0  0  0  0  0
  -25.4249  -15.1670   20.4309 N   0  0  0  0  0  0
  -31.8555  -14.6250   20.0490 O   0  0  0  0  0  0
  -21.6593   -6.8895   21.4266 O   0  0  0  0  0  0
  -22.3557  -14.5569   20.6732 O   0  0  0  0  0  0
  -24.6094  -31.8700   23.2144 C   0  0  0  0  0  0
  -25.9001  -32.4838   23.8432 C   0  0  1  0  0  0
  -27.2387  -27.4730   20.0870 C   0  0  0  0  0  0
  -25.5874  -33.8646   24.2363 N   0  0  0  0  0  0
  -23.3962  -30.4932   21.5533 C   0  0  2  0  0  0
  -24.8424  -28.9593   20.1206 C   0  0  0  0  0  0
  -22.7382  -29.4667   22.5030 C   0  0  0  0  0  0
  -18.0264  -28.1385   22.8492 C   0  0  0  0  0  0
  -24.1477  -36.7323   23.2636 C   0  0  0  0  0  0
  -25.9193  -30.8488   21.3605 C   0  0  0  0  0  0
  -25.9989  -29.4829   20.7127 C   0  0  0  0  0  0
  -27.2007  -28.7468   20.6891 C   0  0  0  0  0  0
  -26.0658  -26.9513   19.4973 C   0  0  0  0  0  0
  -24.8688  -27.6914   19.5152 C   0  0  0  0  0  0
  -23.6016  -29.8203   20.1685 C   0  0  0  0  0  0
  -25.4096  -36.3128   24.0340 C   0  0  1  0  0  0
  -20.5848  -28.3662   23.1340 C   0  0  2  0  0  0
  -20.6751  -26.9406   22.5424 C   0  0  0  0  0  0
  -19.5732  -26.6391   21.5211 C   0  0  0  0  0  0
  -18.1911  -26.7931   22.1624 C   0  0  0  0  0  0
  -19.1513  -28.8835   23.2915 C   0  0  0  0  0  0
  -18.9436  -30.1441   23.8932 C   0  0  0  0  0  0
  -17.6440  -30.6588   24.0562 C   0  0  0  0  0  0
  -25.9020  -34.9482   23.5145 C   0  0  0  0  0  0
  -16.5332  -29.9093   23.6317 C   0  0  0  0  0  0
  -16.7257  -28.6504   23.0356 C   0  0  0  0  0  0
  -26.4465  -31.6604   25.0735 C   0  0  0  0  0  0
  -25.3744  -31.3682   26.1488 C   0  0  0  0  0  0
  -27.0285  -30.3053   24.6067 C   0  0  0  0  0  0
  -27.6071  -32.4304   25.7482 C   0  0  0  0  0  0
  -27.5581  -37.1810   24.8466 C   0  0  0  0  0  0
  -21.4120  -29.3027   22.3745 N   0  0  0  0  0  0
  -26.4300  -37.3792   23.9409 N   0  0  0  0  0  0
  -24.6594  -31.0852   22.1012 N   0  0  0  0  0  0
  -23.4171  -28.8226   23.3065 O   0  0  0  0  0  0
  -28.4400  -26.8094   20.0447 O   0  0  0  0  0  0
  -26.5578  -34.8921   22.4707 O   0  0  0  0  0  0
  -23.5293  -32.1457   23.7543 O   0  0  0  0  0  0
  -27.5261  -17.3687   20.5114 C   0  0  0  0  0  0
  -28.6258  -16.4931   20.4289 C   0  0  0  0  0  0
  -29.0893  -16.8913   22.7760 C   0  0  0  0  0  0
  -27.1433  -17.9681   21.7347 C   0  0  0  0  0  0
  -29.3685  -16.1876   21.5899 C   0  0  0  0  0  0
  -28.0023  -17.7890   22.8575 C   0  0  0  0  0  0
  -28.4268  -20.8626   23.6619 C   0  0  0  0  0  0
  -28.8493  -25.1975   21.8197 C   0  0  0  0  0  0
  -25.8448  -20.0462   20.9451 C   0  0  0  0  0  0
  -25.0817  -18.9196   23.0832 C   0  0  0  0  0  0
  -29.8783  -23.8462   23.7082 C   0  0  0  0  0  0
  -30.8789  -23.7548   21.4265 C   0  0  0  0  0  0
  -28.9950  -21.2672   22.2937 C   0  0  0  0  0  0
  -28.8663  -19.5164   24.2357 C   0  0  0  0  0  0
  -28.4394  -25.4154   20.3525 C   0  0  0  0  0  0
  -28.5984  -22.6821   21.8012 C   0  0  0  0  0  0
  -25.7979  -18.7258   21.7296 C   0  0  0  0  0  0
  -29.5420  -23.8569   22.1944 C   0  0  0  0  0  0
  -30.4286  -15.2414   21.6259 N   0  0  0  0  0  0
  -27.8397  -18.4917   24.0532 N   0  0  0  0  0  0
  -27.5878  -21.5418   24.2590 O   0  0  0  0  0  0
  -28.6219  -26.0650   22.6716 O   0  0  0  0  0  0
  -31.4515  -12.4084   19.0824 H   0  0  0  0  0  0
  -30.3254  -11.3022   19.8040 H   0  0  0  0  0  0
  -29.7166  -11.7826   17.4235 H   0  0  0  0  0  0
  -29.6284  -13.4933   17.7702 H   0  0  0  0  0  0
  -27.8203  -11.2893   18.8344 H   0  0  0  0  0  0
  -27.3489  -12.6149   17.7975 H   0  0  0  0  0  0
  -27.6670  -14.2242   19.5354 H   0  0  0  0  0  0
  -28.6882  -11.9905   21.3746 H   0  0  0  0  0  0
  -28.4479  -13.6413   21.8493 H   0  0  0  0  0  0
  -25.2733   -9.5675   22.4772 H   0  0  0  0  0  0
  -23.9985   -7.4633   22.7477 H   0  0  0  0  0  0
  -21.0815   -8.8781   19.8920 H   0  0  0  0  0  0
  -22.3680  -10.9669   19.6162 H   0  0  0  0  0  0
  -21.1998   -7.6152   23.9741 H   0  0  0  0  0  0
  -21.1463   -6.0488   25.9075 H   0  0  0  0  0  0
  -22.0604   -2.7624   23.2803 H   0  0  0  0  0  0
  -22.3967  -11.9845   22.4683 H   0  0  0  0  0  0
  -21.1049  -13.1362   22.2700 H   0  0  0  0  0  0
  -24.6987  -15.8342   20.6637 H   0  0  0  0  0  0
  -26.3434  -15.5861   20.3596 H   0  0  0  0  0  0
  -26.7078  -32.5563   23.1221 H   0  0  0  0  0  0
  -25.0030  -33.9833   25.0510 H   0  0  0  0  0  0
  -22.6807  -31.3067   21.4146 H   0  0  0  0  0  0
  -23.3736  -35.9658   23.3313 H   0  0  0  0  0  0
  -24.3575  -36.8917   22.2047 H   0  0  0  0  0  0
  -23.7229  -37.6532   23.6642 H   0  0  0  0  0  0
  -26.0196  -31.6141   20.5890 H   0  0  0  0  0  0
  -26.8115  -30.9074   21.9724 H   0  0  0  0  0  0
  -28.1012  -29.1492   21.1325 H   0  0  0  0  0  0
  -26.0684  -25.9936   18.9980 H   0  0  0  0  0  0
  -23.9796  -27.2903   19.0512 H   0  0  0  0  0  0
  -23.7017  -30.5914   19.4024 H   0  0  0  0  0  0
  -22.7272  -29.2329   19.8812 H   0  0  0  0  0  0
  -25.1266  -36.2004   25.0830 H   0  0  0  0  0  0
  -20.9946  -28.3219   24.1459 H   0  0  0  0  0  0
  -20.5643  -26.2267   23.3607 H   0  0  0  0  0  0
  -21.6624  -26.7444   22.1219 H   0  0  0  0  0  0
  -19.6897  -25.6304   21.1229 H   0  0  0  0  0  0
  -19.6683  -27.3207   20.6745 H   0  0  0  0  0  0
  -17.4182  -26.6685   21.4027 H   0  0  0  0  0  0
  -18.0327  -26.0074   22.9021 H   0  0  0  0  0  0
  -19.7910  -30.7241   24.2340 H   0  0  0  0  0  0
  -17.4994  -31.6275   24.5156 H   0  0  0  0  0  0
  -15.5338  -30.3007   23.7621 H   0  0  0  0  0  0
  -15.8658  -28.0821   22.7087 H   0  0  0  0  0  0
  -24.5928  -30.7032   25.7808 H   0  0  0  0  0  0
  -24.8930  -32.2822   26.4966 H   0  0  0  0  0  0
  -25.8099  -30.8822   27.0226 H   0  0  0  0  0  0
  -26.2813  -29.6832   24.1129 H   0  0  0  0  0  0
  -27.4091  -29.7270   25.4499 H   0  0  0  0  0  0
  -27.8632  -30.4398   23.9184 H   0  0  0  0  0  0
  -27.2725  -33.3593   26.2118 H   0  0  0  0  0  0
  -28.3841  -32.6875   25.0269 H   0  0  0  0  0  0
  -28.0790  -31.8386   26.5339 H   0  0  0  0  0  0
  -28.2599  -38.0103   24.7491 H   0  0  0  0  0  0
  -28.1072  -36.2630   24.6310 H   0  0  0  0  0  0
  -27.2300  -37.1471   25.8871 H   0  0  0  0  0  0
  -20.9297  -29.8720   21.6940 H   0  0  0  0  0  0
  -26.0192  -38.2874   24.1410 H   0  0  0  0  0  0
  -26.9342  -17.5421   19.6223 H   0  0  0  0  0  0
  -28.8699  -16.0521   19.4724 H   0  0  0  0  0  0
  -29.7115  -16.7277   23.6466 H   0  0  0  0  0  0
  -26.3974  -20.8113   21.4843 H   0  0  0  0  0  0
  -24.8390  -20.4355   20.7814 H   0  0  0  0  0  0
  -26.3013  -19.9202   19.9624 H   0  0  0  0  0  0
  -25.0533  -17.9962   23.6657 H   0  0  0  0  0  0
  -24.0475  -19.2211   22.9167 H   0  0  0  0  0  0
  -25.5337  -19.7090   23.6854 H   0  0  0  0  0  0
  -30.4859  -24.7088   23.9874 H   0  0  0  0  0  0
  -30.4515  -22.9620   23.9884 H   0  0  0  0  0  0
  -28.9784  -23.8678   24.3243 H   0  0  0  0  0  0
  -31.4673  -24.6656   21.5366 H   0  0  0  0  0  0
  -30.7334  -23.5902   20.3574 H   0  0  0  0  0  0
  -31.4963  -22.9325   21.7911 H   0  0  0  0  0  0
  -28.6117  -20.5357   21.5818 H   0  0  0  0  0  0
  -30.0754  -21.1357   22.2941 H   0  0  0  0  0  0
  -29.8118  -19.2242   23.7750 H   0  0  0  0  0  0
  -29.0697  -19.6405   25.2978 H   0  0  0  0  0  0
  -29.1512  -24.9276   19.6912 H   0  0  0  0  0  0
  -27.4742  -24.9406   20.1831 H   0  0  0  0  0  0
  -27.5749  -22.9060   22.1092 H   0  0  0  0  0  0
  -28.5444  -22.6327   20.7135 H   0  0  0  0  0  0
  -25.1326  -18.0756   21.1605 H   0  0  0  0  0  0
  -31.2190  -15.5718   22.1601 H   0  0  0  0  0  0
  -26.9133  -18.9012   24.1227 H   0  0  0  0  0  0
  1 25  1  0  0  0
  1 30  2  0  0  0
  1 89  1  0  0  0
  2  3  1  0  0  0
  2 25  1  0  0  0
  2 93  1  0  0  0
  2 94  1  0  0  0
  3  4  1  0  0  0
  3 95  1  0  0  0
  3 96  1  0  0  0
  4  5  1  0  0  0
  4 97  1  0  0  0
  4 98  1  0  0  0
  5  6  1  0  0  0
  5 26  1  0  0  0
  5 99  1  0  0  0
  6 25  1  0  0  0
  6100  1  0  0  0
  6101  1  0  0  0
  7  8  2  0  0  0
  7 26  1  0  0  0
  7 29  1  0  0  0
  8  9  1  0  0  0
  8 22  1  0  0  0
  9 10  1  0  0  0
  9 27  2  0  0  0
 10 11  2  0  0  0
 10 15  1  0  0  0
 11 12  1  0  0  0
 11102  1  0  0  0
 12 13  2  0  0  0
 12103  1  0  0  0
 13 14  1  0  0  0
 13 31  1  0  0  0
 14 15  2  0  0  0
 14104  1  0  0  0
 15105  1  0  0  0
 16 17  2  0  0  0
 16 21  1  0  0  0
 16 31  1  0  0  0
 17 18  1  0  0  0
 17106  1  0  0  0
 18 19  2  0  0  0
 18107  1  0  0  0
 19 20  1  0  0  0
 19 24  1  0  0  0
 20 21  2  0  0  0
 20108  1  0  0  0
 21 23  1  0  0  0
 22 28  1  0  0  0
 22 32  2  0  0  0
 26 27  1  0  0  0
 28109  1  0  0  0
 28110  1  0  0  0
 29111  1  0  0  0
 29112  1  0  0  0
 33 34  1  0  0  0
 33 66  1  0  0  0
 33 70  2  0  0  0
 34 36  1  0  0  0
 34 59  1  0  0  0
 34113  1  0  0  0
 35 44  2  0  0  0
 35 45  1  0  0  0
 35 68  1  0  0  0
 36 56  1  0  0  0
 36114  1  0  0  0
 37 39  1  0  0  0
 37 47  1  0  0  0
 37 66  1  0  0  0
 37115  1  0  0  0
 38 43  2  0  0  0
 38 46  1  0  0  0
 38 47  1  0  0  0
 39 64  1  0  0  0
 39 67  2  0  0  0
 40 52  1  0  0  0
 40 53  2  0  0  0
 40 58  1  0  0  0
 41116  1  0  0  0
 41117  1  0  0  0
 41118  1  0  0  0
 41 48  1  0  0  0
 42 43  1  0  0  0
 42 66  1  0  0  0
 42119  1  0  0  0
 42120  1  0  0  0
 43 44  1  0  0  0
 44121  1  0  0  0
 45 46  2  0  0  0
 45122  1  0  0  0
 46123  1  0  0  0
 47124  1  0  0  0
 47125  1  0  0  0
 48 56  1  0  0  0
 48 65  1  0  0  0
 48126  1  0  0  0
 49 50  1  0  0  0
 49 53  1  0  0  0
 49 64  1  0  0  0
 49127  1  0  0  0
 50 51  1  0  0  0
 50128  1  0  0  0
 50129  1  0  0  0
 51 52  1  0  0  0
 51130  1  0  0  0
 51131  1  0  0  0
 52132  1  0  0  0
 52133  1  0  0  0
 53 54  1  0  0  0
 54 55  2  0  0  0
 54134  1  0  0  0
 55 57  1  0  0  0
 55135  1  0  0  0
 56 69  2  0  0  0
 57 58  2  0  0  0
 57136  1  0  0  0
 58137  1  0  0  0
 59 60  1  0  0  0
 59 61  1  0  0  0
 59 62  1  0  0  0
 60138  1  0  0  0
 60139  1  0  0  0
 60140  1  0  0  0
 61141  1  0  0  0
 61142  1  0  0  0
 61143  1  0  0  0
 62144  1  0  0  0
 62145  1  0  0  0
 62146  1  0  0  0
 63 65  1  0  0  0
 63147  1  0  0  0
 63148  1  0  0  0
 63149  1  0  0  0
 64150  1  0  0  0
 65151  1  0  0  0
 68 85  1  0  0  0
 71 72  2  0  0  0
 71 74  1  0  0  0
 71152  1  0  0  0
 72 75  1  0  0  0
 72153  1  0  0  0
 73 75  2  0  0  0
 73 76  1  0  0  0
 73154  1  0  0  0
 74 76  2  0  0  0
 74 87  1  0  0  0
 75 89  1  0  0  0
 76 90  1  0  0  0
 77 83  1  0  0  0
 77 84  1  0  0  0
 77 91  2  0  0  0
 78 85  1  0  0  0
 78 88  1  0  0  0
 78 92  2  0  0  0
 79155  1  0  0  0
 79156  1  0  0  0
 79157  1  0  0  0
 79 87  1  0  0  0
 80 87  1  0  0  0
 80158  1  0  0  0
 80159  1  0  0  0
 80160  1  0  0  0
 81161  1  0  0  0
 81162  1  0  0  0
 81163  1  0  0  0
 81 88  1  0  0  0
 82 88  1  0  0  0
 82164  1  0  0  0
 82165  1  0  0  0
 82166  1  0  0  0
 83 86  1  0  0  0
 83167  1  0  0  0
 83168  1  0  0  0
 84 90  1  0  0  0
 84169  1  0  0  0
 84170  1  0  0  0
 85171  1  0  0  0
 85172  1  0  0  0
 86 88  1  0  0  0
 86173  1  0  0  0
 86174  1  0  0  0
 87175  1  0  0  0
 89176  1  0  0  0
 90177  1  0  0  0
M  ISO  4   1 100  68 101  85 101  89 100
M  END
> <chiral flag>
0

> <version>
0

> <s_m_source_file>
/data/baiqing/PycharmProjects/Reinvent-master-3.2/result/LINK_invent/BTK/process_docking_weight1_custom_product_contain_oxygen_bond_distance_aromatic_linkinvent_7_9_3/rearranged_h_0144.sdf

> <i_m_source_file_index>
39

> <r_mmod_Potential_Energy-OPLS-2005>
87.7236480712891

> <r_mmod_Stretch_Energy-OPLS-2005>
38.3276786804199

> <r_mmod_Bend_Energy-OPLS-2005>
123.051162719727

> <r_mmod_Torsional_Energy-OPLS-2005>
297.522674560547

> <r_mmod_Improper_Torsional_Energy-OPLS-2005>
11.7392807006836

> <r_mmod_Van_der_Waal_Energy-OPLS-2005>
154.658355712891

> <r_mmod_Electrostatic_Energy-OPLS-2005>
-320.400939941406

> <r_mmod_Solvation_Energy-OPLS-2005>
-227.144424438477

> <b_mmod_Minimization_Converged-OPLS-2005>
0

> <r_mmod_RMS_Derivative-OPLS-2005>
3.79808950424194

$$$$
39
                    3D
 Structure written by MMmdl.
162171  0  0  1  0            999 V2000
  -30.5719  -14.7062   20.4966 C   0  0  0  0  0  0
  -30.4465  -12.4341   19.4668 C   0  0  0  0  0  0
  -29.5162  -12.5222   18.2345 C   0  0  0  0  0  0
  -28.0371  -12.3510   18.6377 C   0  0  0  0  0  0
  -27.6504  -13.2194   19.8636 C   0  0  2  0  0  0
  -28.6924  -13.0819   20.9960 C   0  0  0  0  0  0
  -25.2539  -13.8174   20.5680 C   0  0  0  0  0  0
  -24.1814  -13.0430   20.9200 C   0  0  0  0  0  0
  -24.6390  -11.6903   20.8741 C   0  0  0  0  0  0
  -23.9060  -10.4291   21.0404 C   0  0  0  0  0  0
  -24.3616   -9.4208   21.9181 C   0  0  0  0  0  0
  -23.6296   -8.2245   22.0757 C   0  0  0  0  0  0
  -22.4280   -8.0277   21.3546 C   0  0  0  0  0  0
  -21.9919   -9.0246   20.4640 C   0  0  0  0  0  0
  -22.7241  -10.2127   20.3045 C   0  0  0  0  0  0
  -21.6850   -6.0736   22.5283 C   0  0  0  0  0  0
  -21.4009   -6.5638   23.8213 C   0  0  0  0  0  0
  -21.3660   -5.6793   24.9178 C   0  0  0  0  0  0
  -21.6050   -4.3054   24.7231 C   0  0  0  0  0  0
  -21.8821   -3.8145   23.4352 C   0  0  0  0  0  0
  -21.9188   -4.6962   22.3404 C   0  0  0  0  0  0
  -22.7835  -13.5215   21.1859 C   0  0  0  0  0  0
  -22.1658   -4.2146   21.0984 F   0  0  0  0  0  0
  -21.5633   -3.4533   25.7745 F   0  0  0  0  0  0
  -30.0020  -13.4553   20.4388 N   0  0  0  0  0  0
  -26.2960  -12.9355   20.3287 N   0  0  0  0  0  0
  -25.9312  -11.6508   20.5729 N   0  0  0  0  0  0
  -22.0456  -12.8200   22.0396 N   0  0  0  0  0  0
  -25.4240  -15.1900   20.4096 N   0  0  0  0  0  0
  -31.7264  -14.8963   20.1021 O   0  0  0  0  0  0
  -21.6635   -6.8881   21.4245 O   0  0  0  0  0  0
  -22.3520  -14.5521   20.6710 O   0  0  0  0  0  0
  -24.6310  -31.8546   23.1968 C   0  0  0  0  0  0
  -25.9153  -32.4739   23.8309 C   0  0  1  0  0  0
  -27.2374  -27.2845   20.1079 C   0  0  0  0  0  0
  -25.5969  -33.8542   24.2255 N   0  0  0  0  0  0
  -23.4257  -30.4757   21.5392 C   0  0  2  0  0  0
  -24.8745  -28.9218   20.1069 C   0  0  0  0  0  0
  -22.7496  -29.4597   22.4907 C   0  0  0  0  0  0
  -18.0289  -28.1389   22.8482 C   0  0  0  0  0  0
  -24.1495  -36.7249   23.2631 C   0  0  0  0  0  0
  -25.9682  -30.7751   21.3697 C   0  0  0  0  0  0
  -26.0436  -29.3981   20.7120 C   0  0  0  0  0  0
  -27.2232  -28.5901   20.7040 C   0  0  0  0  0  0
  -26.0370  -26.8606   19.4952 C   0  0  0  0  0  0
  -24.8745  -27.6597   19.4906 C   0  0  0  0  0  0
  -23.6432  -29.8066   20.1553 C   0  0  0  0  0  0
  -25.4119  -36.3048   24.0322 C   0  0  1  0  0  0
  -20.5893  -28.3697   23.1268 C   0  0  2  0  0  0
  -20.6779  -26.9417   22.5403 C   0  0  0  0  0  0
  -19.5758  -26.6395   21.5205 C   0  0  0  0  0  0
  -18.1932  -26.7932   22.1609 C   0  0  0  0  0  0
  -19.1547  -28.8858   23.2868 C   0  0  0  0  0  0
  -18.9468  -30.1461   23.8885 C   0  0  0  0  0  0
  -17.6472  -30.6592   24.0564 C   0  0  0  0  0  0
  -25.9074  -34.9428   23.5086 C   0  0  0  0  0  0
  -16.5361  -29.9093   23.6334 C   0  0  0  0  0  0
  -16.7281  -28.6511   23.0352 C   0  0  0  0  0  0
  -26.4548  -31.6542   25.0680 C   0  0  0  0  0  0
  -25.3802  -31.3640   26.1418 C   0  0  0  0  0  0
  -27.0395  -30.2976   24.6112 C   0  0  0  0  0  0
  -27.6124  -32.4256   25.7459 C   0  0  0  0  0  0
  -27.5591  -37.1764   24.8453 C   0  0  0  0  0  0
  -21.4206  -29.3041   22.3656 N   0  0  0  0  0  0
  -26.4271  -37.3774   23.9443 N   0  0  0  0  0  0
  -24.6940  -31.0525   22.0924 N   0  0  0  0  0  0
  -23.4201  -28.8145   23.3008 O   0  0  0  0  0  0
  -28.3547  -26.4223   20.1968 O   0  0  0  0  0  0
  -26.5637  -34.8914   22.4651 O   0  0  0  0  0  0
  -23.5472  -32.1372   23.7283 O   0  0  0  0  0  0
  -30.6360  -17.9797   19.9389 C   0  0  0  0  0  0
  -28.7550  -17.9878   21.3792 C   0  0  0  0  0  0
  -30.5069  -19.4108   19.8517 C   0  0  0  0  0  0
  -29.7462  -17.2067   20.7283 C   0  0  0  0  0  0
  -29.4692  -20.1034   20.5544 C   0  0  0  0  0  0
  -28.7174  -23.9396   20.2055 C   0  0  0  0  0  0
  -28.4506  -25.1455   19.5723 C   0  0  0  0  0  0
  -28.8399  -23.7105   21.6942 C   0  0  0  0  0  0
  -28.9974  -22.5370   19.5656 C   0  0  0  0  0  0
  -28.9147  -22.1690   21.9002 C   0  0  0  0  0  0
  -28.4225  -25.2391   18.0559 C   0  0  0  0  0  0
  -32.6870  -20.6931   19.9421 C   0  0  0  0  0  0
  -31.5585  -20.1603   19.0502 C   0  0  0  0  0  0
  -28.6286  -19.3499   21.3073 N   0  0  0  0  0  0
  -29.3203  -21.5484   20.6378 N   0  0  0  0  0  0
  -29.7370  -15.7335   20.8843 N   0  0  0  0  0  0
  -31.4852  -12.5828   19.1668 H   0  0  0  0  0  0
  -30.4032  -11.4402   19.9150 H   0  0  0  0  0  0
  -29.7930  -11.7692   17.4954 H   0  0  0  0  0  0
  -29.6495  -13.4900   17.7490 H   0  0  0  0  0  0
  -27.8762  -11.2974   18.8656 H   0  0  0  0  0  0
  -27.3877  -12.5823   17.7925 H   0  0  0  0  0  0
  -27.6637  -14.2536   19.5197 H   0  0  0  0  0  0
  -28.7179  -12.0562   21.3670 H   0  0  0  0  0  0
  -28.4235  -13.7001   21.8537 H   0  0  0  0  0  0
  -25.2756   -9.5681   22.4760 H   0  0  0  0  0  0
  -23.9992   -7.4639   22.7487 H   0  0  0  0  0  0
  -21.0852   -8.8760   19.8946 H   0  0  0  0  0  0
  -22.3698  -10.9663   19.6150 H   0  0  0  0  0  0
  -21.2002   -7.6148   23.9715 H   0  0  0  0  0  0
  -21.1478   -6.0525   25.9080 H   0  0  0  0  0  0
  -22.0599   -2.7607   23.2854 H   0  0  0  0  0  0
  -22.4059  -11.9850   22.4779 H   0  0  0  0  0  0
  -21.1059  -13.1210   22.2571 H   0  0  0  0  0  0
  -24.6527  -15.8409   20.5138 H   0  0  0  0  0  0
  -26.2607  -15.6246   20.0424 H   0  0  0  0  0  0
  -26.7213  -32.5401   23.1040 H   0  0  0  0  0  0
  -25.0208  -33.9689   25.0464 H   0  0  0  0  0  0
  -22.7214  -31.2972   21.3925 H   0  0  0  0  0  0
  -23.3815  -35.9515   23.3179 H   0  0  0  0  0  0
  -24.3621  -36.9004   22.2074 H   0  0  0  0  0  0
  -23.7168  -37.6371   23.6743 H   0  0  0  0  0  0
  -26.0984  -31.5358   20.5989 H   0  0  0  0  0  0
  -26.8486  -30.8293   21.9981 H   0  0  0  0  0  0
  -28.1175  -28.9482   21.1941 H   0  0  0  0  0  0
  -25.9738  -25.8828   19.0415 H   0  0  0  0  0  0
  -23.9768  -27.2846   19.0188 H   0  0  0  0  0  0
  -23.7674  -30.5832   19.4001 H   0  0  0  0  0  0
  -22.7618  -29.2405   19.8486 H   0  0  0  0  0  0
  -25.1287  -36.1868   25.0807 H   0  0  0  0  0  0
  -20.9989  -28.3283   24.1385 H   0  0  0  0  0  0
  -20.5689  -26.2306   23.3606 H   0  0  0  0  0  0
  -21.6644  -26.7446   22.1195 H   0  0  0  0  0  0
  -19.6925  -25.6316   21.1211 H   0  0  0  0  0  0
  -19.6689  -27.3221   20.6744 H   0  0  0  0  0  0
  -17.4206  -26.6703   21.4001 H   0  0  0  0  0  0
  -18.0318  -26.0067   22.8994 H   0  0  0  0  0  0
  -19.7947  -30.7273   24.2254 H   0  0  0  0  0  0
  -17.5030  -31.6264   24.5179 H   0  0  0  0  0  0
  -15.5364  -30.2990   23.7667 H   0  0  0  0  0  0
  -15.8683  -28.0832   22.7065 H   0  0  0  0  0  0
  -24.6010  -30.6953   25.7735 H   0  0  0  0  0  0
  -24.8955  -32.2781   26.4850 H   0  0  0  0  0  0
  -25.8171  -30.8822   27.0177 H   0  0  0  0  0  0
  -26.2939  -29.6688   24.1234 H   0  0  0  0  0  0
  -27.4229  -29.7263   25.4572 H   0  0  0  0  0  0
  -27.8747  -30.4270   23.9227 H   0  0  0  0  0  0
  -27.2801  -33.3632   26.1929 H   0  0  0  0  0  0
  -28.4011  -32.6677   25.0318 H   0  0  0  0  0  0
  -28.0697  -31.8410   26.5459 H   0  0  0  0  0  0
  -28.2503  -38.0164   24.7656 H   0  0  0  0  0  0
  -28.1191  -36.2702   24.6085 H   0  0  0  0  0  0
  -27.2333  -37.1176   25.8854 H   0  0  0  0  0  0
  -20.9409  -29.8756   21.6847 H   0  0  0  0  0  0
  -26.0124  -38.2807   24.1570 H   0  0  0  0  0  0
  -31.4300  -17.4832   19.4001 H   0  0  0  0  0  0
  -28.0174  -17.4989   21.9980 H   0  0  0  0  0  0
  -28.0064  -24.1595   22.2359 H   0  0  0  0  0  0
  -29.7609  -24.1833   22.0373 H   0  0  0  0  0  0
  -29.8275  -22.6369   18.8694 H   0  0  0  0  0  0
  -28.1255  -22.2072   18.9993 H   0  0  0  0  0  0
  -27.9344  -21.7830   22.1846 H   0  0  0  0  0  0
  -29.6128  -21.9071   22.6956 H   0  0  0  0  0  0
  -29.3636  -24.8805   17.6377 H   0  0  0  0  0  0
  -28.2742  -26.2628   17.7113 H   0  0  0  0  0  0
  -27.6197  -24.6214   17.6522 H   0  0  0  0  0  0
  -33.4194  -21.2471   19.3544 H   0  0  0  0  0  0
  -33.2127  -19.8801   20.4444 H   0  0  0  0  0  0
  -32.3032  -21.3650   20.7101 H   0  0  0  0  0  0
  -31.0966  -20.9688   18.4894 H   0  0  0  0  0  0
  -31.9806  -19.4941   18.2959 H   0  0  0  0  0  0
  -28.8827  -15.3766   21.2871 H   0  0  0  0  0  0
  1 25  1  0  0  0
  1 30  2  0  0  0
  1 86  1  0  0  0
  2  3  1  0  0  0
  2 25  1  0  0  0
  2 87  1  0  0  0
  2 88  1  0  0  0
  3  4  1  0  0  0
  3 89  1  0  0  0
  3 90  1  0  0  0
  4  5  1  0  0  0
  4 91  1  0  0  0
  4 92  1  0  0  0
  5  6  1  0  0  0
  5 26  1  0  0  0
  5 93  1  0  0  0
  6 25  1  0  0  0
  6 94  1  0  0  0
  6 95  1  0  0  0
  7  8  2  0  0  0
  7 26  1  0  0  0
  7 29  1  0  0  0
  8  9  1  0  0  0
  8 22  1  0  0  0
  9 10  1  0  0  0
  9 27  2  0  0  0
 10 11  2  0  0  0
 10 15  1  0  0  0
 11 12  1  0  0  0
 11 96  1  0  0  0
 12 13  2  0  0  0
 12 97  1  0  0  0
 13 14  1  0  0  0
 13 31  1  0  0  0
 14 15  2  0  0  0
 14 98  1  0  0  0
 15 99  1  0  0  0
 16 17  2  0  0  0
 16 21  1  0  0  0
 16 31  1  0  0  0
 17 18  1  0  0  0
 17100  1  0  0  0
 18 19  2  0  0  0
 18101  1  0  0  0
 19 20  1  0  0  0
 19 24  1  0  0  0
 20 21  2  0  0  0
 20102  1  0  0  0
 21 23  1  0  0  0
 22 28  1  0  0  0
 22 32  2  0  0  0
 26 27  1  0  0  0
 28103  1  0  0  0
 28104  1  0  0  0
 29105  1  0  0  0
 29106  1  0  0  0
 33 34  1  0  0  0
 33 66  1  0  0  0
 33 70  2  0  0  0
 34 36  1  0  0  0
 34 59  1  0  0  0
 34107  1  0  0  0
 35 44  2  0  0  0
 35 45  1  0  0  0
 35 68  1  0  0  0
 36 56  1  0  0  0
 36108  1  0  0  0
 37 39  1  0  0  0
 37 47  1  0  0  0
 37 66  1  0  0  0
 37109  1  0  0  0
 38 43  2  0  0  0
 38 46  1  0  0  0
 38 47  1  0  0  0
 39 64  1  0  0  0
 39 67  2  0  0  0
 40 52  1  0  0  0
 40 53  2  0  0  0
 40 58  1  0  0  0
 41110  1  0  0  0
 41111  1  0  0  0
 41112  1  0  0  0
 41 48  1  0  0  0
 42 43  1  0  0  0
 42 66  1  0  0  0
 42113  1  0  0  0
 42114  1  0  0  0
 43 44  1  0  0  0
 44115  1  0  0  0
 45 46  2  0  0  0
 45116  1  0  0  0
 46117  1  0  0  0
 47118  1  0  0  0
 47119  1  0  0  0
 48 56  1  0  0  0
 48 65  1  0  0  0
 48120  1  0  0  0
 49 50  1  0  0  0
 49 53  1  0  0  0
 49 64  1  0  0  0
 49121  1  0  0  0
 50 51  1  0  0  0
 50122  1  0  0  0
 50123  1  0  0  0
 51 52  1  0  0  0
 51124  1  0  0  0
 51125  1  0  0  0
 52126  1  0  0  0
 52127  1  0  0  0
 53 54  1  0  0  0
 54 55  2  0  0  0
 54128  1  0  0  0
 55 57  1  0  0  0
 55129  1  0  0  0
 56 69  2  0  0  0
 57 58  2  0  0  0
 57130  1  0  0  0
 58131  1  0  0  0
 59 60  1  0  0  0
 59 61  1  0  0  0
 59 62  1  0  0  0
 60132  1  0  0  0
 60133  1  0  0  0
 60134  1  0  0  0
 61135  1  0  0  0
 61136  1  0  0  0
 61137  1  0  0  0
 62138  1  0  0  0
 62139  1  0  0  0
 62140  1  0  0  0
 63 65  1  0  0  0
 63141  1  0  0  0
 63142  1  0  0  0
 63143  1  0  0  0
 64144  1  0  0  0
 65145  1  0  0  0
 68 77  1  0  0  0
 71 73  2  0  0  0
 71 74  1  0  0  0
 71146  1  0  0  0
 72 74  2  0  0  0
 72 84  1  0  0  0
 72147  1  0  0  0
 73 75  1  0  0  0
 73 83  1  0  0  0
 74 86  1  0  0  0
 75 84  2  0  0  0
 75 85  1  0  0  0
 76 77  2  0  0  0
 76 78  1  0  0  0
 76 79  1  0  0  0
 77 81  1  0  0  0
 78 80  1  0  0  0
 78148  1  0  0  0
 78149  1  0  0  0
 79 85  1  0  0  0
 79150  1  0  0  0
 79151  1  0  0  0
 80 85  1  0  0  0
 80152  1  0  0  0
 80153  1  0  0  0
 81154  1  0  0  0
 81155  1  0  0  0
 81156  1  0  0  0
 82 83  1  0  0  0
 82157  1  0  0  0
 82158  1  0  0  0
 82159  1  0  0  0
 83160  1  0  0  0
 83161  1  0  0  0
 86162  1  0  0  0
M  ISO  4   1 100  68 101  77 101  86 100
M  END
> <chiral flag>
0

> <version>
0

> <s_m_source_file>
/data/baiqing/PycharmProjects/Reinvent-master-3.2/result/LINK_invent/BTK/process_docking_weight1_custom_product_contain_oxygen_bond_distance_aromatic_linkinvent_7_9_3/rearranged_h_0144.sdf

> <i_m_source_file_index>
40

> <r_mmod_Potential_Energy-OPLS-2005>
-47.0279846191406

> <r_mmod_Stretch_Energy-OPLS-2005>
94.1569290161133

> <r_mmod_Bend_Energy-OPLS-2005>
196.469924926758

> <r_mmod_Torsional_Energy-OPLS-2005>
254.504486083984

> <r_mmod_Improper_Torsional_Energy-OPLS-2005>
6.13136625289917

> <r_mmod_Van_der_Waal_Energy-OPLS-2005>
135.592758178711

> <r_mmod_Electrostatic_Energy-OPLS-2005>
-586.335021972656

> <r_mmod_Solvation_Energy-OPLS-2005>
-217.603088378906

> <b_mmod_Minimization_Converged-OPLS-2005>
0

> <r_mmod_RMS_Derivative-OPLS-2005>
1.52710258960724

$$$$
40
                    3D
 Structure written by MMmdl.
180188  0  0  1  0            999 V2000
  -30.6859  -14.4476   20.5262 C   0  0  0  0  0  0
  -30.4081  -12.2779   19.4272 C   0  0  0  0  0  0
  -29.4962  -12.5288   18.2118 C   0  0  0  0  0  0
  -28.0105  -12.3895   18.6080 C   0  0  0  0  0  0
  -27.6602  -13.2072   19.8803 C   0  0  2  0  0  0
  -28.6990  -12.9828   21.0013 C   0  0  0  0  0  0
  -25.2570  -13.8192   20.5659 C   0  0  0  0  0  0
  -24.1829  -13.0462   20.9187 C   0  0  0  0  0  0
  -24.6401  -11.6920   20.8737 C   0  0  0  0  0  0
  -23.9087  -10.4306   21.0375 C   0  0  0  0  0  0
  -24.3658   -9.4230   21.9159 C   0  0  0  0  0  0
  -23.6339   -8.2278   22.0747 C   0  0  0  0  0  0
  -22.4328   -8.0293   21.3544 C   0  0  0  0  0  0
  -21.9950   -9.0258   20.4641 C   0  0  0  0  0  0
  -22.7269  -10.2138   20.3029 C   0  0  0  0  0  0
  -21.6847   -6.0752   22.5277 C   0  0  0  0  0  0
  -21.4007   -6.5652   23.8211 C   0  0  0  0  0  0
  -21.3685   -5.6801   24.9168 C   0  0  0  0  0  0
  -21.6064   -4.3068   24.7203 C   0  0  0  0  0  0
  -21.8826   -3.8149   23.4324 C   0  0  0  0  0  0
  -21.9206   -4.6980   22.3386 C   0  0  0  0  0  0
  -22.7876  -13.5232   21.1832 C   0  0  0  0  0  0
  -22.1649   -4.2170   21.0960 F   0  0  0  0  0  0
  -21.5663   -3.4553   25.7717 F   0  0  0  0  0  0
  -30.0347  -13.2611   20.4499 N   0  0  0  0  0  0
  -26.3002  -12.9353   20.3380 N   0  0  0  0  0  0
  -25.9324  -11.6507   20.5777 N   0  0  0  0  0  0
  -22.0508  -12.8214   22.0379 N   0  0  0  0  0  0
  -25.4307  -15.1916   20.4030 N   0  0  0  0  0  0
  -31.8428  -14.6125   20.1217 O   0  0  0  0  0  0
  -21.6671   -6.8905   21.4243 O   0  0  0  0  0  0
  -22.3563  -14.5545   20.6650 O   0  0  0  0  0  0
  -24.6208  -31.8640   23.2088 C   0  0  0  0  0  0
  -25.9101  -32.4782   23.8385 C   0  0  1  0  0  0
  -27.2550  -27.4698   20.0189 C   0  0  0  0  0  0
  -25.5956  -33.8592   24.2313 N   0  0  0  0  0  0
  -23.4055  -30.4933   21.5465 C   0  0  2  0  0  0
  -24.8496  -28.9592   20.1147 C   0  0  0  0  0  0
  -22.7427  -29.4682   22.4936 C   0  0  0  0  0  0
  -18.0277  -28.1427   22.8464 C   0  0  0  0  0  0
  -24.1457  -36.7247   23.2644 C   0  0  0  0  0  0
  -25.9380  -30.8380   21.3551 C   0  0  0  0  0  0
  -26.0181  -29.4762   20.6934 C   0  0  0  0  0  0
  -27.2236  -28.7376   20.6472 C   0  0  0  0  0  0
  -26.0513  -26.9302   19.5266 C   0  0  0  0  0  0
  -24.8580  -27.6766   19.5419 C   0  0  0  0  0  0
  -23.6144  -29.8319   20.1598 C   0  0  0  0  0  0
  -25.4075  -36.3030   24.0330 C   0  0  1  0  0  0
  -20.5858  -28.3725   23.1274 C   0  0  2  0  0  0
  -20.6783  -26.9456   22.5418 C   0  0  0  0  0  0
  -19.5776  -26.6423   21.5218 C   0  0  0  0  0  0
  -18.1937  -26.7954   22.1606 C   0  0  0  0  0  0
  -19.1522  -28.8898   23.2859 C   0  0  0  0  0  0
  -18.9450  -30.1476   23.8893 C   0  0  0  0  0  0
  -17.6469  -30.6605   24.0601 C   0  0  0  0  0  0
  -25.9049  -34.9436   23.5106 C   0  0  0  0  0  0
  -16.5355  -29.9125   23.6342 C   0  0  0  0  0  0
  -16.7263  -28.6555   23.0321 C   0  0  0  0  0  0
  -26.4541  -31.6509   25.0654 C   0  0  0  0  0  0
  -25.3865  -31.3567   26.1423 C   0  0  0  0  0  0
  -27.0337  -30.2936   24.5972 C   0  0  0  0  0  0
  -27.6081  -32.4238   25.7446 C   0  0  0  0  0  0
  -27.5527  -37.1743   24.8485 C   0  0  0  0  0  0
  -21.4145  -29.3055   22.3640 N   0  0  0  0  0  0
  -26.4207  -37.3748   23.9433 N   0  0  0  0  0  0
  -24.6722  -31.0812   22.0942 N   0  0  0  0  0  0
  -23.4160  -28.8262   23.3034 O   0  0  0  0  0  0
  -28.4177  -26.7327   19.9614 O   0  0  0  0  0  0
  -26.5602  -34.8909   22.4651 O   0  0  0  0  0  0
  -23.5412  -32.1335   23.7547 O   0  0  0  0  0  0
  -30.7251  -17.7842   20.7632 C   0  0  0  0  0  0
  -30.9031  -18.8189   19.7947 C   0  0  0  0  0  0
  -30.2447  -18.5592   18.6109 C   0  0  0  0  0  0
  -30.0451  -16.6947   20.2909 C   0  0  0  0  0  0
  -30.3793  -21.9076   16.7194 C   0  0  0  0  0  0
  -33.2074  -19.5554   20.4087 C   0  0  0  0  0  0
  -31.1867  -20.9389   21.1119 C   0  0  0  0  0  0
  -29.6425  -24.9348   14.3384 C   0  0  0  0  0  0
  -28.4579  -24.2325   18.5665 C   0  0  0  0  0  0
  -27.7096  -25.8716   16.7408 C   0  0  0  0  0  0
  -29.6451  -20.8064   17.5012 C   0  0  0  0  0  0
  -29.5569  -22.8229   15.7965 C   0  0  0  0  0  0
  -30.1409  -25.1715   16.8968 C   0  0  0  0  0  0
  -29.1382  -26.6664   18.7083 C   0  0  0  0  0  0
  -31.7875  -20.0100   20.0478 C   0  0  0  0  0  0
  -30.2800  -19.3947   17.3527 C   0  0  2  0  0  0
  -30.1410  -24.2517   15.6266 C   0  0  2  0  0  0
  -28.8356  -25.4755   17.7224 C   0  0  0  0  0  0
  -29.9217  -15.4879   20.8923 N   0  0  0  0  0  0
  -31.6005  -22.0525   16.8355 O   0  0  0  0  0  0
  -29.6772  -18.7244   16.2550 O   0  0  0  0  0  0
  -29.3960  -17.0277   18.7031 S   0  0  0  0  0  0
  -31.4589  -12.3552   19.1381 H   0  0  0  0  0  0
  -30.2713  -11.2655   19.8120 H   0  0  0  0  0  0
  -29.7485  -11.8365   17.4101 H   0  0  0  0  0  0
  -29.6746  -13.5314   17.8208 H   0  0  0  0  0  0
  -27.8014  -11.3311   18.7676 H   0  0  0  0  0  0
  -27.3735  -12.7060   17.7819 H   0  0  0  0  0  0
  -27.7023  -14.2568   19.5910 H   0  0  0  0  0  0
  -28.6631  -11.9539   21.3571 H   0  0  0  0  0  0
  -28.4766  -13.6078   21.8676 H   0  0  0  0  0  0
  -25.2776   -9.5745   22.4765 H   0  0  0  0  0  0
  -24.0059   -7.4680   22.7464 H   0  0  0  0  0  0
  -21.0895   -8.8757   19.8944 H   0  0  0  0  0  0
  -22.3689  -10.9692   19.6162 H   0  0  0  0  0  0
  -21.1953   -7.6156   23.9713 H   0  0  0  0  0  0
  -21.1515   -6.0519   25.9082 H   0  0  0  0  0  0
  -22.0577   -2.7613   23.2799 H   0  0  0  0  0  0
  -22.4086  -11.9876   22.4791 H   0  0  0  0  0  0
  -21.1133  -13.1222   22.2557 H   0  0  0  0  0  0
  -24.6571  -15.8441   20.4752 H   0  0  0  0  0  0
  -26.2833  -15.6261   20.0686 H   0  0  0  0  0  0
  -26.7194  -32.5496   23.1179 H   0  0  0  0  0  0
  -25.0131  -33.9815   25.0469 H   0  0  0  0  0  0
  -22.6953  -31.3108   21.4156 H   0  0  0  0  0  0
  -23.3696  -35.9610   23.3328 H   0  0  0  0  0  0
  -24.3582  -36.8821   22.2060 H   0  0  0  0  0  0
  -23.7234  -37.6467   23.6652 H   0  0  0  0  0  0
  -26.0545  -31.6142   20.5985 H   0  0  0  0  0  0
  -26.8296  -30.8893   21.9703 H   0  0  0  0  0  0
  -28.1311  -29.1383   21.0787 H   0  0  0  0  0  0
  -26.0249  -25.9272   19.1261 H   0  0  0  0  0  0
  -23.9542  -27.2500   19.1264 H   0  0  0  0  0  0
  -23.7386  -30.6159   19.4100 H   0  0  0  0  0  0
  -22.7338  -29.2658   19.8505 H   0  0  0  0  0  0
  -25.1244  -36.1857   25.0816 H   0  0  0  0  0  0
  -20.9990  -28.3340   24.1379 H   0  0  0  0  0  0
  -20.5733  -26.2351   23.3604 H   0  0  0  0  0  0
  -21.6649  -26.7539   22.1193 H   0  0  0  0  0  0
  -19.6941  -25.6337   21.1228 H   0  0  0  0  0  0
  -19.6714  -27.3265   20.6756 H   0  0  0  0  0  0
  -17.4210  -26.6679   21.3999 H   0  0  0  0  0  0
  -18.0349  -26.0114   22.9018 H   0  0  0  0  0  0
  -19.7942  -30.7289   24.2240 H   0  0  0  0  0  0
  -17.5032  -31.6279   24.5230 H   0  0  0  0  0  0
  -15.5349  -30.3063   23.7677 H   0  0  0  0  0  0
  -15.8629  -28.0937   22.6994 H   0  0  0  0  0  0
  -24.6157  -30.6756   25.7801 H   0  0  0  0  0  0
  -24.8964  -32.2703   26.4799 H   0  0  0  0  0  0
  -25.8327  -30.8858   27.0198 H   0  0  0  0  0  0
  -26.2814  -29.6661   24.1162 H   0  0  0  0  0  0
  -27.4252  -29.7158   25.4364 H   0  0  0  0  0  0
  -27.8606  -30.4195   23.8966 H   0  0  0  0  0  0
  -27.2654  -33.3558   26.1961 H   0  0  0  0  0  0
  -28.3939  -32.6735   25.0302 H   0  0  0  0  0  0
  -28.0678  -31.8383   26.5427 H   0  0  0  0  0  0
  -28.2516  -38.0057   24.7483 H   0  0  0  0  0  0
  -28.1012  -36.2563   24.6311 H   0  0  0  0  0  0
  -27.2275  -37.1399   25.8904 H   0  0  0  0  0  0
  -20.9314  -29.8729   21.6802 H   0  0  0  0  0  0
  -26.0048  -38.2764   24.1559 H   0  0  0  0  0  0
  -31.1941  -17.8269   21.7354 H   0  0  0  0  0  0
  -33.6074  -18.8981   19.6333 H   0  0  0  0  0  0
  -33.2437  -19.0093   21.3534 H   0  0  0  0  0  0
  -33.8772  -20.4106   20.4954 H   0  0  0  0  0  0
  -30.1879  -21.2700   20.8245 H   0  0  0  0  0  0
  -31.8043  -21.8254   21.2481 H   0  0  0  0  0  0
  -31.1023  -20.4455   22.0798 H   0  0  0  0  0  0
  -29.8492  -24.3080   13.4696 H   0  0  0  0  0  0
  -30.1594  -25.8811   14.1703 H   0  0  0  0  0  0
  -28.5721  -25.1263   14.3371 H   0  0  0  0  0  0
  -27.9608  -23.4615   17.9880 H   0  0  0  0  0  0
  -27.7762  -24.4708   19.3787 H   0  0  0  0  0  0
  -29.3354  -23.7820   19.0308 H   0  0  0  0  0  0
  -27.3378  -25.0104   16.1889 H   0  0  0  0  0  0
  -28.0618  -26.6094   16.0180 H   0  0  0  0  0  0
  -26.8497  -26.3236   17.2142 H   0  0  0  0  0  0
  -28.5828  -20.8061   17.2580 H   0  0  0  0  0  0
  -29.7036  -21.1180   18.5427 H   0  0  0  0  0  0
  -28.5221  -22.8667   16.1250 H   0  0  0  0  0  0
  -29.5251  -22.3253   14.8252 H   0  0  0  0  0  0
  -30.5758  -26.1230   16.5907 H   0  0  0  0  0  0
  -30.8833  -24.7638   17.5837 H   0  0  0  0  0  0
  -29.1149  -27.6299   18.1917 H   0  0  0  0  0  0
  -30.1774  -26.5498   19.0197 H   0  0  0  0  0  0
  -31.8922  -20.5986   19.1371 H   0  0  0  0  0  0
  -31.3326  -19.4993   17.0838 H   0  0  0  0  0  0
  -31.1995  -24.1028   15.4048 H   0  0  0  0  0  0
  -29.0022  -15.2467   21.2293 H   0  0  0  0  0  0
  -29.9466  -19.1596   15.4517 H   0  0  0  0  0  0
  1 25  1  0  0  0
  1 30  2  0  0  0
  1 89  1  0  0  0
  2  3  1  0  0  0
  2 25  1  0  0  0
  2 93  1  0  0  0
  2 94  1  0  0  0
  3  4  1  0  0  0
  3 95  1  0  0  0
  3 96  1  0  0  0
  4  5  1  0  0  0
  4 97  1  0  0  0
  4 98  1  0  0  0
  5  6  1  0  0  0
  5 26  1  0  0  0
  5 99  1  0  0  0
  6 25  1  0  0  0
  6100  1  0  0  0
  6101  1  0  0  0
  7  8  2  0  0  0
  7 26  1  0  0  0
  7 29  1  0  0  0
  8  9  1  0  0  0
  8 22  1  0  0  0
  9 10  1  0  0  0
  9 27  2  0  0  0
 10 11  2  0  0  0
 10 15  1  0  0  0
 11 12  1  0  0  0
 11102  1  0  0  0
 12 13  2  0  0  0
 12103  1  0  0  0
 13 14  1  0  0  0
 13 31  1  0  0  0
 14 15  2  0  0  0
 14104  1  0  0  0
 15105  1  0  0  0
 16 17  2  0  0  0
 16 21  1  0  0  0
 16 31  1  0  0  0
 17 18  1  0  0  0
 17106  1  0  0  0
 18 19  2  0  0  0
 18107  1  0  0  0
 19 20  1  0  0  0
 19 24  1  0  0  0
 20 21  2  0  0  0
 20108  1  0  0  0
 21 23  1  0  0  0
 22 28  1  0  0  0
 22 32  2  0  0  0
 26 27  1  0  0  0
 28109  1  0  0  0
 28110  1  0  0  0
 29111  1  0  0  0
 29112  1  0  0  0
 33 34  1  0  0  0
 33 66  1  0  0  0
 33 70  2  0  0  0
 34 36  1  0  0  0
 34 59  1  0  0  0
 34113  1  0  0  0
 35 44  2  0  0  0
 35 45  1  0  0  0
 35 68  1  0  0  0
 36 56  1  0  0  0
 36114  1  0  0  0
 37 39  1  0  0  0
 37 47  1  0  0  0
 37 66  1  0  0  0
 37115  1  0  0  0
 38 43  2  0  0  0
 38 46  1  0  0  0
 38 47  1  0  0  0
 39 64  1  0  0  0
 39 67  2  0  0  0
 40 52  1  0  0  0
 40 53  2  0  0  0
 40 58  1  0  0  0
 41116  1  0  0  0
 41117  1  0  0  0
 41118  1  0  0  0
 41 48  1  0  0  0
 42 43  1  0  0  0
 42 66  1  0  0  0
 42119  1  0  0  0
 42120  1  0  0  0
 43 44  1  0  0  0
 44121  1  0  0  0
 45 46  2  0  0  0
 45122  1  0  0  0
 46123  1  0  0  0
 47124  1  0  0  0
 47125  1  0  0  0
 48 56  1  0  0  0
 48 65  1  0  0  0
 48126  1  0  0  0
 49 50  1  0  0  0
 49 53  1  0  0  0
 49 64  1  0  0  0
 49127  1  0  0  0
 50 51  1  0  0  0
 50128  1  0  0  0
 50129  1  0  0  0
 51 52  1  0  0  0
 51130  1  0  0  0
 51131  1  0  0  0
 52132  1  0  0  0
 52133  1  0  0  0
 53 54  1  0  0  0
 54 55  2  0  0  0
 54134  1  0  0  0
 55 57  1  0  0  0
 55135  1  0  0  0
 56 69  2  0  0  0
 57 58  2  0  0  0
 57136  1  0  0  0
 58137  1  0  0  0
 59 60  1  0  0  0
 59 61  1  0  0  0
 59 62  1  0  0  0
 60138  1  0  0  0
 60139  1  0  0  0
 60140  1  0  0  0
 61141  1  0  0  0
 61142  1  0  0  0
 61143  1  0  0  0
 62144  1  0  0  0
 62145  1  0  0  0
 62146  1  0  0  0
 63 65  1  0  0  0
 63147  1  0  0  0
 63148  1  0  0  0
 63149  1  0  0  0
 64150  1  0  0  0
 65151  1  0  0  0
 68 84  1  0  0  0
 71 72  1  0  0  0
 71 74  2  0  0  0
 71152  1  0  0  0
 72 73  2  0  0  0
 72 85  1  0  0  0
 73 86  1  0  0  0
 73 92  1  0  0  0
 74 89  1  0  0  0
 74 92  1  0  0  0
 75 81  1  0  0  0
 75 82  1  0  0  0
 75 90  2  0  0  0
 76153  1  0  0  0
 76154  1  0  0  0
 76155  1  0  0  0
 76 85  1  0  0  0
 77 85  1  0  0  0
 77156  1  0  0  0
 77157  1  0  0  0
 77158  1  0  0  0
 78159  1  0  0  0
 78160  1  0  0  0
 78161  1  0  0  0
 78 87  1  0  0  0
 79162  1  0  0  0
 79163  1  0  0  0
 79164  1  0  0  0
 79 88  1  0  0  0
 80 88  1  0  0  0
 80165  1  0  0  0
 80166  1  0  0  0
 80167  1  0  0  0
 81 86  1  0  0  0
 81168  1  0  0  0
 81169  1  0  0  0
 82 87  1  0  0  0
 82170  1  0  0  0
 82171  1  0  0  0
 83 87  1  0  0  0
 83 88  1  0  0  0
 83172  1  0  0  0
 83173  1  0  0  0
 84 88  1  0  0  0
 84174  1  0  0  0
 84175  1  0  0  0
 85176  1  0  0  0
 86 91  1  0  0  0
 86177  1  0  0  0
 87178  1  0  0  0
 89179  1  0  0  0
 91180  1  0  0  0
M  ISO  4   1 100  68 101  84 101  89 100
M  END
> <chiral flag>
0

> <version>
0

> <s_m_source_file>
/data/baiqing/PycharmProjects/Reinvent-master-3.2/result/LINK_invent/BTK/process_docking_weight1_custom_product_contain_oxygen_bond_distance_aromatic_linkinvent_7_9_3/rearranged_h_0144.sdf

> <i_m_source_file_index>
41

> <r_mmod_Potential_Energy-OPLS-2005>
16.4412860870361

> <r_mmod_Stretch_Energy-OPLS-2005>
41.7215995788574

> <r_mmod_Bend_Energy-OPLS-2005>
136.00439453125

> <r_mmod_Torsional_Energy-OPLS-2005>
287.683929443359

> <r_mmod_Improper_Torsional_Energy-OPLS-2005>
7.47589254379272

> <r_mmod_Van_der_Waal_Energy-OPLS-2005>
129.77571105957

> <r_mmod_Electrostatic_Energy-OPLS-2005>
-375.527648925781

> <r_mmod_Solvation_Energy-OPLS-2005>
-224.267837524414

> <b_mmod_Minimization_Converged-OPLS-2005>
0

> <r_mmod_RMS_Derivative-OPLS-2005>
5.46445178985596

$$$$
41
                    3D
 Structure written by MMmdl.
173183  0  0  1  0            999 V2000
  -30.6813  -14.4701   20.6712 C   0  0  0  0  0  0
  -30.4446  -12.3435   19.4042 C   0  0  0  0  0  0
  -29.4976  -12.5461   18.2020 C   0  0  0  0  0  0
  -28.0209  -12.3855   18.6147 C   0  0  0  0  0  0
  -27.6726  -13.2009   19.8870 C   0  0  2  0  0  0
  -28.7150  -12.9187   20.9914 C   0  0  0  0  0  0
  -25.2631  -13.8140   20.5661 C   0  0  0  0  0  0
  -24.1860  -13.0430   20.9131 C   0  0  0  0  0  0
  -24.6406  -11.6895   20.8709 C   0  0  0  0  0  0
  -23.9060  -10.4291   21.0394 C   0  0  0  0  0  0
  -24.3611   -9.4213   21.9180 C   0  0  0  0  0  0
  -23.6282   -8.2251   22.0759 C   0  0  0  0  0  0
  -22.4267   -8.0286   21.3547 C   0  0  0  0  0  0
  -21.9899   -9.0260   20.4650 C   0  0  0  0  0  0
  -22.7226  -10.2137   20.3050 C   0  0  0  0  0  0
  -21.6851   -6.0731   22.5274 C   0  0  0  0  0  0
  -21.4014   -6.5637   23.8207 C   0  0  0  0  0  0
  -21.3659   -5.6791   24.9170 C   0  0  0  0  0  0
  -21.6045   -4.3055   24.7223 C   0  0  0  0  0  0
  -21.8819   -3.8143   23.4344 C   0  0  0  0  0  0
  -21.9192   -4.6957   22.3398 C   0  0  0  0  0  0
  -22.7890  -13.5247   21.1809 C   0  0  0  0  0  0
  -22.1663   -4.2143   21.0974 F   0  0  0  0  0  0
  -21.5625   -3.4539   25.7738 F   0  0  0  0  0  0
  -30.0520  -13.2736   20.4766 N   0  0  0  0  0  0
  -26.3087  -12.9304   20.3417 N   0  0  0  0  0  0
  -25.9341  -11.6466   20.5771 N   0  0  0  0  0  0
  -22.0526  -12.8255   22.0378 N   0  0  0  0  0  0
  -25.4355  -15.1853   20.4091 N   0  0  0  0  0  0
  -31.6718  -14.8208   20.0206 O   0  0  0  0  0  0
  -21.6638   -6.8880   21.4240 O   0  0  0  0  0  0
  -22.3576  -14.5553   20.6662 O   0  0  0  0  0  0
  -24.6185  -31.8647   23.2066 C   0  0  0  0  0  0
  -25.9062  -32.4804   23.8376 C   0  0  1  0  0  0
  -27.2414  -27.3973   20.1010 C   0  0  0  0  0  0
  -25.5904  -33.8602   24.2308 N   0  0  0  0  0  0
  -23.4084  -30.4870   21.5480 C   0  0  2  0  0  0
  -24.8555  -28.9450   20.1183 C   0  0  0  0  0  0
  -22.7427  -29.4643   22.4976 C   0  0  0  0  0  0
  -18.0277  -28.1376   22.8490 C   0  0  0  0  0  0
  -24.1488  -36.7307   23.2639 C   0  0  0  0  0  0
  -25.9410  -30.8195   21.3643 C   0  0  0  0  0  0
  -26.0186  -29.4507   20.7111 C   0  0  0  0  0  0
  -27.2134  -28.6877   20.6916 C   0  0  0  0  0  0
  -26.0526  -26.9125   19.5078 C   0  0  0  0  0  0
  -24.8697  -27.6770   19.5132 C   0  0  0  0  0  0
  -23.6191  -29.8161   20.1647 C   0  0  0  0  0  0
  -25.4110  -36.3099   24.0334 C   0  0  1  0  0  0
  -20.5868  -28.3668   23.1308 C   0  0  2  0  0  0
  -20.6767  -26.9401   22.5414 C   0  0  0  0  0  0
  -19.5747  -26.6383   21.5209 C   0  0  0  0  0  0
  -18.1926  -26.7921   22.1623 C   0  0  0  0  0  0
  -19.1527  -28.8839   23.2896 C   0  0  0  0  0  0
  -18.9453  -30.1444   23.8909 C   0  0  0  0  0  0
  -17.6456  -30.6583   24.0563 C   0  0  0  0  0  0
  -25.9038  -34.9466   23.5120 C   0  0  0  0  0  0
  -16.5347  -29.9085   23.6325 C   0  0  0  0  0  0
  -16.7266  -28.6500   23.0349 C   0  0  0  0  0  0
  -26.4477  -31.6593   25.0716 C   0  0  0  0  0  0
  -25.3736  -31.3709   26.1460 C   0  0  0  0  0  0
  -27.0307  -30.3031   24.6109 C   0  0  0  0  0  0
  -27.6051  -32.4313   25.7479 C   0  0  0  0  0  0
  -27.5579  -37.1809   24.8466 C   0  0  0  0  0  0
  -21.4151  -29.3033   22.3713 N   0  0  0  0  0  0
  -26.4295  -37.3785   23.9404 N   0  0  0  0  0  0
  -24.6745  -31.0720   22.0979 N   0  0  0  0  0  0
  -23.4181  -28.8189   23.3036 O   0  0  0  0  0  0
  -28.4214  -26.6651   20.0917 O   0  0  0  0  0  0
  -26.5604  -34.8921   22.4684 O   0  0  0  0  0  0
  -23.5368  -32.1412   23.7440 O   0  0  0  0  0  0
  -27.2709  -17.1510   22.7120 C   0  0  0  0  0  0
  -28.2158  -16.1314   22.5365 C   0  0  0  0  0  0
  -29.6504  -17.6241   21.2082 C   0  0  0  0  0  0
  -27.5316  -18.4009   22.1449 C   0  0  0  0  0  0
  -28.6997  -18.6750   21.4270 C   0  0  0  0  0  0
  -29.3883  -16.3253   21.7669 C   0  0  0  0  0  0
  -26.6152  -19.5816   22.2456 C   0  0  0  0  0  0
  -27.2062  -20.5438   21.2137 C   0  0  0  0  0  0
  -29.0675  -22.0830   19.3433 C   0  0  0  0  0  0
  -29.5119  -22.5385   21.8091 C   0  0  0  0  0  0
  -29.1971  -20.5503   19.6232 C   0  0  0  0  0  0
  -29.5754  -21.0012   22.0344 C   0  0  0  0  0  0
  -29.8414  -22.9793   20.3564 C   0  0  2  0  0  0
  -28.7137  -20.1788   21.0439 C   0  0  2  0  0  0
  -30.3789  -24.8496   18.7051 C   0  0  0  0  0  0
  -30.6946  -25.2566   21.1349 C   0  0  0  0  0  0
  -28.3625  -25.2140   20.1636 C   0  0  0  0  0  0
  -29.7862  -24.5527   20.1002 C   0  0  0  0  0  0
  -30.2473  -15.1735   21.7366 N   0  0  0  0  0  0
  -31.4818  -12.4895   19.0977 H   0  0  0  0  0  0
  -30.3870  -11.3159   19.7667 H   0  0  0  0  0  0
  -29.7418  -11.8399   17.4073 H   0  0  0  0  0  0
  -29.6507  -13.5418   17.7828 H   0  0  0  0  0  0
  -27.8363  -11.3253   18.7934 H   0  0  0  0  0  0
  -27.3673  -12.6733   17.7905 H   0  0  0  0  0  0
  -27.7325  -14.2583   19.6271 H   0  0  0  0  0  0
  -28.7005  -11.8596   21.2525 H   0  0  0  0  0  0
  -28.4503  -13.4247   21.9136 H   0  0  0  0  0  0
  -25.2759   -9.5685   22.4752 H   0  0  0  0  0  0
  -23.9982   -7.4649   22.7486 H   0  0  0  0  0  0
  -21.0823   -8.8782   19.8966 H   0  0  0  0  0  0
  -22.3684  -10.9677   19.6160 H   0  0  0  0  0  0
  -21.2010   -7.6147   23.9708 H   0  0  0  0  0  0
  -21.1482   -6.0523   25.9072 H   0  0  0  0  0  0
  -22.0598   -2.7603   23.2846 H   0  0  0  0  0  0
  -22.4123  -11.9899   22.4742 H   0  0  0  0  0  0
  -21.1162  -13.1324   22.2608 H   0  0  0  0  0  0
  -24.6825  -15.8479   20.5539 H   0  0  0  0  0  0
  -26.3205  -15.6318   20.2025 H   0  0  0  0  0  0
  -26.7133  -32.5505   23.1137 H   0  0  0  0  0  0
  -25.0052  -33.9760   25.0451 H   0  0  0  0  0  0
  -22.6991  -31.3049   21.4059 H   0  0  0  0  0  0
  -23.3740  -35.9651   23.3322 H   0  0  0  0  0  0
  -24.3577  -36.8902   22.2049 H   0  0  0  0  0  0
  -23.7255  -37.6523   23.6642 H   0  0  0  0  0  0
  -26.0589  -31.5845   20.5955 H   0  0  0  0  0  0
  -26.8268  -30.8720   21.9858 H   0  0  0  0  0  0
  -28.1137  -29.0795   21.1443 H   0  0  0  0  0  0
  -26.0192  -25.9499   19.0214 H   0  0  0  0  0  0
  -23.9760  -27.2821   19.0497 H   0  0  0  0  0  0
  -23.7308  -30.5895   19.4040 H   0  0  0  0  0  0
  -22.7422  -29.2379   19.8680 H   0  0  0  0  0  0
  -25.1289  -36.1963   25.0828 H   0  0  0  0  0  0
  -20.9960  -28.3235   24.1427 H   0  0  0  0  0  0
  -20.5666  -26.2275   23.3601 H   0  0  0  0  0  0
  -21.6639  -26.7439   22.1210 H   0  0  0  0  0  0
  -19.6909  -25.6297   21.1230 H   0  0  0  0  0  0
  -19.6685  -27.3198   20.6744 H   0  0  0  0  0  0
  -17.4194  -26.6666   21.4029 H   0  0  0  0  0  0
  -18.0332  -26.0062   22.9018 H   0  0  0  0  0  0
  -19.7931  -30.7255   24.2284 H   0  0  0  0  0  0
  -17.5012  -31.6264   24.5162 H   0  0  0  0  0  0
  -15.5349  -30.2993   23.7640 H   0  0  0  0  0  0
  -15.8665  -28.0822   22.7060 H   0  0  0  0  0  0
  -24.5906  -30.7061   25.7795 H   0  0  0  0  0  0
  -24.8934  -32.2869   26.4913 H   0  0  0  0  0  0
  -25.8083  -30.8871   27.0216 H   0  0  0  0  0  0
  -26.2855  -29.6792   24.1158 H   0  0  0  0  0  0
  -27.4066  -29.7269   25.4574 H   0  0  0  0  0  0
  -27.8696  -30.4344   23.9270 H   0  0  0  0  0  0
  -27.2672  -33.3606   26.2078 H   0  0  0  0  0  0
  -28.3850  -32.6883   25.0297 H   0  0  0  0  0  0
  -28.0730  -31.8422   26.5377 H   0  0  0  0  0  0
  -28.2610  -38.0093   24.7496 H   0  0  0  0  0  0
  -28.1062  -36.2625   24.6313 H   0  0  0  0  0  0
  -27.2294  -37.1485   25.8870 H   0  0  0  0  0  0
  -20.9315  -29.8755   21.6932 H   0  0  0  0  0  0
  -26.0182  -38.2865   24.1394 H   0  0  0  0  0  0
  -26.3698  -16.9742   23.2829 H   0  0  0  0  0  0
  -28.0108  -15.1868   23.0168 H   0  0  0  0  0  0
  -30.5622  -17.8184   20.6620 H   0  0  0  0  0  0
  -26.6665  -19.9964   23.2531 H   0  0  0  0  0  0
  -25.5796  -19.3194   22.0259 H   0  0  0  0  0  0
  -26.9840  -21.5860   21.4330 H   0  0  0  0  0  0
  -26.7003  -20.3291   20.2712 H   0  0  0  0  0  0
  -28.0153  -22.3668   19.3343 H   0  0  0  0  0  0
  -29.4297  -22.2680   18.3326 H   0  0  0  0  0  0
  -30.2203  -22.9911   22.5023 H   0  0  0  0  0  0
  -28.5392  -22.9252   22.1063 H   0  0  0  0  0  0
  -30.2363  -20.2434   19.4974 H   0  0  0  0  0  0
  -28.6281  -19.9936   18.8778 H   0  0  0  0  0  0
  -29.2709  -20.7832   23.0588 H   0  0  0  0  0  0
  -30.6128  -20.6727   21.9589 H   0  0  0  0  0  0
  -30.8882  -22.7011   20.2199 H   0  0  0  0  0  0
  -31.3695  -24.4093   18.5856 H   0  0  0  0  0  0
  -30.4798  -25.9222   18.5341 H   0  0  0  0  0  0
  -29.7472  -24.4671   17.9037 H   0  0  0  0  0  0
  -31.6833  -24.7983   21.1798 H   0  0  0  0  0  0
  -30.2670  -25.2280   22.1371 H   0  0  0  0  0  0
  -30.8428  -26.3096   20.8925 H   0  0  0  0  0  0
  -27.8607  -24.9390   21.0918 H   0  0  0  0  0  0
  -27.7654  -24.8060   19.3496 H   0  0  0  0  0  0
  -29.9372  -14.5023   22.4229 H   0  0  0  0  0  0
  1 25  1  0  0  0
  1 30  2  0  0  0
  1 89  1  0  0  0
  2  3  1  0  0  0
  2 25  1  0  0  0
  2 90  1  0  0  0
  2 91  1  0  0  0
  3  4  1  0  0  0
  3 92  1  0  0  0
  3 93  1  0  0  0
  4  5  1  0  0  0
  4 94  1  0  0  0
  4 95  1  0  0  0
  5  6  1  0  0  0
  5 26  1  0  0  0
  5 96  1  0  0  0
  6 25  1  0  0  0
  6 97  1  0  0  0
  6 98  1  0  0  0
  7  8  2  0  0  0
  7 26  1  0  0  0
  7 29  1  0  0  0
  8  9  1  0  0  0
  8 22  1  0  0  0
  9 10  1  0  0  0
  9 27  2  0  0  0
 10 11  2  0  0  0
 10 15  1  0  0  0
 11 12  1  0  0  0
 11 99  1  0  0  0
 12 13  2  0  0  0
 12100  1  0  0  0
 13 14  1  0  0  0
 13 31  1  0  0  0
 14 15  2  0  0  0
 14101  1  0  0  0
 15102  1  0  0  0
 16 17  2  0  0  0
 16 21  1  0  0  0
 16 31  1  0  0  0
 17 18  1  0  0  0
 17103  1  0  0  0
 18 19  2  0  0  0
 18104  1  0  0  0
 19 20  1  0  0  0
 19 24  1  0  0  0
 20 21  2  0  0  0
 20105  1  0  0  0
 21 23  1  0  0  0
 22 28  1  0  0  0
 22 32  2  0  0  0
 26 27  1  0  0  0
 28106  1  0  0  0
 28107  1  0  0  0
 29108  1  0  0  0
 29109  1  0  0  0
 33 34  1  0  0  0
 33 66  1  0  0  0
 33 70  2  0  0  0
 34 36  1  0  0  0
 34 59  1  0  0  0
 34110  1  0  0  0
 35 44  2  0  0  0
 35 45  1  0  0  0
 35 68  1  0  0  0
 36 56  1  0  0  0
 36111  1  0  0  0
 37 39  1  0  0  0
 37 47  1  0  0  0
 37 66  1  0  0  0
 37112  1  0  0  0
 38 43  2  0  0  0
 38 46  1  0  0  0
 38 47  1  0  0  0
 39 64  1  0  0  0
 39 67  2  0  0  0
 40 52  1  0  0  0
 40 53  2  0  0  0
 40 58  1  0  0  0
 41113  1  0  0  0
 41114  1  0  0  0
 41115  1  0  0  0
 41 48  1  0  0  0
 42 43  1  0  0  0
 42 66  1  0  0  0
 42116  1  0  0  0
 42117  1  0  0  0
 43 44  1  0  0  0
 44118  1  0  0  0
 45 46  2  0  0  0
 45119  1  0  0  0
 46120  1  0  0  0
 47121  1  0  0  0
 47122  1  0  0  0
 48 56  1  0  0  0
 48 65  1  0  0  0
 48123  1  0  0  0
 49 50  1  0  0  0
 49 53  1  0  0  0
 49 64  1  0  0  0
 49124  1  0  0  0
 50 51  1  0  0  0
 50125  1  0  0  0
 50126  1  0  0  0
 51 52  1  0  0  0
 51127  1  0  0  0
 51128  1  0  0  0
 52129  1  0  0  0
 52130  1  0  0  0
 53 54  1  0  0  0
 54 55  2  0  0  0
 54131  1  0  0  0
 55 57  1  0  0  0
 55132  1  0  0  0
 56 69  2  0  0  0
 57 58  2  0  0  0
 57133  1  0  0  0
 58134  1  0  0  0
 59 60  1  0  0  0
 59 61  1  0  0  0
 59 62  1  0  0  0
 60135  1  0  0  0
 60136  1  0  0  0
 60137  1  0  0  0
 61138  1  0  0  0
 61139  1  0  0  0
 61140  1  0  0  0
 62141  1  0  0  0
 62142  1  0  0  0
 62143  1  0  0  0
 63 65  1  0  0  0
 63144  1  0  0  0
 63145  1  0  0  0
 63146  1  0  0  0
 64147  1  0  0  0
 65148  1  0  0  0
 68 87  1  0  0  0
 71 72  2  0  0  0
 71 74  1  0  0  0
 71149  1  0  0  0
 72 76  1  0  0  0
 72150  1  0  0  0
 73 75  1  0  0  0
 73 76  2  0  0  0
 73151  1  0  0  0
 74 75  2  0  0  0
 74 77  1  0  0  0
 75 84  1  0  0  0
 76 89  1  0  0  0
 77 78  1  0  0  0
 77152  1  0  0  0
 77153  1  0  0  0
 78154  1  0  0  0
 78155  1  0  0  0
 78 84  1  0  0  0
 79 81  1  0  0  0
 79156  1  0  0  0
 79157  1  0  0  0
 79 83  1  0  0  0
 80 82  1  0  0  0
 80 83  1  0  0  0
 80158  1  0  0  0
 80159  1  0  0  0
 81 84  1  0  0  0
 81160  1  0  0  0
 81161  1  0  0  0
 82 84  1  0  0  0
 82162  1  0  0  0
 82163  1  0  0  0
 83 88  1  0  0  0
 83164  1  0  0  0
 85165  1  0  0  0
 85166  1  0  0  0
 85167  1  0  0  0
 85 88  1  0  0  0
 86 88  1  0  0  0
 86168  1  0  0  0
 86169  1  0  0  0
 86170  1  0  0  0
 87 88  1  0  0  0
 87171  1  0  0  0
 87172  1  0  0  0
 89173  1  0  0  0
M  ISO  4   1 100  68 101  87 101  89 100
M  END
> <chiral flag>
0

> <version>
0

> <s_m_source_file>
/data/baiqing/PycharmProjects/Reinvent-master-3.2/result/LINK_invent/BTK/process_docking_weight1_custom_product_contain_oxygen_bond_distance_aromatic_linkinvent_7_9_3/rearranged_h_0144.sdf

> <i_m_source_file_index>
42

> <r_mmod_Potential_Energy-OPLS-2005>
120.989868164062

> <r_mmod_Stretch_Energy-OPLS-2005>
58.3440475463867

> <r_mmod_Bend_Energy-OPLS-2005>
193.009033203125

> <r_mmod_Torsional_Energy-OPLS-2005>
299.671264648438

> <r_mmod_Improper_Torsional_Energy-OPLS-2005>
8.26352977752686

> <r_mmod_Van_der_Waal_Energy-OPLS-2005>
142.311660766602

> <r_mmod_Electrostatic_Energy-OPLS-2005>
-410.072052001953

> <r_mmod_Solvation_Energy-OPLS-2005>
-187.934997558594

> <b_mmod_Minimization_Converged-OPLS-2005>
0

> <r_mmod_RMS_Derivative-OPLS-2005>
0.784047663211823

$$$$
42
                    3D
 Structure written by MMmdl.
168177  0  0  1  0            999 V2000
  -30.7363  -14.4406   20.6181 C   0  0  0  0  0  0
  -30.4139  -12.3126   19.4117 C   0  0  0  0  0  0
  -29.4847  -12.5203   18.2006 C   0  0  0  0  0  0
  -28.0078  -12.3791   18.6156 C   0  0  0  0  0  0
  -27.6589  -13.2113   19.8785 C   0  0  2  0  0  0
  -28.7021  -12.9909   20.9969 C   0  0  0  0  0  0
  -25.2562  -13.8173   20.5687 C   0  0  0  0  0  0
  -24.1823  -13.0441   20.9178 C   0  0  0  0  0  0
  -24.6385  -11.6906   20.8740 C   0  0  0  0  0  0
  -23.9052  -10.4291   21.0401 C   0  0  0  0  0  0
  -24.3606   -9.4208   21.9179 C   0  0  0  0  0  0
  -23.6284   -8.2245   22.0756 C   0  0  0  0  0  0
  -22.4273   -8.0279   21.3544 C   0  0  0  0  0  0
  -21.9908   -9.0244   20.4641 C   0  0  0  0  0  0
  -22.7229  -10.2121   20.3044 C   0  0  0  0  0  0
  -21.6851   -6.0729   22.5273 C   0  0  0  0  0  0
  -21.4016   -6.5635   23.8206 C   0  0  0  0  0  0
  -21.3660   -5.6791   24.9170 C   0  0  0  0  0  0
  -21.6045   -4.3053   24.7225 C   0  0  0  0  0  0
  -21.8822   -3.8139   23.4346 C   0  0  0  0  0  0
  -21.9193   -4.6956   22.3397 C   0  0  0  0  0  0
  -22.7838  -13.5224   21.1834 C   0  0  0  0  0  0
  -22.1661   -4.2141   21.0978 F   0  0  0  0  0  0
  -21.5629   -3.4540   25.7738 F   0  0  0  0  0  0
  -30.0306  -13.2923   20.4398 N   0  0  0  0  0  0
  -26.3008  -12.9346   20.3398 N   0  0  0  0  0  0
  -25.9312  -11.6505   20.5790 N   0  0  0  0  0  0
  -22.0476  -12.8206   22.0378 N   0  0  0  0  0  0
  -25.4285  -15.1894   20.4080 N   0  0  0  0  0  0
  -31.8407  -14.6275   20.0970 O   0  0  0  0  0  0
  -21.6642   -6.8870   21.4237 O   0  0  0  0  0  0
  -22.3532  -14.5539   20.6682 O   0  0  0  0  0  0
  -24.6141  -31.8662   23.2103 C   0  0  0  0  0  0
  -25.9037  -32.4819   23.8397 C   0  0  1  0  0  0
  -27.2376  -27.4397   20.1076 C   0  0  0  0  0  0
  -25.5891  -33.8627   24.2325 N   0  0  0  0  0  0
  -23.4054  -30.4898   21.5495 C   0  0  2  0  0  0
  -24.8554  -28.9551   20.1141 C   0  0  0  0  0  0
  -22.7417  -29.4648   22.4993 C   0  0  0  0  0  0
  -18.0272  -28.1375   22.8459 C   0  0  0  0  0  0
  -24.1483  -36.7324   23.2642 C   0  0  0  0  0  0
  -25.9328  -30.8341   21.3658 C   0  0  0  0  0  0
  -26.0127  -29.4690   20.7135 C   0  0  0  0  0  0
  -27.2094  -28.7180   20.7075 C   0  0  0  0  0  0
  -26.0690  -26.9366   19.5000 C   0  0  0  0  0  0
  -24.8776  -27.6874   19.5044 C   0  0  0  0  0  0
  -23.6170  -29.8219   20.1639 C   0  0  0  0  0  0
  -25.4110  -36.3127   24.0337 C   0  0  1  0  0  0
  -20.5859  -28.3647   23.1304 C   0  0  2  0  0  0
  -20.6760  -26.9388   22.5398 C   0  0  0  0  0  0
  -19.5749  -26.6396   21.5179 C   0  0  0  0  0  0
  -18.1917  -26.7924   22.1591 C   0  0  0  0  0  0
  -19.1516  -28.8826   23.2869 C   0  0  0  0  0  0
  -18.9455  -30.1431   23.8873 C   0  0  0  0  0  0
  -17.6461  -30.6568   24.0563 C   0  0  0  0  0  0
  -25.9045  -34.9483   23.5132 C   0  0  0  0  0  0
  -16.5345  -29.9071   23.6338 C   0  0  0  0  0  0
  -16.7259  -28.6506   23.0319 C   0  0  0  0  0  0
  -26.4488  -31.6616   25.0740 C   0  0  0  0  0  0
  -25.3764  -31.3695   26.1495 C   0  0  0  0  0  0
  -27.0354  -30.3071   24.6126 C   0  0  0  0  0  0
  -27.6031  -32.4376   25.7517 C   0  0  0  0  0  0
  -27.5571  -37.1825   24.8461 C   0  0  0  0  0  0
  -21.4147  -29.3031   22.3719 N   0  0  0  0  0  0
  -26.4292  -37.3812   23.9399 N   0  0  0  0  0  0
  -24.6684  -31.0778   22.0998 N   0  0  0  0  0  0
  -23.4180  -28.8198   23.3043 O   0  0  0  0  0  0
  -28.3825  -26.6783   20.1044 O   0  0  0  0  0  0
  -26.5619  -34.8933   22.4701 O   0  0  0  0  0  0
  -23.5348  -32.1395   23.7525 O   0  0  0  0  0  0
  -32.6236  -17.6448   22.9902 C   0  0  0  0  0  0
  -32.0961  -18.9206   22.7189 C   0  0  0  0  0  0
  -31.9639  -16.4963   22.5220 C   0  0  0  0  0  0
  -30.2129  -17.8951   21.5375 C   0  0  0  0  0  0
  -30.8937  -19.0540   21.9935 C   0  0  0  0  0  0
  -30.7650  -16.6078   21.7789 C   0  0  0  0  0  0
  -30.4237  -20.4151   21.6981 C   0  0  0  0  0  0
  -29.1065  -24.3885   20.6366 C   0  0  0  0  0  0
  -28.5433  -21.6055   24.6163 C   0  0  0  0  0  0
  -28.1143  -22.6572   23.5964 C   0  0  0  0  0  0
  -29.0808  -20.4570   23.7614 C   0  0  0  0  0  0
  -29.1239  -22.5114   22.4467 C   0  0  2  0  0  0
  -29.1432  -26.2656   22.3455 C   0  0  0  0  0  0
  -28.5554  -23.0227   21.0909 C   0  0  0  0  0  0
  -28.4068  -25.6731   21.1332 C   0  0  1  0  0  0
  -29.5582  -21.0804   22.5071 N   0  0  0  0  0  0
  -30.1227  -15.4253   21.3040 N   0  0  0  0  0  0
  -30.9516  -21.0265   20.6425 N   0  3  0  0  0  0
  -30.0971  -24.4379   19.9005 O   0  0  0  0  0  0
  -31.4571  -12.4092   19.1053 H   0  0  0  0  0  0
  -30.3147  -11.2996   19.8064 H   0  0  0  0  0  0
  -29.7229  -11.8048   17.4125 H   0  0  0  0  0  0
  -29.6513  -13.5106   17.7748 H   0  0  0  0  0  0
  -27.8118  -11.3228   18.8013 H   0  0  0  0  0  0
  -27.3570  -12.6671   17.7896 H   0  0  0  0  0  0
  -27.7038  -14.2610   19.5868 H   0  0  0  0  0  0
  -28.6806  -11.9541   21.3367 H   0  0  0  0  0  0
  -28.4652  -13.5903   21.8760 H   0  0  0  0  0  0
  -25.2744   -9.5693   22.4762 H   0  0  0  0  0  0
  -23.9989   -7.4642   22.7484 H   0  0  0  0  0  0
  -21.0840   -8.8752   19.8944 H   0  0  0  0  0  0
  -22.3682  -10.9656   19.6154 H   0  0  0  0  0  0
  -21.2012   -7.6145   23.9705 H   0  0  0  0  0  0
  -21.1480   -6.0524   25.9072 H   0  0  0  0  0  0
  -22.0604   -2.7604   23.2849 H   0  0  0  0  0  0
  -22.4083  -11.9846   22.4724 H   0  0  0  0  0  0
  -21.1090  -13.1223   22.2574 H   0  0  0  0  0  0
  -24.6611  -15.8452   20.5060 H   0  0  0  0  0  0
  -26.2782  -15.6232   20.0692 H   0  0  0  0  0  0
  -26.7110  -32.5557   23.1165 H   0  0  0  0  0  0
  -24.9990  -33.9776   25.0442 H   0  0  0  0  0  0
  -22.6961  -31.3078   21.4084 H   0  0  0  0  0  0
  -23.3740  -35.9659   23.3326 H   0  0  0  0  0  0
  -24.3545  -36.8942   22.2051 H   0  0  0  0  0  0
  -23.7246  -37.6534   23.6649 H   0  0  0  0  0  0
  -26.0513  -31.6029   20.6017 H   0  0  0  0  0  0
  -26.8185  -30.8814   21.9882 H   0  0  0  0  0  0
  -28.1047  -29.1060   21.1726 H   0  0  0  0  0  0
  -26.0804  -25.9620   19.0316 H   0  0  0  0  0  0
  -23.9877  -27.2866   19.0381 H   0  0  0  0  0  0
  -23.7258  -30.5982   19.4058 H   0  0  0  0  0  0
  -22.7402  -29.2450   19.8658 H   0  0  0  0  0  0
  -25.1284  -36.1984   25.0831 H   0  0  0  0  0  0
  -20.9930  -28.3196   24.1438 H   0  0  0  0  0  0
  -20.5673  -26.2244   23.3571 H   0  0  0  0  0  0
  -21.6622  -26.7442   22.1172 H   0  0  0  0  0  0
  -19.6927  -25.6324   21.1166 H   0  0  0  0  0  0
  -19.6696  -27.3236   20.6729 H   0  0  0  0  0  0
  -17.4196  -26.6644   21.3992 H   0  0  0  0  0  0
  -18.0309  -26.0087   22.9008 H   0  0  0  0  0  0
  -19.7946  -30.7232   24.2244 H   0  0  0  0  0  0
  -17.5033  -31.6250   24.5154 H   0  0  0  0  0  0
  -15.5349  -30.2960   23.7713 H   0  0  0  0  0  0
  -15.8652  -28.0846   22.7012 H   0  0  0  0  0  0
  -24.5892  -30.7108   25.7809 H   0  0  0  0  0  0
  -24.9004  -32.2845   26.5030 H   0  0  0  0  0  0
  -25.8126  -30.8772   27.0200 H   0  0  0  0  0  0
  -26.2899  -29.6807   24.1219 H   0  0  0  0  0  0
  -27.4176  -29.7348   25.4587 H   0  0  0  0  0  0
  -27.8706  -30.4405   23.9249 H   0  0  0  0  0  0
  -27.2581  -33.3648   26.2105 H   0  0  0  0  0  0
  -28.3819  -32.7009   25.0348 H   0  0  0  0  0  0
  -28.0719  -31.8521   26.5436 H   0  0  0  0  0  0
  -28.2592  -38.0122   24.7504 H   0  0  0  0  0  0
  -28.1064  -36.2650   24.6282 H   0  0  0  0  0  0
  -27.2265  -37.1472   25.8860 H   0  0  0  0  0  0
  -20.9317  -29.8782   21.6958 H   0  0  0  0  0  0
  -26.0189  -38.2893   24.1404 H   0  0  0  0  0  0
  -33.5438  -17.5427   23.5489 H   0  0  0  0  0  0
  -32.6198  -19.8003   23.0706 H   0  0  0  0  0  0
  -32.3916  -15.5271   22.7345 H   0  0  0  0  0  0
  -29.2963  -18.0018   20.9734 H   0  0  0  0  0  0
  -27.7081  -21.2884   25.2421 H   0  0  0  0  0  0
  -29.3248  -21.9897   25.2736 H   0  0  0  0  0  0
  -28.1151  -23.6571   24.0306 H   0  0  0  0  0  0
  -27.0999  -22.4470   23.2549 H   0  0  0  0  0  0
  -28.2903  -19.7403   23.5345 H   0  0  0  0  0  0
  -29.8684  -19.9253   24.2987 H   0  0  0  0  0  0
  -30.0119  -23.0934   22.7018 H   0  0  0  0  0  0
  -28.5939  -27.1042   22.7716 H   0  0  0  0  0  0
  -30.1305  -26.6274   22.0592 H   0  0  0  0  0  0
  -29.2748  -25.5302   23.1378 H   0  0  0  0  0  0
  -28.7231  -22.2999   20.2941 H   0  0  0  0  0  0
  -27.4726  -23.1207   21.1612 H   0  0  0  0  0  0
  -27.3909  -25.4033   21.4266 H   0  0  0  0  0  0
  -29.1507  -15.2928   21.5388 H   0  0  0  0  0  0
  -31.6226  -20.5188   20.0846 H   0  0  0  0  0  0
  -30.7739  -21.9920   20.4222 H   0  0  0  0  0  0
  1 25  1  0  0  0
  1 30  2  0  0  0
  1 87  1  0  0  0
  2  3  1  0  0  0
  2 25  1  0  0  0
  2 90  1  0  0  0
  2 91  1  0  0  0
  3  4  1  0  0  0
  3 92  1  0  0  0
  3 93  1  0  0  0
  4  5  1  0  0  0
  4 94  1  0  0  0
  4 95  1  0  0  0
  5  6  1  0  0  0
  5 26  1  0  0  0
  5 96  1  0  0  0
  6 25  1  0  0  0
  6 97  1  0  0  0
  6 98  1  0  0  0
  7  8  2  0  0  0
  7 26  1  0  0  0
  7 29  1  0  0  0
  8  9  1  0  0  0
  8 22  1  0  0  0
  9 10  1  0  0  0
  9 27  2  0  0  0
 10 11  2  0  0  0
 10 15  1  0  0  0
 11 12  1  0  0  0
 11 99  1  0  0  0
 12 13  2  0  0  0
 12100  1  0  0  0
 13 14  1  0  0  0
 13 31  1  0  0  0
 14 15  2  0  0  0
 14101  1  0  0  0
 15102  1  0  0  0
 16 17  2  0  0  0
 16 21  1  0  0  0
 16 31  1  0  0  0
 17 18  1  0  0  0
 17103  1  0  0  0
 18 19  2  0  0  0
 18104  1  0  0  0
 19 20  1  0  0  0
 19 24  1  0  0  0
 20 21  2  0  0  0
 20105  1  0  0  0
 21 23  1  0  0  0
 22 28  1  0  0  0
 22 32  2  0  0  0
 26 27  1  0  0  0
 28106  1  0  0  0
 28107  1  0  0  0
 29108  1  0  0  0
 29109  1  0  0  0
 33 34  1  0  0  0
 33 66  1  0  0  0
 33 70  2  0  0  0
 34 36  1  0  0  0
 34 59  1  0  0  0
 34110  1  0  0  0
 35 44  2  0  0  0
 35 45  1  0  0  0
 35 68  1  0  0  0
 36 56  1  0  0  0
 36111  1  0  0  0
 37 39  1  0  0  0
 37 47  1  0  0  0
 37 66  1  0  0  0
 37112  1  0  0  0
 38 43  2  0  0  0
 38 46  1  0  0  0
 38 47  1  0  0  0
 39 64  1  0  0  0
 39 67  2  0  0  0
 40 52  1  0  0  0
 40 53  2  0  0  0
 40 58  1  0  0  0
 41113  1  0  0  0
 41114  1  0  0  0
 41115  1  0  0  0
 41 48  1  0  0  0
 42 43  1  0  0  0
 42 66  1  0  0  0
 42116  1  0  0  0
 42117  1  0  0  0
 43 44  1  0  0  0
 44118  1  0  0  0
 45 46  2  0  0  0
 45119  1  0  0  0
 46120  1  0  0  0
 47121  1  0  0  0
 47122  1  0  0  0
 48 56  1  0  0  0
 48 65  1  0  0  0
 48123  1  0  0  0
 49 50  1  0  0  0
 49 53  1  0  0  0
 49 64  1  0  0  0
 49124  1  0  0  0
 50 51  1  0  0  0
 50125  1  0  0  0
 50126  1  0  0  0
 51 52  1  0  0  0
 51127  1  0  0  0
 51128  1  0  0  0
 52129  1  0  0  0
 52130  1  0  0  0
 53 54  1  0  0  0
 54 55  2  0  0  0
 54131  1  0  0  0
 55 57  1  0  0  0
 55132  1  0  0  0
 56 69  2  0  0  0
 57 58  2  0  0  0
 57133  1  0  0  0
 58134  1  0  0  0
 59 60  1  0  0  0
 59 61  1  0  0  0
 59 62  1  0  0  0
 60135  1  0  0  0
 60136  1  0  0  0
 60137  1  0  0  0
 61138  1  0  0  0
 61139  1  0  0  0
 61140  1  0  0  0
 62141  1  0  0  0
 62142  1  0  0  0
 62143  1  0  0  0
 63 65  1  0  0  0
 63144  1  0  0  0
 63145  1  0  0  0
 63146  1  0  0  0
 64147  1  0  0  0
 65148  1  0  0  0
 68 85  1  0  0  0
 71 72  2  0  0  0
 71 73  1  0  0  0
 71149  1  0  0  0
 72 75  1  0  0  0
 72150  1  0  0  0
 73 76  2  0  0  0
 73151  1  0  0  0
 74 75  2  0  0  0
 74 76  1  0  0  0
 74152  1  0  0  0
 75 77  1  0  0  0
 76 87  1  0  0  0
 77 86  1  0  0  0
 77 88  2  0  0  0
 78 84  1  0  0  0
 78 85  1  0  0  0
 78 89  2  0  0  0
 79 80  1  0  0  0
 79 81  1  0  0  0
 79153  1  0  0  0
 79154  1  0  0  0
 80 82  1  0  0  0
 80155  1  0  0  0
 80156  1  0  0  0
 81 86  1  0  0  0
 81157  1  0  0  0
 81158  1  0  0  0
 82 84  1  0  0  0
 82 86  1  0  0  0
 82159  1  0  0  0
 83160  1  0  0  0
 83161  1  0  0  0
 83162  1  0  0  0
 83 85  1  0  0  0
 84163  1  0  0  0
 84164  1  0  0  0
 85165  1  0  0  0
 87166  1  0  0  0
 88167  1  0  0  0
 88168  1  0  0  0
M  CHG  1  88   1
M  ISO  4   1 100  68 101  85 101  87 100
M  END
> <chiral flag>
0

> <version>
0

> <s_m_source_file>
/data/baiqing/PycharmProjects/Reinvent-master-3.2/result/LINK_invent/BTK/process_docking_weight1_custom_product_contain_oxygen_bond_distance_aromatic_linkinvent_7_9_3/rearranged_h_0144.sdf

> <i_m_source_file_index>
43

> <r_mmod_Potential_Energy-OPLS-2005>
-113.56852722168

> <r_mmod_Stretch_Energy-OPLS-2005>
39.2760887145996

> <r_mmod_Bend_Energy-OPLS-2005>
123.196716308594

> <r_mmod_Torsional_Energy-OPLS-2005>
346.777069091797

> <r_mmod_Improper_Torsional_Energy-OPLS-2005>
3.53202843666077

> <r_mmod_Van_der_Waal_Energy-OPLS-2005>
144.147399902344

> <r_mmod_Electrostatic_Energy-OPLS-2005>
-378.015350341797

> <r_mmod_Solvation_Energy-OPLS-2005>
-403.301788330078

> <b_mmod_Minimization_Converged-OPLS-2005>
0

> <r_mmod_RMS_Derivative-OPLS-2005>
2.25727438926697

$$$$
43
                    3D
 Structure written by MMmdl.
171180  0  0  1  0            999 V2000
  -30.7703  -14.3583   20.7342 C   0  0  0  0  0  0
  -30.4307  -12.3075   19.3884 C   0  0  0  0  0  0
  -29.4900  -12.5621   18.1951 C   0  0  0  0  0  0
  -28.0153  -12.3962   18.6113 C   0  0  0  0  0  0
  -27.6719  -13.2069   19.8869 C   0  0  2  0  0  0
  -28.7096  -12.9313   20.9973 C   0  0  0  0  0  0
  -25.2610  -13.8160   20.5682 C   0  0  0  0  0  0
  -24.1858  -13.0434   20.9176 C   0  0  0  0  0  0
  -24.6417  -11.6907   20.8740 C   0  0  0  0  0  0
  -23.9075  -10.4281   21.0417 C   0  0  0  0  0  0
  -24.3619   -9.4188   21.9202 C   0  0  0  0  0  0
  -23.6290   -8.2221   22.0760 C   0  0  0  0  0  0
  -22.4268   -8.0270   21.3543 C   0  0  0  0  0  0
  -21.9904   -9.0254   20.4656 C   0  0  0  0  0  0
  -22.7247  -10.2131   20.3068 C   0  0  0  0  0  0
  -21.6845   -6.0729   22.5286 C   0  0  0  0  0  0
  -21.4012   -6.5636   23.8222 C   0  0  0  0  0  0
  -21.3659   -5.6794   24.9188 C   0  0  0  0  0  0
  -21.6048   -4.3055   24.7231 C   0  0  0  0  0  0
  -21.8815   -3.8138   23.4354 C   0  0  0  0  0  0
  -21.9185   -4.6957   22.3410 C   0  0  0  0  0  0
  -22.7873  -13.5226   21.1829 C   0  0  0  0  0  0
  -22.1661   -4.2139   21.0987 F   0  0  0  0  0  0
  -21.5623   -3.4545   25.7746 F   0  0  0  0  0  0
  -30.0643  -13.2255   20.4752 N   0  0  0  0  0  0
  -26.3069  -12.9350   20.3403 N   0  0  0  0  0  0
  -25.9345  -11.6499   20.5758 N   0  0  0  0  0  0
  -22.0505  -12.8237   22.0399 N   0  0  0  0  0  0
  -25.4315  -15.1893   20.4096 N   0  0  0  0  0  0
  -31.7460  -14.7262   20.0685 O   0  0  0  0  0  0
  -21.6631   -6.8872   21.4241 O   0  0  0  0  0  0
  -22.3553  -14.5519   20.6660 O   0  0  0  0  0  0
  -24.6135  -31.8724   23.2156 C   0  0  0  0  0  0
  -25.9023  -32.4879   23.8435 C   0  0  1  0  0  0
  -27.2331  -27.4372   20.1168 C   0  0  0  0  0  0
  -25.5915  -33.8675   24.2367 N   0  0  0  0  0  0
  -23.4019  -30.4984   21.5513 C   0  0  2  0  0  0
  -24.8511  -28.9648   20.1199 C   0  0  0  0  0  0
  -22.7401  -29.4691   22.4952 C   0  0  0  0  0  0
  -18.0282  -28.1406   22.8499 C   0  0  0  0  0  0
  -24.1454  -36.7321   23.2638 C   0  0  0  0  0  0
  -25.9277  -30.8399   21.3665 C   0  0  0  0  0  0
  -26.0071  -29.4670   20.7322 C   0  0  0  0  0  0
  -27.1989  -28.7071   20.7391 C   0  0  0  0  0  0
  -26.0691  -26.9641   19.4743 C   0  0  0  0  0  0
  -24.8766  -27.7094   19.4912 C   0  0  0  0  0  0
  -23.6173  -29.8382   20.1620 C   0  0  0  0  0  0
  -25.4088  -36.3147   24.0350 C   0  0  1  0  0  0
  -20.5872  -28.3712   23.1321 C   0  0  2  0  0  0
  -20.6782  -26.9461   22.5414 C   0  0  0  0  0  0
  -19.5763  -26.6434   21.5215 C   0  0  0  0  0  0
  -18.1943  -26.7955   22.1618 C   0  0  0  0  0  0
  -19.1532  -28.8868   23.2915 C   0  0  0  0  0  0
  -18.9456  -30.1474   23.8927 C   0  0  0  0  0  0
  -17.6461  -30.6619   24.0589 C   0  0  0  0  0  0
  -25.9025  -34.9516   23.5146 C   0  0  0  0  0  0
  -16.5353  -29.9132   23.6330 C   0  0  0  0  0  0
  -16.7272  -28.6548   23.0357 C   0  0  0  0  0  0
  -26.4483  -31.6632   25.0730 C   0  0  0  0  0  0
  -25.3757  -31.3729   26.1478 C   0  0  0  0  0  0
  -27.0291  -30.3089   24.6047 C   0  0  0  0  0  0
  -27.6062  -32.4339   25.7496 C   0  0  0  0  0  0
  -27.5572  -37.1829   24.8478 C   0  0  0  0  0  0
  -21.4133  -29.3075   22.3703 N   0  0  0  0  0  0
  -26.4259  -37.3846   23.9447 N   0  0  0  0  0  0
  -24.6654  -31.0834   22.1039 N   0  0  0  0  0  0
  -23.4181  -28.8252   23.3004 O   0  0  0  0  0  0
  -28.3694  -26.6603   20.0442 O   0  0  0  0  0  0
  -26.5566  -34.8966   22.4698 O   0  0  0  0  0  0
  -23.5324  -32.1447   23.7552 O   0  0  0  0  0  0
  -29.0587  -18.2039   23.0764 C   0  0  0  0  0  0
  -31.4340  -18.5032   22.6503 C   0  0  0  0  0  0
  -29.1406  -16.8805   22.6068 C   0  0  0  0  0  0
  -31.5170  -17.1745   22.1637 C   0  0  0  0  0  0
  -30.2101  -19.0201   23.1432 C   0  0  0  0  0  0
  -30.3688  -16.3480   22.1660 C   0  0  0  0  0  0
  -29.4823  -23.6826   21.9501 C   0  0  0  0  0  0
  -31.3944  -21.8720   25.2583 C   0  0  0  0  0  0
  -31.0164  -20.4055   25.1362 C   0  0  0  0  0  0
  -31.5501  -22.2588   23.7906 C   0  0  0  0  0  0
  -30.1240  -20.3661   23.8784 C   0  0  1  0  0  0
  -27.6378  -25.0179   23.1222 C   0  0  0  0  0  0
  -27.3269  -24.1663   20.7852 C   0  0  0  0  0  0
  -29.2275  -22.4731   22.8901 C   0  0  0  0  0  0
  -28.9141  -26.1584   21.2766 C   0  0  0  0  0  0
  -28.3572  -24.7594   21.7744 C   0  0  0  0  0  0
  -30.3941  -14.9627   21.8681 N   0  0  0  0  0  0
  -30.4299  -21.5925   23.0744 N   0  3  1  0  0  0
  -30.5283  -23.7417   21.2958 O   0  0  0  0  0  0
  -31.4728  -12.4265   19.0844 H   0  0  0  0  0  0
  -30.3404  -11.2773   19.7362 H   0  0  0  0  0  0
  -29.7307  -11.8858   17.3745 H   0  0  0  0  0  0
  -29.6511  -13.5735   17.8172 H   0  0  0  0  0  0
  -27.8299  -11.3357   18.7873 H   0  0  0  0  0  0
  -27.3570  -12.6929   17.7938 H   0  0  0  0  0  0
  -27.7337  -14.2648   19.6296 H   0  0  0  0  0  0
  -28.6634  -11.8836   21.2999 H   0  0  0  0  0  0
  -28.4378  -13.4950   21.8896 H   0  0  0  0  0  0
  -25.2776   -9.5656   22.4766 H   0  0  0  0  0  0
  -24.0011   -7.4605   22.7476 H   0  0  0  0  0  0
  -21.0829   -8.8787   19.8964 H   0  0  0  0  0  0
  -22.3728  -10.9671   19.6162 H   0  0  0  0  0  0
  -21.2009   -7.6151   23.9720 H   0  0  0  0  0  0
  -21.1491   -6.0531   25.9096 H   0  0  0  0  0  0
  -22.0589   -2.7596   23.2864 H   0  0  0  0  0  0
  -22.4113  -11.9918   22.4825 H   0  0  0  0  0  0
  -21.1116  -13.1262   22.2584 H   0  0  0  0  0  0
  -24.6636  -15.8443   20.5062 H   0  0  0  0  0  0
  -26.2875  -15.6261   20.0897 H   0  0  0  0  0  0
  -26.7104  -32.5618   23.1210 H   0  0  0  0  0  0
  -25.0121  -33.9842   25.0556 H   0  0  0  0  0  0
  -22.6892  -31.3149   21.4182 H   0  0  0  0  0  0
  -23.3732  -35.9635   23.3307 H   0  0  0  0  0  0
  -24.3532  -36.8906   22.2041 H   0  0  0  0  0  0
  -23.7172  -37.6525   23.6632 H   0  0  0  0  0  0
  -26.0257  -31.5930   20.5827 H   0  0  0  0  0  0
  -26.8204  -30.9098   21.9727 H   0  0  0  0  0  0
  -28.0889  -29.1048   21.2077 H   0  0  0  0  0  0
  -26.0812  -26.0104   18.9672 H   0  0  0  0  0  0
  -23.9896  -27.3244   19.0069 H   0  0  0  0  0  0
  -23.7400  -30.6186   19.4089 H   0  0  0  0  0  0
  -22.7362  -29.2717   19.8519 H   0  0  0  0  0  0
  -25.1254  -36.2013   25.0840 H   0  0  0  0  0  0
  -20.9991  -28.3286   24.1437 H   0  0  0  0  0  0
  -20.5746  -26.2338   23.3599 H   0  0  0  0  0  0
  -21.6664  -26.7555   22.1198 H   0  0  0  0  0  0
  -19.6947  -25.6360   21.1240 H   0  0  0  0  0  0
  -19.6703  -27.3229   20.6734 H   0  0  0  0  0  0
  -17.4243  -26.6743   21.3994 H   0  0  0  0  0  0
  -18.0346  -26.0062   22.8986 H   0  0  0  0  0  0
  -19.7925  -30.7295   24.2327 H   0  0  0  0  0  0
  -17.5016  -31.6294   24.5200 H   0  0  0  0  0  0
  -15.5371  -30.3073   23.7612 H   0  0  0  0  0  0
  -15.8664  -28.0886   22.7065 H   0  0  0  0  0  0
  -24.5951  -30.7046   25.7836 H   0  0  0  0  0  0
  -24.8938  -32.2879   26.4926 H   0  0  0  0  0  0
  -25.8143  -30.8930   27.0234 H   0  0  0  0  0  0
  -26.2796  -29.6858   24.1153 H   0  0  0  0  0  0
  -27.4128  -29.7326   25.4475 H   0  0  0  0  0  0
  -27.8622  -30.4447   23.9137 H   0  0  0  0  0  0
  -27.2698  -33.3654   26.2076 H   0  0  0  0  0  0
  -28.3901  -32.6856   25.0335 H   0  0  0  0  0  0
  -28.0684  -31.8440   26.5411 H   0  0  0  0  0  0
  -28.2641  -38.0091   24.7548 H   0  0  0  0  0  0
  -28.1020  -36.2640   24.6276 H   0  0  0  0  0  0
  -27.2293  -37.1433   25.8880 H   0  0  0  0  0  0
  -20.9295  -29.8786   21.6912 H   0  0  0  0  0  0
  -26.0139  -38.2924   24.1485 H   0  0  0  0  0  0
  -28.1099  -18.5602   23.4543 H   0  0  0  0  0  0
  -32.3335  -19.1012   22.6967 H   0  0  0  0  0  0
  -28.2546  -16.2598   22.6291 H   0  0  0  0  0  0
  -32.4775  -16.7841   21.8487 H   0  0  0  0  0  0
  -32.2939  -22.0479   25.8472 H   0  0  0  0  0  0
  -30.5821  -22.4389   25.7165 H   0  0  0  0  0  0
  -30.5205  -20.0017   26.0195 H   0  0  0  0  0  0
  -31.9283  -19.8255   24.9927 H   0  0  0  0  0  0
  -32.4855  -21.8391   23.4168 H   0  0  0  0  0  0
  -31.6171  -23.3365   23.6502 H   0  0  0  0  0  0
  -29.0999  -20.4627   24.2396 H   0  0  0  0  0  0
  -27.0476  -24.1620   23.4534 H   0  0  0  0  0  0
  -26.9442  -25.8549   23.0341 H   0  0  0  0  0  0
  -28.3417  -25.2711   23.9175 H   0  0  0  0  0  0
  -27.1114  -23.1150   20.9781 H   0  0  0  0  0  0
  -27.6735  -24.2328   19.7518 H   0  0  0  0  0  0
  -26.3720  -24.6895   20.8544 H   0  0  0  0  0  0
  -28.4126  -21.8783   22.4711 H   0  0  0  0  0  0
  -28.8896  -22.8312   23.8621 H   0  0  0  0  0  0
  -29.9917  -26.1254   21.1196 H   0  0  0  0  0  0
  -28.8028  -26.9134   22.0568 H   0  0  0  0  0  0
  -29.6968  -14.4209   22.3558 H   0  0  0  0  0  0
  -30.7523  -21.3290   22.1538 H   0  0  0  0  0  0
  1 25  1  0  0  0
  1 30  2  0  0  0
  1 87  1  0  0  0
  2  3  1  0  0  0
  2 25  1  0  0  0
  2 90  1  0  0  0
  2 91  1  0  0  0
  3  4  1  0  0  0
  3 92  1  0  0  0
  3 93  1  0  0  0
  4  5  1  0  0  0
  4 94  1  0  0  0
  4 95  1  0  0  0
  5  6  1  0  0  0
  5 26  1  0  0  0
  5 96  1  0  0  0
  6 25  1  0  0  0
  6 97  1  0  0  0
  6 98  1  0  0  0
  7  8  2  0  0  0
  7 26  1  0  0  0
  7 29  1  0  0  0
  8  9  1  0  0  0
  8 22  1  0  0  0
  9 10  1  0  0  0
  9 27  2  0  0  0
 10 11  2  0  0  0
 10 15  1  0  0  0
 11 12  1  0  0  0
 11 99  1  0  0  0
 12 13  2  0  0  0
 12100  1  0  0  0
 13 14  1  0  0  0
 13 31  1  0  0  0
 14 15  2  0  0  0
 14101  1  0  0  0
 15102  1  0  0  0
 16 17  2  0  0  0
 16 21  1  0  0  0
 16 31  1  0  0  0
 17 18  1  0  0  0
 17103  1  0  0  0
 18 19  2  0  0  0
 18104  1  0  0  0
 19 20  1  0  0  0
 19 24  1  0  0  0
 20 21  2  0  0  0
 20105  1  0  0  0
 21 23  1  0  0  0
 22 28  1  0  0  0
 22 32  2  0  0  0
 26 27  1  0  0  0
 28106  1  0  0  0
 28107  1  0  0  0
 29108  1  0  0  0
 29109  1  0  0  0
 33 34  1  0  0  0
 33 66  1  0  0  0
 33 70  2  0  0  0
 34 36  1  0  0  0
 34 59  1  0  0  0
 34110  1  0  0  0
 35 44  2  0  0  0
 35 45  1  0  0  0
 35 68  1  0  0  0
 36 56  1  0  0  0
 36111  1  0  0  0
 37 39  1  0  0  0
 37 47  1  0  0  0
 37 66  1  0  0  0
 37112  1  0  0  0
 38 43  2  0  0  0
 38 46  1  0  0  0
 38 47  1  0  0  0
 39 64  1  0  0  0
 39 67  2  0  0  0
 40 52  1  0  0  0
 40 53  2  0  0  0
 40 58  1  0  0  0
 41113  1  0  0  0
 41114  1  0  0  0
 41115  1  0  0  0
 41 48  1  0  0  0
 42 43  1  0  0  0
 42 66  1  0  0  0
 42116  1  0  0  0
 42117  1  0  0  0
 43 44  1  0  0  0
 44118  1  0  0  0
 45 46  2  0  0  0
 45119  1  0  0  0
 46120  1  0  0  0
 47121  1  0  0  0
 47122  1  0  0  0
 48 56  1  0  0  0
 48 65  1  0  0  0
 48123  1  0  0  0
 49 50  1  0  0  0
 49 53  1  0  0  0
 49 64  1  0  0  0
 49124  1  0  0  0
 50 51  1  0  0  0
 50125  1  0  0  0
 50126  1  0  0  0
 51 52  1  0  0  0
 51127  1  0  0  0
 51128  1  0  0  0
 52129  1  0  0  0
 52130  1  0  0  0
 53 54  1  0  0  0
 54 55  2  0  0  0
 54131  1  0  0  0
 55 57  1  0  0  0
 55132  1  0  0  0
 56 69  2  0  0  0
 57 58  2  0  0  0
 57133  1  0  0  0
 58134  1  0  0  0
 59 60  1  0  0  0
 59 61  1  0  0  0
 59 62  1  0  0  0
 60135  1  0  0  0
 60136  1  0  0  0
 60137  1  0  0  0
 61138  1  0  0  0
 61139  1  0  0  0
 61140  1  0  0  0
 62141  1  0  0  0
 62142  1  0  0  0
 62143  1  0  0  0
 63 65  1  0  0  0
 63144  1  0  0  0
 63145  1  0  0  0
 63146  1  0  0  0
 64147  1  0  0  0
 65148  1  0  0  0
 68 85  1  0  0  0
 71 73  2  0  0  0
 71 75  1  0  0  0
 71149  1  0  0  0
 72 74  1  0  0  0
 72 75  2  0  0  0
 72150  1  0  0  0
 73 76  1  0  0  0
 73151  1  0  0  0
 74 76  2  0  0  0
 74152  1  0  0  0
 75 81  1  0  0  0
 76 87  1  0  0  0
 77 84  1  0  0  0
 77 86  1  0  0  0
 77 89  2  0  0  0
 78 79  1  0  0  0
 78 80  1  0  0  0
 78153  1  0  0  0
 78154  1  0  0  0
 79 81  1  0  0  0
 79155  1  0  0  0
 79156  1  0  0  0
 80 88  1  0  0  0
 80157  1  0  0  0
 80158  1  0  0  0
 81 88  1  0  0  0
 81159  1  0  0  0
 82160  1  0  0  0
 82161  1  0  0  0
 82162  1  0  0  0
 82 86  1  0  0  0
 83 86  1  0  0  0
 83163  1  0  0  0
 83164  1  0  0  0
 83165  1  0  0  0
 84166  1  0  0  0
 84167  1  0  0  0
 84 88  1  0  0  0
 85 86  1  0  0  0
 85168  1  0  0  0
 85169  1  0  0  0
 87170  1  0  0  0
 88171  1  0  0  0
M  CHG  1  88   1
M  ISO  4   1 100  68 101  85 101  87 100
M  END
> <chiral flag>
0

> <version>
0

> <s_m_source_file>
/data/baiqing/PycharmProjects/Reinvent-master-3.2/result/LINK_invent/BTK/process_docking_weight1_custom_product_contain_oxygen_bond_distance_aromatic_linkinvent_7_9_3/rearranged_h_0144.sdf

> <i_m_source_file_index>
44

> <r_mmod_Potential_Energy-OPLS-2005>
-105.116821289062

> <r_mmod_Stretch_Energy-OPLS-2005>
46.2138671875

> <r_mmod_Bend_Energy-OPLS-2005>
142.883209228516

> <r_mmod_Torsional_Energy-OPLS-2005>
320.124633789062

> <r_mmod_Improper_Torsional_Energy-OPLS-2005>
6.51070928573608

> <r_mmod_Van_der_Waal_Energy-OPLS-2005>
157.06803894043

> <r_mmod_Electrostatic_Energy-OPLS-2005>
-343.746643066406

> <r_mmod_Solvation_Energy-OPLS-2005>
-443.349151611328

> <b_mmod_Minimization_Converged-OPLS-2005>
0

> <r_mmod_RMS_Derivative-OPLS-2005>
4.22953224182129

$$$$
44
                    3D
 Structure written by MMmdl.
160169  0  0  1  0            999 V2000
  -30.5071  -14.9724   20.4182 C   0  0  0  0  0  0
  -30.4472  -12.6054   19.4884 C   0  0  0  0  0  0
  -29.5220  -12.5293   18.2505 C   0  0  0  0  0  0
  -28.0557  -12.3087   18.6721 C   0  0  0  0  0  0
  -27.6275  -13.2426   19.8337 C   0  0  2  0  0  0
  -28.6721  -13.2727   20.9685 C   0  0  0  0  0  0
  -25.2461  -13.8199   20.5700 C   0  0  0  0  0  0
  -24.1777  -13.0428   20.9224 C   0  0  0  0  0  0
  -24.6386  -11.6912   20.8746 C   0  0  0  0  0  0
  -23.9070  -10.4288   21.0404 C   0  0  0  0  0  0
  -24.3617   -9.4205   21.9186 C   0  0  0  0  0  0
  -23.6290   -8.2241   22.0759 C   0  0  0  0  0  0
  -22.4276   -8.0277   21.3543 C   0  0  0  0  0  0
  -21.9909   -9.0250   20.4649 C   0  0  0  0  0  0
  -22.7238  -10.2129   20.3056 C   0  0  0  0  0  0
  -21.6855   -6.0730   22.5275 C   0  0  0  0  0  0
  -21.4016   -6.5637   23.8208 C   0  0  0  0  0  0
  -21.3659   -5.6791   24.9171 C   0  0  0  0  0  0
  -21.6043   -4.3053   24.7224 C   0  0  0  0  0  0
  -21.8820   -3.8142   23.4346 C   0  0  0  0  0  0
  -21.9194   -4.6956   22.3399 C   0  0  0  0  0  0
  -22.7799  -13.5206   21.1879 C   0  0  0  0  0  0
  -22.1662   -4.2141   21.0978 F   0  0  0  0  0  0
  -21.5628   -3.4539   25.7741 F   0  0  0  0  0  0
  -29.9404  -13.6992   20.3634 N   0  0  0  0  0  0
  -26.2875  -12.9416   20.3222 N   0  0  0  0  0  0
  -25.9316  -11.6553   20.5729 N   0  0  0  0  0  0
  -22.0446  -12.8197   22.0431 N   0  0  0  0  0  0
  -25.4110  -15.1933   20.4118 N   0  0  0  0  0  0
  -31.7227  -15.0575   20.2060 O   0  0  0  0  0  0
  -21.6640   -6.8872   21.4237 O   0  0  0  0  0  0
  -22.3487  -14.5509   20.6721 O   0  0  0  0  0  0
  -24.6444  -31.8416   23.1850 C   0  0  0  0  0  0
  -25.9211  -32.4679   23.8247 C   0  0  1  0  0  0
  -27.2201  -27.1173   20.1706 C   0  0  0  0  0  0
  -25.5951  -33.8490   24.2167 N   0  0  0  0  0  0
  -23.4492  -30.4572   21.5317 C   0  0  2  0  0  0
  -24.8996  -28.8706   20.1192 C   0  0  0  0  0  0
  -22.7570  -29.4529   22.4869 C   0  0  0  0  0  0
  -18.0301  -28.1401   22.8472 C   0  0  0  0  0  0
  -24.1494  -36.7252   23.2643 C   0  0  0  0  0  0
  -26.0040  -30.7101   21.3841 C   0  0  0  0  0  0
  -26.0764  -29.3153   20.7353 C   0  0  0  0  0  0
  -27.2410  -28.4567   20.7374 C   0  0  0  0  0  0
  -26.0168  -26.7672   19.5270 C   0  0  0  0  0  0
  -24.8816  -27.6098   19.5000 C   0  0  0  0  0  0
  -23.6775  -29.7772   20.1547 C   0  0  0  0  0  0
  -25.4124  -36.3025   24.0315 C   0  0  1  0  0  0
  -20.5913  -28.3724   23.1241 C   0  0  2  0  0  0
  -20.6788  -26.9428   22.5412 C   0  0  0  0  0  0
  -19.5762  -26.6379   21.5218 C   0  0  0  0  0  0
  -18.1937  -26.7935   22.1621 C   0  0  0  0  0  0
  -19.1557  -28.8879   23.2845 C   0  0  0  0  0  0
  -18.9477  -30.1475   23.8873 C   0  0  0  0  0  0
  -17.6476  -30.6598   24.0557 C   0  0  0  0  0  0
  -25.9076  -34.9402   23.5053 C   0  0  0  0  0  0
  -16.5365  -29.9090   23.6343 C   0  0  0  0  0  0
  -16.7286  -28.6511   23.0355 C   0  0  0  0  0  0
  -26.4526  -31.6556   25.0701 C   0  0  0  0  0  0
  -25.3699  -31.3759   26.1394 C   0  0  0  0  0  0
  -27.0398  -30.2950   24.6289 C   0  0  0  0  0  0
  -27.6051  -32.4329   25.7488 C   0  0  0  0  0  0
  -27.5573  -37.1778   24.8461 C   0  0  0  0  0  0
  -21.4260  -29.3046   22.3614 N   0  0  0  0  0  0
  -26.4283  -37.3739   23.9408 N   0  0  0  0  0  0
  -24.7192  -31.0253   22.0889 N   0  0  0  0  0  0
  -23.4205  -28.8086   23.3032 O   0  0  0  0  0  0
  -28.2985  -26.1565   20.1283 O   0  0  0  0  0  0
  -26.5665  -34.8902   22.4634 O   0  0  0  0  0  0
  -23.5561  -32.1303   23.7060 O   0  0  0  0  0  0
  -30.7246  -18.3323   21.2034 C   0  0  0  0  0  0
  -30.5800  -19.8000   21.1700 C   0  0  0  0  0  0
  -29.5401  -20.3518   20.4216 C   0  0  0  0  0  0
  -29.8052  -17.5597   20.5134 C   0  0  0  0  0  0
  -31.5752  -20.6999   21.8441 C   0  0  0  0  0  0
  -31.1195  -22.1702   21.8395 C   0  0  0  0  0  0
  -29.4249  -21.9773   20.0202 C   0  0  1  0  0  0
  -29.4525  -22.0083   18.4808 C   0  0  0  0  0  0
  -27.5592  -24.9931   22.1619 C   0  0  0  0  0  0
  -28.2317  -23.1193   20.4196 C   0  0  0  0  0  0
  -28.3711  -24.7773   20.8681 C   0  0  1  0  0  0
  -29.6583  -16.1210   20.4391 N   0  0  0  0  0  0
  -30.6995  -22.5829   20.4818 N   0  3  0  0  0  0
  -28.6913  -18.8501   19.8068 S   0  0  0  0  0  0
  -31.4759  -12.7858   19.1724 H   0  0  0  0  0  0
  -30.4595  -11.6560   20.0259 H   0  0  0  0  0  0
  -29.8455  -11.7289   17.5840 H   0  0  0  0  0  0
  -29.6010  -13.4552   17.6783 H   0  0  0  0  0  0
  -27.9571  -11.2681   18.9834 H   0  0  0  0  0  0
  -27.3908  -12.4346   17.8167 H   0  0  0  0  0  0
  -27.5872  -14.2421   19.4013 H   0  0  0  0  0  0
  -28.7692  -12.2952   21.4430 H   0  0  0  0  0  0
  -28.3697  -13.9692   21.7523 H   0  0  0  0  0  0
  -25.2762   -9.5684   22.4763 H   0  0  0  0  0  0
  -23.9997   -7.4636   22.7486 H   0  0  0  0  0  0
  -21.0838   -8.8768   19.8957 H   0  0  0  0  0  0
  -22.3693  -10.9667   19.6167 H   0  0  0  0  0  0
  -21.2011   -7.6146   23.9706 H   0  0  0  0  0  0
  -21.1481   -6.0524   25.9071 H   0  0  0  0  0  0
  -22.0598   -2.7605   23.2850 H   0  0  0  0  0  0
  -22.4072  -11.9862   22.4818 H   0  0  0  0  0  0
  -21.1063  -13.1221   22.2639 H   0  0  0  0  0  0
  -24.6362  -15.8384   20.5226 H   0  0  0  0  0  0
  -26.2433  -15.6382   20.0495 H   0  0  0  0  0  0
  -26.7272  -32.5292   23.0974 H   0  0  0  0  0  0
  -25.0074  -33.9601   25.0299 H   0  0  0  0  0  0
  -22.7529  -31.2831   21.3717 H   0  0  0  0  0  0
  -23.3762  -35.9578   23.3288 H   0  0  0  0  0  0
  -24.3576  -36.8910   22.2060 H   0  0  0  0  0  0
  -23.7247  -37.6439   23.6700 H   0  0  0  0  0  0
  -26.1563  -31.4598   20.6065 H   0  0  0  0  0  0
  -26.8755  -30.7671   22.0249 H   0  0  0  0  0  0
  -28.1469  -28.8000   21.2163 H   0  0  0  0  0  0
  -25.9470  -25.8004   19.0484 H   0  0  0  0  0  0
  -23.9827  -27.2645   19.0080 H   0  0  0  0  0  0
  -23.8166  -30.5475   19.3951 H   0  0  0  0  0  0
  -22.7918  -29.2193   19.8452 H   0  0  0  0  0  0
  -25.1312  -36.1841   25.0807 H   0  0  0  0  0  0
  -20.9993  -28.3315   24.1369 H   0  0  0  0  0  0
  -20.5697  -26.2334   23.3632 H   0  0  0  0  0  0
  -21.6652  -26.7443   22.1201 H   0  0  0  0  0  0
  -19.6933  -25.6283   21.1267 H   0  0  0  0  0  0
  -19.6709  -27.3173   20.6737 H   0  0  0  0  0  0
  -17.4212  -26.6687   21.4014 H   0  0  0  0  0  0
  -18.0327  -26.0082   22.9025 H   0  0  0  0  0  0
  -19.7955  -30.7289   24.2235 H   0  0  0  0  0  0
  -17.5033  -31.6279   24.5158 H   0  0  0  0  0  0
  -15.5365  -30.2984   23.7687 H   0  0  0  0  0  0
  -15.8685  -28.0827   22.7084 H   0  0  0  0  0  0
  -24.5891  -30.7096   25.7708 H   0  0  0  0  0  0
  -24.8881  -32.2951   26.4735 H   0  0  0  0  0  0
  -25.7974  -30.8984   27.0222 H   0  0  0  0  0  0
  -26.3022  -29.6661   24.1294 H   0  0  0  0  0  0
  -27.4008  -29.7262   25.4868 H   0  0  0  0  0  0
  -27.8927  -30.4187   23.9612 H   0  0  0  0  0  0
  -27.2642  -33.3660   26.1983 H   0  0  0  0  0  0
  -28.3900  -32.6836   25.0341 H   0  0  0  0  0  0
  -28.0672  -31.8506   26.5471 H   0  0  0  0  0  0
  -28.2569  -38.0089   24.7509 H   0  0  0  0  0  0
  -28.1087  -36.2619   24.6285 H   0  0  0  0  0  0
  -27.2293  -37.1416   25.8863 H   0  0  0  0  0  0
  -20.9478  -29.8758   21.6786 H   0  0  0  0  0  0
  -26.0148  -38.2807   24.1416 H   0  0  0  0  0  0
  -31.5365  -17.8901   21.7646 H   0  0  0  0  0  0
  -32.5419  -20.6153   21.3459 H   0  0  0  0  0  0
  -31.7437  -20.3798   22.8730 H   0  0  0  0  0  0
  -31.9321  -22.8099   22.1850 H   0  0  0  0  0  0
  -30.2904  -22.3168   22.5334 H   0  0  0  0  0  0
  -28.5535  -21.5470   18.0702 H   0  0  0  0  0  0
  -30.3037  -21.4588   18.0774 H   0  0  0  0  0  0
  -29.4992  -23.0265   18.0921 H   0  0  0  0  0  0
  -27.7656  -24.2217   22.9043 H   0  0  0  0  0  0
  -26.4875  -24.9812   21.9622 H   0  0  0  0  0  0
  -27.8006  -25.9470   22.6318 H   0  0  0  0  0  0
  -27.8006  -22.6477   21.3022 H   0  0  0  0  0  0
  -27.4114  -23.0349   19.7068 H   0  0  0  0  0  0
  -29.4035  -24.8239   21.2138 H   0  0  0  0  0  0
  -28.6935  -15.8366   20.3725 H   0  0  0  0  0  0
  -31.4303  -22.3145   19.8440 H   0  0  0  0  0  0
  -30.6260  -23.5859   20.4438 H   0  0  0  0  0  0
  1 25  1  0  0  0
  1 30  2  0  0  0
  1 82  1  0  0  0
  2  3  1  0  0  0
  2 25  1  0  0  0
  2 85  1  0  0  0
  2 86  1  0  0  0
  3  4  1  0  0  0
  3 87  1  0  0  0
  3 88  1  0  0  0
  4  5  1  0  0  0
  4 89  1  0  0  0
  4 90  1  0  0  0
  5  6  1  0  0  0
  5 26  1  0  0  0
  5 91  1  0  0  0
  6 25  1  0  0  0
  6 92  1  0  0  0
  6 93  1  0  0  0
  7  8  2  0  0  0
  7 26  1  0  0  0
  7 29  1  0  0  0
  8  9  1  0  0  0
  8 22  1  0  0  0
  9 10  1  0  0  0
  9 27  2  0  0  0
 10 11  2  0  0  0
 10 15  1  0  0  0
 11 12  1  0  0  0
 11 94  1  0  0  0
 12 13  2  0  0  0
 12 95  1  0  0  0
 13 14  1  0  0  0
 13 31  1  0  0  0
 14 15  2  0  0  0
 14 96  1  0  0  0
 15 97  1  0  0  0
 16 17  2  0  0  0
 16 21  1  0  0  0
 16 31  1  0  0  0
 17 18  1  0  0  0
 17 98  1  0  0  0
 18 19  2  0  0  0
 18 99  1  0  0  0
 19 20  1  0  0  0
 19 24  1  0  0  0
 20 21  2  0  0  0
 20100  1  0  0  0
 21 23  1  0  0  0
 22 28  1  0  0  0
 22 32  2  0  0  0
 26 27  1  0  0  0
 28101  1  0  0  0
 28102  1  0  0  0
 29103  1  0  0  0
 29104  1  0  0  0
 33 34  1  0  0  0
 33 66  1  0  0  0
 33 70  2  0  0  0
 34 36  1  0  0  0
 34 59  1  0  0  0
 34105  1  0  0  0
 35 44  2  0  0  0
 35 45  1  0  0  0
 35 68  1  0  0  0
 36 56  1  0  0  0
 36106  1  0  0  0
 37 39  1  0  0  0
 37 47  1  0  0  0
 37 66  1  0  0  0
 37107  1  0  0  0
 38 43  2  0  0  0
 38 46  1  0  0  0
 38 47  1  0  0  0
 39 64  1  0  0  0
 39 67  2  0  0  0
 40 52  1  0  0  0
 40 53  2  0  0  0
 40 58  1  0  0  0
 41108  1  0  0  0
 41109  1  0  0  0
 41110  1  0  0  0
 41 48  1  0  0  0
 42 43  1  0  0  0
 42 66  1  0  0  0
 42111  1  0  0  0
 42112  1  0  0  0
 43 44  1  0  0  0
 44113  1  0  0  0
 45 46  2  0  0  0
 45114  1  0  0  0
 46115  1  0  0  0
 47116  1  0  0  0
 47117  1  0  0  0
 48 56  1  0  0  0
 48 65  1  0  0  0
 48118  1  0  0  0
 49 50  1  0  0  0
 49 53  1  0  0  0
 49 64  1  0  0  0
 49119  1  0  0  0
 50 51  1  0  0  0
 50120  1  0  0  0
 50121  1  0  0  0
 51 52  1  0  0  0
 51122  1  0  0  0
 51123  1  0  0  0
 52124  1  0  0  0
 52125  1  0  0  0
 53 54  1  0  0  0
 54 55  2  0  0  0
 54126  1  0  0  0
 55 57  1  0  0  0
 55127  1  0  0  0
 56 69  2  0  0  0
 57 58  2  0  0  0
 57128  1  0  0  0
 58129  1  0  0  0
 59 60  1  0  0  0
 59 61  1  0  0  0
 59 62  1  0  0  0
 60130  1  0  0  0
 60131  1  0  0  0
 60132  1  0  0  0
 61133  1  0  0  0
 61134  1  0  0  0
 61135  1  0  0  0
 62136  1  0  0  0
 62137  1  0  0  0
 62138  1  0  0  0
 63 65  1  0  0  0
 63139  1  0  0  0
 63140  1  0  0  0
 63141  1  0  0  0
 64142  1  0  0  0
 65143  1  0  0  0
 68 81  1  0  0  0
 71 72  1  0  0  0
 71 74  2  0  0  0
 71144  1  0  0  0
 72 73  2  0  0  0
 72 75  1  0  0  0
 73 77  1  0  0  0
 73 84  1  0  0  0
 74 82  1  0  0  0
 74 84  1  0  0  0
 75 76  1  0  0  0
 75145  1  0  0  0
 75146  1  0  0  0
 76 83  1  0  0  0
 76147  1  0  0  0
 76148  1  0  0  0
 77 78  1  0  0  0
 77 80  1  0  0  0
 77 83  1  0  0  0
 78149  1  0  0  0
 78150  1  0  0  0
 78151  1  0  0  0
 79152  1  0  0  0
 79153  1  0  0  0
 79154  1  0  0  0
 79 81  1  0  0  0
 80 81  1  0  0  0
 80155  1  0  0  0
 80156  1  0  0  0
 81157  1  0  0  0
 82158  1  0  0  0
 83159  1  0  0  0
 83160  1  0  0  0
M  CHG  1  83   1
M  ISO  4   1 100  68 101  81 101  82 100
M  END
> <chiral flag>
0

> <version>
0

> <s_m_source_file>
/data/baiqing/PycharmProjects/Reinvent-master-3.2/result/LINK_invent/BTK/process_docking_weight1_custom_product_contain_oxygen_bond_distance_aromatic_linkinvent_7_9_3/rearranged_h_0144.sdf

> <i_m_source_file_index>
45

> <r_mmod_Potential_Energy-OPLS-2005>
460.497009277344

> <r_mmod_Stretch_Energy-OPLS-2005>
280.606842041016

> <r_mmod_Bend_Energy-OPLS-2005>
355.345489501953

> <r_mmod_Torsional_Energy-OPLS-2005>
273.751708984375

> <r_mmod_Improper_Torsional_Energy-OPLS-2005>
8.2847957611084

> <r_mmod_Van_der_Waal_Energy-OPLS-2005>
112.931526184082

> <r_mmod_Electrostatic_Energy-OPLS-2005>
-315.020446777344

> <r_mmod_Solvation_Energy-OPLS-2005>
-460.866577148438

> <b_mmod_Minimization_Converged-OPLS-2005>
0

> <r_mmod_RMS_Derivative-OPLS-2005>
0.824162542819977

$$$$
45
                    3D
 Structure written by MMmdl.
161169  0  0  1  0            999 V2000
  -30.7284  -14.3804   20.7255 C   0  0  0  0  0  0
  -30.4361  -12.3189   19.3950 C   0  0  0  0  0  0
  -29.4950  -12.5561   18.1985 C   0  0  0  0  0  0
  -28.0145  -12.4052   18.6040 C   0  0  0  0  0  0
  -27.6695  -13.2008   19.8912 C   0  0  2  0  0  0
  -28.7042  -12.9048   20.9977 C   0  0  0  0  0  0
  -25.2582  -13.8153   20.5673 C   0  0  0  0  0  0
  -24.1838  -13.0440   20.9162 C   0  0  0  0  0  0
  -24.6379  -11.6903   20.8708 C   0  0  0  0  0  0
  -23.9043  -10.4287   21.0377 C   0  0  0  0  0  0
  -24.3604   -9.4216   21.9161 C   0  0  0  0  0  0
  -23.6289   -8.2254   22.0741 C   0  0  0  0  0  0
  -22.4275   -8.0279   21.3535 C   0  0  0  0  0  0
  -21.9896   -9.0247   20.4643 C   0  0  0  0  0  0
  -22.7213  -10.2127   20.3042 C   0  0  0  0  0  0
  -21.6851   -6.0734   22.5282 C   0  0  0  0  0  0
  -21.4016   -6.5633   23.8219 C   0  0  0  0  0  0
  -21.3650   -5.6787   24.9174 C   0  0  0  0  0  0
  -21.6060   -4.3056   24.7232 C   0  0  0  0  0  0
  -21.8811   -3.8142   23.4349 C   0  0  0  0  0  0
  -21.9199   -4.6959   22.3408 C   0  0  0  0  0  0
  -22.7856  -13.5226   21.1852 C   0  0  0  0  0  0
  -22.1662   -4.2144   21.0985 F   0  0  0  0  0  0
  -21.5629   -3.4540   25.7737 F   0  0  0  0  0  0
  -30.0422  -13.2364   20.4741 N   0  0  0  0  0  0
  -26.3032  -12.9316   20.3388 N   0  0  0  0  0  0
  -25.9305  -11.6473   20.5746 N   0  0  0  0  0  0
  -22.0517  -12.8212   22.0412 N   0  0  0  0  0  0
  -25.4333  -15.1884   20.4062 N   0  0  0  0  0  0
  -31.7784  -14.6733   20.1418 O   0  0  0  0  0  0
  -21.6645   -6.8877   21.4243 O   0  0  0  0  0  0
  -22.3536  -14.5557   20.6734 O   0  0  0  0  0  0
  -24.6096  -31.8643   23.2071 C   0  0  0  0  0  0
  -25.8995  -32.4818   23.8313 C   0  0  1  0  0  0
  -27.2443  -27.4554   20.1048 C   0  0  0  0  0  0
  -25.5862  -33.8608   24.2272 N   0  0  0  0  0  0
  -23.3973  -30.4818   21.5496 C   0  0  2  0  0  0
  -24.8494  -28.9480   20.1130 C   0  0  0  0  0  0
  -22.7372  -29.4607   22.5036 C   0  0  0  0  0  0
  -18.0220  -28.1393   22.8495 C   0  0  0  0  0  0
  -24.1496  -36.7355   23.2631 C   0  0  0  0  0  0
  -25.9164  -30.8419   21.3471 C   0  0  0  0  0  0
  -26.0028  -29.4733   20.7074 C   0  0  0  0  0  0
  -27.2041  -28.7339   20.7001 C   0  0  0  0  0  0
  -26.0811  -26.9351   19.5020 C   0  0  0  0  0  0
  -24.8844  -27.6799   19.5032 C   0  0  0  0  0  0
  -23.6021  -29.8030   20.1667 C   0  0  0  0  0  0
  -25.4105  -36.3105   24.0308 C   0  0  1  0  0  0
  -20.5815  -28.3633   23.1382 C   0  0  2  0  0  0
  -20.6749  -26.9395   22.5445 C   0  0  0  0  0  0
  -19.5740  -26.6399   21.5230 C   0  0  0  0  0  0
  -18.1894  -26.7941   22.1609 C   0  0  0  0  0  0
  -19.1472  -28.8838   23.2913 C   0  0  0  0  0  0
  -18.9407  -30.1460   23.8895 C   0  0  0  0  0  0
  -17.6407  -30.6600   24.0577 C   0  0  0  0  0  0
  -25.9017  -34.9465   23.5076 C   0  0  0  0  0  0
  -16.5303  -29.9095   23.6361 C   0  0  0  0  0  0
  -16.7212  -28.6541   23.0333 C   0  0  0  0  0  0
  -26.4434  -31.6571   25.0590 C   0  0  0  0  0  0
  -25.3730  -31.3573   26.1348 C   0  0  0  0  0  0
  -27.0255  -30.3048   24.5844 C   0  0  0  0  0  0
  -27.6036  -32.4268   25.7339 C   0  0  0  0  0  0
  -27.5581  -37.1766   24.8452 C   0  0  0  0  0  0
  -21.4104  -29.2989   22.3792 N   0  0  0  0  0  0
  -26.4293  -37.3775   23.9396 N   0  0  0  0  0  0
  -24.6595  -31.0735   22.0968 N   0  0  0  0  0  0
  -23.4145  -28.8162   23.3095 O   0  0  0  0  0  0
  -28.4272  -26.7579   20.0781 O   0  0  0  0  0  0
  -26.5578  -34.8926   22.4636 O   0  0  0  0  0  0
  -23.5299  -32.1384   23.7488 O   0  0  0  0  0  0
  -32.3817  -18.0094   22.7133 C   0  0  0  0  0  0
  -31.4375  -19.0460   22.8292 C   0  0  0  0  0  0
  -31.9670  -16.7170   22.3404 C   0  0  0  0  0  0
  -29.6430  -17.4783   22.2865 C   0  0  0  0  0  0
  -30.0659  -18.7885   22.6139 C   0  0  0  0  0  0
  -30.6002  -16.4528   22.0897 C   0  0  0  0  0  0
  -29.1133  -19.9035   22.6451 C   0  0  0  0  0  0
  -28.6579  -22.1833   21.6842 C   0  0  0  0  0  0
  -27.7759  -25.6758   22.2497 C   0  0  0  0  0  0
  -29.2936  -23.1311   20.6584 C   0  0  0  0  0  0
  -28.4096  -24.3031   20.1523 C   0  0  0  0  0  0
  -28.5882  -25.6206   20.9406 C   0  0  2  0  0  0
  -30.1573  -15.1761   21.6496 N   0  0  0  0  0  0
  -29.3996  -20.9741   21.8772 N   0  0  0  0  0  0
  -28.0070  -19.8213   23.3941 N   0  3  0  0  0  0
  -27.6054  -22.4240   22.2822 O   0  0  0  0  0  0
  -31.4712  -12.4664   19.0829 H   0  0  0  0  0  0
  -30.3788  -11.2870   19.7421 H   0  0  0  0  0  0
  -29.7366  -11.8749   17.3826 H   0  0  0  0  0  0
  -29.6589  -13.5627   17.8113 H   0  0  0  0  0  0
  -27.8069  -11.3456   18.7533 H   0  0  0  0  0  0
  -27.3714  -12.7320   17.7858 H   0  0  0  0  0  0
  -27.7371  -14.2618   19.6490 H   0  0  0  0  0  0
  -28.6759  -11.8462   21.2590 H   0  0  0  0  0  0
  -28.4412  -13.4229   21.9192 H   0  0  0  0  0  0
  -25.2754   -9.5703   22.4722 H   0  0  0  0  0  0
  -24.0017   -7.4640   22.7446 H   0  0  0  0  0  0
  -21.0833   -8.8749   19.8944 H   0  0  0  0  0  0
  -22.3663  -10.9657   19.6149 H   0  0  0  0  0  0
  -21.2007   -7.6141   23.9716 H   0  0  0  0  0  0
  -21.1478   -6.0518   25.9079 H   0  0  0  0  0  0
  -22.0603   -2.7605   23.2855 H   0  0  0  0  0  0
  -22.4132  -11.9847   22.4763 H   0  0  0  0  0  0
  -21.1142  -13.1220   22.2667 H   0  0  0  0  0  0
  -24.6645  -15.8436   20.4990 H   0  0  0  0  0  0
  -26.2883  -15.6209   20.0787 H   0  0  0  0  0  0
  -26.7044  -32.5569   23.1063 H   0  0  0  0  0  0
  -25.0066  -33.9784   25.0448 H   0  0  0  0  0  0
  -22.6837  -31.2962   21.4089 H   0  0  0  0  0  0
  -23.3741  -35.9698   23.3273 H   0  0  0  0  0  0
  -24.3634  -36.9017   22.2063 H   0  0  0  0  0  0
  -23.7286  -37.6551   23.6684 H   0  0  0  0  0  0
  -25.9985  -31.5978   20.5649 H   0  0  0  0  0  0
  -26.8158  -30.9184   21.9451 H   0  0  0  0  0  0
  -28.1021  -29.1361   21.1495 H   0  0  0  0  0  0
  -26.1100  -25.9661   19.0258 H   0  0  0  0  0  0
  -24.0006  -27.2729   19.0316 H   0  0  0  0  0  0
  -23.6864  -30.5679   19.3949 H   0  0  0  0  0  0
  -22.7333  -29.2023   19.8934 H   0  0  0  0  0  0
  -25.1274  -36.1942   25.0787 H   0  0  0  0  0  0
  -20.9843  -28.3215   24.1528 H   0  0  0  0  0  0
  -20.5702  -26.2219   23.3594 H   0  0  0  0  0  0
  -21.6612  -26.7531   22.1197 H   0  0  0  0  0  0
  -19.6911  -25.6316   21.1247 H   0  0  0  0  0  0
  -19.6718  -27.3226   20.6781 H   0  0  0  0  0  0
  -17.4172  -26.6694   21.3994 H   0  0  0  0  0  0
  -18.0286  -26.0073   22.8999 H   0  0  0  0  0  0
  -19.7876  -30.7280   24.2259 H   0  0  0  0  0  0
  -17.4964  -31.6291   24.5165 H   0  0  0  0  0  0
  -15.5300  -30.2971   23.7744 H   0  0  0  0  0  0
  -15.8612  -28.0892   22.6999 H   0  0  0  0  0  0
  -24.5968  -30.6867   25.7674 H   0  0  0  0  0  0
  -24.8828  -32.2671   26.4814 H   0  0  0  0  0  0
  -25.8116  -30.8754   27.0101 H   0  0  0  0  0  0
  -26.2728  -29.6755   24.1098 H   0  0  0  0  0  0
  -27.4354  -29.7298   25.4165 H   0  0  0  0  0  0
  -27.8394  -30.4446   23.8726 H   0  0  0  0  0  0
  -27.2692  -33.3594   26.1903 H   0  0  0  0  0  0
  -28.3821  -32.6791   25.0121 H   0  0  0  0  0  0
  -28.0687  -31.8376   26.5238 H   0  0  0  0  0  0
  -28.2545  -38.0115   24.7574 H   0  0  0  0  0  0
  -28.1122  -36.2639   24.6189 H   0  0  0  0  0  0
  -27.2303  -37.1340   25.8854 H   0  0  0  0  0  0
  -20.9251  -29.8718   21.7038 H   0  0  0  0  0  0
  -26.0190  -38.2834   24.1455 H   0  0  0  0  0  0
  -33.4304  -18.2123   22.8839 H   0  0  0  0  0  0
  -31.7752  -20.0412   23.0850 H   0  0  0  0  0  0
  -32.7105  -15.9393   22.2390 H   0  0  0  0  0  0
  -28.5922  -17.2796   22.1183 H   0  0  0  0  0  0
  -27.8860  -26.6374   22.7534 H   0  0  0  0  0  0
  -28.1125  -24.9102   22.9451 H   0  0  0  0  0  0
  -26.7115  -25.5071   22.0777 H   0  0  0  0  0  0
  -29.5749  -22.5229   19.7993 H   0  0  0  0  0  0
  -30.2344  -23.5053   21.0630 H   0  0  0  0  0  0
  -27.3583  -24.0145   20.1017 H   0  0  0  0  0  0
  -28.6992  -24.4913   19.1179 H   0  0  0  0  0  0
  -29.6367  -25.6931   21.2298 H   0  0  0  0  0  0
  -29.2448  -14.8799   21.9571 H   0  0  0  0  0  0
  -30.2538  -20.8087   21.3684 H   0  0  0  0  0  0
  -27.8577  -19.0386   24.0166 H   0  0  0  0  0  0
  -27.3690  -20.6069   23.4195 H   0  0  0  0  0  0
  1 25  1  0  0  0
  1 30  2  0  0  0
  1 83  1  0  0  0
  2  3  1  0  0  0
  2 25  1  0  0  0
  2 87  1  0  0  0
  2 88  1  0  0  0
  3  4  1  0  0  0
  3 89  1  0  0  0
  3 90  1  0  0  0
  4  5  1  0  0  0
  4 91  1  0  0  0
  4 92  1  0  0  0
  5  6  1  0  0  0
  5 26  1  0  0  0
  5 93  1  0  0  0
  6 25  1  0  0  0
  6 94  1  0  0  0
  6 95  1  0  0  0
  7  8  2  0  0  0
  7 26  1  0  0  0
  7 29  1  0  0  0
  8  9  1  0  0  0
  8 22  1  0  0  0
  9 10  1  0  0  0
  9 27  2  0  0  0
 10 11  2  0  0  0
 10 15  1  0  0  0
 11 12  1  0  0  0
 11 96  1  0  0  0
 12 13  2  0  0  0
 12 97  1  0  0  0
 13 14  1  0  0  0
 13 31  1  0  0  0
 14 15  2  0  0  0
 14 98  1  0  0  0
 15 99  1  0  0  0
 16 17  2  0  0  0
 16 21  1  0  0  0
 16 31  1  0  0  0
 17 18  1  0  0  0
 17100  1  0  0  0
 18 19  2  0  0  0
 18101  1  0  0  0
 19 20  1  0  0  0
 19 24  1  0  0  0
 20 21  2  0  0  0
 20102  1  0  0  0
 21 23  1  0  0  0
 22 28  1  0  0  0
 22 32  2  0  0  0
 26 27  1  0  0  0
 28103  1  0  0  0
 28104  1  0  0  0
 29105  1  0  0  0
 29106  1  0  0  0
 33 34  1  0  0  0
 33 66  1  0  0  0
 33 70  2  0  0  0
 34 36  1  0  0  0
 34 59  1  0  0  0
 34107  1  0  0  0
 35 44  2  0  0  0
 35 45  1  0  0  0
 35 68  1  0  0  0
 36 56  1  0  0  0
 36108  1  0  0  0
 37 39  1  0  0  0
 37 47  1  0  0  0
 37 66  1  0  0  0
 37109  1  0  0  0
 38 43  2  0  0  0
 38 46  1  0  0  0
 38 47  1  0  0  0
 39 64  1  0  0  0
 39 67  2  0  0  0
 40 52  1  0  0  0
 40 53  2  0  0  0
 40 58  1  0  0  0
 41110  1  0  0  0
 41111  1  0  0  0
 41112  1  0  0  0
 41 48  1  0  0  0
 42 43  1  0  0  0
 42 66  1  0  0  0
 42113  1  0  0  0
 42114  1  0  0  0
 43 44  1  0  0  0
 44115  1  0  0  0
 45 46  2  0  0  0
 45116  1  0  0  0
 46117  1  0  0  0
 47118  1  0  0  0
 47119  1  0  0  0
 48 56  1  0  0  0
 48 65  1  0  0  0
 48120  1  0  0  0
 49 50  1  0  0  0
 49 53  1  0  0  0
 49 64  1  0  0  0
 49121  1  0  0  0
 50 51  1  0  0  0
 50122  1  0  0  0
 50123  1  0  0  0
 51 52  1  0  0  0
 51124  1  0  0  0
 51125  1  0  0  0
 52126  1  0  0  0
 52127  1  0  0  0
 53 54  1  0  0  0
 54 55  2  0  0  0
 54128  1  0  0  0
 55 57  1  0  0  0
 55129  1  0  0  0
 56 69  2  0  0  0
 57 58  2  0  0  0
 57130  1  0  0  0
 58131  1  0  0  0
 59 60  1  0  0  0
 59 61  1  0  0  0
 59 62  1  0  0  0
 60132  1  0  0  0
 60133  1  0  0  0
 60134  1  0  0  0
 61135  1  0  0  0
 61136  1  0  0  0
 61137  1  0  0  0
 62138  1  0  0  0
 62139  1  0  0  0
 62140  1  0  0  0
 63 65  1  0  0  0
 63141  1  0  0  0
 63142  1  0  0  0
 63143  1  0  0  0
 64144  1  0  0  0
 65145  1  0  0  0
 68 82  1  0  0  0
 71 72  2  0  0  0
 71 73  1  0  0  0
 71146  1  0  0  0
 72 75  1  0  0  0
 72147  1  0  0  0
 73 76  2  0  0  0
 73148  1  0  0  0
 74 75  2  0  0  0
 74 76  1  0  0  0
 74149  1  0  0  0
 75 77  1  0  0  0
 76 83  1  0  0  0
 77 84  1  0  0  0
 77 85  2  0  0  0
 78 80  1  0  0  0
 78 84  1  0  0  0
 78 86  2  0  0  0
 79150  1  0  0  0
 79151  1  0  0  0
 79152  1  0  0  0
 79 82  1  0  0  0
 80 81  1  0  0  0
 80153  1  0  0  0
 80154  1  0  0  0
 81 82  1  0  0  0
 81155  1  0  0  0
 81156  1  0  0  0
 82157  1  0  0  0
 83158  1  0  0  0
 84159  1  0  0  0
 85160  1  0  0  0
 85161  1  0  0  0
M  CHG  1  85   1
M  ISO  4   1 100  68 101  82 101  83 100
M  END
> <chiral flag>
0

> <version>
0

> <s_m_source_file>
/data/baiqing/PycharmProjects/Reinvent-master-3.2/result/LINK_invent/BTK/process_docking_weight1_custom_product_contain_oxygen_bond_distance_aromatic_linkinvent_7_9_3/rearranged_h_0144.sdf

> <i_m_source_file_index>
46

> <r_mmod_Potential_Energy-OPLS-2005>
-372.105621337891

> <r_mmod_Stretch_Energy-OPLS-2005>
33.9120330810547

> <r_mmod_Bend_Energy-OPLS-2005>
117.328666687012

> <r_mmod_Torsional_Energy-OPLS-2005>
242.757461547852

> <r_mmod_Improper_Torsional_Energy-OPLS-2005>
2.48686718940735

> <r_mmod_Van_der_Waal_Energy-OPLS-2005>
161.19612121582

> <r_mmod_Electrostatic_Energy-OPLS-2005>
-490.907501220703

> <r_mmod_Solvation_Energy-OPLS-2005>
-447.539459228516

> <b_mmod_Minimization_Converged-OPLS-2005>
0

> <r_mmod_RMS_Derivative-OPLS-2005>
4.28508567810059

$$$$
46
                    3D
 Structure written by MMmdl.
170179  0  0  1  0            999 V2000
  -30.7892  -14.2916   20.6848 C   0  0  0  0  0  0
  -30.4085  -12.2440   19.3845 C   0  0  0  0  0  0
  -29.4788  -12.5237   18.1895 C   0  0  0  0  0  0
  -28.0022  -12.3967   18.6038 C   0  0  0  0  0  0
  -27.6724  -13.2001   19.8886 C   0  0  2  0  0  0
  -28.7071  -12.9058   20.9980 C   0  0  0  0  0  0
  -25.2624  -13.8167   20.5694 C   0  0  0  0  0  0
  -24.1863  -13.0454   20.9183 C   0  0  0  0  0  0
  -24.6408  -11.6918   20.8738 C   0  0  0  0  0  0
  -23.9069  -10.4307   21.0418 C   0  0  0  0  0  0
  -24.3619   -9.4214   21.9188 C   0  0  0  0  0  0
  -23.6302   -8.2244   22.0756 C   0  0  0  0  0  0
  -22.4277   -8.0288   21.3550 C   0  0  0  0  0  0
  -21.9925   -9.0256   20.4634 C   0  0  0  0  0  0
  -22.7255  -10.2140   20.3051 C   0  0  0  0  0  0
  -21.6850   -6.0741   22.5284 C   0  0  0  0  0  0
  -21.4010   -6.5641   23.8222 C   0  0  0  0  0  0
  -21.3659   -5.6787   24.9179 C   0  0  0  0  0  0
  -21.6051   -4.3053   24.7222 C   0  0  0  0  0  0
  -21.8817   -3.8150   23.4338 C   0  0  0  0  0  0
  -21.9189   -4.6972   22.3397 C   0  0  0  0  0  0
  -22.7880  -13.5241   21.1858 C   0  0  0  0  0  0
  -22.1657   -4.2166   21.0973 F   0  0  0  0  0  0
  -21.5636   -3.4528   25.7731 F   0  0  0  0  0  0
  -30.0618  -13.1691   20.4691 N   0  0  0  0  0  0
  -26.3077  -12.9337   20.3425 N   0  0  0  0  0  0
  -25.9328  -11.6502   20.5765 N   0  0  0  0  0  0
  -22.0512  -12.8218   22.0394 N   0  0  0  0  0  0
  -25.4370  -15.1883   20.4077 N   0  0  0  0  0  0
  -31.7943  -14.5923   20.0310 O   0  0  0  0  0  0
  -21.6634   -6.8895   21.4250 O   0  0  0  0  0  0
  -22.3571  -14.5558   20.6726 O   0  0  0  0  0  0
  -24.6068  -31.8723   23.2140 C   0  0  0  0  0  0
  -25.8990  -32.4845   23.8422 C   0  0  1  0  0  0
  -27.2537  -27.4993   20.0677 C   0  0  0  0  0  0
  -25.5874  -33.8644   24.2359 N   0  0  0  0  0  0
  -23.3905  -30.4946   21.5524 C   0  0  2  0  0  0
  -24.8367  -28.9600   20.1172 C   0  0  0  0  0  0
  -22.7356  -29.4686   22.5029 C   0  0  0  0  0  0
  -18.0266  -28.1365   22.8535 C   0  0  0  0  0  0
  -24.1478  -36.7317   23.2643 C   0  0  0  0  0  0
  -25.9112  -30.8524   21.3582 C   0  0  0  0  0  0
  -25.9874  -29.4890   20.7102 C   0  0  0  0  0  0
  -27.1883  -28.7601   20.6891 C   0  0  0  0  0  0
  -26.0753  -26.9527   19.5072 C   0  0  0  0  0  0
  -24.8707  -27.6853   19.5219 C   0  0  0  0  0  0
  -23.5941  -29.8182   20.1684 C   0  0  0  0  0  0
  -25.4108  -36.3130   24.0348 C   0  0  1  0  0  0
  -20.5848  -28.3648   23.1350 C   0  0  2  0  0  0
  -20.6747  -26.9395   22.5429 C   0  0  0  0  0  0
  -19.5709  -26.6390   21.5239 C   0  0  0  0  0  0
  -18.1894  -26.7922   22.1649 C   0  0  0  0  0  0
  -19.1512  -28.8829   23.2943 C   0  0  0  0  0  0
  -18.9439  -30.1442   23.8931 C   0  0  0  0  0  0
  -17.6441  -30.6573   24.0582 C   0  0  0  0  0  0
  -25.9027  -34.9489   23.5150 C   0  0  0  0  0  0
  -16.5339  -29.9080   23.6324 C   0  0  0  0  0  0
  -16.7263  -28.6488   23.0372 C   0  0  0  0  0  0
  -26.4447  -31.6614   25.0728 C   0  0  0  0  0  0
  -25.3736  -31.3667   26.1482 C   0  0  0  0  0  0
  -27.0301  -30.3080   24.6062 C   0  0  0  0  0  0
  -27.6006  -32.4344   25.7497 C   0  0  0  0  0  0
  -27.5585  -37.1820   24.8466 C   0  0  0  0  0  0
  -21.4094  -29.3026   22.3756 N   0  0  0  0  0  0
  -26.4288  -37.3815   23.9418 N   0  0  0  0  0  0
  -24.6541  -31.0877   22.1006 N   0  0  0  0  0  0
  -23.4159  -28.8250   23.3069 O   0  0  0  0  0  0
  -28.5036  -26.9226   20.0751 O   0  0  0  0  0  0
  -26.5579  -34.8926   22.4699 O   0  0  0  0  0  0
  -23.5280  -32.1448   23.7580 O   0  0  0  0  0  0
  -31.1595  -18.6093   21.0601 C   0  0  0  0  0  0
  -31.3548  -17.2491   21.3393 C   0  0  0  0  0  0
  -28.9474  -16.9714   21.6432 C   0  0  0  0  0  0
  -28.7451  -18.3351   21.3738 C   0  0  0  0  0  0
  -29.8562  -19.1535   21.0418 C   0  0  0  0  0  0
  -30.2396  -16.4229   21.5845 C   0  0  0  0  0  0
  -28.4184  -24.5015   20.1315 C   0  0  0  0  0  0
  -28.2109  -22.0542   19.5151 C   0  0  0  0  0  0
  -29.9714  -22.8356   21.1885 C   0  0  0  0  0  0
  -28.9713  -20.7293   19.4148 C   0  0  0  0  0  0
  -30.6650  -21.4805   21.0481 C   0  0  0  0  0  0
  -29.1723  -23.1933   19.9113 C   0  0  0  0  0  0
  -27.3219  -18.8725   21.4473 C   0  0  0  0  0  0
  -30.4450  -25.8986   19.4826 C   0  0  0  0  0  0
  -28.5353  -25.7342   17.8702 C   0  0  0  0  0  0
  -28.9109  -25.7502   19.3687 C   0  0  0  0  0  0
  -29.6648  -20.4900   20.6765 N   0  0  0  0  0  0
  -30.3674  -15.0314   21.7115 N   0  0  0  0  0  0
  -27.4719  -24.5426   20.9241 O   0  0  0  0  0  0
  -31.4548  -12.3255   19.0803 H   0  0  0  0  0  0
  -30.2827  -11.2166   19.7274 H   0  0  0  0  0  0
  -29.6953  -11.8324   17.3748 H   0  0  0  0  0  0
  -29.6685  -13.5254   17.7997 H   0  0  0  0  0  0
  -27.7877  -11.3394   18.7607 H   0  0  0  0  0  0
  -27.3561  -12.7187   17.7874 H   0  0  0  0  0  0
  -27.7428  -14.2592   19.6410 H   0  0  0  0  0  0
  -28.6452  -11.8587   21.2971 H   0  0  0  0  0  0
  -28.4603  -13.4699   21.8972 H   0  0  0  0  0  0
  -25.2760   -9.5681   22.4765 H   0  0  0  0  0  0
  -24.0005   -7.4636   22.7473 H   0  0  0  0  0  0
  -21.0869   -8.8774   19.8924 H   0  0  0  0  0  0
  -22.3725  -10.9679   19.6151 H   0  0  0  0  0  0
  -21.1994   -7.6145   23.9732 H   0  0  0  0  0  0
  -21.1493   -6.0516   25.9092 H   0  0  0  0  0  0
  -22.0594   -2.7618   23.2832 H   0  0  0  0  0  0
  -22.4116  -11.9841   22.4732 H   0  0  0  0  0  0
  -21.1124  -13.1220   22.2596 H   0  0  0  0  0  0
  -24.6736  -15.8481   20.5049 H   0  0  0  0  0  0
  -26.2902  -15.6165   20.0720 H   0  0  0  0  0  0
  -26.7068  -32.5587   23.1203 H   0  0  0  0  0  0
  -25.0057  -33.9831   25.0526 H   0  0  0  0  0  0
  -22.6752  -31.3077   21.4120 H   0  0  0  0  0  0
  -23.3759  -35.9628   23.3283 H   0  0  0  0  0  0
  -24.3564  -36.8948   22.2054 H   0  0  0  0  0  0
  -23.7192  -37.6502   23.6667 H   0  0  0  0  0  0
  -26.0124  -31.6184   20.5878 H   0  0  0  0  0  0
  -26.8034  -30.9110   21.9691 H   0  0  0  0  0  0
  -28.0804  -29.1752   21.1368 H   0  0  0  0  0  0
  -26.0580  -25.9677   19.0721 H   0  0  0  0  0  0
  -23.9801  -27.2617   19.0784 H   0  0  0  0  0  0
  -23.6911  -30.5868   19.4009 H   0  0  0  0  0  0
  -22.7210  -29.2273   19.8842 H   0  0  0  0  0  0
  -25.1280  -36.1999   25.0844 H   0  0  0  0  0  0
  -20.9970  -28.3203   24.1459 H   0  0  0  0  0  0
  -20.5677  -26.2252   23.3607 H   0  0  0  0  0  0
  -21.6611  -26.7434   22.1195 H   0  0  0  0  0  0
  -19.6855  -25.6312   21.1229 H   0  0  0  0  0  0
  -19.6626  -27.3244   20.6795 H   0  0  0  0  0  0
  -17.4169  -26.6734   21.4036 H   0  0  0  0  0  0
  -18.0254  -26.0050   22.9016 H   0  0  0  0  0  0
  -19.7910  -30.7288   24.2275 H   0  0  0  0  0  0
  -17.4977  -31.6245   24.5198 H   0  0  0  0  0  0
  -15.5339  -30.2993   23.7585 H   0  0  0  0  0  0
  -15.8669  -28.0805   22.7064 H   0  0  0  0  0  0
  -24.5888  -30.7046   25.7800 H   0  0  0  0  0  0
  -24.8962  -32.2809   26.5017 H   0  0  0  0  0  0
  -25.8119  -30.8759   27.0181 H   0  0  0  0  0  0
  -26.2846  -29.6826   24.1130 H   0  0  0  0  0  0
  -27.4115  -29.7317   25.4505 H   0  0  0  0  0  0
  -27.8653  -30.4435   23.9180 H   0  0  0  0  0  0
  -27.2600  -33.3629   26.2091 H   0  0  0  0  0  0
  -28.3806  -32.6927   25.0325 H   0  0  0  0  0  0
  -28.0678  -31.8461   26.5403 H   0  0  0  0  0  0
  -28.2581  -38.0141   24.7568 H   0  0  0  0  0  0
  -28.1108  -36.2670   24.6247 H   0  0  0  0  0  0
  -27.2299  -37.1416   25.8867 H   0  0  0  0  0  0
  -20.9227  -29.8742   21.6989 H   0  0  0  0  0  0
  -26.0178  -38.2888   24.1454 H   0  0  0  0  0  0
  -32.0227  -19.2128   20.8195 H   0  0  0  0  0  0
  -32.3545  -16.8386   21.3090 H   0  0  0  0  0  0
  -28.0959  -16.3379   21.8500 H   0  0  0  0  0  0
  -27.4110  -21.9550   20.2511 H   0  0  0  0  0  0
  -27.7303  -22.2795   18.5625 H   0  0  0  0  0  0
  -30.7149  -23.6030   21.4081 H   0  0  0  0  0  0
  -29.3047  -22.8014   22.0531 H   0  0  0  0  0  0
  -29.7062  -20.7790   18.6090 H   0  0  0  0  0  0
  -28.2923  -19.9160   19.1577 H   0  0  0  0  0  0
  -31.1572  -21.2137   21.9850 H   0  0  0  0  0  0
  -31.4382  -21.5293   20.2791 H   0  0  0  0  0  0
  -29.8735  -23.3246   19.0898 H   0  0  0  0  0  0
  -26.7616  -18.3692   22.2358 H   0  0  0  0  0  0
  -26.8001  -18.7028   20.5048 H   0  0  0  0  0  0
  -27.2985  -19.9388   21.6692 H   0  0  0  0  0  0
  -30.9890  -25.1390   18.9212 H   0  0  0  0  0  0
  -30.7780  -25.8523   20.5207 H   0  0  0  0  0  0
  -30.7678  -26.8617   19.0858 H   0  0  0  0  0  0
  -29.1564  -25.0229   17.3249 H   0  0  0  0  0  0
  -28.6898  -26.7139   17.4167 H   0  0  0  0  0  0
  -27.5075  -25.4329   17.6815 H   0  0  0  0  0  0
  -29.6404  -14.5764   22.2436 H   0  0  0  0  0  0
  1 25  1  0  0  0
  1 30  2  0  0  0
  1 88  1  0  0  0
  2  3  1  0  0  0
  2 25  1  0  0  0
  2 90  1  0  0  0
  2 91  1  0  0  0
  3  4  1  0  0  0
  3 92  1  0  0  0
  3 93  1  0  0  0
  4  5  1  0  0  0
  4 94  1  0  0  0
  4 95  1  0  0  0
  5  6  1  0  0  0
  5 26  1  0  0  0
  5 96  1  0  0  0
  6 25  1  0  0  0
  6 97  1  0  0  0
  6 98  1  0  0  0
  7  8  2  0  0  0
  7 26  1  0  0  0
  7 29  1  0  0  0
  8  9  1  0  0  0
  8 22  1  0  0  0
  9 10  1  0  0  0
  9 27  2  0  0  0
 10 11  2  0  0  0
 10 15  1  0  0  0
 11 12  1  0  0  0
 11 99  1  0  0  0
 12 13  2  0  0  0
 12100  1  0  0  0
 13 14  1  0  0  0
 13 31  1  0  0  0
 14 15  2  0  0  0
 14101  1  0  0  0
 15102  1  0  0  0
 16 17  2  0  0  0
 16 21  1  0  0  0
 16 31  1  0  0  0
 17 18  1  0  0  0
 17103  1  0  0  0
 18 19  2  0  0  0
 18104  1  0  0  0
 19 20  1  0  0  0
 19 24  1  0  0  0
 20 21  2  0  0  0
 20105  1  0  0  0
 21 23  1  0  0  0
 22 28  1  0  0  0
 22 32  2  0  0  0
 26 27  1  0  0  0
 28106  1  0  0  0
 28107  1  0  0  0
 29108  1  0  0  0
 29109  1  0  0  0
 33 34  1  0  0  0
 33 66  1  0  0  0
 33 70  2  0  0  0
 34 36  1  0  0  0
 34 59  1  0  0  0
 34110  1  0  0  0
 35 44  2  0  0  0
 35 45  1  0  0  0
 35 68  1  0  0  0
 36 56  1  0  0  0
 36111  1  0  0  0
 37 39  1  0  0  0
 37 47  1  0  0  0
 37 66  1  0  0  0
 37112  1  0  0  0
 38 43  2  0  0  0
 38 46  1  0  0  0
 38 47  1  0  0  0
 39 64  1  0  0  0
 39 67  2  0  0  0
 40 52  1  0  0  0
 40 53  2  0  0  0
 40 58  1  0  0  0
 41113  1  0  0  0
 41114  1  0  0  0
 41115  1  0  0  0
 41 48  1  0  0  0
 42 43  1  0  0  0
 42 66  1  0  0  0
 42116  1  0  0  0
 42117  1  0  0  0
 43 44  1  0  0  0
 44118  1  0  0  0
 45 46  2  0  0  0
 45119  1  0  0  0
 46120  1  0  0  0
 47121  1  0  0  0
 47122  1  0  0  0
 48 56  1  0  0  0
 48 65  1  0  0  0
 48123  1  0  0  0
 49 50  1  0  0  0
 49 53  1  0  0  0
 49 64  1  0  0  0
 49124  1  0  0  0
 50 51  1  0  0  0
 50125  1  0  0  0
 50126  1  0  0  0
 51 52  1  0  0  0
 51127  1  0  0  0
 51128  1  0  0  0
 52129  1  0  0  0
 52130  1  0  0  0
 53 54  1  0  0  0
 54 55  2  0  0  0
 54131  1  0  0  0
 55 57  1  0  0  0
 55132  1  0  0  0
 56 69  2  0  0  0
 57 58  2  0  0  0
 57133  1  0  0  0
 58134  1  0  0  0
 59 60  1  0  0  0
 59 61  1  0  0  0
 59 62  1  0  0  0
 60135  1  0  0  0
 60136  1  0  0  0
 60137  1  0  0  0
 61138  1  0  0  0
 61139  1  0  0  0
 61140  1  0  0  0
 62141  1  0  0  0
 62142  1  0  0  0
 62143  1  0  0  0
 63 65  1  0  0  0
 63144  1  0  0  0
 63145  1  0  0  0
 63146  1  0  0  0
 64147  1  0  0  0
 65148  1  0  0  0
 68 86  1  0  0  0
 71 72  2  0  0  0
 71 75  1  0  0  0
 71149  1  0  0  0
 72 76  1  0  0  0
 72150  1  0  0  0
 73 74  1  0  0  0
 73 76  2  0  0  0
 73151  1  0  0  0
 74 75  2  0  0  0
 74 83  1  0  0  0
 75 87  1  0  0  0
 76 88  1  0  0  0
 77 86  1  0  0  0
 77 89  2  0  0  0
 77 82  1  0  0  0
 78 80  1  0  0  0
 78 82  1  0  0  0
 78152  1  0  0  0
 78153  1  0  0  0
 79 81  1  0  0  0
 79 82  1  0  0  0
 79154  1  0  0  0
 79155  1  0  0  0
 80 87  1  0  0  0
 80156  1  0  0  0
 80157  1  0  0  0
 81 87  1  0  0  0
 81158  1  0  0  0
 81159  1  0  0  0
 82160  1  0  0  0
 83161  1  0  0  0
 83162  1  0  0  0
 83163  1  0  0  0
 84164  1  0  0  0
 84165  1  0  0  0
 84166  1  0  0  0
 84 86  1  0  0  0
 85 86  1  0  0  0
 85167  1  0  0  0
 85168  1  0  0  0
 85169  1  0  0  0
 88170  1  0  0  0
M  ISO  4   1 100  68 101  86 101  88 100
M  END
> <chiral flag>
0

> <version>
0

> <s_m_source_file>
/data/baiqing/PycharmProjects/Reinvent-master-3.2/result/LINK_invent/BTK/process_docking_weight1_custom_product_contain_oxygen_bond_distance_aromatic_linkinvent_7_9_3/rearranged_h_0144.sdf

> <i_m_source_file_index>
47

> <r_mmod_Potential_Energy-OPLS-2005>
4.82678127288818

> <r_mmod_Stretch_Energy-OPLS-2005>
32.5403823852539

> <r_mmod_Bend_Energy-OPLS-2005>
135.903656005859

> <r_mmod_Torsional_Energy-OPLS-2005>
279.768890380859

> <r_mmod_Improper_Torsional_Energy-OPLS-2005>
8.10269165039062

> <r_mmod_Van_der_Waal_Energy-OPLS-2005>
171.215270996094

> <r_mmod_Electrostatic_Energy-OPLS-2005>
-410.212585449219

> <r_mmod_Solvation_Energy-OPLS-2005>
-224.722961425781

> <b_mmod_Minimization_Converged-OPLS-2005>
0

> <r_mmod_RMS_Derivative-OPLS-2005>
1.97031092643738

$$$$
47
                    3D
 Structure written by MMmdl.
184193  0  0  1  0            999 V2000
  -30.7321  -14.4828   20.4649 C   0  0  0  0  0  0
  -30.4186  -12.2638   19.4638 C   0  0  0  0  0  0
  -29.5082  -12.3888   18.2256 C   0  0  0  0  0  0
  -28.0146  -12.3478   18.6196 C   0  0  0  0  0  0
  -27.6552  -13.2133   19.8628 C   0  0  2  0  0  0
  -28.7043  -13.0617   20.9877 C   0  0  0  0  0  0
  -25.2545  -13.8171   20.5711 C   0  0  0  0  0  0
  -24.1811  -13.0427   20.9196 C   0  0  0  0  0  0
  -24.6377  -11.6908   20.8752 C   0  0  0  0  0  0
  -23.9043  -10.4296   21.0404 C   0  0  0  0  0  0
  -24.3596   -9.4214   21.9178 C   0  0  0  0  0  0
  -23.6293   -8.2239   22.0738 C   0  0  0  0  0  0
  -22.4272   -8.0268   21.3534 C   0  0  0  0  0  0
  -21.9908   -9.0239   20.4633 C   0  0  0  0  0  0
  -22.7223  -10.2126   20.3047 C   0  0  0  0  0  0
  -21.6852   -6.0730   22.5283 C   0  0  0  0  0  0
  -21.4019   -6.5633   23.8217 C   0  0  0  0  0  0
  -21.3664   -5.6781   24.9181 C   0  0  0  0  0  0
  -21.6050   -4.3043   24.7225 C   0  0  0  0  0  0
  -21.8823   -3.8139   23.4341 C   0  0  0  0  0  0
  -21.9199   -4.6958   22.3404 C   0  0  0  0  0  0
  -22.7834  -13.5219   21.1871 C   0  0  0  0  0  0
  -22.1660   -4.2144   21.0981 F   0  0  0  0  0  0
  -21.5636   -3.4526   25.7736 F   0  0  0  0  0  0
  -30.0331  -13.3171   20.4134 N   0  0  0  0  0  0
  -26.2993  -12.9358   20.3348 N   0  0  0  0  0  0
  -25.9312  -11.6515   20.5787 N   0  0  0  0  0  0
  -22.0460  -12.8218   22.0409 N   0  0  0  0  0  0
  -25.4194  -15.1906   20.4164 N   0  0  0  0  0  0
  -31.9181  -14.5647   20.1452 O   0  0  0  0  0  0
  -21.6638   -6.8865   21.4236 O   0  0  0  0  0  0
  -22.3530  -14.5524   20.6707 O   0  0  0  0  0  0
  -24.6088  -31.8704   23.2106 C   0  0  0  0  0  0
  -25.8991  -32.4838   23.8408 C   0  0  1  0  0  0
  -27.2527  -27.4778   20.1054 C   0  0  0  0  0  0
  -25.5869  -33.8632   24.2350 N   0  0  0  0  0  0
  -23.3965  -30.4899   21.5490 C   0  0  2  0  0  0
  -24.8486  -28.9591   20.1156 C   0  0  0  0  0  0
  -22.7396  -29.4651   22.5011 C   0  0  0  0  0  0
  -18.0259  -28.1408   22.8485 C   0  0  0  0  0  0
  -24.1480  -36.7322   23.2635 C   0  0  0  0  0  0
  -25.9155  -30.8521   21.3543 C   0  0  0  0  0  0
  -25.9984  -29.4835   20.7182 C   0  0  0  0  0  0
  -27.2004  -28.7496   20.7206 C   0  0  0  0  0  0
  -26.0958  -26.9687   19.4837 C   0  0  0  0  0  0
  -24.8897  -27.6971   19.4945 C   0  0  0  0  0  0
  -23.6064  -29.8176   20.1634 C   0  0  0  0  0  0
  -25.4087  -36.3119   24.0350 C   0  0  1  0  0  0
  -20.5854  -28.3674   23.1358 C   0  0  2  0  0  0
  -20.6766  -26.9418   22.5449 C   0  0  0  0  0  0
  -19.5739  -26.6424   21.5240 C   0  0  0  0  0  0
  -18.1910  -26.7959   22.1629 C   0  0  0  0  0  0
  -19.1510  -28.8855   23.2917 C   0  0  0  0  0  0
  -18.9436  -30.1466   23.8911 C   0  0  0  0  0  0
  -17.6437  -30.6594   24.0582 C   0  0  0  0  0  0
  -25.9014  -34.9488   23.5148 C   0  0  0  0  0  0
  -16.5328  -29.9105   23.6336 C   0  0  0  0  0  0
  -16.7252  -28.6544   23.0309 C   0  0  0  0  0  0
  -26.4460  -31.6563   25.0694 C   0  0  0  0  0  0
  -25.3753  -31.3605   26.1454 C   0  0  0  0  0  0
  -27.0273  -30.3027   24.5972 C   0  0  0  0  0  0
  -27.6086  -32.4225   25.7447 C   0  0  0  0  0  0
  -27.5578  -37.1796   24.8457 C   0  0  0  0  0  0
  -21.4126  -29.3021   22.3755 N   0  0  0  0  0  0
  -26.4273  -37.3805   23.9423 N   0  0  0  0  0  0
  -24.6582  -31.0851   22.0985 N   0  0  0  0  0  0
  -23.4187  -28.8234   23.3056 O   0  0  0  0  0  0
  -28.3928  -26.7094   20.0749 O   0  0  0  0  0  0
  -26.5575  -34.8940   22.4711 O   0  0  0  0  0  0
  -23.5292  -32.1438   23.7526 O   0  0  0  0  0  0
  -30.6017  -18.2677   17.9556 C   0  0  0  0  0  0
  -31.3308  -19.2002   18.6994 C   0  0  0  0  0  0
  -31.0619  -17.8211   20.6913 C   0  0  0  0  0  0
  -30.1010  -17.0935   18.5589 C   0  0  0  0  0  0
  -31.5085  -19.0221   20.0862 C   0  0  0  0  0  0
  -30.3819  -16.8342   19.9348 C   0  0  0  0  0  0
  -31.6367  -21.1746   20.9874 C   0  0  0  0  0  0
  -27.5104  -15.8120   16.1303 C   0  0  0  0  0  0
  -27.8906  -16.6930   17.3186 C   0  0  0  0  0  0
  -28.8494  -15.5164   15.4316 C   0  0  0  0  0  0
  -29.2724  -16.1555   17.6896 C   0  0  1  0  0  0
  -32.4502  -22.2548   21.6689 C   0  0  0  0  0  0
  -27.7352  -21.4291   21.0067 C   0  0  0  0  0  0
  -29.2932  -20.4997   22.6842 C   0  0  0  0  0  0
  -30.2186  -21.6147   20.5513 C   0  0  0  0  0  0
  -28.6901  -24.2724   21.6880 C   0  0  0  0  0  0
  -29.7865  -25.3392   21.5081 C   0  0  0  0  0  0
  -29.1387  -22.9951   22.4426 C   0  0  0  0  0  0
  -29.1976  -26.7361   21.2540 C   0  0  0  0  0  0
  -29.1196  -21.6480   21.6626 C   0  0  0  0  0  0
  -32.1568  -20.0118   20.8289 N   0  0  0  0  0  0
  -29.9971  -15.6067   20.5715 N   0  0  0  0  0  0
  -29.9167  -15.8024   16.4120 N   0  3  0  0  0  0
  -31.4691  -12.3198   19.1730 H   0  0  0  0  0  0
  -30.2969  -11.2859   19.9303 H   0  0  0  0  0  0
  -29.7162  -11.5665   17.5404 H   0  0  0  0  0  0
  -29.7499  -13.2863   17.6680 H   0  0  0  0  0  0
  -27.7757  -11.3039   18.8254 H   0  0  0  0  0  0
  -27.3910  -12.6325   17.7707 H   0  0  0  0  0  0
  -27.6654  -14.2508   19.5363 H   0  0  0  0  0  0
  -28.6705  -12.0536   21.4037 H   0  0  0  0  0  0
  -28.4902  -13.7359   21.8187 H   0  0  0  0  0  0
  -25.2730   -9.5717   22.4754 H   0  0  0  0  0  0
  -24.0016   -7.4634   22.7451 H   0  0  0  0  0  0
  -21.0838   -8.8756   19.8933 H   0  0  0  0  0  0
  -22.3673  -10.9660   19.6154 H   0  0  0  0  0  0
  -21.2000   -7.6137   23.9724 H   0  0  0  0  0  0
  -21.1486   -6.0502   25.9086 H   0  0  0  0  0  0
  -22.0596   -2.7600   23.2839 H   0  0  0  0  0  0
  -22.4048  -11.9876   22.4810 H   0  0  0  0  0  0
  -21.1062  -13.1249   22.2551 H   0  0  0  0  0  0
  -24.6485  -15.8356   20.5545 H   0  0  0  0  0  0
  -26.2744  -15.6522   20.1405 H   0  0  0  0  0  0
  -26.7068  -32.5588   23.1199 H   0  0  0  0  0  0
  -25.0038  -33.9806   25.0511 H   0  0  0  0  0  0
  -22.6790  -31.3016   21.4072 H   0  0  0  0  0  0
  -23.3746  -35.9644   23.3292 H   0  0  0  0  0  0
  -24.3600  -36.8925   22.2053 H   0  0  0  0  0  0
  -23.7218  -37.6525   23.6641 H   0  0  0  0  0  0
  -26.0026  -31.6061   20.5711 H   0  0  0  0  0  0
  -26.8140  -30.9291   21.9552 H   0  0  0  0  0  0
  -28.0817  -29.1677   21.1871 H   0  0  0  0  0  0
  -26.1311  -26.0046   18.9962 H   0  0  0  0  0  0
  -24.0111  -27.2888   19.0120 H   0  0  0  0  0  0
  -23.7103  -30.5897   19.3997 H   0  0  0  0  0  0
  -22.7354  -29.2291   19.8706 H   0  0  0  0  0  0
  -25.1254  -36.1992   25.0839 H   0  0  0  0  0  0
  -20.9919  -28.3227   24.1488 H   0  0  0  0  0  0
  -20.5720  -26.2258   23.3621 H   0  0  0  0  0  0
  -21.6630  -26.7504   22.1195 H   0  0  0  0  0  0
  -19.6904  -25.6355   21.1226 H   0  0  0  0  0  0
  -19.6692  -27.3283   20.6815 H   0  0  0  0  0  0
  -17.4204  -26.6723   21.4013 H   0  0  0  0  0  0
  -18.0276  -26.0102   22.9028 H   0  0  0  0  0  0
  -19.7912  -30.7289   24.2271 H   0  0  0  0  0  0
  -17.4994  -31.6265   24.5215 H   0  0  0  0  0  0
  -15.5330  -30.3005   23.7676 H   0  0  0  0  0  0
  -15.8652  -28.0904   22.6950 H   0  0  0  0  0  0
  -24.5983  -30.6890   25.7791 H   0  0  0  0  0  0
  -24.8882  -32.2721   26.4926 H   0  0  0  0  0  0
  -25.8159  -30.8786   27.0196 H   0  0  0  0  0  0
  -26.2777  -29.6794   24.1091 H   0  0  0  0  0  0
  -27.4165  -29.7240   25.4363 H   0  0  0  0  0  0
  -27.8561  -30.4397   23.9019 H   0  0  0  0  0  0
  -27.2782  -33.3532   26.2073 H   0  0  0  0  0  0
  -28.3893  -32.6730   25.0253 H   0  0  0  0  0  0
  -28.0759  -31.8282   26.5316 H   0  0  0  0  0  0
  -28.2564  -38.0123   24.7543 H   0  0  0  0  0  0
  -28.1100  -36.2665   24.6217 H   0  0  0  0  0  0
  -27.2323  -37.1360   25.8861 H   0  0  0  0  0  0
  -20.9298  -29.8712   21.6944 H   0  0  0  0  0  0
  -26.0170  -38.2871   24.1456 H   0  0  0  0  0  0
  -30.4206  -18.4763   16.9105 H   0  0  0  0  0  0
  -31.7071  -20.0887   18.2080 H   0  0  0  0  0  0
  -31.2422  -17.6555   21.7445 H   0  0  0  0  0  0
  -26.7847  -16.2869   15.4689 H   0  0  0  0  0  0
  -27.0676  -14.8809   16.4902 H   0  0  0  0  0  0
  -27.1816  -16.6378   18.1447 H   0  0  0  0  0  0
  -27.9524  -17.7341   16.9986 H   0  0  0  0  0  0
  -28.9869  -16.1562   14.5590 H   0  0  0  0  0  0
  -28.9004  -14.4799   15.0930 H   0  0  0  0  0  0
  -29.1149  -15.2282   18.2213 H   0  0  0  0  0  0
  -32.2228  -23.2353   21.2487 H   0  0  0  0  0  0
  -33.5176  -22.0771   21.5365 H   0  0  0  0  0  0
  -32.2389  -22.2708   22.7382 H   0  0  0  0  0  0
  -27.6411  -20.4135   20.6170 H   0  0  0  0  0  0
  -27.5552  -22.0954   20.1639 H   0  0  0  0  0  0
  -26.9236  -21.5722   21.7207 H   0  0  0  0  0  0
  -29.3706  -19.5328   22.1855 H   0  0  0  0  0  0
  -28.4432  -20.4397   23.3651 H   0  0  0  0  0  0
  -30.1839  -20.6275   23.3008 H   0  0  0  0  0  0
  -29.8626  -20.9710   19.7522 H   0  0  0  0  0  0
  -30.2857  -22.5888   20.0677 H   0  0  0  0  0  0
  -28.2641  -24.0536   20.7110 H   0  0  0  0  0  0
  -27.8687  -24.7159   22.2536 H   0  0  0  0  0  0
  -30.4522  -25.0598   20.6905 H   0  0  0  0  0  0
  -30.4045  -25.3922   22.4050 H   0  0  0  0  0  0
  -28.4820  -22.8916   23.3082 H   0  0  0  0  0  0
  -30.1218  -23.1549   22.8793 H   0  0  0  0  0  0
  -29.9938  -27.4738   21.1384 H   0  0  0  0  0  0
  -28.6224  -27.0214   22.1369 H   0  0  0  0  0  0
  -29.0319  -15.5015   20.8433 H   0  0  0  0  0  0
  -30.4483  -16.5920   16.0820 H   0  0  0  0  0  0
  -30.5511  -15.0272   16.5133 H   0  0  0  0  0  0
  1 25  1  0  0  0
  1 30  2  0  0  0
  1 92  1  0  0  0
  2  3  1  0  0  0
  2 25  1  0  0  0
  2 94  1  0  0  0
  2 95  1  0  0  0
  3  4  1  0  0  0
  3 96  1  0  0  0
  3 97  1  0  0  0
  4  5  1  0  0  0
  4 98  1  0  0  0
  4 99  1  0  0  0
  5  6  1  0  0  0
  5 26  1  0  0  0
  5100  1  0  0  0
  6 25  1  0  0  0
  6101  1  0  0  0
  6102  1  0  0  0
  7  8  2  0  0  0
  7 26  1  0  0  0
  7 29  1  0  0  0
  8  9  1  0  0  0
  8 22  1  0  0  0
  9 10  1  0  0  0
  9 27  2  0  0  0
 10 11  2  0  0  0
 10 15  1  0  0  0
 11 12  1  0  0  0
 11103  1  0  0  0
 12 13  2  0  0  0
 12104  1  0  0  0
 13 14  1  0  0  0
 13 31  1  0  0  0
 14 15  2  0  0  0
 14105  1  0  0  0
 15106  1  0  0  0
 16 17  2  0  0  0
 16 21  1  0  0  0
 16 31  1  0  0  0
 17 18  1  0  0  0
 17107  1  0  0  0
 18 19  2  0  0  0
 18108  1  0  0  0
 19 20  1  0  0  0
 19 24  1  0  0  0
 20 21  2  0  0  0
 20109  1  0  0  0
 21 23  1  0  0  0
 22 28  1  0  0  0
 22 32  2  0  0  0
 26 27  1  0  0  0
 28110  1  0  0  0
 28111  1  0  0  0
 29112  1  0  0  0
 29113  1  0  0  0
 33 34  1  0  0  0
 33 66  1  0  0  0
 33 70  2  0  0  0
 34 36  1  0  0  0
 34 59  1  0  0  0
 34114  1  0  0  0
 35 44  2  0  0  0
 35 45  1  0  0  0
 35 68  1  0  0  0
 36 56  1  0  0  0
 36115  1  0  0  0
 37 39  1  0  0  0
 37 47  1  0  0  0
 37 66  1  0  0  0
 37116  1  0  0  0
 38 43  2  0  0  0
 38 46  1  0  0  0
 38 47  1  0  0  0
 39 64  1  0  0  0
 39 67  2  0  0  0
 40 52  1  0  0  0
 40 53  2  0  0  0
 40 58  1  0  0  0
 41117  1  0  0  0
 41118  1  0  0  0
 41119  1  0  0  0
 41 48  1  0  0  0
 42 43  1  0  0  0
 42 66  1  0  0  0
 42120  1  0  0  0
 42121  1  0  0  0
 43 44  1  0  0  0
 44122  1  0  0  0
 45 46  2  0  0  0
 45123  1  0  0  0
 46124  1  0  0  0
 47125  1  0  0  0
 47126  1  0  0  0
 48 56  1  0  0  0
 48 65  1  0  0  0
 48127  1  0  0  0
 49 50  1  0  0  0
 49 53  1  0  0  0
 49 64  1  0  0  0
 49128  1  0  0  0
 50 51  1  0  0  0
 50129  1  0  0  0
 50130  1  0  0  0
 51 52  1  0  0  0
 51131  1  0  0  0
 51132  1  0  0  0
 52133  1  0  0  0
 52134  1  0  0  0
 53 54  1  0  0  0
 54 55  2  0  0  0
 54135  1  0  0  0
 55 57  1  0  0  0
 55136  1  0  0  0
 56 69  2  0  0  0
 57 58  2  0  0  0
 57137  1  0  0  0
 58138  1  0  0  0
 59 60  1  0  0  0
 59 61  1  0  0  0
 59 62  1  0  0  0
 60139  1  0  0  0
 60140  1  0  0  0
 60141  1  0  0  0
 61142  1  0  0  0
 61143  1  0  0  0
 61144  1  0  0  0
 62145  1  0  0  0
 62146  1  0  0  0
 62147  1  0  0  0
 63 65  1  0  0  0
 63148  1  0  0  0
 63149  1  0  0  0
 63150  1  0  0  0
 64151  1  0  0  0
 65152  1  0  0  0
 68 89  1  0  0  0
 71 72  2  0  0  0
 71 74  1  0  0  0
 71153  1  0  0  0
 72 75  1  0  0  0
 72154  1  0  0  0
 73 75  2  0  0  0
 73 76  1  0  0  0
 73155  1  0  0  0
 74 76  2  0  0  0
 74 81  1  0  0  0
 75 91  1  0  0  0
 76 92  1  0  0  0
 77 82  1  0  0  0
 77 85  1  0  0  0
 77 91  2  0  0  0
 78 79  1  0  0  0
 78 80  1  0  0  0
 78156  1  0  0  0
 78157  1  0  0  0
 79 81  1  0  0  0
 79158  1  0  0  0
 79159  1  0  0  0
 80 93  1  0  0  0
 80160  1  0  0  0
 80161  1  0  0  0
 81 93  1  0  0  0
 81162  1  0  0  0
 82163  1  0  0  0
 82164  1  0  0  0
 82165  1  0  0  0
 83166  1  0  0  0
 83167  1  0  0  0
 83168  1  0  0  0
 83 90  1  0  0  0
 84 90  1  0  0  0
 84169  1  0  0  0
 84170  1  0  0  0
 84171  1  0  0  0
 85 90  1  0  0  0
 85172  1  0  0  0
 85173  1  0  0  0
 86 87  1  0  0  0
 86 88  1  0  0  0
 86174  1  0  0  0
 86175  1  0  0  0
 87 89  1  0  0  0
 87176  1  0  0  0
 87177  1  0  0  0
 88 90  1  0  0  0
 88178  1  0  0  0
 88179  1  0  0  0
 89180  1  0  0  0
 89181  1  0  0  0
 92182  1  0  0  0
 93183  1  0  0  0
 93184  1  0  0  0
M  CHG  1  93   1
M  ISO  4   1 100  68 101  89 101  92 100
M  END
> <chiral flag>
0

> <version>
0

> <s_m_source_file>
/data/baiqing/PycharmProjects/Reinvent-master-3.2/result/LINK_invent/BTK/process_docking_weight1_custom_product_contain_oxygen_bond_distance_aromatic_linkinvent_7_9_3/rearranged_h_0144.sdf

> <i_m_source_file_index>
48

> <r_mmod_Potential_Energy-OPLS-2005>
-11.6649904251099

> <r_mmod_Stretch_Energy-OPLS-2005>
41.650749206543

> <r_mmod_Bend_Energy-OPLS-2005>
136.626998901367

> <r_mmod_Torsional_Energy-OPLS-2005>
369.793884277344

> <r_mmod_Improper_Torsional_Energy-OPLS-2005>
8.53875064849854

> <r_mmod_Van_der_Waal_Energy-OPLS-2005>
148.666000366211

> <r_mmod_Electrostatic_Energy-OPLS-2005>
-280.193450927734

> <r_mmod_Solvation_Energy-OPLS-2005>
-457.700103759766

> <b_mmod_Minimization_Converged-OPLS-2005>
0

> <r_mmod_RMS_Derivative-OPLS-2005>
2.71973919868469

$$$$
48
                    3D
 Structure written by MMmdl.
167175  0  0  1  0            999 V2000
  -30.7339  -14.3542   20.6974 C   0  0  0  0  0  0
  -30.4260  -12.2845   19.3848 C   0  0  0  0  0  0
  -29.4869  -12.5398   18.1898 C   0  0  0  0  0  0
  -28.0097  -12.3928   18.6028 C   0  0  0  0  0  0
  -27.6715  -13.1960   19.8861 C   0  0  2  0  0  0
  -28.7055  -12.8941   20.9921 C   0  0  0  0  0  0
  -25.2628  -13.8145   20.5662 C   0  0  0  0  0  0
  -24.1859  -13.0440   20.9158 C   0  0  0  0  0  0
  -24.6395  -11.6901   20.8719 C   0  0  0  0  0  0
  -23.9053  -10.4293   21.0399 C   0  0  0  0  0  0
  -24.3611   -9.4209   21.9179 C   0  0  0  0  0  0
  -23.6289   -8.2244   22.0751 C   0  0  0  0  0  0
  -22.4266   -8.0286   21.3545 C   0  0  0  0  0  0
  -21.9903   -9.0255   20.4644 C   0  0  0  0  0  0
  -22.7230  -10.2133   20.3049 C   0  0  0  0  0  0
  -21.6851   -6.0735   22.5282 C   0  0  0  0  0  0
  -21.4009   -6.5639   23.8216 C   0  0  0  0  0  0
  -21.3654   -5.6792   24.9176 C   0  0  0  0  0  0
  -21.6045   -4.3055   24.7224 C   0  0  0  0  0  0
  -21.8822   -3.8148   23.4345 C   0  0  0  0  0  0
  -21.9193   -4.6965   22.3402 C   0  0  0  0  0  0
  -22.7883  -13.5247   21.1833 C   0  0  0  0  0  0
  -22.1662   -4.2152   21.0977 F   0  0  0  0  0  0
  -21.5628   -3.4536   25.7734 F   0  0  0  0  0  0
  -30.0542  -13.2007   20.4720 N   0  0  0  0  0  0
  -26.3064  -12.9296   20.3387 N   0  0  0  0  0  0
  -25.9314  -11.6461   20.5744 N   0  0  0  0  0  0
  -22.0514  -12.8238   22.0391 N   0  0  0  0  0  0
  -25.4393  -15.1856   20.4076 N   0  0  0  0  0  0
  -31.7406  -14.6876   20.0608 O   0  0  0  0  0  0
  -21.6636   -6.8877   21.4242 O   0  0  0  0  0  0
  -22.3569  -14.5560   20.6693 O   0  0  0  0  0  0
  -24.6102  -31.8690   23.2116 C   0  0  0  0  0  0
  -25.9005  -32.4838   23.8387 C   0  0  1  0  0  0
  -27.2448  -27.4686   20.0722 C   0  0  0  0  0  0
  -25.5869  -33.8634   24.2320 N   0  0  0  0  0  0
  -23.3967  -30.4927   21.5505 C   0  0  2  0  0  0
  -24.8420  -28.9567   20.1180 C   0  0  0  0  0  0
  -22.7384  -29.4663   22.4990 C   0  0  0  0  0  0
  -18.0266  -28.1380   22.8510 C   0  0  0  0  0  0
  -24.1475  -36.7300   23.2639 C   0  0  0  0  0  0
  -25.9220  -30.8404   21.3609 C   0  0  0  0  0  0
  -25.9986  -29.4753   20.7129 C   0  0  0  0  0  0
  -27.1965  -28.7314   20.6993 C   0  0  0  0  0  0
  -26.0631  -26.9465   19.4932 C   0  0  0  0  0  0
  -24.8661  -27.6878   19.5134 C   0  0  0  0  0  0
  -23.6031  -29.8202   20.1665 C   0  0  0  0  0  0
  -25.4095  -36.3109   24.0344 C   0  0  1  0  0  0
  -20.5855  -28.3654   23.1328 C   0  0  2  0  0  0
  -20.6750  -26.9392   22.5427 C   0  0  0  0  0  0
  -19.5734  -26.6372   21.5219 C   0  0  0  0  0  0
  -18.1911  -26.7928   22.1630 C   0  0  0  0  0  0
  -19.1515  -28.8830   23.2918 C   0  0  0  0  0  0
  -18.9459  -30.1435   23.8931 C   0  0  0  0  0  0
  -17.6469  -30.6596   24.0569 C   0  0  0  0  0  0
  -25.9028  -34.9484   23.5129 C   0  0  0  0  0  0
  -16.5352  -29.9117   23.6324 C   0  0  0  0  0  0
  -16.7259  -28.6524   23.0363 C   0  0  0  0  0  0
  -26.4457  -31.6608   25.0707 C   0  0  0  0  0  0
  -25.3746  -31.3717   26.1473 C   0  0  0  0  0  0
  -27.0274  -30.3057   24.6047 C   0  0  0  0  0  0
  -27.6027  -32.4323   25.7481 C   0  0  0  0  0  0
  -27.5567  -37.1799   24.8471 C   0  0  0  0  0  0
  -21.4112  -29.3035   22.3734 N   0  0  0  0  0  0
  -26.4280  -37.3788   23.9428 N   0  0  0  0  0  0
  -24.6609  -31.0801   22.1012 N   0  0  0  0  0  0
  -23.4172  -28.8180   23.2996 O   0  0  0  0  0  0
  -28.4504  -26.8078   20.0561 O   0  0  0  0  0  0
  -26.5587  -34.8939   22.4690 O   0  0  0  0  0  0
  -23.5304  -32.1419   23.7537 O   0  0  0  0  0  0
  -29.9935  -19.2381   22.4297 C   0  0  0  0  0  0
  -29.7644  -16.9324   23.1835 C   0  0  0  0  0  0
  -30.5865  -17.3964   20.9314 C   0  0  0  0  0  0
  -29.6471  -18.3147   23.4352 C   0  0  0  0  0  0
  -30.4493  -18.7784   21.1751 C   0  0  0  0  0  0
  -30.2378  -16.4619   21.9377 C   0  0  0  0  0  0
  -30.0950  -25.3596   19.0249 C   0  0  0  0  0  0
  -29.9087  -20.3540   19.3981 C   0  0  0  0  0  0
  -32.0367  -24.0479   18.0640 C   0  0  0  0  0  0
  -29.8544  -24.1279   16.8263 C   0  0  0  0  0  0
  -28.6013  -25.6939   19.1780 C   0  0  0  0  0  0
  -30.4489  -21.4616   18.4965 C   0  0  0  0  0  0
  -30.0065  -22.8442   19.0255 C   0  0  0  0  0  0
  -30.4959  -24.0856   18.2311 C   0  0  0  0  0  0
  -29.1864  -18.7683   24.6717 N   0  0  0  0  0  0
  -30.7942  -19.7097   20.1711 N   0  0  0  0  0  0
  -30.2708  -15.0538   21.7431 N   0  0  0  0  0  0
  -30.9530  -26.0815   19.5470 O   0  0  0  0  0  0
  -28.7021  -20.0939   19.3936 O   0  0  0  0  0  0
  -31.4678  -12.4041   19.0815 H   0  0  0  0  0  0
  -30.3360  -11.2516   19.7247 H   0  0  0  0  0  0
  -29.7167  -11.8514   17.3756 H   0  0  0  0  0  0
  -29.6583  -13.5438   17.7997 H   0  0  0  0  0  0
  -27.8095  -11.3328   18.7629 H   0  0  0  0  0  0
  -27.3580  -12.7024   17.7850 H   0  0  0  0  0  0
  -27.7428  -14.2561   19.6413 H   0  0  0  0  0  0
  -28.6626  -11.8370   21.2603 H   0  0  0  0  0  0
  -28.4425  -13.4236   21.9073 H   0  0  0  0  0  0
  -25.2760   -9.5682   22.4749 H   0  0  0  0  0  0
  -24.0000   -7.4632   22.7462 H   0  0  0  0  0  0
  -21.0840   -8.8774   19.8946 H   0  0  0  0  0  0
  -22.3700  -10.9669   19.6152 H   0  0  0  0  0  0
  -21.1998   -7.6148   23.9721 H   0  0  0  0  0  0
  -21.1471   -6.0518   25.9079 H   0  0  0  0  0  0
  -22.0604   -2.7612   23.2844 H   0  0  0  0  0  0
  -22.4118  -11.9888   22.4766 H   0  0  0  0  0  0
  -21.1139  -13.1272   22.2597 H   0  0  0  0  0  0
  -24.6829  -15.8505   20.5228 H   0  0  0  0  0  0
  -26.3058  -15.6187   20.1130 H   0  0  0  0  0  0
  -26.7079  -32.5544   23.1154 H   0  0  0  0  0  0
  -25.0038  -33.9790   25.0484 H   0  0  0  0  0  0
  -22.6855  -31.3092   21.4092 H   0  0  0  0  0  0
  -23.3749  -35.9623   23.3338 H   0  0  0  0  0  0
  -24.3567  -36.8867   22.2041 H   0  0  0  0  0  0
  -23.7219  -37.6515   23.6637 H   0  0  0  0  0  0
  -26.0280  -31.6054   20.5899 H   0  0  0  0  0  0
  -26.8144  -30.8975   21.9721 H   0  0  0  0  0  0
  -28.0927  -29.1311   21.1546 H   0  0  0  0  0  0
  -26.0474  -25.9724   19.0259 H   0  0  0  0  0  0
  -23.9734  -27.2807   19.0585 H   0  0  0  0  0  0
  -23.7104  -30.5936   19.4051 H   0  0  0  0  0  0
  -22.7299  -29.2368   19.8679 H   0  0  0  0  0  0
  -25.1279  -36.1965   25.0838 H   0  0  0  0  0  0
  -20.9967  -28.3225   24.1436 H   0  0  0  0  0  0
  -20.5649  -26.2260   23.3616 H   0  0  0  0  0  0
  -21.6625  -26.7438   22.1213 H   0  0  0  0  0  0
  -19.6917  -25.6297   21.1216 H   0  0  0  0  0  0
  -19.6692  -27.3205   20.6773 H   0  0  0  0  0  0
  -17.4189  -26.6686   21.4029 H   0  0  0  0  0  0
  -18.0330  -26.0057   22.9019 H   0  0  0  0  0  0
  -19.7945  -30.7225   24.2319 H   0  0  0  0  0  0
  -17.5052  -31.6289   24.5165 H   0  0  0  0  0  0
  -15.5367  -30.3052   23.7641 H   0  0  0  0  0  0
  -15.8642  -28.0854   22.7082 H   0  0  0  0  0  0
  -24.5933  -30.7033   25.7841 H   0  0  0  0  0  0
  -24.8935  -32.2877   26.4910 H   0  0  0  0  0  0
  -25.8124  -30.8921   27.0234 H   0  0  0  0  0  0
  -26.2793  -29.6838   24.1116 H   0  0  0  0  0  0
  -27.4077  -29.7259   25.4466 H   0  0  0  0  0  0
  -27.8621  -30.4401   23.9162 H   0  0  0  0  0  0
  -27.2638  -33.3613   26.2084 H   0  0  0  0  0  0
  -28.3840  -32.6889   25.0315 H   0  0  0  0  0  0
  -28.0703  -31.8438   26.5379 H   0  0  0  0  0  0
  -28.2601  -38.0082   24.7500 H   0  0  0  0  0  0
  -28.1036  -36.2605   24.6323 H   0  0  0  0  0  0
  -27.2281  -37.1473   25.8874 H   0  0  0  0  0  0
  -20.9261  -29.8769   21.6982 H   0  0  0  0  0  0
  -26.0168  -38.2861   24.1464 H   0  0  0  0  0  0
  -29.9038  -20.3011   22.6086 H   0  0  0  0  0  0
  -29.4866  -16.2245   23.9523 H   0  0  0  0  0  0
  -30.9289  -17.0720   19.9590 H   0  0  0  0  0  0
  -32.4183  -24.9740   17.6301 H   0  0  0  0  0  0
  -32.3566  -23.2453   17.4014 H   0  0  0  0  0  0
  -32.5398  -23.9061   19.0213 H   0  0  0  0  0  0
  -30.1008  -25.0515   16.3011 H   0  0  0  0  0  0
  -28.7672  -24.0496   16.8685 H   0  0  0  0  0  0
  -30.2081  -23.3090   16.2007 H   0  0  0  0  0  0
  -28.1950  -25.9283   18.1940 H   0  0  0  0  0  0
  -28.0595  -24.8362   19.5775 H   0  0  0  0  0  0
  -30.0731  -21.2951   17.4875 H   0  0  0  0  0  0
  -31.5355  -21.3846   18.4406 H   0  0  0  0  0  0
  -30.3393  -22.9311   20.0628 H   0  0  0  0  0  0
  -28.9152  -22.8510   19.0688 H   0  0  0  0  0  0
  -28.8779  -19.7320   24.7640 H   0  0  0  0  0  0
  -28.6820  -18.1295   25.2797 H   0  0  0  0  0  0
  -31.7710  -19.9593   20.0834 H   0  0  0  0  0  0
  -29.6528  -14.5251   22.3406 H   0  0  0  0  0  0
  1 25  1  0  0  0
  1 30  2  0  0  0
  1 87  1  0  0  0
  2  3  1  0  0  0
  2 25  1  0  0  0
  2 90  1  0  0  0
  2 91  1  0  0  0
  3  4  1  0  0  0
  3 92  1  0  0  0
  3 93  1  0  0  0
  4  5  1  0  0  0
  4 94  1  0  0  0
  4 95  1  0  0  0
  5  6  1  0  0  0
  5 26  1  0  0  0
  5 96  1  0  0  0
  6 25  1  0  0  0
  6 97  1  0  0  0
  6 98  1  0  0  0
  7  8  2  0  0  0
  7 26  1  0  0  0
  7 29  1  0  0  0
  8  9  1  0  0  0
  8 22  1  0  0  0
  9 10  1  0  0  0
  9 27  2  0  0  0
 10 11  2  0  0  0
 10 15  1  0  0  0
 11 12  1  0  0  0
 11 99  1  0  0  0
 12 13  2  0  0  0
 12100  1  0  0  0
 13 14  1  0  0  0
 13 31  1  0  0  0
 14 15  2  0  0  0
 14101  1  0  0  0
 15102  1  0  0  0
 16 17  2  0  0  0
 16 21  1  0  0  0
 16 31  1  0  0  0
 17 18  1  0  0  0
 17103  1  0  0  0
 18 19  2  0  0  0
 18104  1  0  0  0
 19 20  1  0  0  0
 19 24  1  0  0  0
 20 21  2  0  0  0
 20105  1  0  0  0
 21 23  1  0  0  0
 22 28  1  0  0  0
 22 32  2  0  0  0
 26 27  1  0  0  0
 28106  1  0  0  0
 28107  1  0  0  0
 29108  1  0  0  0
 29109  1  0  0  0
 33 34  1  0  0  0
 33 66  1  0  0  0
 33 70  2  0  0  0
 34 36  1  0  0  0
 34 59  1  0  0  0
 34110  1  0  0  0
 35 44  2  0  0  0
 35 45  1  0  0  0
 35 68  1  0  0  0
 36 56  1  0  0  0
 36111  1  0  0  0
 37 39  1  0  0  0
 37 47  1  0  0  0
 37 66  1  0  0  0
 37112  1  0  0  0
 38 43  2  0  0  0
 38 46  1  0  0  0
 38 47  1  0  0  0
 39 64  1  0  0  0
 39 67  2  0  0  0
 40 52  1  0  0  0
 40 53  2  0  0  0
 40 58  1  0  0  0
 41113  1  0  0  0
 41114  1  0  0  0
 41115  1  0  0  0
 41 48  1  0  0  0
 42 43  1  0  0  0
 42 66  1  0  0  0
 42116  1  0  0  0
 42117  1  0  0  0
 43 44  1  0  0  0
 44118  1  0  0  0
 45 46  2  0  0  0
 45119  1  0  0  0
 46120  1  0  0  0
 47121  1  0  0  0
 47122  1  0  0  0
 48 56  1  0  0  0
 48 65  1  0  0  0
 48123  1  0  0  0
 49 50  1  0  0  0
 49 53  1  0  0  0
 49 64  1  0  0  0
 49124  1  0  0  0
 50 51  1  0  0  0
 50125  1  0  0  0
 50126  1  0  0  0
 51 52  1  0  0  0
 51127  1  0  0  0
 51128  1  0  0  0
 52129  1  0  0  0
 52130  1  0  0  0
 53 54  1  0  0  0
 54 55  2  0  0  0
 54131  1  0  0  0
 55 57  1  0  0  0
 55132  1  0  0  0
 56 69  2  0  0  0
 57 58  2  0  0  0
 57133  1  0  0  0
 58134  1  0  0  0
 59 60  1  0  0  0
 59 61  1  0  0  0
 59 62  1  0  0  0
 60135  1  0  0  0
 60136  1  0  0  0
 60137  1  0  0  0
 61138  1  0  0  0
 61139  1  0  0  0
 61140  1  0  0  0
 62141  1  0  0  0
 62142  1  0  0  0
 62143  1  0  0  0
 63 65  1  0  0  0
 63144  1  0  0  0
 63145  1  0  0  0
 63146  1  0  0  0
 64147  1  0  0  0
 65148  1  0  0  0
 68 81  1  0  0  0
 71 74  2  0  0  0
 71 75  1  0  0  0
 71149  1  0  0  0
 72 74  1  0  0  0
 72 76  2  0  0  0
 72150  1  0  0  0
 73 75  2  0  0  0
 73 76  1  0  0  0
 73151  1  0  0  0
 74 85  1  0  0  0
 75 86  1  0  0  0
 76 87  1  0  0  0
 77 81  1  0  0  0
 77 84  1  0  0  0
 77 88  2  0  0  0
 78 82  1  0  0  0
 78 86  1  0  0  0
 78 89  2  0  0  0
 79152  1  0  0  0
 79153  1  0  0  0
 79154  1  0  0  0
 79 84  1  0  0  0
 80 84  1  0  0  0
 80155  1  0  0  0
 80156  1  0  0  0
 80157  1  0  0  0
 81158  1  0  0  0
 81159  1  0  0  0
 82 83  1  0  0  0
 82160  1  0  0  0
 82161  1  0  0  0
 83 84  1  0  0  0
 83162  1  0  0  0
 83163  1  0  0  0
 85164  1  0  0  0
 85165  1  0  0  0
 86166  1  0  0  0
 87167  1  0  0  0
M  ISO  4   1 100  68 101  81 101  87 100
M  END
> <chiral flag>
0

> <version>
0

> <s_m_source_file>
/data/baiqing/PycharmProjects/Reinvent-master-3.2/result/LINK_invent/BTK/process_docking_weight1_custom_product_contain_oxygen_bond_distance_aromatic_linkinvent_7_9_3/rearranged_h_0144.sdf

> <i_m_source_file_index>
49

> <r_mmod_Potential_Energy-OPLS-2005>
11.1906518936157

> <r_mmod_Stretch_Energy-OPLS-2005>
35.4295959472656

> <r_mmod_Bend_Energy-OPLS-2005>
101.74422454834

> <r_mmod_Torsional_Energy-OPLS-2005>
268.254730224609

> <r_mmod_Improper_Torsional_Energy-OPLS-2005>
6.09813070297241

> <r_mmod_Van_der_Waal_Energy-OPLS-2005>
165.514129638672

> <r_mmod_Electrostatic_Energy-OPLS-2005>
-318.151947021484

> <r_mmod_Solvation_Energy-OPLS-2005>
-255.797027587891

> <b_mmod_Minimization_Converged-OPLS-2005>
0

> <r_mmod_RMS_Derivative-OPLS-2005>
2.15825223922729

$$$$
49
                    3D
 Structure written by MMmdl.
164173  0  0  1  0            999 V2000
  -30.7661  -14.3286   20.7149 C   0  0  0  0  0  0
  -30.4298  -12.2607   19.4020 C   0  0  0  0  0  0
  -29.4979  -12.4919   18.1984 C   0  0  0  0  0  0
  -28.0178  -12.3613   18.6068 C   0  0  0  0  0  0
  -27.6737  -13.1873   19.8733 C   0  0  2  0  0  0
  -28.7063  -12.9072   20.9887 C   0  0  0  0  0  0
  -25.2661  -13.8148   20.5661 C   0  0  0  0  0  0
  -24.1886  -13.0474   20.9162 C   0  0  0  0  0  0
  -24.6385  -11.6915   20.8714 C   0  0  0  0  0  0
  -23.9046  -10.4311   21.0400 C   0  0  0  0  0  0
  -24.3589   -9.4237   21.9199 C   0  0  0  0  0  0
  -23.6280   -8.2259   22.0761 C   0  0  0  0  0  0
  -22.4263   -8.0280   21.3558 C   0  0  0  0  0  0
  -21.9892   -9.0258   20.4669 C   0  0  0  0  0  0
  -22.7210  -10.2148   20.3074 C   0  0  0  0  0  0
  -21.6849   -6.0742   22.5292 C   0  0  0  0  0  0
  -21.4007   -6.5640   23.8226 C   0  0  0  0  0  0
  -21.3657   -5.6782   24.9182 C   0  0  0  0  0  0
  -21.6048   -4.3044   24.7211 C   0  0  0  0  0  0
  -21.8810   -3.8147   23.4327 C   0  0  0  0  0  0
  -21.9177   -4.6970   22.3399 C   0  0  0  0  0  0
  -22.7909  -13.5301   21.1802 C   0  0  0  0  0  0
  -22.1652   -4.2158   21.0969 F   0  0  0  0  0  0
  -21.5636   -3.4527   25.7727 F   0  0  0  0  0  0
  -30.0643  -13.1917   20.4750 N   0  0  0  0  0  0
  -26.3075  -12.9275   20.3312 N   0  0  0  0  0  0
  -25.9298  -11.6454   20.5717 N   0  0  0  0  0  0
  -22.0493  -12.8368   22.0354 N   0  0  0  0  0  0
  -25.4452  -15.1879   20.4123 N   0  0  0  0  0  0
  -31.7441  -14.6932   20.0500 O   0  0  0  0  0  0
  -21.6635   -6.8884   21.4255 O   0  0  0  0  0  0
  -22.3619  -14.5613   20.6624 O   0  0  0  0  0  0
  -24.6134  -31.8684   23.2145 C   0  0  0  0  0  0
  -25.9048  -32.4813   23.8408 C   0  0  1  0  0  0
  -27.2297  -27.4410   20.0767 C   0  0  0  0  0  0
  -25.5896  -33.8614   24.2329 N   0  0  0  0  0  0
  -23.3966  -30.4989   21.5554 C   0  0  2  0  0  0
  -24.8376  -28.9698   20.1143 C   0  0  0  0  0  0
  -22.7366  -29.4688   22.5001 C   0  0  0  0  0  0
  -18.0264  -28.1375   22.8500 C   0  0  0  0  0  0
  -24.1478  -36.7303   23.2641 C   0  0  0  0  0  0
  -25.9277  -30.8361   21.3667 C   0  0  0  0  0  0
  -26.0004  -29.4743   20.7073 C   0  0  0  0  0  0
  -27.1929  -28.7162   20.6888 C   0  0  0  0  0  0
  -26.0336  -26.9463   19.4968 C   0  0  0  0  0  0
  -24.8496  -27.7026   19.5131 C   0  0  0  0  0  0
  -23.6009  -29.8371   20.1676 C   0  0  0  0  0  0
  -25.4097  -36.3098   24.0341 C   0  0  1  0  0  0
  -20.5851  -28.3657   23.1332 C   0  0  2  0  0  0
  -20.6749  -26.9394   22.5439 C   0  0  0  0  0  0
  -19.5749  -26.6388   21.5215 C   0  0  0  0  0  0
  -18.1920  -26.7925   22.1612 C   0  0  0  0  0  0
  -19.1510  -28.8830   23.2920 C   0  0  0  0  0  0
  -18.9444  -30.1431   23.8930 C   0  0  0  0  0  0
  -17.6449  -30.6580   24.0578 C   0  0  0  0  0  0
  -25.9019  -34.9469   23.5120 C   0  0  0  0  0  0
  -16.5342  -29.9090   23.6327 C   0  0  0  0  0  0
  -16.7253  -28.6510   23.0346 C   0  0  0  0  0  0
  -26.4516  -31.6592   25.0715 C   0  0  0  0  0  0
  -25.3835  -31.3705   26.1513 C   0  0  0  0  0  0
  -27.0328  -30.3017   24.6094 C   0  0  0  0  0  0
  -27.6099  -32.4322   25.7440 C   0  0  0  0  0  0
  -27.5580  -37.1786   24.8465 C   0  0  0  0  0  0
  -21.4102  -29.3023   22.3727 N   0  0  0  0  0  0
  -26.4280  -37.3791   23.9426 N   0  0  0  0  0  0
  -24.6646  -31.0812   22.1033 N   0  0  0  0  0  0
  -23.4147  -28.8222   23.3026 O   0  0  0  0  0  0
  -28.4332  -26.7541   20.1017 O   0  0  0  0  0  0
  -26.5583  -34.8927   22.4676 O   0  0  0  0  0  0
  -23.5333  -32.1449   23.7550 O   0  0  0  0  0  0
  -28.5442  -17.9566   21.8991 C   0  0  0  0  0  0
  -28.6017  -16.5454   22.0363 C   0  0  0  0  0  0
  -29.8140  -18.3803   21.6013 C   0  0  0  0  0  0
  -29.9034  -16.2262   21.7878 C   0  0  0  0  0  0
  -28.3696  -22.4945   19.0131 C   0  0  0  0  0  0
  -29.1493  -22.9927   19.9931 C   0  0  0  0  0  0
  -31.0485  -19.9457   20.0162 C   0  0  0  0  0  0
  -31.2056  -21.4661   19.9001 C   0  0  0  0  0  0
  -29.4016  -20.8856   21.4582 C   0  0  0  0  0  0
  -30.4129  -19.7350   21.3904 C   0  0  1  0  0  0
  -30.0949  -22.0825   20.7767 C   0  0  2  0  0  0
  -29.5805  -25.7807   18.2536 C   0  0  0  0  0  0
  -29.1599  -24.4655   20.4240 C   0  0  0  0  0  0
  -28.6148  -25.5070   19.4150 C   0  0  1  0  0  0
  -30.3713  -14.9638   21.8199 N   0  0  0  0  0  0
  -30.6708  -17.3171   21.5241 O   0  0  0  0  0  0
  -31.4727  -12.3690   19.1005 H   0  0  0  0  0  0
  -30.3357  -11.2369   19.7684 H   0  0  0  0  0  0
  -29.7306  -11.7682   17.4172 H   0  0  0  0  0  0
  -29.6867  -13.4765   17.7664 H   0  0  0  0  0  0
  -27.8216  -11.3037   18.7973 H   0  0  0  0  0  0
  -27.3718  -12.6438   17.7744 H   0  0  0  0  0  0
  -27.7387  -14.2403   19.5979 H   0  0  0  0  0  0
  -28.6590  -11.8596   21.2931 H   0  0  0  0  0  0
  -28.4348  -13.4680   21.8805 H   0  0  0  0  0  0
  -25.2718   -9.5717   22.4798 H   0  0  0  0  0  0
  -23.9984   -7.4651   22.7475 H   0  0  0  0  0  0
  -21.0828   -8.8772   19.8983 H   0  0  0  0  0  0
  -22.3655  -10.9687   19.6180 H   0  0  0  0  0  0
  -21.2011   -7.6147   23.9732 H   0  0  0  0  0  0
  -21.1498   -6.0518   25.9093 H   0  0  0  0  0  0
  -22.0591   -2.7611   23.2817 H   0  0  0  0  0  0
  -22.4004  -12.0027   22.4827 H   0  0  0  0  0  0
  -21.1122  -13.1495   22.2491 H   0  0  0  0  0  0
  -24.6997  -15.8569   20.5698 H   0  0  0  0  0  0
  -26.3059  -15.6212   20.1022 H   0  0  0  0  0  0
  -26.7093  -32.5535   23.1148 H   0  0  0  0  0  0
  -25.0059  -33.9782   25.0483 H   0  0  0  0  0  0
  -22.6859  -31.3169   21.4224 H   0  0  0  0  0  0
  -23.3744  -35.9630   23.3303 H   0  0  0  0  0  0
  -24.3580  -36.8919   22.2058 H   0  0  0  0  0  0
  -23.7227  -37.6503   23.6661 H   0  0  0  0  0  0
  -26.0425  -31.6100   20.6057 H   0  0  0  0  0  0
  -26.8137  -30.8794   21.9888 H   0  0  0  0  0  0
  -28.0899  -29.1066   21.1495 H   0  0  0  0  0  0
  -25.9483  -25.9800   19.0290 H   0  0  0  0  0  0
  -23.9499  -27.2999   19.0674 H   0  0  0  0  0  0
  -23.7048  -30.6158   19.4102 H   0  0  0  0  0  0
  -22.7234  -29.2584   19.8730 H   0  0  0  0  0  0
  -25.1275  -36.1951   25.0837 H   0  0  0  0  0  0
  -20.9963  -28.3232   24.1447 H   0  0  0  0  0  0
  -20.5625  -26.2266   23.3624 H   0  0  0  0  0  0
  -21.6631  -26.7432   22.1255 H   0  0  0  0  0  0
  -19.6909  -25.6306   21.1226 H   0  0  0  0  0  0
  -19.6703  -27.3211   20.6763 H   0  0  0  0  0  0
  -17.4200  -26.6696   21.4000 H   0  0  0  0  0  0
  -18.0306  -26.0048   22.8992 H   0  0  0  0  0  0
  -19.7925  -30.7237   24.2310 H   0  0  0  0  0  0
  -17.5014  -31.6261   24.5181 H   0  0  0  0  0  0
  -15.5344  -30.3007   23.7636 H   0  0  0  0  0  0
  -15.8653  -28.0846   22.7035 H   0  0  0  0  0  0
  -24.5892  -30.7179   25.7878 H   0  0  0  0  0  0
  -24.9192  -32.2881   26.5131 H   0  0  0  0  0  0
  -25.8232  -30.8727   27.0167 H   0  0  0  0  0  0
  -26.2832  -29.6730   24.1260 H   0  0  0  0  0  0
  -27.4201  -29.7306   25.4550 H   0  0  0  0  0  0
  -27.8646  -30.4309   23.9159 H   0  0  0  0  0  0
  -27.2704  -33.3587   26.2090 H   0  0  0  0  0  0
  -28.3851  -32.6945   25.0222 H   0  0  0  0  0  0
  -28.0843  -31.8415   26.5295 H   0  0  0  0  0  0
  -28.2606  -38.0075   24.7510 H   0  0  0  0  0  0
  -28.1058  -36.2608   24.6269 H   0  0  0  0  0  0
  -27.2305  -37.1422   25.8869 H   0  0  0  0  0  0
  -20.9221  -29.8763   21.6992 H   0  0  0  0  0  0
  -26.0164  -38.2857   24.1465 H   0  0  0  0  0  0
  -27.6768  -18.5904   22.0107 H   0  0  0  0  0  0
  -27.7919  -15.8641   22.2650 H   0  0  0  0  0  0
  -28.4094  -21.4457   18.7553 H   0  0  0  0  0  0
  -27.6763  -23.0957   18.4472 H   0  0  0  0  0  0
  -31.9873  -19.4045   19.8977 H   0  0  0  0  0  0
  -30.3679  -19.5968   19.2374 H   0  0  0  0  0  0
  -31.1806  -21.7984   18.8600 H   0  0  0  0  0  0
  -32.1781  -21.7545   20.3017 H   0  0  0  0  0  0
  -29.0827  -21.0989   22.4792 H   0  0  0  0  0  0
  -28.5094  -20.5968   20.9032 H   0  0  0  0  0  0
  -31.1783  -19.8983   22.1506 H   0  0  0  0  0  0
  -30.5732  -22.6681   21.5623 H   0  0  0  0  0  0
  -29.7403  -24.8885   17.6486 H   0  0  0  0  0  0
  -30.5524  -26.1188   18.6148 H   0  0  0  0  0  0
  -29.1861  -26.5583   17.5985 H   0  0  0  0  0  0
  -30.1785  -24.7461   20.6922 H   0  0  0  0  0  0
  -28.5805  -24.5214   21.3463 H   0  0  0  0  0  0
  -27.7032  -25.1120   18.9948 H   0  0  0  0  0  0
  -29.8179  -14.3532   22.3996 H   0  0  0  0  0  0
  1 25  1  0  0  0
  1 30  2  0  0  0
  1 85  1  0  0  0
  2  3  1  0  0  0
  2 25  1  0  0  0
  2 87  1  0  0  0
  2 88  1  0  0  0
  3  4  1  0  0  0
  3 89  1  0  0  0
  3 90  1  0  0  0
  4  5  1  0  0  0
  4 91  1  0  0  0
  4 92  1  0  0  0
  5  6  1  0  0  0
  5 26  1  0  0  0
  5 93  1  0  0  0
  6 25  1  0  0  0
  6 94  1  0  0  0
  6 95  1  0  0  0
  7  8  2  0  0  0
  7 26  1  0  0  0
  7 29  1  0  0  0
  8  9  1  0  0  0
  8 22  1  0  0  0
  9 10  1  0  0  0
  9 27  2  0  0  0
 10 11  2  0  0  0
 10 15  1  0  0  0
 11 12  1  0  0  0
 11 96  1  0  0  0
 12 13  2  0  0  0
 12 97  1  0  0  0
 13 14  1  0  0  0
 13 31  1  0  0  0
 14 15  2  0  0  0
 14 98  1  0  0  0
 15 99  1  0  0  0
 16 17  2  0  0  0
 16 21  1  0  0  0
 16 31  1  0  0  0
 17 18  1  0  0  0
 17100  1  0  0  0
 18 19  2  0  0  0
 18101  1  0  0  0
 19 20  1  0  0  0
 19 24  1  0  0  0
 20 21  2  0  0  0
 20102  1  0  0  0
 21 23  1  0  0  0
 22 28  1  0  0  0
 22 32  2  0  0  0
 26 27  1  0  0  0
 28103  1  0  0  0
 28104  1  0  0  0
 29105  1  0  0  0
 29106  1  0  0  0
 33 34  1  0  0  0
 33 66  1  0  0  0
 33 70  2  0  0  0
 34 36  1  0  0  0
 34 59  1  0  0  0
 34107  1  0  0  0
 35 44  2  0  0  0
 35 45  1  0  0  0
 35 68  1  0  0  0
 36 56  1  0  0  0
 36108  1  0  0  0
 37 39  1  0  0  0
 37 47  1  0  0  0
 37 66  1  0  0  0
 37109  1  0  0  0
 38 43  2  0  0  0
 38 46  1  0  0  0
 38 47  1  0  0  0
 39 64  1  0  0  0
 39 67  2  0  0  0
 40 52  1  0  0  0
 40 53  2  0  0  0
 40 58  1  0  0  0
 41110  1  0  0  0
 41111  1  0  0  0
 41112  1  0  0  0
 41 48  1  0  0  0
 42 43  1  0  0  0
 42 66  1  0  0  0
 42113  1  0  0  0
 42114  1  0  0  0
 43 44  1  0  0  0
 44115  1  0  0  0
 45 46  2  0  0  0
 45116  1  0  0  0
 46117  1  0  0  0
 47118  1  0  0  0
 47119  1  0  0  0
 48 56  1  0  0  0
 48 65  1  0  0  0
 48120  1  0  0  0
 49 50  1  0  0  0
 49 53  1  0  0  0
 49 64  1  0  0  0
 49121  1  0  0  0
 50 51  1  0  0  0
 50122  1  0  0  0
 50123  1  0  0  0
 51 52  1  0  0  0
 51124  1  0  0  0
 51125  1  0  0  0
 52126  1  0  0  0
 52127  1  0  0  0
 53 54  1  0  0  0
 54 55  2  0  0  0
 54128  1  0  0  0
 55 57  1  0  0  0
 55129  1  0  0  0
 56 69  2  0  0  0
 57 58  2  0  0  0
 57130  1  0  0  0
 58131  1  0  0  0
 59 60  1  0  0  0
 59 61  1  0  0  0
 59 62  1  0  0  0
 60132  1  0  0  0
 60133  1  0  0  0
 60134  1  0  0  0
 61135  1  0  0  0
 61136  1  0  0  0
 61137  1  0  0  0
 62138  1  0  0  0
 62139  1  0  0  0
 62140  1  0  0  0
 63 65  1  0  0  0
 63141  1  0  0  0
 63142  1  0  0  0
 63143  1  0  0  0
 64144  1  0  0  0
 65145  1  0  0  0
 68 84  1  0  0  0
 71 72  1  0  0  0
 71 73  2  0  0  0
 71146  1  0  0  0
 72 74  2  0  0  0
 72147  1  0  0  0
 73 86  1  0  0  0
 73 80  1  0  0  0
 74 85  1  0  0  0
 74 86  1  0  0  0
 75 76  2  0  0  0
 75148  1  0  0  0
 75149  1  0  0  0
 76 83  1  0  0  0
 76 81  1  0  0  0
 77 78  1  0  0  0
 77 80  1  0  0  0
 77150  1  0  0  0
 77151  1  0  0  0
 78 81  1  0  0  0
 78152  1  0  0  0
 78153  1  0  0  0
 79 80  1  0  0  0
 79 81  1  0  0  0
 79154  1  0  0  0
 79155  1  0  0  0
 80156  1  0  0  0
 81157  1  0  0  0
 82158  1  0  0  0
 82159  1  0  0  0
 82160  1  0  0  0
 82 84  1  0  0  0
 83 84  1  0  0  0
 83161  1  0  0  0
 83162  1  0  0  0
 84163  1  0  0  0
 85164  1  0  0  0
M  ISO  4   1 100  68 101  84 101  85 100
M  END
> <chiral flag>
0

> <version>
0

> <s_m_source_file>
/data/baiqing/PycharmProjects/Reinvent-master-3.2/result/LINK_invent/BTK/process_docking_weight1_custom_product_contain_oxygen_bond_distance_aromatic_linkinvent_7_9_3/rearranged_h_0144.sdf

> <i_m_source_file_index>
50

> <r_mmod_Potential_Energy-OPLS-2005>
11.1148309707642

> <r_mmod_Stretch_Energy-OPLS-2005>
33.8983612060547

> <r_mmod_Bend_Energy-OPLS-2005>
140.090972900391

> <r_mmod_Torsional_Energy-OPLS-2005>
285.292419433594

> <r_mmod_Improper_Torsional_Energy-OPLS-2005>
6.62519788742065

> <r_mmod_Van_der_Waal_Energy-OPLS-2005>
133.376098632812

> <r_mmod_Electrostatic_Energy-OPLS-2005>
-397.002777099609

> <r_mmod_Solvation_Energy-OPLS-2005>
-201.01252746582

> <b_mmod_Minimization_Converged-OPLS-2005>
0

> <r_mmod_RMS_Derivative-OPLS-2005>
3.7436671257019

$$$$
50
                    3D
 Structure written by MMmdl.
164173  0  0  1  0            999 V2000
  -30.6969  -14.4174   20.5304 C   0  0  0  0  0  0
  -30.4104  -12.2540   19.4252 C   0  0  0  0  0  0
  -29.4942  -12.4981   18.2066 C   0  0  0  0  0  0
  -28.0110  -12.3757   18.6099 C   0  0  0  0  0  0
  -27.6617  -13.2008   19.8778 C   0  0  2  0  0  0
  -28.7003  -12.9552   20.9985 C   0  0  0  0  0  0
  -25.2577  -13.8151   20.5676 C   0  0  0  0  0  0
  -24.1810  -13.0443   20.9131 C   0  0  0  0  0  0
  -24.6351  -11.6896   20.8685 C   0  0  0  0  0  0
  -23.9021  -10.4280   21.0378 C   0  0  0  0  0  0
  -24.3562   -9.4203   21.9182 C   0  0  0  0  0  0
  -23.6261   -8.2222   22.0769 C   0  0  0  0  0  0
  -22.4242   -8.0255   21.3554 C   0  0  0  0  0  0
  -21.9859   -9.0224   20.4664 C   0  0  0  0  0  0
  -22.7177  -10.2112   20.3061 C   0  0  0  0  0  0
  -21.6826   -6.0731   22.5280 C   0  0  0  0  0  0
  -21.4016   -6.5644   23.8218 C   0  0  0  0  0  0
  -21.3669   -5.6797   24.9178 C   0  0  0  0  0  0
  -21.6048   -4.3061   24.7215 C   0  0  0  0  0  0
  -21.8814   -3.8152   23.4336 C   0  0  0  0  0  0
  -21.9190   -4.6971   22.3398 C   0  0  0  0  0  0
  -22.7842  -13.5260   21.1809 C   0  0  0  0  0  0
  -22.1662   -4.2171   21.0967 F   0  0  0  0  0  0
  -21.5634   -3.4544   25.7725 F   0  0  0  0  0  0
  -30.0393  -13.2330   20.4541 N   0  0  0  0  0  0
  -26.3005  -12.9312   20.3348 N   0  0  0  0  0  0
  -25.9284  -11.6473   20.5734 N   0  0  0  0  0  0
  -22.0457  -12.8301   22.0375 N   0  0  0  0  0  0
  -25.4348  -15.1889   20.4204 N   0  0  0  0  0  0
  -31.8491  -14.5811   20.1154 O   0  0  0  0  0  0
  -21.6617   -6.8850   21.4231 O   0  0  0  0  0  0
  -22.3539  -14.5574   20.6684 O   0  0  0  0  0  0
  -24.6108  -31.8685   23.2121 C   0  0  0  0  0  0
  -25.9019  -32.4823   23.8399 C   0  0  1  0  0  0
  -27.2397  -27.4643   20.0896 C   0  0  0  0  0  0
  -25.5898  -33.8625   24.2342 N   0  0  0  0  0  0
  -23.3970  -30.4904   21.5520 C   0  0  2  0  0  0
  -24.8436  -28.9555   20.1175 C   0  0  0  0  0  0
  -22.7391  -29.4652   22.5022 C   0  0  0  0  0  0
  -18.0257  -28.1375   22.8499 C   0  0  0  0  0  0
  -24.1484  -36.7324   23.2640 C   0  0  0  0  0  0
  -25.9214  -30.8425   21.3593 C   0  0  0  0  0  0
  -25.9985  -29.4768   20.7112 C   0  0  0  0  0  0
  -27.1983  -28.7377   20.6941 C   0  0  0  0  0  0
  -26.0673  -26.9462   19.4935 C   0  0  0  0  0  0
  -24.8697  -27.6876   19.5092 C   0  0  0  0  0  0
  -23.6026  -29.8161   20.1680 C   0  0  0  0  0  0
  -25.4098  -36.3113   24.0342 C   0  0  1  0  0  0
  -20.5845  -28.3647   23.1343 C   0  0  2  0  0  0
  -20.6746  -26.9386   22.5431 C   0  0  0  0  0  0
  -19.5730  -26.6382   21.5219 C   0  0  0  0  0  0
  -18.1901  -26.7923   22.1622 C   0  0  0  0  0  0
  -19.1510  -28.8821   23.2918 C   0  0  0  0  0  0
  -18.9440  -30.1433   23.8921 C   0  0  0  0  0  0
  -17.6448  -30.6582   24.0562 C   0  0  0  0  0  0
  -25.9024  -34.9479   23.5135 C   0  0  0  0  0  0
  -16.5333  -29.9090   23.6324 C   0  0  0  0  0  0
  -16.7251  -28.6505   23.0342 C   0  0  0  0  0  0
  -26.4467  -31.6605   25.0724 C   0  0  0  0  0  0
  -25.3763  -31.3716   26.1502 C   0  0  0  0  0  0
  -27.0293  -30.3047   24.6087 C   0  0  0  0  0  0
  -27.6050  -32.4324   25.7481 C   0  0  0  0  0  0
  -27.5576  -37.1811   24.8458 C   0  0  0  0  0  0
  -21.4121  -29.3026   22.3777 N   0  0  0  0  0  0
  -26.4284  -37.3793   23.9411 N   0  0  0  0  0  0
  -24.6613  -31.0810   22.1005 N   0  0  0  0  0  0
  -23.4177  -28.8187   23.3039 O   0  0  0  0  0  0
  -28.4403  -26.7951   20.0803 O   0  0  0  0  0  0
  -26.5573  -34.8923   22.4688 O   0  0  0  0  0  0
  -23.5310  -32.1422   23.7534 O   0  0  0  0  0  0
  -30.1978  -18.4222   18.9865 C   0  0  0  0  0  0
  -30.4353  -17.0301   19.1321 C   0  0  0  0  0  0
  -29.5739  -18.7996   20.1419 C   0  0  0  0  0  0
  -29.9471  -16.6937   20.3722 C   0  0  0  0  0  0
  -28.9628  -24.7555   18.8620 C   0  0  0  0  0  0
  -27.9489  -21.7296   19.2364 C   0  0  0  0  0  0
  -27.8009  -20.4708   20.0945 C   0  0  0  0  0  0
  -30.0675  -21.1942   20.2049 C   0  0  0  0  0  0
  -29.1947  -22.3992   19.8285 C   0  0  1  0  0  0
  -30.2648  -23.0078   17.5578 C   0  0  0  0  0  0
  -31.1976  -23.9587   19.6717 C   0  0  0  0  0  0
  -28.4182  -25.3705   20.1594 C   0  0  0  0  0  0
  -29.8884  -23.5143   18.9768 C   0  0  0  0  0  0
  -29.1541  -20.0859   20.4762 N   0  0  0  0  0  0
  -29.9367  -15.4517   20.9251 N   0  0  0  0  0  0
  -28.6766  -25.2503   17.7658 O   0  0  0  0  0  0
  -29.3644  -17.7594   20.9954 O   0  0  0  0  0  0
  -31.4611  -12.3182   19.1397 H   0  0  0  0  0  0
  -30.2690  -11.2424   19.8108 H   0  0  0  0  0  0
  -29.7240  -11.7886   17.4116 H   0  0  0  0  0  0
  -29.6772  -13.4912   17.7913 H   0  0  0  0  0  0
  -27.7943  -11.3208   18.7827 H   0  0  0  0  0  0
  -27.3740  -12.6844   17.7806 H   0  0  0  0  0  0
  -27.7137  -14.2504   19.5909 H   0  0  0  0  0  0
  -28.6536  -11.9181   21.3354 H   0  0  0  0  0  0
  -28.4762  -13.5551   21.8815 H   0  0  0  0  0  0
  -25.2678   -9.5731   22.4786 H   0  0  0  0  0  0
  -24.0007   -7.4624   22.7484 H   0  0  0  0  0  0
  -21.0798   -8.8711   19.8967 H   0  0  0  0  0  0
  -22.3589  -10.9654   19.6199 H   0  0  0  0  0  0
  -21.2014   -7.6157   23.9723 H   0  0  0  0  0  0
  -21.1507   -6.0526   25.9080 H   0  0  0  0  0  0
  -22.0590   -2.7624   23.2801 H   0  0  0  0  0  0
  -22.3993  -11.9953   22.4791 H   0  0  0  0  0  0
  -21.1110  -13.1431   22.2571 H   0  0  0  0  0  0
  -24.6730  -15.8454   20.5496 H   0  0  0  0  0  0
  -26.3058  -15.6358   20.1631 H   0  0  0  0  0  0
  -26.7093  -32.5545   23.1171 H   0  0  0  0  0  0
  -25.0079  -33.9792   25.0510 H   0  0  0  0  0  0
  -22.6825  -31.3045   21.4116 H   0  0  0  0  0  0
  -23.3732  -35.9674   23.3309 H   0  0  0  0  0  0
  -24.3576  -36.8928   22.2053 H   0  0  0  0  0  0
  -23.7257  -37.6543   23.6642 H   0  0  0  0  0  0
  -26.0245  -31.6063   20.5867 H   0  0  0  0  0  0
  -26.8139  -30.9008   21.9713 H   0  0  0  0  0  0
  -28.0929  -29.1384   21.1489 H   0  0  0  0  0  0
  -26.0713  -25.9858   18.9972 H   0  0  0  0  0  0
  -23.9817  -27.2824   19.0442 H   0  0  0  0  0  0
  -23.7007  -30.5851   19.4008 H   0  0  0  0  0  0
  -22.7300  -29.2259   19.8818 H   0  0  0  0  0  0
  -25.1271  -36.1977   25.0831 H   0  0  0  0  0  0
  -20.9922  -28.3197   24.1470 H   0  0  0  0  0  0
  -20.5640  -26.2245   23.3611 H   0  0  0  0  0  0
  -21.6619  -26.7427   22.1232 H   0  0  0  0  0  0
  -19.6883  -25.6297   21.1236 H   0  0  0  0  0  0
  -19.6674  -27.3206   20.6762 H   0  0  0  0  0  0
  -17.4176  -26.6679   21.4014 H   0  0  0  0  0  0
  -18.0284  -26.0061   22.9013 H   0  0  0  0  0  0
  -19.7914  -30.7241   24.2304 H   0  0  0  0  0  0
  -17.5001  -31.6265   24.5162 H   0  0  0  0  0  0
  -15.5332  -30.2997   23.7642 H   0  0  0  0  0  0
  -15.8646  -28.0842   22.7038 H   0  0  0  0  0  0
  -24.5908  -30.7077   25.7873 H   0  0  0  0  0  0
  -24.8988  -32.2879   26.4984 H   0  0  0  0  0  0
  -25.8148  -30.8875   27.0239 H   0  0  0  0  0  0
  -26.2823  -29.6808   24.1162 H   0  0  0  0  0  0
  -27.4091  -29.7281   25.4535 H   0  0  0  0  0  0
  -27.8646  -30.4367   23.9205 H   0  0  0  0  0  0
  -27.2663  -33.3604   26.2102 H   0  0  0  0  0  0
  -28.3837  -32.6918   25.0300 H   0  0  0  0  0  0
  -28.0744  -31.8427   26.5370 H   0  0  0  0  0  0
  -28.2599  -38.0104   24.7492 H   0  0  0  0  0  0
  -28.1061  -36.2632   24.6281 H   0  0  0  0  0  0
  -27.2297  -37.1472   25.8864 H   0  0  0  0  0  0
  -20.9266  -29.8776   21.7034 H   0  0  0  0  0  0
  -26.0173  -38.2871   24.1407 H   0  0  0  0  0  0
  -30.4495  -19.0502   18.1447 H   0  0  0  0  0  0
  -30.9047  -16.3725   18.4133 H   0  0  0  0  0  0
  -27.0639  -22.3665   19.2655 H   0  0  0  0  0  0
  -28.1111  -21.4306   18.2012 H   0  0  0  0  0  0
  -27.2771  -19.6790   19.5555 H   0  0  0  0  0  0
  -27.2244  -20.6878   20.9952 H   0  0  0  0  0  0
  -30.6683  -21.4120   21.0892 H   0  0  0  0  0  0
  -30.7624  -20.9417   19.4065 H   0  0  0  0  0  0
  -28.8831  -22.8305   20.7816 H   0  0  0  0  0  0
  -29.3889  -22.7783   16.9508 H   0  0  0  0  0  0
  -30.8838  -22.1123   17.5872 H   0  0  0  0  0  0
  -30.8331  -23.7605   17.0099 H   0  0  0  0  0  0
  -31.0490  -24.1918   20.7258 H   0  0  0  0  0  0
  -31.6255  -24.8432   19.1980 H   0  0  0  0  0  0
  -31.9593  -23.1810   19.6265 H   0  0  0  0  0  0
  -29.0522  -25.0793   20.9959 H   0  0  0  0  0  0
  -27.4286  -24.9671   20.3763 H   0  0  0  0  0  0
  -29.1137  -15.2159   21.4553 H   0  0  0  0  0  0
  1 25  1  0  0  0
  1 30  2  0  0  0
  1 85  1  0  0  0
  2  3  1  0  0  0
  2 25  1  0  0  0
  2 88  1  0  0  0
  2 89  1  0  0  0
  3  4  1  0  0  0
  3 90  1  0  0  0
  3 91  1  0  0  0
  4  5  1  0  0  0
  4 92  1  0  0  0
  4 93  1  0  0  0
  5  6  1  0  0  0
  5 26  1  0  0  0
  5 94  1  0  0  0
  6 25  1  0  0  0
  6 95  1  0  0  0
  6 96  1  0  0  0
  7  8  2  0  0  0
  7 26  1  0  0  0
  7 29  1  0  0  0
  8  9  1  0  0  0
  8 22  1  0  0  0
  9 10  1  0  0  0
  9 27  2  0  0  0
 10 11  2  0  0  0
 10 15  1  0  0  0
 11 12  1  0  0  0
 11 97  1  0  0  0
 12 13  2  0  0  0
 12 98  1  0  0  0
 13 14  1  0  0  0
 13 31  1  0  0  0
 14 15  2  0  0  0
 14 99  1  0  0  0
 15100  1  0  0  0
 16 17  2  0  0  0
 16 21  1  0  0  0
 16 31  1  0  0  0
 17 18  1  0  0  0
 17101  1  0  0  0
 18 19  2  0  0  0
 18102  1  0  0  0
 19 20  1  0  0  0
 19 24  1  0  0  0
 20 21  2  0  0  0
 20103  1  0  0  0
 21 23  1  0  0  0
 22 28  1  0  0  0
 22 32  2  0  0  0
 26 27  1  0  0  0
 28104  1  0  0  0
 28105  1  0  0  0
 29106  1  0  0  0
 29107  1  0  0  0
 33 34  1  0  0  0
 33 66  1  0  0  0
 33 70  2  0  0  0
 34 36  1  0  0  0
 34 59  1  0  0  0
 34108  1  0  0  0
 35 44  2  0  0  0
 35 45  1  0  0  0
 35 68  1  0  0  0
 36 56  1  0  0  0
 36109  1  0  0  0
 37 39  1  0  0  0
 37 47  1  0  0  0
 37 66  1  0  0  0
 37110  1  0  0  0
 38 43  2  0  0  0
 38 46  1  0  0  0
 38 47  1  0  0  0
 39 64  1  0  0  0
 39 67  2  0  0  0
 40 52  1  0  0  0
 40 53  2  0  0  0
 40 58  1  0  0  0
 41111  1  0  0  0
 41112  1  0  0  0
 41113  1  0  0  0
 41 48  1  0  0  0
 42 43  1  0  0  0
 42 66  1  0  0  0
 42114  1  0  0  0
 42115  1  0  0  0
 43 44  1  0  0  0
 44116  1  0  0  0
 45 46  2  0  0  0
 45117  1  0  0  0
 46118  1  0  0  0
 47119  1  0  0  0
 47120  1  0  0  0
 48 56  1  0  0  0
 48 65  1  0  0  0
 48121  1  0  0  0
 49 50  1  0  0  0
 49 53  1  0  0  0
 49 64  1  0  0  0
 49122  1  0  0  0
 50 51  1  0  0  0
 50123  1  0  0  0
 50124  1  0  0  0
 51 52  1  0  0  0
 51125  1  0  0  0
 51126  1  0  0  0
 52127  1  0  0  0
 52128  1  0  0  0
 53 54  1  0  0  0
 54 55  2  0  0  0
 54129  1  0  0  0
 55 57  1  0  0  0
 55130  1  0  0  0
 56 69  2  0  0  0
 57 58  2  0  0  0
 57131  1  0  0  0
 58132  1  0  0  0
 59 60  1  0  0  0
 59 61  1  0  0  0
 59 62  1  0  0  0
 60133  1  0  0  0
 60134  1  0  0  0
 60135  1  0  0  0
 61136  1  0  0  0
 61137  1  0  0  0
 61138  1  0  0  0
 62139  1  0  0  0
 62140  1  0  0  0
 62141  1  0  0  0
 63 65  1  0  0  0
 63142  1  0  0  0
 63143  1  0  0  0
 63144  1  0  0  0
 64145  1  0  0  0
 65146  1  0  0  0
 68 82  1  0  0  0
 71 72  1  0  0  0
 71 73  2  0  0  0
 71147  1  0  0  0
 72 74  2  0  0  0
 72148  1  0  0  0
 73 84  1  0  0  0
 73 87  1  0  0  0
 74 85  1  0  0  0
 74 87  1  0  0  0
 75 82  1  0  0  0
 75 83  1  0  0  0
 75 86  2  0  0  0
 76 77  1  0  0  0
 76149  1  0  0  0
 76150  1  0  0  0
 76 79  1  0  0  0
 77 84  1  0  0  0
 77151  1  0  0  0
 77152  1  0  0  0
 78 79  1  0  0  0
 78 84  1  0  0  0
 78153  1  0  0  0
 78154  1  0  0  0
 79 83  1  0  0  0
 79155  1  0  0  0
 80156  1  0  0  0
 80157  1  0  0  0
 80158  1  0  0  0
 80 83  1  0  0  0
 81 83  1  0  0  0
 81159  1  0  0  0
 81160  1  0  0  0
 81161  1  0  0  0
 82162  1  0  0  0
 82163  1  0  0  0
 85164  1  0  0  0
M  ISO  4   1 100  68 101  82 101  85 100
M  END
> <chiral flag>
0

> <version>
0

> <s_m_source_file>
/data/baiqing/PycharmProjects/Reinvent-master-3.2/result/LINK_invent/BTK/process_docking_weight1_custom_product_contain_oxygen_bond_distance_aromatic_linkinvent_7_9_3/rearranged_h_0144.sdf

> <i_m_source_file_index>
51

> <r_mmod_Potential_Energy-OPLS-2005>
90.8948745727539

> <r_mmod_Stretch_Energy-OPLS-2005>
34.3719177246094

> <r_mmod_Bend_Energy-OPLS-2005>
135.136672973633

> <r_mmod_Torsional_Energy-OPLS-2005>
332.174530029297

> <r_mmod_Improper_Torsional_Energy-OPLS-2005>
9.614426612854

> <r_mmod_Van_der_Waal_Energy-OPLS-2005>
143.806121826172

> <r_mmod_Electrostatic_Energy-OPLS-2005>
-335.235015869141

> <r_mmod_Solvation_Energy-OPLS-2005>
-240.731750488281

> <b_mmod_Minimization_Converged-OPLS-2005>
0

> <r_mmod_RMS_Derivative-OPLS-2005>
2.52017855644226

$$$$
51
                    3D
 Structure written by MMmdl.
173182  0  0  1  0            999 V2000
  -30.6856  -14.5536   20.4698 C   0  0  0  0  0  0
  -30.4530  -12.3179   19.4527 C   0  0  0  0  0  0
  -29.5202  -12.3668   18.2233 C   0  0  0  0  0  0
  -28.0259  -12.3170   18.6258 C   0  0  0  0  0  0
  -27.6580  -13.2071   19.8461 C   0  0  2  0  0  0
  -28.7071  -13.0762   20.9745 C   0  0  0  0  0  0
  -25.2613  -13.8161   20.5715 C   0  0  0  0  0  0
  -24.1883  -13.0438   20.9175 C   0  0  0  0  0  0
  -24.6431  -11.6901   20.8759 C   0  0  0  0  0  0
  -23.9107  -10.4283   21.0435 C   0  0  0  0  0  0
  -24.3645   -9.4176   21.9168 C   0  0  0  0  0  0
  -23.6285   -8.2232   22.0759 C   0  0  0  0  0  0
  -22.4262   -8.0301   21.3541 C   0  0  0  0  0  0
  -21.9920   -9.0295   20.4647 C   0  0  0  0  0  0
  -22.7302  -10.2128   20.3044 C   0  0  0  0  0  0
  -21.6866   -6.0758   22.5270 C   0  0  0  0  0  0
  -21.4057   -6.5654   23.8210 C   0  0  0  0  0  0
  -21.3671   -5.6796   24.9173 C   0  0  0  0  0  0
  -21.6016   -4.3047   24.7210 C   0  0  0  0  0  0
  -21.8844   -3.8147   23.4325 C   0  0  0  0  0  0
  -21.9191   -4.6982   22.3399 C   0  0  0  0  0  0
  -22.7882  -13.5191   21.1817 C   0  0  0  0  0  0
  -22.1653   -4.2180   21.0973 F   0  0  0  0  0  0
  -21.5592   -3.4515   25.7703 F   0  0  0  0  0  0
  -30.0299  -13.3627   20.3977 N   0  0  0  0  0  0
  -26.3030  -12.9347   20.3243 N   0  0  0  0  0  0
  -25.9357  -11.6514   20.5780 N   0  0  0  0  0  0
  -22.0532  -12.8227   22.0415 N   0  0  0  0  0  0
  -25.4266  -15.1905   20.4263 N   0  0  0  0  0  0
  -31.8705  -14.6835   20.1579 O   0  0  0  0  0  0
  -21.6621   -6.8901   21.4233 O   0  0  0  0  0  0
  -22.3523  -14.5474   20.6631 O   0  0  0  0  0  0
  -24.6225  -31.8606   23.2047 C   0  0  0  0  0  0
  -25.9130  -32.4775   23.8356 C   0  0  1  0  0  0
  -27.2291  -27.3883   20.1229 C   0  0  0  0  0  0
  -25.5986  -33.8581   24.2304 N   0  0  0  0  0  0
  -23.4110  -30.4821   21.5455 C   0  0  2  0  0  0
  -24.8613  -28.9493   20.1128 C   0  0  0  0  0  0
  -22.7430  -29.4612   22.4948 C   0  0  0  0  0  0
  -18.0277  -28.1415   22.8492 C   0  0  0  0  0  0
  -24.1474  -36.7321   23.2620 C   0  0  0  0  0  0
  -25.9415  -30.8203   21.3550 C   0  0  0  0  0  0
  -26.0223  -29.4475   20.7157 C   0  0  0  0  0  0
  -27.2132  -28.6764   20.7159 C   0  0  0  0  0  0
  -26.0505  -26.9216   19.4978 C   0  0  0  0  0  0
  -24.8731  -27.6910   19.4945 C   0  0  0  0  0  0
  -23.6223  -29.8134   20.1592 C   0  0  0  0  0  0
  -25.4086  -36.3043   24.0294 C   0  0  1  0  0  0
  -20.5873  -28.3685   23.1321 C   0  0  2  0  0  0
  -20.6744  -26.9429   22.5416 C   0  0  0  0  0  0
  -19.5725  -26.6412   21.5209 C   0  0  0  0  0  0
  -18.1907  -26.7970   22.1621 C   0  0  0  0  0  0
  -19.1526  -28.8876   23.2915 C   0  0  0  0  0  0
  -18.9450  -30.1480   23.8940 C   0  0  0  0  0  0
  -17.6448  -30.6613   24.0594 C   0  0  0  0  0  0
  -25.9053  -34.9434   23.5082 C   0  0  0  0  0  0
  -16.5352  -29.9121   23.6337 C   0  0  0  0  0  0
  -16.7266  -28.6547   23.0352 C   0  0  0  0  0  0
  -26.4565  -31.6539   25.0666 C   0  0  0  0  0  0
  -25.3891  -31.3713   26.1458 C   0  0  0  0  0  0
  -27.0289  -30.2938   24.5987 C   0  0  0  0  0  0
  -27.6112  -32.4260   25.7507 C   0  0  0  0  0  0
  -27.5560  -37.1777   24.8461 C   0  0  0  0  0  0
  -21.4148  -29.3028   22.3728 N   0  0  0  0  0  0
  -26.4256  -37.3745   23.9435 N   0  0  0  0  0  0
  -24.6766  -31.0676   22.0965 N   0  0  0  0  0  0
  -23.4207  -28.8083   23.2960 O   0  0  0  0  0  0
  -28.3569  -26.5905   20.1848 O   0  0  0  0  0  0
  -26.5565  -34.8890   22.4626 O   0  0  0  0  0  0
  -23.5401  -32.1357   23.7415 O   0  0  0  0  0  0
  -30.0448  -19.2187   19.4090 C   0  0  0  0  0  0
  -30.8901  -17.6620   21.5587 C   0  0  0  0  0  0
  -29.8320  -17.8169   19.3581 C   0  0  0  0  0  0
  -30.6400  -19.8665   20.5032 C   0  0  0  0  0  0
  -30.2251  -17.0211   20.4855 C   0  0  0  0  0  0
  -31.1109  -19.0572   21.5653 C   0  0  0  0  0  0
  -29.3532  -24.3574   20.7796 C   0  0  0  0  0  0
  -27.8367  -16.7711   17.9759 C   0  0  0  0  0  0
  -29.0342  -15.9405   17.5780 C   0  0  0  0  0  0
  -29.2208  -17.3559   18.0451 C   0  0  0  0  0  0
  -28.6643  -22.3837   24.1503 C   0  0  0  0  0  0
  -31.7958  -22.7086   22.1856 C   0  0  0  0  0  0
  -28.0178  -22.2210   21.0624 C   0  0  0  0  0  0
  -28.0816  -25.1840   20.4480 C   0  0  0  0  0  0
  -28.8318  -23.4872   23.0815 C   0  0  0  0  0  0
  -30.4800  -22.0747   21.6894 C   0  0  2  0  0  0
  -29.2058  -23.0378   21.6311 C   0  0  2  0  0  0
  -29.8873  -15.6325   20.6461 N   0  0  0  0  0  0
  -30.7349  -21.2774   20.4797 N   0  0  0  0  0  0
  -30.4524  -24.7613   20.3924 O   0  0  0  0  0  0
  -31.7921  -19.6008   22.6025 F   0  0  0  0  0  0
  -31.4894  -12.4400   19.1322 H   0  0  0  0  0  0
  -30.3961  -11.3444   19.9403 H   0  0  0  0  0  0
  -29.7464  -11.5248   17.5685 H   0  0  0  0  0  0
  -29.7457  -13.2392   17.6208 H   0  0  0  0  0  0
  -27.8040  -11.2779   18.8637 H   0  0  0  0  0  0
  -27.3998  -12.5696   17.7688 H   0  0  0  0  0  0
  -27.6656  -14.2352   19.4896 H   0  0  0  0  0  0
  -28.6964  -12.0739   21.4032 H   0  0  0  0  0  0
  -28.4733  -13.7564   21.7996 H   0  0  0  0  0  0
  -25.2810   -9.5650   22.4681 H   0  0  0  0  0  0
  -24.0025   -7.4646   22.7477 H   0  0  0  0  0  0
  -21.0834   -8.8852   19.8928 H   0  0  0  0  0  0
  -22.3820  -10.9680   19.6115 H   0  0  0  0  0  0
  -21.2106   -7.6158   23.9747 H   0  0  0  0  0  0
  -21.1452   -6.0496   25.9079 H   0  0  0  0  0  0
  -22.0607   -2.7619   23.2804 H   0  0  0  0  0  0
  -22.4163  -11.9916   22.4890 H   0  0  0  0  0  0
  -21.1121  -13.1260   22.2583 H   0  0  0  0  0  0
  -24.6571  -15.8341   20.5746 H   0  0  0  0  0  0
  -26.2705  -15.6520   20.1243 H   0  0  0  0  0  0
  -26.7207  -32.5483   23.1138 H   0  0  0  0  0  0
  -25.0268  -33.9752   25.0507 H   0  0  0  0  0  0
  -22.7033  -31.3001   21.3966 H   0  0  0  0  0  0
  -23.3669  -35.9726   23.3265 H   0  0  0  0  0  0
  -24.3581  -36.8963   22.2044 H   0  0  0  0  0  0
  -23.7269  -37.6540   23.6666 H   0  0  0  0  0  0
  -26.0336  -31.5627   20.5597 H   0  0  0  0  0  0
  -26.8452  -30.9055   21.9513 H   0  0  0  0  0  0
  -28.1068  -29.0401   21.2010 H   0  0  0  0  0  0
  -26.0175  -25.9582   19.0120 H   0  0  0  0  0  0
  -23.9870  -27.2985   19.0160 H   0  0  0  0  0  0
  -23.7498  -30.5864   19.3993 H   0  0  0  0  0  0
  -22.7453  -29.2363   19.8561 H   0  0  0  0  0  0
  -25.1235  -36.1902   25.0764 H   0  0  0  0  0  0
  -21.0002  -28.3313   24.1437 H   0  0  0  0  0  0
  -20.5636  -26.2313   23.3618 H   0  0  0  0  0  0
  -21.6601  -26.7458   22.1220 H   0  0  0  0  0  0
  -19.6880  -25.6331   21.1221 H   0  0  0  0  0  0
  -19.6676  -27.3232   20.6764 H   0  0  0  0  0  0
  -17.4157  -26.6739   21.4045 H   0  0  0  0  0  0
  -18.0344  -26.0135   22.9041 H   0  0  0  0  0  0
  -19.7927  -30.7276   24.2336 H   0  0  0  0  0  0
  -17.5004  -31.6298   24.5193 H   0  0  0  0  0  0
  -15.5344  -30.3037   23.7618 H   0  0  0  0  0  0
  -15.8669  -28.0864   22.7048 H   0  0  0  0  0  0
  -24.6063  -30.7010   25.7924 H   0  0  0  0  0  0
  -24.9111  -32.2883   26.4895 H   0  0  0  0  0  0
  -25.8339  -30.8976   27.0204 H   0  0  0  0  0  0
  -26.2753  -29.6800   24.1016 H   0  0  0  0  0  0
  -27.3984  -29.7104   25.4423 H   0  0  0  0  0  0
  -27.8665  -30.4171   23.9125 H   0  0  0  0  0  0
  -27.2660  -33.3507   26.2172 H   0  0  0  0  0  0
  -28.3975  -32.6902   25.0426 H   0  0  0  0  0  0
  -28.0722  -31.8307   26.5406 H   0  0  0  0  0  0
  -28.2520  -38.0115   24.7478 H   0  0  0  0  0  0
  -28.1071  -36.2613   24.6274 H   0  0  0  0  0  0
  -27.2303  -37.1471   25.8872 H   0  0  0  0  0  0
  -20.9335  -29.8860   21.7019 H   0  0  0  0  0  0
  -26.0102  -38.2791   24.1510 H   0  0  0  0  0  0
  -29.7262  -19.8233   18.5742 H   0  0  0  0  0  0
  -31.2246  -17.0905   22.4126 H   0  0  0  0  0  0
  -27.3495  -16.5427   18.9203 H   0  0  0  0  0  0
  -27.1759  -17.1005   17.1761 H   0  0  0  0  0  0
  -29.1652  -15.7387   16.5157 H   0  0  0  0  0  0
  -29.3170  -15.1455   18.2379 H   0  0  0  0  0  0
  -29.5010  -18.0383   17.2452 H   0  0  0  0  0  0
  -28.2293  -22.8032   25.0556 H   0  0  0  0  0  0
  -29.6195  -21.9399   24.4426 H   0  0  0  0  0  0
  -27.9972  -21.5881   23.8332 H   0  0  0  0  0  0
  -31.6445  -23.3102   23.0800 H   0  0  0  0  0  0
  -32.2603  -23.3344   21.4237 H   0  0  0  0  0  0
  -32.5258  -21.9379   22.4464 H   0  0  0  0  0  0
  -27.0580  -22.7236   21.1910 H   0  0  0  0  0  0
  -27.9359  -21.2465   21.5406 H   0  0  0  0  0  0
  -28.1419  -22.0303   19.9977 H   0  0  0  0  0  0
  -27.3720  -25.1108   21.2738 H   0  0  0  0  0  0
  -27.6180  -24.7174   19.5753 H   0  0  0  0  0  0
  -29.5605  -24.2139   23.4445 H   0  0  0  0  0  0
  -27.8909  -24.0390   23.0530 H   0  0  0  0  0  0
  -30.2182  -21.3342   22.4397 H   0  0  0  0  0  0
  -28.9136  -15.4238   20.8000 H   0  0  0  0  0  0
  -31.2052  -21.7197   19.6899 H   0  0  0  0  0  0
  1 25  1  0  0  0
  1 30  2  0  0  0
  1 88  1  0  0  0
  2  3  1  0  0  0
  2 25  1  0  0  0
  2 92  1  0  0  0
  2 93  1  0  0  0
  3  4  1  0  0  0
  3 94  1  0  0  0
  3 95  1  0  0  0
  4  5  1  0  0  0
  4 96  1  0  0  0
  4 97  1  0  0  0
  5  6  1  0  0  0
  5 26  1  0  0  0
  5 98  1  0  0  0
  6 25  1  0  0  0
  6 99  1  0  0  0
  6100  1  0  0  0
  7  8  2  0  0  0
  7 26  1  0  0  0
  7 29  1  0  0  0
  8  9  1  0  0  0
  8 22  1  0  0  0
  9 10  1  0  0  0
  9 27  2  0  0  0
 10 11  2  0  0  0
 10 15  1  0  0  0
 11 12  1  0  0  0
 11101  1  0  0  0
 12 13  2  0  0  0
 12102  1  0  0  0
 13 14  1  0  0  0
 13 31  1  0  0  0
 14 15  2  0  0  0
 14103  1  0  0  0
 15104  1  0  0  0
 16 17  2  0  0  0
 16 21  1  0  0  0
 16 31  1  0  0  0
 17 18  1  0  0  0
 17105  1  0  0  0
 18 19  2  0  0  0
 18106  1  0  0  0
 19 20  1  0  0  0
 19 24  1  0  0  0
 20 21  2  0  0  0
 20107  1  0  0  0
 21 23  1  0  0  0
 22 28  1  0  0  0
 22 32  2  0  0  0
 26 27  1  0  0  0
 28108  1  0  0  0
 28109  1  0  0  0
 29110  1  0  0  0
 29111  1  0  0  0
 33 34  1  0  0  0
 33 66  1  0  0  0
 33 70  2  0  0  0
 34 36  1  0  0  0
 34 59  1  0  0  0
 34112  1  0  0  0
 35 44  2  0  0  0
 35 45  1  0  0  0
 35 68  1  0  0  0
 36 56  1  0  0  0
 36113  1  0  0  0
 37 39  1  0  0  0
 37 47  1  0  0  0
 37 66  1  0  0  0
 37114  1  0  0  0
 38 43  2  0  0  0
 38 46  1  0  0  0
 38 47  1  0  0  0
 39 64  1  0  0  0
 39 67  2  0  0  0
 40 52  1  0  0  0
 40 53  2  0  0  0
 40 58  1  0  0  0
 41115  1  0  0  0
 41116  1  0  0  0
 41117  1  0  0  0
 41 48  1  0  0  0
 42 43  1  0  0  0
 42 66  1  0  0  0
 42118  1  0  0  0
 42119  1  0  0  0
 43 44  1  0  0  0
 44120  1  0  0  0
 45 46  2  0  0  0
 45121  1  0  0  0
 46122  1  0  0  0
 47123  1  0  0  0
 47124  1  0  0  0
 48 56  1  0  0  0
 48 65  1  0  0  0
 48125  1  0  0  0
 49 50  1  0  0  0
 49 53  1  0  0  0
 49 64  1  0  0  0
 49126  1  0  0  0
 50 51  1  0  0  0
 50127  1  0  0  0
 50128  1  0  0  0
 51 52  1  0  0  0
 51129  1  0  0  0
 51130  1  0  0  0
 52131  1  0  0  0
 52132  1  0  0  0
 53 54  1  0  0  0
 54 55  2  0  0  0
 54133  1  0  0  0
 55 57  1  0  0  0
 55134  1  0  0  0
 56 69  2  0  0  0
 57 58  2  0  0  0
 57135  1  0  0  0
 58136  1  0  0  0
 59 60  1  0  0  0
 59 61  1  0  0  0
 59 62  1  0  0  0
 60137  1  0  0  0
 60138  1  0  0  0
 60139  1  0  0  0
 61140  1  0  0  0
 61141  1  0  0  0
 61142  1  0  0  0
 62143  1  0  0  0
 62144  1  0  0  0
 62145  1  0  0  0
 63 65  1  0  0  0
 63146  1  0  0  0
 63147  1  0  0  0
 63148  1  0  0  0
 64149  1  0  0  0
 65150  1  0  0  0
 68 84  1  0  0  0
 71 73  2  0  0  0
 71 74  1  0  0  0
 71151  1  0  0  0
 72 75  2  0  0  0
 72 76  1  0  0  0
 72152  1  0  0  0
 73 75  1  0  0  0
 73 80  1  0  0  0
 74 76  2  0  0  0
 74 89  1  0  0  0
 75 88  1  0  0  0
 76 91  1  0  0  0
 77 84  1  0  0  0
 77 90  2  0  0  0
 77 87  1  0  0  0
 78 79  1  0  0  0
 78 80  1  0  0  0
 78153  1  0  0  0
 78154  1  0  0  0
 79 80  1  0  0  0
 79155  1  0  0  0
 79156  1  0  0  0
 80157  1  0  0  0
 81 85  1  0  0  0
 81158  1  0  0  0
 81159  1  0  0  0
 81160  1  0  0  0
 82161  1  0  0  0
 82162  1  0  0  0
 82163  1  0  0  0
 82 86  1  0  0  0
 83164  1  0  0  0
 83165  1  0  0  0
 83166  1  0  0  0
 83 87  1  0  0  0
 84167  1  0  0  0
 84168  1  0  0  0
 85 87  1  0  0  0
 85169  1  0  0  0
 85170  1  0  0  0
 86 87  1  0  0  0
 86 89  1  0  0  0
 86171  1  0  0  0
 88172  1  0  0  0
 89173  1  0  0  0
M  ISO  4   1 100  68 101  84 101  88 100
M  END
> <chiral flag>
0

> <version>
0

> <s_m_source_file>
/data/baiqing/PycharmProjects/Reinvent-master-3.2/result/LINK_invent/BTK/process_docking_weight1_custom_product_contain_oxygen_bond_distance_aromatic_linkinvent_7_9_3/rearranged_h_0144.sdf

> <i_m_source_file_index>
52

> <r_mmod_Potential_Energy-OPLS-2005>
197.457412719727

> <r_mmod_Stretch_Energy-OPLS-2005>
58.3803901672363

> <r_mmod_Bend_Energy-OPLS-2005>
140.320907592773

> <r_mmod_Torsional_Energy-OPLS-2005>
309.478851318359

> <r_mmod_Improper_Torsional_Energy-OPLS-2005>
6.98256587982178

> <r_mmod_Van_der_Waal_Energy-OPLS-2005>
157.2529296875

> <r_mmod_Electrostatic_Energy-OPLS-2005>
-288.942474365234

> <r_mmod_Solvation_Energy-OPLS-2005>
-219.819854736328

> <b_mmod_Minimization_Converged-OPLS-2005>
0

> <r_mmod_RMS_Derivative-OPLS-2005>
6.41234588623047

$$$$
52
                    3D
 Structure written by MMmdl.
169177  0  0  1  0            999 V2000
  -30.7055  -14.4536   20.5287 C   0  0  0  0  0  0
  -30.4147  -12.2795   19.4342 C   0  0  0  0  0  0
  -29.4964  -12.4933   18.2129 C   0  0  0  0  0  0
  -28.0155  -12.3660   18.6211 C   0  0  0  0  0  0
  -27.6620  -13.2088   19.8767 C   0  0  2  0  0  0
  -28.7015  -12.9981   21.0019 C   0  0  0  0  0  0
  -25.2598  -13.8179   20.5708 C   0  0  0  0  0  0
  -24.1847  -13.0453   20.9187 C   0  0  0  0  0  0
  -24.6392  -11.6919   20.8737 C   0  0  0  0  0  0
  -23.9056  -10.4304   21.0402 C   0  0  0  0  0  0
  -24.3609   -9.4223   21.9179 C   0  0  0  0  0  0
  -23.6288   -8.2256   22.0746 C   0  0  0  0  0  0
  -22.4267   -8.0290   21.3544 C   0  0  0  0  0  0
  -21.9904   -9.0261   20.4645 C   0  0  0  0  0  0
  -22.7227  -10.2143   20.3052 C   0  0  0  0  0  0
  -21.6850   -6.0745   22.5283 C   0  0  0  0  0  0
  -21.4011   -6.5643   23.8219 C   0  0  0  0  0  0
  -21.3657   -5.6791   24.9179 C   0  0  0  0  0  0
  -21.6048   -4.3056   24.7227 C   0  0  0  0  0  0
  -21.8821   -3.8154   23.4344 C   0  0  0  0  0  0
  -21.9185   -4.6972   22.3403 C   0  0  0  0  0  0
  -22.7865  -13.5244   21.1853 C   0  0  0  0  0  0
  -22.1644   -4.2160   21.0978 F   0  0  0  0  0  0
  -21.5633   -3.4535   25.7740 F   0  0  0  0  0  0
  -30.0363  -13.2747   20.4488 N   0  0  0  0  0  0
  -26.3027  -12.9344   20.3376 N   0  0  0  0  0  0
  -25.9319  -11.6504   20.5767 N   0  0  0  0  0  0
  -22.0498  -12.8239   22.0407 N   0  0  0  0  0  0
  -25.4344  -15.1899   20.4154 N   0  0  0  0  0  0
  -31.8621  -14.5947   20.1200 O   0  0  0  0  0  0
  -21.6636   -6.8884   21.4240 O   0  0  0  0  0  0
  -22.3560  -14.5556   20.6707 O   0  0  0  0  0  0
  -24.6147  -31.8696   23.2133 C   0  0  0  0  0  0
  -25.9044  -32.4832   23.8420 C   0  0  1  0  0  0
  -27.2271  -27.4280   20.0888 C   0  0  0  0  0  0
  -25.5903  -33.8632   24.2346 N   0  0  0  0  0  0
  -23.4016  -30.4965   21.5543 C   0  0  2  0  0  0
  -24.8448  -28.9694   20.1124 C   0  0  0  0  0  0
  -22.7409  -29.4670   22.4997 C   0  0  0  0  0  0
  -18.0272  -28.1376   22.8496 C   0  0  0  0  0  0
  -24.1482  -36.7318   23.2637 C   0  0  0  0  0  0
  -25.9331  -30.8298   21.3720 C   0  0  0  0  0  0
  -26.0052  -29.4655   20.7172 C   0  0  0  0  0  0
  -27.1939  -28.6986   20.7112 C   0  0  0  0  0  0
  -26.0441  -26.9614   19.4618 C   0  0  0  0  0  0
  -24.8599  -27.7161   19.4836 C   0  0  0  0  0  0
  -23.6088  -29.8368   20.1660 C   0  0  0  0  0  0
  -25.4104  -36.3121   24.0340 C   0  0  1  0  0  0
  -20.5861  -28.3662   23.1319 C   0  0  2  0  0  0
  -20.6763  -26.9400   22.5416 C   0  0  0  0  0  0
  -19.5739  -26.6382   21.5214 C   0  0  0  0  0  0
  -18.1919  -26.7923   22.1626 C   0  0  0  0  0  0
  -19.1521  -28.8836   23.2903 C   0  0  0  0  0  0
  -18.9449  -30.1442   23.8913 C   0  0  0  0  0  0
  -17.6451  -30.6584   24.0566 C   0  0  0  0  0  0
  -25.9033  -34.9482   23.5138 C   0  0  0  0  0  0
  -16.5342  -29.9087   23.6327 C   0  0  0  0  0  0
  -16.7261  -28.6502   23.0353 C   0  0  0  0  0  0
  -26.4469  -31.6612   25.0749 C   0  0  0  0  0  0
  -25.3731  -31.3718   26.1496 C   0  0  0  0  0  0
  -27.0301  -30.3054   24.6134 C   0  0  0  0  0  0
  -27.6049  -32.4329   25.7504 C   0  0  0  0  0  0
  -27.5584  -37.1812   24.8460 C   0  0  0  0  0  0
  -21.4138  -29.3033   22.3728 N   0  0  0  0  0  0
  -26.4292  -37.3803   23.9411 N   0  0  0  0  0  0
  -24.6679  -31.0795   22.1042 N   0  0  0  0  0  0
  -23.4183  -28.8206   23.3034 O   0  0  0  0  0  0
  -28.4008  -26.6937   20.1341 O   0  0  0  0  0  0
  -26.5590  -34.8927   22.4697 O   0  0  0  0  0  0
  -23.5339  -32.1456   23.7523 O   0  0  0  0  0  0
  -30.5542  -18.2581   18.3894 C   0  0  0  0  0  0
  -30.3798  -19.4034   19.1825 C   0  0  0  0  0  0
  -30.4188  -16.9811   18.9588 C   0  0  0  0  0  0
  -29.8871  -17.9901   21.1163 C   0  0  0  0  0  0
  -30.0547  -19.2826   20.5529 C   0  0  0  0  0  0
  -30.1072  -16.8280   20.3328 C   0  0  0  0  0  0
  -30.5735  -21.5820   21.3302 C   0  0  0  0  0  0
  -29.1657  -22.3309   23.3051 C   0  0  0  0  0  0
  -31.2421  -23.5555   22.7782 C   0  0  0  0  0  0
  -30.8937  -25.3321   20.0570 C   0  0  0  0  0  0
  -29.7991  -23.4647   18.7822 C   0  0  0  0  0  0
  -29.1659  -23.7981   21.2644 C   0  0  0  0  0  0
  -28.4504  -25.4269   19.4602 C   0  0  0  0  0  0
  -30.0492  -22.8156   22.1244 C   0  0  0  0  0  0
  -29.6101  -24.4918   19.9217 C   0  0  0  0  0  0
  -29.8389  -20.4500   21.3422 N   0  0  0  0  0  0
  -29.9741  -15.5219   20.9024 N   0  0  0  0  0  0
  -31.6759  -21.6340   20.7767 O   0  0  0  0  0  0
  -31.4630  -12.3563   19.1396 H   0  0  0  0  0  0
  -30.2926  -11.2720   19.8350 H   0  0  0  0  0  0
  -29.7312  -11.7684   17.4321 H   0  0  0  0  0  0
  -29.6775  -13.4780   17.7787 H   0  0  0  0  0  0
  -27.8181  -11.3108   18.8149 H   0  0  0  0  0  0
  -27.3695  -12.6454   17.7881 H   0  0  0  0  0  0
  -27.7044  -14.2557   19.5746 H   0  0  0  0  0  0
  -28.6647  -11.9705   21.3671 H   0  0  0  0  0  0
  -28.4769  -13.6265   21.8648 H   0  0  0  0  0  0
  -25.2759   -9.5695   22.4743 H   0  0  0  0  0  0
  -24.0007   -7.4647   22.7458 H   0  0  0  0  0  0
  -21.0838   -8.8774   19.8951 H   0  0  0  0  0  0
  -22.3689  -10.9674   19.6154 H   0  0  0  0  0  0
  -21.2000   -7.6150   23.9727 H   0  0  0  0  0  0
  -21.1471   -6.0520   25.9082 H   0  0  0  0  0  0
  -22.0603   -2.7618   23.2847 H   0  0  0  0  0  0
  -22.4098  -11.9887   22.4782 H   0  0  0  0  0  0
  -21.1128  -13.1288   22.2629 H   0  0  0  0  0  0
  -24.6761  -15.8511   20.5446 H   0  0  0  0  0  0
  -26.2966  -15.6303   20.1184 H   0  0  0  0  0  0
  -26.7114  -32.5538   23.1184 H   0  0  0  0  0  0
  -25.0073  -33.9800   25.0504 H   0  0  0  0  0  0
  -22.6904  -31.3139   21.4197 H   0  0  0  0  0  0
  -23.3746  -35.9648   23.3305 H   0  0  0  0  0  0
  -24.3579  -36.8925   22.2050 H   0  0  0  0  0  0
  -23.7227  -37.6522   23.6644 H   0  0  0  0  0  0
  -26.0514  -31.5968   20.6053 H   0  0  0  0  0  0
  -26.8196  -30.8782   21.9927 H   0  0  0  0  0  0
  -28.0865  -29.0756   21.1910 H   0  0  0  0  0  0
  -25.9904  -26.0193   18.9407 H   0  0  0  0  0  0
  -23.9707  -27.3316   19.0030 H   0  0  0  0  0  0
  -23.7177  -30.6156   19.4104 H   0  0  0  0  0  0
  -22.7317  -29.2594   19.8678 H   0  0  0  0  0  0
  -25.1278  -36.1995   25.0834 H   0  0  0  0  0  0
  -20.9954  -28.3224   24.1437 H   0  0  0  0  0  0
  -20.5672  -26.2269   23.3602 H   0  0  0  0  0  0
  -21.6635  -26.7445   22.1205 H   0  0  0  0  0  0
  -19.6900  -25.6296   21.1238 H   0  0  0  0  0  0
  -19.6680  -27.3200   20.6751 H   0  0  0  0  0  0
  -17.4189  -26.6678   21.4024 H   0  0  0  0  0  0
  -18.0312  -26.0060   22.9015 H   0  0  0  0  0  0
  -19.7926  -30.7258   24.2291 H   0  0  0  0  0  0
  -17.5005  -31.6267   24.5160 H   0  0  0  0  0  0
  -15.5346  -30.2995   23.7639 H   0  0  0  0  0  0
  -15.8658  -28.0824   22.7064 H   0  0  0  0  0  0
  -24.5903  -30.7068   25.7830 H   0  0  0  0  0  0
  -24.8924  -32.2872   26.4953 H   0  0  0  0  0  0
  -25.8082  -30.8879   27.0249 H   0  0  0  0  0  0
  -26.2857  -29.6822   24.1164 H   0  0  0  0  0  0
  -27.4041  -29.7283   25.4602 H   0  0  0  0  0  0
  -27.8705  -30.4371   23.9313 H   0  0  0  0  0  0
  -27.2677  -33.3619   26.2111 H   0  0  0  0  0  0
  -28.3841  -32.6906   25.0318 H   0  0  0  0  0  0
  -28.0738  -31.8436   26.5393 H   0  0  0  0  0  0
  -28.2597  -38.0115   24.7531 H   0  0  0  0  0  0
  -28.1088  -36.2652   24.6261 H   0  0  0  0  0  0
  -27.2306  -37.1429   25.8863 H   0  0  0  0  0  0
  -20.9295  -29.8771   21.6966 H   0  0  0  0  0  0
  -26.0187  -38.2882   24.1422 H   0  0  0  0  0  0
  -30.7931  -18.3589   17.3395 H   0  0  0  0  0  0
  -30.4855  -20.3766   18.7242 H   0  0  0  0  0  0
  -30.5585  -16.1200   18.3196 H   0  0  0  0  0  0
  -29.6232  -17.8906   22.1599 H   0  0  0  0  0  0
  -29.6787  -21.5888   23.9192 H   0  0  0  0  0  0
  -28.2269  -21.8891   22.9687 H   0  0  0  0  0  0
  -28.9006  -23.1571   23.9658 H   0  0  0  0  0  0
  -31.7375  -22.9229   23.5161 H   0  0  0  0  0  0
  -30.9184  -24.4597   23.2942 H   0  0  0  0  0  0
  -32.0101  -23.8457   22.0655 H   0  0  0  0  0  0
  -31.7854  -24.7088   20.0993 H   0  0  0  0  0  0
  -30.8704  -25.9561   20.9512 H   0  0  0  0  0  0
  -31.0213  -25.9959   19.2010 H   0  0  0  0  0  0
  -30.7159  -22.8908   18.8834 H   0  0  0  0  0  0
  -29.8741  -23.9525   17.8097 H   0  0  0  0  0  0
  -28.9651  -22.7637   18.7286 H   0  0  0  0  0  0
  -28.8508  -24.5996   21.9349 H   0  0  0  0  0  0
  -28.2411  -23.2621   21.0443 H   0  0  0  0  0  0
  -27.5325  -24.8569   19.5935 H   0  0  0  0  0  0
  -28.5282  -25.6502   18.3948 H   0  0  0  0  0  0
  -29.0611  -20.4342   21.9873 H   0  0  0  0  0  0
  -29.1236  -15.3327   21.4114 H   0  0  0  0  0  0
  1 25  1  0  0  0
  1 30  2  0  0  0
  1 87  1  0  0  0
  2  3  1  0  0  0
  2 25  1  0  0  0
  2 89  1  0  0  0
  2 90  1  0  0  0
  3  4  1  0  0  0
  3 91  1  0  0  0
  3 92  1  0  0  0
  4  5  1  0  0  0
  4 93  1  0  0  0
  4 94  1  0  0  0
  5  6  1  0  0  0
  5 26  1  0  0  0
  5 95  1  0  0  0
  6 25  1  0  0  0
  6 96  1  0  0  0
  6 97  1  0  0  0
  7  8  2  0  0  0
  7 26  1  0  0  0
  7 29  1  0  0  0
  8  9  1  0  0  0
  8 22  1  0  0  0
  9 10  1  0  0  0
  9 27  2  0  0  0
 10 11  2  0  0  0
 10 15  1  0  0  0
 11 12  1  0  0  0
 11 98  1  0  0  0
 12 13  2  0  0  0
 12 99  1  0  0  0
 13 14  1  0  0  0
 13 31  1  0  0  0
 14 15  2  0  0  0
 14100  1  0  0  0
 15101  1  0  0  0
 16 17  2  0  0  0
 16 21  1  0  0  0
 16 31  1  0  0  0
 17 18  1  0  0  0
 17102  1  0  0  0
 18 19  2  0  0  0
 18103  1  0  0  0
 19 20  1  0  0  0
 19 24  1  0  0  0
 20 21  2  0  0  0
 20104  1  0  0  0
 21 23  1  0  0  0
 22 28  1  0  0  0
 22 32  2  0  0  0
 26 27  1  0  0  0
 28105  1  0  0  0
 28106  1  0  0  0
 29107  1  0  0  0
 29108  1  0  0  0
 33 34  1  0  0  0
 33 66  1  0  0  0
 33 70  2  0  0  0
 34 36  1  0  0  0
 34 59  1  0  0  0
 34109  1  0  0  0
 35 44  2  0  0  0
 35 45  1  0  0  0
 35 68  1  0  0  0
 36 56  1  0  0  0
 36110  1  0  0  0
 37 39  1  0  0  0
 37 47  1  0  0  0
 37 66  1  0  0  0
 37111  1  0  0  0
 38 43  2  0  0  0
 38 46  1  0  0  0
 38 47  1  0  0  0
 39 64  1  0  0  0
 39 67  2  0  0  0
 40 52  1  0  0  0
 40 53  2  0  0  0
 40 58  1  0  0  0
 41112  1  0  0  0
 41113  1  0  0  0
 41114  1  0  0  0
 41 48  1  0  0  0
 42 43  1  0  0  0
 42 66  1  0  0  0
 42115  1  0  0  0
 42116  1  0  0  0
 43 44  1  0  0  0
 44117  1  0  0  0
 45 46  2  0  0  0
 45118  1  0  0  0
 46119  1  0  0  0
 47120  1  0  0  0
 47121  1  0  0  0
 48 56  1  0  0  0
 48 65  1  0  0  0
 48122  1  0  0  0
 49 50  1  0  0  0
 49 53  1  0  0  0
 49 64  1  0  0  0
 49123  1  0  0  0
 50 51  1  0  0  0
 50124  1  0  0  0
 50125  1  0  0  0
 51 52  1  0  0  0
 51126  1  0  0  0
 51127  1  0  0  0
 52128  1  0  0  0
 52129  1  0  0  0
 53 54  1  0  0  0
 54 55  2  0  0  0
 54130  1  0  0  0
 55 57  1  0  0  0
 55131  1  0  0  0
 56 69  2  0  0  0
 57 58  2  0  0  0
 57132  1  0  0  0
 58133  1  0  0  0
 59 60  1  0  0  0
 59 61  1  0  0  0
 59 62  1  0  0  0
 60134  1  0  0  0
 60135  1  0  0  0
 60136  1  0  0  0
 61137  1  0  0  0
 61138  1  0  0  0
 61139  1  0  0  0
 62140  1  0  0  0
 62141  1  0  0  0
 62142  1  0  0  0
 63 65  1  0  0  0
 63143  1  0  0  0
 63144  1  0  0  0
 63145  1  0  0  0
 64146  1  0  0  0
 65147  1  0  0  0
 68 83  1  0  0  0
 71 72  2  0  0  0
 71 73  1  0  0  0
 71148  1  0  0  0
 72 75  1  0  0  0
 72149  1  0  0  0
 73 76  2  0  0  0
 73150  1  0  0  0
 74 75  2  0  0  0
 74 76  1  0  0  0
 74151  1  0  0  0
 75 86  1  0  0  0
 76 87  1  0  0  0
 77 84  1  0  0  0
 77 86  1  0  0  0
 77 88  2  0  0  0
 78152  1  0  0  0
 78153  1  0  0  0
 78154  1  0  0  0
 78 84  1  0  0  0
 79 84  1  0  0  0
 79155  1  0  0  0
 79156  1  0  0  0
 79157  1  0  0  0
 80158  1  0  0  0
 80159  1  0  0  0
 80160  1  0  0  0
 80 85  1  0  0  0
 81 85  1  0  0  0
 81161  1  0  0  0
 81162  1  0  0  0
 81163  1  0  0  0
 82 84  1  0  0  0
 82 85  1  0  0  0
 82164  1  0  0  0
 82165  1  0  0  0
 83 85  1  0  0  0
 83166  1  0  0  0
 83167  1  0  0  0
 86168  1  0  0  0
 87169  1  0  0  0
M  ISO  4   1 100  68 101  83 101  87 100
M  END
> <chiral flag>
0

> <version>
0

> <s_m_source_file>
/data/baiqing/PycharmProjects/Reinvent-master-3.2/result/LINK_invent/BTK/process_docking_weight1_custom_product_contain_oxygen_bond_distance_aromatic_linkinvent_7_9_3/rearranged_h_0144.sdf

> <i_m_source_file_index>
53

> <r_mmod_Potential_Energy-OPLS-2005>
22.009069442749

> <r_mmod_Stretch_Energy-OPLS-2005>
45.009822845459

> <r_mmod_Bend_Energy-OPLS-2005>
126.995826721191

> <r_mmod_Torsional_Energy-OPLS-2005>
276.119384765625

> <r_mmod_Improper_Torsional_Energy-OPLS-2005>
5.66917371749878

> <r_mmod_Van_der_Waal_Energy-OPLS-2005>
176.25634765625

> <r_mmod_Electrostatic_Energy-OPLS-2005>
-400.682891845703

> <r_mmod_Solvation_Energy-OPLS-2005>
-222.94172668457

> <b_mmod_Minimization_Converged-OPLS-2005>
0

> <r_mmod_RMS_Derivative-OPLS-2005>
0.899092018604279

$$$$
53
                    3D
 Structure written by MMmdl.
163172  0  0  1  0            999 V2000
  -30.6922  -14.4726   20.5909 C   0  0  0  0  0  0
  -30.4306  -12.3126   19.4209 C   0  0  0  0  0  0
  -29.4965  -12.5084   18.2074 C   0  0  0  0  0  0
  -28.0176  -12.3654   18.6193 C   0  0  0  0  0  0
  -27.6644  -13.2022   19.8774 C   0  0  2  0  0  0
  -28.7043  -12.9682   20.9967 C   0  0  0  0  0  0
  -25.2608  -13.8150   20.5683 C   0  0  0  0  0  0
  -24.1852  -13.0439   20.9186 C   0  0  0  0  0  0
  -24.6392  -11.6902   20.8731 C   0  0  0  0  0  0
  -23.9053  -10.4294   21.0404 C   0  0  0  0  0  0
  -24.3607   -9.4212   21.9183 C   0  0  0  0  0  0
  -23.6291   -8.2243   22.0751 C   0  0  0  0  0  0
  -22.4272   -8.0281   21.3546 C   0  0  0  0  0  0
  -21.9905   -9.0249   20.4643 C   0  0  0  0  0  0
  -22.7226  -10.2135   20.3055 C   0  0  0  0  0  0
  -21.6853   -6.0739   22.5281 C   0  0  0  0  0  0
  -21.4009   -6.5642   23.8213 C   0  0  0  0  0  0
  -21.3660   -5.6794   24.9175 C   0  0  0  0  0  0
  -21.6043   -4.3056   24.7225 C   0  0  0  0  0  0
  -21.8821   -3.8150   23.4345 C   0  0  0  0  0  0
  -21.9193   -4.6968   22.3403 C   0  0  0  0  0  0
  -22.7877  -13.5247   21.1849 C   0  0  0  0  0  0
  -22.1664   -4.2155   21.0982 F   0  0  0  0  0  0
  -21.5631   -3.4541   25.7738 F   0  0  0  0  0  0
  -30.0395  -13.2846   20.4547 N   0  0  0  0  0  0
  -26.3038  -12.9308   20.3364 N   0  0  0  0  0  0
  -25.9316  -11.6476   20.5754 N   0  0  0  0  0  0
  -22.0509  -12.8239   22.0401 N   0  0  0  0  0  0
  -25.4359  -15.1863   20.4082 N   0  0  0  0  0  0
  -31.8027  -14.6808   20.0921 O   0  0  0  0  0  0
  -21.6639   -6.8879   21.4243 O   0  0  0  0  0  0
  -22.3573  -14.5563   20.6705 O   0  0  0  0  0  0
  -24.6170  -31.8679   23.2108 C   0  0  0  0  0  0
  -25.9061  -32.4819   23.8398 C   0  0  1  0  0  0
  -27.2292  -27.4182   20.0901 C   0  0  0  0  0  0
  -25.5915  -33.8620   24.2333 N   0  0  0  0  0  0
  -23.4056  -30.4941   21.5521 C   0  0  2  0  0  0
  -24.8501  -28.9651   20.1135 C   0  0  0  0  0  0
  -22.7435  -29.4654   22.4983 C   0  0  0  0  0  0
  -18.0276  -28.1382   22.8489 C   0  0  0  0  0  0
  -24.1489  -36.7300   23.2644 C   0  0  0  0  0  0
  -25.9391  -30.8294   21.3678 C   0  0  0  0  0  0
  -26.0146  -29.4650   20.7096 C   0  0  0  0  0  0
  -27.2074  -28.7004   20.6930 C   0  0  0  0  0  0
  -26.0399  -26.9472   19.4802 C   0  0  0  0  0  0
  -24.8592  -27.7064   19.4962 C   0  0  0  0  0  0
  -23.6138  -29.8327   20.1653 C   0  0  0  0  0  0
  -25.4107  -36.3106   24.0346 C   0  0  1  0  0  0
  -20.5869  -28.3663   23.1317 C   0  0  2  0  0  0
  -20.6769  -26.9398   22.5416 C   0  0  0  0  0  0
  -19.5743  -26.6380   21.5217 C   0  0  0  0  0  0
  -18.1919  -26.7926   22.1625 C   0  0  0  0  0  0
  -19.1531  -28.8838   23.2895 C   0  0  0  0  0  0
  -18.9460  -30.1443   23.8901 C   0  0  0  0  0  0
  -17.6463  -30.6586   24.0559 C   0  0  0  0  0  0
  -25.9041  -34.9472   23.5133 C   0  0  0  0  0  0
  -16.5348  -29.9088   23.6337 C   0  0  0  0  0  0
  -16.7263  -28.6510   23.0349 C   0  0  0  0  0  0
  -26.4479  -31.6599   25.0731 C   0  0  0  0  0  0
  -25.3741  -31.3710   26.1471 C   0  0  0  0  0  0
  -27.0306  -30.3041   24.6107 C   0  0  0  0  0  0
  -27.6048  -32.4318   25.7494 C   0  0  0  0  0  0
  -27.5577  -37.1803   24.8471 C   0  0  0  0  0  0
  -21.4161  -29.3028   22.3718 N   0  0  0  0  0  0
  -26.4291  -37.3794   23.9416 N   0  0  0  0  0  0
  -24.6727  -31.0779   22.1013 N   0  0  0  0  0  0
  -23.4203  -28.8190   23.3022 O   0  0  0  0  0  0
  -28.3816  -26.6486   20.1176 O   0  0  0  0  0  0
  -26.5593  -34.8921   22.4686 O   0  0  0  0  0  0
  -23.5357  -32.1423   23.7498 O   0  0  0  0  0  0
  -28.8238  -18.9857   21.2203 C   0  0  0  0  0  0
  -31.1740  -18.9901   20.6219 C   0  0  0  0  0  0
  -28.8623  -17.5789   21.3547 C   0  0  0  0  0  0
  -31.2117  -17.5791   20.7473 C   0  0  0  0  0  0
  -29.9816  -19.7145   20.8618 C   0  0  0  0  0  0
  -30.0486  -16.8507   21.1050 C   0  0  0  0  0  0
  -29.2869  -23.4622   21.5863 C   0  0  0  0  0  0
  -28.9330  -23.8980   22.8119 C   0  0  0  0  0  0
  -29.9389  -21.1885   20.6707 C   0  0  0  0  0  0
  -29.3801  -24.3622   20.3919 C   0  0  0  0  0  0
  -28.9085  -22.8049   23.8409 C   0  0  0  0  0  0
  -29.2913  -21.5705   23.0247 C   0  0  0  0  0  0
  -28.5905  -25.3034   23.2818 C   0  0  0  0  0  0
  -28.1606  -25.2249   20.0079 C   0  0  0  0  0  0
  -29.5308  -22.0639   21.6449 N   0  0  0  0  0  0
  -29.9908  -15.4254   21.2387 N   0  0  0  0  0  0
  -30.3307  -21.6355   19.4808 N   0  3  0  0  0  0
  -30.3740  -24.3723   19.6579 O   0  0  0  0  0  0
  -31.4728  -12.4243   19.1162 H   0  0  0  0  0  0
  -30.3449  -11.2970   19.8111 H   0  0  0  0  0  0
  -29.7356  -11.7826   17.4289 H   0  0  0  0  0  0
  -29.6624  -13.4936   17.7686 H   0  0  0  0  0  0
  -27.8292  -11.3085   18.8129 H   0  0  0  0  0  0
  -27.3667  -12.6410   17.7886 H   0  0  0  0  0  0
  -27.7128  -14.2522   19.5870 H   0  0  0  0  0  0
  -28.6817  -11.9257   21.3173 H   0  0  0  0  0  0
  -28.4543  -13.5446   21.8883 H   0  0  0  0  0  0
  -25.2750   -9.5697   22.4760 H   0  0  0  0  0  0
  -24.0009   -7.4634   22.7460 H   0  0  0  0  0  0
  -21.0844   -8.8759   19.8940 H   0  0  0  0  0  0
  -22.3678  -10.9674   19.6167 H   0  0  0  0  0  0
  -21.1996   -7.6149   23.9721 H   0  0  0  0  0  0
  -21.1481   -6.0522   25.9079 H   0  0  0  0  0  0
  -22.0599   -2.7613   23.2842 H   0  0  0  0  0  0
  -22.4115  -11.9895   22.4787 H   0  0  0  0  0  0
  -21.1122  -13.1261   22.2587 H   0  0  0  0  0  0
  -24.6651  -15.8393   20.4987 H   0  0  0  0  0  0
  -26.2758  -15.6140   20.0402 H   0  0  0  0  0  0
  -26.7129  -32.5527   23.1161 H   0  0  0  0  0  0
  -25.0103  -33.9782   25.0501 H   0  0  0  0  0  0
  -22.6938  -31.3109   21.4158 H   0  0  0  0  0  0
  -23.3753  -35.9637   23.3316 H   0  0  0  0  0  0
  -24.3579  -36.8895   22.2057 H   0  0  0  0  0  0
  -23.7233  -37.6512   23.6635 H   0  0  0  0  0  0
  -26.0593  -31.5986   20.6033 H   0  0  0  0  0  0
  -26.8250  -30.8768   21.9897 H   0  0  0  0  0  0
  -28.1052  -29.0812   21.1594 H   0  0  0  0  0  0
  -25.9930  -25.9904   18.9817 H   0  0  0  0  0  0
  -23.9653  -27.3165   19.0288 H   0  0  0  0  0  0
  -23.7235  -30.6103   19.4080 H   0  0  0  0  0  0
  -22.7374  -29.2549   19.8662 H   0  0  0  0  0  0
  -25.1279  -36.1977   25.0841 H   0  0  0  0  0  0
  -20.9957  -28.3216   24.1440 H   0  0  0  0  0  0
  -20.5698  -26.2256   23.3593 H   0  0  0  0  0  0
  -21.6632  -26.7446   22.1190 H   0  0  0  0  0  0
  -19.6906  -25.6300   21.1228 H   0  0  0  0  0  0
  -19.6692  -27.3202   20.6758 H   0  0  0  0  0  0
  -17.4196  -26.6680   21.4020 H   0  0  0  0  0  0
  -18.0306  -26.0070   22.9020 H   0  0  0  0  0  0
  -19.7940  -30.7256   24.2264 H   0  0  0  0  0  0
  -17.5024  -31.6268   24.5152 H   0  0  0  0  0  0
  -15.5353  -30.2990   23.7672 H   0  0  0  0  0  0
  -15.8657  -28.0831   22.7068 H   0  0  0  0  0  0
  -24.5913  -30.7062   25.7805 H   0  0  0  0  0  0
  -24.8934  -32.2869   26.4925 H   0  0  0  0  0  0
  -25.8084  -30.8875   27.0228 H   0  0  0  0  0  0
  -26.2848  -29.6807   24.1161 H   0  0  0  0  0  0
  -27.4086  -29.7273   25.4560 H   0  0  0  0  0  0
  -27.8682  -30.4375   23.9252 H   0  0  0  0  0  0
  -27.2666  -33.3606   26.2099 H   0  0  0  0  0  0
  -28.3841  -32.6892   25.0310 H   0  0  0  0  0  0
  -28.0732  -31.8430   26.5389 H   0  0  0  0  0  0
  -28.2596  -38.0097   24.7512 H   0  0  0  0  0  0
  -28.1068  -36.2627   24.6301 H   0  0  0  0  0  0
  -27.2297  -37.1465   25.8875 H   0  0  0  0  0  0
  -20.9322  -29.8748   21.6939 H   0  0  0  0  0  0
  -26.0180  -38.2875   24.1422 H   0  0  0  0  0  0
  -27.8844  -19.4984   21.3764 H   0  0  0  0  0  0
  -32.0740  -19.5172   20.3372 H   0  0  0  0  0  0
  -27.9541  -17.0606   21.6304 H   0  0  0  0  0  0
  -32.1482  -17.0735   20.5610 H   0  0  0  0  0  0
  -27.9166  -22.7087   24.2831 H   0  0  0  0  0  0
  -29.6298  -23.0039   24.6341 H   0  0  0  0  0  0
  -28.4777  -20.8477   23.0725 H   0  0  0  0  0  0
  -30.1877  -21.1002   23.4344 H   0  0  0  0  0  0
  -28.7528  -26.0680   22.5269 H   0  0  0  0  0  0
  -29.2122  -25.5653   24.1385 H   0  0  0  0  0  0
  -27.5476  -25.3516   23.5966 H   0  0  0  0  0  0
  -27.3211  -24.9255   20.6362 H   0  0  0  0  0  0
  -27.9024  -24.9796   18.9777 H   0  0  0  0  0  0
  -29.1409  -15.0715   21.6484 H   0  0  0  0  0  0
  -30.5804  -20.9806   18.7573 H   0  0  0  0  0  0
  -30.4809  -22.6300   19.3333 H   0  0  0  0  0  0
  1 25  1  0  0  0
  1 30  2  0  0  0
  1 86  1  0  0  0
  2  3  1  0  0  0
  2 25  1  0  0  0
  2 89  1  0  0  0
  2 90  1  0  0  0
  3  4  1  0  0  0
  3 91  1  0  0  0
  3 92  1  0  0  0
  4  5  1  0  0  0
  4 93  1  0  0  0
  4 94  1  0  0  0
  5  6  1  0  0  0
  5 26  1  0  0  0
  5 95  1  0  0  0
  6 25  1  0  0  0
  6 96  1  0  0  0
  6 97  1  0  0  0
  7  8  2  0  0  0
  7 26  1  0  0  0
  7 29  1  0  0  0
  8  9  1  0  0  0
  8 22  1  0  0  0
  9 10  1  0  0  0
  9 27  2  0  0  0
 10 11  2  0  0  0
 10 15  1  0  0  0
 11 12  1  0  0  0
 11 98  1  0  0  0
 12 13  2  0  0  0
 12 99  1  0  0  0
 13 14  1  0  0  0
 13 31  1  0  0  0
 14 15  2  0  0  0
 14100  1  0  0  0
 15101  1  0  0  0
 16 17  2  0  0  0
 16 21  1  0  0  0
 16 31  1  0  0  0
 17 18  1  0  0  0
 17102  1  0  0  0
 18 19  2  0  0  0
 18103  1  0  0  0
 19 20  1  0  0  0
 19 24  1  0  0  0
 20 21  2  0  0  0
 20104  1  0  0  0
 21 23  1  0  0  0
 22 28  1  0  0  0
 22 32  2  0  0  0
 26 27  1  0  0  0
 28105  1  0  0  0
 28106  1  0  0  0
 29107  1  0  0  0
 29108  1  0  0  0
 33 34  1  0  0  0
 33 66  1  0  0  0
 33 70  2  0  0  0
 34 36  1  0  0  0
 34 59  1  0  0  0
 34109  1  0  0  0
 35 44  2  0  0  0
 35 45  1  0  0  0
 35 68  1  0  0  0
 36 56  1  0  0  0
 36110  1  0  0  0
 37 39  1  0  0  0
 37 47  1  0  0  0
 37 66  1  0  0  0
 37111  1  0  0  0
 38 43  2  0  0  0
 38 46  1  0  0  0
 38 47  1  0  0  0
 39 64  1  0  0  0
 39 67  2  0  0  0
 40 52  1  0  0  0
 40 53  2  0  0  0
 40 58  1  0  0  0
 41112  1  0  0  0
 41113  1  0  0  0
 41114  1  0  0  0
 41 48  1  0  0  0
 42 43  1  0  0  0
 42 66  1  0  0  0
 42115  1  0  0  0
 42116  1  0  0  0
 43 44  1  0  0  0
 44117  1  0  0  0
 45 46  2  0  0  0
 45118  1  0  0  0
 46119  1  0  0  0
 47120  1  0  0  0
 47121  1  0  0  0
 48 56  1  0  0  0
 48 65  1  0  0  0
 48122  1  0  0  0
 49 50  1  0  0  0
 49 53  1  0  0  0
 49 64  1  0  0  0
 49123  1  0  0  0
 50 51  1  0  0  0
 50124  1  0  0  0
 50125  1  0  0  0
 51 52  1  0  0  0
 51126  1  0  0  0
 51127  1  0  0  0
 52128  1  0  0  0
 52129  1  0  0  0
 53 54  1  0  0  0
 54 55  2  0  0  0
 54130  1  0  0  0
 55 57  1  0  0  0
 55131  1  0  0  0
 56 69  2  0  0  0
 57 58  2  0  0  0
 57132  1  0  0  0
 58133  1  0  0  0
 59 60  1  0  0  0
 59 61  1  0  0  0
 59 62  1  0  0  0
 60134  1  0  0  0
 60135  1  0  0  0
 60136  1  0  0  0
 61137  1  0  0  0
 61138  1  0  0  0
 61139  1  0  0  0
 62140  1  0  0  0
 62141  1  0  0  0
 62142  1  0  0  0
 63 65  1  0  0  0
 63143  1  0  0  0
 63144  1  0  0  0
 63145  1  0  0  0
 64146  1  0  0  0
 65147  1  0  0  0
 68 84  1  0  0  0
 71 73  2  0  0  0
 71 75  1  0  0  0
 71148  1  0  0  0
 72 74  1  0  0  0
 72 75  2  0  0  0
 72149  1  0  0  0
 73 76  1  0  0  0
 73150  1  0  0  0
 74 76  2  0  0  0
 74151  1  0  0  0
 75 79  1  0  0  0
 76 86  1  0  0  0
 77 78  2  0  0  0
 77 80  1  0  0  0
 77 85  1  0  0  0
 78 81  1  0  0  0
 78 83  1  0  0  0
 79 85  1  0  0  0
 79 87  2  0  0  0
 80 84  1  0  0  0
 80 88  2  0  0  0
 81 82  1  0  0  0
 81152  1  0  0  0
 81153  1  0  0  0
 82 85  1  0  0  0
 82154  1  0  0  0
 82155  1  0  0  0
 83156  1  0  0  0
 83157  1  0  0  0
 83158  1  0  0  0
 84159  1  0  0  0
 84160  1  0  0  0
 86161  1  0  0  0
 87162  1  0  0  0
 87163  1  0  0  0
M  CHG  1  87   1
M  ISO  4   1 100  68 101  84 101  86 100
M  END
> <chiral flag>
0

> <version>
0

> <s_m_source_file>
/data/baiqing/PycharmProjects/Reinvent-master-3.2/result/LINK_invent/BTK/process_docking_weight1_custom_product_contain_oxygen_bond_distance_aromatic_linkinvent_7_9_3/rearranged_h_0144.sdf

> <i_m_source_file_index>
54

> <r_mmod_Potential_Energy-OPLS-2005>
-133.758514404297

> <r_mmod_Stretch_Energy-OPLS-2005>
47.8509902954102

> <r_mmod_Bend_Energy-OPLS-2005>
163.971786499023

> <r_mmod_Torsional_Energy-OPLS-2005>
235.900039672852

> <r_mmod_Improper_Torsional_Energy-OPLS-2005>
4.4200177192688

> <r_mmod_Van_der_Waal_Energy-OPLS-2005>
173.646392822266

> <r_mmod_Electrostatic_Energy-OPLS-2005>
-377.879119873047

> <r_mmod_Solvation_Energy-OPLS-2005>
-395.566253662109

> <b_mmod_Minimization_Converged-OPLS-2005>
0

> <r_mmod_RMS_Derivative-OPLS-2005>
1.20245957374573

$$$$
54
                    3D
 Structure written by MMmdl.
166175  0  0  1  0            999 V2000
  -30.6673  -14.4657   20.6198 C   0  0  0  0  0  0
  -30.4440  -12.3217   19.3994 C   0  0  0  0  0  0
  -29.4969  -12.5188   18.1954 C   0  0  0  0  0  0
  -28.0172  -12.3717   18.6095 C   0  0  0  0  0  0
  -27.6672  -13.1924   19.8786 C   0  0  2  0  0  0
  -28.7091  -12.9206   20.9866 C   0  0  0  0  0  0
  -25.2628  -13.8133   20.5662 C   0  0  0  0  0  0
  -24.1860  -13.0435   20.9177 C   0  0  0  0  0  0
  -24.6387  -11.6894   20.8730 C   0  0  0  0  0  0
  -23.9043  -10.4294   21.0406 C   0  0  0  0  0  0
  -24.3604   -9.4209   21.9180 C   0  0  0  0  0  0
  -23.6287   -8.2239   22.0747 C   0  0  0  0  0  0
  -22.4267   -8.0279   21.3541 C   0  0  0  0  0  0
  -21.9899   -9.0250   20.4643 C   0  0  0  0  0  0
  -22.7219  -10.2133   20.3053 C   0  0  0  0  0  0
  -21.6850   -6.0733   22.5280 C   0  0  0  0  0  0
  -21.4008   -6.5639   23.8213 C   0  0  0  0  0  0
  -21.3658   -5.6790   24.9177 C   0  0  0  0  0  0
  -21.6043   -4.3051   24.7228 C   0  0  0  0  0  0
  -21.8822   -3.8146   23.4348 C   0  0  0  0  0  0
  -21.9194   -4.6961   22.3404 C   0  0  0  0  0  0
  -22.7885  -13.5248   21.1849 C   0  0  0  0  0  0
  -22.1664   -4.2147   21.0981 F   0  0  0  0  0  0
  -21.5631   -3.4535   25.7740 F   0  0  0  0  0  0
  -30.0412  -13.2676   20.4494 N   0  0  0  0  0  0
  -26.3046  -12.9266   20.3357 N   0  0  0  0  0  0
  -25.9306  -11.6442   20.5746 N   0  0  0  0  0  0
  -22.0516  -12.8245   22.0401 N   0  0  0  0  0  0
  -25.4391  -15.1842   20.4041 N   0  0  0  0  0  0
  -31.7739  -14.7277   20.1358 O   0  0  0  0  0  0
  -21.6638   -6.8873   21.4239 O   0  0  0  0  0  0
  -22.3578  -14.5561   20.6702 O   0  0  0  0  0  0
  -24.6147  -31.8694   23.2113 C   0  0  0  0  0  0
  -25.9039  -32.4832   23.8410 C   0  0  1  0  0  0
  -27.2375  -27.4331   20.1016 C   0  0  0  0  0  0
  -25.5897  -33.8629   24.2339 N   0  0  0  0  0  0
  -23.4043  -30.4926   21.5510 C   0  0  2  0  0  0
  -24.8540  -28.9499   20.1290 C   0  0  0  0  0  0
  -22.7407  -29.4677   22.4992 C   0  0  0  0  0  0
  -18.0273  -28.1399   22.8502 C   0  0  0  0  0  0
  -24.1478  -36.7307   23.2639 C   0  0  0  0  0  0
  -25.9343  -30.8288   21.3699 C   0  0  0  0  0  0
  -26.0132  -29.4561   20.7336 C   0  0  0  0  0  0
  -27.2111  -28.7000   20.7303 C   0  0  0  0  0  0
  -26.0653  -26.9409   19.4966 C   0  0  0  0  0  0
  -24.8714  -27.6858   19.5157 C   0  0  0  0  0  0
  -23.6186  -29.8220   20.1685 C   0  0  0  0  0  0
  -25.4098  -36.3115   24.0345 C   0  0  1  0  0  0
  -20.5863  -28.3682   23.1322 C   0  0  2  0  0  0
  -20.6760  -26.9414   22.5431 C   0  0  0  0  0  0
  -19.5745  -26.6401   21.5223 C   0  0  0  0  0  0
  -18.1919  -26.7950   22.1626 C   0  0  0  0  0  0
  -19.1523  -28.8853   23.2911 C   0  0  0  0  0  0
  -18.9457  -30.1456   23.8920 C   0  0  0  0  0  0
  -17.6463  -30.6607   24.0576 C   0  0  0  0  0  0
  -25.9030  -34.9481   23.5138 C   0  0  0  0  0  0
  -16.5350  -29.9117   23.6333 C   0  0  0  0  0  0
  -16.7262  -28.6531   23.0355 C   0  0  0  0  0  0
  -26.4465  -31.6608   25.0729 C   0  0  0  0  0  0
  -25.3728  -31.3729   26.1478 C   0  0  0  0  0  0
  -27.0279  -30.3047   24.6103 C   0  0  0  0  0  0
  -27.6043  -32.4318   25.7494 C   0  0  0  0  0  0
  -27.5579  -37.1802   24.8464 C   0  0  0  0  0  0
  -21.4135  -29.3047   22.3719 N   0  0  0  0  0  0
  -26.4284  -37.3801   23.9420 N   0  0  0  0  0  0
  -24.6691  -31.0785   22.1025 N   0  0  0  0  0  0
  -23.4163  -28.8219   23.3046 O   0  0  0  0  0  0
  -28.3837  -26.6948   19.9249 O   0  0  0  0  0  0
  -26.5589  -34.8930   22.4697 O   0  0  0  0  0  0
  -23.5334  -32.1454   23.7498 O   0  0  0  0  0  0
  -28.7952  -17.4526   21.7230 C   0  0  0  0  0  0
  -31.2262  -17.4848   21.5693 C   0  0  0  0  0  0
  -28.7899  -18.8107   22.1008 C   0  0  0  0  0  0
  -31.2223  -18.8475   21.9649 C   0  0  0  0  0  0
  -30.0072  -16.7676   21.4824 C   0  0  0  0  0  0
  -30.0057  -19.5024   22.2665 C   0  0  0  0  0  0
  -30.7572  -23.7615   22.6207 C   0  0  0  0  0  0
  -29.3038  -22.7758   20.8524 C   0  0  0  0  0  0
  -31.2168  -24.8855   21.6780 C   0  0  0  0  0  0
  -29.7124  -23.9097   19.8767 C   0  0  0  0  0  0
  -30.4329  -22.4649   21.8534 C   0  0  2  0  0  0
  -30.2167  -25.2305   20.5417 C   0  0  2  0  0  0
  -31.0104  -26.0364   19.4853 C   0  0  0  0  0  0
  -29.0433  -26.1312   21.0558 C   0  0  0  0  0  0
  -29.9004  -15.3624   21.2700 N   0  0  0  0  0  0
  -28.6168  -21.4044   23.5168 O   0  0  0  0  0  0
  -31.0508  -21.1192   24.0977 O   0  0  0  0  0  0
  -29.9946  -21.1318   23.0703 S   0  0  0  0  0  0
  -31.4809  -12.4670   19.0904 H   0  0  0  0  0  0
  -30.3846  -11.2983   19.7728 H   0  0  0  0  0  0
  -29.7373  -11.8030   17.4080 H   0  0  0  0  0  0
  -29.6564  -13.5084   17.7643 H   0  0  0  0  0  0
  -27.8252  -11.3133   18.7901 H   0  0  0  0  0  0
  -27.3656  -12.6599   17.7838 H   0  0  0  0  0  0
  -27.7255  -14.2466   19.6073 H   0  0  0  0  0  0
  -28.6932  -11.8645   21.2614 H   0  0  0  0  0  0
  -28.4552  -13.4492   21.9063 H   0  0  0  0  0  0
  -25.2751   -9.5689   22.4746 H   0  0  0  0  0  0
  -24.0005   -7.4628   22.7457 H   0  0  0  0  0  0
  -21.0831   -8.8762   19.8945 H   0  0  0  0  0  0
  -22.3676  -10.9669   19.6159 H   0  0  0  0  0  0
  -21.1991   -7.6145   23.9715 H   0  0  0  0  0  0
  -21.1476   -6.0520   25.9080 H   0  0  0  0  0  0
  -22.0602   -2.7607   23.2848 H   0  0  0  0  0  0
  -22.4119  -11.9902   22.4793 H   0  0  0  0  0  0
  -21.1131  -13.1276   22.2598 H   0  0  0  0  0  0
  -24.6706  -15.8402   20.4947 H   0  0  0  0  0  0
  -26.2817  -15.6103   20.0398 H   0  0  0  0  0  0
  -26.7109  -32.5555   23.1177 H   0  0  0  0  0  0
  -25.0039  -33.9793   25.0481 H   0  0  0  0  0  0
  -22.6954  -31.3105   21.4085 H   0  0  0  0  0  0
  -23.3741  -35.9640   23.3322 H   0  0  0  0  0  0
  -24.3572  -36.8896   22.2048 H   0  0  0  0  0  0
  -23.7224  -37.6520   23.6630 H   0  0  0  0  0  0
  -26.0445  -31.5863   20.5927 H   0  0  0  0  0  0
  -26.8233  -30.8904   21.9853 H   0  0  0  0  0  0
  -28.1125  -29.0991   21.1739 H   0  0  0  0  0  0
  -26.0835  -25.9824   18.9964 H   0  0  0  0  0  0
  -23.9812  -27.2913   19.0449 H   0  0  0  0  0  0
  -23.7356  -30.5952   19.4087 H   0  0  0  0  0  0
  -22.7413  -29.2461   19.8679 H   0  0  0  0  0  0
  -25.1276  -36.1978   25.0839 H   0  0  0  0  0  0
  -20.9963  -28.3251   24.1440 H   0  0  0  0  0  0
  -20.5666  -26.2288   23.3624 H   0  0  0  0  0  0
  -21.6632  -26.7469   22.1217 H   0  0  0  0  0  0
  -19.6908  -25.6318   21.1239 H   0  0  0  0  0  0
  -19.6692  -27.3219   20.6759 H   0  0  0  0  0  0
  -17.4198  -26.6715   21.4014 H   0  0  0  0  0  0
  -18.0306  -26.0091   22.9019 H   0  0  0  0  0  0
  -19.7933  -30.7263   24.2297 H   0  0  0  0  0  0
  -17.5026  -31.6284   24.5186 H   0  0  0  0  0  0
  -15.5352  -30.3034   23.7648 H   0  0  0  0  0  0
  -15.8660  -28.0862   22.7063 H   0  0  0  0  0  0
  -24.5921  -30.7045   25.7837 H   0  0  0  0  0  0
  -24.8890  -32.2884   26.4892 H   0  0  0  0  0  0
  -25.8091  -30.8947   27.0257 H   0  0  0  0  0  0
  -26.2823  -29.6832   24.1129 H   0  0  0  0  0  0
  -27.4012  -29.7267   25.4566 H   0  0  0  0  0  0
  -27.8680  -30.4365   23.9277 H   0  0  0  0  0  0
  -27.2673  -33.3617   26.2094 H   0  0  0  0  0  0
  -28.3848  -32.6881   25.0315 H   0  0  0  0  0  0
  -28.0711  -31.8419   26.5395 H   0  0  0  0  0  0
  -28.2602  -38.0096   24.7519 H   0  0  0  0  0  0
  -28.1068  -36.2631   24.6271 H   0  0  0  0  0  0
  -27.2307  -37.1434   25.8870 H   0  0  0  0  0  0
  -20.9292  -29.8773   21.6948 H   0  0  0  0  0  0
  -26.0175  -38.2879   24.1441 H   0  0  0  0  0  0
  -27.8514  -16.9275   21.6676 H   0  0  0  0  0  0
  -32.1715  -16.9885   21.4017 H   0  0  0  0  0  0
  -27.8560  -19.2966   22.3401 H   0  0  0  0  0  0
  -32.1553  -19.3731   22.1073 H   0  0  0  0  0  0
  -29.8842  -24.0854   23.1898 H   0  0  0  0  0  0
  -31.5409  -23.5747   23.3554 H   0  0  0  0  0  0
  -29.0512  -21.8763   20.2898 H   0  0  0  0  0  0
  -28.3973  -23.0621   21.3872 H   0  0  0  0  0  0
  -32.1669  -24.5711   21.2436 H   0  0  0  0  0  0
  -31.4500  -25.7792   22.2594 H   0  0  0  0  0  0
  -28.8819  -24.1261   19.2033 H   0  0  0  0  0  0
  -30.5029  -23.5122   19.2382 H   0  0  0  0  0  0
  -31.3201  -22.1104   21.3268 H   0  0  0  0  0  0
  -31.8970  -25.5000   19.1457 H   0  0  0  0  0  0
  -31.3433  -26.9953   19.8849 H   0  0  0  0  0  0
  -30.4154  -26.2426   18.5948 H   0  0  0  0  0  0
  -29.4239  -26.9397   21.6812 H   0  0  0  0  0  0
  -28.3423  -25.5554   21.6614 H   0  0  0  0  0  0
  -29.0160  -14.9647   21.5455 H   0  0  0  0  0  0
  1 25  1  0  0  0
  1 30  2  0  0  0
  1 85  1  0  0  0
  2  3  1  0  0  0
  2 25  1  0  0  0
  2 89  1  0  0  0
  2 90  1  0  0  0
  3  4  1  0  0  0
  3 91  1  0  0  0
  3 92  1  0  0  0
  4  5  1  0  0  0
  4 93  1  0  0  0
  4 94  1  0  0  0
  5  6  1  0  0  0
  5 26  1  0  0  0
  5 95  1  0  0  0
  6 25  1  0  0  0
  6 96  1  0  0  0
  6 97  1  0  0  0
  7  8  2  0  0  0
  7 26  1  0  0  0
  7 29  1  0  0  0
  8  9  1  0  0  0
  8 22  1  0  0  0
  9 10  1  0  0  0
  9 27  2  0  0  0
 10 11  2  0  0  0
 10 15  1  0  0  0
 11 12  1  0  0  0
 11 98  1  0  0  0
 12 13  2  0  0  0
 12 99  1  0  0  0
 13 14  1  0  0  0
 13 31  1  0  0  0
 14 15  2  0  0  0
 14100  1  0  0  0
 15101  1  0  0  0
 16 17  2  0  0  0
 16 21  1  0  0  0
 16 31  1  0  0  0
 17 18  1  0  0  0
 17102  1  0  0  0
 18 19  2  0  0  0
 18103  1  0  0  0
 19 20  1  0  0  0
 19 24  1  0  0  0
 20 21  2  0  0  0
 20104  1  0  0  0
 21 23  1  0  0  0
 22 28  1  0  0  0
 22 32  2  0  0  0
 26 27  1  0  0  0
 28105  1  0  0  0
 28106  1  0  0  0
 29107  1  0  0  0
 29108  1  0  0  0
 33 34  1  0  0  0
 33 66  1  0  0  0
 33 70  2  0  0  0
 34 36  1  0  0  0
 34 59  1  0  0  0
 34109  1  0  0  0
 35 44  2  0  0  0
 35 45  1  0  0  0
 35 68  1  0  0  0
 36 56  1  0  0  0
 36110  1  0  0  0
 37 39  1  0  0  0
 37 47  1  0  0  0
 37 66  1  0  0  0
 37111  1  0  0  0
 38 43  2  0  0  0
 38 46  1  0  0  0
 38 47  1  0  0  0
 39 64  1  0  0  0
 39 67  2  0  0  0
 40 52  1  0  0  0
 40 53  2  0  0  0
 40 58  1  0  0  0
 41112  1  0  0  0
 41113  1  0  0  0
 41114  1  0  0  0
 41 48  1  0  0  0
 42 43  1  0  0  0
 42 66  1  0  0  0
 42115  1  0  0  0
 42116  1  0  0  0
 43 44  1  0  0  0
 44117  1  0  0  0
 45 46  2  0  0  0
 45118  1  0  0  0
 46119  1  0  0  0
 47120  1  0  0  0
 47121  1  0  0  0
 48 56  1  0  0  0
 48 65  1  0  0  0
 48122  1  0  0  0
 49 50  1  0  0  0
 49 53  1  0  0  0
 49 64  1  0  0  0
 49123  1  0  0  0
 50 51  1  0  0  0
 50124  1  0  0  0
 50125  1  0  0  0
 51 52  1  0  0  0
 51126  1  0  0  0
 51127  1  0  0  0
 52128  1  0  0  0
 52129  1  0  0  0
 53 54  1  0  0  0
 54 55  2  0  0  0
 54130  1  0  0  0
 55 57  1  0  0  0
 55131  1  0  0  0
 56 69  2  0  0  0
 57 58  2  0  0  0
 57132  1  0  0  0
 58133  1  0  0  0
 59 60  1  0  0  0
 59 61  1  0  0  0
 59 62  1  0  0  0
 60134  1  0  0  0
 60135  1  0  0  0
 60136  1  0  0  0
 61137  1  0  0  0
 61138  1  0  0  0
 61139  1  0  0  0
 62140  1  0  0  0
 62141  1  0  0  0
 62142  1  0  0  0
 63 65  1  0  0  0
 63143  1  0  0  0
 63144  1  0  0  0
 63145  1  0  0  0
 64146  1  0  0  0
 65147  1  0  0  0
 68 84  1  0  0  0
 71 73  2  0  0  0
 71 75  1  0  0  0
 71148  1  0  0  0
 72 74  1  0  0  0
 72 75  2  0  0  0
 72149  1  0  0  0
 73 76  1  0  0  0
 73150  1  0  0  0
 74 76  2  0  0  0
 74151  1  0  0  0
 75 85  1  0  0  0
 76 88  1  0  0  0
 77 79  1  0  0  0
 77152  1  0  0  0
 77153  1  0  0  0
 77 81  1  0  0  0
 78 80  1  0  0  0
 78 81  1  0  0  0
 78154  1  0  0  0
 78155  1  0  0  0
 79 82  1  0  0  0
 79156  1  0  0  0
 79157  1  0  0  0
 80 82  1  0  0  0
 80158  1  0  0  0
 80159  1  0  0  0
 81 88  1  0  0  0
 81160  1  0  0  0
 82 83  1  0  0  0
 82 84  1  0  0  0
 83161  1  0  0  0
 83162  1  0  0  0
 83163  1  0  0  0
 84164  1  0  0  0
 84165  1  0  0  0
 85166  1  0  0  0
 86 88  2  0  0  0
 87 88  2  0  0  0
M  ISO  4   1 100  68 101  84 101  85 100
M  END
> <chiral flag>
0

> <version>
0

> <s_m_source_file>
/data/baiqing/PycharmProjects/Reinvent-master-3.2/result/LINK_invent/BTK/process_docking_weight1_custom_product_contain_oxygen_bond_distance_aromatic_linkinvent_7_9_3/rearranged_h_0144.sdf

> <i_m_source_file_index>
55

> <r_mmod_Potential_Energy-OPLS-2005>
-50.8650093078613

> <r_mmod_Stretch_Energy-OPLS-2005>
39.792896270752

> <r_mmod_Bend_Energy-OPLS-2005>
124.906883239746

> <r_mmod_Torsional_Energy-OPLS-2005>
266.40966796875

> <r_mmod_Improper_Torsional_Energy-OPLS-2005>
4.78853750228882

> <r_mmod_Van_der_Waal_Energy-OPLS-2005>
143.467330932617

> <r_mmod_Electrostatic_Energy-OPLS-2005>
-401.910888671875

> <r_mmod_Solvation_Energy-OPLS-2005>
-240.94987487793

> <b_mmod_Minimization_Converged-OPLS-2005>
0

> <r_mmod_RMS_Derivative-OPLS-2005>
1.03689670562744

$$$$
55
                    3D
 Structure written by MMmdl.
162171  0  0  1  0            999 V2000
  -30.5963  -14.6606   20.5160 C   0  0  0  0  0  0
  -30.4473  -12.4097   19.4507 C   0  0  0  0  0  0
  -29.5102  -12.5164   18.2251 C   0  0  0  0  0  0
  -28.0331  -12.3490   18.6377 C   0  0  0  0  0  0
  -27.6570  -13.2134   19.8704 C   0  0  2  0  0  0
  -28.7027  -13.0481   20.9961 C   0  0  0  0  0  0
  -25.2566  -13.8163   20.5679 C   0  0  0  0  0  0
  -24.1830  -13.0432   20.9182 C   0  0  0  0  0  0
  -24.6395  -11.6902   20.8736 C   0  0  0  0  0  0
  -23.9058  -10.4287   21.0405 C   0  0  0  0  0  0
  -24.3609   -9.4204   21.9183 C   0  0  0  0  0  0
  -23.6288   -8.2242   22.0753 C   0  0  0  0  0  0
  -22.4270   -8.0276   21.3545 C   0  0  0  0  0  0
  -21.9905   -9.0249   20.4647 C   0  0  0  0  0  0
  -22.7230  -10.2130   20.3057 C   0  0  0  0  0  0
  -21.6852   -6.0730   22.5275 C   0  0  0  0  0  0
  -21.4011   -6.5634   23.8207 C   0  0  0  0  0  0
  -21.3658   -5.6790   24.9171 C   0  0  0  0  0  0
  -21.6048   -4.3052   24.7223 C   0  0  0  0  0  0
  -21.8820   -3.8142   23.4343 C   0  0  0  0  0  0
  -21.9193   -4.6960   22.3400 C   0  0  0  0  0  0
  -22.7855  -13.5230   21.1850 C   0  0  0  0  0  0
  -22.1661   -4.2142   21.0978 F   0  0  0  0  0  0
  -21.5632   -3.4538   25.7736 F   0  0  0  0  0  0
  -30.0157  -13.4180   20.4405 N   0  0  0  0  0  0
  -26.3007  -12.9339   20.3359 N   0  0  0  0  0  0
  -25.9324  -11.6496   20.5768 N   0  0  0  0  0  0
  -22.0498  -12.8215   22.0403 N   0  0  0  0  0  0
  -25.4267  -15.1880   20.4055 N   0  0  0  0  0  0
  -31.7392  -14.8585   20.0908 O   0  0  0  0  0  0
  -21.6640   -6.8868   21.4238 O   0  0  0  0  0  0
  -22.3536  -14.5535   20.6699 O   0  0  0  0  0  0
  -24.6263  -31.8583   23.2007 C   0  0  0  0  0  0
  -25.9104  -32.4768   23.8338 C   0  0  1  0  0  0
  -27.2329  -27.3060   20.1134 C   0  0  0  0  0  0
  -25.5933  -33.8570   24.2274 N   0  0  0  0  0  0
  -23.4211  -30.4804   21.5420 C   0  0  2  0  0  0
  -24.8680  -28.9303   20.1106 C   0  0  0  0  0  0
  -22.7484  -29.4608   22.4919 C   0  0  0  0  0  0
  -18.0298  -28.1378   22.8494 C   0  0  0  0  0  0
  -24.1488  -36.7266   23.2640 C   0  0  0  0  0  0
  -25.9633  -30.7834   21.3742 C   0  0  0  0  0  0
  -26.0356  -29.4094   20.7163 C   0  0  0  0  0  0
  -27.2145  -28.6066   20.7109 C   0  0  0  0  0  0
  -26.0353  -26.8771   19.4930 C   0  0  0  0  0  0
  -24.8713  -27.6701   19.4934 C   0  0  0  0  0  0
  -23.6366  -29.8118   20.1580 C   0  0  0  0  0  0
  -25.4114  -36.3075   24.0338 C   0  0  1  0  0  0
  -20.5899  -28.3673   23.1286 C   0  0  2  0  0  0
  -20.6783  -26.9394   22.5415 C   0  0  0  0  0  0
  -19.5764  -26.6379   21.5211 C   0  0  0  0  0  0
  -18.1941  -26.7927   22.1619 C   0  0  0  0  0  0
  -19.1549  -28.8843   23.2890 C   0  0  0  0  0  0
  -18.9467  -30.1449   23.8904 C   0  0  0  0  0  0
  -17.6465  -30.6582   24.0553 C   0  0  0  0  0  0
  -25.9055  -34.9444   23.5104 C   0  0  0  0  0  0
  -16.5356  -29.9076   23.6330 C   0  0  0  0  0  0
  -16.7284  -28.6489   23.0368 C   0  0  0  0  0  0
  -26.4497  -31.6593   25.0709 C   0  0  0  0  0  0
  -25.3745  -31.3727   26.1445 C   0  0  0  0  0  0
  -27.0333  -30.3018   24.6152 C   0  0  0  0  0  0
  -27.6055  -32.4331   25.7476 C   0  0  0  0  0  0
  -27.5577  -37.1794   24.8470 C   0  0  0  0  0  0
  -21.4194  -29.3028   22.3670 N   0  0  0  0  0  0
  -26.4290  -37.3771   23.9413 N   0  0  0  0  0  0
  -24.6888  -31.0586   22.0953 N   0  0  0  0  0  0
  -23.4209  -28.8150   23.2997 O   0  0  0  0  0  0
  -28.3769  -26.4906   20.1874 O   0  0  0  0  0  0
  -26.5605  -34.8913   22.4659 O   0  0  0  0  0  0
  -23.5421  -32.1378   23.7336 O   0  0  0  0  0  0
  -30.4726  -19.3452   19.9832 C   0  0  0  0  0  0
  -30.5168  -17.9135   20.0096 C   0  0  0  0  0  0
  -28.9425  -19.3280   21.8285 C   0  0  0  0  0  0
  -28.9579  -17.8928   21.8691 C   0  0  0  0  0  0
  -29.7021  -20.0973   20.9129 C   0  0  0  0  0  0
  -29.7825  -17.1397   20.9557 C   0  0  0  0  0  0
  -30.8648  -21.9243   21.9115 C   0  0  0  0  0  0
  -28.0897  -17.2165   22.9012 C   0  0  0  0  0  0
  -28.7335  -23.9186   20.5587 C   0  0  0  0  0  0
  -31.6393  -23.1077   21.3502 C   0  0  0  0  0  0
  -31.0975  -23.1716   19.9211 C   0  0  0  0  0  0
  -29.6559  -22.6718   20.0983 C   0  0  1  0  0  0
  -27.4575  -18.0715   23.9960 C   0  0  0  0  0  0
  -28.4695  -25.1367   19.5761 C   0  0  0  0  0  0
  -29.8469  -21.5529   21.1043 N   0  0  0  0  0  0
  -29.7826  -15.6638   20.9833 N   0  0  0  0  0  0
  -31.1800  -21.3888   22.9790 O   0  0  0  0  0  0
  -27.8609  -16.0037   22.9248 O   0  0  0  0  0  0
  -28.2338  -23.9591   21.6879 O   0  0  0  0  0  0
  -31.4847  -12.5538   19.1455 H   0  0  0  0  0  0
  -30.4004  -11.4094   19.8841 H   0  0  0  0  0  0
  -29.7766  -11.7651   17.4804 H   0  0  0  0  0  0
  -29.6462  -13.4855   17.7426 H   0  0  0  0  0  0
  -27.8722  -11.2944   18.8658 H   0  0  0  0  0  0
  -27.3765  -12.5812   17.7987 H   0  0  0  0  0  0
  -27.6801  -14.2523   19.5411 H   0  0  0  0  0  0
  -28.7226  -12.0153   21.3479 H   0  0  0  0  0  0
  -28.4400  -13.6448   21.8694 H   0  0  0  0  0  0
  -25.2755   -9.5683   22.4756 H   0  0  0  0  0  0
  -23.9997   -7.4632   22.7474 H   0  0  0  0  0  0
  -21.0833   -8.8763   19.8954 H   0  0  0  0  0  0
  -22.3683  -10.9667   19.6162 H   0  0  0  0  0  0
  -21.1999   -7.6143   23.9703 H   0  0  0  0  0  0
  -21.1482   -6.0523   25.9071 H   0  0  0  0  0  0
  -22.0601   -2.7605   23.2846 H   0  0  0  0  0  0
  -22.4114  -11.9866   22.4774 H   0  0  0  0  0  0
  -21.1119  -13.1240   22.2617 H   0  0  0  0  0  0
  -24.6637  -15.8450   20.5242 H   0  0  0  0  0  0
  -26.2860  -15.6279   20.1032 H   0  0  0  0  0  0
  -26.7163  -32.5413   23.1077 H   0  0  0  0  0  0
  -25.0148  -33.9730   25.0464 H   0  0  0  0  0  0
  -22.7154  -31.3004   21.3966 H   0  0  0  0  0  0
  -23.3760  -35.9586   23.3316 H   0  0  0  0  0  0
  -24.3589  -36.8870   22.2053 H   0  0  0  0  0  0
  -23.7228  -37.6471   23.6642 H   0  0  0  0  0  0
  -26.1025  -31.5478   20.6083 H   0  0  0  0  0  0
  -26.8418  -30.8275   22.0073 H   0  0  0  0  0  0
  -28.1092  -28.9715   21.1955 H   0  0  0  0  0  0
  -25.9471  -25.9133   19.0201 H   0  0  0  0  0  0
  -23.9734  -27.2941   19.0216 H   0  0  0  0  0  0
  -23.7590  -30.5872   19.4011 H   0  0  0  0  0  0
  -22.7567  -29.2423   19.8542 H   0  0  0  0  0  0
  -25.1304  -36.1924   25.0832 H   0  0  0  0  0  0
  -21.0009  -28.3240   24.1398 H   0  0  0  0  0  0
  -20.5676  -26.2276   23.3611 H   0  0  0  0  0  0
  -21.6649  -26.7427   22.1200 H   0  0  0  0  0  0
  -19.6923  -25.6295   21.1234 H   0  0  0  0  0  0
  -19.6706  -27.3189   20.6739 H   0  0  0  0  0  0
  -17.4218  -26.6698   21.4012 H   0  0  0  0  0  0
  -18.0326  -26.0062   22.9003 H   0  0  0  0  0  0
  -19.7943  -30.7265   24.2278 H   0  0  0  0  0  0
  -17.5017  -31.6265   24.5148 H   0  0  0  0  0  0
  -15.5354  -30.2971   23.7653 H   0  0  0  0  0  0
  -15.8694  -28.0795   22.7096 H   0  0  0  0  0  0
  -24.5929  -30.7064   25.7787 H   0  0  0  0  0  0
  -24.8918  -32.2887   26.4862 H   0  0  0  0  0  0
  -25.8092  -30.8930   27.0224 H   0  0  0  0  0  0
  -26.2892  -29.6776   24.1191 H   0  0  0  0  0  0
  -27.4061  -29.7274   25.4641 H   0  0  0  0  0  0
  -27.8755  -30.4320   23.9353 H   0  0  0  0  0  0
  -27.2675  -33.3649   26.2023 H   0  0  0  0  0  0
  -28.3878  -32.6868   25.0311 H   0  0  0  0  0  0
  -28.0697  -31.8472   26.5423 H   0  0  0  0  0  0
  -28.2607  -38.0080   24.7515 H   0  0  0  0  0  0
  -28.1075  -36.2617   24.6312 H   0  0  0  0  0  0
  -27.2304  -37.1456   25.8879 H   0  0  0  0  0  0
  -20.9364  -29.8751   21.6890 H   0  0  0  0  0  0
  -26.0177  -38.2848   24.1413 H   0  0  0  0  0  0
  -31.0968  -19.8669   19.2712 H   0  0  0  0  0  0
  -31.1412  -17.4085   19.2855 H   0  0  0  0  0  0
  -28.3630  -19.8884   22.5469 H   0  0  0  0  0  0
  -32.7158  -22.9386   21.3783 H   0  0  0  0  0  0
  -31.4089  -24.0066   21.9232 H   0  0  0  0  0  0
  -31.6564  -22.4956   19.2717 H   0  0  0  0  0  0
  -31.1790  -24.1717   19.4957 H   0  0  0  0  0  0
  -29.2704  -22.2703   19.1607 H   0  0  0  0  0  0
  -28.2114  -18.6824   24.4920 H   0  0  0  0  0  0
  -26.9896  -17.4370   24.7475 H   0  0  0  0  0  0
  -26.6904  -18.7207   23.5759 H   0  0  0  0  0  0
  -27.6092  -24.8798   18.9669 H   0  0  0  0  0  0
  -29.2984  -25.1748   18.8708 H   0  0  0  0  0  0
  -28.9651  -15.2833   21.4435 H   0  0  0  0  0  0
  1 25  1  0  0  0
  1 30  2  0  0  0
  1 86  1  0  0  0
  2  3  1  0  0  0
  2 25  1  0  0  0
  2 90  1  0  0  0
  2 91  1  0  0  0
  3  4  1  0  0  0
  3 92  1  0  0  0
  3 93  1  0  0  0
  4  5  1  0  0  0
  4 94  1  0  0  0
  4 95  1  0  0  0
  5  6  1  0  0  0
  5 26  1  0  0  0
  5 96  1  0  0  0
  6 25  1  0  0  0
  6 97  1  0  0  0
  6 98  1  0  0  0
  7  8  2  0  0  0
  7 26  1  0  0  0
  7 29  1  0  0  0
  8  9  1  0  0  0
  8 22  1  0  0  0
  9 10  1  0  0  0
  9 27  2  0  0  0
 10 11  2  0  0  0
 10 15  1  0  0  0
 11 12  1  0  0  0
 11 99  1  0  0  0
 12 13  2  0  0  0
 12100  1  0  0  0
 13 14  1  0  0  0
 13 31  1  0  0  0
 14 15  2  0  0  0
 14101  1  0  0  0
 15102  1  0  0  0
 16 17  2  0  0  0
 16 21  1  0  0  0
 16 31  1  0  0  0
 17 18  1  0  0  0
 17103  1  0  0  0
 18 19  2  0  0  0
 18104  1  0  0  0
 19 20  1  0  0  0
 19 24  1  0  0  0
 20 21  2  0  0  0
 20105  1  0  0  0
 21 23  1  0  0  0
 22 28  1  0  0  0
 22 32  2  0  0  0
 26 27  1  0  0  0
 28106  1  0  0  0
 28107  1  0  0  0
 29108  1  0  0  0
 29109  1  0  0  0
 33 34  1  0  0  0
 33 66  1  0  0  0
 33 70  2  0  0  0
 34 36  1  0  0  0
 34 59  1  0  0  0
 34110  1  0  0  0
 35 44  2  0  0  0
 35 45  1  0  0  0
 35 68  1  0  0  0
 36 56  1  0  0  0
 36111  1  0  0  0
 37 39  1  0  0  0
 37 47  1  0  0  0
 37 66  1  0  0  0
 37112  1  0  0  0
 38 43  2  0  0  0
 38 46  1  0  0  0
 38 47  1  0  0  0
 39 64  1  0  0  0
 39 67  2  0  0  0
 40 52  1  0  0  0
 40 53  2  0  0  0
 40 58  1  0  0  0
 41113  1  0  0  0
 41114  1  0  0  0
 41115  1  0  0  0
 41 48  1  0  0  0
 42 43  1  0  0  0
 42 66  1  0  0  0
 42116  1  0  0  0
 42117  1  0  0  0
 43 44  1  0  0  0
 44118  1  0  0  0
 45 46  2  0  0  0
 45119  1  0  0  0
 46120  1  0  0  0
 47121  1  0  0  0
 47122  1  0  0  0
 48 56  1  0  0  0
 48 65  1  0  0  0
 48123  1  0  0  0
 49 50  1  0  0  0
 49 53  1  0  0  0
 49 64  1  0  0  0
 49124  1  0  0  0
 50 51  1  0  0  0
 50125  1  0  0  0
 50126  1  0  0  0
 51 52  1  0  0  0
 51127  1  0  0  0
 51128  1  0  0  0
 52129  1  0  0  0
 52130  1  0  0  0
 53 54  1  0  0  0
 54 55  2  0  0  0
 54131  1  0  0  0
 55 57  1  0  0  0
 55132  1  0  0  0
 56 69  2  0  0  0
 57 58  2  0  0  0
 57133  1  0  0  0
 58134  1  0  0  0
 59 60  1  0  0  0
 59 61  1  0  0  0
 59 62  1  0  0  0
 60135  1  0  0  0
 60136  1  0  0  0
 60137  1  0  0  0
 61138  1  0  0  0
 61139  1  0  0  0
 61140  1  0  0  0
 62141  1  0  0  0
 62142  1  0  0  0
 62143  1  0  0  0
 63 65  1  0  0  0
 63144  1  0  0  0
 63145  1  0  0  0
 63146  1  0  0  0
 64147  1  0  0  0
 65148  1  0  0  0
 68 84  1  0  0  0
 71 72  2  0  0  0
 71 75  1  0  0  0
 71149  1  0  0  0
 72 76  1  0  0  0
 72150  1  0  0  0
 73 74  1  0  0  0
 73 75  2  0  0  0
 73151  1  0  0  0
 74 76  2  0  0  0
 74 78  1  0  0  0
 75 85  1  0  0  0
 76 86  1  0  0  0
 77 80  1  0  0  0
 77 85  1  0  0  0
 77 87  2  0  0  0
 78 83  1  0  0  0
 78 88  2  0  0  0
 79 84  1  0  0  0
 79 89  2  0  0  0
 79 82  1  0  0  0
 80 81  1  0  0  0
 80152  1  0  0  0
 80153  1  0  0  0
 81 82  1  0  0  0
 81154  1  0  0  0
 81155  1  0  0  0
 82 85  1  0  0  0
 82156  1  0  0  0
 83157  1  0  0  0
 83158  1  0  0  0
 83159  1  0  0  0
 84160  1  0  0  0
 84161  1  0  0  0
 86162  1  0  0  0
M  ISO  4   1 100  68 101  84 101  86 100
M  END
> <chiral flag>
0

> <version>
0

> <s_m_source_file>
/data/baiqing/PycharmProjects/Reinvent-master-3.2/result/LINK_invent/BTK/process_docking_weight1_custom_product_contain_oxygen_bond_distance_aromatic_linkinvent_7_9_3/rearranged_h_0144.sdf

> <i_m_source_file_index>
56

> <r_mmod_Potential_Energy-OPLS-2005>
247.085098266602

> <r_mmod_Stretch_Energy-OPLS-2005>
101.670257568359

> <r_mmod_Bend_Energy-OPLS-2005>
200.590744018555

> <r_mmod_Torsional_Energy-OPLS-2005>
327.744903564453

> <r_mmod_Improper_Torsional_Energy-OPLS-2005>
6.47149562835693

> <r_mmod_Van_der_Waal_Energy-OPLS-2005>
147.616516113281

> <r_mmod_Electrostatic_Energy-OPLS-2005>
-342.613555908203

> <r_mmod_Solvation_Energy-OPLS-2005>
-247.321044921875

> <b_mmod_Minimization_Converged-OPLS-2005>
0

> <r_mmod_RMS_Derivative-OPLS-2005>
1.30912172794342

$$$$
56
                    3D
 Structure written by MMmdl.
183192  0  0  1  0            999 V2000
  -30.6834  -14.4257   20.4992 C   0  0  0  0  0  0
  -30.4219  -12.2355   19.4406 C   0  0  0  0  0  0
  -29.5043  -12.4240   18.2168 C   0  0  0  0  0  0
  -28.0148  -12.3411   18.6206 C   0  0  0  0  0  0
  -27.6616  -13.1844   19.8781 C   0  0  2  0  0  0
  -28.7012  -12.9635   20.9991 C   0  0  0  0  0  0
  -25.2597  -13.8112   20.5672 C   0  0  0  0  0  0
  -24.1828  -13.0421   20.9175 C   0  0  0  0  0  0
  -24.6351  -11.6882   20.8747 C   0  0  0  0  0  0
  -23.9013  -10.4285   21.0416 C   0  0  0  0  0  0
  -24.3578   -9.4204   21.9188 C   0  0  0  0  0  0
  -23.6268   -8.2231   22.0751 C   0  0  0  0  0  0
  -22.4251   -8.0268   21.3542 C   0  0  0  0  0  0
  -21.9876   -9.0238   20.4641 C   0  0  0  0  0  0
  -22.7192  -10.2123   20.3058 C   0  0  0  0  0  0
  -21.6844   -6.0723   22.5280 C   0  0  0  0  0  0
  -21.4011   -6.5631   23.8214 C   0  0  0  0  0  0
  -21.3658   -5.6786   24.9174 C   0  0  0  0  0  0
  -21.6046   -4.3047   24.7226 C   0  0  0  0  0  0
  -21.8821   -3.8138   23.4349 C   0  0  0  0  0  0
  -21.9188   -4.6953   22.3402 C   0  0  0  0  0  0
  -22.7857  -13.5245   21.1836 C   0  0  0  0  0  0
  -22.1659   -4.2138   21.0981 F   0  0  0  0  0  0
  -21.5627   -3.4530   25.7744 F   0  0  0  0  0  0
  -30.0353  -13.2377   20.4401 N   0  0  0  0  0  0
  -26.3010  -12.9233   20.3382 N   0  0  0  0  0  0
  -25.9269  -11.6421   20.5800 N   0  0  0  0  0  0
  -22.0480  -12.8260   22.0393 N   0  0  0  0  0  0
  -25.4329  -15.1825   20.4065 N   0  0  0  0  0  0
  -31.8473  -14.5890   20.1209 O   0  0  0  0  0  0
  -21.6625   -6.8860   21.4243 O   0  0  0  0  0  0
  -22.3565  -14.5558   20.6682 O   0  0  0  0  0  0
  -24.6000  -31.8734   23.2138 C   0  0  0  0  0  0
  -25.8941  -32.4852   23.8416 C   0  0  1  0  0  0
  -27.2985  -27.5235   20.1180 C   0  0  0  0  0  0
  -25.5839  -33.8649   24.2360 N   0  0  0  0  0  0
  -23.3842  -30.4899   21.5490 C   0  0  2  0  0  0
  -24.8404  -28.9519   20.1238 C   0  0  0  0  0  0
  -22.7325  -29.4670   22.5033 C   0  0  0  0  0  0
  -18.0252  -28.1368   22.8501 C   0  0  0  0  0  0
  -24.1479  -36.7339   23.2641 C   0  0  0  0  0  0
  -25.8932  -30.8668   21.3490 C   0  0  0  0  0  0
  -25.9771  -29.4957   20.7228 C   0  0  0  0  0  0
  -27.1847  -28.7884   20.7317 C   0  0  0  0  0  0
  -26.1385  -26.9810   19.5134 C   0  0  0  0  0  0
  -24.9099  -27.6811   19.5214 C   0  0  0  0  0  0
  -23.5921  -29.8044   20.1666 C   0  0  0  0  0  0
  -25.4095  -36.3139   24.0351 C   0  0  1  0  0  0
  -20.5829  -28.3633   23.1360 C   0  0  2  0  0  0
  -20.6740  -26.9381   22.5437 C   0  0  0  0  0  0
  -19.5729  -26.6382   21.5220 C   0  0  0  0  0  0
  -18.1902  -26.7920   22.1624 C   0  0  0  0  0  0
  -19.1497  -28.8816   23.2930 C   0  0  0  0  0  0
  -18.9435  -30.1429   23.8932 C   0  0  0  0  0  0
  -17.6442  -30.6581   24.0569 C   0  0  0  0  0  0
  -25.9008  -34.9496   23.5158 C   0  0  0  0  0  0
  -16.5332  -29.9090   23.6320 C   0  0  0  0  0  0
  -16.7245  -28.6504   23.0342 C   0  0  0  0  0  0
  -26.4438  -31.6603   25.0698 C   0  0  0  0  0  0
  -25.3754  -31.3663   26.1484 C   0  0  0  0  0  0
  -27.0268  -30.3075   24.5977 C   0  0  0  0  0  0
  -27.6041  -32.4305   25.7441 C   0  0  0  0  0  0
  -27.5584  -37.1815   24.8464 C   0  0  0  0  0  0
  -21.4068  -29.3008   22.3771 N   0  0  0  0  0  0
  -26.4295  -37.3811   23.9411 N   0  0  0  0  0  0
  -24.6430  -31.0913   22.0985 N   0  0  0  0  0  0
  -23.4142  -28.8244   23.3063 O   0  0  0  0  0  0
  -28.4883  -26.8218   19.9934 O   0  0  0  0  0  0
  -26.5574  -34.8935   22.4720 O   0  0  0  0  0  0
  -23.5226  -32.1441   23.7605 O   0  0  0  0  0  0
  -30.2628  -17.7567   21.4459 C   0  0  0  0  0  0
  -30.5126  -19.1030   21.1407 C   0  0  0  0  0  0
  -30.2710  -17.2014   19.0458 C   0  0  0  0  0  0
  -30.6923  -18.5251   18.7622 C   0  0  0  0  0  0
  -30.1518  -16.8061   20.4121 C   0  0  0  0  0  0
  -30.7190  -19.4806   19.8014 C   0  0  0  0  0  0
  -29.8598  -21.6721   19.3445 C   0  0  0  0  0  0
  -29.1198  -16.7387   16.6916 C   0  0  0  0  0  0
  -28.4462  -15.8718   17.7055 C   0  0  0  0  0  0
  -29.8982  -16.2683   17.9136 C   0  0  0  0  0  0
  -31.0899  -18.9538   17.3493 C   0  0  0  0  0  0
  -32.1783  -24.1283   19.8401 C   0  0  0  0  0  0
  -30.1897  -28.3430   21.1119 C   0  0  0  0  0  0
  -29.1722  -26.3164   22.2608 C   0  0  0  0  0  0
  -30.1568  -25.1409   17.4892 C   0  0  0  0  0  0
  -29.9973  -22.7607   18.2671 C   0  0  0  0  0  0
  -30.7944  -26.1325   20.2963 C   0  0  0  0  0  0
  -30.7122  -24.6175   19.9670 C   0  0  1  0  0  0
  -29.6038  -26.9185   20.9122 C   0  0  0  0  0  0
  -29.8564  -24.2428   18.7078 C   0  0  1  0  0  0
  -30.8973  -20.8308   19.4554 N   0  0  0  0  0  0
  -29.8927  -15.4677   20.7940 N   0  0  0  0  0  0
  -28.8476  -21.5847   20.0466 O   0  0  0  0  0  0
  -28.4901  -24.4511   18.9884 O   0  0  0  0  0  0
  -31.4702  -12.3163   19.1472 H   0  0  0  0  0  0
  -30.3055  -11.2333   19.8556 H   0  0  0  0  0  0
  -29.7252  -11.6622   17.4680 H   0  0  0  0  0  0
  -29.7283  -13.3741   17.7393 H   0  0  0  0  0  0
  -27.7949  -11.2915   18.8165 H   0  0  0  0  0  0
  -27.3776  -12.6251   17.7827 H   0  0  0  0  0  0
  -27.7046  -14.2311   19.5935 H   0  0  0  0  0  0
  -28.6599  -11.9348   21.3598 H   0  0  0  0  0  0
  -28.4812  -13.5881   21.8670 H   0  0  0  0  0  0
  -25.2723   -9.5684   22.4763 H   0  0  0  0  0  0
  -23.9980   -7.4620   22.7469 H   0  0  0  0  0  0
  -21.0803   -8.8742   19.8955 H   0  0  0  0  0  0
  -22.3640  -10.9654   19.6165 H   0  0  0  0  0  0
  -21.2004   -7.6141   23.9714 H   0  0  0  0  0  0
  -21.1481   -6.0516   25.9080 H   0  0  0  0  0  0
  -22.0600   -2.7600   23.2850 H   0  0  0  0  0  0
  -22.4069  -11.9925   22.4809 H   0  0  0  0  0  0
  -21.1098  -13.1312   22.2576 H   0  0  0  0  0  0
  -24.6650  -15.8361   20.5152 H   0  0  0  0  0  0
  -26.2811  -15.6222   20.0741 H   0  0  0  0  0  0
  -26.7021  -32.5632   23.1211 H   0  0  0  0  0  0
  -24.9997  -33.9829   25.0508 H   0  0  0  0  0  0
  -22.6680  -31.3016   21.4054 H   0  0  0  0  0  0
  -23.3732  -35.9684   23.3330 H   0  0  0  0  0  0
  -24.3574  -36.8918   22.2050 H   0  0  0  0  0  0
  -23.7242  -37.6561   23.6627 H   0  0  0  0  0  0
  -25.9756  -31.6208   20.5649 H   0  0  0  0  0  0
  -26.7892  -30.9496   21.9507 H   0  0  0  0  0  0
  -28.0045  -29.2965   21.1878 H   0  0  0  0  0  0
  -26.1903  -26.0192   19.0226 H   0  0  0  0  0  0
  -24.0384  -27.2470   19.0510 H   0  0  0  0  0  0
  -23.6883  -30.5700   19.3961 H   0  0  0  0  0  0
  -22.7228  -29.2088   19.8820 H   0  0  0  0  0  0
  -25.1268  -36.2024   25.0846 H   0  0  0  0  0  0
  -20.9926  -28.3194   24.1479 H   0  0  0  0  0  0
  -20.5635  -26.2240   23.3610 H   0  0  0  0  0  0
  -21.6616  -26.7433   22.1237 H   0  0  0  0  0  0
  -19.6889  -25.6300   21.1228 H   0  0  0  0  0  0
  -19.6677  -27.3211   20.6764 H   0  0  0  0  0  0
  -17.4178  -26.6678   21.4017 H   0  0  0  0  0  0
  -18.0296  -26.0050   22.9007 H   0  0  0  0  0  0
  -19.7915  -30.7230   24.2317 H   0  0  0  0  0  0
  -17.5003  -31.6267   24.5162 H   0  0  0  0  0  0
  -15.5335  -30.3007   23.7624 H   0  0  0  0  0  0
  -15.8644  -28.0841   22.7035 H   0  0  0  0  0  0
  -24.5916  -30.7017   25.7831 H   0  0  0  0  0  0
  -24.8956  -32.2801   26.5000 H   0  0  0  0  0  0
  -25.8154  -30.8795   27.0195 H   0  0  0  0  0  0
  -26.2775  -29.6832   24.1099 H   0  0  0  0  0  0
  -27.4167  -29.7304   25.4370 H   0  0  0  0  0  0
  -27.8541  -30.4448   23.9009 H   0  0  0  0  0  0
  -27.2682  -33.3579   26.2092 H   0  0  0  0  0  0
  -28.3805  -32.6902   25.0233 H   0  0  0  0  0  0
  -28.0761  -31.8383   26.5291 H   0  0  0  0  0  0
  -28.2617  -38.0098   24.7508 H   0  0  0  0  0  0
  -28.1061  -36.2634   24.6287 H   0  0  0  0  0  0
  -27.2306  -37.1470   25.8868 H   0  0  0  0  0  0
  -20.9210  -29.8710   21.6989 H   0  0  0  0  0  0
  -26.0199  -38.2898   24.1403 H   0  0  0  0  0  0
  -30.1368  -17.4619   22.4782 H   0  0  0  0  0  0
  -30.5490  -19.8374   21.9329 H   0  0  0  0  0  0
  -28.7489  -17.7594   16.6380 H   0  0  0  0  0  0
  -29.3624  -16.2811   15.7345 H   0  0  0  0  0  0
  -28.1869  -14.8831   17.3403 H   0  0  0  0  0  0
  -27.6935  -16.3467   18.3312 H   0  0  0  0  0  0
  -30.6723  -15.5230   17.7458 H   0  0  0  0  0  0
  -31.3810  -18.1090   16.7258 H   0  0  0  0  0  0
  -31.9594  -19.6108   17.3714 H   0  0  0  0  0  0
  -30.2760  -19.4895   16.8609 H   0  0  0  0  0  0
  -32.7471  -24.3427   20.7453 H   0  0  0  0  0  0
  -32.6948  -24.6155   19.0133 H   0  0  0  0  0  0
  -32.2714  -23.0572   19.6927 H   0  0  0  0  0  0
  -31.2627  -28.3365   21.3069 H   0  0  0  0  0  0
  -29.7838  -28.8466   21.9879 H   0  0  0  0  0  0
  -30.0463  -28.9645   20.2275 H   0  0  0  0  0  0
  -30.0077  -26.2685   22.9600 H   0  0  0  0  0  0
  -28.7788  -25.3069   22.1416 H   0  0  0  0  0  0
  -28.3899  -26.9140   22.7297 H   0  0  0  0  0  0
  -31.2135  -25.1107   17.2240 H   0  0  0  0  0  0
  -29.8900  -26.1845   17.6586 H   0  0  0  0  0  0
  -29.5982  -24.8182   16.6094 H   0  0  0  0  0  0
  -29.2584  -22.5369   17.4967 H   0  0  0  0  0  0
  -30.9578  -22.6333   17.7659 H   0  0  0  0  0  0
  -31.1607  -26.6689   19.4211 H   0  0  0  0  0  0
  -31.6071  -26.2273   21.0178 H   0  0  0  0  0  0
  -30.2934  -24.1061   20.8345 H   0  0  0  0  0  0
  -31.6699  -21.0266   18.8349 H   0  0  0  0  0  0
  -28.9899  -15.2634   21.1944 H   0  0  0  0  0  0
  -28.4142  -25.3369   19.3505 H   0  0  0  0  0  0
  1 25  1  0  0  0
  1 30  2  0  0  0
  1 92  1  0  0  0
  2  3  1  0  0  0
  2 25  1  0  0  0
  2 95  1  0  0  0
  2 96  1  0  0  0
  3  4  1  0  0  0
  3 97  1  0  0  0
  3 98  1  0  0  0
  4  5  1  0  0  0
  4 99  1  0  0  0
  4100  1  0  0  0
  5  6  1  0  0  0
  5 26  1  0  0  0
  5101  1  0  0  0
  6 25  1  0  0  0
  6102  1  0  0  0
  6103  1  0  0  0
  7  8  2  0  0  0
  7 26  1  0  0  0
  7 29  1  0  0  0
  8  9  1  0  0  0
  8 22  1  0  0  0
  9 10  1  0  0  0
  9 27  2  0  0  0
 10 11  2  0  0  0
 10 15  1  0  0  0
 11 12  1  0  0  0
 11104  1  0  0  0
 12 13  2  0  0  0
 12105  1  0  0  0
 13 14  1  0  0  0
 13 31  1  0  0  0
 14 15  2  0  0  0
 14106  1  0  0  0
 15107  1  0  0  0
 16 17  2  0  0  0
 16 21  1  0  0  0
 16 31  1  0  0  0
 17 18  1  0  0  0
 17108  1  0  0  0
 18 19  2  0  0  0
 18109  1  0  0  0
 19 20  1  0  0  0
 19 24  1  0  0  0
 20 21  2  0  0  0
 20110  1  0  0  0
 21 23  1  0  0  0
 22 28  1  0  0  0
 22 32  2  0  0  0
 26 27  1  0  0  0
 28111  1  0  0  0
 28112  1  0  0  0
 29113  1  0  0  0
 29114  1  0  0  0
 33 34  1  0  0  0
 33 66  1  0  0  0
 33 70  2  0  0  0
 34 36  1  0  0  0
 34 59  1  0  0  0
 34115  1  0  0  0
 35 44  2  0  0  0
 35 45  1  0  0  0
 35 68  1  0  0  0
 36 56  1  0  0  0
 36116  1  0  0  0
 37 39  1  0  0  0
 37 47  1  0  0  0
 37 66  1  0  0  0
 37117  1  0  0  0
 38 43  2  0  0  0
 38 46  1  0  0  0
 38 47  1  0  0  0
 39 64  1  0  0  0
 39 67  2  0  0  0
 40 52  1  0  0  0
 40 53  2  0  0  0
 40 58  1  0  0  0
 41118  1  0  0  0
 41119  1  0  0  0
 41120  1  0  0  0
 41 48  1  0  0  0
 42 43  1  0  0  0
 42 66  1  0  0  0
 42121  1  0  0  0
 42122  1  0  0  0
 43 44  1  0  0  0
 44123  1  0  0  0
 45 46  2  0  0  0
 45124  1  0  0  0
 46125  1  0  0  0
 47126  1  0  0  0
 47127  1  0  0  0
 48 56  1  0  0  0
 48 65  1  0  0  0
 48128  1  0  0  0
 49 50  1  0  0  0
 49 53  1  0  0  0
 49 64  1  0  0  0
 49129  1  0  0  0
 50 51  1  0  0  0
 50130  1  0  0  0
 50131  1  0  0  0
 51 52  1  0  0  0
 51132  1  0  0  0
 51133  1  0  0  0
 52134  1  0  0  0
 52135  1  0  0  0
 53 54  1  0  0  0
 54 55  2  0  0  0
 54136  1  0  0  0
 55 57  1  0  0  0
 55137  1  0  0  0
 56 69  2  0  0  0
 57 58  2  0  0  0
 57138  1  0  0  0
 58139  1  0  0  0
 59 60  1  0  0  0
 59 61  1  0  0  0
 59 62  1  0  0  0
 60140  1  0  0  0
 60141  1  0  0  0
 60142  1  0  0  0
 61143  1  0  0  0
 61144  1  0  0  0
 61145  1  0  0  0
 62146  1  0  0  0
 62147  1  0  0  0
 62148  1  0  0  0
 63 65  1  0  0  0
 63149  1  0  0  0
 63150  1  0  0  0
 63151  1  0  0  0
 64152  1  0  0  0
 65153  1  0  0  0
 68 89  1  0  0  0
 71 72  2  0  0  0
 71 75  1  0  0  0
 71154  1  0  0  0
 72 76  1  0  0  0
 72155  1  0  0  0
 73 74  1  0  0  0
 73 75  2  0  0  0
 73 80  1  0  0  0
 74 76  2  0  0  0
 74 81  1  0  0  0
 75 92  1  0  0  0
 76 91  1  0  0  0
 77 86  1  0  0  0
 77 91  1  0  0  0
 77 93  2  0  0  0
 78 79  1  0  0  0
 78 80  1  0  0  0
 78156  1  0  0  0
 78157  1  0  0  0
 79 80  1  0  0  0
 79158  1  0  0  0
 79159  1  0  0  0
 80160  1  0  0  0
 81161  1  0  0  0
 81162  1  0  0  0
 81163  1  0  0  0
 82164  1  0  0  0
 82165  1  0  0  0
 82166  1  0  0  0
 82 88  1  0  0  0
 83167  1  0  0  0
 83168  1  0  0  0
 83169  1  0  0  0
 83 89  1  0  0  0
 84 89  1  0  0  0
 84170  1  0  0  0
 84171  1  0  0  0
 84172  1  0  0  0
 85173  1  0  0  0
 85174  1  0  0  0
 85175  1  0  0  0
 85 90  1  0  0  0
 86 90  1  0  0  0
 86176  1  0  0  0
 86177  1  0  0  0
 87 88  1  0  0  0
 87 89  1  0  0  0
 87178  1  0  0  0
 87179  1  0  0  0
 88 90  1  0  0  0
 88180  1  0  0  0
 90 94  1  0  0  0
 91181  1  0  0  0
 92182  1  0  0  0
 94183  1  0  0  0
M  ISO  4   1 100  68 101  89 101  92 100
M  END
> <chiral flag>
0

> <version>
0

> <s_m_source_file>
/data/baiqing/PycharmProjects/Reinvent-master-3.2/result/LINK_invent/BTK/process_docking_weight1_custom_product_contain_oxygen_bond_distance_aromatic_linkinvent_7_9_3/rearranged_h_0144.sdf

> <i_m_source_file_index>
57

> <r_mmod_Potential_Energy-OPLS-2005>
24.5556983947754

> <r_mmod_Stretch_Energy-OPLS-2005>
41.8651962280273

> <r_mmod_Bend_Energy-OPLS-2005>
145.084869384766

> <r_mmod_Torsional_Energy-OPLS-2005>
331.009460449219

> <r_mmod_Improper_Torsional_Energy-OPLS-2005>
8.06461429595947

> <r_mmod_Van_der_Waal_Energy-OPLS-2005>
184.888107299805

> <r_mmod_Electrostatic_Energy-OPLS-2005>
-466.622802734375

> <r_mmod_Solvation_Energy-OPLS-2005>
-234.018081665039

> <b_mmod_Minimization_Converged-OPLS-2005>
0

> <r_mmod_RMS_Derivative-OPLS-2005>
0.989822208881378

$$$$
57
                    3D
 Structure written by MMmdl.
158167  0  0  1  0            999 V2000
  -30.6664  -14.5571   20.4719 C   0  0  0  0  0  0
  -30.4206  -12.3322   19.4408 C   0  0  0  0  0  0
  -29.4980  -12.4860   18.2139 C   0  0  0  0  0  0
  -28.0182  -12.3456   18.6258 C   0  0  0  0  0  0
  -27.6504  -13.2124   19.8605 C   0  0  2  0  0  0
  -28.6976  -13.0677   20.9856 C   0  0  0  0  0  0
  -25.2564  -13.8170   20.5722 C   0  0  0  0  0  0
  -24.1826  -13.0434   20.9203 C   0  0  0  0  0  0
  -24.6370  -11.6904   20.8726 C   0  0  0  0  0  0
  -23.9031  -10.4291   21.0401 C   0  0  0  0  0  0
  -24.3601   -9.4220   21.9186 C   0  0  0  0  0  0
  -23.6287   -8.2246   22.0746 C   0  0  0  0  0  0
  -22.4262   -8.0277   21.3544 C   0  0  0  0  0  0
  -21.9885   -9.0248   20.4653 C   0  0  0  0  0  0
  -22.7196  -10.2131   20.3062 C   0  0  0  0  0  0
  -21.6843   -6.0727   22.5287 C   0  0  0  0  0  0
  -21.4004   -6.5633   23.8229 C   0  0  0  0  0  0
  -21.3671   -5.6785   24.9186 C   0  0  0  0  0  0
  -21.6052   -4.3042   24.7215 C   0  0  0  0  0  0
  -21.8823   -3.8137   23.4338 C   0  0  0  0  0  0
  -21.9188   -4.6963   22.3398 C   0  0  0  0  0  0
  -22.7856  -13.5230   21.1867 C   0  0  0  0  0  0
  -22.1665   -4.2154   21.0970 F   0  0  0  0  0  0
  -21.5630   -3.4529   25.7725 F   0  0  0  0  0  0
  -30.0163  -13.3610   20.4108 N   0  0  0  0  0  0
  -26.2973  -12.9332   20.3344 N   0  0  0  0  0  0
  -25.9293  -11.6505   20.5763 N   0  0  0  0  0  0
  -22.0470  -12.8265   22.0437 N   0  0  0  0  0  0
  -25.4291  -15.1897   20.4163 N   0  0  0  0  0  0
  -31.8654  -14.6614   20.1886 O   0  0  0  0  0  0
  -21.6631   -6.8865   21.4243 O   0  0  0  0  0  0
  -22.3561  -14.5537   20.6695 O   0  0  0  0  0  0
  -24.6184  -31.8638   23.2063 C   0  0  0  0  0  0
  -25.9044  -32.4809   23.8366 C   0  0  1  0  0  0
  -27.2231  -27.3825   20.1034 C   0  0  0  0  0  0
  -25.5872  -33.8599   24.2317 N   0  0  0  0  0  0
  -23.4091  -30.4872   21.5486 C   0  0  2  0  0  0
  -24.8546  -28.9472   20.1146 C   0  0  0  0  0  0
  -22.7439  -29.4643   22.4992 C   0  0  0  0  0  0
  -18.0284  -28.1394   22.8506 C   0  0  0  0  0  0
  -24.1473  -36.7306   23.2647 C   0  0  0  0  0  0
  -25.9437  -30.8172   21.3637 C   0  0  0  0  0  0
  -26.0212  -29.4484   20.7069 C   0  0  0  0  0  0
  -27.2136  -28.6766   20.6898 C   0  0  0  0  0  0
  -26.0399  -26.9113   19.4988 C   0  0  0  0  0  0
  -24.8616  -27.6809   19.5069 C   0  0  0  0  0  0
  -23.6174  -29.8180   20.1648 C   0  0  0  0  0  0
  -25.4098  -36.3106   24.0346 C   0  0  1  0  0  0
  -20.5877  -28.3661   23.1327 C   0  0  2  0  0  0
  -20.6762  -26.9393   22.5428 C   0  0  0  0  0  0
  -19.5739  -26.6392   21.5224 C   0  0  0  0  0  0
  -18.1920  -26.7941   22.1634 C   0  0  0  0  0  0
  -19.1538  -28.8847   23.2914 C   0  0  0  0  0  0
  -18.9466  -30.1461   23.8919 C   0  0  0  0  0  0
  -17.6464  -30.6598   24.0562 C   0  0  0  0  0  0
  -25.9019  -34.9462   23.5142 C   0  0  0  0  0  0
  -16.5356  -29.9097   23.6326 C   0  0  0  0  0  0
  -16.7266  -28.6513   23.0349 C   0  0  0  0  0  0
  -26.4445  -31.6593   25.0704 C   0  0  0  0  0  0
  -25.3704  -31.3713   26.1453 C   0  0  0  0  0  0
  -27.0290  -30.3036   24.6101 C   0  0  0  0  0  0
  -27.6032  -32.4313   25.7442 C   0  0  0  0  0  0
  -27.5587  -37.1794   24.8460 C   0  0  0  0  0  0
  -21.4159  -29.3030   22.3733 N   0  0  0  0  0  0
  -26.4295  -37.3784   23.9409 N   0  0  0  0  0  0
  -24.6757  -31.0706   22.0980 N   0  0  0  0  0  0
  -23.4194  -28.8199   23.3058 O   0  0  0  0  0  0
  -28.3462  -26.5667   20.1136 O   0  0  0  0  0  0
  -26.5585  -34.8911   22.4713 O   0  0  0  0  0  0
  -23.5352  -32.1406   23.7423 O   0  0  0  0  0  0
  -29.6205  -19.3915   21.2944 C   0  0  0  0  0  0
  -29.6793  -18.0096   20.8895 C   0  0  0  0  0  0
  -29.7208  -17.8548   19.5619 C   0  0  0  0  0  0
  -29.6574  -20.2688   20.2163 C   0  0  0  0  0  0
  -29.1022  -24.1437   20.3304 C   0  0  0  0  0  0
  -29.7433  -16.6428   21.5334 C   0  0  0  0  0  0
  -29.8169  -16.4356   19.1398 C   0  0  0  0  0  0
  -28.1130  -22.3303   21.9203 C   0  0  0  0  0  0
  -28.4702  -25.6502   22.3090 C   0  0  0  0  0  0
  -28.6773  -22.6199   20.5177 C   0  0  2  0  0  0
  -28.1763  -25.3059   20.8352 C   0  0  1  0  0  0
  -29.8603  -15.6565   20.4121 N   0  0  0  0  0  0
  -29.7774  -21.6795   20.1949 N   0  0  0  0  0  0
  -30.1724  -24.4295   19.7831 O   0  0  0  0  0  0
  -29.7192  -19.3688   18.6975 S   0  0  0  0  0  0
  -31.4677  -12.4268   19.1456 H   0  0  0  0  0  0
  -30.3144  -11.3374   19.8765 H   0  0  0  0  0  0
  -29.7493  -11.7349   17.4621 H   0  0  0  0  0  0
  -29.6620  -13.4567   17.7449 H   0  0  0  0  0  0
  -27.8402  -11.2937   18.8489 H   0  0  0  0  0  0
  -27.3657  -12.5918   17.7870 H   0  0  0  0  0  0
  -27.6629  -14.2485   19.5258 H   0  0  0  0  0  0
  -28.6855  -12.0567   21.3943 H   0  0  0  0  0  0
  -28.4714  -13.7377   21.8174 H   0  0  0  0  0  0
  -25.2742   -9.5696   22.4765 H   0  0  0  0  0  0
  -24.0018   -7.4610   22.7439 H   0  0  0  0  0  0
  -21.0827   -8.8747   19.8943 H   0  0  0  0  0  0
  -22.3652  -10.9676   19.6181 H   0  0  0  0  0  0
  -21.2005   -7.6142   23.9737 H   0  0  0  0  0  0
  -21.1498   -6.0507   25.9100 H   0  0  0  0  0  0
  -22.0593   -2.7599   23.2833 H   0  0  0  0  0  0
  -22.4047  -11.9945   22.4893 H   0  0  0  0  0  0
  -21.1085  -13.1341   22.2576 H   0  0  0  0  0  0
  -24.6624  -15.8418   20.5358 H   0  0  0  0  0  0
  -26.2923  -15.6364   20.1347 H   0  0  0  0  0  0
  -26.7123  -32.5495   23.1120 H   0  0  0  0  0  0
  -24.9983  -33.9745   25.0433 H   0  0  0  0  0  0
  -22.6983  -31.3046   21.4086 H   0  0  0  0  0  0
  -23.3737  -35.9637   23.3310 H   0  0  0  0  0  0
  -24.3564  -36.8917   22.2061 H   0  0  0  0  0  0
  -23.7213  -37.6511   23.6646 H   0  0  0  0  0  0
  -26.0598  -31.5839   20.5954 H   0  0  0  0  0  0
  -26.8304  -30.8711   21.9845 H   0  0  0  0  0  0
  -28.1142  -29.0587   21.1476 H   0  0  0  0  0  0
  -26.0226  -25.9415   19.0207 H   0  0  0  0  0  0
  -23.9643  -27.2917   19.0450 H   0  0  0  0  0  0
  -23.7175  -30.5895   19.4004 H   0  0  0  0  0  0
  -22.7406  -29.2353   19.8780 H   0  0  0  0  0  0
  -25.1281  -36.1976   25.0836 H   0  0  0  0  0  0
  -20.9972  -28.3216   24.1444 H   0  0  0  0  0  0
  -20.5663  -26.2258   23.3608 H   0  0  0  0  0  0
  -21.6628  -26.7414   22.1228 H   0  0  0  0  0  0
  -19.6869  -25.6304   21.1254 H   0  0  0  0  0  0
  -19.6698  -27.3198   20.6755 H   0  0  0  0  0  0
  -17.4188  -26.6709   21.4042 H   0  0  0  0  0  0
  -18.0310  -26.0094   22.9039 H   0  0  0  0  0  0
  -19.7944  -30.7281   24.2301 H   0  0  0  0  0  0
  -17.5013  -31.6286   24.5151 H   0  0  0  0  0  0
  -15.5361  -30.2992   23.7656 H   0  0  0  0  0  0
  -15.8666  -28.0835   22.7046 H   0  0  0  0  0  0
  -24.5826  -30.7140   25.7779 H   0  0  0  0  0  0
  -24.8921  -32.2864   26.4950 H   0  0  0  0  0  0
  -25.8028  -30.8816   27.0186 H   0  0  0  0  0  0
  -26.2835  -29.6803   24.1146 H   0  0  0  0  0  0
  -27.4092  -29.7276   25.4549 H   0  0  0  0  0  0
  -27.8659  -30.4380   23.9242 H   0  0  0  0  0  0
  -27.2697  -33.3636   26.2018 H   0  0  0  0  0  0
  -28.3805  -32.6844   25.0227 H   0  0  0  0  0  0
  -28.0707  -31.8409   26.5329 H   0  0  0  0  0  0
  -28.2592  -38.0101   24.7504 H   0  0  0  0  0  0
  -28.1090  -36.2621   24.6281 H   0  0  0  0  0  0
  -27.2291  -37.1448   25.8860 H   0  0  0  0  0  0
  -20.9322  -29.8713   21.6918 H   0  0  0  0  0  0
  -26.0191  -38.2870   24.1398 H   0  0  0  0  0  0
  -29.6059  -19.6854   22.3344 H   0  0  0  0  0  0
  -28.8380  -16.4366   22.1046 H   0  0  0  0  0  0
  -30.5919  -16.5684   22.2157 H   0  0  0  0  0  0
  -30.7054  -16.2845   18.5227 H   0  0  0  0  0  0
  -28.9467  -16.1432   18.5513 H   0  0  0  0  0  0
  -27.3050  -23.0112   22.1837 H   0  0  0  0  0  0
  -28.8843  -22.3979   22.6886 H   0  0  0  0  0  0
  -27.6799  -21.3321   21.9670 H   0  0  0  0  0  0
  -28.5731  -24.7719   22.9428 H   0  0  0  0  0  0
  -27.6739  -26.2619   22.7328 H   0  0  0  0  0  0
  -29.3998  -26.2129   22.3895 H   0  0  0  0  0  0
  -27.8750  -22.4312   19.8034 H   0  0  0  0  0  0
  -27.1535  -24.9388   20.7431 H   0  0  0  0  0  0
  -30.3731  -22.0565   19.4591 H   0  0  0  0  0  0
  1 25  1  0  0  0
  1 30  2  0  0  0
  1 82  1  0  0  0
  2  3  1  0  0  0
  2 25  1  0  0  0
  2 86  1  0  0  0
  2 87  1  0  0  0
  3  4  1  0  0  0
  3 88  1  0  0  0
  3 89  1  0  0  0
  4  5  1  0  0  0
  4 90  1  0  0  0
  4 91  1  0  0  0
  5  6  1  0  0  0
  5 26  1  0  0  0
  5 92  1  0  0  0
  6 25  1  0  0  0
  6 93  1  0  0  0
  6 94  1  0  0  0
  7  8  2  0  0  0
  7 26  1  0  0  0
  7 29  1  0  0  0
  8  9  1  0  0  0
  8 22  1  0  0  0
  9 10  1  0  0  0
  9 27  2  0  0  0
 10 11  2  0  0  0
 10 15  1  0  0  0
 11 12  1  0  0  0
 11 95  1  0  0  0
 12 13  2  0  0  0
 12 96  1  0  0  0
 13 14  1  0  0  0
 13 31  1  0  0  0
 14 15  2  0  0  0
 14 97  1  0  0  0
 15 98  1  0  0  0
 16 17  2  0  0  0
 16 21  1  0  0  0
 16 31  1  0  0  0
 17 18  1  0  0  0
 17 99  1  0  0  0
 18 19  2  0  0  0
 18100  1  0  0  0
 19 20  1  0  0  0
 19 24  1  0  0  0
 20 21  2  0  0  0
 20101  1  0  0  0
 21 23  1  0  0  0
 22 28  1  0  0  0
 22 32  2  0  0  0
 26 27  1  0  0  0
 28102  1  0  0  0
 28103  1  0  0  0
 29104  1  0  0  0
 29105  1  0  0  0
 33 34  1  0  0  0
 33 66  1  0  0  0
 33 70  2  0  0  0
 34 36  1  0  0  0
 34 59  1  0  0  0
 34106  1  0  0  0
 35 44  2  0  0  0
 35 45  1  0  0  0
 35 68  1  0  0  0
 36 56  1  0  0  0
 36107  1  0  0  0
 37 39  1  0  0  0
 37 47  1  0  0  0
 37 66  1  0  0  0
 37108  1  0  0  0
 38 43  2  0  0  0
 38 46  1  0  0  0
 38 47  1  0  0  0
 39 64  1  0  0  0
 39 67  2  0  0  0
 40 52  1  0  0  0
 40 53  2  0  0  0
 40 58  1  0  0  0
 41109  1  0  0  0
 41110  1  0  0  0
 41111  1  0  0  0
 41 48  1  0  0  0
 42 43  1  0  0  0
 42 66  1  0  0  0
 42112  1  0  0  0
 42113  1  0  0  0
 43 44  1  0  0  0
 44114  1  0  0  0
 45 46  2  0  0  0
 45115  1  0  0  0
 46116  1  0  0  0
 47117  1  0  0  0
 47118  1  0  0  0
 48 56  1  0  0  0
 48 65  1  0  0  0
 48119  1  0  0  0
 49 50  1  0  0  0
 49 53  1  0  0  0
 49 64  1  0  0  0
 49120  1  0  0  0
 50 51  1  0  0  0
 50121  1  0  0  0
 50122  1  0  0  0
 51 52  1  0  0  0
 51123  1  0  0  0
 51124  1  0  0  0
 52125  1  0  0  0
 52126  1  0  0  0
 53 54  1  0  0  0
 54 55  2  0  0  0
 54127  1  0  0  0
 55 57  1  0  0  0
 55128  1  0  0  0
 56 69  2  0  0  0
 57 58  2  0  0  0
 57129  1  0  0  0
 58130  1  0  0  0
 59 60  1  0  0  0
 59 61  1  0  0  0
 59 62  1  0  0  0
 60131  1  0  0  0
 60132  1  0  0  0
 60133  1  0  0  0
 61134  1  0  0  0
 61135  1  0  0  0
 61136  1  0  0  0
 62137  1  0  0  0
 62138  1  0  0  0
 62139  1  0  0  0
 63 65  1  0  0  0
 63140  1  0  0  0
 63141  1  0  0  0
 63142  1  0  0  0
 64143  1  0  0  0
 65144  1  0  0  0
 68 81  1  0  0  0
 71 72  1  0  0  0
 71 74  2  0  0  0
 71145  1  0  0  0
 72 73  2  0  0  0
 72 76  1  0  0  0
 73 77  1  0  0  0
 73 85  1  0  0  0
 74 83  1  0  0  0
 74 85  1  0  0  0
 75 80  1  0  0  0
 75 81  1  0  0  0
 75 84  2  0  0  0
 76 82  1  0  0  0
 76146  1  0  0  0
 76147  1  0  0  0
 77 82  1  0  0  0
 77148  1  0  0  0
 77149  1  0  0  0
 78150  1  0  0  0
 78151  1  0  0  0
 78152  1  0  0  0
 78 80  1  0  0  0
 79153  1  0  0  0
 79154  1  0  0  0
 79155  1  0  0  0
 79 81  1  0  0  0
 80 83  1  0  0  0
 80156  1  0  0  0
 81157  1  0  0  0
 83158  1  0  0  0
M  ISO  4   1 100  68 101  81 101  82 100
M  END
> <chiral flag>
0

> <version>
0

> <s_m_source_file>
/data/baiqing/PycharmProjects/Reinvent-master-3.2/result/LINK_invent/BTK/process_docking_weight1_custom_product_contain_oxygen_bond_distance_aromatic_linkinvent_7_9_3/rearranged_h_0144.sdf

> <i_m_source_file_index>
58

> <r_mmod_Potential_Energy-OPLS-2005>
232.301544189453

> <r_mmod_Stretch_Energy-OPLS-2005>
60.1141357421875

> <r_mmod_Bend_Energy-OPLS-2005>
179.501113891602

> <r_mmod_Torsional_Energy-OPLS-2005>
316.149536132812

> <r_mmod_Improper_Torsional_Energy-OPLS-2005>
20.1116981506348

> <r_mmod_Van_der_Waal_Energy-OPLS-2005>
113.895904541016

> <r_mmod_Electrostatic_Energy-OPLS-2005>
-266.755493164062

> <r_mmod_Solvation_Energy-OPLS-2005>
-221.453964233398

> <b_mmod_Minimization_Converged-OPLS-2005>
0

> <r_mmod_RMS_Derivative-OPLS-2005>
2.94138383865356

$$$$
58
                    3D
 Structure written by MMmdl.
159167  0  0  1  0            999 V2000
  -30.6849  -14.4452   20.6568 C   0  0  0  0  0  0
  -30.4288  -12.3190   19.4116 C   0  0  0  0  0  0
  -29.4972  -12.5471   18.2029 C   0  0  0  0  0  0
  -28.0201  -12.3829   18.6106 C   0  0  0  0  0  0
  -27.6680  -13.1979   19.8820 C   0  0  2  0  0  0
  -28.7017  -12.9310   20.9982 C   0  0  0  0  0  0
  -25.2622  -13.8132   20.5660 C   0  0  0  0  0  0
  -24.1847  -13.0427   20.9138 C   0  0  0  0  0  0
  -24.6373  -11.6888   20.8675 C   0  0  0  0  0  0
  -23.9018  -10.4286   21.0357 C   0  0  0  0  0  0
  -24.3580   -9.4222   21.9150 C   0  0  0  0  0  0
  -23.6276   -8.2252   22.0741 C   0  0  0  0  0  0
  -22.4262   -8.0263   21.3532 C   0  0  0  0  0  0
  -21.9870   -9.0223   20.4630 C   0  0  0  0  0  0
  -22.7178  -10.2113   20.3026 C   0  0  0  0  0  0
  -21.6855   -6.0715   22.5268 C   0  0  0  0  0  0
  -21.4014   -6.5624   23.8199 C   0  0  0  0  0  0
  -21.3670   -5.6780   24.9165 C   0  0  0  0  0  0
  -21.6050   -4.3045   24.7220 C   0  0  0  0  0  0
  -21.8823   -3.8129   23.4347 C   0  0  0  0  0  0
  -21.9198   -4.6941   22.3395 C   0  0  0  0  0  0
  -22.7881  -13.5242   21.1832 C   0  0  0  0  0  0
  -22.1665   -4.2124   21.0974 F   0  0  0  0  0  0
  -21.5636   -3.4532   25.7738 F   0  0  0  0  0  0
  -30.0450  -13.2560   20.4777 N   0  0  0  0  0  0
  -26.3046  -12.9275   20.3352 N   0  0  0  0  0  0
  -25.9301  -11.6440   20.5704 N   0  0  0  0  0  0
  -22.0532  -12.8216   22.0387 N   0  0  0  0  0  0
  -25.4386  -15.1842   20.4083 N   0  0  0  0  0  0
  -31.7043  -14.7690   20.0389 O   0  0  0  0  0  0
  -21.6641   -6.8854   21.4230 O   0  0  0  0  0  0
  -22.3571  -14.5565   20.6720 O   0  0  0  0  0  0
  -24.6104  -31.8693   23.2074 C   0  0  0  0  0  0
  -25.8996  -32.4837   23.8377 C   0  0  1  0  0  0
  -27.2435  -27.4400   20.1035 C   0  0  0  0  0  0
  -25.5847  -33.8627   24.2306 N   0  0  0  0  0  0
  -23.3992  -30.4858   21.5498 C   0  0  2  0  0  0
  -24.8488  -28.9441   20.1226 C   0  0  0  0  0  0
  -22.7393  -29.4641   22.5030 C   0  0  0  0  0  0
  -18.0265  -28.1358   22.8498 C   0  0  0  0  0  0
  -24.1476  -36.7300   23.2648 C   0  0  0  0  0  0
  -25.9253  -30.8366   21.3582 C   0  0  0  0  0  0
  -26.0069  -29.4676   20.7119 C   0  0  0  0  0  0
  -27.2079  -28.7254   20.6939 C   0  0  0  0  0  0
  -26.0727  -26.9262   19.5114 C   0  0  0  0  0  0
  -24.8756  -27.6716   19.5209 C   0  0  0  0  0  0
  -23.6078  -29.8090   20.1693 C   0  0  0  0  0  0
  -25.4099  -36.3112   24.0351 C   0  0  1  0  0  0
  -20.5846  -28.3617   23.1341 C   0  0  2  0  0  0
  -20.6737  -26.9359   22.5426 C   0  0  0  0  0  0
  -19.5713  -26.6370   21.5220 C   0  0  0  0  0  0
  -18.1899  -26.7903   22.1635 C   0  0  0  0  0  0
  -19.1513  -28.8808   23.2912 C   0  0  0  0  0  0
  -18.9463  -30.1423   23.8908 C   0  0  0  0  0  0
  -17.6469  -30.6583   24.0548 C   0  0  0  0  0  0
  -25.9026  -34.9486   23.5135 C   0  0  0  0  0  0
  -16.5349  -29.9093   23.6315 C   0  0  0  0  0  0
  -16.7257  -28.6495   23.0357 C   0  0  0  0  0  0
  -26.4419  -31.6611   25.0698 C   0  0  0  0  0  0
  -25.3689  -31.3731   26.1449 C   0  0  0  0  0  0
  -27.0229  -30.3063   24.6042 C   0  0  0  0  0  0
  -27.5990  -32.4341   25.7471 C   0  0  0  0  0  0
  -27.5575  -37.1797   24.8475 C   0  0  0  0  0  0
  -21.4126  -29.2989   22.3765 N   0  0  0  0  0  0
  -26.4285  -37.3801   23.9420 N   0  0  0  0  0  0
  -24.6632  -31.0778   22.0984 N   0  0  0  0  0  0
  -23.4177  -28.8202   23.3067 O   0  0  0  0  0  0
  -28.4207  -26.7250   20.0318 O   0  0  0  0  0  0
  -26.5615  -34.8940   22.4715 O   0  0  0  0  0  0
  -23.5300  -32.1458   23.7471 O   0  0  0  0  0  0
  -30.0007  -17.5307   20.6350 C   0  0  0  0  0  0
  -28.1575  -18.9615   21.3512 C   0  0  0  0  0  0
  -28.4453  -16.7536   22.3408 C   0  0  0  0  0  0
  -29.3109  -18.7767   20.5552 C   0  0  0  0  0  0
  -29.5618  -16.5034   21.5136 C   0  0  0  0  0  0
  -27.7463  -17.9708   22.2574 C   0  0  0  0  0  0
  -29.7013  -19.7915   19.4983 C   0  0  0  0  0  0
  -29.5180  -21.9515   20.7249 C   0  0  0  0  0  0
  -28.2638  -26.2721   22.4926 C   0  0  0  0  0  0
  -29.6818  -23.4646   20.4561 C   0  0  0  0  0  0
  -28.4416  -24.3386   20.8046 C   0  0  0  0  0  0
  -28.7701  -25.8310   21.1071 C   0  0  1  0  0  0
  -30.1589  -15.2086   21.6316 N   0  0  0  0  0  0
  -29.6835  -21.1353   19.6652 N   0  0  0  0  0  0
  -30.0671  -19.3487   18.4065 O   0  0  0  0  0  0
  -29.3067  -21.5819   21.8815 O   0  0  0  0  0  0
  -26.6569  -18.1780   23.0352 F   0  0  0  0  0  0
  -31.4751  -12.4318   19.1216 H   0  0  0  0  0  0
  -30.3298  -11.2935   19.7727 H   0  0  0  0  0  0
  -29.7432  -11.8519   17.3992 H   0  0  0  0  0  0
  -29.6556  -13.5482   17.7987 H   0  0  0  0  0  0
  -27.8377  -11.3216   18.7867 H   0  0  0  0  0  0
  -27.3658  -12.6708   17.7859 H   0  0  0  0  0  0
  -27.7260  -14.2540   19.6168 H   0  0  0  0  0  0
  -28.6768  -11.8807   21.2928 H   0  0  0  0  0  0
  -28.4305  -13.4777   21.9012 H   0  0  0  0  0  0
  -25.2732   -9.5720   22.4705 H   0  0  0  0  0  0
  -23.9995   -7.4654   22.7466 H   0  0  0  0  0  0
  -21.0803   -8.8716   19.8938 H   0  0  0  0  0  0
  -22.3616  -10.9637   19.6127 H   0  0  0  0  0  0
  -21.2003   -7.6132   23.9692 H   0  0  0  0  0  0
  -21.1493   -6.0514   25.9066 H   0  0  0  0  0  0
  -22.0597   -2.7591   23.2848 H   0  0  0  0  0  0
  -22.4161  -11.9864   22.4734 H   0  0  0  0  0  0
  -21.1146  -13.1227   22.2608 H   0  0  0  0  0  0
  -24.6779  -15.8450   20.5205 H   0  0  0  0  0  0
  -26.3023  -15.6187   20.1097 H   0  0  0  0  0  0
  -26.7051  -32.5556   23.1131 H   0  0  0  0  0  0
  -24.9909  -33.9775   25.0393 H   0  0  0  0  0  0
  -22.6867  -31.3004   21.4064 H   0  0  0  0  0  0
  -23.3742  -35.9625   23.3336 H   0  0  0  0  0  0
  -24.3562  -36.8896   22.2054 H   0  0  0  0  0  0
  -23.7227  -37.6515   23.6646 H   0  0  0  0  0  0
  -26.0303  -31.6007   20.5858 H   0  0  0  0  0  0
  -26.8146  -30.8959   21.9734 H   0  0  0  0  0  0
  -28.1074  -29.1351   21.1312 H   0  0  0  0  0  0
  -26.0889  -25.9558   19.0357 H   0  0  0  0  0  0
  -23.9849  -27.2609   19.0642 H   0  0  0  0  0  0
  -23.7098  -30.5810   19.4056 H   0  0  0  0  0  0
  -22.7336  -29.2233   19.8789 H   0  0  0  0  0  0
  -25.1282  -36.1971   25.0847 H   0  0  0  0  0  0
  -20.9920  -28.3165   24.1461 H   0  0  0  0  0  0
  -20.5616  -26.2231   23.3613 H   0  0  0  0  0  0
  -21.6618  -26.7388   22.1227 H   0  0  0  0  0  0
  -19.6869  -25.6292   21.1236 H   0  0  0  0  0  0
  -19.6653  -27.3181   20.6753 H   0  0  0  0  0  0
  -17.4165  -26.6652   21.4045 H   0  0  0  0  0  0
  -18.0286  -26.0047   22.9035 H   0  0  0  0  0  0
  -19.7951  -30.7220   24.2284 H   0  0  0  0  0  0
  -17.5039  -31.6273   24.5136 H   0  0  0  0  0  0
  -15.5351  -30.3005   23.7637 H   0  0  0  0  0  0
  -15.8648  -28.0827   22.7061 H   0  0  0  0  0  0
  -24.5838  -30.7103   25.7792 H   0  0  0  0  0  0
  -24.8878  -32.2893   26.4897 H   0  0  0  0  0  0
  -25.8032  -30.8896   27.0212 H   0  0  0  0  0  0
  -26.2751  -29.6850   24.1092 H   0  0  0  0  0  0
  -27.4013  -29.7266   25.4468 H   0  0  0  0  0  0
  -27.8589  -30.4404   23.9168 H   0  0  0  0  0  0
  -27.2587  -33.3630   26.2067 H   0  0  0  0  0  0
  -28.3784  -32.6947   25.0295 H   0  0  0  0  0  0
  -28.0675  -31.8468   26.5378 H   0  0  0  0  0  0
  -28.2615  -38.0074   24.7508 H   0  0  0  0  0  0
  -28.1054  -36.2610   24.6315 H   0  0  0  0  0  0
  -27.2296  -37.1466   25.8883 H   0  0  0  0  0  0
  -20.9287  -29.8701   21.6989 H   0  0  0  0  0  0
  -26.0181  -38.2888   24.1426 H   0  0  0  0  0  0
  -30.8531  -17.3597   19.9910 H   0  0  0  0  0  0
  -27.5688  -19.8642   21.2740 H   0  0  0  0  0  0
  -28.0868  -16.0021   23.0297 H   0  0  0  0  0  0
  -28.6638  -25.6222   23.2723 H   0  0  0  0  0  0
  -27.1754  -26.2374   22.5591 H   0  0  0  0  0  0
  -28.5909  -27.2861   22.7239 H   0  0  0  0  0  0
  -29.9998  -23.6509   19.4296 H   0  0  0  0  0  0
  -30.5220  -23.7746   21.0781 H   0  0  0  0  0  0
  -27.7086  -24.2788   19.9991 H   0  0  0  0  0  0
  -27.9461  -23.9031   21.6730 H   0  0  0  0  0  0
  -29.8537  -25.9292   21.1677 H   0  0  0  0  0  0
  -29.6717  -14.6244   22.2942 H   0  0  0  0  0  0
  -29.9030  -21.6251   18.8137 H   0  0  0  0  0  0
  1 25  1  0  0  0
  1 30  2  0  0  0
  1 83  1  0  0  0
  2  3  1  0  0  0
  2 25  1  0  0  0
  2 88  1  0  0  0
  2 89  1  0  0  0
  3  4  1  0  0  0
  3 90  1  0  0  0
  3 91  1  0  0  0
  4  5  1  0  0  0
  4 92  1  0  0  0
  4 93  1  0  0  0
  5  6  1  0  0  0
  5 26  1  0  0  0
  5 94  1  0  0  0
  6 25  1  0  0  0
  6 95  1  0  0  0
  6 96  1  0  0  0
  7  8  2  0  0  0
  7 26  1  0  0  0
  7 29  1  0  0  0
  8  9  1  0  0  0
  8 22  1  0  0  0
  9 10  1  0  0  0
  9 27  2  0  0  0
 10 11  2  0  0  0
 10 15  1  0  0  0
 11 12  1  0  0  0
 11 97  1  0  0  0
 12 13  2  0  0  0
 12 98  1  0  0  0
 13 14  1  0  0  0
 13 31  1  0  0  0
 14 15  2  0  0  0
 14 99  1  0  0  0
 15100  1  0  0  0
 16 17  2  0  0  0
 16 21  1  0  0  0
 16 31  1  0  0  0
 17 18  1  0  0  0
 17101  1  0  0  0
 18 19  2  0  0  0
 18102  1  0  0  0
 19 20  1  0  0  0
 19 24  1  0  0  0
 20 21  2  0  0  0
 20103  1  0  0  0
 21 23  1  0  0  0
 22 28  1  0  0  0
 22 32  2  0  0  0
 26 27  1  0  0  0
 28104  1  0  0  0
 28105  1  0  0  0
 29106  1  0  0  0
 29107  1  0  0  0
 33 34  1  0  0  0
 33 66  1  0  0  0
 33 70  2  0  0  0
 34 36  1  0  0  0
 34 59  1  0  0  0
 34108  1  0  0  0
 35 44  2  0  0  0
 35 45  1  0  0  0
 35 68  1  0  0  0
 36 56  1  0  0  0
 36109  1  0  0  0
 37 39  1  0  0  0
 37 47  1  0  0  0
 37 66  1  0  0  0
 37110  1  0  0  0
 38 43  2  0  0  0
 38 46  1  0  0  0
 38 47  1  0  0  0
 39 64  1  0  0  0
 39 67  2  0  0  0
 40 52  1  0  0  0
 40 53  2  0  0  0
 40 58  1  0  0  0
 41111  1  0  0  0
 41112  1  0  0  0
 41113  1  0  0  0
 41 48  1  0  0  0
 42 43  1  0  0  0
 42 66  1  0  0  0
 42114  1  0  0  0
 42115  1  0  0  0
 43 44  1  0  0  0
 44116  1  0  0  0
 45 46  2  0  0  0
 45117  1  0  0  0
 46118  1  0  0  0
 47119  1  0  0  0
 47120  1  0  0  0
 48 56  1  0  0  0
 48 65  1  0  0  0
 48121  1  0  0  0
 49 50  1  0  0  0
 49 53  1  0  0  0
 49 64  1  0  0  0
 49122  1  0  0  0
 50 51  1  0  0  0
 50123  1  0  0  0
 50124  1  0  0  0
 51 52  1  0  0  0
 51125  1  0  0  0
 51126  1  0  0  0
 52127  1  0  0  0
 52128  1  0  0  0
 53 54  1  0  0  0
 54 55  2  0  0  0
 54129  1  0  0  0
 55 57  1  0  0  0
 55130  1  0  0  0
 56 69  2  0  0  0
 57 58  2  0  0  0
 57131  1  0  0  0
 58132  1  0  0  0
 59 60  1  0  0  0
 59 61  1  0  0  0
 59 62  1  0  0  0
 60133  1  0  0  0
 60134  1  0  0  0
 60135  1  0  0  0
 61136  1  0  0  0
 61137  1  0  0  0
 61138  1  0  0  0
 62139  1  0  0  0
 62140  1  0  0  0
 62141  1  0  0  0
 63 65  1  0  0  0
 63142  1  0  0  0
 63143  1  0  0  0
 63144  1  0  0  0
 64145  1  0  0  0
 65146  1  0  0  0
 68 82  1  0  0  0
 71 74  2  0  0  0
 71 75  1  0  0  0
 71147  1  0  0  0
 72 74  1  0  0  0
 72 76  2  0  0  0
 72148  1  0  0  0
 73 75  2  0  0  0
 73 76  1  0  0  0
 73149  1  0  0  0
 74 77  1  0  0  0
 75 83  1  0  0  0
 76 87  1  0  0  0
 77 84  1  0  0  0
 77 85  2  0  0  0
 78 80  1  0  0  0
 78 84  1  0  0  0
 78 86  2  0  0  0
 79150  1  0  0  0
 79151  1  0  0  0
 79152  1  0  0  0
 79 82  1  0  0  0
 80 81  1  0  0  0
 80153  1  0  0  0
 80154  1  0  0  0
 81 82  1  0  0  0
 81155  1  0  0  0
 81156  1  0  0  0
 82157  1  0  0  0
 83158  1  0  0  0
 84159  1  0  0  0
M  ISO  4   1 100  68 101  82 101  83 100
M  END
> <chiral flag>
0

> <version>
0

> <s_m_source_file>
/data/baiqing/PycharmProjects/Reinvent-master-3.2/result/LINK_invent/BTK/process_docking_weight1_custom_product_contain_oxygen_bond_distance_aromatic_linkinvent_7_9_3/rearranged_h_0144.sdf

> <i_m_source_file_index>
59

> <r_mmod_Potential_Energy-OPLS-2005>
-190.290161132812

> <r_mmod_Stretch_Energy-OPLS-2005>
40.4410247802734

> <r_mmod_Bend_Energy-OPLS-2005>
142.930450439453

> <r_mmod_Torsional_Energy-OPLS-2005>
280.001007080078

> <r_mmod_Improper_Torsional_Energy-OPLS-2005>
6.95150756835938

> <r_mmod_Van_der_Waal_Energy-OPLS-2005>
148.660339355469

> <r_mmod_Electrostatic_Energy-OPLS-2005>
-582.204345703125

> <r_mmod_Solvation_Energy-OPLS-2005>
-237.916000366211

> <b_mmod_Minimization_Converged-OPLS-2005>
0

> <r_mmod_RMS_Derivative-OPLS-2005>
2.34197807312012

$$$$
59
                    3D
 Structure written by MMmdl.
168177  0  0  1  0            999 V2000
  -30.6804  -14.5047   20.5843 C   0  0  0  0  0  0
  -30.4358  -12.3324   19.4262 C   0  0  0  0  0  0
  -29.5020  -12.5210   18.2115 C   0  0  0  0  0  0
  -28.0237  -12.3709   18.6229 C   0  0  0  0  0  0
  -27.6646  -13.2077   19.8805 C   0  0  2  0  0  0
  -28.7074  -12.9842   20.9991 C   0  0  0  0  0  0
  -25.2584  -13.8148   20.5670 C   0  0  0  0  0  0
  -24.1828  -13.0418   20.9119 C   0  0  0  0  0  0
  -24.6395  -11.6892   20.8700 C   0  0  0  0  0  0
  -23.9053  -10.4284   21.0383 C   0  0  0  0  0  0
  -24.3604   -9.4209   21.9178 C   0  0  0  0  0  0
  -23.6280   -8.2244   22.0754 C   0  0  0  0  0  0
  -22.4261   -8.0278   21.3541 C   0  0  0  0  0  0
  -21.9887   -9.0247   20.4642 C   0  0  0  0  0  0
  -22.7218  -10.2129   20.3046 C   0  0  0  0  0  0
  -21.6854   -6.0721   22.5273 C   0  0  0  0  0  0
  -21.4017   -6.5630   23.8205 C   0  0  0  0  0  0
  -21.3655   -5.6783   24.9164 C   0  0  0  0  0  0
  -21.6043   -4.3044   24.7219 C   0  0  0  0  0  0
  -21.8828   -3.8134   23.4345 C   0  0  0  0  0  0
  -21.9201   -4.6950   22.3398 C   0  0  0  0  0  0
  -22.7855  -13.5226   21.1802 C   0  0  0  0  0  0
  -22.1668   -4.2138   21.0975 F   0  0  0  0  0  0
  -21.5627   -3.4530   25.7734 F   0  0  0  0  0  0
  -30.0383  -13.3092   20.4525 N   0  0  0  0  0  0
  -26.3046  -12.9329   20.3399 N   0  0  0  0  0  0
  -25.9339  -11.6485   20.5772 N   0  0  0  0  0  0
  -22.0489  -12.8249   22.0376 N   0  0  0  0  0  0
  -25.4274  -15.1870   20.4175 N   0  0  0  0  0  0
  -31.8003  -14.7151   20.1086 O   0  0  0  0  0  0
  -21.6636   -6.8867   21.4235 O   0  0  0  0  0  0
  -22.3547  -14.5539   20.6662 O   0  0  0  0  0  0
  -24.6175  -31.8673   23.2094 C   0  0  0  0  0  0
  -25.9055  -32.4825   23.8406 C   0  0  1  0  0  0
  -27.2393  -27.4087   20.1037 C   0  0  0  0  0  0
  -25.5906  -33.8621   24.2341 N   0  0  0  0  0  0
  -23.4075  -30.4927   21.5483 C   0  0  2  0  0  0
  -24.8551  -28.9580   20.1134 C   0  0  0  0  0  0
  -22.7431  -29.4657   22.4939 C   0  0  0  0  0  0
  -18.0289  -28.1380   22.8480 C   0  0  0  0  0  0
  -24.1480  -36.7317   23.2634 C   0  0  0  0  0  0
  -25.9391  -30.8270   21.3653 C   0  0  0  0  0  0
  -26.0163  -29.4585   20.7138 C   0  0  0  0  0  0
  -27.2084  -28.6921   20.7059 C   0  0  0  0  0  0
  -26.0532  -26.9356   19.4892 C   0  0  0  0  0  0
  -24.8697  -27.6962   19.4981 C   0  0  0  0  0  0
  -23.6215  -29.8322   20.1604 C   0  0  0  0  0  0
  -25.4092  -36.3108   24.0343 C   0  0  1  0  0  0
  -20.5881  -28.3675   23.1283 C   0  0  2  0  0  0
  -20.6774  -26.9406   22.5402 C   0  0  0  0  0  0
  -19.5757  -26.6383   21.5194 C   0  0  0  0  0  0
  -18.1937  -26.7922   22.1617 C   0  0  0  0  0  0
  -19.1538  -28.8840   23.2889 C   0  0  0  0  0  0
  -18.9468  -30.1431   23.8930 C   0  0  0  0  0  0
  -17.6472  -30.6575   24.0579 C   0  0  0  0  0  0
  -25.9027  -34.9476   23.5136 C   0  0  0  0  0  0
  -16.5362  -29.9093   23.6312 C   0  0  0  0  0  0
  -16.7277  -28.6507   23.0332 C   0  0  0  0  0  0
  -26.4469  -31.6601   25.0735 C   0  0  0  0  0  0
  -25.3739  -31.3722   26.1492 C   0  0  0  0  0  0
  -27.0277  -30.3041   24.6095 C   0  0  0  0  0  0
  -27.6064  -32.4298   25.7494 C   0  0  0  0  0  0
  -27.5578  -37.1808   24.8456 C   0  0  0  0  0  0
  -21.4154  -29.3038   22.3678 N   0  0  0  0  0  0
  -26.4273  -37.3798   23.9425 N   0  0  0  0  0  0
  -24.6731  -31.0763   22.1001 N   0  0  0  0  0  0
  -23.4187  -28.8190   23.2987 O   0  0  0  0  0  0
  -28.4070  -26.6562   20.1425 O   0  0  0  0  0  0
  -26.5587  -34.8925   22.4697 O   0  0  0  0  0  0
  -23.5362  -32.1429   23.7477 O   0  0  0  0  0  0
  -31.2613  -17.6240   21.0562 C   0  0  0  0  0  0
  -28.8766  -19.0426   21.1971 C   0  0  0  0  0  0
  -31.2789  -19.0489   21.0712 C   0  0  0  0  0  0
  -30.0638  -19.8237   21.1185 C   0  0  0  0  0  0
  -30.0553  -16.8976   21.1163 C   0  0  0  0  0  0
  -28.8631  -17.6322   21.1960 C   0  0  0  0  0  0
  -32.6371  -19.6543   21.0728 C   0  0  0  0  0  0
  -30.8005  -22.0675   20.2562 C   0  0  0  0  0  0
  -28.7478  -21.9684   20.7868 C   0  0  0  0  0  0
  -29.5562  -22.8888   19.8394 C   0  0  0  0  0  0
  -33.5055  -19.3660   19.8665 C   0  0  0  0  0  0
  -30.2406  -23.3298   17.3802 C   0  0  0  0  0  0
  -29.2104  -22.7205   18.3461 C   0  0  0  0  0  0
  -29.5844  -24.4195   20.1893 C   0  0  0  0  0  0
  -28.3140  -25.2484   19.8275 C   0  0  0  0  0  0
  -33.0821  -20.3788   22.0109 N   0  0  0  0  0  0
  -29.9810  -21.2784   21.1684 N   0  0  0  0  0  0
  -29.9473  -15.4693   21.1776 N   0  0  0  0  0  0
  -27.6837  -16.9689   21.2756 F   0  0  0  0  0  0
  -31.4778  -12.4506   19.1242 H   0  0  0  0  0  0
  -30.3528  -11.3189   19.8227 H   0  0  0  0  0  0
  -29.7491  -11.8000   17.4310 H   0  0  0  0  0  0
  -29.6637  -13.5090   17.7754 H   0  0  0  0  0  0
  -27.8407  -11.3138   18.8190 H   0  0  0  0  0  0
  -27.3726  -12.6426   17.7923 H   0  0  0  0  0  0
  -27.7057  -14.2568   19.5870 H   0  0  0  0  0  0
  -28.6927  -11.9437   21.3269 H   0  0  0  0  0  0
  -28.4580  -13.5665   21.8874 H   0  0  0  0  0  0
  -25.2750   -9.5690   22.4751 H   0  0  0  0  0  0
  -23.9984   -7.4643   22.7483 H   0  0  0  0  0  0
  -21.0810   -8.8768   19.8956 H   0  0  0  0  0  0
  -22.3673  -10.9666   19.6151 H   0  0  0  0  0  0
  -21.2010   -7.6140   23.9707 H   0  0  0  0  0  0
  -21.1460   -6.0507   25.9067 H   0  0  0  0  0  0
  -22.0613   -2.7595   23.2850 H   0  0  0  0  0  0
  -22.4082  -11.9916   22.4797 H   0  0  0  0  0  0
  -21.1124  -13.1328   22.2580 H   0  0  0  0  0  0
  -24.6615  -15.8375   20.5519 H   0  0  0  0  0  0
  -26.3186  -15.6531   20.2923 H   0  0  0  0  0  0
  -26.7132  -32.5536   23.1179 H   0  0  0  0  0  0
  -25.0065  -33.9786   25.0493 H   0  0  0  0  0  0
  -22.6974  -31.3105   21.4105 H   0  0  0  0  0  0
  -23.3740  -35.9651   23.3276 H   0  0  0  0  0  0
  -24.3587  -36.8954   22.2055 H   0  0  0  0  0  0
  -23.7225  -37.6514   23.6660 H   0  0  0  0  0  0
  -26.0494  -31.5900   20.5931 H   0  0  0  0  0  0
  -26.8276  -30.8865   21.9816 H   0  0  0  0  0  0
  -28.1015  -29.0746   21.1802 H   0  0  0  0  0  0
  -26.0156  -25.9763   18.9953 H   0  0  0  0  0  0
  -23.9780  -27.3053   19.0267 H   0  0  0  0  0  0
  -23.7477  -30.6143   19.4109 H   0  0  0  0  0  0
  -22.7421  -29.2667   19.8480 H   0  0  0  0  0  0
  -25.1258  -36.1972   25.0835 H   0  0  0  0  0  0
  -20.9986  -28.3257   24.1399 H   0  0  0  0  0  0
  -20.5648  -26.2293   23.3596 H   0  0  0  0  0  0
  -21.6653  -26.7425   22.1220 H   0  0  0  0  0  0
  -19.6919  -25.6298   21.1210 H   0  0  0  0  0  0
  -19.6679  -27.3198   20.6726 H   0  0  0  0  0  0
  -17.4191  -26.6645   21.4036 H   0  0  0  0  0  0
  -18.0364  -26.0067   22.9021 H   0  0  0  0  0  0
  -19.7944  -30.7228   24.2330 H   0  0  0  0  0  0
  -17.5029  -31.6247   24.5197 H   0  0  0  0  0  0
  -15.5367  -30.3014   23.7604 H   0  0  0  0  0  0
  -15.8678  -28.0834   22.7034 H   0  0  0  0  0  0
  -24.5882  -30.7102   25.7833 H   0  0  0  0  0  0
  -24.8968  -32.2889   26.4975 H   0  0  0  0  0  0
  -25.8090  -30.8858   27.0231 H   0  0  0  0  0  0
  -26.2803  -29.6819   24.1156 H   0  0  0  0  0  0
  -27.4056  -29.7262   25.4537 H   0  0  0  0  0  0
  -27.8640  -30.4361   23.9227 H   0  0  0  0  0  0
  -27.2714  -33.3605   26.2086 H   0  0  0  0  0  0
  -28.3876  -32.6836   25.0318 H   0  0  0  0  0  0
  -28.0717  -31.8397   26.5401 H   0  0  0  0  0  0
  -28.2571  -38.0131   24.7543 H   0  0  0  0  0  0
  -28.1096  -36.2668   24.6212 H   0  0  0  0  0  0
  -27.2316  -37.1379   25.8863 H   0  0  0  0  0  0
  -20.9307  -29.8783   21.6924 H   0  0  0  0  0  0
  -26.0156  -38.2864   24.1464 H   0  0  0  0  0  0
  -32.1990  -17.0868   21.0365 H   0  0  0  0  0  0
  -27.9147  -19.5220   21.2847 H   0  0  0  0  0  0
  -31.5651  -22.6527   20.7692 H   0  0  0  0  0  0
  -31.2259  -21.4842   19.4377 H   0  0  0  0  0  0
  -28.0134  -21.3678   20.2495 H   0  0  0  0  0  0
  -28.2926  -22.4948   21.6276 H   0  0  0  0  0  0
  -32.8936  -19.0818   19.0093 H   0  0  0  0  0  0
  -34.1957  -18.5507   20.0823 H   0  0  0  0  0  0
  -34.0860  -20.2458   19.5893 H   0  0  0  0  0  0
  -29.9901  -23.0842   16.3485 H   0  0  0  0  0  0
  -31.2449  -22.9506   17.5702 H   0  0  0  0  0  0
  -30.2743  -24.4160   17.4547 H   0  0  0  0  0  0
  -28.2162  -23.1050   18.1209 H   0  0  0  0  0  0
  -29.1368  -21.6560   18.1178 H   0  0  0  0  0  0
  -30.4487  -24.8885   19.7198 H   0  0  0  0  0  0
  -29.7611  -24.5346   21.2590 H   0  0  0  0  0  0
  -27.4634  -24.8038   20.3458 H   0  0  0  0  0  0
  -28.1222  -25.1817   18.7578 H   0  0  0  0  0  0
  -32.3878  -20.5015   22.7415 H   0  0  0  0  0  0
  -29.0450  -15.1462   21.4928 H   0  0  0  0  0  0
  1 25  1  0  0  0
  1 30  2  0  0  0
  1 88  1  0  0  0
  2  3  1  0  0  0
  2 25  1  0  0  0
  2 90  1  0  0  0
  2 91  1  0  0  0
  3  4  1  0  0  0
  3 92  1  0  0  0
  3 93  1  0  0  0
  4  5  1  0  0  0
  4 94  1  0  0  0
  4 95  1  0  0  0
  5  6  1  0  0  0
  5 26  1  0  0  0
  5 96  1  0  0  0
  6 25  1  0  0  0
  6 97  1  0  0  0
  6 98  1  0  0  0
  7  8  2  0  0  0
  7 26  1  0  0  0
  7 29  1  0  0  0
  8  9  1  0  0  0
  8 22  1  0  0  0
  9 10  1  0  0  0
  9 27  2  0  0  0
 10 11  2  0  0  0
 10 15  1  0  0  0
 11 12  1  0  0  0
 11 99  1  0  0  0
 12 13  2  0  0  0
 12100  1  0  0  0
 13 14  1  0  0  0
 13 31  1  0  0  0
 14 15  2  0  0  0
 14101  1  0  0  0
 15102  1  0  0  0
 16 17  2  0  0  0
 16 21  1  0  0  0
 16 31  1  0  0  0
 17 18  1  0  0  0
 17103  1  0  0  0
 18 19  2  0  0  0
 18104  1  0  0  0
 19 20  1  0  0  0
 19 24  1  0  0  0
 20 21  2  0  0  0
 20105  1  0  0  0
 21 23  1  0  0  0
 22 28  1  0  0  0
 22 32  2  0  0  0
 26 27  1  0  0  0
 28106  1  0  0  0
 28107  1  0  0  0
 29108  1  0  0  0
 29109  1  0  0  0
 33 34  1  0  0  0
 33 66  1  0  0  0
 33 70  2  0  0  0
 34 36  1  0  0  0
 34 59  1  0  0  0
 34110  1  0  0  0
 35 44  2  0  0  0
 35 45  1  0  0  0
 35 68  1  0  0  0
 36 56  1  0  0  0
 36111  1  0  0  0
 37 39  1  0  0  0
 37 47  1  0  0  0
 37 66  1  0  0  0
 37112  1  0  0  0
 38 43  2  0  0  0
 38 46  1  0  0  0
 38 47  1  0  0  0
 39 64  1  0  0  0
 39 67  2  0  0  0
 40 52  1  0  0  0
 40 53  2  0  0  0
 40 58  1  0  0  0
 41113  1  0  0  0
 41114  1  0  0  0
 41115  1  0  0  0
 41 48  1  0  0  0
 42 43  1  0  0  0
 42 66  1  0  0  0
 42116  1  0  0  0
 42117  1  0  0  0
 43 44  1  0  0  0
 44118  1  0  0  0
 45 46  2  0  0  0
 45119  1  0  0  0
 46120  1  0  0  0
 47121  1  0  0  0
 47122  1  0  0  0
 48 56  1  0  0  0
 48 65  1  0  0  0
 48123  1  0  0  0
 49 50  1  0  0  0
 49 53  1  0  0  0
 49 64  1  0  0  0
 49124  1  0  0  0
 50 51  1  0  0  0
 50125  1  0  0  0
 50126  1  0  0  0
 51 52  1  0  0  0
 51127  1  0  0  0
 51128  1  0  0  0
 52129  1  0  0  0
 52130  1  0  0  0
 53 54  1  0  0  0
 54 55  2  0  0  0
 54131  1  0  0  0
 55 57  1  0  0  0
 55132  1  0  0  0
 56 69  2  0  0  0
 57 58  2  0  0  0
 57133  1  0  0  0
 58134  1  0  0  0
 59 60  1  0  0  0
 59 61  1  0  0  0
 59 62  1  0  0  0
 60135  1  0  0  0
 60136  1  0  0  0
 60137  1  0  0  0
 61138  1  0  0  0
 61139  1  0  0  0
 61140  1  0  0  0
 62141  1  0  0  0
 62142  1  0  0  0
 62143  1  0  0  0
 63 65  1  0  0  0
 63144  1  0  0  0
 63145  1  0  0  0
 63146  1  0  0  0
 64147  1  0  0  0
 65148  1  0  0  0
 68 85  1  0  0  0
 71 73  2  0  0  0
 71 75  1  0  0  0
 71149  1  0  0  0
 72 74  2  0  0  0
 72 76  1  0  0  0
 72150  1  0  0  0
 73 74  1  0  0  0
 73 77  1  0  0  0
 74 87  1  0  0  0
 75 76  2  0  0  0
 75 88  1  0  0  0
 76 89  1  0  0  0
 77 81  1  0  0  0
 77 86  2  0  0  0
 78 80  1  0  0  0
 78 87  1  0  0  0
 78151  1  0  0  0
 78152  1  0  0  0
 79 80  1  0  0  0
 79 87  1  0  0  0
 79153  1  0  0  0
 79154  1  0  0  0
 80 83  1  0  0  0
 80 84  1  0  0  0
 81155  1  0  0  0
 81156  1  0  0  0
 81157  1  0  0  0
 82 83  1  0  0  0
 82158  1  0  0  0
 82159  1  0  0  0
 82160  1  0  0  0
 83161  1  0  0  0
 83162  1  0  0  0
 84 85  1  0  0  0
 84163  1  0  0  0
 84164  1  0  0  0
 85165  1  0  0  0
 85166  1  0  0  0
 86167  1  0  0  0
 88168  1  0  0  0
M  ISO  4   1 100  68 101  85 101  88 100
M  END
> <chiral flag>
0

> <version>
0

> <s_m_source_file>
/data/baiqing/PycharmProjects/Reinvent-master-3.2/result/LINK_invent/BTK/process_docking_weight1_custom_product_contain_oxygen_bond_distance_aromatic_linkinvent_7_9_3/rearranged_h_0144.sdf

> <i_m_source_file_index>
60

> <r_mmod_Potential_Energy-OPLS-2005>
78.2785797119141

> <r_mmod_Stretch_Energy-OPLS-2005>
52.2597389221191

> <r_mmod_Bend_Energy-OPLS-2005>
152.268142700195

> <r_mmod_Torsional_Energy-OPLS-2005>
297.602661132812

> <r_mmod_Improper_Torsional_Energy-OPLS-2005>
10.9937410354614

> <r_mmod_Van_der_Waal_Energy-OPLS-2005>
162.198150634766

> <r_mmod_Electrostatic_Energy-OPLS-2005>
-394.340698242188

> <r_mmod_Solvation_Energy-OPLS-2005>
-219.5009765625

> <b_mmod_Minimization_Converged-OPLS-2005>
0

> <r_mmod_RMS_Derivative-OPLS-2005>
1.5033141374588

$$$$
60
                    3D
 Structure written by MMmdl.
154163  0  0  1  0            999 V2000
  -30.5744  -14.8372   20.4368 C   0  0  0  0  0  0
  -30.4328  -12.5095   19.4944 C   0  0  0  0  0  0
  -29.5122  -12.5306   18.2516 C   0  0  0  0  0  0
  -28.0407  -12.3377   18.6609 C   0  0  0  0  0  0
  -27.6377  -13.2434   19.8546 C   0  0  2  0  0  0
  -28.6814  -13.2066   20.9949 C   0  0  0  0  0  0
  -25.2467  -13.8224   20.5700 C   0  0  0  0  0  0
  -24.1778  -13.0448   20.9215 C   0  0  0  0  0  0
  -24.6393  -11.6932   20.8763 C   0  0  0  0  0  0
  -23.9080  -10.4301   21.0418 C   0  0  0  0  0  0
  -24.3634   -9.4210   21.9185 C   0  0  0  0  0  0
  -23.6302   -8.2243   22.0753 C   0  0  0  0  0  0
  -22.4287   -8.0281   21.3538 C   0  0  0  0  0  0
  -21.9922   -9.0260   20.4647 C   0  0  0  0  0  0
  -22.7254  -10.2143   20.3061 C   0  0  0  0  0  0
  -21.6861   -6.0743   22.5277 C   0  0  0  0  0  0
  -21.4021   -6.5647   23.8220 C   0  0  0  0  0  0
  -21.3660   -5.6800   24.9174 C   0  0  0  0  0  0
  -21.6044   -4.3056   24.7230 C   0  0  0  0  0  0
  -21.8816   -3.8152   23.4349 C   0  0  0  0  0  0
  -21.9196   -4.6967   22.3402 C   0  0  0  0  0  0
  -22.7792  -13.5208   21.1873 C   0  0  0  0  0  0
  -22.1655   -4.2157   21.0974 F   0  0  0  0  0  0
  -21.5631   -3.4536   25.7741 F   0  0  0  0  0  0
  -29.9789  -13.5848   20.4171 N   0  0  0  0  0  0
  -26.2910  -12.9449   20.3314 N   0  0  0  0  0  0
  -25.9330  -11.6580   20.5784 N   0  0  0  0  0  0
  -22.0460  -12.8189   22.0442 N   0  0  0  0  0  0
  -25.4155  -15.1953   20.4109 N   0  0  0  0  0  0
  -31.7486  -14.9323   20.0636 O   0  0  0  0  0  0
  -21.6648   -6.8880   21.4240 O   0  0  0  0  0  0
  -22.3461  -14.5502   20.6710 O   0  0  0  0  0  0
  -24.6393  -31.8504   23.1944 C   0  0  0  0  0  0
  -25.9188  -32.4724   23.8310 C   0  0  1  0  0  0
  -27.2079  -27.1809   20.1382 C   0  0  0  0  0  0
  -25.5957  -33.8530   24.2227 N   0  0  0  0  0  0
  -23.4390  -30.4736   21.5402 C   0  0  2  0  0  0
  -24.8853  -28.9137   20.1067 C   0  0  0  0  0  0
  -22.7534  -29.4594   22.4886 C   0  0  0  0  0  0
  -18.0303  -28.1388   22.8489 C   0  0  0  0  0  0
  -24.1490  -36.7264   23.2635 C   0  0  0  0  0  0
  -25.9924  -30.7333   21.3918 C   0  0  0  0  0  0
  -26.0590  -29.3504   20.7328 C   0  0  0  0  0  0
  -27.2192  -28.4959   20.7426 C   0  0  0  0  0  0
  -26.0194  -26.8577   19.4413 C   0  0  0  0  0  0
  -24.8762  -27.6782   19.4479 C   0  0  0  0  0  0
  -23.6600  -29.8093   20.1563 C   0  0  0  0  0  0
  -25.4117  -36.3054   24.0325 C   0  0  1  0  0  0
  -20.5908  -28.3722   23.1238 C   0  0  2  0  0  0
  -20.6792  -26.9431   22.5403 C   0  0  0  0  0  0
  -19.5767  -26.6381   21.5213 C   0  0  0  0  0  0
  -18.1943  -26.7930   22.1617 C   0  0  0  0  0  0
  -19.1555  -28.8870   23.2859 C   0  0  0  0  0  0
  -18.9472  -30.1464   23.8891 C   0  0  0  0  0  0
  -17.6471  -30.6591   24.0560 C   0  0  0  0  0  0
  -25.9072  -34.9430   23.5084 C   0  0  0  0  0  0
  -16.5365  -29.9086   23.6330 C   0  0  0  0  0  0
  -16.7289  -28.6495   23.0375 C   0  0  0  0  0  0
  -26.4518  -31.6578   25.0736 C   0  0  0  0  0  0
  -25.3717  -31.3761   26.1441 C   0  0  0  0  0  0
  -27.0370  -30.2975   24.6300 C   0  0  0  0  0  0
  -27.6046  -32.4352   25.7516 C   0  0  0  0  0  0
  -27.5596  -37.1768   24.8446 C   0  0  0  0  0  0
  -21.4234  -29.3060   22.3614 N   0  0  0  0  0  0
  -26.4273  -37.3775   23.9439 N   0  0  0  0  0  0
  -24.7097  -31.0393   22.0970 N   0  0  0  0  0  0
  -23.4189  -28.8129   23.3020 O   0  0  0  0  0  0
  -28.2593  -26.2083   20.2408 O   0  0  0  0  0  0
  -26.5655  -34.8919   22.4662 O   0  0  0  0  0  0
  -23.5525  -32.1363   23.7183 O   0  0  0  0  0  0
  -29.4071  -18.5445   20.9733 C   0  0  0  0  0  0
  -29.5536  -19.8498   20.2541 C   0  0  0  0  0  0
  -30.1321  -19.5486   19.0350 C   0  0  0  0  0  0
  -29.8891  -17.3430   20.3797 C   0  0  0  0  0  0
  -27.9356  -21.9349   20.3304 C   0  0  0  0  0  0
  -29.8816  -22.5154   20.3486 C   0  0  0  0  0  0
  -28.5760  -23.3512   20.6770 C   0  0  0  0  0  0
  -30.4194  -20.4714   17.8945 C   0  0  0  0  0  0
  -28.0087  -24.7182   19.9280 C   0  0  0  0  0  0
  -29.1843  -21.2429   20.7272 N   0  0  0  0  0  0
  -29.8165  -15.9721   20.7724 N   0  0  0  0  0  0
  -28.4207  -23.6839   22.0434 O   0  0  0  0  0  0
  -30.5591  -17.8384   18.8451 S   0  0  0  0  0  0
  -31.4726  -12.6379   19.1884 H   0  0  0  0  0  0
  -30.3884  -11.5391   19.9910 H   0  0  0  0  0  0
  -29.8076  -11.7557   17.5422 H   0  0  0  0  0  0
  -29.6244  -13.4829   17.7302 H   0  0  0  0  0  0
  -27.9047  -11.2886   18.9268 H   0  0  0  0  0  0
  -27.3843  -12.5234   17.8098 H   0  0  0  0  0  0
  -27.6210  -14.2617   19.4628 H   0  0  0  0  0  0
  -28.7324  -12.2147   21.4468 H   0  0  0  0  0  0
  -28.3987  -13.8927   21.7951 H   0  0  0  0  0  0
  -25.2794   -9.5681   22.4750 H   0  0  0  0  0  0
  -24.0025   -7.4640   22.7470 H   0  0  0  0  0  0
  -21.0859   -8.8779   19.8948 H   0  0  0  0  0  0
  -22.3719  -10.9679   19.6162 H   0  0  0  0  0  0
  -21.2014   -7.6161   23.9718 H   0  0  0  0  0  0
  -21.1481   -6.0533   25.9078 H   0  0  0  0  0  0
  -22.0598   -2.7610   23.2857 H   0  0  0  0  0  0
  -22.4106  -11.9865   22.4820 H   0  0  0  0  0  0
  -21.1069  -13.1191   22.2654 H   0  0  0  0  0  0
  -24.6469  -15.8502   20.5086 H   0  0  0  0  0  0
  -26.2632  -15.6337   20.0735 H   0  0  0  0  0  0
  -26.7251  -32.5335   23.1037 H   0  0  0  0  0  0
  -25.0103  -33.9655   25.0373 H   0  0  0  0  0  0
  -22.7414  -31.3006   21.3923 H   0  0  0  0  0  0
  -23.3787  -35.9552   23.3216 H   0  0  0  0  0  0
  -24.3596  -36.8976   22.2066 H   0  0  0  0  0  0
  -23.7178  -37.6414   23.6714 H   0  0  0  0  0  0
  -26.1488  -31.4890   20.6204 H   0  0  0  0  0  0
  -26.8643  -30.7775   22.0330 H   0  0  0  0  0  0
  -28.1069  -28.8183   21.2673 H   0  0  0  0  0  0
  -25.9261  -25.9395   18.8831 H   0  0  0  0  0  0
  -23.9856  -27.3471   18.9320 H   0  0  0  0  0  0
  -23.7901  -30.5872   19.4039 H   0  0  0  0  0  0
  -22.7750  -29.2505   19.8469 H   0  0  0  0  0  0
  -25.1286  -36.1888   25.0811 H   0  0  0  0  0  0
  -21.0011  -28.3322   24.1355 H   0  0  0  0  0  0
  -20.5697  -26.2344   23.3624 H   0  0  0  0  0  0
  -21.6659  -26.7451   22.1197 H   0  0  0  0  0  0
  -19.6936  -25.6286   21.1264 H   0  0  0  0  0  0
  -19.6700  -27.3174   20.6729 H   0  0  0  0  0  0
  -17.4219  -26.6695   21.4013 H   0  0  0  0  0  0
  -18.0336  -26.0063   22.9000 H   0  0  0  0  0  0
  -19.7948  -30.7282   24.2262 H   0  0  0  0  0  0
  -17.5024  -31.6274   24.5154 H   0  0  0  0  0  0
  -15.5364  -30.2991   23.7648 H   0  0  0  0  0  0
  -15.8689  -28.0797   22.7124 H   0  0  0  0  0  0
  -24.5878  -30.7128   25.7765 H   0  0  0  0  0  0
  -24.8928  -32.2945   26.4854 H   0  0  0  0  0  0
  -25.8006  -30.8937   27.0232 H   0  0  0  0  0  0
  -26.2973  -29.6715   24.1292 H   0  0  0  0  0  0
  -27.3966  -29.7256   25.4865 H   0  0  0  0  0  0
  -27.8895  -30.4209   23.9615 H   0  0  0  0  0  0
  -27.2620  -33.3653   26.2068 H   0  0  0  0  0  0
  -28.3862  -32.6925   25.0355 H   0  0  0  0  0  0
  -28.0712  -31.8513   26.5462 H   0  0  0  0  0  0
  -28.2530  -38.0153   24.7633 H   0  0  0  0  0  0
  -28.1184  -36.2698   24.6086 H   0  0  0  0  0  0
  -27.2348  -37.1185   25.8850 H   0  0  0  0  0  0
  -20.9438  -29.8760   21.6785 H   0  0  0  0  0  0
  -26.0147  -38.2828   24.1520 H   0  0  0  0  0  0
  -28.9384  -18.5429   21.9465 H   0  0  0  0  0  0
  -27.7143  -21.8127   19.2683 H   0  0  0  0  0  0
  -27.0708  -21.6671   20.9391 H   0  0  0  0  0  0
  -30.7342  -22.7540   20.9861 H   0  0  0  0  0  0
  -30.1527  -22.6003   19.2977 H   0  0  0  0  0  0
  -29.5719  -21.1276   17.6985 H   0  0  0  0  0  0
  -30.6077  -19.9140   16.9774 H   0  0  0  0  0  0
  -31.2975  -21.0851   18.0949 H   0  0  0  0  0  0
  -26.9355  -24.5655   19.9952 H   0  0  0  0  0  0
  -28.2256  -24.6226   18.8635 H   0  0  0  0  0  0
  -28.9742  -15.7342   21.2743 H   0  0  0  0  0  0
  -28.6384  -22.8805   22.5059 H   0  0  0  0  0  0
  1 25  1  0  0  0
  1 30  2  0  0  0
  1 81  1  0  0  0
  2  3  1  0  0  0
  2 25  1  0  0  0
  2 84  1  0  0  0
  2 85  1  0  0  0
  3  4  1  0  0  0
  3 86  1  0  0  0
  3 87  1  0  0  0
  4  5  1  0  0  0
  4 88  1  0  0  0
  4 89  1  0  0  0
  5  6  1  0  0  0
  5 26  1  0  0  0
  5 90  1  0  0  0
  6 25  1  0  0  0
  6 91  1  0  0  0
  6 92  1  0  0  0
  7  8  2  0  0  0
  7 26  1  0  0  0
  7 29  1  0  0  0
  8  9  1  0  0  0
  8 22  1  0  0  0
  9 10  1  0  0  0
  9 27  2  0  0  0
 10 11  2  0  0  0
 10 15  1  0  0  0
 11 12  1  0  0  0
 11 93  1  0  0  0
 12 13  2  0  0  0
 12 94  1  0  0  0
 13 14  1  0  0  0
 13 31  1  0  0  0
 14 15  2  0  0  0
 14 95  1  0  0  0
 15 96  1  0  0  0
 16 17  2  0  0  0
 16 21  1  0  0  0
 16 31  1  0  0  0
 17 18  1  0  0  0
 17 97  1  0  0  0
 18 19  2  0  0  0
 18 98  1  0  0  0
 19 20  1  0  0  0
 19 24  1  0  0  0
 20 21  2  0  0  0
 20 99  1  0  0  0
 21 23  1  0  0  0
 22 28  1  0  0  0
 22 32  2  0  0  0
 26 27  1  0  0  0
 28100  1  0  0  0
 28101  1  0  0  0
 29102  1  0  0  0
 29103  1  0  0  0
 33 34  1  0  0  0
 33 66  1  0  0  0
 33 70  2  0  0  0
 34 36  1  0  0  0
 34 59  1  0  0  0
 34104  1  0  0  0
 35 44  2  0  0  0
 35 45  1  0  0  0
 35 68  1  0  0  0
 36 56  1  0  0  0
 36105  1  0  0  0
 37 39  1  0  0  0
 37 47  1  0  0  0
 37 66  1  0  0  0
 37106  1  0  0  0
 38 43  2  0  0  0
 38 46  1  0  0  0
 38 47  1  0  0  0
 39 64  1  0  0  0
 39 67  2  0  0  0
 40 52  1  0  0  0
 40 53  2  0  0  0
 40 58  1  0  0  0
 41107  1  0  0  0
 41108  1  0  0  0
 41109  1  0  0  0
 41 48  1  0  0  0
 42 43  1  0  0  0
 42 66  1  0  0  0
 42110  1  0  0  0
 42111  1  0  0  0
 43 44  1  0  0  0
 44112  1  0  0  0
 45 46  2  0  0  0
 45113  1  0  0  0
 46114  1  0  0  0
 47115  1  0  0  0
 47116  1  0  0  0
 48 56  1  0  0  0
 48 65  1  0  0  0
 48117  1  0  0  0
 49 50  1  0  0  0
 49 53  1  0  0  0
 49 64  1  0  0  0
 49118  1  0  0  0
 50 51  1  0  0  0
 50119  1  0  0  0
 50120  1  0  0  0
 51 52  1  0  0  0
 51121  1  0  0  0
 51122  1  0  0  0
 52123  1  0  0  0
 52124  1  0  0  0
 53 54  1  0  0  0
 54 55  2  0  0  0
 54125  1  0  0  0
 55 57  1  0  0  0
 55126  1  0  0  0
 56 69  2  0  0  0
 57 58  2  0  0  0
 57127  1  0  0  0
 58128  1  0  0  0
 59 60  1  0  0  0
 59 61  1  0  0  0
 59 62  1  0  0  0
 60129  1  0  0  0
 60130  1  0  0  0
 60131  1  0  0  0
 61132  1  0  0  0
 61133  1  0  0  0
 61134  1  0  0  0
 62135  1  0  0  0
 62136  1  0  0  0
 62137  1  0  0  0
 63 65  1  0  0  0
 63138  1  0  0  0
 63139  1  0  0  0
 63140  1  0  0  0
 64141  1  0  0  0
 65142  1  0  0  0
 68 79  1  0  0  0
 71 72  1  0  0  0
 71 74  2  0  0  0
 71143  1  0  0  0
 72 73  2  0  0  0
 72 80  1  0  0  0
 73 78  1  0  0  0
 73 83  1  0  0  0
 74 81  1  0  0  0
 74 83  1  0  0  0
 75 77  1  0  0  0
 75 80  1  0  0  0
 75144  1  0  0  0
 75145  1  0  0  0
 76 77  1  0  0  0
 76 80  1  0  0  0
 76146  1  0  0  0
 76147  1  0  0  0
 77 79  1  0  0  0
 77 82  1  0  0  0
 78148  1  0  0  0
 78149  1  0  0  0
 78150  1  0  0  0
 79151  1  0  0  0
 79152  1  0  0  0
 81153  1  0  0  0
 82154  1  0  0  0
M  ISO  4   1 100  68 101  79 101  81 100
M  END
> <chiral flag>
0

> <version>
0

> <s_m_source_file>
/data/baiqing/PycharmProjects/Reinvent-master-3.2/result/LINK_invent/BTK/process_docking_weight1_custom_product_contain_oxygen_bond_distance_aromatic_linkinvent_7_9_3/rearranged_h_0144.sdf

> <i_m_source_file_index>
61

> <r_mmod_Potential_Energy-OPLS-2005>
398.479736328125

> <r_mmod_Stretch_Energy-OPLS-2005>
172.344879150391

> <r_mmod_Bend_Energy-OPLS-2005>
255.424255371094

> <r_mmod_Torsional_Energy-OPLS-2005>
307.003692626953

> <r_mmod_Improper_Torsional_Energy-OPLS-2005>
10.409351348877

> <r_mmod_Van_der_Waal_Energy-OPLS-2005>
123.022644042969

> <r_mmod_Electrostatic_Energy-OPLS-2005>
-359.208648681641

> <r_mmod_Solvation_Energy-OPLS-2005>
-249.78239440918

> <b_mmod_Minimization_Converged-OPLS-2005>
0

> <r_mmod_RMS_Derivative-OPLS-2005>
1.85420298576355

$$$$
61
                    3D
 Structure written by MMmdl.
146155  0  0  1  0            999 V2000
  -30.5172  -15.0899   20.4049 C   0  0  0  0  0  0
  -30.4486  -12.6908   19.4941 C   0  0  0  0  0  0
  -29.5207  -12.5315   18.2647 C   0  0  0  0  0  0
  -28.0685  -12.2679   18.7027 C   0  0  0  0  0  0
  -27.6213  -13.2292   19.8282 C   0  0  2  0  0  0
  -28.6731  -13.3302   20.9588 C   0  0  0  0  0  0
  -25.2358  -13.8087   20.5685 C   0  0  0  0  0  0
  -24.1725  -13.0332   20.9299 C   0  0  0  0  0  0
  -24.6367  -11.6841   20.8819 C   0  0  0  0  0  0
  -23.9058  -10.4233   21.0444 C   0  0  0  0  0  0
  -24.3612   -9.4150   21.9213 C   0  0  0  0  0  0
  -23.6282   -8.2193   22.0761 C   0  0  0  0  0  0
  -22.4265   -8.0250   21.3544 C   0  0  0  0  0  0
  -21.9905   -9.0227   20.4649 C   0  0  0  0  0  0
  -22.7240  -10.2099   20.3076 C   0  0  0  0  0  0
  -21.6839   -6.0724   22.5278 C   0  0  0  0  0  0
  -21.4002   -6.5632   23.8211 C   0  0  0  0  0  0
  -21.3655   -5.6788   24.9177 C   0  0  0  0  0  0
  -21.6046   -4.3051   24.7228 C   0  0  0  0  0  0
  -21.8822   -3.8141   23.4349 C   0  0  0  0  0  0
  -21.9189   -4.6956   22.3404 C   0  0  0  0  0  0
  -22.7749  -13.5129   21.1924 C   0  0  0  0  0  0
  -22.1661   -4.2143   21.0981 F   0  0  0  0  0  0
  -21.5630   -3.4535   25.7740 F   0  0  0  0  0  0
  -29.9236  -13.8101   20.3438 N   0  0  0  0  0  0
  -26.2828  -12.9336   20.3235 N   0  0  0  0  0  0
  -25.9296  -11.6488   20.5801 N   0  0  0  0  0  0
  -22.0396  -12.8138   22.0489 N   0  0  0  0  0  0
  -25.3725  -15.1795   20.3926 N   0  0  0  0  0  0
  -31.7322  -15.1124   20.1680 O   0  0  0  0  0  0
  -21.6619   -6.8859   21.4238 O   0  0  0  0  0  0
  -22.3452  -14.5439   20.6753 O   0  0  0  0  0  0
  -24.6490  -31.8379   23.1826 C   0  0  0  0  0  0
  -25.9235  -32.4664   23.8232 C   0  0  1  0  0  0
  -27.2282  -27.0762   20.1594 C   0  0  0  0  0  0
  -25.5958  -33.8470   24.2152 N   0  0  0  0  0  0
  -23.4568  -30.4544   21.5288 C   0  0  2  0  0  0
  -24.9104  -28.8705   20.1108 C   0  0  0  0  0  0
  -22.7597  -29.4517   22.4834 C   0  0  0  0  0  0
  -18.0313  -28.1401   22.8481 C   0  0  0  0  0  0
  -24.1486  -36.7235   23.2642 C   0  0  0  0  0  0
  -26.0171  -30.6926   21.3902 C   0  0  0  0  0  0
  -26.0901  -29.2965   20.7344 C   0  0  0  0  0  0
  -27.2470  -28.4178   20.7405 C   0  0  0  0  0  0
  -26.0189  -26.7697   19.4926 C   0  0  0  0  0  0
  -24.8918  -27.6222   19.4722 C   0  0  0  0  0  0
  -23.6876  -29.7784   20.1507 C   0  0  0  0  0  0
  -25.4123  -36.3013   24.0310 C   0  0  1  0  0  0
  -20.5931  -28.3730   23.1224 C   0  0  2  0  0  0
  -20.6794  -26.9424   22.5409 C   0  0  0  0  0  0
  -19.5767  -26.6384   21.5217 C   0  0  0  0  0  0
  -18.1947  -26.7942   22.1627 C   0  0  0  0  0  0
  -19.1572  -28.8888   23.2846 C   0  0  0  0  0  0
  -18.9484  -30.1484   23.8868 C   0  0  0  0  0  0
  -17.6479  -30.6598   24.0565 C   0  0  0  0  0  0
  -25.9081  -34.9389   23.5048 C   0  0  0  0  0  0
  -16.5370  -29.9086   23.6345 C   0  0  0  0  0  0
  -16.7297  -28.6509   23.0368 C   0  0  0  0  0  0
  -26.4543  -31.6552   25.0694 C   0  0  0  0  0  0
  -25.3713  -31.3767   26.1380 C   0  0  0  0  0  0
  -27.0413  -30.2939   24.6311 C   0  0  0  0  0  0
  -27.6066  -32.4325   25.7483 C   0  0  0  0  0  0
  -27.5571  -37.1775   24.8470 C   0  0  0  0  0  0
  -21.4281  -29.3041   22.3582 N   0  0  0  0  0  0
  -26.4284  -37.3730   23.9409 N   0  0  0  0  0  0
  -24.7279  -31.0179   22.0885 N   0  0  0  0  0  0
  -23.4213  -28.8071   23.3011 O   0  0  0  0  0  0
  -28.2622  -26.0466   20.2340 O   0  0  0  0  0  0
  -26.5671  -34.8902   22.4628 O   0  0  0  0  0  0
  -23.5596  -32.1278   23.7009 O   0  0  0  0  0  0
  -27.9608  -19.4113   20.5802 C   0  0  0  0  0  0
  -28.4469  -18.0322   20.6140 C   0  0  0  0  0  0
  -29.8283  -17.7678   20.4257 C   0  0  0  0  0  0
  -28.9231  -20.4226   20.3617 C   0  0  0  0  0  0
  -28.9516  -23.1871   20.3155 C   0  0  0  0  0  0
  -28.2668  -16.5300   20.7174 C   0  0  0  0  0  0
  -27.9310  -24.5084   20.0353 C   0  0  0  0  0  0
  -29.7538  -16.3255   20.5110 N   0  0  0  0  0  0
  -28.5112  -21.8234   20.2141 N   0  0  0  0  0  0
  -30.1248  -23.4209   20.6175 O   0  0  0  0  0  0
  -30.5434  -19.4505   20.2152 S   0  0  0  0  0  0
  -31.4665  -12.8851   19.1528 H   0  0  0  0  0  0
  -30.5026  -11.7622   20.0645 H   0  0  0  0  0  0
  -29.8707  -11.7174   17.6284 H   0  0  0  0  0  0
  -29.5607  -13.4361   17.6564 H   0  0  0  0  0  0
  -28.0139  -11.2396   19.0617 H   0  0  0  0  0  0
  -27.3909  -12.3299   17.8505 H   0  0  0  0  0  0
  -27.5544  -14.1880   19.3269 H   0  0  0  0  0  0
  -28.8152  -12.3639   21.4447 H   0  0  0  0  0  0
  -28.3450  -14.0077   21.7454 H   0  0  0  0  0  0
  -25.2754   -9.5624   22.4795 H   0  0  0  0  0  0
  -23.9984   -7.4577   22.7473 H   0  0  0  0  0  0
  -21.0838   -8.8755   19.8951 H   0  0  0  0  0  0
  -22.3709  -10.9651   19.6191 H   0  0  0  0  0  0
  -21.1991   -7.6141   23.9713 H   0  0  0  0  0  0
  -21.1474   -6.0519   25.9079 H   0  0  0  0  0  0
  -22.0606   -2.7605   23.2850 H   0  0  0  0  0  0
  -22.4014  -11.9804   22.4882 H   0  0  0  0  0  0
  -21.1018  -13.1168   22.2700 H   0  0  0  0  0  0
  -24.5546  -15.7772   20.4465 H   0  0  0  0  0  0
  -26.1241  -15.5929   19.8608 H   0  0  0  0  0  0
  -26.7295  -32.5255   23.0951 H   0  0  0  0  0  0
  -25.0087  -33.9572   25.0291 H   0  0  0  0  0  0
  -22.7633  -31.2824   21.3690 H   0  0  0  0  0  0
  -23.3754  -35.9561   23.3297 H   0  0  0  0  0  0
  -24.3571  -36.8877   22.2059 H   0  0  0  0  0  0
  -23.7235  -37.6425   23.6687 H   0  0  0  0  0  0
  -26.1783  -31.4416   20.6138 H   0  0  0  0  0  0
  -26.8852  -30.7478   22.0353 H   0  0  0  0  0  0
  -28.1415  -28.7415   21.2545 H   0  0  0  0  0  0
  -25.9058  -25.8184   18.9963 H   0  0  0  0  0  0
  -23.9938  -27.2927   18.9673 H   0  0  0  0  0  0
  -23.8251  -30.5497   19.3923 H   0  0  0  0  0  0
  -22.8020  -29.2205   19.8421 H   0  0  0  0  0  0
  -25.1316  -36.1829   25.0801 H   0  0  0  0  0  0
  -21.0035  -28.3322   24.1342 H   0  0  0  0  0  0
  -20.5681  -26.2342   23.3632 H   0  0  0  0  0  0
  -21.6657  -26.7418   22.1209 H   0  0  0  0  0  0
  -19.6920  -25.6290   21.1262 H   0  0  0  0  0  0
  -19.6705  -27.3185   20.6739 H   0  0  0  0  0  0
  -17.4219  -26.6700   21.4024 H   0  0  0  0  0  0
  -18.0337  -26.0090   22.9029 H   0  0  0  0  0  0
  -19.7960  -30.7318   24.2215 H   0  0  0  0  0  0
  -17.5031  -31.6274   24.5170 H   0  0  0  0  0  0
  -15.5371  -30.2982   23.7683 H   0  0  0  0  0  0
  -15.8702  -28.0820   22.7093 H   0  0  0  0  0  0
  -24.5907  -30.7094   25.7708 H   0  0  0  0  0  0
  -24.8884  -32.2959   26.4708 H   0  0  0  0  0  0
  -25.7984  -30.9013   27.0219 H   0  0  0  0  0  0
  -26.3044  -29.6652   24.1304 H   0  0  0  0  0  0
  -27.3998  -29.7251   25.4900 H   0  0  0  0  0  0
  -27.8963  -30.4162   23.9657 H   0  0  0  0  0  0
  -27.2660  -33.3661   26.1974 H   0  0  0  0  0  0
  -28.3923  -32.6831   25.0341 H   0  0  0  0  0  0
  -28.0678  -31.8501   26.5469 H   0  0  0  0  0  0
  -28.2596  -38.0068   24.7508 H   0  0  0  0  0  0
  -28.1063  -36.2597   24.6311 H   0  0  0  0  0  0
  -27.2292  -37.1438   25.8876 H   0  0  0  0  0  0
  -20.9497  -29.8737   21.6742 H   0  0  0  0  0  0
  -26.0145  -38.2793   24.1421 H   0  0  0  0  0  0
  -26.9038  -19.6086   20.6940 H   0  0  0  0  0  0
  -27.6645  -16.1801   19.8885 H   0  0  0  0  0  0
  -27.8817  -16.2113   21.6863 H   0  0  0  0  0  0
  -27.0328  -24.3093   20.6203 H   0  0  0  0  0  0
  -27.6298  -24.3975   18.9938 H   0  0  0  0  0  0
  -27.5209  -21.8642   20.0107 H   0  0  0  0  0  0
  1 25  1  0  0  0
  1 30  2  0  0  0
  1 78  1  0  0  0
  2  3  1  0  0  0
  2 25  1  0  0  0
  2 82  1  0  0  0
  2 83  1  0  0  0
  3  4  1  0  0  0
  3 84  1  0  0  0
  3 85  1  0  0  0
  4  5  1  0  0  0
  4 86  1  0  0  0
  4 87  1  0  0  0
  5  6  1  0  0  0
  5 26  1  0  0  0
  5 88  1  0  0  0
  6 25  1  0  0  0
  6 89  1  0  0  0
  6 90  1  0  0  0
  7  8  2  0  0  0
  7 26  1  0  0  0
  7 29  1  0  0  0
  8  9  1  0  0  0
  8 22  1  0  0  0
  9 10  1  0  0  0
  9 27  2  0  0  0
 10 11  2  0  0  0
 10 15  1  0  0  0
 11 12  1  0  0  0
 11 91  1  0  0  0
 12 13  2  0  0  0
 12 92  1  0  0  0
 13 14  1  0  0  0
 13 31  1  0  0  0
 14 15  2  0  0  0
 14 93  1  0  0  0
 15 94  1  0  0  0
 16 17  2  0  0  0
 16 21  1  0  0  0
 16 31  1  0  0  0
 17 18  1  0  0  0
 17 95  1  0  0  0
 18 19  2  0  0  0
 18 96  1  0  0  0
 19 20  1  0  0  0
 19 24  1  0  0  0
 20 21  2  0  0  0
 20 97  1  0  0  0
 21 23  1  0  0  0
 22 28  1  0  0  0
 22 32  2  0  0  0
 26 27  1  0  0  0
 28 98  1  0  0  0
 28 99  1  0  0  0
 29100  1  0  0  0
 29101  1  0  0  0
 33 34  1  0  0  0
 33 66  1  0  0  0
 33 70  2  0  0  0
 34 36  1  0  0  0
 34 59  1  0  0  0
 34102  1  0  0  0
 35 44  2  0  0  0
 35 45  1  0  0  0
 35 68  1  0  0  0
 36 56  1  0  0  0
 36103  1  0  0  0
 37 39  1  0  0  0
 37 47  1  0  0  0
 37 66  1  0  0  0
 37104  1  0  0  0
 38 43  2  0  0  0
 38 46  1  0  0  0
 38 47  1  0  0  0
 39 64  1  0  0  0
 39 67  2  0  0  0
 40 52  1  0  0  0
 40 53  2  0  0  0
 40 58  1  0  0  0
 41105  1  0  0  0
 41106  1  0  0  0
 41107  1  0  0  0
 41 48  1  0  0  0
 42 43  1  0  0  0
 42 66  1  0  0  0
 42108  1  0  0  0
 42109  1  0  0  0
 43 44  1  0  0  0
 44110  1  0  0  0
 45 46  2  0  0  0
 45111  1  0  0  0
 46112  1  0  0  0
 47113  1  0  0  0
 47114  1  0  0  0
 48 56  1  0  0  0
 48 65  1  0  0  0
 48115  1  0  0  0
 49 50  1  0  0  0
 49 53  1  0  0  0
 49 64  1  0  0  0
 49116  1  0  0  0
 50 51  1  0  0  0
 50117  1  0  0  0
 50118  1  0  0  0
 51 52  1  0  0  0
 51119  1  0  0  0
 51120  1  0  0  0
 52121  1  0  0  0
 52122  1  0  0  0
 53 54  1  0  0  0
 54 55  2  0  0  0
 54123  1  0  0  0
 55 57  1  0  0  0
 55124  1  0  0  0
 56 69  2  0  0  0
 57 58  2  0  0  0
 57125  1  0  0  0
 58126  1  0  0  0
 59 60  1  0  0  0
 59 61  1  0  0  0
 59 62  1  0  0  0
 60127  1  0  0  0
 60128  1  0  0  0
 60129  1  0  0  0
 61130  1  0  0  0
 61131  1  0  0  0
 61132  1  0  0  0
 62133  1  0  0  0
 62134  1  0  0  0
 62135  1  0  0  0
 63 65  1  0  0  0
 63136  1  0  0  0
 63137  1  0  0  0
 63138  1  0  0  0
 64139  1  0  0  0
 65140  1  0  0  0
 68 77  1  0  0  0
 71 72  1  0  0  0
 71 74  2  0  0  0
 71141  1  0  0  0
 72 73  2  0  0  0
 72 76  1  0  0  0
 73 78  1  0  0  0
 73 81  1  0  0  0
 74 79  1  0  0  0
 74 81  1  0  0  0
 75 77  1  0  0  0
 75 79  1  0  0  0
 75 80  2  0  0  0
 76 78  1  0  0  0
 76142  1  0  0  0
 76143  1  0  0  0
 77144  1  0  0  0
 77145  1  0  0  0
 79146  1  0  0  0
M  ISO  4   1 100  68 101  77 101  78 100
M  END
> <chiral flag>
0

> <version>
0

> <s_m_source_file>
/data/baiqing/PycharmProjects/Reinvent-master-3.2/result/LINK_invent/BTK/process_docking_weight1_custom_product_contain_oxygen_bond_distance_aromatic_linkinvent_7_9_3/rearranged_h_0144.sdf

> <i_m_source_file_index>
62

> <r_mmod_Potential_Energy-OPLS-2005>
1256.80126953125

> <r_mmod_Stretch_Energy-OPLS-2005>
319.4814453125

> <r_mmod_Bend_Energy-OPLS-2005>
853.296691894531

> <r_mmod_Torsional_Energy-OPLS-2005>
251.613784790039

> <r_mmod_Improper_Torsional_Energy-OPLS-2005>
6.47685098648071

> <r_mmod_Van_der_Waal_Energy-OPLS-2005>
112.848594665527

> <r_mmod_Electrostatic_Energy-OPLS-2005>
-315.827850341797

> <r_mmod_Solvation_Energy-OPLS-2005>
-249.17057800293

> <b_mmod_Minimization_Converged-OPLS-2005>
0

> <r_mmod_RMS_Derivative-OPLS-2005>
0.935609936714172

$$$$
62
                    3D
 Structure written by MMmdl.
168177  0  0  1  0            999 V2000
  -30.7077  -14.3639   20.6927 C   0  0  0  0  0  0
  -30.4245  -12.2823   19.3976 C   0  0  0  0  0  0
  -29.4915  -12.5256   18.1933 C   0  0  0  0  0  0
  -28.0117  -12.3745   18.5969 C   0  0  0  0  0  0
  -27.6665  -13.1894   19.8721 C   0  0  2  0  0  0
  -28.6923  -12.8917   20.9871 C   0  0  0  0  0  0
  -25.2603  -13.8130   20.5588 C   0  0  0  0  0  0
  -24.1835  -13.0449   20.9109 C   0  0  0  0  0  0
  -24.6362  -11.6897   20.8690 C   0  0  0  0  0  0
  -23.9029  -10.4298   21.0390 C   0  0  0  0  0  0
  -24.3598   -9.4217   21.9170 C   0  0  0  0  0  0
  -23.6275   -8.2250   22.0760 C   0  0  0  0  0  0
  -22.4252   -8.0284   21.3549 C   0  0  0  0  0  0
  -21.9880   -9.0255   20.4649 C   0  0  0  0  0  0
  -22.7202  -10.2131   20.3048 C   0  0  0  0  0  0
  -21.6855   -6.0731   22.5280 C   0  0  0  0  0  0
  -21.4017   -6.5644   23.8211 C   0  0  0  0  0  0
  -21.3654   -5.6795   24.9173 C   0  0  0  0  0  0
  -21.6045   -4.3059   24.7225 C   0  0  0  0  0  0
  -21.8819   -3.8150   23.4343 C   0  0  0  0  0  0
  -21.9188   -4.6962   22.3403 C   0  0  0  0  0  0
  -22.7863  -13.5255   21.1825 C   0  0  0  0  0  0
  -22.1654   -4.2147   21.0974 F   0  0  0  0  0  0
  -21.5619   -3.4538   25.7733 F   0  0  0  0  0  0
  -30.0432  -13.2007   20.4781 N   0  0  0  0  0  0
  -26.3019  -12.9258   20.3261 N   0  0  0  0  0  0
  -25.9264  -11.6434   20.5652 N   0  0  0  0  0  0
  -22.0511  -12.8248   22.0386 N   0  0  0  0  0  0
  -25.4364  -15.1843   20.4033 N   0  0  0  0  0  0
  -31.7191  -14.7038   20.0666 O   0  0  0  0  0  0
  -21.6631   -6.8868   21.4236 O   0  0  0  0  0  0
  -22.3549  -14.5579   20.6694 O   0  0  0  0  0  0
  -24.6061  -31.8704   23.2122 C   0  0  0  0  0  0
  -25.8978  -32.4822   23.8413 C   0  0  1  0  0  0
  -27.2549  -27.4848   20.0889 C   0  0  0  0  0  0
  -25.5874  -33.8625   24.2366 N   0  0  0  0  0  0
  -23.3911  -30.4881   21.5518 C   0  0  2  0  0  0
  -24.8422  -28.9499   20.1238 C   0  0  0  0  0  0
  -22.7359  -29.4641   22.5041 C   0  0  0  0  0  0
  -18.0245  -28.1364   22.8500 C   0  0  0  0  0  0
  -24.1510  -36.7306   23.2648 C   0  0  0  0  0  0
  -25.9105  -30.8479   21.3593 C   0  0  0  0  0  0
  -25.9940  -29.4806   20.7168 C   0  0  0  0  0  0
  -27.1992  -28.7523   20.6982 C   0  0  0  0  0  0
  -26.0858  -26.9415   19.5120 C   0  0  0  0  0  0
  -24.8799  -27.6755   19.5252 C   0  0  0  0  0  0
  -23.5987  -29.8118   20.1681 C   0  0  0  0  0  0
  -25.4141  -36.3129   24.0354 C   0  0  1  0  0  0
  -20.5829  -28.3631   23.1368 C   0  0  2  0  0  0
  -20.6737  -26.9378   22.5446 C   0  0  0  0  0  0
  -19.5726  -26.6384   21.5222 C   0  0  0  0  0  0
  -18.1898  -26.7911   22.1623 C   0  0  0  0  0  0
  -19.1492  -28.8819   23.2922 C   0  0  0  0  0  0
  -18.9430  -30.1430   23.8919 C   0  0  0  0  0  0
  -17.6429  -30.6575   24.0581 C   0  0  0  0  0  0
  -25.9049  -34.9476   23.5168 C   0  0  0  0  0  0
  -16.5325  -29.9088   23.6327 C   0  0  0  0  0  0
  -16.7237  -28.6505   23.0342 C   0  0  0  0  0  0
  -26.4437  -31.6541   25.0691 C   0  0  0  0  0  0
  -25.3744  -31.3545   26.1454 C   0  0  0  0  0  0
  -27.0299  -30.3042   24.5949 C   0  0  0  0  0  0
  -27.5994  -32.4257   25.7509 C   0  0  0  0  0  0
  -27.5620  -37.1814   24.8480 C   0  0  0  0  0  0
  -21.4087  -29.2995   22.3779 N   0  0  0  0  0  0
  -26.4343  -37.3803   23.9409 N   0  0  0  0  0  0
  -24.6526  -31.0837   22.1000 N   0  0  0  0  0  0
  -23.4155  -28.8212   23.3096 O   0  0  0  0  0  0
  -28.4826  -26.8778   20.0105 O   0  0  0  0  0  0
  -26.5621  -34.8922   22.4732 O   0  0  0  0  0  0
  -23.5277  -32.1449   23.7558 O   0  0  0  0  0  0
  -29.8871  -17.2365   22.8717 C   0  0  0  0  0  0
  -29.4939  -17.1549   20.5587 C   0  0  0  0  0  0
  -29.9121  -16.4726   21.6722 C   0  0  0  0  0  0
  -29.4370  -18.5172   22.6644 C   0  0  0  0  0  0
  -29.3129  -23.1037   22.4408 C   0  0  0  0  0  0
  -29.8186  -21.7613   22.7561 C   0  0  0  0  0  0
  -30.0195  -23.8134   21.5265 C   0  0  0  0  0  0
  -28.0844  -23.6346   23.1910 C   0  0  0  0  0  0
  -27.1544  -22.5447   23.7504 C   0  0  0  0  0  0
  -27.4442  -21.1781   23.1258 C   0  0  0  0  0  0
  -31.0877  -25.6567   20.2434 C   0  0  0  0  0  0
  -29.8260  -26.1891   22.3376 C   0  0  0  0  0  0
  -29.2449  -19.5655   23.7207 C   0  0  0  0  0  0
  -28.5950  -25.4782   20.2076 C   0  0  0  0  0  0
  -29.8548  -25.2708   21.0930 C   0  0  0  0  0  0
  -28.8801  -20.8914   23.2040 N   0  0  0  0  0  0
  -30.2083  -15.0917   21.7017 N   0  0  0  0  0  0
  -31.0102  -21.4408   22.6666 O   0  0  0  0  0  0
  -29.0685  -18.7893   20.9677 S   0  0  0  0  0  0
  -31.4694  -12.4053   19.1051 H   0  0  0  0  0  0
  -30.3374  -11.2512   19.7436 H   0  0  0  0  0  0
  -29.7342  -11.8269   17.3897 H   0  0  0  0  0  0
  -29.6586  -13.5279   17.7953 H   0  0  0  0  0  0
  -27.8208  -11.3141   18.7685 H   0  0  0  0  0  0
  -27.3642  -12.6675   17.7687 H   0  0  0  0  0  0
  -27.7342  -14.2471   19.6148 H   0  0  0  0  0  0
  -28.6422  -11.8351   21.2577 H   0  0  0  0  0  0
  -28.4178  -13.4231   21.8997 H   0  0  0  0  0  0
  -25.2741   -9.5685   22.4751 H   0  0  0  0  0  0
  -23.9983   -7.4635   22.7497 H   0  0  0  0  0  0
  -21.0801   -8.8772   19.8959 H   0  0  0  0  0  0
  -22.3657  -10.9673   19.6165 H   0  0  0  0  0  0
  -21.2014   -7.6151   23.9707 H   0  0  0  0  0  0
  -21.1476   -6.0527   25.9071 H   0  0  0  0  0  0
  -22.0598   -2.7611   23.2843 H   0  0  0  0  0  0
  -22.4119  -11.9891   22.4753 H   0  0  0  0  0  0
  -21.1148  -13.1313   22.2633 H   0  0  0  0  0  0
  -24.6797  -15.8475   20.5276 H   0  0  0  0  0  0
  -26.2954  -15.6194   20.0917 H   0  0  0  0  0  0
  -26.7058  -32.5592   23.1187 H   0  0  0  0  0  0
  -24.9993  -33.9801   25.0479 H   0  0  0  0  0  0
  -22.6769  -31.3000   21.4122 H   0  0  0  0  0  0
  -23.3798  -35.9617   23.3337 H   0  0  0  0  0  0
  -24.3600  -36.8897   22.2058 H   0  0  0  0  0  0
  -23.7245  -37.6508   23.6653 H   0  0  0  0  0  0
  -26.0071  -31.6129   20.5879 H   0  0  0  0  0  0
  -26.7980  -30.9098   21.9750 H   0  0  0  0  0  0
  -28.0935  -29.1627   21.1480 H   0  0  0  0  0  0
  -26.1152  -25.9778   19.0252 H   0  0  0  0  0  0
  -23.9944  -27.2582   19.0656 H   0  0  0  0  0  0
  -23.6997  -30.5797   19.3994 H   0  0  0  0  0  0
  -22.7231  -29.2246   19.8821 H   0  0  0  0  0  0
  -25.1322  -36.2015   25.0855 H   0  0  0  0  0  0
  -20.9908  -28.3189   24.1497 H   0  0  0  0  0  0
  -20.5640  -26.2232   23.3621 H   0  0  0  0  0  0
  -21.6615  -26.7436   22.1240 H   0  0  0  0  0  0
  -19.6901  -25.6310   21.1214 H   0  0  0  0  0  0
  -19.6675  -27.3231   20.6783 H   0  0  0  0  0  0
  -17.4174  -26.6670   21.4020 H   0  0  0  0  0  0
  -18.0302  -26.0042   22.9006 H   0  0  0  0  0  0
  -19.7907  -30.7235   24.2312 H   0  0  0  0  0  0
  -17.4990  -31.6261   24.5171 H   0  0  0  0  0  0
  -15.5326  -30.2991   23.7652 H   0  0  0  0  0  0
  -15.8633  -28.0838   22.7042 H   0  0  0  0  0  0
  -24.5891  -30.6937   25.7782 H   0  0  0  0  0  0
  -24.8975  -32.2654   26.5046 H   0  0  0  0  0  0
  -25.8131  -30.8595   27.0123 H   0  0  0  0  0  0
  -27.4240  -29.7280   25.4346 H   0  0  0  0  0  0
  -26.2768  -29.6814   24.1112 H   0  0  0  0  0  0
  -27.8545  -30.4407   23.8954 H   0  0  0  0  0  0
  -28.1060  -31.8118   26.4973 H   0  0  0  0  0  0
  -27.2439  -33.3186   26.2636 H   0  0  0  0  0  0
  -28.3499  -32.7471   25.0276 H   0  0  0  0  0  0
  -28.2661  -38.0096   24.7541 H   0  0  0  0  0  0
  -28.1095  -36.2628   24.6312 H   0  0  0  0  0  0
  -27.2311  -37.1464   25.8875 H   0  0  0  0  0  0
  -20.9239  -29.8714   21.6995 H   0  0  0  0  0  0
  -26.0253  -38.2894   24.1397 H   0  0  0  0  0  0
  -30.1713  -16.8249   23.8310 H   0  0  0  0  0  0
  -29.3711  -16.8086   19.5396 H   0  0  0  0  0  0
  -30.8820  -23.3366   21.0777 H   0  0  0  0  0  0
  -27.4972  -24.2791   22.5469 H   0  0  0  0  0  0
  -28.4253  -24.2638   24.0130 H   0  0  0  0  0  0
  -26.1088  -22.8158   23.5906 H   0  0  0  0  0  0
  -27.2798  -22.4785   24.8318 H   0  0  0  0  0  0
  -27.1494  -21.1783   22.0746 H   0  0  0  0  0  0
  -26.8397  -20.4097   23.6089 H   0  0  0  0  0  0
  -32.0183  -25.5575   20.8016 H   0  0  0  0  0  0
  -31.0336  -26.6894   19.8927 H   0  0  0  0  0  0
  -31.1707  -25.0319   19.3529 H   0  0  0  0  0  0
  -30.5112  -25.8397   23.1111 H   0  0  0  0  0  0
  -28.8288  -26.2507   22.7699 H   0  0  0  0  0  0
  -30.1205  -27.2090   22.0882 H   0  0  0  0  0  0
  -30.1532  -19.6459   24.3250 H   0  0  0  0  0  0
  -28.4868  -19.2213   24.4267 H   0  0  0  0  0  0
  -27.6927  -25.0577   20.6393 H   0  0  0  0  0  0
  -28.7251  -24.9925   19.2389 H   0  0  0  0  0  0
  -29.6469  -14.5634   22.3521 H   0  0  0  0  0  0
  1 25  1  0  0  0
  1 30  2  0  0  0
  1 87  1  0  0  0
  2  3  1  0  0  0
  2 25  1  0  0  0
  2 90  1  0  0  0
  2 91  1  0  0  0
  3  4  1  0  0  0
  3 92  1  0  0  0
  3 93  1  0  0  0
  4  5  1  0  0  0
  4 94  1  0  0  0
  4 95  1  0  0  0
  5  6  1  0  0  0
  5 26  1  0  0  0
  5 96  1  0  0  0
  6 25  1  0  0  0
  6 97  1  0  0  0
  6 98  1  0  0  0
  7  8  2  0  0  0
  7 26  1  0  0  0
  7 29  1  0  0  0
  8  9  1  0  0  0
  8 22  1  0  0  0
  9 10  1  0  0  0
  9 27  2  0  0  0
 10 11  2  0  0  0
 10 15  1  0  0  0
 11 12  1  0  0  0
 11 99  1  0  0  0
 12 13  2  0  0  0
 12100  1  0  0  0
 13 14  1  0  0  0
 13 31  1  0  0  0
 14 15  2  0  0  0
 14101  1  0  0  0
 15102  1  0  0  0
 16 17  2  0  0  0
 16 21  1  0  0  0
 16 31  1  0  0  0
 17 18  1  0  0  0
 17103  1  0  0  0
 18 19  2  0  0  0
 18104  1  0  0  0
 19 20  1  0  0  0
 19 24  1  0  0  0
 20 21  2  0  0  0
 20105  1  0  0  0
 21 23  1  0  0  0
 22 28  1  0  0  0
 22 32  2  0  0  0
 26 27  1  0  0  0
 28106  1  0  0  0
 28107  1  0  0  0
 29108  1  0  0  0
 29109  1  0  0  0
 33 34  1  0  0  0
 33 66  1  0  0  0
 33 70  2  0  0  0
 34 36  1  0  0  0
 34 59  1  0  0  0
 34110  1  0  0  0
 35 44  2  0  0  0
 35 45  1  0  0  0
 35 68  1  0  0  0
 36 56  1  0  0  0
 36111  1  0  0  0
 37 39  1  0  0  0
 37 47  1  0  0  0
 37 66  1  0  0  0
 37112  1  0  0  0
 38 43  2  0  0  0
 38 46  1  0  0  0
 38 47  1  0  0  0
 39 64  1  0  0  0
 39 67  2  0  0  0
 40 52  1  0  0  0
 40 53  2  0  0  0
 40 58  1  0  0  0
 41113  1  0  0  0
 41114  1  0  0  0
 41115  1  0  0  0
 41 48  1  0  0  0
 42 43  1  0  0  0
 42 66  1  0  0  0
 42116  1  0  0  0
 42117  1  0  0  0
 43 44  1  0  0  0
 44118  1  0  0  0
 45 46  2  0  0  0
 45119  1  0  0  0
 46120  1  0  0  0
 47121  1  0  0  0
 47122  1  0  0  0
 48 56  1  0  0  0
 48 65  1  0  0  0
 48123  1  0  0  0
 49 50  1  0  0  0
 49 53  1  0  0  0
 49 64  1  0  0  0
 49124  1  0  0  0
 50 51  1  0  0  0
 50125  1  0  0  0
 50126  1  0  0  0
 51 52  1  0  0  0
 51127  1  0  0  0
 51128  1  0  0  0
 52129  1  0  0  0
 52130  1  0  0  0
 53 54  1  0  0  0
 54 55  2  0  0  0
 54131  1  0  0  0
 55 57  1  0  0  0
 55132  1  0  0  0
 56 69  2  0  0  0
 57 58  2  0  0  0
 57133  1  0  0  0
 58134  1  0  0  0
 59 60  1  0  0  0
 59 61  1  0  0  0
 59 62  1  0  0  0
 60135  1  0  0  0
 60136  1  0  0  0
 60137  1  0  0  0
 61138  1  0  0  0
 61139  1  0  0  0
 61140  1  0  0  0
 62141  1  0  0  0
 62142  1  0  0  0
 62143  1  0  0  0
 63 65  1  0  0  0
 63144  1  0  0  0
 63145  1  0  0  0
 63146  1  0  0  0
 64147  1  0  0  0
 65148  1  0  0  0
 68 84  1  0  0  0
 71 73  1  0  0  0
 71 74  2  0  0  0
 71149  1  0  0  0
 72 73  2  0  0  0
 72 89  1  0  0  0
 72150  1  0  0  0
 73 87  1  0  0  0
 74 83  1  0  0  0
 74 89  1  0  0  0
 75 76  1  0  0  0
 75 77  2  0  0  0
 75 78  1  0  0  0
 76 86  1  0  0  0
 76 88  2  0  0  0
 77 85  1  0  0  0
 77151  1  0  0  0
 78 79  1  0  0  0
 78152  1  0  0  0
 78153  1  0  0  0
 79 80  1  0  0  0
 79154  1  0  0  0
 79155  1  0  0  0
 80 86  1  0  0  0
 80156  1  0  0  0
 80157  1  0  0  0
 81158  1  0  0  0
 81159  1  0  0  0
 81160  1  0  0  0
 81 85  1  0  0  0
 82 85  1  0  0  0
 82161  1  0  0  0
 82162  1  0  0  0
 82163  1  0  0  0
 83 86  1  0  0  0
 83164  1  0  0  0
 83165  1  0  0  0
 84 85  1  0  0  0
 84166  1  0  0  0
 84167  1  0  0  0
 87168  1  0  0  0
M  ISO  4   1 100  68 101  84 101  87 100
M  END
> <chiral flag>
0

> <version>
0

> <s_m_source_file>
/data/baiqing/PycharmProjects/Reinvent-master-3.2/result/LINK_invent/BTK/process_docking_weight1_custom_product_contain_oxygen_bond_distance_aromatic_linkinvent_7_9_3/rearranged_h_0144.sdf

> <i_m_source_file_index>
63

> <r_mmod_Potential_Energy-OPLS-2005>
39.3746795654297

> <r_mmod_Stretch_Energy-OPLS-2005>
35.8823089599609

> <r_mmod_Bend_Energy-OPLS-2005>
111.801162719727

> <r_mmod_Torsional_Energy-OPLS-2005>
288.67529296875

> <r_mmod_Improper_Torsional_Energy-OPLS-2005>
5.07511711120605

> <r_mmod_Van_der_Waal_Energy-OPLS-2005>
156.669647216797

> <r_mmod_Electrostatic_Energy-OPLS-2005>
-344.647430419922

> <r_mmod_Solvation_Energy-OPLS-2005>
-223.845123291016

> <b_mmod_Minimization_Converged-OPLS-2005>
0

> <r_mmod_RMS_Derivative-OPLS-2005>
4.25776624679565

$$$$
63
                    3D
 Structure written by MMmdl.
157165  0  0  1  0            999 V2000
  -30.7721  -14.4167   20.5605 C   0  0  0  0  0  0
  -30.4003  -12.2711   19.4294 C   0  0  0  0  0  0
  -29.4850  -12.4859   18.2082 C   0  0  0  0  0  0
  -28.0079  -12.3576   18.6239 C   0  0  0  0  0  0
  -27.6581  -13.2117   19.8719 C   0  0  2  0  0  0
  -28.7017  -13.0185   20.9980 C   0  0  0  0  0  0
  -25.2563  -13.8183   20.5695 C   0  0  0  0  0  0
  -24.1817  -13.0449   20.9185 C   0  0  0  0  0  0
  -24.6375  -11.6917   20.8729 C   0  0  0  0  0  0
  -23.9039  -10.4299   21.0392 C   0  0  0  0  0  0
  -24.3598   -9.4219   21.9164 C   0  0  0  0  0  0
  -23.6286   -8.2245   22.0741 C   0  0  0  0  0  0
  -22.4273   -8.0274   21.3532 C   0  0  0  0  0  0
  -21.9895   -9.0238   20.4634 C   0  0  0  0  0  0
  -22.7213  -10.2127   20.3042 C   0  0  0  0  0  0
  -21.6845   -6.0729   22.5273 C   0  0  0  0  0  0
  -21.4014   -6.5634   23.8211 C   0  0  0  0  0  0
  -21.3660   -5.6787   24.9170 C   0  0  0  0  0  0
  -21.6049   -4.3049   24.7226 C   0  0  0  0  0  0
  -21.8820   -3.8142   23.4342 C   0  0  0  0  0  0
  -21.9199   -4.6957   22.3402 C   0  0  0  0  0  0
  -22.7846  -13.5239   21.1862 C   0  0  0  0  0  0
  -22.1664   -4.2145   21.0976 F   0  0  0  0  0  0
  -21.5630   -3.4535   25.7735 F   0  0  0  0  0  0
  -30.0400  -13.2772   20.4404 N   0  0  0  0  0  0
  -26.2998  -12.9355   20.3377 N   0  0  0  0  0  0
  -25.9304  -11.6509   20.5782 N   0  0  0  0  0  0
  -22.0495  -12.8209   22.0417 N   0  0  0  0  0  0
  -25.4312  -15.1892   20.4101 N   0  0  0  0  0  0
  -31.8914  -14.5282   20.0556 O   0  0  0  0  0  0
  -21.6642   -6.8865   21.4235 O   0  0  0  0  0  0
  -22.3522  -14.5544   20.6723 O   0  0  0  0  0  0
  -24.6102  -31.8707   23.2121 C   0  0  0  0  0  0
  -25.9015  -32.4829   23.8393 C   0  0  1  0  0  0
  -27.2321  -27.4738   20.0920 C   0  0  0  0  0  0
  -25.5889  -33.8628   24.2324 N   0  0  0  0  0  0
  -23.3962  -30.4946   21.5529 C   0  0  2  0  0  0
  -24.8425  -28.9674   20.1081 C   0  0  0  0  0  0
  -22.7394  -29.4666   22.5009 C   0  0  0  0  0  0
  -18.0265  -28.1369   22.8491 C   0  0  0  0  0  0
  -24.1499  -36.7348   23.2633 C   0  0  0  0  0  0
  -25.9203  -30.8486   21.3584 C   0  0  0  0  0  0
  -25.9993  -29.4885   20.7017 C   0  0  0  0  0  0
  -27.2004  -28.7508   20.6866 C   0  0  0  0  0  0
  -26.0661  -26.9611   19.4869 C   0  0  0  0  0  0
  -24.8689  -27.7019   19.4942 C   0  0  0  0  0  0
  -23.5997  -29.8264   20.1661 C   0  0  0  0  0  0
  -25.4114  -36.3124   24.0325 C   0  0  1  0  0  0
  -20.5855  -28.3651   23.1341 C   0  0  2  0  0  0
  -20.6763  -26.9391   22.5428 C   0  0  0  0  0  0
  -19.5751  -26.6380   21.5219 C   0  0  0  0  0  0
  -18.1926  -26.7913   22.1624 C   0  0  0  0  0  0
  -19.1511  -28.8823   23.2911 C   0  0  0  0  0  0
  -18.9439  -30.1437   23.8909 C   0  0  0  0  0  0
  -17.6441  -30.6575   24.0570 C   0  0  0  0  0  0
  -25.9032  -34.9486   23.5117 C   0  0  0  0  0  0
  -16.5337  -29.9072   23.6334 C   0  0  0  0  0  0
  -16.7253  -28.6498   23.0337 C   0  0  0  0  0  0
  -26.4453  -31.6594   25.0707 C   0  0  0  0  0  0
  -25.3747  -31.3705   26.1476 C   0  0  0  0  0  0
  -27.0260  -30.3034   24.6060 C   0  0  0  0  0  0
  -27.6033  -32.4315   25.7476 C   0  0  0  0  0  0
  -27.5585  -37.1832   24.8452 C   0  0  0  0  0  0
  -21.4124  -29.3019   22.3747 N   0  0  0  0  0  0
  -26.4307  -37.3800   23.9385 N   0  0  0  0  0  0
  -24.6607  -31.0839   22.1004 N   0  0  0  0  0  0
  -23.4185  -28.8220   23.3043 O   0  0  0  0  0  0
  -28.3730  -26.7116   20.1465 O   0  0  0  0  0  0
  -26.5603  -34.8942   22.4683 O   0  0  0  0  0  0
  -23.5317  -32.1419   23.7572 O   0  0  0  0  0  0
  -30.3176  -17.7398   22.2040 C   0  0  0  0  0  0
  -31.4628  -17.3625   20.1994 C   0  0  0  0  0  0
  -30.6646  -16.8108   21.1766 C   0  0  0  0  0  0
  -30.9071  -18.9676   22.0135 C   0  0  0  0  0  0
  -30.0806  -22.2770   21.8015 C   0  0  0  0  0  0
  -28.3080  -26.1592   22.5186 C   0  0  0  0  0  0
  -28.9435  -23.2057   21.3846 C   0  0  0  0  0  0
  -29.6693  -20.9796   22.5102 C   0  0  0  0  0  0
  -29.3645  -24.5850   20.8294 C   0  0  0  0  0  0
  -28.2601  -25.6242   21.0732 C   0  0  2  0  0  0
  -30.1862  -15.4604   21.1748 N   0  0  0  0  0  0
  -30.8113  -20.1148   22.7886 N   0  0  0  0  0  0
  -31.2697  -22.5414   21.5887 O   0  0  0  0  0  0
  -31.8599  -19.0157   20.5543 S   0  0  0  0  0  0
  -31.4483  -12.3186   19.1286 H   0  0  0  0  0  0
  -30.2601  -11.2708   19.8417 H   0  0  0  0  0  0
  -29.7174  -11.7573   17.4304 H   0  0  0  0  0  0
  -29.6631  -13.4697   17.7713 H   0  0  0  0  0  0
  -27.8161  -11.3040   18.8324 H   0  0  0  0  0  0
  -27.3553  -12.6249   17.7915 H   0  0  0  0  0  0
  -27.6965  -14.2562   19.5597 H   0  0  0  0  0  0
  -28.6595  -11.9972   21.3808 H   0  0  0  0  0  0
  -28.4738  -13.6603   21.8491 H   0  0  0  0  0  0
  -25.2745   -9.5707   22.4727 H   0  0  0  0  0  0
  -24.0012   -7.4642   22.7447 H   0  0  0  0  0  0
  -21.0832   -8.8738   19.8929 H   0  0  0  0  0  0
  -22.3659  -10.9654   19.6142 H   0  0  0  0  0  0
  -21.1998   -7.6142   23.9715 H   0  0  0  0  0  0
  -21.1482   -6.0512   25.9074 H   0  0  0  0  0  0
  -22.0603   -2.7605   23.2845 H   0  0  0  0  0  0
  -22.4131  -11.9867   22.4790 H   0  0  0  0  0  0
  -21.1107  -13.1207   22.2621 H   0  0  0  0  0  0
  -24.6725  -15.8547   20.5178 H   0  0  0  0  0  0
  -26.2937  -15.6212   20.0995 H   0  0  0  0  0  0
  -26.7087  -32.5567   23.1169 H   0  0  0  0  0  0
  -25.0016  -33.9767   25.0452 H   0  0  0  0  0  0
  -22.6825  -31.3104   21.4185 H   0  0  0  0  0  0
  -23.3747  -35.9696   23.3311 H   0  0  0  0  0  0
  -24.3602  -36.8963   22.2048 H   0  0  0  0  0  0
  -23.7277  -37.6570   23.6639 H   0  0  0  0  0  0
  -26.0275  -31.6198   20.5949 H   0  0  0  0  0  0
  -26.8118  -30.8996   21.9729 H   0  0  0  0  0  0
  -28.0914  -29.1412   21.1564 H   0  0  0  0  0  0
  -26.0843  -25.9866   19.0225 H   0  0  0  0  0  0
  -23.9795  -27.2949   19.0325 H   0  0  0  0  0  0
  -23.6941  -30.6024   19.4049 H   0  0  0  0  0  0
  -22.7270  -29.2368   19.8776 H   0  0  0  0  0  0
  -25.1300  -36.1984   25.0818 H   0  0  0  0  0  0
  -20.9929  -28.3205   24.1472 H   0  0  0  0  0  0
  -20.5683  -26.2246   23.3602 H   0  0  0  0  0  0
  -21.6634  -26.7450   22.1221 H   0  0  0  0  0  0
  -19.6912  -25.6297   21.1235 H   0  0  0  0  0  0
  -19.6701  -27.3208   20.6771 H   0  0  0  0  0  0
  -17.4200  -26.6668   21.4023 H   0  0  0  0  0  0
  -18.0325  -26.0045   22.9012 H   0  0  0  0  0  0
  -19.7912  -30.7260   24.2276 H   0  0  0  0  0  0
  -17.4990  -31.6259   24.5166 H   0  0  0  0  0  0
  -15.5332  -30.2970   23.7649 H   0  0  0  0  0  0
  -15.8664  -28.0831   22.7016 H   0  0  0  0  0  0
  -24.5908  -30.7049   25.7846 H   0  0  0  0  0  0
  -24.8942  -32.2855   26.4950 H   0  0  0  0  0  0
  -25.8118  -30.8875   27.0222 H   0  0  0  0  0  0
  -26.2785  -29.6850   24.1067 H   0  0  0  0  0  0
  -27.3988  -29.7210   25.4499 H   0  0  0  0  0  0
  -27.8643  -30.4382   23.9221 H   0  0  0  0  0  0
  -27.2640  -33.3601   26.2099 H   0  0  0  0  0  0
  -28.3814  -32.6914   25.0278 H   0  0  0  0  0  0
  -28.0725  -31.8409   26.5363 H   0  0  0  0  0  0
  -28.2603  -38.0132   24.7486 H   0  0  0  0  0  0
  -28.1083  -36.2656   24.6287 H   0  0  0  0  0  0
  -27.2294  -37.1497   25.8856 H   0  0  0  0  0  0
  -20.9267  -29.8743   21.6981 H   0  0  0  0  0  0
  -26.0202  -38.2888   24.1361 H   0  0  0  0  0  0
  -29.6831  -17.4762   23.0383 H   0  0  0  0  0  0
  -31.8649  -16.9121   19.2998 H   0  0  0  0  0  0
  -28.2853  -25.3499   23.2465 H   0  0  0  0  0  0
  -27.4609  -26.8071   22.7422 H   0  0  0  0  0  0
  -29.2158  -26.7335   22.6997 H   0  0  0  0  0  0
  -28.3175  -23.3336   22.2674 H   0  0  0  0  0  0
  -28.3265  -22.6878   20.6496 H   0  0  0  0  0  0
  -29.1694  -21.2326   23.4458 H   0  0  0  0  0  0
  -28.9363  -20.4662   21.8862 H   0  0  0  0  0  0
  -30.2990  -24.9359   21.2693 H   0  0  0  0  0  0
  -29.5494  -24.4895   19.7590 H   0  0  0  0  0  0
  -27.3059  -25.1165   20.9241 H   0  0  0  0  0  0
  -29.3193  -15.2706   21.6566 H   0  0  0  0  0  0
  -31.6400  -20.6921   22.6384 H   0  0  0  0  0  0
  1 25  1  0  0  0
  1 30  2  0  0  0
  1 81  1  0  0  0
  2  3  1  0  0  0
  2 25  1  0  0  0
  2 85  1  0  0  0
  2 86  1  0  0  0
  3  4  1  0  0  0
  3 87  1  0  0  0
  3 88  1  0  0  0
  4  5  1  0  0  0
  4 89  1  0  0  0
  4 90  1  0  0  0
  5  6  1  0  0  0
  5 26  1  0  0  0
  5 91  1  0  0  0
  6 25  1  0  0  0
  6 92  1  0  0  0
  6 93  1  0  0  0
  7  8  2  0  0  0
  7 26  1  0  0  0
  7 29  1  0  0  0
  8  9  1  0  0  0
  8 22  1  0  0  0
  9 10  1  0  0  0
  9 27  2  0  0  0
 10 11  2  0  0  0
 10 15  1  0  0  0
 11 12  1  0  0  0
 11 94  1  0  0  0
 12 13  2  0  0  0
 12 95  1  0  0  0
 13 14  1  0  0  0
 13 31  1  0  0  0
 14 15  2  0  0  0
 14 96  1  0  0  0
 15 97  1  0  0  0
 16 17  2  0  0  0
 16 21  1  0  0  0
 16 31  1  0  0  0
 17 18  1  0  0  0
 17 98  1  0  0  0
 18 19  2  0  0  0
 18 99  1  0  0  0
 19 20  1  0  0  0
 19 24  1  0  0  0
 20 21  2  0  0  0
 20100  1  0  0  0
 21 23  1  0  0  0
 22 28  1  0  0  0
 22 32  2  0  0  0
 26 27  1  0  0  0
 28101  1  0  0  0
 28102  1  0  0  0
 29103  1  0  0  0
 29104  1  0  0  0
 33 34  1  0  0  0
 33 66  1  0  0  0
 33 70  2  0  0  0
 34 36  1  0  0  0
 34 59  1  0  0  0
 34105  1  0  0  0
 35 44  2  0  0  0
 35 45  1  0  0  0
 35 68  1  0  0  0
 36 56  1  0  0  0
 36106  1  0  0  0
 37 39  1  0  0  0
 37 47  1  0  0  0
 37 66  1  0  0  0
 37107  1  0  0  0
 38 43  2  0  0  0
 38 46  1  0  0  0
 38 47  1  0  0  0
 39 64  1  0  0  0
 39 67  2  0  0  0
 40 52  1  0  0  0
 40 53  2  0  0  0
 40 58  1  0  0  0
 41108  1  0  0  0
 41109  1  0  0  0
 41110  1  0  0  0
 41 48  1  0  0  0
 42 43  1  0  0  0
 42 66  1  0  0  0
 42111  1  0  0  0
 42112  1  0  0  0
 43 44  1  0  0  0
 44113  1  0  0  0
 45 46  2  0  0  0
 45114  1  0  0  0
 46115  1  0  0  0
 47116  1  0  0  0
 47117  1  0  0  0
 48 56  1  0  0  0
 48 65  1  0  0  0
 48118  1  0  0  0
 49 50  1  0  0  0
 49 53  1  0  0  0
 49 64  1  0  0  0
 49119  1  0  0  0
 50 51  1  0  0  0
 50120  1  0  0  0
 50121  1  0  0  0
 51 52  1  0  0  0
 51122  1  0  0  0
 51123  1  0  0  0
 52124  1  0  0  0
 52125  1  0  0  0
 53 54  1  0  0  0
 54 55  2  0  0  0
 54126  1  0  0  0
 55 57  1  0  0  0
 55127  1  0  0  0
 56 69  2  0  0  0
 57 58  2  0  0  0
 57128  1  0  0  0
 58129  1  0  0  0
 59 60  1  0  0  0
 59 61  1  0  0  0
 59 62  1  0  0  0
 60130  1  0  0  0
 60131  1  0  0  0
 60132  1  0  0  0
 61133  1  0  0  0
 61134  1  0  0  0
 61135  1  0  0  0
 62136  1  0  0  0
 62137  1  0  0  0
 62138  1  0  0  0
 63 65  1  0  0  0
 63139  1  0  0  0
 63140  1  0  0  0
 63141  1  0  0  0
 64142  1  0  0  0
 65143  1  0  0  0
 68 80  1  0  0  0
 71 73  1  0  0  0
 71 74  2  0  0  0
 71144  1  0  0  0
 72 73  2  0  0  0
 72 84  1  0  0  0
 72145  1  0  0  0
 73 81  1  0  0  0
 74 82  1  0  0  0
 74 84  1  0  0  0
 75 77  1  0  0  0
 75 78  1  0  0  0
 75 83  2  0  0  0
 76146  1  0  0  0
 76147  1  0  0  0
 76148  1  0  0  0
 76 80  1  0  0  0
 77 79  1  0  0  0
 77149  1  0  0  0
 77150  1  0  0  0
 78 82  1  0  0  0
 78151  1  0  0  0
 78152  1  0  0  0
 79 80  1  0  0  0
 79153  1  0  0  0
 79154  1  0  0  0
 80155  1  0  0  0
 81156  1  0  0  0
 82157  1  0  0  0
M  ISO  4   1 100  68 101  80 101  81 100
M  END
> <chiral flag>
0

> <version>
0

> <s_m_source_file>
/data/baiqing/PycharmProjects/Reinvent-master-3.2/result/LINK_invent/BTK/process_docking_weight1_custom_product_contain_oxygen_bond_distance_aromatic_linkinvent_7_9_3/rearranged_h_0144.sdf

> <i_m_source_file_index>
64

> <r_mmod_Potential_Energy-OPLS-2005>
-61.2000694274902

> <r_mmod_Stretch_Energy-OPLS-2005>
32.0622138977051

> <r_mmod_Bend_Energy-OPLS-2005>
95.213737487793

> <r_mmod_Torsional_Energy-OPLS-2005>
253.117538452148

> <r_mmod_Improper_Torsional_Energy-OPLS-2005>
8.7771053314209

> <r_mmod_Van_der_Waal_Energy-OPLS-2005>
139.590759277344

> <r_mmod_Electrostatic_Energy-OPLS-2005>
-371.00830078125

> <r_mmod_Solvation_Energy-OPLS-2005>
-233.106033325195

> <b_mmod_Minimization_Converged-OPLS-2005>
0

> <r_mmod_RMS_Derivative-OPLS-2005>
2.27248597145081

$$$$
64
                    3D
 Structure written by MMmdl.
177185  0  0  1  0            999 V2000
  -30.7289  -14.3566   20.5965 C   0  0  0  0  0  0
  -30.4154  -12.2474   19.3937 C   0  0  0  0  0  0
  -29.4857  -12.4944   18.1894 C   0  0  0  0  0  0
  -28.0051  -12.3749   18.6028 C   0  0  0  0  0  0
  -27.6659  -13.1916   19.8783 C   0  0  2  0  0  0
  -28.7025  -12.9178   20.9916 C   0  0  0  0  0  0
  -25.2628  -13.8118   20.5669 C   0  0  0  0  0  0
  -24.1863  -13.0414   20.9153 C   0  0  0  0  0  0
  -24.6386  -11.6882   20.8694 C   0  0  0  0  0  0
  -23.9039  -10.4290   21.0375 C   0  0  0  0  0  0
  -24.3606   -9.4223   21.9159 C   0  0  0  0  0  0
  -23.6277   -8.2263   22.0744 C   0  0  0  0  0  0
  -22.4274   -8.0282   21.3521 C   0  0  0  0  0  0
  -21.9888   -9.0269   20.4637 C   0  0  0  0  0  0
  -22.7211  -10.2147   20.3038 C   0  0  0  0  0  0
  -21.6857   -6.0745   22.5278 C   0  0  0  0  0  0
  -21.4030   -6.5648   23.8214 C   0  0  0  0  0  0
  -21.3657   -5.6800   24.9173 C   0  0  0  0  0  0
  -21.6045   -4.3057   24.7230 C   0  0  0  0  0  0
  -21.8812   -3.8157   23.4353 C   0  0  0  0  0  0
  -21.9190   -4.6968   22.3406 C   0  0  0  0  0  0
  -22.7910  -13.5233   21.1832 C   0  0  0  0  0  0
  -22.1649   -4.2150   21.0987 F   0  0  0  0  0  0
  -21.5622   -3.4535   25.7743 F   0  0  0  0  0  0
  -30.0446  -13.1996   20.4485 N   0  0  0  0  0  0
  -26.3045  -12.9262   20.3345 N   0  0  0  0  0  0
  -25.9314  -11.6434   20.5724 N   0  0  0  0  0  0
  -22.0554  -12.8225   22.0398 N   0  0  0  0  0  0
  -25.4336  -15.1844   20.4155 N   0  0  0  0  0  0
  -31.8522  -14.5519   20.1209 O   0  0  0  0  0  0
  -21.6623   -6.8893   21.4239 O   0  0  0  0  0  0
  -22.3603  -14.5557   20.6718 O   0  0  0  0  0  0
  -24.6121  -31.8694   23.2156 C   0  0  0  0  0  0
  -25.9028  -32.4807   23.8417 C   0  0  1  0  0  0
  -27.2156  -27.4618   20.0776 C   0  0  0  0  0  0
  -25.5891  -33.8606   24.2335 N   0  0  0  0  0  0
  -23.3977  -30.4998   21.5556 C   0  0  2  0  0  0
  -24.8377  -28.9828   20.1047 C   0  0  0  0  0  0
  -22.7410  -29.4656   22.4993 C   0  0  0  0  0  0
  -18.0283  -28.1379   22.8508 C   0  0  0  0  0  0
  -24.1498  -36.7340   23.2637 C   0  0  0  0  0  0
  -25.9266  -30.8402   21.3692 C   0  0  0  0  0  0
  -25.9968  -29.4845   20.7073 C   0  0  0  0  0  0
  -27.1879  -28.7284   20.6961 C   0  0  0  0  0  0
  -26.0430  -26.9864   19.4419 C   0  0  0  0  0  0
  -24.8546  -27.7319   19.4699 C   0  0  0  0  0  0
  -23.6021  -29.8467   20.1652 C   0  0  0  0  0  0
  -25.4110  -36.3102   24.0332 C   0  0  1  0  0  0
  -20.5867  -28.3644   23.1336 C   0  0  2  0  0  0
  -20.6766  -26.9383   22.5426 C   0  0  0  0  0  0
  -19.5738  -26.6390   21.5230 C   0  0  0  0  0  0
  -18.1918  -26.7926   22.1653 C   0  0  0  0  0  0
  -19.1530  -28.8834   23.2920 C   0  0  0  0  0  0
  -18.9452  -30.1445   23.8917 C   0  0  0  0  0  0
  -17.6440  -30.6566   24.0577 C   0  0  0  0  0  0
  -25.9040  -34.9458   23.5129 C   0  0  0  0  0  0
  -16.5334  -29.9079   23.6313 C   0  0  0  0  0  0
  -16.7271  -28.6508   23.0321 C   0  0  0  0  0  0
  -26.4480  -31.6572   25.0724 C   0  0  0  0  0  0
  -25.3780  -31.3626   26.1499 C   0  0  0  0  0  0
  -27.0297  -30.3022   24.6047 C   0  0  0  0  0  0
  -27.6077  -32.4273   25.7453 C   0  0  0  0  0  0
  -27.5580  -37.1826   24.8454 C   0  0  0  0  0  0
  -21.4137  -29.3015   22.3745 N   0  0  0  0  0  0
  -26.4302  -37.3779   23.9391 N   0  0  0  0  0  0
  -24.6636  -31.0827   22.1052 N   0  0  0  0  0  0
  -23.4212  -28.8194   23.3001 O   0  0  0  0  0  0
  -28.3789  -26.7296   20.1513 O   0  0  0  0  0  0
  -26.5610  -34.8902   22.4695 O   0  0  0  0  0  0
  -23.5309  -32.1438   23.7565 O   0  0  0  0  0  0
  -29.3249  -17.2766   19.8810 C   0  0  0  0  0  0
  -29.8235  -18.5514   19.4943 C   0  0  0  0  0  0
  -30.1676  -16.6071   20.7311 C   0  0  0  0  0  0
  -30.9983  -18.8745   20.1263 C   0  0  0  0  0  0
  -30.3010  -21.1953   21.9117 C   0  0  0  0  0  0
  -27.6717  -23.0451   21.0254 C   0  0  0  0  0  0
  -28.9736  -24.7531   22.4307 C   0  0  0  0  0  0
  -26.5330  -25.1019   21.9845 C   0  0  0  0  0  0
  -28.1494  -21.7286   24.1629 C   0  0  0  0  0  0
  -26.8428  -19.8771   23.2661 C   0  0  0  0  0  0
  -28.9805  -20.4107   22.1011 C   0  0  0  0  0  0
  -30.9008  -21.2599   20.4920 C   0  0  0  0  0  0
  -28.2922  -25.3011   20.0752 C   0  0  0  0  0  0
  -26.8918  -22.0481   21.9302 C   0  0  1  0  0  0
  -27.8541  -24.5526   21.3882 C   0  0  0  0  0  0
  -27.7510  -21.0623   22.8261 C   0  0  0  0  0  0
  -30.0253  -15.3404   21.1650 N   0  0  0  0  0  0
  -31.6816  -20.0814   20.1260 N   0  0  0  0  0  0
  -26.0623  -21.2966   20.9645 N   0  3  0  0  0  0
  -30.9181  -21.6707   22.8658 O   0  0  0  0  0  0
  -28.1335  -22.6271   19.9591 O   0  0  0  0  0  0
  -31.5566  -17.5827   21.1439 S   0  0  0  0  0  0
  -31.4587  -12.3421   19.0885 H   0  0  0  0  0  0
  -30.3050  -11.2240   19.7541 H   0  0  0  0  0  0
  -29.7089  -11.7809   17.3936 H   0  0  0  0  0  0
  -29.6731  -13.4853   17.7722 H   0  0  0  0  0  0
  -27.8012  -11.3193   18.7834 H   0  0  0  0  0  0
  -27.3559  -12.6742   17.7783 H   0  0  0  0  0  0
  -27.7247  -14.2462   19.6109 H   0  0  0  0  0  0
  -28.6562  -11.8711   21.2946 H   0  0  0  0  0  0
  -28.4716  -13.4876   21.8941 H   0  0  0  0  0  0
  -25.2763   -9.5702   22.4709 H   0  0  0  0  0  0
  -23.9975   -7.4682   22.7515 H   0  0  0  0  0  0
  -21.0784   -8.8810   19.8978 H   0  0  0  0  0  0
  -22.3663  -10.9702   19.6158 H   0  0  0  0  0  0
  -21.2022   -7.6161   23.9711 H   0  0  0  0  0  0
  -21.1473   -6.0533   25.9067 H   0  0  0  0  0  0
  -22.0580   -2.7615   23.2865 H   0  0  0  0  0  0
  -22.4196  -11.9909   22.4806 H   0  0  0  0  0  0
  -21.1187  -13.1288   22.2653 H   0  0  0  0  0  0
  -26.2709  -15.6294   20.0640 H   0  0  0  0  0  0
  -24.6708  -15.8359   20.5606 H   0  0  0  0  0  0
  -26.7082  -32.5513   23.1165 H   0  0  0  0  0  0
  -24.9970  -33.9757   25.0434 H   0  0  0  0  0  0
  -22.6827  -31.3162   21.4246 H   0  0  0  0  0  0
  -23.3721  -35.9717   23.3308 H   0  0  0  0  0  0
  -24.3613  -36.8946   22.2053 H   0  0  0  0  0  0
  -23.7301  -37.6569   23.6650 H   0  0  0  0  0  0
  -26.0427  -31.6112   20.6066 H   0  0  0  0  0  0
  -26.8154  -30.8836   21.9864 H   0  0  0  0  0  0
  -28.0784  -29.1044   21.1813 H   0  0  0  0  0  0
  -26.0022  -26.0448   18.9169 H   0  0  0  0  0  0
  -23.9664  -27.3478   18.9891 H   0  0  0  0  0  0
  -23.7113  -30.6291   19.4130 H   0  0  0  0  0  0
  -22.7239  -29.2705   19.8636 H   0  0  0  0  0  0
  -25.1287  -36.1967   25.0824 H   0  0  0  0  0  0
  -20.9970  -28.3200   24.1456 H   0  0  0  0  0  0
  -20.5676  -26.2243   23.3613 H   0  0  0  0  0  0
  -21.6636  -26.7415   22.1209 H   0  0  0  0  0  0
  -19.6883  -25.6320   21.1217 H   0  0  0  0  0  0
  -19.6671  -27.3244   20.6795 H   0  0  0  0  0  0
  -17.4187  -26.6677   21.4054 H   0  0  0  0  0  0
  -18.0307  -26.0076   22.9054 H   0  0  0  0  0  0
  -19.7909  -30.7281   24.2280 H   0  0  0  0  0  0
  -17.4974  -31.6247   24.5190 H   0  0  0  0  0  0
  -15.5328  -30.2973   23.7619 H   0  0  0  0  0  0
  -15.8684  -28.0843   22.6969 H   0  0  0  0  0  0
  -24.5981  -30.6940   25.7839 H   0  0  0  0  0  0
  -24.8953  -32.2751   26.4987 H   0  0  0  0  0  0
  -25.8184  -30.8786   27.0232 H   0  0  0  0  0  0
  -26.2802  -29.6766   24.1182 H   0  0  0  0  0  0
  -27.4180  -29.7246   25.4443 H   0  0  0  0  0  0
  -27.8596  -30.4346   23.9110 H   0  0  0  0  0  0
  -27.2728  -33.3551   26.2093 H   0  0  0  0  0  0
  -28.3848  -32.6851   25.0249 H   0  0  0  0  0  0
  -28.0812  -31.8373   26.5307 H   0  0  0  0  0  0
  -28.2598  -38.0116   24.7463 H   0  0  0  0  0  0
  -28.1071  -36.2641   24.6320 H   0  0  0  0  0  0
  -27.2302  -37.1531   25.8859 H   0  0  0  0  0  0
  -20.9283  -29.8767   21.7003 H   0  0  0  0  0  0
  -26.0182  -38.2862   24.1360 H   0  0  0  0  0  0
  -28.3933  -16.8881   19.4925 H   0  0  0  0  0  0
  -29.2769  -19.1932   18.8182 H   0  0  0  0  0  0
  -28.6270  -24.5574   23.4441 H   0  0  0  0  0  0
  -29.3266  -25.7845   22.4338 H   0  0  0  0  0  0
  -29.8440  -24.1292   22.2271 H   0  0  0  0  0  0
  -26.2693  -24.6290   22.9299 H   0  0  0  0  0  0
  -25.6903  -24.9772   21.3047 H   0  0  0  0  0  0
  -26.6141  -26.1595   22.2278 H   0  0  0  0  0  0
  -28.6335  -21.0129   24.8297 H   0  0  0  0  0  0
  -27.2796  -22.1165   24.6967 H   0  0  0  0  0  0
  -28.8499  -22.5455   24.0430 H   0  0  0  0  0  0
  -27.3520  -19.2215   23.9736 H   0  0  0  0  0  0
  -26.5457  -19.2367   22.4346 H   0  0  0  0  0  0
  -25.9345  -20.2200   23.7668 H   0  0  0  0  0  0
  -29.2716  -19.5102   22.6426 H   0  0  0  0  0  0
  -28.6553  -20.0628   21.1244 H   0  0  0  0  0  0
  -31.5251  -22.1506   20.4069 H   0  0  0  0  0  0
  -30.1056  -21.3757   19.7592 H   0  0  0  0  0  0
  -27.7195  -24.9827   19.2049 H   0  0  0  0  0  0
  -29.3070  -24.9818   19.8296 H   0  0  0  0  0  0
  -26.1993  -22.5811   22.5795 H   0  0  0  0  0  0
  -29.1080  -15.0631   21.4852 H   0  0  0  0  0  0
  -32.2592  -20.2260   19.3009 H   0  0  0  0  0  0
  -25.6016  -20.5245   21.4104 H   0  0  0  0  0  0
  -26.6528  -20.9719   20.2164 H   0  0  0  0  0  0
  -25.3701  -21.8988   20.5547 H   0  0  0  0  0  0
  1 25  1  0  0  0
  1 30  2  0  0  0
  1 87  1  0  0  0
  2  3  1  0  0  0
  2 25  1  0  0  0
  2 93  1  0  0  0
  2 94  1  0  0  0
  3  4  1  0  0  0
  3 95  1  0  0  0
  3 96  1  0  0  0
  4  5  1  0  0  0
  4 97  1  0  0  0
  4 98  1  0  0  0
  5  6  1  0  0  0
  5 26  1  0  0  0
  5 99  1  0  0  0
  6 25  1  0  0  0
  6100  1  0  0  0
  6101  1  0  0  0
  7  8  2  0  0  0
  7 26  1  0  0  0
  7 29  1  0  0  0
  8  9  1  0  0  0
  8 22  1  0  0  0
  9 10  1  0  0  0
  9 27  2  0  0  0
 10 11  2  0  0  0
 10 15  1  0  0  0
 11 12  1  0  0  0
 11102  1  0  0  0
 12 13  2  0  0  0
 12103  1  0  0  0
 13 14  1  0  0  0
 13 31  1  0  0  0
 14 15  2  0  0  0
 14104  1  0  0  0
 15105  1  0  0  0
 16 17  2  0  0  0
 16 21  1  0  0  0
 16 31  1  0  0  0
 17 18  1  0  0  0
 17106  1  0  0  0
 18 19  2  0  0  0
 18107  1  0  0  0
 19 20  1  0  0  0
 19 24  1  0  0  0
 20 21  2  0  0  0
 20108  1  0  0  0
 21 23  1  0  0  0
 22 28  1  0  0  0
 22 32  2  0  0  0
 26 27  1  0  0  0
 28109  1  0  0  0
 28110  1  0  0  0
 29111  1  0  0  0
 29112  1  0  0  0
 33 34  1  0  0  0
 33 66  1  0  0  0
 33 70  2  0  0  0
 34 36  1  0  0  0
 34 59  1  0  0  0
 34113  1  0  0  0
 35 44  2  0  0  0
 35 45  1  0  0  0
 35 68  1  0  0  0
 36 56  1  0  0  0
 36114  1  0  0  0
 37 39  1  0  0  0
 37 47  1  0  0  0
 37 66  1  0  0  0
 37115  1  0  0  0
 38 43  2  0  0  0
 38 46  1  0  0  0
 38 47  1  0  0  0
 39 64  1  0  0  0
 39 67  2  0  0  0
 40 52  1  0  0  0
 40 53  2  0  0  0
 40 58  1  0  0  0
 41116  1  0  0  0
 41117  1  0  0  0
 41118  1  0  0  0
 41 48  1  0  0  0
 42 43  1  0  0  0
 42 66  1  0  0  0
 42119  1  0  0  0
 42120  1  0  0  0
 43 44  1  0  0  0
 44121  1  0  0  0
 45 46  2  0  0  0
 45122  1  0  0  0
 46123  1  0  0  0
 47124  1  0  0  0
 47125  1  0  0  0
 48 56  1  0  0  0
 48 65  1  0  0  0
 48126  1  0  0  0
 49 50  1  0  0  0
 49 53  1  0  0  0
 49 64  1  0  0  0
 49127  1  0  0  0
 50 51  1  0  0  0
 50128  1  0  0  0
 50129  1  0  0  0
 51 52  1  0  0  0
 51130  1  0  0  0
 51131  1  0  0  0
 52132  1  0  0  0
 52133  1  0  0  0
 53 54  1  0  0  0
 54 55  2  0  0  0
 54134  1  0  0  0
 55 57  1  0  0  0
 55135  1  0  0  0
 56 69  2  0  0  0
 57 58  2  0  0  0
 57136  1  0  0  0
 58137  1  0  0  0
 59 60  1  0  0  0
 59 61  1  0  0  0
 59 62  1  0  0  0
 60138  1  0  0  0
 60139  1  0  0  0
 60140  1  0  0  0
 61141  1  0  0  0
 61142  1  0  0  0
 61143  1  0  0  0
 62144  1  0  0  0
 62145  1  0  0  0
 62146  1  0  0  0
 63 65  1  0  0  0
 63147  1  0  0  0
 63148  1  0  0  0
 63149  1  0  0  0
 64150  1  0  0  0
 65151  1  0  0  0
 68 83  1  0  0  0
 71 72  1  0  0  0
 71 73  2  0  0  0
 71152  1  0  0  0
 72 74  2  0  0  0
 72153  1  0  0  0
 73 87  1  0  0  0
 73 92  1  0  0  0
 74 88  1  0  0  0
 74 92  1  0  0  0
 75 81  1  0  0  0
 75 82  1  0  0  0
 75 90  2  0  0  0
 76 84  1  0  0  0
 76 85  1  0  0  0
 76 91  2  0  0  0
 77154  1  0  0  0
 77155  1  0  0  0
 77156  1  0  0  0
 77 85  1  0  0  0
 78 85  1  0  0  0
 78157  1  0  0  0
 78158  1  0  0  0
 78159  1  0  0  0
 79160  1  0  0  0
 79161  1  0  0  0
 79162  1  0  0  0
 79 86  1  0  0  0
 80 86  1  0  0  0
 80163  1  0  0  0
 80164  1  0  0  0
 80165  1  0  0  0
 81 86  1  0  0  0
 81166  1  0  0  0
 81167  1  0  0  0
 82 88  1  0  0  0
 82168  1  0  0  0
 82169  1  0  0  0
 83 85  1  0  0  0
 83170  1  0  0  0
 83171  1  0  0  0
 84 86  1  0  0  0
 84 89  1  0  0  0
 84172  1  0  0  0
 87173  1  0  0  0
 88174  1  0  0  0
 89175  1  0  0  0
 89176  1  0  0  0
 89177  1  0  0  0
M  CHG  1  89   1
M  ISO  4   1 100  68 101  83 101  87 100
M  END
> <chiral flag>
0

> <version>
0

> <s_m_source_file>
/data/baiqing/PycharmProjects/Reinvent-master-3.2/result/LINK_invent/BTK/process_docking_weight1_custom_product_contain_oxygen_bond_distance_aromatic_linkinvent_7_9_3/rearranged_h_0144.sdf

> <i_m_source_file_index>
65

> <r_mmod_Potential_Energy-OPLS-2005>
-198.99284362793

> <r_mmod_Stretch_Energy-OPLS-2005>
43.2740898132324

> <r_mmod_Bend_Energy-OPLS-2005>
137.601577758789

> <r_mmod_Torsional_Energy-OPLS-2005>
267.080535888672

> <r_mmod_Improper_Torsional_Energy-OPLS-2005>
11.7057752609253

> <r_mmod_Van_der_Waal_Energy-OPLS-2005>
161.504806518555

> <r_mmod_Electrostatic_Energy-OPLS-2005>
-288.283935546875

> <r_mmod_Solvation_Energy-OPLS-2005>
-544.717834472656

> <b_mmod_Minimization_Converged-OPLS-2005>
0

> <r_mmod_RMS_Derivative-OPLS-2005>
3.38337111473083

$$$$
65
                    3D
 Structure written by MMmdl.
172180  0  0  1  0            999 V2000
  -30.7414  -14.3179   20.7512 C   0  0  0  0  0  0
  -30.4324  -12.2921   19.3716 C   0  0  0  0  0  0
  -29.4781  -12.5280   18.1834 C   0  0  0  0  0  0
  -28.0064  -12.3686   18.6072 C   0  0  0  0  0  0
  -27.6700  -13.1865   19.8778 C   0  0  2  0  0  0
  -28.7007  -12.8854   20.9868 C   0  0  0  0  0  0
  -25.2663  -13.8132   20.5638 C   0  0  0  0  0  0
  -24.1859  -13.0429   20.9145 C   0  0  0  0  0  0
  -24.6392  -11.6902   20.8736 C   0  0  0  0  0  0
  -23.9048  -10.4271   21.0418 C   0  0  0  0  0  0
  -24.3601   -9.4173   21.9196 C   0  0  0  0  0  0
  -23.6263   -8.2221   22.0763 C   0  0  0  0  0  0
  -22.4258   -8.0268   21.3541 C   0  0  0  0  0  0
  -21.9891   -9.0241   20.4653 C   0  0  0  0  0  0
  -22.7224  -10.2112   20.3050 C   0  0  0  0  0  0
  -21.6851   -6.0719   22.5269 C   0  0  0  0  0  0
  -21.4015   -6.5627   23.8191 C   0  0  0  0  0  0
  -21.3652   -5.6784   24.9169 C   0  0  0  0  0  0
  -21.6053   -4.3043   24.7228 C   0  0  0  0  0  0
  -21.8824   -3.8124   23.4352 C   0  0  0  0  0  0
  -21.9192   -4.6949   22.3403 C   0  0  0  0  0  0
  -22.7886  -13.5242   21.1834 C   0  0  0  0  0  0
  -22.1659   -4.2124   21.0985 F   0  0  0  0  0  0
  -21.5641   -3.4536   25.7747 F   0  0  0  0  0  0
  -30.0551  -13.1834   20.4743 N   0  0  0  0  0  0
  -26.3053  -12.9244   20.3339 N   0  0  0  0  0  0
  -25.9297  -11.6421   20.5743 N   0  0  0  0  0  0
  -22.0525  -12.8219   22.0402 N   0  0  0  0  0  0
  -25.4464  -15.1823   20.4055 N   0  0  0  0  0  0
  -31.7098  -14.7167   20.0904 O   0  0  0  0  0  0
  -21.6639   -6.8855   21.4221 O   0  0  0  0  0  0
  -22.3572  -14.5550   20.6719 O   0  0  0  0  0  0
  -24.6122  -31.8652   23.2069 C   0  0  0  0  0  0
  -25.9052  -32.4789   23.8340 C   0  0  1  0  0  0
  -27.2585  -27.4556   20.1065 C   0  0  0  0  0  0
  -25.5922  -33.8584   24.2270 N   0  0  0  0  0  0
  -23.3979  -30.4873   21.5457 C   0  0  2  0  0  0
  -24.8462  -28.9371   20.1216 C   0  0  0  0  0  0
  -22.7379  -29.4680   22.4988 C   0  0  0  0  0  0
  -18.0280  -28.1382   22.8476 C   0  0  0  0  0  0
  -24.1509  -36.7316   23.2625 C   0  0  0  0  0  0
  -25.9200  -30.8334   21.3522 C   0  0  0  0  0  0
  -25.9966  -29.4638   20.7165 C   0  0  0  0  0  0
  -27.1966  -28.7252   20.7131 C   0  0  0  0  0  0
  -26.0915  -26.9365   19.4905 C   0  0  0  0  0  0
  -24.8864  -27.6695   19.5097 C   0  0  0  0  0  0
  -23.6050  -29.8012   20.1659 C   0  0  0  0  0  0
  -25.4123  -36.3049   24.0297 C   0  0  1  0  0  0
  -20.5868  -28.3684   23.1260 C   0  0  2  0  0  0
  -20.6766  -26.9429   22.5351 C   0  0  0  0  0  0
  -19.5745  -26.6403   21.5145 C   0  0  0  0  0  0
  -18.1944  -26.7925   22.1600 C   0  0  0  0  0  0
  -19.1530  -28.8848   23.2880 C   0  0  0  0  0  0
  -18.9457  -30.1451   23.8899 C   0  0  0  0  0  0
  -17.6473  -30.6576   24.0584 C   0  0  0  0  0  0
  -25.9039  -34.9441   23.5072 C   0  0  0  0  0  0
  -16.5368  -29.9092   23.6316 C   0  0  0  0  0  0
  -16.7279  -28.6508   23.0325 C   0  0  0  0  0  0
  -26.4508  -31.6544   25.0655 C   0  0  0  0  0  0
  -25.3824  -31.3627   26.1443 C   0  0  0  0  0  0
  -27.0281  -30.2983   24.5930 C   0  0  0  0  0  0
  -27.6052  -32.4289   25.7447 C   0  0  0  0  0  0
  -27.5571  -37.1814   24.8467 C   0  0  0  0  0  0
  -21.4132  -29.3066   22.3705 N   0  0  0  0  0  0
  -26.4293  -37.3741   23.9401 N   0  0  0  0  0  0
  -24.6607  -31.0804   22.0923 N   0  0  0  0  0  0
  -23.4158  -28.8218   23.3023 O   0  0  0  0  0  0
  -28.4725  -26.8046   20.1461 O   0  0  0  0  0  0
  -26.5612  -34.8891   22.4645 O   0  0  0  0  0  0
  -23.5337  -32.1440   23.7481 O   0  0  0  0  0  0
  -30.2267  -17.2461   21.1933 C   0  0  0  0  0  0
  -29.1709  -16.5249   23.2602 C   0  0  0  0  0  0
  -29.0154  -18.8593   22.5619 C   0  0  0  0  0  0
  -29.9359  -16.2193   22.1108 C   0  0  0  0  0  0
  -29.7776  -18.5582   21.4129 C   0  0  0  0  0  0
  -28.7175  -17.8392   23.4859 C   0  0  0  0  0  0
  -30.6319  -21.6936   18.3365 C   0  0  0  0  0  0
  -29.2471  -25.1108   18.5964 C   0  0  0  0  0  0
  -27.9292  -22.8821   18.5251 C   0  0  0  0  0  0
  -28.4845  -24.1211   16.4535 C   0  0  0  0  0  0
  -32.6226  -20.9567   19.7325 C   0  0  0  0  0  0
  -30.4090  -23.0638   17.6781 C   0  0  0  0  0  0
  -28.5411  -25.3954   19.9287 C   0  0  0  0  0  0
  -30.3385  -20.8820   20.8075 C   0  0  0  0  0  0
  -29.0192  -23.7646   17.8598 C   0  0  0  0  0  0
  -31.2306  -21.6216   19.7759 C   0  0  2  0  0  0
  -30.3643  -14.8824   21.9094 N   0  0  0  0  0  0
  -30.1330  -19.4892   20.4470 N   0  0  0  0  0  0
  -30.4111  -20.6695   17.6824 O   0  0  0  0  0  0
  -30.0209  -25.9492   18.1193 O   0  0  0  0  0  0
  -31.4319  -22.9143   20.3128 O   0  0  0  0  0  0
  -27.9896  -18.1241   24.5934 F   0  0  0  0  0  0
  -31.4651  -12.4497   19.0527 H   0  0  0  0  0  0
  -30.3782  -11.2557   19.7074 H   0  0  0  0  0  0
  -29.7068  -11.8287   17.3785 H   0  0  0  0  0  0
  -29.6392  -13.5267   17.7763 H   0  0  0  0  0  0
  -27.8234  -11.3082   18.7935 H   0  0  0  0  0  0
  -27.3445  -12.6523   17.7889 H   0  0  0  0  0  0
  -27.7438  -14.2443   19.6232 H   0  0  0  0  0  0
  -28.6581  -11.8315   21.2688 H   0  0  0  0  0  0
  -28.4211  -13.4263   21.8895 H   0  0  0  0  0  0
  -25.2739   -9.5675   22.4776 H   0  0  0  0  0  0
  -23.9974   -7.4631   22.7485 H   0  0  0  0  0  0
  -21.0815   -8.8757   19.8970 H   0  0  0  0  0  0
  -22.3668  -10.9661   19.6164 H   0  0  0  0  0  0
  -21.1990   -7.6130   23.9688 H   0  0  0  0  0  0
  -21.1481   -6.0526   25.9075 H   0  0  0  0  0  0
  -22.0616   -2.7588   23.2866 H   0  0  0  0  0  0
  -22.4108  -11.9834   22.4711 H   0  0  0  0  0  0
  -21.1173  -13.1294   22.2670 H   0  0  0  0  0  0
  -24.6986  -15.8555   20.5331 H   0  0  0  0  0  0
  -26.3139  -15.6086   20.1061 H   0  0  0  0  0  0
  -26.7133  -32.5515   23.1107 H   0  0  0  0  0  0
  -25.0123  -33.9736   25.0442 H   0  0  0  0  0  0
  -22.6874  -31.3043   21.3973 H   0  0  0  0  0  0
  -23.3690  -35.9728   23.3288 H   0  0  0  0  0  0
  -24.3589  -36.8942   22.2035 H   0  0  0  0  0  0
  -23.7363  -37.6558   23.6661 H   0  0  0  0  0  0
  -26.0169  -31.5765   20.5613 H   0  0  0  0  0  0
  -26.8189  -30.9073   21.9544 H   0  0  0  0  0  0
  -28.0849  -29.1318   21.1776 H   0  0  0  0  0  0
  -26.0937  -25.9851   18.9785 H   0  0  0  0  0  0
  -24.0052  -27.2465   19.0481 H   0  0  0  0  0  0
  -23.7199  -30.5639   19.3960 H   0  0  0  0  0  0
  -22.7313  -29.2147   19.8750 H   0  0  0  0  0  0
  -25.1298  -36.1875   25.0776 H   0  0  0  0  0  0
  -20.9982  -28.3259   24.1371 H   0  0  0  0  0  0
  -20.5585  -26.2347   23.3561 H   0  0  0  0  0  0
  -21.6648  -26.7442   22.1199 H   0  0  0  0  0  0
  -19.6922  -25.6302   21.1193 H   0  0  0  0  0  0
  -19.6644  -27.3183   20.6636 H   0  0  0  0  0  0
  -17.4198  -26.6632   21.4031 H   0  0  0  0  0  0
  -18.0424  -26.0059   22.8990 H   0  0  0  0  0  0
  -19.7943  -30.7263   24.2262 H   0  0  0  0  0  0
  -17.5028  -31.6236   24.5215 H   0  0  0  0  0  0
  -15.5365  -30.3011   23.7589 H   0  0  0  0  0  0
  -15.8689  -28.0820   22.7025 H   0  0  0  0  0  0
  -24.5995  -30.6957   25.7837 H   0  0  0  0  0  0
  -24.9025  -32.2757   26.4943 H   0  0  0  0  0  0
  -25.8251  -30.8801   27.0158 H   0  0  0  0  0  0
  -26.2721  -29.6790   24.1091 H   0  0  0  0  0  0
  -27.4189  -29.7164   25.4279 H   0  0  0  0  0  0
  -27.8499  -30.4279   23.8898 H   0  0  0  0  0  0
  -27.2581  -33.3531   26.2068 H   0  0  0  0  0  0
  -28.3841  -32.6968   25.0305 H   0  0  0  0  0  0
  -28.0745  -31.8425   26.5348 H   0  0  0  0  0  0
  -28.2591  -38.0099   24.7439 H   0  0  0  0  0  0
  -28.1049  -36.2622   24.6352 H   0  0  0  0  0  0
  -27.2284  -37.1529   25.8868 H   0  0  0  0  0  0
  -20.9325  -29.8834   21.6940 H   0  0  0  0  0  0
  -26.0138  -38.2808   24.1359 H   0  0  0  0  0  0
  -30.8063  -17.0466   20.3016 H   0  0  0  0  0  0
  -28.9115  -15.7540   23.9721 H   0  0  0  0  0  0
  -28.6450  -19.8564   22.7460 H   0  0  0  0  0  0
  -27.7632  -21.9609   17.9653 H   0  0  0  0  0  0
  -26.9713  -23.4038   18.5494 H   0  0  0  0  0  0
  -28.1626  -22.5954   19.5501 H   0  0  0  0  0  0
  -28.4683  -23.2555   15.7937 H   0  0  0  0  0  0
  -29.0992  -24.8719   15.9567 H   0  0  0  0  0  0
  -27.4687  -24.5170   16.5021 H   0  0  0  0  0  0
  -32.5646  -19.9140   19.4177 H   0  0  0  0  0  0
  -33.0867  -20.9631   20.7206 H   0  0  0  0  0  0
  -33.2967  -21.4550   19.0355 H   0  0  0  0  0  0
  -31.2191  -23.7191   17.9903 H   0  0  0  0  0  0
  -30.5883  -22.9147   16.6130 H   0  0  0  0  0  0
  -27.5686  -24.9194   20.0044 H   0  0  0  0  0  0
  -29.1527  -24.9589   20.7185 H   0  0  0  0  0  0
  -29.3648  -21.3569   20.9165 H   0  0  0  0  0  0
  -30.8142  -20.9480   21.7879 H   0  0  0  0  0  0
  -29.9154  -14.2208   22.5258 H   0  0  0  0  0  0
  -30.7960  -19.1464   19.7562 H   0  0  0  0  0  0
  -32.2176  -23.2653   19.9097 H   0  0  0  0  0  0
  1 25  1  0  0  0
  1 30  2  0  0  0
  1 87  1  0  0  0
  2  3  1  0  0  0
  2 25  1  0  0  0
  2 93  1  0  0  0
  2 94  1  0  0  0
  3  4  1  0  0  0
  3 95  1  0  0  0
  3 96  1  0  0  0
  4  5  1  0  0  0
  4 97  1  0  0  0
  4 98  1  0  0  0
  5  6  1  0  0  0
  5 26  1  0  0  0
  5 99  1  0  0  0
  6 25  1  0  0  0
  6100  1  0  0  0
  6101  1  0  0  0
  7  8  2  0  0  0
  7 26  1  0  0  0
  7 29  1  0  0  0
  8  9  1  0  0  0
  8 22  1  0  0  0
  9 10  1  0  0  0
  9 27  2  0  0  0
 10 11  2  0  0  0
 10 15  1  0  0  0
 11 12  1  0  0  0
 11102  1  0  0  0
 12 13  2  0  0  0
 12103  1  0  0  0
 13 14  1  0  0  0
 13 31  1  0  0  0
 14 15  2  0  0  0
 14104  1  0  0  0
 15105  1  0  0  0
 16 17  2  0  0  0
 16 21  1  0  0  0
 16 31  1  0  0  0
 17 18  1  0  0  0
 17106  1  0  0  0
 18 19  2  0  0  0
 18107  1  0  0  0
 19 20  1  0  0  0
 19 24  1  0  0  0
 20 21  2  0  0  0
 20108  1  0  0  0
 21 23  1  0  0  0
 22 28  1  0  0  0
 22 32  2  0  0  0
 26 27  1  0  0  0
 28109  1  0  0  0
 28110  1  0  0  0
 29111  1  0  0  0
 29112  1  0  0  0
 33 34  1  0  0  0
 33 66  1  0  0  0
 33 70  2  0  0  0
 34 36  1  0  0  0
 34 59  1  0  0  0
 34113  1  0  0  0
 35 44  2  0  0  0
 35 45  1  0  0  0
 35 68  1  0  0  0
 36 56  1  0  0  0
 36114  1  0  0  0
 37 39  1  0  0  0
 37 47  1  0  0  0
 37 66  1  0  0  0
 37115  1  0  0  0
 38 43  2  0  0  0
 38 46  1  0  0  0
 38 47  1  0  0  0
 39 64  1  0  0  0
 39 67  2  0  0  0
 40 52  1  0  0  0
 40 53  2  0  0  0
 40 58  1  0  0  0
 41116  1  0  0  0
 41117  1  0  0  0
 41118  1  0  0  0
 41 48  1  0  0  0
 42 43  1  0  0  0
 42 66  1  0  0  0
 42119  1  0  0  0
 42120  1  0  0  0
 43 44  1  0  0  0
 44121  1  0  0  0
 45 46  2  0  0  0
 45122  1  0  0  0
 46123  1  0  0  0
 47124  1  0  0  0
 47125  1  0  0  0
 48 56  1  0  0  0
 48 65  1  0  0  0
 48126  1  0  0  0
 49 50  1  0  0  0
 49 53  1  0  0  0
 49 64  1  0  0  0
 49127  1  0  0  0
 50 51  1  0  0  0
 50128  1  0  0  0
 50129  1  0  0  0
 51 52  1  0  0  0
 51130  1  0  0  0
 51131  1  0  0  0
 52132  1  0  0  0
 52133  1  0  0  0
 53 54  1  0  0  0
 54 55  2  0  0  0
 54134  1  0  0  0
 55 57  1  0  0  0
 55135  1  0  0  0
 56 69  2  0  0  0
 57 58  2  0  0  0
 57136  1  0  0  0
 58137  1  0  0  0
 59 60  1  0  0  0
 59 61  1  0  0  0
 59 62  1  0  0  0
 60138  1  0  0  0
 60139  1  0  0  0
 60140  1  0  0  0
 61141  1  0  0  0
 61142  1  0  0  0
 61143  1  0  0  0
 62144  1  0  0  0
 62145  1  0  0  0
 62146  1  0  0  0
 63 65  1  0  0  0
 63147  1  0  0  0
 63148  1  0  0  0
 63149  1  0  0  0
 64150  1  0  0  0
 65151  1  0  0  0
 68 83  1  0  0  0
 71 74  2  0  0  0
 71 75  1  0  0  0
 71152  1  0  0  0
 72 74  1  0  0  0
 72 76  2  0  0  0
 72153  1  0  0  0
 73 75  2  0  0  0
 73 76  1  0  0  0
 73154  1  0  0  0
 74 87  1  0  0  0
 75 88  1  0  0  0
 76 92  1  0  0  0
 77 82  1  0  0  0
 77 89  2  0  0  0
 77 86  1  0  0  0
 78 83  1  0  0  0
 78 85  1  0  0  0
 78 90  2  0  0  0
 79155  1  0  0  0
 79156  1  0  0  0
 79157  1  0  0  0
 79 85  1  0  0  0
 80 85  1  0  0  0
 80158  1  0  0  0
 80159  1  0  0  0
 80160  1  0  0  0
 81161  1  0  0  0
 81162  1  0  0  0
 81163  1  0  0  0
 81 86  1  0  0  0
 82 85  1  0  0  0
 82164  1  0  0  0
 82165  1  0  0  0
 83166  1  0  0  0
 83167  1  0  0  0
 84 86  1  0  0  0
 84 88  1  0  0  0
 84168  1  0  0  0
 84169  1  0  0  0
 86 91  1  0  0  0
 87170  1  0  0  0
 88171  1  0  0  0
 91172  1  0  0  0
M  ISO  4   1 100  68 101  83 101  87 100
M  END
> <chiral flag>
0

> <version>
0

> <s_m_source_file>
/data/baiqing/PycharmProjects/Reinvent-master-3.2/result/LINK_invent/BTK/process_docking_weight1_custom_product_contain_oxygen_bond_distance_aromatic_linkinvent_7_9_3/rearranged_h_0144.sdf

> <i_m_source_file_index>
66

> <r_mmod_Potential_Energy-OPLS-2005>
108.662330627441

> <r_mmod_Stretch_Energy-OPLS-2005>
38.296989440918

> <r_mmod_Bend_Energy-OPLS-2005>
127.662239074707

> <r_mmod_Torsional_Energy-OPLS-2005>
245.420074462891

> <r_mmod_Improper_Torsional_Energy-OPLS-2005>
9.5972728729248

> <r_mmod_Van_der_Waal_Energy-OPLS-2005>
171.68896484375

> <r_mmod_Electrostatic_Energy-OPLS-2005>
-258.204162597656

> <r_mmod_Solvation_Energy-OPLS-2005>
-237.490631103516

> <b_mmod_Minimization_Converged-OPLS-2005>
0

> <r_mmod_RMS_Derivative-OPLS-2005>
5.65453958511353

$$$$
66
                    3D
 Structure written by MMmdl.
170178  0  0  1  0            999 V2000
  -30.7235  -14.4424   20.5743 C   0  0  0  0  0  0
  -30.4279  -12.3035   19.3925 C   0  0  0  0  0  0
  -29.4819  -12.4909   18.1868 C   0  0  0  0  0  0
  -28.0065  -12.3515   18.6131 C   0  0  0  0  0  0
  -27.6669  -13.1776   19.8814 C   0  0  2  0  0  0
  -28.7240  -12.9013   20.9793 C   0  0  0  0  0  0
  -25.2630  -13.8055   20.5658 C   0  0  0  0  0  0
  -24.1852  -13.0389   20.9183 C   0  0  0  0  0  0
  -24.6392  -11.6850   20.8792 C   0  0  0  0  0  0
  -23.9031  -10.4271   21.0447 C   0  0  0  0  0  0
  -24.3592   -9.4188   21.9224 C   0  0  0  0  0  0
  -23.6273   -8.2217   22.0772 C   0  0  0  0  0  0
  -22.4261   -8.0267   21.3549 C   0  0  0  0  0  0
  -21.9895   -9.0244   20.4645 C   0  0  0  0  0  0
  -22.7214  -10.2131   20.3072 C   0  0  0  0  0  0
  -21.6825   -6.0723   22.5276 C   0  0  0  0  0  0
  -21.4002   -6.5626   23.8215 C   0  0  0  0  0  0
  -21.3664   -5.6783   24.9179 C   0  0  0  0  0  0
  -21.6039   -4.3048   24.7234 C   0  0  0  0  0  0
  -21.8810   -3.8134   23.4362 C   0  0  0  0  0  0
  -21.9193   -4.6948   22.3414 C   0  0  0  0  0  0
  -22.7877  -13.5243   21.1820 C   0  0  0  0  0  0
  -22.1651   -4.2123   21.0996 F   0  0  0  0  0  0
  -21.5637   -3.4543   25.7762 F   0  0  0  0  0  0
  -30.0293  -13.2795   20.4228 N   0  0  0  0  0  0
  -26.3059  -12.9177   20.3425 N   0  0  0  0  0  0
  -25.9307  -11.6368   20.5858 N   0  0  0  0  0  0
  -22.0469  -12.8297   22.0377 N   0  0  0  0  0  0
  -25.4339  -15.1746   20.3978 N   0  0  0  0  0  0
  -31.8625  -14.5859   20.1331 O   0  0  0  0  0  0
  -21.6620   -6.8869   21.4239 O   0  0  0  0  0  0
  -22.3603  -14.5532   20.6625 O   0  0  0  0  0  0
  -24.6098  -31.8684   23.2098 C   0  0  0  0  0  0
  -25.9002  -32.4831   23.8385 C   0  0  1  0  0  0
  -27.2270  -27.4413   20.1101 C   0  0  0  0  0  0
  -25.5868  -33.8627   24.2325 N   0  0  0  0  0  0
  -23.3974  -30.4874   21.5520 C   0  0  2  0  0  0
  -24.8443  -28.9564   20.1200 C   0  0  0  0  0  0
  -22.7344  -29.4628   22.5005 C   0  0  0  0  0  0
  -18.0238  -28.1345   22.8467 C   0  0  0  0  0  0
  -24.1488  -36.7303   23.2636 C   0  0  0  0  0  0
  -25.9221  -30.8403   21.3609 C   0  0  0  0  0  0
  -26.0027  -29.4728   20.7132 C   0  0  0  0  0  0
  -27.1975  -28.7201   20.7105 C   0  0  0  0  0  0
  -26.0538  -26.9383   19.5073 C   0  0  0  0  0  0
  -24.8629  -27.6870   19.5163 C   0  0  0  0  0  0
  -23.6080  -29.8198   20.1662 C   0  0  0  0  0  0
  -25.4104  -36.3115   24.0346 C   0  0  1  0  0  0
  -20.5825  -28.3573   23.1290 C   0  0  2  0  0  0
  -20.6705  -26.9322   22.5313 C   0  0  0  0  0  0
  -19.5634  -26.6337   21.5159 C   0  0  0  0  0  0
  -18.1852  -26.7895   22.1627 C   0  0  0  0  0  0
  -19.1493  -28.8790   23.2864 C   0  0  0  0  0  0
  -18.9420  -30.1378   23.8912 C   0  0  0  0  0  0
  -17.6446  -30.6547   24.0547 C   0  0  0  0  0  0
  -25.9023  -34.9486   23.5129 C   0  0  0  0  0  0
  -16.5327  -29.9053   23.6321 C   0  0  0  0  0  0
  -16.7222  -28.6471   23.0326 C   0  0  0  0  0  0
  -26.4467  -31.6615   25.0700 C   0  0  0  0  0  0
  -25.3728  -31.3705   26.1431 C   0  0  0  0  0  0
  -27.0284  -30.3074   24.6035 C   0  0  0  0  0  0
  -27.6049  -32.4309   25.7480 C   0  0  0  0  0  0
  -27.5573  -37.1816   24.8469 C   0  0  0  0  0  0
  -21.4088  -29.2964   22.3722 N   0  0  0  0  0  0
  -26.4285  -37.3799   23.9421 N   0  0  0  0  0  0
  -24.6610  -31.0773   22.1014 N   0  0  0  0  0  0
  -23.4108  -28.8165   23.3060 O   0  0  0  0  0  0
  -28.3928  -26.7125   20.0998 O   0  0  0  0  0  0
  -26.5572  -34.8925   22.4685 O   0  0  0  0  0  0
  -23.5288  -32.1434   23.7489 O   0  0  0  0  0  0
  -28.5035  -19.5120   22.8712 C   0  0  0  0  0  0
  -27.6616  -20.0165   21.8568 C   0  0  0  0  0  0
  -28.9487  -18.1781   22.8381 C   0  0  0  0  0  0
  -27.7579  -17.8627   20.7438 C   0  0  0  0  0  0
  -27.2835  -19.1946   20.7723 C   0  0  0  0  0  0
  -28.5601  -17.3377   21.7796 C   0  0  0  0  0  0
  -28.1157  -24.2914   19.7119 C   0  0  0  0  0  0
  -24.0038  -22.7669   20.4458 C   0  0  0  0  0  0
  -24.8561  -20.9061   18.1954 C   0  0  0  0  0  0
  -26.3581  -19.6168   19.6217 C   0  0  0  0  0  0
  -28.9381  -15.8637   21.7873 C   0  0  0  0  0  0
  -27.4710  -22.9893   20.2138 C   0  0  0  0  0  0
  -28.3008  -25.4258   20.7327 C   0  0  0  0  0  0
  -24.7953  -21.4538   20.6291 C   0  0  0  0  0  0
  -26.8208  -22.1392   19.0900 C   0  0  0  0  0  0
  -25.7483  -21.0541   19.4561 C   0  0  2  0  0  0
  -30.0737  -15.5740   20.9163 N   0  0  0  0  0  0
  -28.4746  -24.4193   18.5362 O   0  0  0  0  0  0
  -31.4672  -12.4079   19.0725 H   0  0  0  0  0  0
  -30.3515  -11.2854   19.7765 H   0  0  0  0  0  0
  -29.7157  -11.7588   17.4113 H   0  0  0  0  0  0
  -29.6418  -13.4709   17.7371 H   0  0  0  0  0  0
  -27.8147  -11.2955   18.8095 H   0  0  0  0  0  0
  -27.3460  -12.6336   17.7933 H   0  0  0  0  0  0
  -27.7191  -14.2268   19.5864 H   0  0  0  0  0  0
  -28.7250  -11.8339   21.2104 H   0  0  0  0  0  0
  -28.5111  -13.3614   21.9412 H   0  0  0  0  0  0
  -25.2735   -9.5641   22.4828 H   0  0  0  0  0  0
  -23.9948   -7.4596   22.7502 H   0  0  0  0  0  0
  -21.0814   -8.8770   19.8958 H   0  0  0  0  0  0
  -22.3675  -10.9682   19.6187 H   0  0  0  0  0  0
  -21.1974   -7.6135   23.9702 H   0  0  0  0  0  0
  -21.1495   -6.0529   25.9085 H   0  0  0  0  0  0
  -22.0593   -2.7595   23.2876 H   0  0  0  0  0  0
  -22.4033  -11.9938   22.4808 H   0  0  0  0  0  0
  -21.1092  -13.1344   22.2526 H   0  0  0  0  0  0
  -24.6683  -15.8267   20.5235 H   0  0  0  0  0  0
  -26.2834  -15.6159   20.0757 H   0  0  0  0  0  0
  -26.7049  -32.5583   23.1131 H   0  0  0  0  0  0
  -25.0101  -33.9840   25.0519 H   0  0  0  0  0  0
  -22.6840  -31.3011   21.4111 H   0  0  0  0  0  0
  -23.3759  -35.9629   23.3317 H   0  0  0  0  0  0
  -24.3574  -36.8891   22.2045 H   0  0  0  0  0  0
  -23.7256  -37.6514   23.6625 H   0  0  0  0  0  0
  -26.0238  -31.6053   20.5898 H   0  0  0  0  0  0
  -26.8120  -30.8979   21.9743 H   0  0  0  0  0  0
  -28.0906  -29.1129   21.1774 H   0  0  0  0  0  0
  -26.0525  -25.9776   19.0151 H   0  0  0  0  0  0
  -23.9705  -27.2866   19.0552 H   0  0  0  0  0  0
  -23.7208  -30.5932   19.4071 H   0  0  0  0  0  0
  -22.7375  -29.2361   19.8657 H   0  0  0  0  0  0
  -25.1300  -36.1972   25.0844 H   0  0  0  0  0  0
  -20.9943  -28.3081   24.1375 H   0  0  0  0  0  0
  -20.5572  -26.2100   23.3406 H   0  0  0  0  0  0
  -21.6584  -26.7323   22.1132 H   0  0  0  0  0  0
  -19.6650  -25.6206   21.1261 H   0  0  0  0  0  0
  -19.6606  -27.3111   20.6643 H   0  0  0  0  0  0
  -17.4077  -26.6696   21.4058 H   0  0  0  0  0  0
  -18.0296  -26.0022   22.9008 H   0  0  0  0  0  0
  -19.7865  -30.7160   24.2407 H   0  0  0  0  0  0
  -17.5027  -31.6236   24.5148 H   0  0  0  0  0  0
  -15.5336  -30.2990   23.7695 H   0  0  0  0  0  0
  -15.8630  -28.0767   22.7050 H   0  0  0  0  0  0
  -24.5909  -30.7067   25.7726 H   0  0  0  0  0  0
  -24.8915  -32.2856   26.4885 H   0  0  0  0  0  0
  -25.8066  -30.8848   27.0180 H   0  0  0  0  0  0
  -26.2806  -29.6857   24.1087 H   0  0  0  0  0  0
  -27.4068  -29.7301   25.4477 H   0  0  0  0  0  0
  -27.8635  -30.4420   23.9155 H   0  0  0  0  0  0
  -27.2685  -33.3584   26.2118 H   0  0  0  0  0  0
  -28.3841  -32.6899   25.0308 H   0  0  0  0  0  0
  -28.0711  -31.8378   26.5354 H   0  0  0  0  0  0
  -28.2615  -38.0087   24.7509 H   0  0  0  0  0  0
  -28.1050  -36.2631   24.6322 H   0  0  0  0  0  0
  -27.2277  -37.1500   25.8864 H   0  0  0  0  0  0
  -20.9190  -29.8704   21.7005 H   0  0  0  0  0  0
  -26.0173  -38.2869   24.1439 H   0  0  0  0  0  0
  -28.7948  -20.1449   23.6956 H   0  0  0  0  0  0
  -27.3135  -21.0288   21.9531 H   0  0  0  0  0  0
  -29.5657  -17.7955   23.6387 H   0  0  0  0  0  0
  -27.4639  -17.2221   19.9243 H   0  0  0  0  0  0
  -23.4701  -23.0235   21.3614 H   0  0  0  0  0  0
  -23.2538  -22.6805   19.6594 H   0  0  0  0  0  0
  -24.6433  -23.6167   20.2029 H   0  0  0  0  0  0
  -24.0629  -20.1748   18.3443 H   0  0  0  0  0  0
  -25.4392  -20.5814   17.3313 H   0  0  0  0  0  0
  -24.3730  -21.8389   17.9064 H   0  0  0  0  0  0
  -25.5342  -18.8974   19.6479 H   0  0  0  0  0  0
  -26.9016  -19.3745   18.7093 H   0  0  0  0  0  0
  -28.0352  -15.3586   21.4603 H   0  0  0  0  0  0
  -29.1459  -15.5253   22.8031 H   0  0  0  0  0  0
  -26.7371  -23.2638   20.9693 H   0  0  0  0  0  0
  -28.2466  -22.4141   20.7136 H   0  0  0  0  0  0
  -27.4971  -25.4014   21.4704 H   0  0  0  0  0  0
  -29.2324  -25.2414   21.2692 H   0  0  0  0  0  0
  -24.0772  -20.6457   20.7940 H   0  0  0  0  0  0
  -25.3366  -21.5298   21.5691 H   0  0  0  0  0  0
  -27.6236  -21.6714   18.5170 H   0  0  0  0  0  0
  -26.3614  -22.8367   18.3871 H   0  0  0  0  0  0
  -30.6449  -16.3870   20.7438 H   0  0  0  0  0  0
  1 25  1  0  0  0
  1 30  2  0  0  0
  1 87  1  0  0  0
  2  3  1  0  0  0
  2 25  1  0  0  0
  2 89  1  0  0  0
  2 90  1  0  0  0
  3  4  1  0  0  0
  3 91  1  0  0  0
  3 92  1  0  0  0
  4  5  1  0  0  0
  4 93  1  0  0  0
  4 94  1  0  0  0
  5  6  1  0  0  0
  5 26  1  0  0  0
  5 95  1  0  0  0
  6 25  1  0  0  0
  6 96  1  0  0  0
  6 97  1  0  0  0
  7  8  2  0  0  0
  7 26  1  0  0  0
  7 29  1  0  0  0
  8  9  1  0  0  0
  8 22  1  0  0  0
  9 10  1  0  0  0
  9 27  2  0  0  0
 10 11  2  0  0  0
 10 15  1  0  0  0
 11 12  1  0  0  0
 11 98  1  0  0  0
 12 13  2  0  0  0
 12 99  1  0  0  0
 13 14  1  0  0  0
 13 31  1  0  0  0
 14 15  2  0  0  0
 14100  1  0  0  0
 15101  1  0  0  0
 16 17  2  0  0  0
 16 21  1  0  0  0
 16 31  1  0  0  0
 17 18  1  0  0  0
 17102  1  0  0  0
 18 19  2  0  0  0
 18103  1  0  0  0
 19 20  1  0  0  0
 19 24  1  0  0  0
 20 21  2  0  0  0
 20104  1  0  0  0
 21 23  1  0  0  0
 22 28  1  0  0  0
 22 32  2  0  0  0
 26 27  1  0  0  0
 28105  1  0  0  0
 28106  1  0  0  0
 29107  1  0  0  0
 29108  1  0  0  0
 33 34  1  0  0  0
 33 66  1  0  0  0
 33 70  2  0  0  0
 34 36  1  0  0  0
 34 59  1  0  0  0
 34109  1  0  0  0
 35 44  2  0  0  0
 35 45  1  0  0  0
 35 68  1  0  0  0
 36 56  1  0  0  0
 36110  1  0  0  0
 37 39  1  0  0  0
 37 47  1  0  0  0
 37 66  1  0  0  0
 37111  1  0  0  0
 38 43  2  0  0  0
 38 46  1  0  0  0
 38 47  1  0  0  0
 39 64  1  0  0  0
 39 67  2  0  0  0
 40 52  1  0  0  0
 40 53  2  0  0  0
 40 58  1  0  0  0
 41112  1  0  0  0
 41113  1  0  0  0
 41114  1  0  0  0
 41 48  1  0  0  0
 42 43  1  0  0  0
 42 66  1  0  0  0
 42115  1  0  0  0
 42116  1  0  0  0
 43 44  1  0  0  0
 44117  1  0  0  0
 45 46  2  0  0  0
 45118  1  0  0  0
 46119  1  0  0  0
 47120  1  0  0  0
 47121  1  0  0  0
 48 56  1  0  0  0
 48 65  1  0  0  0
 48122  1  0  0  0
 49 50  1  0  0  0
 49 53  1  0  0  0
 49 64  1  0  0  0
 49123  1  0  0  0
 50 51  1  0  0  0
 50124  1  0  0  0
 50125  1  0  0  0
 51 52  1  0  0  0
 51126  1  0  0  0
 51127  1  0  0  0
 52128  1  0  0  0
 52129  1  0  0  0
 53 54  1  0  0  0
 54 55  2  0  0  0
 54130  1  0  0  0
 55 57  1  0  0  0
 55131  1  0  0  0
 56 69  2  0  0  0
 57 58  2  0  0  0
 57132  1  0  0  0
 58133  1  0  0  0
 59 60  1  0  0  0
 59 61  1  0  0  0
 59 62  1  0  0  0
 60134  1  0  0  0
 60135  1  0  0  0
 60136  1  0  0  0
 61137  1  0  0  0
 61138  1  0  0  0
 61139  1  0  0  0
 62140  1  0  0  0
 62141  1  0  0  0
 62142  1  0  0  0
 63 65  1  0  0  0
 63143  1  0  0  0
 63144  1  0  0  0
 63145  1  0  0  0
 64146  1  0  0  0
 65147  1  0  0  0
 68 83  1  0  0  0
 71 72  2  0  0  0
 71 73  1  0  0  0
 71148  1  0  0  0
 72 75  1  0  0  0
 72149  1  0  0  0
 73 76  2  0  0  0
 73150  1  0  0  0
 74 75  2  0  0  0
 74 76  1  0  0  0
 74151  1  0  0  0
 75 80  1  0  0  0
 76 81  1  0  0  0
 77 82  1  0  0  0
 77 83  1  0  0  0
 77 88  2  0  0  0
 78 84  1  0  0  0
 78152  1  0  0  0
 78153  1  0  0  0
 78154  1  0  0  0
 79155  1  0  0  0
 79156  1  0  0  0
 79157  1  0  0  0
 79 86  1  0  0  0
 80 86  1  0  0  0
 80158  1  0  0  0
 80159  1  0  0  0
 81 87  1  0  0  0
 81160  1  0  0  0
 81161  1  0  0  0
 82 85  1  0  0  0
 82162  1  0  0  0
 82163  1  0  0  0
 83164  1  0  0  0
 83165  1  0  0  0
 84 86  1  0  0  0
 84166  1  0  0  0
 84167  1  0  0  0
 85 86  1  0  0  0
 85168  1  0  0  0
 85169  1  0  0  0
 87170  1  0  0  0
M  ISO  4   1 100  68 101  83 101  87 100
M  END
> <chiral flag>
0

> <version>
0

> <s_m_source_file>
/data/baiqing/PycharmProjects/Reinvent-master-3.2/result/LINK_invent/BTK/process_docking_weight1_custom_product_contain_oxygen_bond_distance_aromatic_linkinvent_7_9_3/rearranged_h_0144.sdf

> <i_m_source_file_index>
67

> <r_mmod_Potential_Energy-OPLS-2005>
41.8014793395996

> <r_mmod_Stretch_Energy-OPLS-2005>
40.2780914306641

> <r_mmod_Bend_Energy-OPLS-2005>
158.497406005859

> <r_mmod_Torsional_Energy-OPLS-2005>
283.754821777344

> <r_mmod_Improper_Torsional_Energy-OPLS-2005>
8.99601554870605

> <r_mmod_Van_der_Waal_Energy-OPLS-2005>
155.715240478516

> <r_mmod_Electrostatic_Energy-OPLS-2005>
-408.287536621094

> <r_mmod_Solvation_Energy-OPLS-2005>
-210.179229736328

> <b_mmod_Minimization_Converged-OPLS-2005>
0

> <r_mmod_RMS_Derivative-OPLS-2005>
5.06859874725342

$$$$
67
                    3D
 Structure written by MMmdl.
156165  0  0  1  0            999 V2000
  -30.6177  -14.7628   20.4785 C   0  0  0  0  0  0
  -30.4298  -12.4726   19.4715 C   0  0  0  0  0  0
  -29.5077  -12.5111   18.2338 C   0  0  0  0  0  0
  -28.0353  -12.3313   18.6500 C   0  0  0  0  0  0
  -27.6396  -13.2349   19.8488 C   0  0  2  0  0  0
  -28.6837  -13.1762   20.9831 C   0  0  0  0  0  0
  -25.2508  -13.8206   20.5716 C   0  0  0  0  0  0
  -24.1793  -13.0439   20.9200 C   0  0  0  0  0  0
  -24.6390  -11.6920   20.8740 C   0  0  0  0  0  0
  -23.9067  -10.4294   21.0404 C   0  0  0  0  0  0
  -24.3621   -9.4211   21.9182 C   0  0  0  0  0  0
  -23.6298   -8.2246   22.0753 C   0  0  0  0  0  0
  -22.4281   -8.0279   21.3545 C   0  0  0  0  0  0
  -21.9915   -9.0250   20.4646 C   0  0  0  0  0  0
  -22.7240  -10.2133   20.3053 C   0  0  0  0  0  0
  -21.6856   -6.0738   22.5278 C   0  0  0  0  0  0
  -21.4015   -6.5639   23.8212 C   0  0  0  0  0  0
  -21.3661   -5.6791   24.9175 C   0  0  0  0  0  0
  -21.6046   -4.3054   24.7225 C   0  0  0  0  0  0
  -21.8818   -3.8146   23.4346 C   0  0  0  0  0  0
  -21.9194   -4.6965   22.3402 C   0  0  0  0  0  0
  -22.7816  -13.5222   21.1860 C   0  0  0  0  0  0
  -22.1659   -4.2146   21.0982 F   0  0  0  0  0  0
  -21.5627   -3.4539   25.7740 F   0  0  0  0  0  0
  -29.9796  -13.5406   20.3980 N   0  0  0  0  0  0
  -26.2929  -12.9415   20.3286 N   0  0  0  0  0  0
  -25.9321  -11.6554   20.5746 N   0  0  0  0  0  0
  -22.0469  -12.8206   22.0421 N   0  0  0  0  0  0
  -25.4217  -15.1932   20.4179 N   0  0  0  0  0  0
  -31.7973  -14.8435   20.1188 O   0  0  0  0  0  0
  -21.6640   -6.8882   21.4243 O   0  0  0  0  0  0
  -22.3494  -14.5527   20.6714 O   0  0  0  0  0  0
  -24.6333  -31.8533   23.1957 C   0  0  0  0  0  0
  -25.9151  -32.4746   23.8323 C   0  0  1  0  0  0
  -27.2224  -27.2392   20.1314 C   0  0  0  0  0  0
  -25.5943  -33.8551   24.2244 N   0  0  0  0  0  0
  -23.4319  -30.4731   21.5403 C   0  0  2  0  0  0
  -24.8799  -28.9169   20.1094 C   0  0  0  0  0  0
  -22.7519  -29.4581   22.4910 C   0  0  0  0  0  0
  -18.0292  -28.1378   22.8474 C   0  0  0  0  0  0
  -24.1490  -36.7273   23.2640 C   0  0  0  0  0  0
  -25.9789  -30.7582   21.3796 C   0  0  0  0  0  0
  -26.0524  -29.3786   20.7212 C   0  0  0  0  0  0
  -27.2252  -28.5526   20.7206 C   0  0  0  0  0  0
  -26.0265  -26.8535   19.4845 C   0  0  0  0  0  0
  -24.8737  -27.6633   19.4792 C   0  0  0  0  0  0
  -23.6518  -29.8069   20.1567 C   0  0  0  0  0  0
  -25.4118  -36.3065   24.0323 C   0  0  1  0  0  0
  -20.5897  -28.3693   23.1260 C   0  0  2  0  0  0
  -20.6784  -26.9410   22.5405 C   0  0  0  0  0  0
  -19.5766  -26.6380   21.5201 C   0  0  0  0  0  0
  -18.1942  -26.7918   22.1612 C   0  0  0  0  0  0
  -19.1545  -28.8852   23.2859 C   0  0  0  0  0  0
  -18.9469  -30.1447   23.8879 C   0  0  0  0  0  0
  -17.6474  -30.6586   24.0547 C   0  0  0  0  0  0
  -25.9065  -34.9437   23.5090 C   0  0  0  0  0  0
  -16.5359  -29.9087   23.6324 C   0  0  0  0  0  0
  -16.7280  -28.6499   23.0353 C   0  0  0  0  0  0
  -26.4508  -31.6584   25.0725 C   0  0  0  0  0  0
  -25.3716  -31.3745   26.1438 C   0  0  0  0  0  0
  -27.0361  -30.2996   24.6231 C   0  0  0  0  0  0
  -27.6056  -32.4331   25.7500 C   0  0  0  0  0  0
  -27.5582  -37.1790   24.8463 C   0  0  0  0  0  0
  -21.4224  -29.3034   22.3649 N   0  0  0  0  0  0
  -26.4286  -37.3770   23.9412 N   0  0  0  0  0  0
  -24.7002  -31.0472   22.0945 N   0  0  0  0  0  0
  -23.4204  -28.8129   23.3029 O   0  0  0  0  0  0
  -28.3123  -26.3315   20.2028 O   0  0  0  0  0  0
  -26.5641  -34.8907   22.4662 O   0  0  0  0  0  0
  -23.5476  -32.1381   23.7224 O   0  0  0  0  0  0
  -29.5942  -18.4581   19.8364 C   0  0  0  0  0  0
  -30.2855  -17.3168   20.4447 C   0  0  0  0  0  0
  -29.3678  -19.4731   20.7883 C   0  0  0  0  0  0
  -30.2301  -17.6726   21.8533 C   0  0  0  0  0  0
  -28.7185  -20.8797   20.8186 C   0  0  0  0  0  0
  -29.7043  -16.3117   22.1815 C   0  0  0  0  0  0
  -29.2377  -23.7785   22.0078 C   0  0  0  0  0  0
  -30.5505  -24.2474   19.9576 C   0  0  0  0  0  0
  -29.0914  -22.1634   19.9254 C   0  0  0  0  0  0
  -28.0987  -24.8469   19.9800 C   0  0  0  0  0  0
  -29.1884  -23.7300   20.4668 C   0  0  0  0  0  0
  -29.8812  -15.9221   20.7551 N   0  0  0  0  0  0
  -27.8199  -21.0541   21.6468 O   0  0  0  0  0  0
  -29.5675  -18.8666   22.0268 O   0  0  0  0  0  0
  -31.4692  -12.5979   19.1642 H   0  0  0  0  0  0
  -30.3787  -11.4984   19.9603 H   0  0  0  0  0  0
  -29.7927  -11.7334   17.5235 H   0  0  0  0  0  0
  -29.6292  -13.4624   17.7124 H   0  0  0  0  0  0
  -27.8978  -11.2834   18.9186 H   0  0  0  0  0  0
  -27.3754  -12.5158   17.8010 H   0  0  0  0  0  0
  -27.6320  -14.2562   19.4661 H   0  0  0  0  0  0
  -28.7266  -12.1792   21.4236 H   0  0  0  0  0  0
  -28.4079  -13.8564   21.7892 H   0  0  0  0  0  0
  -25.2771   -9.5684   22.4755 H   0  0  0  0  0  0
  -24.0003   -7.4640   22.7476 H   0  0  0  0  0  0
  -21.0845   -8.8776   19.8955 H   0  0  0  0  0  0
  -22.3702  -10.9672   19.6158 H   0  0  0  0  0  0
  -21.2009   -7.6147   23.9715 H   0  0  0  0  0  0
  -21.1481   -6.0523   25.9078 H   0  0  0  0  0  0
  -22.0598   -2.7607   23.2849 H   0  0  0  0  0  0
  -22.4090  -11.9869   22.4807 H   0  0  0  0  0  0
  -21.1088  -13.1230   22.2633 H   0  0  0  0  0  0
  -24.6609  -15.8523   20.5396 H   0  0  0  0  0  0
  -26.2843  -15.6361   20.1264 H   0  0  0  0  0  0
  -26.7211  -32.5396   23.1059 H   0  0  0  0  0  0
  -25.0064  -33.9682   25.0373 H   0  0  0  0  0  0
  -22.7289  -31.2949   21.3938 H   0  0  0  0  0  0
  -23.3760  -35.9600   23.3296 H   0  0  0  0  0  0
  -24.3571  -36.8911   22.2054 H   0  0  0  0  0  0
  -23.7237  -37.6464   23.6676 H   0  0  0  0  0  0
  -26.1192  -31.5177   20.6094 H   0  0  0  0  0  0
  -26.8539  -30.8092   22.0156 H   0  0  0  0  0  0
  -28.1212  -28.8982   21.2168 H   0  0  0  0  0  0
  -25.9534  -25.8966   18.9895 H   0  0  0  0  0  0
  -23.9781  -27.3044   18.9914 H   0  0  0  0  0  0
  -23.7790  -30.5847   19.4026 H   0  0  0  0  0  0
  -22.7690  -29.2417   19.8514 H   0  0  0  0  0  0
  -25.1298  -36.1902   25.0815 H   0  0  0  0  0  0
  -20.9967  -28.3275   24.1389 H   0  0  0  0  0  0
  -20.5664  -26.2310   23.3615 H   0  0  0  0  0  0
  -21.6660  -26.7438   22.1209 H   0  0  0  0  0  0
  -19.6925  -25.6287   21.1246 H   0  0  0  0  0  0
  -19.6699  -27.3178   20.6717 H   0  0  0  0  0  0
  -17.4211  -26.6648   21.4015 H   0  0  0  0  0  0
  -18.0340  -26.0057   22.9005 H   0  0  0  0  0  0
  -19.7949  -30.7249   24.2261 H   0  0  0  0  0  0
  -17.5037  -31.6262   24.5155 H   0  0  0  0  0  0
  -15.5359  -30.2985   23.7662 H   0  0  0  0  0  0
  -15.8677  -28.0810   22.7092 H   0  0  0  0  0  0
  -24.5908  -30.7067   25.7773 H   0  0  0  0  0  0
  -24.8870  -32.2909   26.4812 H   0  0  0  0  0  0
  -25.8015  -30.8969   27.0251 H   0  0  0  0  0  0
  -26.2954  -29.6731   24.1242 H   0  0  0  0  0  0
  -27.4023  -29.7273   25.4765 H   0  0  0  0  0  0
  -27.8844  -30.4262   23.9500 H   0  0  0  0  0  0
  -27.2678  -33.3661   26.2023 H   0  0  0  0  0  0
  -28.3899  -32.6843   25.0347 H   0  0  0  0  0  0
  -28.0688  -31.8485   26.5458 H   0  0  0  0  0  0
  -28.2589  -38.0100   24.7533 H   0  0  0  0  0  0
  -28.1091  -36.2628   24.6266 H   0  0  0  0  0  0
  -27.2297  -37.1413   25.8866 H   0  0  0  0  0  0
  -20.9412  -29.8762   21.6855 H   0  0  0  0  0  0
  -26.0161  -38.2839   24.1430 H   0  0  0  0  0  0
  -29.3147  -18.5459   18.7959 H   0  0  0  0  0  0
  -28.6647  -16.3277   22.5127 H   0  0  0  0  0  0
  -30.3389  -15.7803   22.8933 H   0  0  0  0  0  0
  -29.4899  -24.7775   22.3643 H   0  0  0  0  0  0
  -29.9862  -23.0951   22.4098 H   0  0  0  0  0  0
  -28.2740  -23.5210   22.4482 H   0  0  0  0  0  0
  -30.5845  -24.2641   18.8677 H   0  0  0  0  0  0
  -31.3776  -23.6246   20.3015 H   0  0  0  0  0  0
  -30.7504  -25.2639   20.3000 H   0  0  0  0  0  0
  -28.4028  -22.1499   19.0807 H   0  0  0  0  0  0
  -30.0528  -21.9014   19.4843 H   0  0  0  0  0  0
  -27.9553  -24.7153   18.9069 H   0  0  0  0  0  0
  -27.1473  -24.5718   20.4372 H   0  0  0  0  0  0
  1 25  1  0  0  0
  1 30  2  0  0  0
  1 82  1  0  0  0
  2  3  1  0  0  0
  2 25  1  0  0  0
  2 85  1  0  0  0
  2 86  1  0  0  0
  3  4  1  0  0  0
  3 87  1  0  0  0
  3 88  1  0  0  0
  4  5  1  0  0  0
  4 89  1  0  0  0
  4 90  1  0  0  0
  5  6  1  0  0  0
  5 26  1  0  0  0
  5 91  1  0  0  0
  6 25  1  0  0  0
  6 92  1  0  0  0
  6 93  1  0  0  0
  7  8  2  0  0  0
  7 26  1  0  0  0
  7 29  1  0  0  0
  8  9  1  0  0  0
  8 22  1  0  0  0
  9 10  1  0  0  0
  9 27  2  0  0  0
 10 11  2  0  0  0
 10 15  1  0  0  0
 11 12  1  0  0  0
 11 94  1  0  0  0
 12 13  2  0  0  0
 12 95  1  0  0  0
 13 14  1  0  0  0
 13 31  1  0  0  0
 14 15  2  0  0  0
 14 96  1  0  0  0
 15 97  1  0  0  0
 16 17  2  0  0  0
 16 21  1  0  0  0
 16 31  1  0  0  0
 17 18  1  0  0  0
 17 98  1  0  0  0
 18 19  2  0  0  0
 18 99  1  0  0  0
 19 20  1  0  0  0
 19 24  1  0  0  0
 20 21  2  0  0  0
 20100  1  0  0  0
 21 23  1  0  0  0
 22 28  1  0  0  0
 22 32  2  0  0  0
 26 27  1  0  0  0
 28101  1  0  0  0
 28102  1  0  0  0
 29103  1  0  0  0
 29104  1  0  0  0
 33 34  1  0  0  0
 33 66  1  0  0  0
 33 70  2  0  0  0
 34 36  1  0  0  0
 34 59  1  0  0  0
 34105  1  0  0  0
 35 44  2  0  0  0
 35 45  1  0  0  0
 35 68  1  0  0  0
 36 56  1  0  0  0
 36106  1  0  0  0
 37 39  1  0  0  0
 37 47  1  0  0  0
 37 66  1  0  0  0
 37107  1  0  0  0
 38 43  2  0  0  0
 38 46  1  0  0  0
 38 47  1  0  0  0
 39 64  1  0  0  0
 39 67  2  0  0  0
 40 52  1  0  0  0
 40 53  2  0  0  0
 40 58  1  0  0  0
 41108  1  0  0  0
 41109  1  0  0  0
 41110  1  0  0  0
 41 48  1  0  0  0
 42 43  1  0  0  0
 42 66  1  0  0  0
 42111  1  0  0  0
 42112  1  0  0  0
 43 44  1  0  0  0
 44113  1  0  0  0
 45 46  2  0  0  0
 45114  1  0  0  0
 46115  1  0  0  0
 47116  1  0  0  0
 47117  1  0  0  0
 48 56  1  0  0  0
 48 65  1  0  0  0
 48118  1  0  0  0
 49 50  1  0  0  0
 49 53  1  0  0  0
 49 64  1  0  0  0
 49119  1  0  0  0
 50 51  1  0  0  0
 50120  1  0  0  0
 50121  1  0  0  0
 51 52  1  0  0  0
 51122  1  0  0  0
 51123  1  0  0  0
 52124  1  0  0  0
 52125  1  0  0  0
 53 54  1  0  0  0
 54 55  2  0  0  0
 54126  1  0  0  0
 55 57  1  0  0  0
 55127  1  0  0  0
 56 69  2  0  0  0
 57 58  2  0  0  0
 57128  1  0  0  0
 58129  1  0  0  0
 59 60  1  0  0  0
 59 61  1  0  0  0
 59 62  1  0  0  0
 60130  1  0  0  0
 60131  1  0  0  0
 60132  1  0  0  0
 61133  1  0  0  0
 61134  1  0  0  0
 61135  1  0  0  0
 62136  1  0  0  0
 62137  1  0  0  0
 62138  1  0  0  0
 63 65  1  0  0  0
 63139  1  0  0  0
 63140  1  0  0  0
 63141  1  0  0  0
 64142  1  0  0  0
 65143  1  0  0  0
 68 80  1  0  0  0
 71 72  1  0  0  0
 71 73  2  0  0  0
 71144  1  0  0  0
 72 74  2  0  0  0
 72 82  1  0  0  0
 73 75  1  0  0  0
 73 84  1  0  0  0
 74 76  1  0  0  0
 74 84  1  0  0  0
 75 79  1  0  0  0
 75 83  2  0  0  0
 76 82  1  0  0  0
 76145  1  0  0  0
 76146  1  0  0  0
 77147  1  0  0  0
 77148  1  0  0  0
 77149  1  0  0  0
 77 81  1  0  0  0
 78 81  1  0  0  0
 78150  1  0  0  0
 78151  1  0  0  0
 78152  1  0  0  0
 79 81  1  0  0  0
 79153  1  0  0  0
 79154  1  0  0  0
 80 81  1  0  0  0
 80155  1  0  0  0
 80156  1  0  0  0
M  ISO  4   1 100  68 101  80 101  82 100
M  END
> <chiral flag>
0

> <version>
0

> <s_m_source_file>
/data/baiqing/PycharmProjects/Reinvent-master-3.2/result/LINK_invent/BTK/process_docking_weight1_custom_product_contain_oxygen_bond_distance_aromatic_linkinvent_7_9_3/rearranged_h_0144.sdf

> <i_m_source_file_index>
68

> <r_mmod_Potential_Energy-OPLS-2005>
908.771484375

> <r_mmod_Stretch_Energy-OPLS-2005>
150.451568603516

> <r_mmod_Bend_Energy-OPLS-2005>
546.562927246094

> <r_mmod_Torsional_Energy-OPLS-2005>
430.730682373047

> <r_mmod_Improper_Torsional_Energy-OPLS-2005>
74.5824813842773

> <r_mmod_Van_der_Waal_Energy-OPLS-2005>
118.534828186035

> <r_mmod_Electrostatic_Energy-OPLS-2005>
-300.297119140625

> <r_mmod_Solvation_Energy-OPLS-2005>
-206.978454589844

> <b_mmod_Minimization_Converged-OPLS-2005>
0

> <r_mmod_RMS_Derivative-OPLS-2005>
1.26255166530609

$$$$
68
                    3D
 Structure written by MMmdl.
174183  0  0  1  0            999 V2000
  -30.6754  -14.4631   20.5547 C   0  0  0  0  0  0
  -30.4253  -12.2930   19.4201 C   0  0  0  0  0  0
  -29.4960  -12.5024   18.2057 C   0  0  0  0  0  0
  -28.0152  -12.3681   18.6155 C   0  0  0  0  0  0
  -27.6636  -13.2005   19.8775 C   0  0  2  0  0  0
  -28.7031  -12.9609   20.9966 C   0  0  0  0  0  0
  -25.2605  -13.8151   20.5674 C   0  0  0  0  0  0
  -24.1846  -13.0440   20.9168 C   0  0  0  0  0  0
  -24.6388  -11.6900   20.8734 C   0  0  0  0  0  0
  -23.9053  -10.4290   21.0404 C   0  0  0  0  0  0
  -24.3605   -9.4207   21.9183 C   0  0  0  0  0  0
  -23.6284   -8.2242   22.0756 C   0  0  0  0  0  0
  -22.4272   -8.0278   21.3541 C   0  0  0  0  0  0
  -21.9902   -9.0251   20.4647 C   0  0  0  0  0  0
  -22.7225  -10.2131   20.3055 C   0  0  0  0  0  0
  -21.6852   -6.0734   22.5278 C   0  0  0  0  0  0
  -21.4010   -6.5638   23.8211 C   0  0  0  0  0  0
  -21.3657   -5.6792   24.9174 C   0  0  0  0  0  0
  -21.6046   -4.3055   24.7228 C   0  0  0  0  0  0
  -21.8820   -3.8146   23.4347 C   0  0  0  0  0  0
  -21.9190   -4.6962   22.3400 C   0  0  0  0  0  0
  -22.7869  -13.5242   21.1835 C   0  0  0  0  0  0
  -22.1663   -4.2145   21.0977 F   0  0  0  0  0  0
  -21.5629   -3.4539   25.7742 F   0  0  0  0  0  0
  -30.0370  -13.2672   20.4513 N   0  0  0  0  0  0
  -26.3031  -12.9305   20.3365 N   0  0  0  0  0  0
  -25.9309  -11.6473   20.5759 N   0  0  0  0  0  0
  -22.0504  -12.8237   22.0392 N   0  0  0  0  0  0
  -25.4355  -15.1867   20.4081 N   0  0  0  0  0  0
  -31.8037  -14.6620   20.0933 O   0  0  0  0  0  0
  -21.6637   -6.8876   21.4240 O   0  0  0  0  0  0
  -22.3559  -14.5553   20.6690 O   0  0  0  0  0  0
  -24.6148  -31.8673   23.2090 C   0  0  0  0  0  0
  -25.9039  -32.4817   23.8393 C   0  0  1  0  0  0
  -27.2355  -27.4255   20.0875 C   0  0  0  0  0  0
  -25.5893  -33.8618   24.2335 N   0  0  0  0  0  0
  -23.4022  -30.4904   21.5509 C   0  0  2  0  0  0
  -24.8451  -28.9524   20.1154 C   0  0  0  0  0  0
  -22.7408  -29.4649   22.4998 C   0  0  0  0  0  0
  -18.0269  -28.1360   22.8495 C   0  0  0  0  0  0
  -24.1476  -36.7307   23.2636 C   0  0  0  0  0  0
  -25.9308  -30.8305   21.3608 C   0  0  0  0  0  0
  -26.0056  -29.4646   20.7056 C   0  0  0  0  0  0
  -27.1993  -28.7089   20.6840 C   0  0  0  0  0  0
  -26.0475  -26.9215   19.5126 C   0  0  0  0  0  0
  -24.8614  -27.6802   19.5177 C   0  0  0  0  0  0
  -23.6088  -29.8215   20.1656 C   0  0  0  0  0  0
  -25.4101  -36.3112   24.0336 C   0  0  1  0  0  0
  -20.5860  -28.3653   23.1319 C   0  0  2  0  0  0
  -20.6763  -26.9389   22.5421 C   0  0  0  0  0  0
  -19.5743  -26.6378   21.5210 C   0  0  0  0  0  0
  -18.1917  -26.7911   22.1618 C   0  0  0  0  0  0
  -19.1519  -28.8824   23.2904 C   0  0  0  0  0  0
  -18.9446  -30.1430   23.8915 C   0  0  0  0  0  0
  -17.6452  -30.6575   24.0561 C   0  0  0  0  0  0
  -25.9031  -34.9473   23.5140 C   0  0  0  0  0  0
  -16.5341  -29.9082   23.6319 C   0  0  0  0  0  0
  -16.7257  -28.6490   23.0351 C   0  0  0  0  0  0
  -26.4457  -31.6595   25.0725 C   0  0  0  0  0  0
  -25.3709  -31.3688   26.1461 C   0  0  0  0  0  0
  -27.0292  -30.3042   24.6105 C   0  0  0  0  0  0
  -27.6053  -32.4300   25.7477 C   0  0  0  0  0  0
  -27.5575  -37.1806   24.8466 C   0  0  0  0  0  0
  -21.4138  -29.3024   22.3732 N   0  0  0  0  0  0
  -26.4290  -37.3797   23.9405 N   0  0  0  0  0  0
  -24.6678  -31.0768   22.0993 N   0  0  0  0  0  0
  -23.4180  -28.8189   23.3038 O   0  0  0  0  0  0
  -28.4383  -26.7445   20.1208 O   0  0  0  0  0  0
  -26.5594  -34.8919   22.4701 O   0  0  0  0  0  0
  -23.5340  -32.1442   23.7480 O   0  0  0  0  0  0
  -30.6075  -18.7930   19.4618 C   0  0  0  0  0  0
  -29.9517  -19.6589   20.3602 C   0  0  0  0  0  0
  -30.6267  -17.4028   19.6901 C   0  0  0  0  0  0
  -29.2943  -17.7311   21.6979 C   0  0  0  0  0  0
  -29.2876  -19.1369   21.4906 C   0  0  0  0  0  0
  -29.9784  -16.8537   20.8237 C   0  0  0  0  0  0
  -28.6519  -19.9971   22.5109 C   0  0  0  0  0  0
  -28.3266  -22.9911   20.8010 C   0  0  0  0  0  0
  -25.8456  -22.4051   22.6628 C   0  0  0  0  0  0
  -25.9598  -21.9986   21.1897 C   0  0  0  0  0  0
  -26.9928  -21.6584   23.3612 C   0  0  0  0  0  0
  -27.4579  -21.7020   20.9961 C   0  0  2  0  0  0
  -30.2626  -26.1014   17.8567 C   0  0  0  0  0  0
  -27.8980  -25.5071   17.1942 C   0  0  0  0  0  0
  -27.6770  -24.2812   20.2347 C   0  0  0  0  0  0
  -29.0344  -25.2400   18.1939 C   0  0  0  0  0  0
  -28.6455  -25.3802   19.6905 C   0  0  1  0  0  0
  -27.7997  -21.0398   22.2813 N   0  0  0  0  0  0
  -29.9351  -15.4493   21.0986 N   0  0  0  0  0  0
  -28.9247  -19.6837   23.7797 N   0  3  0  0  0  0
  -29.5151  -22.9936   21.1331 O   0  0  0  0  0  0
  -31.4700  -12.3950   19.1200 H   0  0  0  0  0  0
  -30.3263  -11.2778   19.8079 H   0  0  0  0  0  0
  -29.7312  -11.7811   17.4220 H   0  0  0  0  0  0
  -29.6698  -13.4892   17.7734 H   0  0  0  0  0  0
  -27.8179  -11.3120   18.8042 H   0  0  0  0  0  0
  -27.3676  -12.6532   17.7856 H   0  0  0  0  0  0
  -27.7141  -14.2507   19.5888 H   0  0  0  0  0  0
  -28.6746  -11.9199   21.3219 H   0  0  0  0  0  0
  -28.4645  -13.5449   21.8867 H   0  0  0  0  0  0
  -25.2752   -9.5686   22.4757 H   0  0  0  0  0  0
  -23.9997   -7.4635   22.7476 H   0  0  0  0  0  0
  -21.0831   -8.8764   19.8952 H   0  0  0  0  0  0
  -22.3681  -10.9668   19.6162 H   0  0  0  0  0  0
  -21.2004   -7.6148   23.9712 H   0  0  0  0  0  0
  -21.1479   -6.0524   25.9076 H   0  0  0  0  0  0
  -22.0602   -2.7608   23.2850 H   0  0  0  0  0  0
  -22.4105  -11.9886   22.4767 H   0  0  0  0  0  0
  -21.1126  -13.1266   22.2600 H   0  0  0  0  0  0
  -24.6693  -15.8437   20.5079 H   0  0  0  0  0  0
  -26.2879  -15.6202   20.0768 H   0  0  0  0  0  0
  -26.7113  -32.5512   23.1161 H   0  0  0  0  0  0
  -25.0057  -33.9778   25.0492 H   0  0  0  0  0  0
  -22.6902  -31.3070   21.4122 H   0  0  0  0  0  0
  -23.3738  -35.9640   23.3324 H   0  0  0  0  0  0
  -24.3562  -36.8901   22.2044 H   0  0  0  0  0  0
  -23.7236  -37.6521   23.6639 H   0  0  0  0  0  0
  -26.0439  -31.5976   20.5930 H   0  0  0  0  0  0
  -26.8188  -30.8815   21.9793 H   0  0  0  0  0  0
  -28.0986  -29.1067   21.1332 H   0  0  0  0  0  0
  -26.0132  -25.9472   19.0564 H   0  0  0  0  0  0
  -23.9663  -27.2754   19.0666 H   0  0  0  0  0  0
  -23.7170  -30.5948   19.4047 H   0  0  0  0  0  0
  -22.7332  -29.2405   19.8714 H   0  0  0  0  0  0
  -25.1284  -36.1989   25.0832 H   0  0  0  0  0  0
  -20.9951  -28.3218   24.1440 H   0  0  0  0  0  0
  -20.5661  -26.2257   23.3606 H   0  0  0  0  0  0
  -21.6634  -26.7427   22.1218 H   0  0  0  0  0  0
  -19.6901  -25.6297   21.1221 H   0  0  0  0  0  0
  -19.6682  -27.3197   20.6747 H   0  0  0  0  0  0
  -17.4198  -26.6664   21.4009 H   0  0  0  0  0  0
  -18.0308  -26.0036   22.8998 H   0  0  0  0  0  0
  -19.7925  -30.7233   24.2301 H   0  0  0  0  0  0
  -17.5009  -31.6254   24.5158 H   0  0  0  0  0  0
  -15.5348  -30.2990   23.7627 H   0  0  0  0  0  0
  -15.8653  -28.0816   22.7069 H   0  0  0  0  0  0
  -24.5910  -30.7008   25.7790 H   0  0  0  0  0  0
  -24.8846  -32.2822   26.4893 H   0  0  0  0  0  0
  -25.8043  -30.8877   27.0240 H   0  0  0  0  0  0
  -26.2846  -29.6798   24.1154 H   0  0  0  0  0  0
  -27.4066  -29.7282   25.4566 H   0  0  0  0  0  0
  -27.8676  -30.4371   23.9261 H   0  0  0  0  0  0
  -27.2726  -33.3623   26.2058 H   0  0  0  0  0  0
  -28.3857  -32.6820   25.0280 H   0  0  0  0  0  0
  -28.0724  -31.8411   26.5382 H   0  0  0  0  0  0
  -28.2619  -38.0081   24.7522 H   0  0  0  0  0  0
  -28.1055  -36.2620   24.6308 H   0  0  0  0  0  0
  -27.2289  -37.1493   25.8869 H   0  0  0  0  0  0
  -20.9301  -29.8762   21.6970 H   0  0  0  0  0  0
  -26.0183  -38.2880   24.1408 H   0  0  0  0  0  0
  -31.1122  -19.1972   18.5957 H   0  0  0  0  0  0
  -29.9914  -20.7213   20.1783 H   0  0  0  0  0  0
  -31.1370  -16.7766   18.9729 H   0  0  0  0  0  0
  -28.7796  -17.3199   22.5561 H   0  0  0  0  0  0
  -24.8722  -22.1384   23.0763 H   0  0  0  0  0  0
  -25.9701  -23.4814   22.7866 H   0  0  0  0  0  0
  -25.5469  -22.7557   20.5235 H   0  0  0  0  0  0
  -25.3894  -21.0867   21.0060 H   0  0  0  0  0  0
  -26.5729  -20.8956   24.0204 H   0  0  0  0  0  0
  -27.5981  -22.3320   23.9707 H   0  0  0  0  0  0
  -27.5958  -21.0323   20.1461 H   0  0  0  0  0  0
  -30.5883  -25.9430   16.8283 H   0  0  0  0  0  0
  -31.1065  -25.8605   18.5042 H   0  0  0  0  0  0
  -30.0454  -27.1639   17.9779 H   0  0  0  0  0  0
  -28.2350  -25.3435   16.1705 H   0  0  0  0  0  0
  -27.5430  -26.5360   17.2516 H   0  0  0  0  0  0
  -27.0513  -24.8401   17.3544 H   0  0  0  0  0  0
  -27.0862  -24.7078   21.0438 H   0  0  0  0  0  0
  -26.9754  -23.9950   19.4527 H   0  0  0  0  0  0
  -29.3367  -24.2021   18.0447 H   0  0  0  0  0  0
  -29.5883  -25.2085   20.2079 H   0  0  0  0  0  0
  -29.1284  -15.1276   21.6111 H   0  0  0  0  0  0
  -29.6066  -18.9638   23.9617 H   0  0  0  0  0  0
  -28.5887  -20.2324   24.5514 H   0  0  0  0  0  0
  1 25  1  0  0  0
  1 30  2  0  0  0
  1 89  1  0  0  0
  2  3  1  0  0  0
  2 25  1  0  0  0
  2 92  1  0  0  0
  2 93  1  0  0  0
  3  4  1  0  0  0
  3 94  1  0  0  0
  3 95  1  0  0  0
  4  5  1  0  0  0
  4 96  1  0  0  0
  4 97  1  0  0  0
  5  6  1  0  0  0
  5 26  1  0  0  0
  5 98  1  0  0  0
  6 25  1  0  0  0
  6 99  1  0  0  0
  6100  1  0  0  0
  7  8  2  0  0  0
  7 26  1  0  0  0
  7 29  1  0  0  0
  8  9  1  0  0  0
  8 22  1  0  0  0
  9 10  1  0  0  0
  9 27  2  0  0  0
 10 11  2  0  0  0
 10 15  1  0  0  0
 11 12  1  0  0  0
 11101  1  0  0  0
 12 13  2  0  0  0
 12102  1  0  0  0
 13 14  1  0  0  0
 13 31  1  0  0  0
 14 15  2  0  0  0
 14103  1  0  0  0
 15104  1  0  0  0
 16 17  2  0  0  0
 16 21  1  0  0  0
 16 31  1  0  0  0
 17 18  1  0  0  0
 17105  1  0  0  0
 18 19  2  0  0  0
 18106  1  0  0  0
 19 20  1  0  0  0
 19 24  1  0  0  0
 20 21  2  0  0  0
 20107  1  0  0  0
 21 23  1  0  0  0
 22 28  1  0  0  0
 22 32  2  0  0  0
 26 27  1  0  0  0
 28108  1  0  0  0
 28109  1  0  0  0
 29110  1  0  0  0
 29111  1  0  0  0
 33 34  1  0  0  0
 33 66  1  0  0  0
 33 70  2  0  0  0
 34 36  1  0  0  0
 34 59  1  0  0  0
 34112  1  0  0  0
 35 44  2  0  0  0
 35 45  1  0  0  0
 35 68  1  0  0  0
 36 56  1  0  0  0
 36113  1  0  0  0
 37 39  1  0  0  0
 37 47  1  0  0  0
 37 66  1  0  0  0
 37114  1  0  0  0
 38 43  2  0  0  0
 38 46  1  0  0  0
 38 47  1  0  0  0
 39 64  1  0  0  0
 39 67  2  0  0  0
 40 52  1  0  0  0
 40 53  2  0  0  0
 40 58  1  0  0  0
 41115  1  0  0  0
 41116  1  0  0  0
 41117  1  0  0  0
 41 48  1  0  0  0
 42 43  1  0  0  0
 42 66  1  0  0  0
 42118  1  0  0  0
 42119  1  0  0  0
 43 44  1  0  0  0
 44120  1  0  0  0
 45 46  2  0  0  0
 45121  1  0  0  0
 46122  1  0  0  0
 47123  1  0  0  0
 47124  1  0  0  0
 48 56  1  0  0  0
 48 65  1  0  0  0
 48125  1  0  0  0
 49 50  1  0  0  0
 49 53  1  0  0  0
 49 64  1  0  0  0
 49126  1  0  0  0
 50 51  1  0  0  0
 50127  1  0  0  0
 50128  1  0  0  0
 51 52  1  0  0  0
 51129  1  0  0  0
 51130  1  0  0  0
 52131  1  0  0  0
 52132  1  0  0  0
 53 54  1  0  0  0
 54 55  2  0  0  0
 54133  1  0  0  0
 55 57  1  0  0  0
 55134  1  0  0  0
 56 69  2  0  0  0
 57 58  2  0  0  0
 57135  1  0  0  0
 58136  1  0  0  0
 59 60  1  0  0  0
 59 61  1  0  0  0
 59 62  1  0  0  0
 60137  1  0  0  0
 60138  1  0  0  0
 60139  1  0  0  0
 61140  1  0  0  0
 61141  1  0  0  0
 61142  1  0  0  0
 62143  1  0  0  0
 62144  1  0  0  0
 62145  1  0  0  0
 63 65  1  0  0  0
 63146  1  0  0  0
 63147  1  0  0  0
 63148  1  0  0  0
 64149  1  0  0  0
 65150  1  0  0  0
 68 87  1  0  0  0
 71 72  2  0  0  0
 71 73  1  0  0  0
 71151  1  0  0  0
 72 75  1  0  0  0
 72152  1  0  0  0
 73 76  2  0  0  0
 73153  1  0  0  0
 74 75  2  0  0  0
 74 76  1  0  0  0
 74154  1  0  0  0
 75 77  1  0  0  0
 76 89  1  0  0  0
 77 88  1  0  0  0
 77 90  2  0  0  0
 78 85  1  0  0  0
 78 91  2  0  0  0
 78 82  1  0  0  0
 79 80  1  0  0  0
 79 81  1  0  0  0
 79155  1  0  0  0
 79156  1  0  0  0
 80 82  1  0  0  0
 80157  1  0  0  0
 80158  1  0  0  0
 81 88  1  0  0  0
 81159  1  0  0  0
 81160  1  0  0  0
 82 88  1  0  0  0
 82161  1  0  0  0
 83162  1  0  0  0
 83163  1  0  0  0
 83164  1  0  0  0
 83 86  1  0  0  0
 84 86  1  0  0  0
 84165  1  0  0  0
 84166  1  0  0  0
 84167  1  0  0  0
 85168  1  0  0  0
 85169  1  0  0  0
 85 87  1  0  0  0
 86 87  1  0  0  0
 86170  1  0  0  0
 87171  1  0  0  0
 89172  1  0  0  0
 90173  1  0  0  0
 90174  1  0  0  0
M  CHG  1  90   1
M  ISO  4   1 100  68 101  87 101  89 100
M  END
> <chiral flag>
0

> <version>
0

> <s_m_source_file>
/data/baiqing/PycharmProjects/Reinvent-master-3.2/result/LINK_invent/BTK/process_docking_weight1_custom_product_contain_oxygen_bond_distance_aromatic_linkinvent_7_9_3/rearranged_h_0144.sdf

> <i_m_source_file_index>
69

> <r_mmod_Potential_Energy-OPLS-2005>
-142.936965942383

> <r_mmod_Stretch_Energy-OPLS-2005>
44.9777908325195

> <r_mmod_Bend_Energy-OPLS-2005>
180.179077148438

> <r_mmod_Torsional_Energy-OPLS-2005>
279.914703369141

> <r_mmod_Improper_Torsional_Energy-OPLS-2005>
4.19138622283936

> <r_mmod_Van_der_Waal_Energy-OPLS-2005>
162.276092529297

> <r_mmod_Electrostatic_Energy-OPLS-2005>
-414.572601318359

> <r_mmod_Solvation_Energy-OPLS-2005>
-413.032806396484

> <b_mmod_Minimization_Converged-OPLS-2005>
0

> <r_mmod_RMS_Derivative-OPLS-2005>
1.15698528289795

$$$$
69
                    3D
 Structure written by MMmdl.
161170  0  0  1  0            999 V2000
  -30.6100  -14.6145   20.5314 C   0  0  0  0  0  0
  -30.4352  -12.3838   19.4539 C   0  0  0  0  0  0
  -29.5098  -12.5165   18.2232 C   0  0  0  0  0  0
  -28.0281  -12.3581   18.6270 C   0  0  0  0  0  0
  -27.6518  -13.2134   19.8666 C   0  0  2  0  0  0
  -28.6899  -13.0419   20.9984 C   0  0  0  0  0  0
  -25.2553  -13.8153   20.5677 C   0  0  0  0  0  0
  -24.1819  -13.0427   20.9192 C   0  0  0  0  0  0
  -24.6371  -11.6892   20.8720 C   0  0  0  0  0  0
  -23.9031  -10.4289   21.0393 C   0  0  0  0  0  0
  -24.3587   -9.4209   21.9177 C   0  0  0  0  0  0
  -23.6275   -8.2241   22.0750 C   0  0  0  0  0  0
  -22.4262   -8.0273   21.3538 C   0  0  0  0  0  0
  -21.9893   -9.0237   20.4636 C   0  0  0  0  0  0
  -22.7207  -10.2125   20.3041 C   0  0  0  0  0  0
  -21.6851   -6.0726   22.5267 C   0  0  0  0  0  0
  -21.4019   -6.5623   23.8200 C   0  0  0  0  0  0
  -21.3663   -5.6773   24.9168 C   0  0  0  0  0  0
  -21.6043   -4.3042   24.7216 C   0  0  0  0  0  0
  -21.8821   -3.8129   23.4334 C   0  0  0  0  0  0
  -21.9197   -4.6948   22.3394 C   0  0  0  0  0  0
  -22.7843  -13.5237   21.1836 C   0  0  0  0  0  0
  -22.1662   -4.2135   21.0972 F   0  0  0  0  0  0
  -21.5636   -3.4522   25.7730 F   0  0  0  0  0  0
  -30.0051  -13.3905   20.4438 N   0  0  0  0  0  0
  -26.2961  -12.9318   20.3296 N   0  0  0  0  0  0
  -25.9291  -11.6477   20.5708 N   0  0  0  0  0  0
  -22.0456  -12.8255   22.0382 N   0  0  0  0  0  0
  -25.4279  -15.1874   20.4073 N   0  0  0  0  0  0
  -31.7696  -14.7771   20.1397 O   0  0  0  0  0  0
  -21.6640   -6.8864   21.4229 O   0  0  0  0  0  0
  -22.3537  -14.5529   20.6649 O   0  0  0  0  0  0
  -24.6214  -31.8612   23.2050 C   0  0  0  0  0  0
  -25.9071  -32.4786   23.8359 C   0  0  1  0  0  0
  -27.2257  -27.3490   20.1366 C   0  0  0  0  0  0
  -25.5930  -33.8589   24.2306 N   0  0  0  0  0  0
  -23.4148  -30.4855   21.5423 C   0  0  2  0  0  0
  -24.8628  -28.9352   20.1174 C   0  0  0  0  0  0
  -22.7442  -29.4653   22.4923 C   0  0  0  0  0  0
  -18.0284  -28.1421   22.8514 C   0  0  0  0  0  0
  -24.1474  -36.7307   23.2643 C   0  0  0  0  0  0
  -25.9503  -30.7996   21.3708 C   0  0  0  0  0  0
  -26.0244  -29.4216   20.7341 C   0  0  0  0  0  0
  -27.2099  -28.6334   20.7486 C   0  0  0  0  0  0
  -26.0631  -26.9223   19.4653 C   0  0  0  0  0  0
  -24.8802  -27.6853   19.4786 C   0  0  0  0  0  0
  -23.6293  -29.8115   20.1593 C   0  0  0  0  0  0
  -25.4090  -36.3085   24.0339 C   0  0  1  0  0  0
  -20.5888  -28.3702   23.1292 C   0  0  2  0  0  0
  -20.6771  -26.9436   22.5383 C   0  0  0  0  0  0
  -19.5726  -26.6416   21.5204 C   0  0  0  0  0  0
  -18.1917  -26.7966   22.1628 C   0  0  0  0  0  0
  -19.1539  -28.8873   23.2912 C   0  0  0  0  0  0
  -18.9463  -30.1489   23.8907 C   0  0  0  0  0  0
  -17.6468  -30.6617   24.0588 C   0  0  0  0  0  0
  -25.9041  -34.9459   23.5114 C   0  0  0  0  0  0
  -16.5356  -29.9111   23.6366 C   0  0  0  0  0  0
  -16.7274  -28.6539   23.0373 C   0  0  0  0  0  0
  -26.4484  -31.6568   25.0692 C   0  0  0  0  0  0
  -25.3773  -31.3670   26.1450 C   0  0  0  0  0  0
  -27.0310  -30.3004   24.6084 C   0  0  0  0  0  0
  -27.6039  -32.4296   25.7474 C   0  0  0  0  0  0
  -27.5561  -37.1819   24.8469 C   0  0  0  0  0  0
  -21.4161  -29.3064   22.3679 N   0  0  0  0  0  0
  -26.4265  -37.3772   23.9424 N   0  0  0  0  0  0
  -24.6802  -31.0662   22.0976 N   0  0  0  0  0  0
  -23.4177  -28.8200   23.2990 O   0  0  0  0  0  0
  -28.3541  -26.5392   20.0575 O   0  0  0  0  0  0
  -26.5567  -34.8920   22.4650 O   0  0  0  0  0  0
  -23.5382  -32.1369   23.7415 O   0  0  0  0  0  0
  -28.8958  -17.9835   21.2263 C   0  0  0  0  0  0
  -30.2599  -19.9764   20.9234 C   0  0  0  0  0  0
  -31.1874  -17.7353   20.4903 C   0  0  0  0  0  0
  -29.0162  -19.4227   21.2882 C   0  0  0  0  0  0
  -29.9740  -17.1100   20.8645 C   0  0  0  0  0  0
  -31.3230  -19.1427   20.5178 C   0  0  0  0  0  0
  -26.4214  -24.2976   21.2511 C   0  0  0  0  0  0
  -27.7406  -24.1803   21.0507 C   0  0  0  0  0  0
  -27.8950  -20.2675   21.8422 C   0  0  0  0  0  0
  -25.5378  -23.1120   21.4652 C   0  0  0  0  0  0
  -28.4082  -22.7453   21.0681 C   0  0  0  0  0  0
  -26.2863  -22.0933   22.3173 C   0  0  0  0  0  0
  -28.6154  -25.4760   21.0378 C   0  0  0  0  0  0
  -27.5628  -21.6189   21.6809 N   0  0  0  0  0  0
  -29.7976  -15.6546   20.9089 N   0  0  0  0  0  0
  -27.1093  -19.5617   22.6626 N   0  3  0  0  0  0
  -32.5045  -19.7021   20.1636 F   0  0  0  0  0  0
  -31.4759  -12.5160   19.1550 H   0  0  0  0  0  0
  -30.3703  -11.3811   19.8788 H   0  0  0  0  0  0
  -29.7724  -11.7732   17.4685 H   0  0  0  0  0  0
  -29.6623  -13.4905   17.7535 H   0  0  0  0  0  0
  -27.8534  -11.3042   18.8417 H   0  0  0  0  0  0
  -27.3771  -12.6068   17.7880 H   0  0  0  0  0  0
  -27.6769  -14.2544   19.5420 H   0  0  0  0  0  0
  -28.6946  -12.0113   21.3606 H   0  0  0  0  0  0
  -28.4355  -13.6559   21.8644 H   0  0  0  0  0  0
  -25.2735   -9.5695   22.4750 H   0  0  0  0  0  0
  -23.9983   -7.4642   22.7481 H   0  0  0  0  0  0
  -21.0819   -8.8732   19.8954 H   0  0  0  0  0  0
  -22.3645  -10.9648   19.6140 H   0  0  0  0  0  0
  -21.2010   -7.6133   23.9693 H   0  0  0  0  0  0
  -21.1483   -6.0512   25.9071 H   0  0  0  0  0  0
  -22.0600   -2.7588   23.2829 H   0  0  0  0  0  0
  -22.4046  -11.9929   22.4821 H   0  0  0  0  0  0
  -21.1052  -13.1280   22.2494 H   0  0  0  0  0  0
  -24.6485  -15.8307   20.4839 H   0  0  0  0  0  0
  -26.2484  -15.6096   19.9923 H   0  0  0  0  0  0
  -26.7150  -32.5472   23.1126 H   0  0  0  0  0  0
  -25.0158  -33.9737   25.0508 H   0  0  0  0  0  0
  -22.7077  -31.3054   21.3978 H   0  0  0  0  0  0
  -23.3705  -35.9668   23.3283 H   0  0  0  0  0  0
  -24.3600  -36.8915   22.2067 H   0  0  0  0  0  0
  -23.7236  -37.6521   23.6647 H   0  0  0  0  0  0
  -26.0659  -31.5488   20.5875 H   0  0  0  0  0  0
  -26.8380  -30.8646   21.9872 H   0  0  0  0  0  0
  -28.1049  -29.0072   21.2259 H   0  0  0  0  0  0
  -26.0646  -25.9763   18.9415 H   0  0  0  0  0  0
  -23.9960  -27.3125   18.9795 H   0  0  0  0  0  0
  -23.7411  -30.5801   19.3927 H   0  0  0  0  0  0
  -22.7524  -29.2305   19.8670 H   0  0  0  0  0  0
  -25.1273  -36.1928   25.0829 H   0  0  0  0  0  0
  -21.0028  -28.3250   24.1396 H   0  0  0  0  0  0
  -20.5698  -26.2323   23.3575 H   0  0  0  0  0  0
  -21.6645  -26.7487   22.1176 H   0  0  0  0  0  0
  -19.6860  -25.6323   21.1233 H   0  0  0  0  0  0
  -19.6655  -27.3240   20.6747 H   0  0  0  0  0  0
  -17.4205  -26.6773   21.4009 H   0  0  0  0  0  0
  -18.0302  -26.0092   22.9014 H   0  0  0  0  0  0
  -19.7926  -30.7348   24.2241 H   0  0  0  0  0  0
  -17.5005  -31.6298   24.5195 H   0  0  0  0  0  0
  -15.5354  -30.3022   23.7681 H   0  0  0  0  0  0
  -15.8681  -28.0874   22.7053 H   0  0  0  0  0  0
  -24.6004  -30.6929   25.7811 H   0  0  0  0  0  0
  -24.8920  -32.2828   26.4845 H   0  0  0  0  0  0
  -25.8202  -30.8918   27.0219 H   0  0  0  0  0  0
  -26.2849  -29.6754   24.1171 H   0  0  0  0  0  0
  -27.4084  -29.7247   25.4539 H   0  0  0  0  0  0
  -27.8678  -30.4287   23.9218 H   0  0  0  0  0  0
  -27.2646  -33.3610   26.2013 H   0  0  0  0  0  0
  -28.3894  -32.6814   25.0345 H   0  0  0  0  0  0
  -28.0641  -31.8434   26.5432 H   0  0  0  0  0  0
  -28.2583  -38.0119   24.7536 H   0  0  0  0  0  0
  -28.1061  -36.2658   24.6268 H   0  0  0  0  0  0
  -27.2319  -37.1452   25.8886 H   0  0  0  0  0  0
  -20.9309  -29.8821   21.6955 H   0  0  0  0  0  0
  -26.0116  -38.2827   24.1449 H   0  0  0  0  0  0
  -27.9561  -17.5209   21.4933 H   0  0  0  0  0  0
  -30.4319  -21.0384   20.9648 H   0  0  0  0  0  0
  -32.0464  -17.1637   20.1813 H   0  0  0  0  0  0
  -25.9518  -25.2616   21.3514 H   0  0  0  0  0  0
  -25.2364  -22.6927   20.5038 H   0  0  0  0  0  0
  -24.6333  -23.4342   21.9842 H   0  0  0  0  0  0
  -29.3215  -22.8320   21.6556 H   0  0  0  0  0  0
  -28.7108  -22.4784   20.0536 H   0  0  0  0  0  0
  -25.5558  -21.3048   22.4971 H   0  0  0  0  0  0
  -26.5127  -22.5200   23.2971 H   0  0  0  0  0  0
  -29.6455  -25.1593   20.8699 H   0  0  0  0  0  0
  -28.6088  -25.9070   22.0394 H   0  0  0  0  0  0
  -28.8873  -15.3466   21.2125 H   0  0  0  0  0  0
  -27.3318  -18.5937   22.8310 H   0  0  0  0  0  0
  -26.3564  -19.9722   23.1837 H   0  0  0  0  0  0
  1 25  1  0  0  0
  1 30  2  0  0  0
  1 85  1  0  0  0
  2  3  1  0  0  0
  2 25  1  0  0  0
  2 88  1  0  0  0
  2 89  1  0  0  0
  3  4  1  0  0  0
  3 90  1  0  0  0
  3 91  1  0  0  0
  4  5  1  0  0  0
  4 92  1  0  0  0
  4 93  1  0  0  0
  5  6  1  0  0  0
  5 26  1  0  0  0
  5 94  1  0  0  0
  6 25  1  0  0  0
  6 95  1  0  0  0
  6 96  1  0  0  0
  7  8  2  0  0  0
  7 26  1  0  0  0
  7 29  1  0  0  0
  8  9  1  0  0  0
  8 22  1  0  0  0
  9 10  1  0  0  0
  9 27  2  0  0  0
 10 11  2  0  0  0
 10 15  1  0  0  0
 11 12  1  0  0  0
 11 97  1  0  0  0
 12 13  2  0  0  0
 12 98  1  0  0  0
 13 14  1  0  0  0
 13 31  1  0  0  0
 14 15  2  0  0  0
 14 99  1  0  0  0
 15100  1  0  0  0
 16 17  2  0  0  0
 16 21  1  0  0  0
 16 31  1  0  0  0
 17 18  1  0  0  0
 17101  1  0  0  0
 18 19  2  0  0  0
 18102  1  0  0  0
 19 20  1  0  0  0
 19 24  1  0  0  0
 20 21  2  0  0  0
 20103  1  0  0  0
 21 23  1  0  0  0
 22 28  1  0  0  0
 22 32  2  0  0  0
 26 27  1  0  0  0
 28104  1  0  0  0
 28105  1  0  0  0
 29106  1  0  0  0
 29107  1  0  0  0
 33 34  1  0  0  0
 33 66  1  0  0  0
 33 70  2  0  0  0
 34 36  1  0  0  0
 34 59  1  0  0  0
 34108  1  0  0  0
 35 44  2  0  0  0
 35 45  1  0  0  0
 35 68  1  0  0  0
 36 56  1  0  0  0
 36109  1  0  0  0
 37 39  1  0  0  0
 37 47  1  0  0  0
 37 66  1  0  0  0
 37110  1  0  0  0
 38 43  2  0  0  0
 38 46  1  0  0  0
 38 47  1  0  0  0
 39 64  1  0  0  0
 39 67  2  0  0  0
 40 52  1  0  0  0
 40 53  2  0  0  0
 40 58  1  0  0  0
 41111  1  0  0  0
 41112  1  0  0  0
 41113  1  0  0  0
 41 48  1  0  0  0
 42 43  1  0  0  0
 42 66  1  0  0  0
 42114  1  0  0  0
 42115  1  0  0  0
 43 44  1  0  0  0
 44116  1  0  0  0
 45 46  2  0  0  0
 45117  1  0  0  0
 46118  1  0  0  0
 47119  1  0  0  0
 47120  1  0  0  0
 48 56  1  0  0  0
 48 65  1  0  0  0
 48121  1  0  0  0
 49 50  1  0  0  0
 49 53  1  0  0  0
 49 64  1  0  0  0
 49122  1  0  0  0
 50 51  1  0  0  0
 50123  1  0  0  0
 50124  1  0  0  0
 51 52  1  0  0  0
 51125  1  0  0  0
 51126  1  0  0  0
 52127  1  0  0  0
 52128  1  0  0  0
 53 54  1  0  0  0
 54 55  2  0  0  0
 54129  1  0  0  0
 55 57  1  0  0  0
 55130  1  0  0  0
 56 69  2  0  0  0
 57 58  2  0  0  0
 57131  1  0  0  0
 58132  1  0  0  0
 59 60  1  0  0  0
 59 61  1  0  0  0
 59 62  1  0  0  0
 60133  1  0  0  0
 60134  1  0  0  0
 60135  1  0  0  0
 61136  1  0  0  0
 61137  1  0  0  0
 61138  1  0  0  0
 62139  1  0  0  0
 62140  1  0  0  0
 62141  1  0  0  0
 63 65  1  0  0  0
 63142  1  0  0  0
 63143  1  0  0  0
 63144  1  0  0  0
 64145  1  0  0  0
 65146  1  0  0  0
 68 83  1  0  0  0
 71 74  2  0  0  0
 71 75  1  0  0  0
 71147  1  0  0  0
 72 74  1  0  0  0
 72 76  2  0  0  0
 72148  1  0  0  0
 73 75  2  0  0  0
 73 76  1  0  0  0
 73149  1  0  0  0
 74 79  1  0  0  0
 75 85  1  0  0  0
 76 87  1  0  0  0
 77 78  2  0  0  0
 77 80  1  0  0  0
 77150  1  0  0  0
 78 81  1  0  0  0
 78 83  1  0  0  0
 79 84  1  0  0  0
 79 86  2  0  0  0
 80 82  1  0  0  0
 80151  1  0  0  0
 80152  1  0  0  0
 81 84  1  0  0  0
 81153  1  0  0  0
 81154  1  0  0  0
 82 84  1  0  0  0
 82155  1  0  0  0
 82156  1  0  0  0
 83157  1  0  0  0
 83158  1  0  0  0
 85159  1  0  0  0
 86160  1  0  0  0
 86161  1  0  0  0
M  CHG  1  86   1
M  ISO  4   1 100  68 101  83 101  85 100
M  END
> <chiral flag>
0

> <version>
0

> <s_m_source_file>
/data/baiqing/PycharmProjects/Reinvent-master-3.2/result/LINK_invent/BTK/process_docking_weight1_custom_product_contain_oxygen_bond_distance_aromatic_linkinvent_7_9_3/rearranged_h_0144.sdf

> <i_m_source_file_index>
70

> <r_mmod_Potential_Energy-OPLS-2005>
-86.1537933349609

> <r_mmod_Stretch_Energy-OPLS-2005>
87.8941116333008

> <r_mmod_Bend_Energy-OPLS-2005>
164.949157714844

> <r_mmod_Torsional_Energy-OPLS-2005>
256.875518798828

> <r_mmod_Improper_Torsional_Energy-OPLS-2005>
5.76538753509521

> <r_mmod_Van_der_Waal_Energy-OPLS-2005>
173.764205932617

> <r_mmod_Electrostatic_Energy-OPLS-2005>
-392.797576904297

> <r_mmod_Solvation_Energy-OPLS-2005>
-418.811370849609

> <b_mmod_Minimization_Converged-OPLS-2005>
0

> <r_mmod_RMS_Derivative-OPLS-2005>
3.27703738212585

$$$$
70
                    3D
 Structure written by MMmdl.
165174  0  0  1  0            999 V2000
  -30.6191  -14.6113   20.5722 C   0  0  0  0  0  0
  -30.4460  -12.4041   19.4345 C   0  0  0  0  0  0
  -29.5114  -12.5508   18.2103 C   0  0  0  0  0  0
  -28.0210  -12.4039   18.5961 C   0  0  0  0  0  0
  -27.6557  -13.2041   19.8738 C   0  0  2  0  0  0
  -28.7029  -13.0008   20.9913 C   0  0  0  0  0  0
  -25.2495  -13.8131   20.5632 C   0  0  0  0  0  0
  -24.1779  -13.0410   20.9194 C   0  0  0  0  0  0
  -24.6352  -11.6893   20.8728 C   0  0  0  0  0  0
  -23.9010  -10.4284   21.0372 C   0  0  0  0  0  0
  -24.3584   -9.4213   21.9146 C   0  0  0  0  0  0
  -23.6297   -8.2235   22.0719 C   0  0  0  0  0  0
  -22.4282   -8.0269   21.3514 C   0  0  0  0  0  0
  -21.9882   -9.0225   20.4619 C   0  0  0  0  0  0
  -22.7182  -10.2121   20.3028 C   0  0  0  0  0  0
  -21.6839   -6.0739   22.5291 C   0  0  0  0  0  0
  -21.3993   -6.5617   23.8227 C   0  0  0  0  0  0
  -21.3648   -5.6774   24.9180 C   0  0  0  0  0  0
  -21.6052   -4.3036   24.7208 C   0  0  0  0  0  0
  -21.8822   -3.8137   23.4311 C   0  0  0  0  0  0
  -21.9176   -4.6961   22.3402 C   0  0  0  0  0  0
  -22.7806  -13.5216   21.1848 C   0  0  0  0  0  0
  -22.1658   -4.2164   21.0958 F   0  0  0  0  0  0
  -21.5655   -3.4503   25.7705 F   0  0  0  0  0  0
  -30.0207  -13.3826   20.4548 N   0  0  0  0  0  0
  -26.2949  -12.9319   20.3323 N   0  0  0  0  0  0
  -25.9276  -11.6473   20.5761 N   0  0  0  0  0  0
  -22.0388  -12.8278   22.0404 N   0  0  0  0  0  0
  -25.4005  -15.1854   20.3969 N   0  0  0  0  0  0
  -31.7353  -14.8356   20.0911 O   0  0  0  0  0  0
  -21.6615   -6.8889   21.4263 O   0  0  0  0  0  0
  -22.3535  -14.5536   20.6682 O   0  0  0  0  0  0
  -24.6147  -31.8632   23.1981 C   0  0  0  0  0  0
  -25.9019  -32.4794   23.8316 C   0  0  1  0  0  0
  -27.2608  -27.3611   20.1017 C   0  0  0  0  0  0
  -25.5877  -33.8581   24.2265 N   0  0  0  0  0  0
  -23.4112  -30.4818   21.5367 C   0  0  2  0  0  0
  -24.8686  -28.9375   20.0972 C   0  0  0  0  0  0
  -22.7417  -29.4677   22.4892 C   0  0  0  0  0  0
  -18.0300  -28.1427   22.8500 C   0  0  0  0  0  0
  -24.1494  -36.7239   23.2643 C   0  0  0  0  0  0
  -25.9463  -30.8044   21.3650 C   0  0  0  0  0  0
  -26.0236  -29.4309   20.7094 C   0  0  0  0  0  0
  -27.2134  -28.6502   20.7139 C   0  0  0  0  0  0
  -26.0784  -26.9148   19.4598 C   0  0  0  0  0  0
  -24.8954  -27.6864   19.4587 C   0  0  0  0  0  0
  -23.6208  -29.7951   20.1572 C   0  0  0  0  0  0
  -25.4125  -36.3097   24.0360 C   0  0  1  0  0  0
  -20.5897  -28.3736   23.1279 C   0  0  2  0  0  0
  -20.6772  -26.9463   22.5423 C   0  0  0  0  0  0
  -19.5760  -26.6427   21.5210 C   0  0  0  0  0  0
  -18.1940  -26.7985   22.1627 C   0  0  0  0  0  0
  -19.1554  -28.8889   23.2900 C   0  0  0  0  0  0
  -18.9489  -30.1483   23.8926 C   0  0  0  0  0  0
  -17.6496  -30.6625   24.0594 C   0  0  0  0  0  0
  -25.9056  -34.9459   23.5132 C   0  0  0  0  0  0
  -16.5370  -29.9148   23.6339 C   0  0  0  0  0  0
  -16.7294  -28.6558   23.0357 C   0  0  0  0  0  0
  -26.4479  -31.6578   25.0632 C   0  0  0  0  0  0
  -25.3694  -31.3668   26.1322 C   0  0  0  0  0  0
  -27.0341  -30.3031   24.6026 C   0  0  0  0  0  0
  -27.6102  -32.4286   25.7355 C   0  0  0  0  0  0
  -27.5601  -37.1761   24.8491 C   0  0  0  0  0  0
  -21.4137  -29.3061   22.3631 N   0  0  0  0  0  0
  -26.4311  -37.3782   23.9435 N   0  0  0  0  0  0
  -24.6756  -31.0659   22.0924 N   0  0  0  0  0  0
  -23.4153  -28.8243   23.2983 O   0  0  0  0  0  0
  -28.4394  -26.5961   20.1642 O   0  0  0  0  0  0
  -26.5650  -34.8945   22.4714 O   0  0  0  0  0  0
  -23.5329  -32.1420   23.7349 O   0  0  0  0  0  0
  -30.1996  -18.1347   21.2963 C   0  0  0  0  0  0
  -28.4907  -19.5351   20.2480 C   0  0  0  0  0  0
  -28.4567  -17.1192   19.9532 C   0  0  0  0  0  0
  -29.6475  -19.4519   21.0550 C   0  0  0  0  0  0
  -29.5941  -16.9420   20.7723 C   0  0  0  0  0  0
  -27.9235  -18.3882   19.6786 C   0  0  0  0  0  0
  -29.5466  -22.7251   20.2704 C   0  0  0  0  0  0
  -30.1054  -20.6789   21.8023 C   0  0  0  0  0  0
  -29.4348  -24.3574   21.9648 C   0  0  0  0  0  0
  -30.1112  -23.0917   22.5194 C   0  0  0  0  0  0
  -29.6047  -24.2877   20.4538 C   0  0  1  0  0  0
  -31.0461  -24.7107   20.0514 C   0  0  0  0  0  0
  -28.6799  -25.2023   18.2021 C   0  0  0  0  0  0
  -28.4920  -25.1900   19.7299 C   0  0  2  0  0  0
  -29.9218  -22.0263   21.5053 N   0  0  0  0  0  0
  -29.9049  -15.5826   21.2119 N   0  0  0  0  0  0
  -30.7326  -20.4017   22.9621 N   0  3  0  0  0  0
  -29.3408  -22.1616   19.1941 O   0  0  0  0  0  0
  -26.8137  -18.5038   18.9072 F   0  0  0  0  0  0
  -31.4796  -12.5646   19.1208 H   0  0  0  0  0  0
  -30.4175  -11.3920   19.8416 H   0  0  0  0  0  0
  -29.7853  -11.8237   17.4446 H   0  0  0  0  0  0
  -29.6665  -13.5325   17.7618 H   0  0  0  0  0  0
  -27.8064  -11.3467   18.7371 H   0  0  0  0  0  0
  -27.3972  -12.7314   17.7616 H   0  0  0  0  0  0
  -27.6892  -14.2459   19.5835 H   0  0  0  0  0  0
  -28.7196  -11.9534   21.3068 H   0  0  0  0  0  0
  -28.4398  -13.5686   21.8819 H   0  0  0  0  0  0
  -25.2727   -9.5710   22.4717 H   0  0  0  0  0  0
  -24.0017   -7.4625   22.7415 H   0  0  0  0  0  0
  -21.0820   -8.8678   19.8969 H   0  0  0  0  0  0
  -22.3582  -10.9624   19.6140 H   0  0  0  0  0  0
  -21.1967   -7.6138   23.9724 H   0  0  0  0  0  0
  -21.1489   -6.0498   25.9090 H   0  0  0  0  0  0
  -22.0612   -2.7602   23.2787 H   0  0  0  0  0  0
  -22.3960  -12.0047   22.5059 H   0  0  0  0  0  0
  -21.0969  -13.1329   22.2404 H   0  0  0  0  0  0
  -24.5810  -15.7805   20.4514 H   0  0  0  0  0  0
  -26.1342  -15.5986   19.8419 H   0  0  0  0  0  0
  -26.7057  -32.5493   23.1049 H   0  0  0  0  0  0
  -24.9971  -33.9727   25.0387 H   0  0  0  0  0  0
  -22.7024  -31.2992   21.3842 H   0  0  0  0  0  0
  -23.3812  -35.9515   23.3324 H   0  0  0  0  0  0
  -24.3595  -36.8796   22.2046 H   0  0  0  0  0  0
  -23.7162  -37.6424   23.6617 H   0  0  0  0  0  0
  -26.0565  -31.5671   20.5925 H   0  0  0  0  0  0
  -26.8327  -30.8597   21.9853 H   0  0  0  0  0  0
  -28.0944  -29.0289   21.2092 H   0  0  0  0  0  0
  -26.0400  -25.9671   18.9443 H   0  0  0  0  0  0
  -24.0117  -27.3153   18.9553 H   0  0  0  0  0  0
  -23.6838  -30.5484   19.3715 H   0  0  0  0  0  0
  -22.7562  -29.1808   19.9004 H   0  0  0  0  0  0
  -25.1308  -36.1958   25.0855 H   0  0  0  0  0  0
  -21.0041  -28.3332   24.1376 H   0  0  0  0  0  0
  -20.5638  -26.2376   23.3637 H   0  0  0  0  0  0
  -21.6649  -26.7492   22.1230 H   0  0  0  0  0  0
  -19.6931  -25.6336   21.1225 H   0  0  0  0  0  0
  -19.6694  -27.3232   20.6734 H   0  0  0  0  0  0
  -17.4228  -26.6775   21.3997 H   0  0  0  0  0  0
  -18.0346  -26.0108   22.9013 H   0  0  0  0  0  0
  -19.7962  -30.7297   24.2289 H   0  0  0  0  0  0
  -17.5061  -31.6294   24.5226 H   0  0  0  0  0  0
  -15.5377  -30.3078   23.7629 H   0  0  0  0  0  0
  -15.8700  -28.0885   22.7068 H   0  0  0  0  0  0
  -24.5935  -30.6982   25.7574 H   0  0  0  0  0  0
  -24.8789  -32.2790   26.4700 H   0  0  0  0  0  0
  -25.7957  -30.8838   27.0106 H   0  0  0  0  0  0
  -26.2884  -29.6704   24.1180 H   0  0  0  0  0  0
  -27.4246  -29.7348   25.4472 H   0  0  0  0  0  0
  -27.8657  -30.4391   23.9107 H   0  0  0  0  0  0
  -27.2830  -33.3632   26.1915 H   0  0  0  0  0  0
  -28.3881  -32.6732   25.0111 H   0  0  0  0  0  0
  -28.0795  -31.8374   26.5223 H   0  0  0  0  0  0
  -28.2665  -38.0025   24.7595 H   0  0  0  0  0  0
  -28.1071  -36.2578   24.6297 H   0  0  0  0  0  0
  -27.2330  -37.1367   25.8895 H   0  0  0  0  0  0
  -20.9299  -29.8737   21.6805 H   0  0  0  0  0  0
  -26.0221  -38.2871   24.1427 H   0  0  0  0  0  0
  -31.0407  -18.0132   21.9669 H   0  0  0  0  0  0
  -27.9658  -20.4630   20.0929 H   0  0  0  0  0  0
  -27.9203  -16.2810   19.5579 H   0  0  0  0  0  0
  -29.8601  -25.2793   22.3607 H   0  0  0  0  0  0
  -28.3733  -24.3499   22.2225 H   0  0  0  0  0  0
  -29.6644  -22.8366   23.4832 H   0  0  0  0  0  0
  -31.1763  -23.2552   22.6890 H   0  0  0  0  0  0
  -31.7998  -24.1587   20.6163 H   0  0  0  0  0  0
  -31.2323  -25.7722   20.2220 H   0  0  0  0  0  0
  -31.2569  -24.4901   19.0023 H   0  0  0  0  0  0
  -28.5827  -24.1996   17.7920 H   0  0  0  0  0  0
  -29.6645  -25.5806   17.9255 H   0  0  0  0  0  0
  -27.9460  -25.8285   17.6968 H   0  0  0  0  0  0
  -27.5295  -24.7310   19.9552 H   0  0  0  0  0  0
  -29.1444  -15.1572   21.7232 H   0  0  0  0  0  0
  -30.8811  -19.4346   23.2018 H   0  0  0  0  0  0
  -31.1908  -21.0908   23.5364 H   0  0  0  0  0  0
  1 25  1  0  0  0
  1 30  2  0  0  0
  1 86  1  0  0  0
  2  3  1  0  0  0
  2 25  1  0  0  0
  2 90  1  0  0  0
  2 91  1  0  0  0
  3  4  1  0  0  0
  3 92  1  0  0  0
  3 93  1  0  0  0
  4  5  1  0  0  0
  4 94  1  0  0  0
  4 95  1  0  0  0
  5  6  1  0  0  0
  5 26  1  0  0  0
  5 96  1  0  0  0
  6 25  1  0  0  0
  6 97  1  0  0  0
  6 98  1  0  0  0
  7  8  2  0  0  0
  7 26  1  0  0  0
  7 29  1  0  0  0
  8  9  1  0  0  0
  8 22  1  0  0  0
  9 10  1  0  0  0
  9 27  2  0  0  0
 10 11  2  0  0  0
 10 15  1  0  0  0
 11 12  1  0  0  0
 11 99  1  0  0  0
 12 13  2  0  0  0
 12100  1  0  0  0
 13 14  1  0  0  0
 13 31  1  0  0  0
 14 15  2  0  0  0
 14101  1  0  0  0
 15102  1  0  0  0
 16 17  2  0  0  0
 16 21  1  0  0  0
 16 31  1  0  0  0
 17 18  1  0  0  0
 17103  1  0  0  0
 18 19  2  0  0  0
 18104  1  0  0  0
 19 20  1  0  0  0
 19 24  1  0  0  0
 20 21  2  0  0  0
 20105  1  0  0  0
 21 23  1  0  0  0
 22 28  1  0  0  0
 22 32  2  0  0  0
 26 27  1  0  0  0
 28106  1  0  0  0
 28107  1  0  0  0
 29108  1  0  0  0
 29109  1  0  0  0
 33 34  1  0  0  0
 33 66  1  0  0  0
 33 70  2  0  0  0
 34 36  1  0  0  0
 34 59  1  0  0  0
 34110  1  0  0  0
 35 44  2  0  0  0
 35 45  1  0  0  0
 35 68  1  0  0  0
 36 56  1  0  0  0
 36111  1  0  0  0
 37 39  1  0  0  0
 37 47  1  0  0  0
 37 66  1  0  0  0
 37112  1  0  0  0
 38 43  2  0  0  0
 38 46  1  0  0  0
 38 47  1  0  0  0
 39 64  1  0  0  0
 39 67  2  0  0  0
 40 52  1  0  0  0
 40 53  2  0  0  0
 40 58  1  0  0  0
 41113  1  0  0  0
 41114  1  0  0  0
 41115  1  0  0  0
 41 48  1  0  0  0
 42 43  1  0  0  0
 42 66  1  0  0  0
 42116  1  0  0  0
 42117  1  0  0  0
 43 44  1  0  0  0
 44118  1  0  0  0
 45 46  2  0  0  0
 45119  1  0  0  0
 46120  1  0  0  0
 47121  1  0  0  0
 47122  1  0  0  0
 48 56  1  0  0  0
 48 65  1  0  0  0
 48123  1  0  0  0
 49 50  1  0  0  0
 49 53  1  0  0  0
 49 64  1  0  0  0
 49124  1  0  0  0
 50 51  1  0  0  0
 50125  1  0  0  0
 50126  1  0  0  0
 51 52  1  0  0  0
 51127  1  0  0  0
 51128  1  0  0  0
 52129  1  0  0  0
 52130  1  0  0  0
 53 54  1  0  0  0
 54 55  2  0  0  0
 54131  1  0  0  0
 55 57  1  0  0  0
 55132  1  0  0  0
 56 69  2  0  0  0
 57 58  2  0  0  0
 57133  1  0  0  0
 58134  1  0  0  0
 59 60  1  0  0  0
 59 61  1  0  0  0
 59 62  1  0  0  0
 60135  1  0  0  0
 60136  1  0  0  0
 60137  1  0  0  0
 61138  1  0  0  0
 61139  1  0  0  0
 61140  1  0  0  0
 62141  1  0  0  0
 62142  1  0  0  0
 62143  1  0  0  0
 63 65  1  0  0  0
 63144  1  0  0  0
 63145  1  0  0  0
 63146  1  0  0  0
 64147  1  0  0  0
 65148  1  0  0  0
 68 84  1  0  0  0
 71 74  2  0  0  0
 71 75  1  0  0  0
 71149  1  0  0  0
 72 74  1  0  0  0
 72 76  2  0  0  0
 72150  1  0  0  0
 73 75  2  0  0  0
 73 76  1  0  0  0
 73151  1  0  0  0
 74 78  1  0  0  0
 75 86  1  0  0  0
 76 89  1  0  0  0
 77 81  1  0  0  0
 77 85  1  0  0  0
 77 88  2  0  0  0
 78 85  1  0  0  0
 78 87  2  0  0  0
 79 80  1  0  0  0
 79 81  1  0  0  0
 79152  1  0  0  0
 79153  1  0  0  0
 80 85  1  0  0  0
 80154  1  0  0  0
 80155  1  0  0  0
 81 82  1  0  0  0
 81 84  1  0  0  0
 82156  1  0  0  0
 82157  1  0  0  0
 82158  1  0  0  0
 83159  1  0  0  0
 83160  1  0  0  0
 83161  1  0  0  0
 83 84  1  0  0  0
 84162  1  0  0  0
 86163  1  0  0  0
 87164  1  0  0  0
 87165  1  0  0  0
M  CHG  1  87   1
M  ISO  4   1 100  68 101  84 101  86 100
M  END
> <chiral flag>
0

> <version>
0

> <s_m_source_file>
/data/baiqing/PycharmProjects/Reinvent-master-3.2/result/LINK_invent/BTK/process_docking_weight1_custom_product_contain_oxygen_bond_distance_aromatic_linkinvent_7_9_3/rearranged_h_0144.sdf

> <i_m_source_file_index>
71

> <r_mmod_Potential_Energy-OPLS-2005>
-79.1924057006836

> <r_mmod_Stretch_Energy-OPLS-2005>
82.8728408813477

> <r_mmod_Bend_Energy-OPLS-2005>
190.267044067383

> <r_mmod_Torsional_Energy-OPLS-2005>
292.287078857422

> <r_mmod_Improper_Torsional_Energy-OPLS-2005>
11.4360837936401

> <r_mmod_Van_der_Waal_Energy-OPLS-2005>
155.49577331543

> <r_mmod_Electrostatic_Energy-OPLS-2005>
-419.868865966797

> <r_mmod_Solvation_Energy-OPLS-2005>
-426.676696777344

> <b_mmod_Minimization_Converged-OPLS-2005>
0

> <r_mmod_RMS_Derivative-OPLS-2005>
6.82712745666504

$$$$
71
                    3D
 Structure written by MMmdl.
160169  0  0  1  0            999 V2000
  -30.6221  -14.5565   20.5594 C   0  0  0  0  0  0
  -30.4256  -12.3405   19.4475 C   0  0  0  0  0  0
  -29.4942  -12.4919   18.2181 C   0  0  0  0  0  0
  -28.0077  -12.3633   18.6196 C   0  0  0  0  0  0
  -27.6501  -13.2037   19.8756 C   0  0  2  0  0  0
  -28.6972  -12.9919   20.9939 C   0  0  0  0  0  0
  -25.2547  -13.8227   20.5843 C   0  0  0  0  0  0
  -24.1756  -13.0468   20.9252 C   0  0  0  0  0  0
  -24.6284  -11.6931   20.8745 C   0  0  0  0  0  0
  -23.8938  -10.4315   21.0359 C   0  0  0  0  0  0
  -24.3496   -9.4252   21.9152 C   0  0  0  0  0  0
  -23.6201   -8.2283   22.0733 C   0  0  0  0  0  0
  -22.4208   -8.0270   21.3516 C   0  0  0  0  0  0
  -21.9807   -9.0234   20.4635 C   0  0  0  0  0  0
  -22.7087  -10.2137   20.3035 C   0  0  0  0  0  0
  -21.6858   -6.0690   22.5246 C   0  0  0  0  0  0
  -21.4035   -6.5597   23.8176 C   0  0  0  0  0  0
  -21.3665   -5.6760   24.9151 C   0  0  0  0  0  0
  -21.6053   -4.3030   24.7193 C   0  0  0  0  0  0
  -21.8824   -3.8095   23.4323 C   0  0  0  0  0  0
  -21.9192   -4.6926   22.3371 C   0  0  0  0  0  0
  -22.7792  -13.5312   21.1780 C   0  0  0  0  0  0
  -22.1666   -4.2106   21.0956 F   0  0  0  0  0  0
  -21.5595   -3.4509   25.7713 F   0  0  0  0  0  0
  -30.0079  -13.3434   20.4349 N   0  0  0  0  0  0
  -26.2941  -12.9352   20.3456 N   0  0  0  0  0  0
  -25.9209  -11.6514   20.5758 N   0  0  0  0  0  0
  -22.0360  -12.8404   22.0377 N   0  0  0  0  0  0
  -25.4322  -15.1942   20.4341 N   0  0  0  0  0  0
  -31.7938  -14.7399   20.2192 O   0  0  0  0  0  0
  -21.6623   -6.8833   21.4195 O   0  0  0  0  0  0
  -22.3510  -14.5539   20.6490 O   0  0  0  0  0  0
  -24.6255  -31.8613   23.2016 C   0  0  0  0  0  0
  -25.9123  -32.4792   23.8330 C   0  0  1  0  0  0
  -27.2202  -27.3014   20.1769 C   0  0  0  0  0  0
  -25.5995  -33.8601   24.2290 N   0  0  0  0  0  0
  -23.4212  -30.4813   21.5376 C   0  0  2  0  0  0
  -24.8749  -28.9251   20.1204 C   0  0  0  0  0  0
  -22.7415  -29.4667   22.4890 C   0  0  0  0  0  0
  -18.0300  -28.1353   22.8436 C   0  0  0  0  0  0
  -24.1501  -36.7291   23.2626 C   0  0  0  0  0  0
  -25.9571  -30.7853   21.3808 C   0  0  0  0  0  0
  -26.0328  -29.4025   20.7489 C   0  0  0  0  0  0
  -27.2076  -28.5951   20.7803 C   0  0  0  0  0  0
  -26.0525  -26.8846   19.5055 C   0  0  0  0  0  0
  -24.8845  -27.6705   19.4908 C   0  0  0  0  0  0
  -23.6459  -29.8119   20.1536 C   0  0  0  0  0  0
  -25.4137  -36.3100   24.0308 C   0  0  1  0  0  0
  -20.5880  -28.3755   23.1267 C   0  0  2  0  0  0
  -20.6811  -26.9441   22.5487 C   0  0  0  0  0  0
  -19.5871  -26.6342   21.5242 C   0  0  0  0  0  0
  -18.2000  -26.7873   22.1568 C   0  0  0  0  0  0
  -19.1521  -28.8853   23.2859 C   0  0  0  0  0  0
  -18.9446  -30.1446   23.8884 C   0  0  0  0  0  0
  -17.6471  -30.6580   24.0574 C   0  0  0  0  0  0
  -25.9054  -34.9473   23.5082 C   0  0  0  0  0  0
  -16.5365  -29.9055   23.6331 C   0  0  0  0  0  0
  -16.7305  -28.6497   23.0287 C   0  0  0  0  0  0
  -26.4522  -31.6560   25.0675 C   0  0  0  0  0  0
  -25.3762  -31.3715   26.1406 C   0  0  0  0  0  0
  -27.0369  -30.2982   24.6132 C   0  0  0  0  0  0
  -27.6090  -32.4271   25.7474 C   0  0  0  0  0  0
  -27.5595  -37.1820   24.8462 C   0  0  0  0  0  0
  -21.4122  -29.3102   22.3609 N   0  0  0  0  0  0
  -26.4319  -37.3799   23.9383 N   0  0  0  0  0  0
  -24.6875  -31.0588   22.0999 N   0  0  0  0  0  0
  -23.4117  -28.8253   23.3034 O   0  0  0  0  0  0
  -28.3397  -26.4678   20.1198 O   0  0  0  0  0  0
  -26.5593  -34.8944   22.4644 O   0  0  0  0  0  0
  -23.5418  -32.1417   23.7318 O   0  0  0  0  0  0
  -30.8763  -17.2068   22.3326 C   0  0  0  0  0  0
  -31.0743  -18.5314   22.7733 C   0  0  0  0  0  0
  -29.3981  -18.0537   20.5968 C   0  0  0  0  0  0
  -29.5757  -19.4207   21.0259 C   0  0  0  0  0  0
  -30.0495  -16.9473   21.2221 C   0  0  0  0  0  0
  -30.4511  -19.6243   22.1307 C   0  0  0  0  0  0
  -28.9254  -20.5526   20.2496 C   0  0  0  0  0  0
  -28.4597  -23.0883   19.7192 C   0  0  0  0  0  0
  -29.0759  -22.8266   21.6785 C   0  0  0  0  0  0
  -28.1573  -23.9063   21.0020 C   0  0  0  0  0  0
  -26.6877  -23.8344   21.4485 C   0  0  0  0  0  0
  -28.5942  -25.4401   21.1449 C   0  0  0  0  0  0
  -28.7914  -21.9007   20.5609 N   0  0  0  0  0  0
  -29.7757  -15.5915   20.8171 N   0  0  0  0  0  0
  -28.3784  -20.2241   19.0734 N   0  3  0  0  0  0
  -30.7350  -20.8604   22.6007 F   0  0  0  0  0  0
  -31.4738  -12.4447   19.1679 H   0  0  0  0  0  0
  -30.3266  -11.3385   19.8733 H   0  0  0  0  0  0
  -29.7349  -11.7378   17.4684 H   0  0  0  0  0  0
  -29.6640  -13.4636   17.7476 H   0  0  0  0  0  0
  -27.8037  -11.3083   18.8082 H   0  0  0  0  0  0
  -27.3619  -12.6484   17.7881 H   0  0  0  0  0  0
  -27.6883  -14.2478   19.5668 H   0  0  0  0  0  0
  -28.7004  -11.9460   21.3152 H   0  0  0  0  0  0
  -28.4575  -13.5660   21.8910 H   0  0  0  0  0  0
  -25.2604   -9.5798   22.4733 H   0  0  0  0  0  0
  -23.9909   -7.4703   22.7476 H   0  0  0  0  0  0
  -21.0721   -8.8720   19.8954 H   0  0  0  0  0  0
  -22.3477  -10.9658   19.6148 H   0  0  0  0  0  0
  -21.2093   -7.6105   23.9690 H   0  0  0  0  0  0
  -21.1453   -6.0475   25.9062 H   0  0  0  0  0  0
  -22.0592   -2.7549   23.2825 H   0  0  0  0  0  0
  -22.3891  -12.0115   22.4897 H   0  0  0  0  0  0
  -21.0956  -13.1476   22.2418 H   0  0  0  0  0  0
  -24.6744  -15.8498   20.5923 H   0  0  0  0  0  0
  -26.2762  -15.6434   20.1056 H   0  0  0  0  0  0
  -26.7207  -32.5515   23.1101 H   0  0  0  0  0  0
  -25.0277  -33.9730   25.0525 H   0  0  0  0  0  0
  -22.7181  -31.3040   21.3859 H   0  0  0  0  0  0
  -23.3774  -35.9610   23.3309 H   0  0  0  0  0  0
  -24.3564  -36.8887   22.2027 H   0  0  0  0  0  0
  -23.7230  -37.6503   23.6621 H   0  0  0  0  0  0
  -26.0816  -31.5412   20.6050 H   0  0  0  0  0  0
  -26.8427  -30.8471   22.0025 H   0  0  0  0  0  0
  -28.0958  -28.9475   21.2858 H   0  0  0  0  0  0
  -26.0476  -25.9339   18.9900 H   0  0  0  0  0  0
  -24.0023  -27.3039   18.9839 H   0  0  0  0  0  0
  -23.7792  -30.5843   19.3917 H   0  0  0  0  0  0
  -22.7626  -29.2448   19.8511 H   0  0  0  0  0  0
  -25.1308  -36.1954   25.0791 H   0  0  0  0  0  0
  -20.9956  -28.3370   24.1405 H   0  0  0  0  0  0
  -20.5686  -26.2405   23.3734 H   0  0  0  0  0  0
  -21.6697  -26.7389   22.1356 H   0  0  0  0  0  0
  -19.7128  -25.6233   21.1376 H   0  0  0  0  0  0
  -19.6851  -27.3040   20.6690 H   0  0  0  0  0  0
  -17.4313  -26.6634   21.3926 H   0  0  0  0  0  0
  -18.0436  -25.9960   22.8938 H   0  0  0  0  0  0
  -19.7960  -30.7197   24.2241 H   0  0  0  0  0  0
  -17.5035  -31.6259   24.5181 H   0  0  0  0  0  0
  -15.5353  -30.2935   23.7666 H   0  0  0  0  0  0
  -15.8742  -28.0825   22.6869 H   0  0  0  0  0  0
  -24.5953  -30.7051   25.7749 H   0  0  0  0  0  0
  -24.8952  -32.2887   26.4801 H   0  0  0  0  0  0
  -25.8081  -30.8922   27.0196 H   0  0  0  0  0  0
  -26.2932  -29.6735   24.1186 H   0  0  0  0  0  0
  -27.4100  -29.7243   25.4627 H   0  0  0  0  0  0
  -27.8784  -30.4272   23.9329 H   0  0  0  0  0  0
  -27.2713  -33.3574   26.2062 H   0  0  0  0  0  0
  -28.3923  -32.6811   25.0318 H   0  0  0  0  0  0
  -28.0746  -31.8379   26.5391 H   0  0  0  0  0  0
  -28.2611  -38.0130   24.7522 H   0  0  0  0  0  0
  -28.1089  -36.2643   24.6278 H   0  0  0  0  0  0
  -27.2285  -37.1469   25.8867 H   0  0  0  0  0  0
  -20.9271  -29.8769   21.6792 H   0  0  0  0  0  0
  -26.0188  -38.2860   24.1455 H   0  0  0  0  0  0
  -31.3428  -16.3928   22.8688 H   0  0  0  0  0  0
  -31.7143  -18.7116   23.6254 H   0  0  0  0  0  0
  -28.7690  -17.8184   19.7512 H   0  0  0  0  0  0
  -29.3257  -23.4462   19.1601 H   0  0  0  0  0  0
  -27.5892  -22.9370   19.0761 H   0  0  0  0  0  0
  -28.7087  -22.4569   22.6360 H   0  0  0  0  0  0
  -30.1325  -23.0933   21.7226 H   0  0  0  0  0  0
  -26.2536  -22.8521   21.2602 H   0  0  0  0  0  0
  -26.0596  -24.5492   20.9188 H   0  0  0  0  0  0
  -26.5866  -24.0374   22.5172 H   0  0  0  0  0  0
  -29.6830  -25.4474   21.2530 H   0  0  0  0  0  0
  -28.2561  -25.8320   22.1054 H   0  0  0  0  0  0
  -28.8001  -15.3468   20.7685 H   0  0  0  0  0  0
  -28.3332  -19.2537   18.8092 H   0  0  0  0  0  0
  -27.8202  -20.8908   18.5654 H   0  0  0  0  0  0
  1 25  1  0  0  0
  1 30  2  0  0  0
  1 84  1  0  0  0
  2  3  1  0  0  0
  2 25  1  0  0  0
  2 87  1  0  0  0
  2 88  1  0  0  0
  3  4  1  0  0  0
  3 89  1  0  0  0
  3 90  1  0  0  0
  4  5  1  0  0  0
  4 91  1  0  0  0
  4 92  1  0  0  0
  5  6  1  0  0  0
  5 26  1  0  0  0
  5 93  1  0  0  0
  6 25  1  0  0  0
  6 94  1  0  0  0
  6 95  1  0  0  0
  7  8  2  0  0  0
  7 26  1  0  0  0
  7 29  1  0  0  0
  8  9  1  0  0  0
  8 22  1  0  0  0
  9 10  1  0  0  0
  9 27  2  0  0  0
 10 11  2  0  0  0
 10 15  1  0  0  0
 11 12  1  0  0  0
 11 96  1  0  0  0
 12 13  2  0  0  0
 12 97  1  0  0  0
 13 14  1  0  0  0
 13 31  1  0  0  0
 14 15  2  0  0  0
 14 98  1  0  0  0
 15 99  1  0  0  0
 16 17  2  0  0  0
 16 21  1  0  0  0
 16 31  1  0  0  0
 17 18  1  0  0  0
 17100  1  0  0  0
 18 19  2  0  0  0
 18101  1  0  0  0
 19 20  1  0  0  0
 19 24  1  0  0  0
 20 21  2  0  0  0
 20102  1  0  0  0
 21 23  1  0  0  0
 22 28  1  0  0  0
 22 32  2  0  0  0
 26 27  1  0  0  0
 28103  1  0  0  0
 28104  1  0  0  0
 29105  1  0  0  0
 29106  1  0  0  0
 33 34  1  0  0  0
 33 66  1  0  0  0
 33 70  2  0  0  0
 34 36  1  0  0  0
 34 59  1  0  0  0
 34107  1  0  0  0
 35 44  2  0  0  0
 35 45  1  0  0  0
 35 68  1  0  0  0
 36 56  1  0  0  0
 36108  1  0  0  0
 37 39  1  0  0  0
 37 47  1  0  0  0
 37 66  1  0  0  0
 37109  1  0  0  0
 38 43  2  0  0  0
 38 46  1  0  0  0
 38 47  1  0  0  0
 39 64  1  0  0  0
 39 67  2  0  0  0
 40 52  1  0  0  0
 40 53  2  0  0  0
 40 58  1  0  0  0
 41110  1  0  0  0
 41111  1  0  0  0
 41112  1  0  0  0
 41 48  1  0  0  0
 42 43  1  0  0  0
 42 66  1  0  0  0
 42113  1  0  0  0
 42114  1  0  0  0
 43 44  1  0  0  0
 44115  1  0  0  0
 45 46  2  0  0  0
 45116  1  0  0  0
 46117  1  0  0  0
 47118  1  0  0  0
 47119  1  0  0  0
 48 56  1  0  0  0
 48 65  1  0  0  0
 48120  1  0  0  0
 49 50  1  0  0  0
 49 53  1  0  0  0
 49 64  1  0  0  0
 49121  1  0  0  0
 50 51  1  0  0  0
 50122  1  0  0  0
 50123  1  0  0  0
 51 52  1  0  0  0
 51124  1  0  0  0
 51125  1  0  0  0
 52126  1  0  0  0
 52127  1  0  0  0
 53 54  1  0  0  0
 54 55  2  0  0  0
 54128  1  0  0  0
 55 57  1  0  0  0
 55129  1  0  0  0
 56 69  2  0  0  0
 57 58  2  0  0  0
 57130  1  0  0  0
 58131  1  0  0  0
 59 60  1  0  0  0
 59 61  1  0  0  0
 59 62  1  0  0  0
 60132  1  0  0  0
 60133  1  0  0  0
 60134  1  0  0  0
 61135  1  0  0  0
 61136  1  0  0  0
 61137  1  0  0  0
 62138  1  0  0  0
 62139  1  0  0  0
 62140  1  0  0  0
 63 65  1  0  0  0
 63141  1  0  0  0
 63142  1  0  0  0
 63143  1  0  0  0
 64144  1  0  0  0
 65145  1  0  0  0
 68 82  1  0  0  0
 71 72  2  0  0  0
 71 75  1  0  0  0
 71146  1  0  0  0
 72 76  1  0  0  0
 72147  1  0  0  0
 73 74  1  0  0  0
 73 75  2  0  0  0
 73148  1  0  0  0
 74 76  2  0  0  0
 74 77  1  0  0  0
 75 84  1  0  0  0
 76 86  1  0  0  0
 77 83  1  0  0  0
 77 85  2  0  0  0
 78 80  1  0  0  0
 78 83  1  0  0  0
 78149  1  0  0  0
 78150  1  0  0  0
 79 80  1  0  0  0
 79 83  1  0  0  0
 79151  1  0  0  0
 79152  1  0  0  0
 80 81  1  0  0  0
 80 82  1  0  0  0
 81153  1  0  0  0
 81154  1  0  0  0
 81155  1  0  0  0
 82156  1  0  0  0
 82157  1  0  0  0
 84158  1  0  0  0
 85159  1  0  0  0
 85160  1  0  0  0
M  CHG  1  85   1
M  ISO  4   1 100  68 101  82 101  84 100
M  END
> <chiral flag>
0

> <version>
0

> <s_m_source_file>
/data/baiqing/PycharmProjects/Reinvent-master-3.2/result/LINK_invent/BTK/process_docking_weight1_custom_product_contain_oxygen_bond_distance_aromatic_linkinvent_7_9_3/rearranged_h_0144.sdf

> <i_m_source_file_index>
72

> <r_mmod_Potential_Energy-OPLS-2005>
-32.9212913513184

> <r_mmod_Stretch_Energy-OPLS-2005>
74.1001892089844

> <r_mmod_Bend_Energy-OPLS-2005>
181.091354370117

> <r_mmod_Torsional_Energy-OPLS-2005>
300.076934814453

> <r_mmod_Improper_Torsional_Energy-OPLS-2005>
8.0304708480835

> <r_mmod_Van_der_Waal_Energy-OPLS-2005>
143.215896606445

> <r_mmod_Electrostatic_Energy-OPLS-2005>
-351.538208007812

> <r_mmod_Solvation_Energy-OPLS-2005>
-428.608093261719

> <b_mmod_Minimization_Converged-OPLS-2005>
0

> <r_mmod_RMS_Derivative-OPLS-2005>
7.39337825775146

$$$$
72
                    3D
 Structure written by MMmdl.
164173  0  0  1  0            999 V2000
  -30.6926  -14.5100   20.5587 C   0  0  0  0  0  0
  -30.4203  -12.3294   19.4336 C   0  0  0  0  0  0
  -29.4939  -12.5150   18.2130 C   0  0  0  0  0  0
  -28.0178  -12.3624   18.6252 C   0  0  0  0  0  0
  -27.6582  -13.2117   19.8748 C   0  0  2  0  0  0
  -28.6998  -13.0173   21.0012 C   0  0  0  0  0  0
  -25.2564  -13.8169   20.5674 C   0  0  0  0  0  0
  -24.1821  -13.0438   20.9183 C   0  0  0  0  0  0
  -24.6382  -11.6906   20.8726 C   0  0  0  0  0  0
  -23.9055  -10.4283   21.0394 C   0  0  0  0  0  0
  -24.3612   -9.4206   21.9185 C   0  0  0  0  0  0
  -23.6285   -8.2243   22.0755 C   0  0  0  0  0  0
  -22.4268   -8.0281   21.3543 C   0  0  0  0  0  0
  -21.9899   -9.0257   20.4645 C   0  0  0  0  0  0
  -22.7219  -10.2138   20.3050 C   0  0  0  0  0  0
  -21.6846   -6.0737   22.5269 C   0  0  0  0  0  0
  -21.4013   -6.5643   23.8210 C   0  0  0  0  0  0
  -21.3663   -5.6788   24.9176 C   0  0  0  0  0  0
  -21.6045   -4.3054   24.7214 C   0  0  0  0  0  0
  -21.8819   -3.8150   23.4335 C   0  0  0  0  0  0
  -21.9191   -4.6967   22.3391 C   0  0  0  0  0  0
  -22.7847  -13.5237   21.1843 C   0  0  0  0  0  0
  -22.1661   -4.2164   21.0971 F   0  0  0  0  0  0
  -21.5621   -3.4546   25.7723 F   0  0  0  0  0  0
  -30.0302  -13.3226   20.4501 N   0  0  0  0  0  0
  -26.3004  -12.9339   20.3360 N   0  0  0  0  0  0
  -25.9312  -11.6493   20.5773 N   0  0  0  0  0  0
  -22.0487  -12.8246   22.0400 N   0  0  0  0  0  0
  -25.4294  -15.1889   20.4091 N   0  0  0  0  0  0
  -31.8154  -14.6819   20.0762 O   0  0  0  0  0  0
  -21.6630   -6.8889   21.4228 O   0  0  0  0  0  0
  -22.3551  -14.5559   20.6707 O   0  0  0  0  0  0
  -24.6167  -31.8680   23.2101 C   0  0  0  0  0  0
  -25.9051  -32.4823   23.8397 C   0  0  1  0  0  0
  -27.2421  -27.4341   20.1009 C   0  0  0  0  0  0
  -25.5909  -33.8614   24.2337 N   0  0  0  0  0  0
  -23.4058  -30.4904   21.5499 C   0  0  2  0  0  0
  -24.8579  -28.9610   20.1049 C   0  0  0  0  0  0
  -22.7430  -29.4654   22.4981 C   0  0  0  0  0  0
  -18.0289  -28.1385   22.8518 C   0  0  0  0  0  0
  -24.1485  -36.7305   23.2638 C   0  0  0  0  0  0
  -25.9347  -30.8342   21.3632 C   0  0  0  0  0  0
  -26.0177  -29.4726   20.7042 C   0  0  0  0  0  0
  -27.2159  -28.7196   20.6955 C   0  0  0  0  0  0
  -26.0729  -26.9419   19.4875 C   0  0  0  0  0  0
  -24.8838  -27.6971   19.4875 C   0  0  0  0  0  0
  -23.6151  -29.8229   20.1635 C   0  0  0  0  0  0
  -25.4100  -36.3117   24.0351 C   0  0  1  0  0  0
  -20.5883  -28.3676   23.1322 C   0  0  2  0  0  0
  -20.6776  -26.9406   22.5426 C   0  0  0  0  0  0
  -19.5739  -26.6394   21.5232 C   0  0  0  0  0  0
  -18.1922  -26.7937   22.1637 C   0  0  0  0  0  0
  -19.1539  -28.8841   23.2928 C   0  0  0  0  0  0
  -18.9455  -30.1453   23.8930 C   0  0  0  0  0  0
  -17.6449  -30.6582   24.0578 C   0  0  0  0  0  0
  -25.9032  -34.9471   23.5133 C   0  0  0  0  0  0
  -16.5342  -29.9089   23.6330 C   0  0  0  0  0  0
  -16.7278  -28.6505   23.0365 C   0  0  0  0  0  0
  -26.4483  -31.6599   25.0719 C   0  0  0  0  0  0
  -25.3758  -31.3691   26.1483 C   0  0  0  0  0  0
  -27.0312  -30.3043   24.6077 C   0  0  0  0  0  0
  -27.6066  -32.4317   25.7477 C   0  0  0  0  0  0
  -27.5587  -37.1809   24.8466 C   0  0  0  0  0  0
  -21.4153  -29.3041   22.3718 N   0  0  0  0  0  0
  -26.4293  -37.3795   23.9421 N   0  0  0  0  0  0
  -24.6702  -31.0788   22.0985 N   0  0  0  0  0  0
  -23.4197  -28.8209   23.3028 O   0  0  0  0  0  0
  -28.3321  -26.5946   20.2196 O   0  0  0  0  0  0
  -26.5581  -34.8928   22.4693 O   0  0  0  0  0  0
  -23.5354  -32.1411   23.7500 O   0  0  0  0  0  0
  -31.0667  -19.1422   21.6174 C   0  0  0  0  0  0
  -30.3373  -18.8335   19.3216 C   0  0  0  0  0  0
  -30.7266  -17.7904   21.8989 C   0  0  0  0  0  0
  -30.0181  -17.4831   19.5970 C   0  0  0  0  0  0
  -30.9212  -19.6650   20.3084 C   0  0  0  0  0  0
  -30.2606  -16.9269   20.8749 C   0  0  0  0  0  0
  -28.3027  -25.8671   21.3970 C   0  0  0  0  0  0
  -31.6214  -20.9036   19.8820 C   0  0  0  0  0  0
  -28.8199  -24.6442   21.6854 C   0  0  0  0  0  0
  -29.6173  -23.7630   20.7725 C   0  0  0  0  0  0
  -32.6066  -24.1000   21.4120 C   0  0  0  0  0  0
  -31.6012  -23.4482   22.3684 C   0  0  0  0  0  0
  -32.6392  -23.1579   20.1978 C   0  0  0  0  0  0
  -30.6177  -22.7220   21.4274 C   0  0  2  0  0  0
  -31.5723  -22.1519   20.4411 N   0  0  0  0  0  0
  -30.0149  -15.5355   21.1246 N   0  0  0  0  0  0
  -32.4624  -20.7244   18.8635 N   0  3  0  0  0  0
  -29.5387  -23.8617   19.5455 O   0  0  0  0  0  0
  -28.5920  -24.1609   22.9178 O   0  0  0  0  0  0
  -31.4652  -12.4242   19.1324 H   0  0  0  0  0  0
  -30.3217  -11.3214   19.8367 H   0  0  0  0  0  0
  -29.7410  -11.7941   17.4330 H   0  0  0  0  0  0
  -29.6528  -13.5027   17.7772 H   0  0  0  0  0  0
  -27.8395  -11.3076   18.8331 H   0  0  0  0  0  0
  -27.3640  -12.6250   17.7927 H   0  0  0  0  0  0
  -27.6978  -14.2566   19.5655 H   0  0  0  0  0  0
  -28.6799  -11.9893   21.3654 H   0  0  0  0  0  0
  -28.4566  -13.6364   21.8655 H   0  0  0  0  0  0
  -25.2756   -9.5696   22.4763 H   0  0  0  0  0  0
  -23.9998   -7.4640   22.7470 H   0  0  0  0  0  0
  -21.0830   -8.8764   19.8956 H   0  0  0  0  0  0
  -22.3658  -10.9686   19.6166 H   0  0  0  0  0  0
  -21.2010   -7.6155   23.9715 H   0  0  0  0  0  0
  -21.1487   -6.0526   25.9081 H   0  0  0  0  0  0
  -22.0597   -2.7613   23.2817 H   0  0  0  0  0  0
  -22.4092  -11.9913   22.4802 H   0  0  0  0  0  0
  -21.1122  -13.1301   22.2611 H   0  0  0  0  0  0
  -24.6642  -15.8448   20.5189 H   0  0  0  0  0  0
  -26.2836  -15.6287   20.0925 H   0  0  0  0  0  0
  -26.7130  -32.5546   23.1178 H   0  0  0  0  0  0
  -25.0125  -33.9767   25.0526 H   0  0  0  0  0  0
  -22.6939  -31.3082   21.4135 H   0  0  0  0  0  0
  -23.3743  -35.9644   23.3312 H   0  0  0  0  0  0
  -24.3583  -36.8896   22.2050 H   0  0  0  0  0  0
  -23.7239  -37.6515   23.6627 H   0  0  0  0  0  0
  -26.0489  -31.6018   20.5968 H   0  0  0  0  0  0
  -26.8209  -30.8852   21.9839 H   0  0  0  0  0  0
  -28.1040  -29.0996   21.1818 H   0  0  0  0  0  0
  -26.0769  -25.9557   19.0458 H   0  0  0  0  0  0
  -23.9932  -27.2958   19.0229 H   0  0  0  0  0  0
  -23.7141  -30.5989   19.4037 H   0  0  0  0  0  0
  -22.7399  -29.2407   19.8708 H   0  0  0  0  0  0
  -25.1275  -36.1980   25.0841 H   0  0  0  0  0  0
  -21.0004  -28.3241   24.1432 H   0  0  0  0  0  0
  -20.5686  -26.2272   23.3609 H   0  0  0  0  0  0
  -21.6643  -26.7441   22.1204 H   0  0  0  0  0  0
  -19.6881  -25.6316   21.1239 H   0  0  0  0  0  0
  -19.6687  -27.3218   20.6769 H   0  0  0  0  0  0
  -17.4204  -26.6744   21.4024 H   0  0  0  0  0  0
  -18.0307  -26.0056   22.8999 H   0  0  0  0  0  0
  -19.7915  -30.7296   24.2301 H   0  0  0  0  0  0
  -17.4985  -31.6270   24.5182 H   0  0  0  0  0  0
  -15.5341  -30.2999   23.7622 H   0  0  0  0  0  0
  -15.8686  -28.0826   22.7063 H   0  0  0  0  0  0
  -24.5926  -30.7052   25.7823 H   0  0  0  0  0  0
  -24.8958  -32.2844   26.4955 H   0  0  0  0  0  0
  -25.8130  -30.8844   27.0225 H   0  0  0  0  0  0
  -26.2849  -29.6820   24.1123 H   0  0  0  0  0  0
  -27.4089  -29.7270   25.4528 H   0  0  0  0  0  0
  -27.8697  -30.4384   23.9235 H   0  0  0  0  0  0
  -27.2684  -33.3594   26.2106 H   0  0  0  0  0  0
  -28.3841  -32.6910   25.0281 H   0  0  0  0  0  0
  -28.0777  -31.8403   26.5346 H   0  0  0  0  0  0
  -28.2607  -38.0107   24.7532 H   0  0  0  0  0  0
  -28.1091  -36.2643   24.6271 H   0  0  0  0  0  0
  -27.2321  -37.1432   25.8875 H   0  0  0  0  0  0
  -20.9305  -29.8743   21.6932 H   0  0  0  0  0  0
  -26.0185  -38.2879   24.1407 H   0  0  0  0  0  0
  -31.5356  -19.7403   22.3875 H   0  0  0  0  0  0
  -30.2149  -19.2048   18.3128 H   0  0  0  0  0  0
  -30.8954  -17.4013   22.8937 H   0  0  0  0  0  0
  -29.6279  -16.8653   18.7999 H   0  0  0  0  0  0
  -27.7608  -26.3999   22.1687 H   0  0  0  0  0  0
  -33.5861  -24.2241   21.8759 H   0  0  0  0  0  0
  -32.2673  -25.0909   21.1058 H   0  0  0  0  0  0
  -31.1502  -24.1905   23.0269 H   0  0  0  0  0  0
  -32.1048  -22.7244   23.0109 H   0  0  0  0  0  0
  -33.6238  -22.6871   20.1433 H   0  0  0  0  0  0
  -32.4760  -23.6973   19.2637 H   0  0  0  0  0  0
  -30.0619  -21.9426   21.9521 H   0  0  0  0  0  0
  -29.1519  -15.3042   21.5907 H   0  0  0  0  0  0
  -32.5623  -19.7976   18.4795 H   0  0  0  0  0  0
  -33.0187  -21.4715   18.4883 H   0  0  0  0  0  0
  -29.0101  -23.3129   22.9821 H   0  0  0  0  0  0
  1 25  1  0  0  0
  1 30  2  0  0  0
  1 86  1  0  0  0
  2  3  1  0  0  0
  2 25  1  0  0  0
  2 90  1  0  0  0
  2 91  1  0  0  0
  3  4  1  0  0  0
  3 92  1  0  0  0
  3 93  1  0  0  0
  4  5  1  0  0  0
  4 94  1  0  0  0
  4 95  1  0  0  0
  5  6  1  0  0  0
  5 26  1  0  0  0
  5 96  1  0  0  0
  6 25  1  0  0  0
  6 97  1  0  0  0
  6 98  1  0  0  0
  7  8  2  0  0  0
  7 26  1  0  0  0
  7 29  1  0  0  0
  8  9  1  0  0  0
  8 22  1  0  0  0
  9 10  1  0  0  0
  9 27  2  0  0  0
 10 11  2  0  0  0
 10 15  1  0  0  0
 11 12  1  0  0  0
 11 99  1  0  0  0
 12 13  2  0  0  0
 12100  1  0  0  0
 13 14  1  0  0  0
 13 31  1  0  0  0
 14 15  2  0  0  0
 14101  1  0  0  0
 15102  1  0  0  0
 16 17  2  0  0  0
 16 21  1  0  0  0
 16 31  1  0  0  0
 17 18  1  0  0  0
 17103  1  0  0  0
 18 19  2  0  0  0
 18104  1  0  0  0
 19 20  1  0  0  0
 19 24  1  0  0  0
 20 21  2  0  0  0
 20105  1  0  0  0
 21 23  1  0  0  0
 22 28  1  0  0  0
 22 32  2  0  0  0
 26 27  1  0  0  0
 28106  1  0  0  0
 28107  1  0  0  0
 29108  1  0  0  0
 29109  1  0  0  0
 33 34  1  0  0  0
 33 66  1  0  0  0
 33 70  2  0  0  0
 34 36  1  0  0  0
 34 59  1  0  0  0
 34110  1  0  0  0
 35 44  2  0  0  0
 35 45  1  0  0  0
 35 68  1  0  0  0
 36 56  1  0  0  0
 36111  1  0  0  0
 37 39  1  0  0  0
 37 47  1  0  0  0
 37 66  1  0  0  0
 37112  1  0  0  0
 38 43  2  0  0  0
 38 46  1  0  0  0
 38 47  1  0  0  0
 39 64  1  0  0  0
 39 67  2  0  0  0
 40 52  1  0  0  0
 40 53  2  0  0  0
 40 58  1  0  0  0
 41113  1  0  0  0
 41114  1  0  0  0
 41115  1  0  0  0
 41 48  1  0  0  0
 42 43  1  0  0  0
 42 66  1  0  0  0
 42116  1  0  0  0
 42117  1  0  0  0
 43 44  1  0  0  0
 44118  1  0  0  0
 45 46  2  0  0  0
 45119  1  0  0  0
 46120  1  0  0  0
 47121  1  0  0  0
 47122  1  0  0  0
 48 56  1  0  0  0
 48 65  1  0  0  0
 48123  1  0  0  0
 49 50  1  0  0  0
 49 53  1  0  0  0
 49 64  1  0  0  0
 49124  1  0  0  0
 50 51  1  0  0  0
 50125  1  0  0  0
 50126  1  0  0  0
 51 52  1  0  0  0
 51127  1  0  0  0
 51128  1  0  0  0
 52129  1  0  0  0
 52130  1  0  0  0
 53 54  1  0  0  0
 54 55  2  0  0  0
 54131  1  0  0  0
 55 57  1  0  0  0
 55132  1  0  0  0
 56 69  2  0  0  0
 57 58  2  0  0  0
 57133  1  0  0  0
 58134  1  0  0  0
 59 60  1  0  0  0
 59 61  1  0  0  0
 59 62  1  0  0  0
 60135  1  0  0  0
 60136  1  0  0  0
 60137  1  0  0  0
 61138  1  0  0  0
 61139  1  0  0  0
 61140  1  0  0  0
 62141  1  0  0  0
 62142  1  0  0  0
 62143  1  0  0  0
 63 65  1  0  0  0
 63144  1  0  0  0
 63145  1  0  0  0
 63146  1  0  0  0
 64147  1  0  0  0
 65148  1  0  0  0
 68 77  1  0  0  0
 71 73  2  0  0  0
 71 75  1  0  0  0
 71149  1  0  0  0
 72 74  1  0  0  0
 72 75  2  0  0  0
 72150  1  0  0  0
 73 76  1  0  0  0
 73151  1  0  0  0
 74 76  2  0  0  0
 74152  1  0  0  0
 75 78  1  0  0  0
 76 86  1  0  0  0
 77 79  2  0  0  0
 77153  1  0  0  0
 78 85  1  0  0  0
 78 87  2  0  0  0
 79 80  1  0  0  0
 79 89  1  0  0  0
 80 88  2  0  0  0
 80 84  1  0  0  0
 81 82  1  0  0  0
 81 83  1  0  0  0
 81154  1  0  0  0
 81155  1  0  0  0
 82 84  1  0  0  0
 82156  1  0  0  0
 82157  1  0  0  0
 83 85  1  0  0  0
 83158  1  0  0  0
 83159  1  0  0  0
 84 85  1  0  0  0
 84160  1  0  0  0
 86161  1  0  0  0
 87162  1  0  0  0
 87163  1  0  0  0
 89164  1  0  0  0
M  CHG  1  87   1
M  ISO  4   1 100  68 101  77 101  86 100
M  END
> <chiral flag>
0

> <version>
0

> <s_m_source_file>
/data/baiqing/PycharmProjects/Reinvent-master-3.2/result/LINK_invent/BTK/process_docking_weight1_custom_product_contain_oxygen_bond_distance_aromatic_linkinvent_7_9_3/rearranged_h_0144.sdf

> <i_m_source_file_index>
73

> <r_mmod_Potential_Energy-OPLS-2005>
-14.060998916626

> <r_mmod_Stretch_Energy-OPLS-2005>
49.6328010559082

> <r_mmod_Bend_Energy-OPLS-2005>
159.680114746094

> <r_mmod_Torsional_Energy-OPLS-2005>
334.917724609375

> <r_mmod_Improper_Torsional_Energy-OPLS-2005>
6.69248676300049

> <r_mmod_Van_der_Waal_Energy-OPLS-2005>
154.126876831055

> <r_mmod_Electrostatic_Energy-OPLS-2005>
-313.824859619141

> <r_mmod_Solvation_Energy-OPLS-2005>
-425.948089599609

> <b_mmod_Minimization_Converged-OPLS-2005>
0

> <r_mmod_RMS_Derivative-OPLS-2005>
3.06242322921753

$$$$
73
                    3D
 Structure written by MMmdl.
171179  0  0  1  0            999 V2000
  -30.7530  -14.3704   20.5696 C   0  0  0  0  0  0
  -30.4170  -12.2429   19.4055 C   0  0  0  0  0  0
  -29.4881  -12.5047   18.2014 C   0  0  0  0  0  0
  -28.0091  -12.3857   18.6148 C   0  0  0  0  0  0
  -27.6733  -13.2046   19.8879 C   0  0  2  0  0  0
  -28.7172  -12.9469   21.0025 C   0  0  0  0  0  0
  -25.2631  -13.8142   20.5715 C   0  0  0  0  0  0
  -24.1862  -13.0434   20.9154 C   0  0  0  0  0  0
  -24.6436  -11.6910   20.8760 C   0  0  0  0  0  0
  -23.9079  -10.4295   21.0426 C   0  0  0  0  0  0
  -24.3604   -9.4203   21.9205 C   0  0  0  0  0  0
  -23.6286   -8.2225   22.0754 C   0  0  0  0  0  0
  -22.4275   -8.0263   21.3531 C   0  0  0  0  0  0
  -21.9921   -9.0257   20.4655 C   0  0  0  0  0  0
  -22.7254  -10.2141   20.3086 C   0  0  0  0  0  0
  -21.6856   -6.0734   22.5268 C   0  0  0  0  0  0
  -21.4034   -6.5639   23.8208 C   0  0  0  0  0  0
  -21.3673   -5.6791   24.9167 C   0  0  0  0  0  0
  -21.6024   -4.3050   24.7220 C   0  0  0  0  0  0
  -21.8834   -3.8147   23.4350 C   0  0  0  0  0  0
  -21.9198   -4.6960   22.3399 C   0  0  0  0  0  0
  -22.7880  -13.5226   21.1797 C   0  0  0  0  0  0
  -22.1660   -4.2132   21.0984 F   0  0  0  0  0  0
  -21.5616   -3.4551   25.7747 F   0  0  0  0  0  0
  -30.0649  -13.2072   20.4539 N   0  0  0  0  0  0
  -26.3113  -12.9337   20.3491 N   0  0  0  0  0  0
  -25.9378  -11.6491   20.5841 N   0  0  0  0  0  0
  -22.0526  -12.8247   22.0395 N   0  0  0  0  0  0
  -25.4303  -15.1832   20.4050 N   0  0  0  0  0  0
  -31.8569  -14.5828   20.0603 O   0  0  0  0  0  0
  -21.6645   -6.8865   21.4221 O   0  0  0  0  0  0
  -22.3543  -14.5509   20.6633 O   0  0  0  0  0  0
  -24.6073  -31.8705   23.2126 C   0  0  0  0  0  0
  -25.8992  -32.4844   23.8428 C   0  0  1  0  0  0
  -27.2331  -27.4709   20.0963 C   0  0  0  0  0  0
  -25.5864  -33.8634   24.2349 N   0  0  0  0  0  0
  -23.3938  -30.4887   21.5547 C   0  0  2  0  0  0
  -24.8415  -28.9623   20.1159 C   0  0  0  0  0  0
  -22.7376  -29.4650   22.5055 C   0  0  0  0  0  0
  -18.0272  -28.1303   22.8589 C   0  0  0  0  0  0
  -24.1473  -36.7321   23.2643 C   0  0  0  0  0  0
  -25.9186  -30.8447   21.3634 C   0  0  0  0  0  0
  -25.9982  -29.4829   20.7135 C   0  0  0  0  0  0
  -27.2007  -28.7434   20.7056 C   0  0  0  0  0  0
  -26.0704  -26.9662   19.4796 C   0  0  0  0  0  0
  -24.8717  -27.7023   19.4904 C   0  0  0  0  0  0
  -23.5991  -29.8179   20.1675 C   0  0  0  0  0  0
  -25.4097  -36.3129   24.0344 C   0  0  1  0  0  0
  -20.5848  -28.3653   23.1342 C   0  0  2  0  0  0
  -20.6754  -26.9402   22.5344 C   0  0  0  0  0  0
  -19.5659  -26.6337   21.5221 C   0  0  0  0  0  0
  -18.1869  -26.7865   22.1701 C   0  0  0  0  0  0
  -19.1504  -28.8821   23.2916 C   0  0  0  0  0  0
  -18.9415  -30.1446   23.8888 C   0  0  0  0  0  0
  -17.6394  -30.6586   24.0513 C   0  0  0  0  0  0
  -25.9011  -34.9498   23.5156 C   0  0  0  0  0  0
  -16.5303  -29.9014   23.6351 C   0  0  0  0  0  0
  -16.7244  -28.6370   23.0507 C   0  0  0  0  0  0
  -26.4449  -31.6584   25.0733 C   0  0  0  0  0  0
  -25.3741  -31.3655   26.1499 C   0  0  0  0  0  0
  -27.0285  -30.3037   24.6055 C   0  0  0  0  0  0
  -27.6031  -32.4299   25.7476 C   0  0  0  0  0  0
  -27.5574  -37.1807   24.8466 C   0  0  0  0  0  0
  -21.4113  -29.3057   22.3808 N   0  0  0  0  0  0
  -26.4290  -37.3797   23.9411 N   0  0  0  0  0  0
  -24.6567  -31.0800   22.1024 N   0  0  0  0  0  0
  -23.4194  -28.8175   23.3034 O   0  0  0  0  0  0
  -28.3804  -26.7094   20.0709 O   0  0  0  0  0  0
  -26.5582  -34.8963   22.4719 O   0  0  0  0  0  0
  -23.5290  -32.1452   23.7529 O   0  0  0  0  0  0
  -29.2523  -17.8905   18.4983 C   0  0  0  0  0  0
  -29.9466  -16.8676   19.1778 C   0  0  0  0  0  0
  -28.1048  -18.4675   19.0741 C   0  0  0  0  0  0
  -28.3307  -16.9906   21.0047 C   0  0  0  0  0  0
  -29.4828  -16.4158   20.4379 C   0  0  0  0  0  0
  -27.6378  -18.0099   20.3265 C   0  0  0  0  0  0
  -27.4441  -22.6224   22.4633 C   0  0  0  0  0  0
  -26.4177  -21.8291   22.8313 C   0  0  0  0  0  0
  -27.4842  -24.0595   22.7609 C   0  0  0  0  0  0
  -25.2170  -20.5018   20.2412 C   0  0  0  0  0  0
  -29.7544  -24.9177   20.7136 C   0  0  0  0  0  0
  -29.1658  -26.7151   22.3646 C   0  0  0  0  0  0
  -26.3268  -20.3360   22.5578 C   0  0  0  0  0  0
  -27.3631  -25.0236   21.5751 C   0  0  0  0  0  0
  -26.4023  -19.9803   21.0600 C   0  0  1  0  0  0
  -28.6312  -25.8524   21.2012 C   0  0  0  0  0  0
  -30.0753  -15.3513   21.1615 N   0  0  0  0  0  0
  -26.4958  -18.5374   20.9237 N   0  0  0  0  0  0
  -27.5708  -24.5009   23.9111 O   0  0  0  0  0  0
  -25.3238  -22.2584   23.4861 O   0  0  0  0  0  0
  -31.4646  -12.3136   19.1039 H   0  0  0  0  0  0
  -30.2831  -11.2289   19.7775 H   0  0  0  0  0  0
  -29.7056  -11.8073   17.3929 H   0  0  0  0  0  0
  -29.6755  -13.5039   17.8036 H   0  0  0  0  0  0
  -27.7919  -11.3305   18.7854 H   0  0  0  0  0  0
  -27.3606  -12.6921   17.7954 H   0  0  0  0  0  0
  -27.7292  -14.2564   19.6074 H   0  0  0  0  0  0
  -28.6638  -11.9159   21.3535 H   0  0  0  0  0  0
  -28.4955  -13.5565   21.8783 H   0  0  0  0  0  0
  -25.2750   -9.5657   22.4793 H   0  0  0  0  0  0
  -23.9985   -7.4629   22.7506 H   0  0  0  0  0  0
  -21.0827   -8.8803   19.8987 H   0  0  0  0  0  0
  -22.3707  -10.9680   19.6200 H   0  0  0  0  0  0
  -21.2049   -7.6160   23.9701 H   0  0  0  0  0  0
  -21.1468   -6.0535   25.9063 H   0  0  0  0  0  0
  -22.0604   -2.7614   23.2865 H   0  0  0  0  0  0
  -22.4154  -11.9887   22.4732 H   0  0  0  0  0  0
  -21.1168  -13.1311   22.2680 H   0  0  0  0  0  0
  -24.6468  -15.8222   20.4754 H   0  0  0  0  0  0
  -26.2879  -15.6274   20.1018 H   0  0  0  0  0  0
  -26.7089  -32.5585   23.1217 H   0  0  0  0  0  0
  -25.0070  -33.9803   25.0527 H   0  0  0  0  0  0
  -22.6800  -31.3029   21.4176 H   0  0  0  0  0  0
  -23.3736  -35.9654   23.3335 H   0  0  0  0  0  0
  -24.3567  -36.8875   22.2046 H   0  0  0  0  0  0
  -23.7229  -37.6538   23.6623 H   0  0  0  0  0  0
  -26.0229  -31.6087   20.5935 H   0  0  0  0  0  0
  -26.8064  -30.9030   21.9778 H   0  0  0  0  0  0
  -28.0922  -29.1464   21.1632 H   0  0  0  0  0  0
  -26.0925  -25.9970   19.0014 H   0  0  0  0  0  0
  -23.9904  -27.3008   19.0128 H   0  0  0  0  0  0
  -23.7006  -30.5916   19.4044 H   0  0  0  0  0  0
  -22.7255  -29.2329   19.8782 H   0  0  0  0  0  0
  -25.1264  -36.2031   25.0834 H   0  0  0  0  0  0
  -20.9955  -28.3153   24.1454 H   0  0  0  0  0  0
  -20.5736  -26.2231   23.3472 H   0  0  0  0  0  0
  -21.6599  -26.7615   22.0952 H   0  0  0  0  0  0
  -19.6875  -25.6214   21.1355 H   0  0  0  0  0  0
  -19.6515  -27.3124   20.6715 H   0  0  0  0  0  0
  -17.4113  -26.6583   21.4108 H   0  0  0  0  0  0
  -18.0207  -26.0102   22.9170 H   0  0  0  0  0  0
  -19.7906  -30.7258   24.2242 H   0  0  0  0  0  0
  -17.4920  -31.6326   24.4991 H   0  0  0  0  0  0
  -15.5255  -30.2840   23.7617 H   0  0  0  0  0  0
  -15.8656  -28.0598   22.7283 H   0  0  0  0  0  0
  -24.5936  -30.6955   25.7849 H   0  0  0  0  0  0
  -24.8923  -32.2798   26.4975 H   0  0  0  0  0  0
  -25.8151  -30.8833   27.0233 H   0  0  0  0  0  0
  -26.2814  -29.6802   24.1114 H   0  0  0  0  0  0
  -27.4075  -29.7258   25.4487 H   0  0  0  0  0  0
  -27.8649  -30.4365   23.9187 H   0  0  0  0  0  0
  -27.2642  -33.3589   26.2086 H   0  0  0  0  0  0
  -28.3821  -32.6856   25.0278 H   0  0  0  0  0  0
  -28.0737  -31.8411   26.5353 H   0  0  0  0  0  0
  -28.2599  -38.0094   24.7507 H   0  0  0  0  0  0
  -28.1070  -36.2625   24.6315 H   0  0  0  0  0  0
  -27.2300  -37.1472   25.8872 H   0  0  0  0  0  0
  -20.9279  -29.8825   21.7034 H   0  0  0  0  0  0
  -26.0198  -38.2877   24.1440 H   0  0  0  0  0  0
  -29.5899  -18.2231   17.5276 H   0  0  0  0  0  0
  -30.8175  -16.4324   18.7090 H   0  0  0  0  0  0
  -27.5832  -19.2515   18.5408 H   0  0  0  0  0  0
  -27.9688  -16.6388   21.9610 H   0  0  0  0  0  0
  -28.2877  -22.2085   21.9265 H   0  0  0  0  0  0
  -25.1765  -21.5905   20.2628 H   0  0  0  0  0  0
  -24.2665  -20.1244   20.6156 H   0  0  0  0  0  0
  -25.3023  -20.1948   19.1966 H   0  0  0  0  0  0
  -30.0537  -24.2086   21.4876 H   0  0  0  0  0  0
  -30.6445  -25.4786   20.4262 H   0  0  0  0  0  0
  -29.4366  -24.3411   19.8453 H   0  0  0  0  0  0
  -29.5762  -26.0950   23.1621 H   0  0  0  0  0  0
  -28.3825  -27.3275   22.8048 H   0  0  0  0  0  0
  -29.9673  -27.3797   22.0390 H   0  0  0  0  0  0
  -25.4205  -19.9167   22.9990 H   0  0  0  0  0  0
  -27.1576  -19.8610   23.0857 H   0  0  0  0  0  0
  -26.5330  -25.6861   21.8117 H   0  0  0  0  0  0
  -27.0440  -24.4446   20.7093 H   0  0  0  0  0  0
  -27.3118  -20.4301   20.6580 H   0  0  0  0  0  0
  -29.4949  -15.0125   21.9136 H   0  0  0  0  0  0
  -25.6426  -17.9834   20.9362 H   0  0  0  0  0  0
  -24.7497  -21.5137   23.6345 H   0  0  0  0  0  0
  1 25  1  0  0  0
  1 30  2  0  0  0
  1 87  1  0  0  0
  2  3  1  0  0  0
  2 25  1  0  0  0
  2 91  1  0  0  0
  2 92  1  0  0  0
  3  4  1  0  0  0
  3 93  1  0  0  0
  3 94  1  0  0  0
  4  5  1  0  0  0
  4 95  1  0  0  0
  4 96  1  0  0  0
  5  6  1  0  0  0
  5 26  1  0  0  0
  5 97  1  0  0  0
  6 25  1  0  0  0
  6 98  1  0  0  0
  6 99  1  0  0  0
  7  8  2  0  0  0
  7 26  1  0  0  0
  7 29  1  0  0  0
  8  9  1  0  0  0
  8 22  1  0  0  0
  9 10  1  0  0  0
  9 27  2  0  0  0
 10 11  2  0  0  0
 10 15  1  0  0  0
 11 12  1  0  0  0
 11100  1  0  0  0
 12 13  2  0  0  0
 12101  1  0  0  0
 13 14  1  0  0  0
 13 31  1  0  0  0
 14 15  2  0  0  0
 14102  1  0  0  0
 15103  1  0  0  0
 16 17  2  0  0  0
 16 21  1  0  0  0
 16 31  1  0  0  0
 17 18  1  0  0  0
 17104  1  0  0  0
 18 19  2  0  0  0
 18105  1  0  0  0
 19 20  1  0  0  0
 19 24  1  0  0  0
 20 21  2  0  0  0
 20106  1  0  0  0
 21 23  1  0  0  0
 22 28  1  0  0  0
 22 32  2  0  0  0
 26 27  1  0  0  0
 28107  1  0  0  0
 28108  1  0  0  0
 29109  1  0  0  0
 29110  1  0  0  0
 33 34  1  0  0  0
 33 66  1  0  0  0
 33 70  2  0  0  0
 34 36  1  0  0  0
 34 59  1  0  0  0
 34111  1  0  0  0
 35 44  2  0  0  0
 35 45  1  0  0  0
 35 68  1  0  0  0
 36 56  1  0  0  0
 36112  1  0  0  0
 37 39  1  0  0  0
 37 47  1  0  0  0
 37 66  1  0  0  0
 37113  1  0  0  0
 38 43  2  0  0  0
 38 46  1  0  0  0
 38 47  1  0  0  0
 39 64  1  0  0  0
 39 67  2  0  0  0
 40 52  1  0  0  0
 40 53  2  0  0  0
 40 58  1  0  0  0
 41114  1  0  0  0
 41115  1  0  0  0
 41116  1  0  0  0
 41 48  1  0  0  0
 42 43  1  0  0  0
 42 66  1  0  0  0
 42117  1  0  0  0
 42118  1  0  0  0
 43 44  1  0  0  0
 44119  1  0  0  0
 45 46  2  0  0  0
 45120  1  0  0  0
 46121  1  0  0  0
 47122  1  0  0  0
 47123  1  0  0  0
 48 56  1  0  0  0
 48 65  1  0  0  0
 48124  1  0  0  0
 49 50  1  0  0  0
 49 53  1  0  0  0
 49 64  1  0  0  0
 49125  1  0  0  0
 50 51  1  0  0  0
 50126  1  0  0  0
 50127  1  0  0  0
 51 52  1  0  0  0
 51128  1  0  0  0
 51129  1  0  0  0
 52130  1  0  0  0
 52131  1  0  0  0
 53 54  1  0  0  0
 54 55  2  0  0  0
 54132  1  0  0  0
 55 57  1  0  0  0
 55133  1  0  0  0
 56 69  2  0  0  0
 57 58  2  0  0  0
 57134  1  0  0  0
 58135  1  0  0  0
 59 60  1  0  0  0
 59 61  1  0  0  0
 59 62  1  0  0  0
 60136  1  0  0  0
 60137  1  0  0  0
 60138  1  0  0  0
 61139  1  0  0  0
 61140  1  0  0  0
 61141  1  0  0  0
 62142  1  0  0  0
 62143  1  0  0  0
 62144  1  0  0  0
 63 65  1  0  0  0
 63145  1  0  0  0
 63146  1  0  0  0
 63147  1  0  0  0
 64148  1  0  0  0
 65149  1  0  0  0
 68 86  1  0  0  0
 71 72  2  0  0  0
 71 73  1  0  0  0
 71150  1  0  0  0
 72 75  1  0  0  0
 72151  1  0  0  0
 73 76  2  0  0  0
 73152  1  0  0  0
 74 75  2  0  0  0
 74 76  1  0  0  0
 74153  1  0  0  0
 75 87  1  0  0  0
 76 88  1  0  0  0
 77 78  2  0  0  0
 77 79  1  0  0  0
 77154  1  0  0  0
 78 83  1  0  0  0
 78 90  1  0  0  0
 79 84  1  0  0  0
 79 89  2  0  0  0
 80155  1  0  0  0
 80156  1  0  0  0
 80157  1  0  0  0
 80 85  1  0  0  0
 81158  1  0  0  0
 81159  1  0  0  0
 81160  1  0  0  0
 81 86  1  0  0  0
 82 86  1  0  0  0
 82161  1  0  0  0
 82162  1  0  0  0
 82163  1  0  0  0
 83 85  1  0  0  0
 83164  1  0  0  0
 83165  1  0  0  0
 84 86  1  0  0  0
 84166  1  0  0  0
 84167  1  0  0  0
 85 88  1  0  0  0
 85168  1  0  0  0
 87169  1  0  0  0
 88170  1  0  0  0
 90171  1  0  0  0
M  ISO  4   1 100  68 101  86 101  87 100
M  END
> <chiral flag>
0

> <version>
0

> <s_m_source_file>
/data/baiqing/PycharmProjects/Reinvent-master-3.2/result/LINK_invent/BTK/process_docking_weight1_custom_product_contain_oxygen_bond_distance_aromatic_linkinvent_7_9_3/rearranged_h_0144.sdf

> <i_m_source_file_index>
74

> <r_mmod_Potential_Energy-OPLS-2005>
46.7627716064453

> <r_mmod_Stretch_Energy-OPLS-2005>
34.5393981933594

> <r_mmod_Bend_Energy-OPLS-2005>
108.078033447266

> <r_mmod_Torsional_Energy-OPLS-2005>
288.370056152344

> <r_mmod_Improper_Torsional_Energy-OPLS-2005>
8.43216609954834

> <r_mmod_Van_der_Waal_Energy-OPLS-2005>
148.407196044922

> <r_mmod_Electrostatic_Energy-OPLS-2005>
-325.559509277344

> <r_mmod_Solvation_Energy-OPLS-2005>
-224.013092041016

> <b_mmod_Minimization_Converged-OPLS-2005>
0

> <r_mmod_RMS_Derivative-OPLS-2005>
6.44612121582031

$$$$
74
                    3D
 Structure written by MMmdl.
165173  0  0  1  0            999 V2000
  -30.6910  -14.4570   20.6371 C   0  0  0  0  0  0
  -30.4377  -12.3169   19.4113 C   0  0  0  0  0  0
  -29.4955  -12.5148   18.2044 C   0  0  0  0  0  0
  -28.0185  -12.3614   18.6198 C   0  0  0  0  0  0
  -27.6681  -13.1953   19.8797 C   0  0  2  0  0  0
  -28.7059  -12.9351   20.9946 C   0  0  0  0  0  0
  -25.2598  -13.8125   20.5598 C   0  0  0  0  0  0
  -24.1869  -13.0427   20.9193 C   0  0  0  0  0  0
  -24.6415  -11.6895   20.8771 C   0  0  0  0  0  0
  -23.9072  -10.4289   21.0451 C   0  0  0  0  0  0
  -24.3618   -9.4178   21.9214 C   0  0  0  0  0  0
  -23.6286   -8.2217   22.0775 C   0  0  0  0  0  0
  -22.4264   -8.0288   21.3562 C   0  0  0  0  0  0
  -21.9910   -9.0266   20.4653 C   0  0  0  0  0  0
  -22.7250  -10.2145   20.3077 C   0  0  0  0  0  0
  -21.6834   -6.0739   22.5289 C   0  0  0  0  0  0
  -21.4000   -6.5641   23.8224 C   0  0  0  0  0  0
  -21.3655   -5.6793   24.9187 C   0  0  0  0  0  0
  -21.6044   -4.3057   24.7231 C   0  0  0  0  0  0
  -21.8808   -3.8150   23.4347 C   0  0  0  0  0  0
  -21.9181   -4.6971   22.3400 C   0  0  0  0  0  0
  -22.7884  -13.5236   21.1854 C   0  0  0  0  0  0
  -22.1648   -4.2152   21.0979 F   0  0  0  0  0  0
  -21.5640   -3.4541   25.7745 F   0  0  0  0  0  0
  -30.0437  -13.2685   20.4629 N   0  0  0  0  0  0
  -26.3051  -12.9272   20.3352 N   0  0  0  0  0  0
  -25.9330  -11.6453   20.5782 N   0  0  0  0  0  0
  -22.0497  -12.8264   22.0415 N   0  0  0  0  0  0
  -25.4292  -15.1823   20.3844 N   0  0  0  0  0  0
  -31.7709  -14.7235   20.1005 O   0  0  0  0  0  0
  -21.6625   -6.8887   21.4255 O   0  0  0  0  0  0
  -22.3577  -14.5527   20.6679 O   0  0  0  0  0  0
  -24.6123  -31.8696   23.2124 C   0  0  0  0  0  0
  -25.9008  -32.4851   23.8426 C   0  0  1  0  0  0
  -27.2400  -27.4461   20.1235 C   0  0  0  0  0  0
  -25.5850  -33.8650   24.2348 N   0  0  0  0  0  0
  -23.4021  -30.4926   21.5495 C   0  0  2  0  0  0
  -24.8544  -28.9594   20.1180 C   0  0  0  0  0  0
  -22.7398  -29.4669   22.4980 C   0  0  0  0  0  0
  -18.0274  -28.1402   22.8512 C   0  0  0  0  0  0
  -24.1464  -36.7326   23.2629 C   0  0  0  0  0  0
  -25.9281  -30.8423   21.3613 C   0  0  0  0  0  0
  -26.0100  -29.4734   20.7204 C   0  0  0  0  0  0
  -27.2064  -28.7225   20.7252 C   0  0  0  0  0  0
  -26.0781  -26.9576   19.4894 C   0  0  0  0  0  0
  -24.8809  -27.6979   19.4992 C   0  0  0  0  0  0
  -23.6149  -29.8232   20.1634 C   0  0  0  0  0  0
  -25.4079  -36.3142   24.0348 C   0  0  1  0  0  0
  -20.5867  -28.3681   23.1327 C   0  0  2  0  0  0
  -20.6764  -26.9416   22.5428 C   0  0  0  0  0  0
  -19.5732  -26.6399   21.5234 C   0  0  0  0  0  0
  -18.1919  -26.7952   22.1647 C   0  0  0  0  0  0
  -19.1524  -28.8855   23.2922 C   0  0  0  0  0  0
  -18.9450  -30.1461   23.8932 C   0  0  0  0  0  0
  -17.6457  -30.6607   24.0598 C   0  0  0  0  0  0
  -25.9003  -34.9499   23.5146 C   0  0  0  0  0  0
  -16.5344  -29.9127   23.6342 C   0  0  0  0  0  0
  -16.7267  -28.6545   23.0358 C   0  0  0  0  0  0
  -26.4470  -31.6619   25.0735 C   0  0  0  0  0  0
  -25.3753  -31.3689   26.1492 C   0  0  0  0  0  0
  -27.0283  -30.3067   24.6060 C   0  0  0  0  0  0
  -27.6069  -32.4315   25.7488 C   0  0  0  0  0  0
  -27.5576  -37.1825   24.8469 C   0  0  0  0  0  0
  -21.4129  -29.3054   22.3727 N   0  0  0  0  0  0
  -26.4287  -37.3823   23.9410 N   0  0  0  0  0  0
  -24.6668  -31.0818   22.1008 N   0  0  0  0  0  0
  -23.4186  -28.8215   23.3008 O   0  0  0  0  0  0
  -28.3937  -26.6924   20.1254 O   0  0  0  0  0  0
  -26.5588  -34.8954   22.4722 O   0  0  0  0  0  0
  -23.5311  -32.1420   23.7523 O   0  0  0  0  0  0
  -28.9543  -18.6833   21.2746 C   0  0  0  0  0  0
  -28.6924  -17.2870   21.3332 C   0  0  0  0  0  0
  -30.3234  -18.8207   21.2491 C   0  0  0  0  0  0
  -29.9125  -16.6738   21.2947 C   0  0  0  0  0  0
  -30.3260  -24.3227   22.4599 C   0  0  0  0  0  0
  -30.6015  -21.2671   21.3672 C   0  0  0  0  0  0
  -27.5528  -24.5410   20.9556 C   0  0  0  0  0  0
  -32.7896  -24.5169   22.1070 C   0  0  0  0  0  0
  -31.9532  -22.8482   23.7648 C   0  0  0  0  0  0
  -29.9902  -25.2863   21.2997 C   0  0  0  0  0  0
  -31.6458  -22.4055   21.2726 C   0  0  0  0  0  0
  -28.5075  -25.7318   21.1934 C   0  0  1  0  0  0
  -31.6506  -23.5065   22.3934 C   0  0  0  0  0  0
  -31.0381  -19.9891   21.2382 N   0  0  0  0  0  0
  -30.0266  -15.3237   21.4210 N   0  0  0  0  0  0
  -29.5941  -24.2534   23.4524 O   0  0  0  0  0  0
  -29.4163  -21.5665   21.5144 O   0  0  0  0  0  0
  -30.9402  -17.5854   21.2429 O   0  0  0  0  0  0
  -31.4773  -12.4369   19.1055 H   0  0  0  0  0  0
  -30.3626  -11.2957   19.7893 H   0  0  0  0  0  0
  -29.7371  -11.7983   17.4179 H   0  0  0  0  0  0
  -29.6546  -13.5055   17.7729 H   0  0  0  0  0  0
  -27.8363  -11.3029   18.8199 H   0  0  0  0  0  0
  -27.3607  -12.6287   17.7928 H   0  0  0  0  0  0
  -27.7272  -14.2493   19.6045 H   0  0  0  0  0  0
  -28.6823  -11.8830   21.2809 H   0  0  0  0  0  0
  -28.4436  -13.4754   21.9046 H   0  0  0  0  0  0
  -25.2769   -9.5633   22.4787 H   0  0  0  0  0  0
  -23.9988   -7.4589   22.7487 H   0  0  0  0  0  0
  -21.0837   -8.8788   19.8944 H   0  0  0  0  0  0
  -22.3727  -10.9694   19.6180 H   0  0  0  0  0  0
  -21.1990   -7.6146   23.9733 H   0  0  0  0  0  0
  -21.1491   -6.0521   25.9092 H   0  0  0  0  0  0
  -22.0596   -2.7612   23.2844 H   0  0  0  0  0  0
  -22.4101  -11.9922   22.4797 H   0  0  0  0  0  0
  -21.1119  -13.1329   22.2620 H   0  0  0  0  0  0
  -24.6446  -15.8220   20.4502 H   0  0  0  0  0  0
  -26.2344  -15.5889   19.9262 H   0  0  0  0  0  0
  -26.7096  -32.5587   23.1218 H   0  0  0  0  0  0
  -25.0077  -33.9828   25.0546 H   0  0  0  0  0  0
  -22.6895  -31.3092   21.4065 H   0  0  0  0  0  0
  -23.3744  -35.9648   23.3342 H   0  0  0  0  0  0
  -24.3563  -36.8878   22.2033 H   0  0  0  0  0  0
  -23.7211  -37.6542   23.6609 H   0  0  0  0  0  0
  -26.0213  -31.6028   20.5859 H   0  0  0  0  0  0
  -26.8241  -30.9133   21.9675 H   0  0  0  0  0  0
  -28.0973  -29.1146   21.1939 H   0  0  0  0  0  0
  -26.0967  -25.9943   18.9995 H   0  0  0  0  0  0
  -23.9932  -27.2984   19.0288 H   0  0  0  0  0  0
  -23.7314  -30.5966   19.4030 H   0  0  0  0  0  0
  -22.7413  -29.2408   19.8645 H   0  0  0  0  0  0
  -25.1270  -36.2042   25.0853 H   0  0  0  0  0  0
  -20.9971  -28.3257   24.1446 H   0  0  0  0  0  0
  -20.5667  -26.2298   23.3622 H   0  0  0  0  0  0
  -21.6640  -26.7478   22.1216 H   0  0  0  0  0  0
  -19.6890  -25.6317   21.1253 H   0  0  0  0  0  0
  -19.6668  -27.3235   20.6781 H   0  0  0  0  0  0
  -17.4186  -26.6720   21.4044 H   0  0  0  0  0  0
  -18.0311  -26.0091   22.9030 H   0  0  0  0  0  0
  -19.7912  -30.7274   24.2314 H   0  0  0  0  0  0
  -17.5011  -31.6287   24.5191 H   0  0  0  0  0  0
  -15.5350  -30.3054   23.7615 H   0  0  0  0  0  0
  -15.8667  -28.0876   22.7053 H   0  0  0  0  0  0
  -24.5895  -30.7094   25.7808 H   0  0  0  0  0  0
  -24.8998  -32.2830   26.5038 H   0  0  0  0  0  0
  -25.8116  -30.8767   27.0186 H   0  0  0  0  0  0
  -26.2814  -29.6864   24.1087 H   0  0  0  0  0  0
  -27.4044  -29.7273   25.4501 H   0  0  0  0  0  0
  -27.8665  -30.4418   23.9221 H   0  0  0  0  0  0
  -27.2700  -33.3532   26.2236 H   0  0  0  0  0  0
  -28.3797  -32.6986   25.0277 H   0  0  0  0  0  0
  -28.0849  -31.8336   26.5253 H   0  0  0  0  0  0
  -28.2639  -38.0085   24.7523 H   0  0  0  0  0  0
  -28.1034  -36.2632   24.6309 H   0  0  0  0  0  0
  -27.2302  -37.1497   25.8874 H   0  0  0  0  0  0
  -20.9269  -29.8764   21.6947 H   0  0  0  0  0  0
  -26.0193  -38.2906   24.1432 H   0  0  0  0  0  0
  -28.2145  -19.4695   21.2747 H   0  0  0  0  0  0
  -27.7297  -16.7981   21.3931 H   0  0  0  0  0  0
  -26.5103  -24.8394   21.0613 H   0  0  0  0  0  0
  -27.6951  -24.1174   19.9628 H   0  0  0  0  0  0
  -27.6971  -23.7379   21.6782 H   0  0  0  0  0  0
  -32.6952  -25.4187   22.7130 H   0  0  0  0  0  0
  -32.7969  -24.8323   21.0643 H   0  0  0  0  0  0
  -33.7713  -24.0954   22.3240 H   0  0  0  0  0  0
  -31.9987  -23.5886   24.5652 H   0  0  0  0  0  0
  -32.9106  -22.3281   23.7507 H   0  0  0  0  0  0
  -31.1994  -22.1118   24.0463 H   0  0  0  0  0  0
  -30.3121  -24.8398   20.3609 H   0  0  0  0  0  0
  -30.6076  -26.1745   21.4414 H   0  0  0  0  0  0
  -32.6417  -21.9634   21.2212 H   0  0  0  0  0  0
  -31.5005  -22.8815   20.3022 H   0  0  0  0  0  0
  -28.2281  -26.2191   22.1296 H   0  0  0  0  0  0
  -32.0393  -19.8797   21.1399 H   0  0  0  0  0  0
  -29.2252  -14.8885   21.8476 H   0  0  0  0  0  0
  1 25  1  0  0  0
  1 30  2  0  0  0
  1 85  1  0  0  0
  2  3  1  0  0  0
  2 25  1  0  0  0
  2 89  1  0  0  0
  2 90  1  0  0  0
  3  4  1  0  0  0
  3 91  1  0  0  0
  3 92  1  0  0  0
  4  5  1  0  0  0
  4 93  1  0  0  0
  4 94  1  0  0  0
  5  6  1  0  0  0
  5 26  1  0  0  0
  5 95  1  0  0  0
  6 25  1  0  0  0
  6 96  1  0  0  0
  6 97  1  0  0  0
  7  8  2  0  0  0
  7 26  1  0  0  0
  7 29  1  0  0  0
  8  9  1  0  0  0
  8 22  1  0  0  0
  9 10  1  0  0  0
  9 27  2  0  0  0
 10 11  2  0  0  0
 10 15  1  0  0  0
 11 12  1  0  0  0
 11 98  1  0  0  0
 12 13  2  0  0  0
 12 99  1  0  0  0
 13 14  1  0  0  0
 13 31  1  0  0  0
 14 15  2  0  0  0
 14100  1  0  0  0
 15101  1  0  0  0
 16 17  2  0  0  0
 16 21  1  0  0  0
 16 31  1  0  0  0
 17 18  1  0  0  0
 17102  1  0  0  0
 18 19  2  0  0  0
 18103  1  0  0  0
 19 20  1  0  0  0
 19 24  1  0  0  0
 20 21  2  0  0  0
 20104  1  0  0  0
 21 23  1  0  0  0
 22 28  1  0  0  0
 22 32  2  0  0  0
 26 27  1  0  0  0
 28105  1  0  0  0
 28106  1  0  0  0
 29107  1  0  0  0
 29108  1  0  0  0
 33 34  1  0  0  0
 33 66  1  0  0  0
 33 70  2  0  0  0
 34 36  1  0  0  0
 34 59  1  0  0  0
 34109  1  0  0  0
 35 44  2  0  0  0
 35 45  1  0  0  0
 35 68  1  0  0  0
 36 56  1  0  0  0
 36110  1  0  0  0
 37 39  1  0  0  0
 37 47  1  0  0  0
 37 66  1  0  0  0
 37111  1  0  0  0
 38 43  2  0  0  0
 38 46  1  0  0  0
 38 47  1  0  0  0
 39 64  1  0  0  0
 39 67  2  0  0  0
 40 52  1  0  0  0
 40 53  2  0  0  0
 40 58  1  0  0  0
 41112  1  0  0  0
 41113  1  0  0  0
 41114  1  0  0  0
 41 48  1  0  0  0
 42 43  1  0  0  0
 42 66  1  0  0  0
 42115  1  0  0  0
 42116  1  0  0  0
 43 44  1  0  0  0
 44117  1  0  0  0
 45 46  2  0  0  0
 45118  1  0  0  0
 46119  1  0  0  0
 47120  1  0  0  0
 47121  1  0  0  0
 48 56  1  0  0  0
 48 65  1  0  0  0
 48122  1  0  0  0
 49 50  1  0  0  0
 49 53  1  0  0  0
 49 64  1  0  0  0
 49123  1  0  0  0
 50 51  1  0  0  0
 50124  1  0  0  0
 50125  1  0  0  0
 51 52  1  0  0  0
 51126  1  0  0  0
 51127  1  0  0  0
 52128  1  0  0  0
 52129  1  0  0  0
 53 54  1  0  0  0
 54 55  2  0  0  0
 54130  1  0  0  0
 55 57  1  0  0  0
 55131  1  0  0  0
 56 69  2  0  0  0
 57 58  2  0  0  0
 57132  1  0  0  0
 58133  1  0  0  0
 59 60  1  0  0  0
 59 61  1  0  0  0
 59 62  1  0  0  0
 60134  1  0  0  0
 60135  1  0  0  0
 60136  1  0  0  0
 61137  1  0  0  0
 61138  1  0  0  0
 61139  1  0  0  0
 62140  1  0  0  0
 62141  1  0  0  0
 62142  1  0  0  0
 63 65  1  0  0  0
 63143  1  0  0  0
 63144  1  0  0  0
 63145  1  0  0  0
 64146  1  0  0  0
 65147  1  0  0  0
 68 82  1  0  0  0
 71 72  1  0  0  0
 71 73  2  0  0  0
 71148  1  0  0  0
 72 74  2  0  0  0
 72149  1  0  0  0
 73 84  1  0  0  0
 73 88  1  0  0  0
 74 85  1  0  0  0
 74 88  1  0  0  0
 75 80  1  0  0  0
 75 83  1  0  0  0
 75 86  2  0  0  0
 76 81  1  0  0  0
 76 84  1  0  0  0
 76 87  2  0  0  0
 77150  1  0  0  0
 77151  1  0  0  0
 77152  1  0  0  0
 77 82  1  0  0  0
 78153  1  0  0  0
 78154  1  0  0  0
 78155  1  0  0  0
 78 83  1  0  0  0
 79 83  1  0  0  0
 79156  1  0  0  0
 79157  1  0  0  0
 79158  1  0  0  0
 80 82  1  0  0  0
 80159  1  0  0  0
 80160  1  0  0  0
 81 83  1  0  0  0
 81161  1  0  0  0
 81162  1  0  0  0
 82163  1  0  0  0
 84164  1  0  0  0
 85165  1  0  0  0
M  ISO  4   1 100  68 101  82 101  85 100
M  END
> <chiral flag>
0

> <version>
0

> <s_m_source_file>
/data/baiqing/PycharmProjects/Reinvent-master-3.2/result/LINK_invent/BTK/process_docking_weight1_custom_product_contain_oxygen_bond_distance_aromatic_linkinvent_7_9_3/rearranged_h_0144.sdf

> <i_m_source_file_index>
75

> <r_mmod_Potential_Energy-OPLS-2005>
-121.866691589355

> <r_mmod_Stretch_Energy-OPLS-2005>
42.8800849914551

> <r_mmod_Bend_Energy-OPLS-2005>
124.282089233398

> <r_mmod_Torsional_Energy-OPLS-2005>
247.068115234375

> <r_mmod_Improper_Torsional_Energy-OPLS-2005>
5.81635046005249

> <r_mmod_Van_der_Waal_Energy-OPLS-2005>
140.096099853516

> <r_mmod_Electrostatic_Energy-OPLS-2005>
-454.088470458984

> <r_mmod_Solvation_Energy-OPLS-2005>
-238.872573852539

> <b_mmod_Minimization_Converged-OPLS-2005>
0

> <r_mmod_RMS_Derivative-OPLS-2005>
3.9633960723877

$$$$
75
                    3D
 Structure written by MMmdl.
159167  0  0  1  0            999 V2000
  -30.7350  -14.4263   20.6322 C   0  0  0  0  0  0
  -30.4468  -12.3096   19.4042 C   0  0  0  0  0  0
  -29.5035  -12.5349   18.2038 C   0  0  0  0  0  0
  -28.0287  -12.3828   18.6204 C   0  0  0  0  0  0
  -27.6792  -13.2014   19.8893 C   0  0  2  0  0  0
  -28.7237  -12.9476   21.0011 C   0  0  0  0  0  0
  -25.2685  -13.8142   20.5692 C   0  0  0  0  0  0
  -24.1876  -13.0453   20.9124 C   0  0  0  0  0  0
  -24.6406  -11.6903   20.8686 C   0  0  0  0  0  0
  -23.9030  -10.4311   21.0381 C   0  0  0  0  0  0
  -24.3568   -9.4237   21.9181 C   0  0  0  0  0  0
  -23.6256   -8.2271   22.0773 C   0  0  0  0  0  0
  -22.4253   -8.0272   21.3541 C   0  0  0  0  0  0
  -21.9867   -9.0252   20.4668 C   0  0  0  0  0  0
  -22.7188  -10.2139   20.3057 C   0  0  0  0  0  0
  -21.6856   -6.0721   22.5288 C   0  0  0  0  0  0
  -21.4022   -6.5627   23.8213 C   0  0  0  0  0  0
  -21.3654   -5.6778   24.9176 C   0  0  0  0  0  0
  -21.6037   -4.3043   24.7218 C   0  0  0  0  0  0
  -21.8822   -3.8130   23.4347 C   0  0  0  0  0  0
  -21.9206   -4.6958   22.3409 C   0  0  0  0  0  0
  -22.7904  -13.5308   21.1742 C   0  0  0  0  0  0
  -22.1675   -4.2146   21.0974 F   0  0  0  0  0  0
  -21.5622   -3.4512   25.7728 F   0  0  0  0  0  0
  -30.0680  -13.2524   20.4678 N   0  0  0  0  0  0
  -26.3132  -12.9316   20.3437 N   0  0  0  0  0  0
  -25.9342  -11.6469   20.5726 N   0  0  0  0  0  0
  -22.0466  -12.8384   22.0305 N   0  0  0  0  0  0
  -25.4434  -15.1864   20.4160 N   0  0  0  0  0  0
  -31.7682  -14.7141   20.0172 O   0  0  0  0  0  0
  -21.6634   -6.8860   21.4237 O   0  0  0  0  0  0
  -22.3623  -14.5607   20.6569 O   0  0  0  0  0  0
  -24.6146  -31.8700   23.2160 C   0  0  0  0  0  0
  -25.9025  -32.4846   23.8461 C   0  0  1  0  0  0
  -27.2414  -27.4492   20.0927 C   0  0  0  0  0  0
  -25.5882  -33.8646   24.2403 N   0  0  0  0  0  0
  -23.4044  -30.4964   21.5535 C   0  0  2  0  0  0
  -24.8518  -28.9611   20.1214 C   0  0  0  0  0  0
  -22.7412  -29.4663   22.4972 C   0  0  0  0  0  0
  -18.0270  -28.1426   22.8492 C   0  0  0  0  0  0
  -24.1467  -36.7317   23.2645 C   0  0  0  0  0  0
  -25.9313  -30.8421   21.3623 C   0  0  0  0  0  0
  -26.0108  -29.4723   20.7186 C   0  0  0  0  0  0
  -27.2099  -28.7232   20.7030 C   0  0  0  0  0  0
  -26.0689  -26.9523   19.4842 C   0  0  0  0  0  0
  -24.8741  -27.6976   19.5042 C   0  0  0  0  0  0
  -23.6194  -29.8384   20.1648 C   0  0  0  0  0  0
  -25.4076  -36.3134   24.0367 C   0  0  1  0  0  0
  -20.5864  -28.3696   23.1337 C   0  0  2  0  0  0
  -20.6757  -26.9436   22.5425 C   0  0  0  0  0  0
  -19.5722  -26.6422   21.5231 C   0  0  0  0  0  0
  -18.1905  -26.7966   22.1642 C   0  0  0  0  0  0
  -19.1526  -28.8863   23.2920 C   0  0  0  0  0  0
  -18.9446  -30.1460   23.8948 C   0  0  0  0  0  0
  -17.6454  -30.6611   24.0599 C   0  0  0  0  0  0
  -25.9004  -34.9489   23.5182 C   0  0  0  0  0  0
  -16.5338  -29.9141   23.6318 C   0  0  0  0  0  0
  -16.7262  -28.6566   23.0313 C   0  0  0  0  0  0
  -26.4459  -31.6584   25.0751 C   0  0  0  0  0  0
  -25.3747  -31.3644   26.1520 C   0  0  0  0  0  0
  -27.0288  -30.3053   24.6036 C   0  0  0  0  0  0
  -27.6082  -32.4247   25.7498 C   0  0  0  0  0  0
  -27.5568  -37.1818   24.8465 C   0  0  0  0  0  0
  -21.4125  -29.3080   22.3747 N   0  0  0  0  0  0
  -26.4263  -37.3812   23.9444 N   0  0  0  0  0  0
  -24.6693  -31.0814   22.1049 N   0  0  0  0  0  0
  -23.4180  -28.8161   23.2978 O   0  0  0  0  0  0
  -28.4118  -26.7255   20.0503 O   0  0  0  0  0  0
  -26.5557  -34.8925   22.4736 O   0  0  0  0  0  0
  -23.5327  -32.1439   23.7535 O   0  0  0  0  0  0
  -30.3846  -17.5117   20.3289 C   0  0  0  0  0  0
  -29.3566  -17.4180   22.3399 C   0  0  0  0  0  0
  -30.0234  -16.6597   21.4184 C   0  0  0  0  0  0
  -29.8462  -18.7277   20.6662 C   0  0  0  0  0  0
  -28.3395  -24.2499   19.9528 C   0  0  0  0  0  0
  -29.0910  -20.9254   20.0020 C   0  0  0  0  0  0
  -30.2933  -24.2653   18.3992 C   0  0  0  0  0  0
  -30.6435  -23.3507   20.7218 C   0  0  0  0  0  0
  -28.4270  -25.5196   20.8319 C   0  0  0  0  0  0
  -29.2892  -22.0466   18.9659 C   0  0  0  0  0  0
  -29.6314  -23.4690   19.5459 C   0  0  0  0  0  0
  -30.2068  -15.2534   21.5447 N   0  0  0  0  0  0
  -29.8652  -19.8322   19.8753 N   0  0  0  0  0  0
  -27.2321  -23.8758   19.5562 O   0  0  0  0  0  0
  -28.2449  -21.0697   20.8880 O   0  0  0  0  0  0
  -29.2443  -18.6984   21.8905 O   0  0  0  0  0  0
  -31.4865  -12.4373   19.0936 H   0  0  0  0  0  0
  -30.3708  -11.2849   19.7730 H   0  0  0  0  0  0
  -29.7439  -11.8342   17.4024 H   0  0  0  0  0  0
  -29.6624  -13.5315   17.7880 H   0  0  0  0  0  0
  -27.8406  -11.3237   18.7952 H   0  0  0  0  0  0
  -27.3769  -12.6789   17.7989 H   0  0  0  0  0  0
  -27.7375  -14.2544   19.6126 H   0  0  0  0  0  0
  -28.6996  -11.9041   21.3177 H   0  0  0  0  0  0
  -28.4702  -13.5186   21.8956 H   0  0  0  0  0  0
  -25.2710   -9.5759   22.4755 H   0  0  0  0  0  0
  -23.9986   -7.4685   22.7502 H   0  0  0  0  0  0
  -21.0800   -8.8757   19.8978 H   0  0  0  0  0  0
  -22.3623  -10.9664   19.6158 H   0  0  0  0  0  0
  -21.2013   -7.6135   23.9721 H   0  0  0  0  0  0
  -21.1466   -6.0494   25.9076 H   0  0  0  0  0  0
  -22.0607   -2.7588   23.2833 H   0  0  0  0  0  0
  -22.3983  -12.0073   22.4819 H   0  0  0  0  0  0
  -21.1100  -13.1532   22.2391 H   0  0  0  0  0  0
  -24.6797  -15.8465   20.5169 H   0  0  0  0  0  0
  -26.3144  -15.6277   20.1467 H   0  0  0  0  0  0
  -26.7093  -32.5594   23.1239 H   0  0  0  0  0  0
  -25.0060  -33.9794   25.0564 H   0  0  0  0  0  0
  -22.6947  -31.3158   21.4211 H   0  0  0  0  0  0
  -23.3732  -35.9640   23.3282 H   0  0  0  0  0  0
  -24.3592  -36.8935   22.2065 H   0  0  0  0  0  0
  -23.7182  -37.6511   23.6646 H   0  0  0  0  0  0
  -26.0244  -31.5985   20.5812 H   0  0  0  0  0  0
  -26.8263  -30.9152   21.9675 H   0  0  0  0  0  0
  -28.1084  -29.1188   21.1585 H   0  0  0  0  0  0
  -26.0809  -26.0026   18.9728 H   0  0  0  0  0  0
  -23.9892  -27.3012   19.0292 H   0  0  0  0  0  0
  -23.7569  -30.6264   19.4235 H   0  0  0  0  0  0
  -22.7361  -29.2838   19.8473 H   0  0  0  0  0  0
  -25.1229  -36.2027   25.0853 H   0  0  0  0  0  0
  -20.9979  -28.3264   24.1448 H   0  0  0  0  0  0
  -20.5694  -26.2298   23.3606 H   0  0  0  0  0  0
  -21.6627  -26.7505   22.1208 H   0  0  0  0  0  0
  -19.6876  -25.6339   21.1246 H   0  0  0  0  0  0
  -19.6652  -27.3244   20.6770 H   0  0  0  0  0  0
  -17.4177  -26.6731   21.4035 H   0  0  0  0  0  0
  -18.0279  -26.0126   22.9054 H   0  0  0  0  0  0
  -19.7913  -30.7269   24.2352 H   0  0  0  0  0  0
  -17.5009  -31.6287   24.5214 H   0  0  0  0  0  0
  -15.5345  -30.3073   23.7601 H   0  0  0  0  0  0
  -15.8662  -28.0933   22.6962 H   0  0  0  0  0  0
  -24.5932  -30.6962   25.7873 H   0  0  0  0  0  0
  -24.8893  -32.2760   26.5019 H   0  0  0  0  0  0
  -25.8125  -30.8805   27.0260 H   0  0  0  0  0  0
  -26.2811  -29.6820   24.1110 H   0  0  0  0  0  0
  -27.4148  -29.7269   25.4441 H   0  0  0  0  0  0
  -27.8603  -30.4439   23.9120 H   0  0  0  0  0  0
  -27.2793  -33.3581   26.2085 H   0  0  0  0  0  0
  -28.3899  -32.6722   25.0302 H   0  0  0  0  0  0
  -28.0731  -31.8324   26.5395 H   0  0  0  0  0  0
  -28.2580  -38.0124   24.7550 H   0  0  0  0  0  0
  -28.1064  -36.2663   24.6227 H   0  0  0  0  0  0
  -27.2311  -37.1411   25.8873 H   0  0  0  0  0  0
  -20.9256  -29.8898   21.7077 H   0  0  0  0  0  0
  -26.0155  -38.2885   24.1463 H   0  0  0  0  0  0
  -30.9036  -17.2603   19.4136 H   0  0  0  0  0  0
  -28.8828  -17.2266   23.2934 H   0  0  0  0  0  0
  -30.6835  -25.2245   18.7397 H   0  0  0  0  0  0
  -29.5879  -24.4693   17.5896 H   0  0  0  0  0  0
  -31.1273  -23.7155   17.9595 H   0  0  0  0  0  0
  -31.0786  -24.3083   21.0047 H   0  0  0  0  0  0
  -31.4759  -22.6951   20.4603 H   0  0  0  0  0  0
  -30.1839  -22.9314   21.6176 H   0  0  0  0  0  0
  -29.3204  -25.5106   21.4544 H   0  0  0  0  0  0
  -27.5845  -25.5109   21.5249 H   0  0  0  0  0  0
  -28.3962  -22.0818   18.3412 H   0  0  0  0  0  0
  -30.0734  -21.7230   18.2799 H   0  0  0  0  0  0
  -29.5910  -14.8008   22.2013 H   0  0  0  0  0  0
  -30.4907  -19.8089   19.0812 H   0  0  0  0  0  0
  1 25  1  0  0  0
  1 30  2  0  0  0
  1 82  1  0  0  0
  2  3  1  0  0  0
  2 25  1  0  0  0
  2 87  1  0  0  0
  2 88  1  0  0  0
  3  4  1  0  0  0
  3 89  1  0  0  0
  3 90  1  0  0  0
  4  5  1  0  0  0
  4 91  1  0  0  0
  4 92  1  0  0  0
  5  6  1  0  0  0
  5 26  1  0  0  0
  5 93  1  0  0  0
  6 25  1  0  0  0
  6 94  1  0  0  0
  6 95  1  0  0  0
  7  8  2  0  0  0
  7 26  1  0  0  0
  7 29  1  0  0  0
  8  9  1  0  0  0
  8 22  1  0  0  0
  9 10  1  0  0  0
  9 27  2  0  0  0
 10 11  2  0  0  0
 10 15  1  0  0  0
 11 12  1  0  0  0
 11 96  1  0  0  0
 12 13  2  0  0  0
 12 97  1  0  0  0
 13 14  1  0  0  0
 13 31  1  0  0  0
 14 15  2  0  0  0
 14 98  1  0  0  0
 15 99  1  0  0  0
 16 17  2  0  0  0
 16 21  1  0  0  0
 16 31  1  0  0  0
 17 18  1  0  0  0
 17100  1  0  0  0
 18 19  2  0  0  0
 18101  1  0  0  0
 19 20  1  0  0  0
 19 24  1  0  0  0
 20 21  2  0  0  0
 20102  1  0  0  0
 21 23  1  0  0  0
 22 28  1  0  0  0
 22 32  2  0  0  0
 26 27  1  0  0  0
 28103  1  0  0  0
 28104  1  0  0  0
 29105  1  0  0  0
 29106  1  0  0  0
 33 34  1  0  0  0
 33 66  1  0  0  0
 33 70  2  0  0  0
 34 36  1  0  0  0
 34 59  1  0  0  0
 34107  1  0  0  0
 35 44  2  0  0  0
 35 45  1  0  0  0
 35 68  1  0  0  0
 36 56  1  0  0  0
 36108  1  0  0  0
 37 39  1  0  0  0
 37 47  1  0  0  0
 37 66  1  0  0  0
 37109  1  0  0  0
 38 43  2  0  0  0
 38 46  1  0  0  0
 38 47  1  0  0  0
 39 64  1  0  0  0
 39 67  2  0  0  0
 40 52  1  0  0  0
 40 53  2  0  0  0
 40 58  1  0  0  0
 41110  1  0  0  0
 41111  1  0  0  0
 41112  1  0  0  0
 41 48  1  0  0  0
 42 43  1  0  0  0
 42 66  1  0  0  0
 42113  1  0  0  0
 42114  1  0  0  0
 43 44  1  0  0  0
 44115  1  0  0  0
 45 46  2  0  0  0
 45116  1  0  0  0
 46117  1  0  0  0
 47118  1  0  0  0
 47119  1  0  0  0
 48 56  1  0  0  0
 48 65  1  0  0  0
 48120  1  0  0  0
 49 50  1  0  0  0
 49 53  1  0  0  0
 49 64  1  0  0  0
 49121  1  0  0  0
 50 51  1  0  0  0
 50122  1  0  0  0
 50123  1  0  0  0
 51 52  1  0  0  0
 51124  1  0  0  0
 51125  1  0  0  0
 52126  1  0  0  0
 52127  1  0  0  0
 53 54  1  0  0  0
 54 55  2  0  0  0
 54128  1  0  0  0
 55 57  1  0  0  0
 55129  1  0  0  0
 56 69  2  0  0  0
 57 58  2  0  0  0
 57130  1  0  0  0
 58131  1  0  0  0
 59 60  1  0  0  0
 59 61  1  0  0  0
 59 62  1  0  0  0
 60132  1  0  0  0
 60133  1  0  0  0
 60134  1  0  0  0
 61135  1  0  0  0
 61136  1  0  0  0
 61137  1  0  0  0
 62138  1  0  0  0
 62139  1  0  0  0
 62140  1  0  0  0
 63 65  1  0  0  0
 63141  1  0  0  0
 63142  1  0  0  0
 63143  1  0  0  0
 64144  1  0  0  0
 65145  1  0  0  0
 68 79  1  0  0  0
 71 73  1  0  0  0
 71 74  2  0  0  0
 71146  1  0  0  0
 72 73  2  0  0  0
 72 86  1  0  0  0
 72147  1  0  0  0
 73 82  1  0  0  0
 74 83  1  0  0  0
 74 86  1  0  0  0
 75 79  1  0  0  0
 75 81  1  0  0  0
 75 84  2  0  0  0
 76 80  1  0  0  0
 76 83  1  0  0  0
 76 85  2  0  0  0
 77148  1  0  0  0
 77149  1  0  0  0
 77150  1  0  0  0
 77 81  1  0  0  0
 78 81  1  0  0  0
 78151  1  0  0  0
 78152  1  0  0  0
 78153  1  0  0  0
 79154  1  0  0  0
 79155  1  0  0  0
 80 81  1  0  0  0
 80156  1  0  0  0
 80157  1  0  0  0
 82158  1  0  0  0
 83159  1  0  0  0
M  ISO  4   1 100  68 101  79 101  82 100
M  END
> <chiral flag>
0

> <version>
0

> <s_m_source_file>
/data/baiqing/PycharmProjects/Reinvent-master-3.2/result/LINK_invent/BTK/process_docking_weight1_custom_product_contain_oxygen_bond_distance_aromatic_linkinvent_7_9_3/rearranged_h_0144.sdf

> <i_m_source_file_index>
76

> <r_mmod_Potential_Energy-OPLS-2005>
-41.4218292236328

> <r_mmod_Stretch_Energy-OPLS-2005>
39.239070892334

> <r_mmod_Bend_Energy-OPLS-2005>
116.179992675781

> <r_mmod_Torsional_Energy-OPLS-2005>
259.987579345703

> <r_mmod_Improper_Torsional_Energy-OPLS-2005>
3.88257312774658

> <r_mmod_Van_der_Waal_Energy-OPLS-2005>
139.845443725586

> <r_mmod_Electrostatic_Energy-OPLS-2005>
-363.041687011719

> <r_mmod_Solvation_Energy-OPLS-2005>
-246.405807495117

> <b_mmod_Minimization_Converged-OPLS-2005>
0

> <r_mmod_RMS_Derivative-OPLS-2005>
4.380784034729

$$$$
76
                    3D
 Structure written by MMmdl.
176185  0  0  1  0            999 V2000
  -30.7949  -14.3626   20.5980 C   0  0  0  0  0  0
  -30.3932  -12.2452   19.4332 C   0  0  0  0  0  0
  -29.4927  -12.5006   18.2148 C   0  0  0  0  0  0
  -28.0106  -12.3840   18.6092 C   0  0  0  0  0  0
  -27.6640  -13.2117   19.8765 C   0  0  2  0  0  0
  -28.7029  -13.0032   21.0063 C   0  0  0  0  0  0
  -25.2608  -13.8194   20.5680 C   0  0  0  0  0  0
  -24.1853  -13.0494   20.9164 C   0  0  0  0  0  0
  -24.6362  -11.6926   20.8685 C   0  0  0  0  0  0
  -23.9037  -10.4301   21.0334 C   0  0  0  0  0  0
  -24.3587   -9.4245   21.9121 C   0  0  0  0  0  0
  -23.6278   -8.2272   22.0722 C   0  0  0  0  0  0
  -22.4268   -8.0264   21.3512 C   0  0  0  0  0  0
  -21.9870   -9.0223   20.4610 C   0  0  0  0  0  0
  -22.7191  -10.2120   20.2992 C   0  0  0  0  0  0
  -21.6866   -6.0704   22.5247 C   0  0  0  0  0  0
  -21.4016   -6.5620   23.8185 C   0  0  0  0  0  0
  -21.3685   -5.6779   24.9155 C   0  0  0  0  0  0
  -21.6064   -4.3048   24.7209 C   0  0  0  0  0  0
  -21.8857   -3.8134   23.4341 C   0  0  0  0  0  0
  -21.9217   -4.6930   22.3403 C   0  0  0  0  0  0
  -22.7877  -13.5256   21.1862 C   0  0  0  0  0  0
  -22.1683   -4.2098   21.0985 F   0  0  0  0  0  0
  -21.5627   -3.4570   25.7754 F   0  0  0  0  0  0
  -30.0506  -13.2350   20.4627 N   0  0  0  0  0  0
  -26.3028  -12.9345   20.3351 N   0  0  0  0  0  0
  -25.9289  -11.6520   20.5741 N   0  0  0  0  0  0
  -22.0538  -12.8210   22.0389 N   0  0  0  0  0  0
  -25.4448  -15.1903   20.4080 N   0  0  0  0  0  0
  -31.8871  -14.5129   20.0432 O   0  0  0  0  0  0
  -21.6674   -6.8823   21.4193 O   0  0  0  0  0  0
  -22.3562  -14.5537   20.6697 O   0  0  0  0  0  0
  -24.6210  -31.8728   23.2229 C   0  0  0  0  0  0
  -25.9108  -32.4868   23.8505 C   0  0  1  0  0  0
  -27.1454  -27.3980   20.0681 C   0  0  0  0  0  0
  -25.6008  -33.8691   24.2416 N   0  0  0  0  0  0
  -23.4024  -30.5143   21.5705 C   0  0  2  0  0  0
  -24.8098  -28.9918   20.1261 C   0  0  0  0  0  0
  -22.7440  -29.4718   22.5078 C   0  0  0  0  0  0
  -18.0276  -28.1351   22.8521 C   0  0  0  0  0  0
  -24.1454  -36.7291   23.2656 C   0  0  0  0  0  0
  -25.9402  -30.8263   21.3811 C   0  0  0  0  0  0
  -25.9874  -29.4613   20.7246 C   0  0  0  0  0  0
  -27.1554  -28.6636   20.7069 C   0  0  0  0  0  0
  -25.9432  -26.9730   19.4519 C   0  0  0  0  0  0
  -24.7805  -27.7437   19.5017 C   0  0  0  0  0  0
  -23.5946  -29.8792   20.1785 C   0  0  0  0  0  0
  -25.4102  -36.3157   24.0362 C   0  0  1  0  0  0
  -20.5864  -28.3618   23.1343 C   0  0  2  0  0  0
  -20.6745  -26.9355   22.5433 C   0  0  0  0  0  0
  -19.5708  -26.6353   21.5234 C   0  0  0  0  0  0
  -18.1897  -26.7914   22.1632 C   0  0  0  0  0  0
  -19.1546  -28.8817   23.2915 C   0  0  0  0  0  0
  -18.9446  -30.1442   23.8882 C   0  0  0  0  0  0
  -17.6447  -30.6543   24.0568 C   0  0  0  0  0  0
  -25.9069  -34.9522   23.5164 C   0  0  0  0  0  0
  -16.5333  -29.9038   23.6347 C   0  0  0  0  0  0
  -16.7285  -28.6462   23.0368 C   0  0  0  0  0  0
  -26.4493  -31.6625   25.0802 C   0  0  0  0  0  0
  -25.3798  -31.3638   26.1550 C   0  0  0  0  0  0
  -27.0349  -30.3112   24.6169 C   0  0  0  0  0  0
  -27.6086  -32.4321   25.7509 C   0  0  0  0  0  0
  -27.5560  -37.1805   24.8503 C   0  0  0  0  0  0
  -21.4147  -29.3029   22.3797 N   0  0  0  0  0  0
  -26.4285  -37.3851   23.9442 N   0  0  0  0  0  0
  -24.6750  -31.0864   22.1135 N   0  0  0  0  0  0
  -23.4197  -28.8250   23.3125 O   0  0  0  0  0  0
  -28.2802  -26.6175   20.0693 O   0  0  0  0  0  0
  -26.5566  -34.8946   22.4675 O   0  0  0  0  0  0
  -23.5388  -32.1488   23.7629 O   0  0  0  0  0  0
  -30.1837  -17.1779   19.6321 C   0  0  0  0  0  0
  -31.4732  -19.2260   19.9415 C   0  0  0  0  0  0
  -31.4395  -17.5139   21.6956 C   0  0  0  0  0  0
  -30.6449  -18.4109   19.1397 C   0  0  0  0  0  0
  -30.5936  -16.7139   20.8971 C   0  0  0  0  0  0
  -31.8777  -18.7698   21.2125 C   0  0  0  0  0  0
  -27.5908  -22.8874   19.8047 C   0  0  0  0  0  0
  -30.2437  -18.7676   17.7832 C   0  0  0  0  0  0
  -26.9421  -22.2682   18.7917 C   0  0  0  0  0  0
  -27.3855  -20.7919   16.7125 C   0  0  0  0  0  0
  -28.6173  -19.9726   16.2842 C   0  0  0  0  0  0
  -28.9216  -20.7348   18.5114 C   0  0  0  0  0  0
  -27.4166  -20.9048   18.2605 C   0  0  1  0  0  0
  -25.7448  -22.9172   18.0992 C   0  0  0  0  0  0
  -26.6525  -19.7364   18.9286 C   0  0  0  0  0  0
  -27.6080  -24.2542   21.9093 C   0  0  0  0  0  0
  -28.1746  -25.2869   19.5328 C   0  0  0  0  0  0
  -27.3338  -24.2661   20.3768 C   0  0  1  0  0  0
  -29.3625  -19.7515   17.5314 N   0  0  0  0  0  0
  -30.2519  -15.3858   21.2687 N   0  0  0  0  0  0
  -30.6992  -18.0353   16.7766 N   0  3  0  0  0  0
  -32.7154  -19.5249   21.9609 F   0  0  0  0  0  0
  -31.4408  -12.2905   19.1361 H   0  0  0  0  0  0
  -30.2377  -11.2346   19.8192 H   0  0  0  0  0  0
  -29.7248  -11.7840   17.4261 H   0  0  0  0  0  0
  -29.7022  -13.4894   17.8056 H   0  0  0  0  0  0
  -27.8058  -11.3282   18.7824 H   0  0  0  0  0  0
  -27.3785  -12.6888   17.7737 H   0  0  0  0  0  0
  -27.7110  -14.2596   19.5811 H   0  0  0  0  0  0
  -28.6473  -11.9870   21.3999 H   0  0  0  0  0  0
  -28.4750  -13.6653   21.8445 H   0  0  0  0  0  0
  -25.2707   -9.5802   22.4713 H   0  0  0  0  0  0
  -24.0046   -7.4693   22.7462 H   0  0  0  0  0  0
  -21.0799   -8.8689   19.8915 H   0  0  0  0  0  0
  -22.3576  -10.9635   19.6122 H   0  0  0  0  0  0
  -21.1974   -7.6115   23.9656 H   0  0  0  0  0  0
  -21.1480   -6.0513   25.9047 H   0  0  0  0  0  0
  -22.0603   -2.7579   23.2875 H   0  0  0  0  0  0
  -22.4167  -11.9871   22.4778 H   0  0  0  0  0  0
  -21.1117  -13.1141   22.2535 H   0  0  0  0  0  0
  -24.6905  -15.8593   20.5069 H   0  0  0  0  0  0
  -26.3136  -15.6209   20.1075 H   0  0  0  0  0  0
  -26.7173  -32.5552   23.1258 H   0  0  0  0  0  0
  -25.0291  -33.9896   25.0657 H   0  0  0  0  0  0
  -22.6976  -31.3403   21.4523 H   0  0  0  0  0  0
  -23.3771  -35.9566   23.3369 H   0  0  0  0  0  0
  -24.3560  -36.8852   22.2061 H   0  0  0  0  0  0
  -23.7106  -37.6485   23.6613 H   0  0  0  0  0  0
  -26.0652  -31.5904   20.6114 H   0  0  0  0  0  0
  -26.8295  -30.8680   22.0011 H   0  0  0  0  0  0
  -28.0576  -28.9922   21.2032 H   0  0  0  0  0  0
  -25.8332  -26.0503   18.9103 H   0  0  0  0  0  0
  -23.8671  -27.3854   19.0442 H   0  0  0  0  0  0
  -23.7281  -30.6633   19.4345 H   0  0  0  0  0  0
  -22.7069  -29.3240   19.8760 H   0  0  0  0  0  0
  -25.1245  -36.2051   25.0859 H   0  0  0  0  0  0
  -20.9951  -28.3119   24.1457 H   0  0  0  0  0  0
  -20.5619  -26.2229   23.3618 H   0  0  0  0  0  0
  -21.6604  -26.7379   22.1207 H   0  0  0  0  0  0
  -19.6843  -25.6268   21.1240 H   0  0  0  0  0  0
  -19.6608  -27.3183   20.6769 H   0  0  0  0  0  0
  -17.4161  -26.6755   21.4020 H   0  0  0  0  0  0
  -18.0224  -26.0030   22.8975 H   0  0  0  0  0  0
  -19.7941  -30.7295   24.2179 H   0  0  0  0  0  0
  -17.4995  -31.6224   24.5153 H   0  0  0  0  0  0
  -15.5338  -30.2903   23.7684 H   0  0  0  0  0  0
  -15.8705  -28.0774   22.7065 H   0  0  0  0  0  0
  -24.6048  -30.6892   25.7868 H   0  0  0  0  0  0
  -24.8879  -32.2733   26.5044 H   0  0  0  0  0  0
  -25.8199  -30.8796   27.0298 H   0  0  0  0  0  0
  -26.2875  -29.6866   24.1252 H   0  0  0  0  0  0
  -27.4203  -29.7332   25.4597 H   0  0  0  0  0  0
  -27.8687  -30.4508   23.9272 H   0  0  0  0  0  0
  -27.2794  -33.3690   26.2047 H   0  0  0  0  0  0
  -28.3881  -32.6797   25.0273 H   0  0  0  0  0  0
  -28.0801  -31.8475   26.5445 H   0  0  0  0  0  0
  -28.2614  -38.0073   24.7577 H   0  0  0  0  0  0
  -28.0993  -36.2602   24.6270 H   0  0  0  0  0  0
  -27.2295  -37.1417   25.8921 H   0  0  0  0  0  0
  -20.9284  -29.8810   21.7080 H   0  0  0  0  0  0
  -26.0175  -38.2927   24.1496 H   0  0  0  0  0  0
  -29.5602  -16.5545   19.0010 H   0  0  0  0  0  0
  -31.8291  -20.1795   19.5783 H   0  0  0  0  0  0
  -31.7991  -17.1599   22.6489 H   0  0  0  0  0  0
  -28.4192  -22.3951   20.2929 H   0  0  0  0  0  0
  -26.4559  -20.3439   16.3574 H   0  0  0  0  0  0
  -27.4566  -21.7745   16.2528 H   0  0  0  0  0  0
  -29.2149  -20.5131   15.5478 H   0  0  0  0  0  0
  -28.3147  -19.0249   15.8400 H   0  0  0  0  0  0
  -29.1403  -20.4766   19.5489 H   0  0  0  0  0  0
  -29.4506  -21.6653   18.2853 H   0  0  0  0  0  0
  -24.8381  -22.7678   18.6821 H   0  0  0  0  0  0
  -25.5585  -22.5358   17.0991 H   0  0  0  0  0  0
  -25.9080  -23.9846   17.9838 H   0  0  0  0  0  0
  -25.5757  -19.9035   18.9537 H   0  0  0  0  0  0
  -26.9811  -19.5741   19.9598 H   0  0  0  0  0  0
  -26.8186  -18.7989   18.3944 H   0  0  0  0  0  0
  -26.9644  -23.5264   22.4148 H   0  0  0  0  0  0
  -27.3914  -25.2193   22.3687 H   0  0  0  0  0  0
  -28.6367  -23.9974   22.1675 H   0  0  0  0  0  0
  -27.7924  -25.3446   18.5087 H   0  0  0  0  0  0
  -29.1826  -24.8996   19.3816 H   0  0  0  0  0  0
  -26.2664  -24.4588   20.2668 H   0  0  0  0  0  0
  -29.3859  -15.2278   21.7617 H   0  0  0  0  0  0
  -31.4690  -17.4005   16.9402 H   0  0  0  0  0  0
  -30.4280  -18.2302   15.8288 H   0  0  0  0  0  0
  1 25  1  0  0  0
  1 30  2  0  0  0
  1 90  1  0  0  0
  2  3  1  0  0  0
  2 25  1  0  0  0
  2 93  1  0  0  0
  2 94  1  0  0  0
  3  4  1  0  0  0
  3 95  1  0  0  0
  3 96  1  0  0  0
  4  5  1  0  0  0
  4 97  1  0  0  0
  4 98  1  0  0  0
  5  6  1  0  0  0
  5 26  1  0  0  0
  5 99  1  0  0  0
  6 25  1  0  0  0
  6100  1  0  0  0
  6101  1  0  0  0
  7  8  2  0  0  0
  7 26  1  0  0  0
  7 29  1  0  0  0
  8  9  1  0  0  0
  8 22  1  0  0  0
  9 10  1  0  0  0
  9 27  2  0  0  0
 10 11  2  0  0  0
 10 15  1  0  0  0
 11 12  1  0  0  0
 11102  1  0  0  0
 12 13  2  0  0  0
 12103  1  0  0  0
 13 14  1  0  0  0
 13 31  1  0  0  0
 14 15  2  0  0  0
 14104  1  0  0  0
 15105  1  0  0  0
 16 17  2  0  0  0
 16 21  1  0  0  0
 16 31  1  0  0  0
 17 18  1  0  0  0
 17106  1  0  0  0
 18 19  2  0  0  0
 18107  1  0  0  0
 19 20  1  0  0  0
 19 24  1  0  0  0
 20 21  2  0  0  0
 20108  1  0  0  0
 21 23  1  0  0  0
 22 28  1  0  0  0
 22 32  2  0  0  0
 26 27  1  0  0  0
 28109  1  0  0  0
 28110  1  0  0  0
 29111  1  0  0  0
 29112  1  0  0  0
 33 34  1  0  0  0
 33 66  1  0  0  0
 33 70  2  0  0  0
 34 36  1  0  0  0
 34 59  1  0  0  0
 34113  1  0  0  0
 35 44  2  0  0  0
 35 45  1  0  0  0
 35 68  1  0  0  0
 36 56  1  0  0  0
 36114  1  0  0  0
 37 39  1  0  0  0
 37 47  1  0  0  0
 37 66  1  0  0  0
 37115  1  0  0  0
 38 43  2  0  0  0
 38 46  1  0  0  0
 38 47  1  0  0  0
 39 64  1  0  0  0
 39 67  2  0  0  0
 40 52  1  0  0  0
 40 53  2  0  0  0
 40 58  1  0  0  0
 41116  1  0  0  0
 41117  1  0  0  0
 41118  1  0  0  0
 41 48  1  0  0  0
 42 43  1  0  0  0
 42 66  1  0  0  0
 42119  1  0  0  0
 42120  1  0  0  0
 43 44  1  0  0  0
 44121  1  0  0  0
 45 46  2  0  0  0
 45122  1  0  0  0
 46123  1  0  0  0
 47124  1  0  0  0
 47125  1  0  0  0
 48 56  1  0  0  0
 48 65  1  0  0  0
 48126  1  0  0  0
 49 50  1  0  0  0
 49 53  1  0  0  0
 49 64  1  0  0  0
 49127  1  0  0  0
 50 51  1  0  0  0
 50128  1  0  0  0
 50129  1  0  0  0
 51 52  1  0  0  0
 51130  1  0  0  0
 51131  1  0  0  0
 52132  1  0  0  0
 52133  1  0  0  0
 53 54  1  0  0  0
 54 55  2  0  0  0
 54134  1  0  0  0
 55 57  1  0  0  0
 55135  1  0  0  0
 56 69  2  0  0  0
 57 58  2  0  0  0
 57136  1  0  0  0
 58137  1  0  0  0
 59 60  1  0  0  0
 59 61  1  0  0  0
 59 62  1  0  0  0
 60138  1  0  0  0
 60139  1  0  0  0
 60140  1  0  0  0
 61141  1  0  0  0
 61142  1  0  0  0
 61143  1  0  0  0
 62144  1  0  0  0
 62145  1  0  0  0
 62146  1  0  0  0
 63 65  1  0  0  0
 63147  1  0  0  0
 63148  1  0  0  0
 63149  1  0  0  0
 64150  1  0  0  0
 65151  1  0  0  0
 68 87  1  0  0  0
 71 74  2  0  0  0
 71 75  1  0  0  0
 71152  1  0  0  0
 72 74  1  0  0  0
 72 76  2  0  0  0
 72153  1  0  0  0
 73 75  2  0  0  0
 73 76  1  0  0  0
 73154  1  0  0  0
 74 78  1  0  0  0
 75 90  1  0  0  0
 76 92  1  0  0  0
 77 79  2  0  0  0
 77 88  1  0  0  0
 77155  1  0  0  0
 78 89  1  0  0  0
 78 91  2  0  0  0
 79 84  1  0  0  0
 79 83  1  0  0  0
 80 81  1  0  0  0
 80 83  1  0  0  0
 80156  1  0  0  0
 80157  1  0  0  0
 81 89  1  0  0  0
 81158  1  0  0  0
 81159  1  0  0  0
 82 83  1  0  0  0
 82 89  1  0  0  0
 82160  1  0  0  0
 82161  1  0  0  0
 83 85  1  0  0  0
 84162  1  0  0  0
 84163  1  0  0  0
 84164  1  0  0  0
 85165  1  0  0  0
 85166  1  0  0  0
 85167  1  0  0  0
 86168  1  0  0  0
 86169  1  0  0  0
 86170  1  0  0  0
 86 88  1  0  0  0
 87 88  1  0  0  0
 87171  1  0  0  0
 87172  1  0  0  0
 88173  1  0  0  0
 90174  1  0  0  0
 91175  1  0  0  0
 91176  1  0  0  0
M  CHG  1  91   1
M  ISO  4   1 100  68 101  87 101  90 100
M  END
> <chiral flag>
0

> <version>
0

> <s_m_source_file>
/data/baiqing/PycharmProjects/Reinvent-master-3.2/result/LINK_invent/BTK/process_docking_weight1_custom_product_contain_oxygen_bond_distance_aromatic_linkinvent_7_9_3/rearranged_h_0144.sdf

> <i_m_source_file_index>
77

> <r_mmod_Potential_Energy-OPLS-2005>
-101.700347900391

> <r_mmod_Stretch_Energy-OPLS-2005>
38.3725509643555

> <r_mmod_Bend_Energy-OPLS-2005>
146.903762817383

> <r_mmod_Torsional_Energy-OPLS-2005>
337.77685546875

> <r_mmod_Improper_Torsional_Energy-OPLS-2005>
5.68198585510254

> <r_mmod_Van_der_Waal_Energy-OPLS-2005>
177.43701171875

> <r_mmod_Electrostatic_Energy-OPLS-2005>
-432.222595214844

> <r_mmod_Solvation_Energy-OPLS-2005>
-398.844818115234

> <b_mmod_Minimization_Converged-OPLS-2005>
0

> <r_mmod_RMS_Derivative-OPLS-2005>
9.33510303497314

$$$$
77
                    3D
 Structure written by MMmdl.
163172  0  0  1  0            999 V2000
  -30.6594  -14.4695   20.6337 C   0  0  0  0  0  0
  -30.4348  -12.3133   19.4297 C   0  0  0  0  0  0
  -29.5009  -12.4965   18.2146 C   0  0  0  0  0  0
  -28.0195  -12.3461   18.6189 C   0  0  0  0  0  0
  -27.6601  -13.1912   19.8682 C   0  0  2  0  0  0
  -28.6887  -12.9417   20.9915 C   0  0  0  0  0  0
  -25.2597  -13.8127   20.5622 C   0  0  0  0  0  0
  -24.1818  -13.0428   20.9131 C   0  0  0  0  0  0
  -24.6340  -11.6889   20.8706 C   0  0  0  0  0  0
  -23.8992  -10.4283   21.0388 C   0  0  0  0  0  0
  -24.3563   -9.4215   21.9170 C   0  0  0  0  0  0
  -23.6268   -8.2235   22.0746 C   0  0  0  0  0  0
  -22.4259   -8.0253   21.3534 C   0  0  0  0  0  0
  -21.9867   -9.0215   20.4632 C   0  0  0  0  0  0
  -22.7170  -10.2108   20.3036 C   0  0  0  0  0  0
  -21.6863   -6.0712   22.5279 C   0  0  0  0  0  0
  -21.4015   -6.5626   23.8206 C   0  0  0  0  0  0
  -21.3656   -5.6788   24.9174 C   0  0  0  0  0  0
  -21.6041   -4.3046   24.7241 C   0  0  0  0  0  0
  -21.8820   -3.8130   23.4366 C   0  0  0  0  0  0
  -21.9196   -4.6934   22.3417 C   0  0  0  0  0  0
  -22.7852  -13.5249   21.1845 C   0  0  0  0  0  0
  -22.1663   -4.2117   21.0995 F   0  0  0  0  0  0
  -21.5629   -3.4532   25.7753 F   0  0  0  0  0  0
  -30.0288  -13.2724   20.4701 N   0  0  0  0  0  0
  -26.2985  -12.9255   20.3270 N   0  0  0  0  0  0
  -25.9258  -11.6439   20.5694 N   0  0  0  0  0  0
  -22.0513  -12.8244   22.0404 N   0  0  0  0  0  0
  -25.4436  -15.1823   20.4022 N   0  0  0  0  0  0
  -31.7382  -14.7417   20.0946 O   0  0  0  0  0  0
  -21.6644   -6.8844   21.4230 O   0  0  0  0  0  0
  -22.3537  -14.5564   20.6710 O   0  0  0  0  0  0
  -24.6169  -31.8653   23.2076 C   0  0  0  0  0  0
  -25.9042  -32.4829   23.8354 C   0  0  1  0  0  0
  -27.2202  -27.4163   20.0967 C   0  0  0  0  0  0
  -25.5903  -33.8613   24.2293 N   0  0  0  0  0  0
  -23.4022  -30.4909   21.5488 C   0  0  2  0  0  0
  -24.8433  -28.9559   20.1089 C   0  0  0  0  0  0
  -22.7428  -29.4663   22.4972 C   0  0  0  0  0  0
  -18.0282  -28.1404   22.8434 C   0  0  0  0  0  0
  -24.1506  -36.7267   23.2656 C   0  0  0  0  0  0
  -25.9322  -30.8283   21.3597 C   0  0  0  0  0  0
  -26.0028  -29.4612   20.7075 C   0  0  0  0  0  0
  -27.1929  -28.6962   20.7021 C   0  0  0  0  0  0
  -26.0370  -26.9288   19.4968 C   0  0  0  0  0  0
  -24.8547  -27.6912   19.5004 C   0  0  0  0  0  0
  -23.6105  -29.8261   20.1625 C   0  0  0  0  0  0
  -25.4129  -36.3100   24.0356 C   0  0  1  0  0  0
  -20.5856  -28.3655   23.1311 C   0  0  2  0  0  0
  -20.6786  -26.9412   22.5400 C   0  0  0  0  0  0
  -19.5784  -26.6388   21.5195 C   0  0  0  0  0  0
  -18.1940  -26.7953   22.1567 C   0  0  0  0  0  0
  -19.1533  -28.8839   23.2874 C   0  0  0  0  0  0
  -18.9480  -30.1435   23.8889 C   0  0  0  0  0  0
  -17.6491  -30.6579   24.0555 C   0  0  0  0  0  0
  -25.9058  -34.9465   23.5135 C   0  0  0  0  0  0
  -16.5365  -29.9100   23.6346 C   0  0  0  0  0  0
  -16.7274  -28.6541   23.0324 C   0  0  0  0  0  0
  -26.4454  -31.6604   25.0693 C   0  0  0  0  0  0
  -25.3691  -31.3684   26.1413 C   0  0  0  0  0  0
  -27.0287  -30.3074   24.6038 C   0  0  0  0  0  0
  -27.6038  -32.4320   25.7462 C   0  0  0  0  0  0
  -27.5582  -37.1791   24.8495 C   0  0  0  0  0  0
  -21.4141  -29.3028   22.3706 N   0  0  0  0  0  0
  -26.4286  -37.3798   23.9433 N   0  0  0  0  0  0
  -24.6696  -31.0752   22.0988 N   0  0  0  0  0  0
  -23.4205  -28.8253   23.3058 O   0  0  0  0  0  0
  -28.3976  -26.6892   20.1318 O   0  0  0  0  0  0
  -26.5640  -34.8921   22.4702 O   0  0  0  0  0  0
  -23.5364  -32.1409   23.7478 O   0  0  0  0  0  0
  -30.2660  -18.9846   20.8994 C   0  0  0  0  0  0
  -30.4212  -17.6139   20.5019 C   0  0  0  0  0  0
  -29.7630  -19.1444   22.1683 C   0  0  0  0  0  0
  -30.0226  -16.7031   21.4536 C   0  0  0  0  0  0
  -29.5445  -20.3374   22.9977 C   0  0  0  0  0  0
  -28.0634  -23.7137   22.5324 C   0  0  0  0  0  0
  -28.6911  -22.6516   23.4537 C   0  0  0  0  0  0
  -28.9852  -22.0204   21.1554 C   0  0  0  0  0  0
  -28.8464  -23.5732   21.2137 C   0  0  2  0  0  0
  -30.2441  -24.2309   21.3656 C   0  0  0  0  0  0
  -28.0722  -24.1504   19.9737 C   0  0  0  0  0  0
  -28.5385  -25.5011   19.3362 C   0  0  0  0  0  0
  -29.1294  -21.5638   22.5526 N   0  0  0  0  0  0
  -29.9893  -15.3380   21.4206 N   0  0  0  0  0  0
  -29.7794  -20.1988   24.3159 N   0  3  0  0  0  0
  -29.4116  -17.5644   22.8500 S   0  0  0  0  0  0
  -31.4772  -12.4366   19.1330 H   0  0  0  0  0  0
  -30.3588  -11.2965   19.8181 H   0  0  0  0  0  0
  -29.7476  -11.7699   17.4393 H   0  0  0  0  0  0
  -29.6632  -13.4806   17.7727 H   0  0  0  0  0  0
  -27.8388  -11.2894   18.8264 H   0  0  0  0  0  0
  -27.3712  -12.6012   17.7800 H   0  0  0  0  0  0
  -27.7159  -14.2401   19.5744 H   0  0  0  0  0  0
  -28.6661  -11.8913   21.2882 H   0  0  0  0  0  0
  -28.4122  -13.4917   21.8919 H   0  0  0  0  0  0
  -25.2715   -9.5715   22.4728 H   0  0  0  0  0  0
  -23.9987   -7.4642   22.7472 H   0  0  0  0  0  0
  -21.0803   -8.8704   19.8952 H   0  0  0  0  0  0
  -22.3610  -10.9623   19.6123 H   0  0  0  0  0  0
  -21.2004   -7.6138   23.9702 H   0  0  0  0  0  0
  -21.1475   -6.0525   25.9078 H   0  0  0  0  0  0
  -22.0608   -2.7587   23.2890 H   0  0  0  0  0  0
  -22.4129  -11.9864   22.4724 H   0  0  0  0  0  0
  -21.1131  -13.1257   22.2639 H   0  0  0  0  0  0
  -24.6891  -15.8551   20.4956 H   0  0  0  0  0  0
  -26.3071  -15.6000   20.0798 H   0  0  0  0  0  0
  -26.7078  -32.5504   23.1065 H   0  0  0  0  0  0
  -25.0098  -33.9774   25.0480 H   0  0  0  0  0  0
  -22.6935  -31.3114   21.4065 H   0  0  0  0  0  0
  -23.3804  -35.9579   23.3350 H   0  0  0  0  0  0
  -24.3608  -36.8839   22.2073 H   0  0  0  0  0  0
  -23.7212  -37.6475   23.6628 H   0  0  0  0  0  0
  -26.0525  -31.5943   20.5907 H   0  0  0  0  0  0
  -26.8233  -30.8823   21.9752 H   0  0  0  0  0  0
  -28.0891  -29.0827   21.1672 H   0  0  0  0  0  0
  -25.9974  -25.9559   19.0319 H   0  0  0  0  0  0
  -23.9623  -27.2909   19.0347 H   0  0  0  0  0  0
  -23.7278  -30.6020   19.4060 H   0  0  0  0  0  0
  -22.7320  -29.2539   19.8573 H   0  0  0  0  0  0
  -25.1311  -36.1979   25.0863 H   0  0  0  0  0  0
  -20.9894  -28.3210   24.1452 H   0  0  0  0  0  0
  -20.5702  -26.2253   23.3559 H   0  0  0  0  0  0
  -21.6654  -26.7511   22.1178 H   0  0  0  0  0  0
  -19.6968  -25.6315   21.1214 H   0  0  0  0  0  0
  -19.6747  -27.3202   20.6739 H   0  0  0  0  0  0
  -17.4222  -26.6663   21.3969 H   0  0  0  0  0  0
  -18.0320  -26.0135   22.8993 H   0  0  0  0  0  0
  -19.7975  -30.7220   24.2248 H   0  0  0  0  0  0
  -17.5098  -31.6274   24.5139 H   0  0  0  0  0  0
  -15.5377  -30.3013   23.7718 H   0  0  0  0  0  0
  -15.8661  -28.0878   22.7026 H   0  0  0  0  0  0
  -24.5961  -30.6923   25.7738 H   0  0  0  0  0  0
  -24.8747  -32.2820   26.4758 H   0  0  0  0  0  0
  -25.8036  -30.8963   27.0228 H   0  0  0  0  0  0
  -26.2821  -29.6823   24.1135 H   0  0  0  0  0  0
  -27.4195  -29.7320   25.4435 H   0  0  0  0  0  0
  -27.8571  -30.4477   23.9081 H   0  0  0  0  0  0
  -27.2711  -33.3678   26.1953 H   0  0  0  0  0  0
  -28.3887  -32.6749   25.0286 H   0  0  0  0  0  0
  -28.0635  -31.8474   26.5440 H   0  0  0  0  0  0
  -28.2617  -38.0075   24.7559 H   0  0  0  0  0  0
  -28.1041  -36.2596   24.6310 H   0  0  0  0  0  0
  -27.2278  -37.1469   25.8893 H   0  0  0  0  0  0
  -20.9292  -29.8723   21.6904 H   0  0  0  0  0  0
  -26.0185  -38.2883   24.1464 H   0  0  0  0  0  0
  -30.5629  -19.7839   20.2388 H   0  0  0  0  0  0
  -30.8141  -17.3542   19.5285 H   0  0  0  0  0  0
  -28.1272  -24.7203   22.9523 H   0  0  0  0  0  0
  -27.0037  -23.4844   22.3931 H   0  0  0  0  0  0
  -27.9698  -22.2925   24.1896 H   0  0  0  0  0  0
  -29.5427  -23.0595   23.9975 H   0  0  0  0  0  0
  -29.8577  -21.7469   20.5663 H   0  0  0  0  0  0
  -28.1114  -21.5373   20.7166 H   0  0  0  0  0  0
  -30.8102  -23.8338   22.2082 H   0  0  0  0  0  0
  -30.1628  -25.3064   21.5323 H   0  0  0  0  0  0
  -30.8608  -24.0726   20.4795 H   0  0  0  0  0  0
  -27.0005  -24.1794   20.1782 H   0  0  0  0  0  0
  -28.1710  -23.4229   19.1657 H   0  0  0  0  0  0
  -28.0587  -25.6398   18.3673 H   0  0  0  0  0  0
  -29.5942  -25.4254   19.0802 H   0  0  0  0  0  0
  -29.2423  -14.9170   21.9528 H   0  0  0  0  0  0
  -30.1627  -19.3336   24.6654 H   0  0  0  0  0  0
  -29.6768  -20.9600   24.9714 H   0  0  0  0  0  0
  1 25  1  0  0  0
  1 30  2  0  0  0
  1 84  1  0  0  0
  2  3  1  0  0  0
  2 25  1  0  0  0
  2 87  1  0  0  0
  2 88  1  0  0  0
  3  4  1  0  0  0
  3 89  1  0  0  0
  3 90  1  0  0  0
  4  5  1  0  0  0
  4 91  1  0  0  0
  4 92  1  0  0  0
  5  6  1  0  0  0
  5 26  1  0  0  0
  5 93  1  0  0  0
  6 25  1  0  0  0
  6 94  1  0  0  0
  6 95  1  0  0  0
  7  8  2  0  0  0
  7 26  1  0  0  0
  7 29  1  0  0  0
  8  9  1  0  0  0
  8 22  1  0  0  0
  9 10  1  0  0  0
  9 27  2  0  0  0
 10 11  2  0  0  0
 10 15  1  0  0  0
 11 12  1  0  0  0
 11 96  1  0  0  0
 12 13  2  0  0  0
 12 97  1  0  0  0
 13 14  1  0  0  0
 13 31  1  0  0  0
 14 15  2  0  0  0
 14 98  1  0  0  0
 15 99  1  0  0  0
 16 17  2  0  0  0
 16 21  1  0  0  0
 16 31  1  0  0  0
 17 18  1  0  0  0
 17100  1  0  0  0
 18 19  2  0  0  0
 18101  1  0  0  0
 19 20  1  0  0  0
 19 24  1  0  0  0
 20 21  2  0  0  0
 20102  1  0  0  0
 21 23  1  0  0  0
 22 28  1  0  0  0
 22 32  2  0  0  0
 26 27  1  0  0  0
 28103  1  0  0  0
 28104  1  0  0  0
 29105  1  0  0  0
 29106  1  0  0  0
 33 34  1  0  0  0
 33 66  1  0  0  0
 33 70  2  0  0  0
 34 36  1  0  0  0
 34 59  1  0  0  0
 34107  1  0  0  0
 35 44  2  0  0  0
 35 45  1  0  0  0
 35 68  1  0  0  0
 36 56  1  0  0  0
 36108  1  0  0  0
 37 39  1  0  0  0
 37 47  1  0  0  0
 37 66  1  0  0  0
 37109  1  0  0  0
 38 43  2  0  0  0
 38 46  1  0  0  0
 38 47  1  0  0  0
 39 64  1  0  0  0
 39 67  2  0  0  0
 40 52  1  0  0  0
 40 53  2  0  0  0
 40 58  1  0  0  0
 41110  1  0  0  0
 41111  1  0  0  0
 41112  1  0  0  0
 41 48  1  0  0  0
 42 43  1  0  0  0
 42 66  1  0  0  0
 42113  1  0  0  0
 42114  1  0  0  0
 43 44  1  0  0  0
 44115  1  0  0  0
 45 46  2  0  0  0
 45116  1  0  0  0
 46117  1  0  0  0
 47118  1  0  0  0
 47119  1  0  0  0
 48 56  1  0  0  0
 48 65  1  0  0  0
 48120  1  0  0  0
 49 50  1  0  0  0
 49 53  1  0  0  0
 49 64  1  0  0  0
 49121  1  0  0  0
 50 51  1  0  0  0
 50122  1  0  0  0
 50123  1  0  0  0
 51 52  1  0  0  0
 51124  1  0  0  0
 51125  1  0  0  0
 52126  1  0  0  0
 52127  1  0  0  0
 53 54  1  0  0  0
 54 55  2  0  0  0
 54128  1  0  0  0
 55 57  1  0  0  0
 55129  1  0  0  0
 56 69  2  0  0  0
 57 58  2  0  0  0
 57130  1  0  0  0
 58131  1  0  0  0
 59 60  1  0  0  0
 59 61  1  0  0  0
 59 62  1  0  0  0
 60132  1  0  0  0
 60133  1  0  0  0
 60134  1  0  0  0
 61135  1  0  0  0
 61136  1  0  0  0
 61137  1  0  0  0
 62138  1  0  0  0
 62139  1  0  0  0
 62140  1  0  0  0
 63 65  1  0  0  0
 63141  1  0  0  0
 63142  1  0  0  0
 63143  1  0  0  0
 64144  1  0  0  0
 65145  1  0  0  0
 68 82  1  0  0  0
 71 72  1  0  0  0
 71 73  2  0  0  0
 71146  1  0  0  0
 72 74  2  0  0  0
 72147  1  0  0  0
 73 75  1  0  0  0
 73 86  1  0  0  0
 74 84  1  0  0  0
 74 86  1  0  0  0
 75 83  1  0  0  0
 75 85  2  0  0  0
 76 77  1  0  0  0
 76 79  1  0  0  0
 76148  1  0  0  0
 76149  1  0  0  0
 77 83  1  0  0  0
 77150  1  0  0  0
 77151  1  0  0  0
 78 79  1  0  0  0
 78 83  1  0  0  0
 78152  1  0  0  0
 78153  1  0  0  0
 79 80  1  0  0  0
 79 81  1  0  0  0
 80154  1  0  0  0
 80155  1  0  0  0
 80156  1  0  0  0
 81 82  1  0  0  0
 81157  1  0  0  0
 81158  1  0  0  0
 82159  1  0  0  0
 82160  1  0  0  0
 84161  1  0  0  0
 85162  1  0  0  0
 85163  1  0  0  0
M  CHG  1  85   1
M  ISO  4   1 100  68 101  82 101  84 100
M  END
> <chiral flag>
0

> <version>
0

> <s_m_source_file>
/data/baiqing/PycharmProjects/Reinvent-master-3.2/result/LINK_invent/BTK/process_docking_weight1_custom_product_contain_oxygen_bond_distance_aromatic_linkinvent_7_9_3/rearranged_h_0144.sdf

> <i_m_source_file_index>
78

> <r_mmod_Potential_Energy-OPLS-2005>
-24.8131771087646

> <r_mmod_Stretch_Energy-OPLS-2005>
42.7356300354004

> <r_mmod_Bend_Energy-OPLS-2005>
158.768768310547

> <r_mmod_Torsional_Energy-OPLS-2005>
292.772003173828

> <r_mmod_Improper_Torsional_Energy-OPLS-2005>
2.61347007751465

> <r_mmod_Van_der_Waal_Energy-OPLS-2005>
142.775573730469

> <r_mmod_Electrostatic_Energy-OPLS-2005>
-240.010971069336

> <r_mmod_Solvation_Energy-OPLS-2005>
-439.462219238281

> <b_mmod_Minimization_Converged-OPLS-2005>
0

> <r_mmod_RMS_Derivative-OPLS-2005>
4.60018825531006

$$$$
78
                    3D
 Structure written by MMmdl.
162170  0  0  1  0            999 V2000
  -30.7281  -14.4580   20.6198 C   0  0  0  0  0  0
  -30.4182  -12.3048   19.4376 C   0  0  0  0  0  0
  -29.4926  -12.4936   18.2187 C   0  0  0  0  0  0
  -28.0165  -12.3517   18.6321 C   0  0  0  0  0  0
  -27.6630  -13.2014   19.8825 C   0  0  2  0  0  0
  -28.7007  -12.9995   21.0075 C   0  0  0  0  0  0
  -25.2624  -13.8144   20.5754 C   0  0  0  0  0  0
  -24.1834  -13.0445   20.9186 C   0  0  0  0  0  0
  -24.6375  -11.6907   20.8734 C   0  0  0  0  0  0
  -23.9050  -10.4290   21.0393 C   0  0  0  0  0  0
  -24.3602   -9.4233   21.9187 C   0  0  0  0  0  0
  -23.6278   -8.2266   22.0779 C   0  0  0  0  0  0
  -22.4272   -8.0287   21.3553 C   0  0  0  0  0  0
  -21.9896   -9.0255   20.4663 C   0  0  0  0  0  0
  -22.7214  -10.2147   20.3063 C   0  0  0  0  0  0
  -21.6869   -6.0748   22.5270 C   0  0  0  0  0  0
  -21.4011   -6.5633   23.8210 C   0  0  0  0  0  0
  -21.3658   -5.6792   24.9164 C   0  0  0  0  0  0
  -21.6045   -4.3058   24.7227 C   0  0  0  0  0  0
  -21.8822   -3.8157   23.4336 C   0  0  0  0  0  0
  -21.9191   -4.6958   22.3408 C   0  0  0  0  0  0
  -22.7861  -13.5276   21.1815 C   0  0  0  0  0  0
  -22.1663   -4.2150   21.0979 F   0  0  0  0  0  0
  -21.5633   -3.4550   25.7746 F   0  0  0  0  0  0
  -30.0327  -13.2984   20.4546 N   0  0  0  0  0  0
  -26.3038  -12.9293   20.3428 N   0  0  0  0  0  0
  -25.9311  -11.6467   20.5821 N   0  0  0  0  0  0
  -22.0487  -12.8270   22.0345 N   0  0  0  0  0  0
  -25.4396  -15.1867   20.4251 N   0  0  0  0  0  0
  -31.8170  -14.6550   20.0725 O   0  0  0  0  0  0
  -21.6646   -6.8877   21.4247 O   0  0  0  0  0  0
  -22.3572  -14.5605   20.6679 O   0  0  0  0  0  0
  -24.6000  -31.8710   23.2139 C   0  0  0  0  0  0
  -25.8866  -32.4842   23.8514 C   0  0  1  0  0  0
  -27.2916  -27.4730   20.0995 C   0  0  0  0  0  0
  -25.5683  -33.8622   24.2426 N   0  0  0  0  0  0
  -23.3991  -30.4939   21.5389 C   0  0  2  0  0  0
  -24.8767  -28.9605   20.1316 C   0  0  0  0  0  0
  -22.7332  -29.4756   22.4886 C   0  0  0  0  0  0
  -18.0282  -28.1379   22.8449 C   0  0  0  0  0  0
  -24.1475  -36.7297   23.2669 C   0  0  0  0  0  0
  -25.9301  -30.8515   21.3766 C   0  0  0  0  0  0
  -26.0316  -29.4849   20.7269 C   0  0  0  0  0  0
  -27.2462  -28.7475   20.7141 C   0  0  0  0  0  0
  -26.1188  -26.9728   19.4983 C   0  0  0  0  0  0
  -24.9118  -27.6943   19.5218 C   0  0  0  0  0  0
  -23.6284  -29.8139   20.1641 C   0  0  0  0  0  0
  -25.4046  -36.3105   24.0417 C   0  0  1  0  0  0
  -20.5855  -28.3688   23.1227 C   0  0  2  0  0  0
  -20.6770  -26.9429   22.5357 C   0  0  0  0  0  0
  -19.5781  -26.6394   21.5145 C   0  0  0  0  0  0
  -18.1951  -26.7921   22.1569 C   0  0  0  0  0  0
  -19.1526  -28.8842   23.2857 C   0  0  0  0  0  0
  -18.9501  -30.1442   23.8886 C   0  0  0  0  0  0
  -17.6517  -30.6591   24.0582 C   0  0  0  0  0  0
  -25.8927  -34.9463   23.5223 C   0  0  0  0  0  0
  -16.5402  -29.9089   23.6367 C   0  0  0  0  0  0
  -16.7274  -28.6530   23.0332 C   0  0  0  0  0  0
  -26.4294  -31.6613   25.0829 C   0  0  0  0  0  0
  -25.3546  -31.3824   26.1620 C   0  0  0  0  0  0
  -27.0179  -30.3079   24.6215 C   0  0  0  0  0  0
  -27.6017  -32.4248   25.7397 C   0  0  0  0  0  0
  -27.5585  -37.1741   24.8440 C   0  0  0  0  0  0
  -21.4077  -29.3060   22.3616 N   0  0  0  0  0  0
  -26.4232  -37.3774   23.9485 N   0  0  0  0  0  0
  -24.6589  -31.0871   22.1000 N   0  0  0  0  0  0
  -23.4132  -28.8298   23.2926 O   0  0  0  0  0  0
  -28.3834  -26.6331   19.9932 O   0  0  0  0  0  0
  -26.5559  -34.8921   22.4827 O   0  0  0  0  0  0
  -23.5182  -32.1397   23.7495 O   0  0  0  0  0  0
  -28.9034  -19.8825   21.9080 C   0  0  0  0  0  0
  -28.9832  -18.4512   22.0882 C   0  0  0  0  0  0
  -30.2357  -17.9499   21.7797 C   0  0  0  0  0  0
  -30.0653  -20.4857   21.4860 C   0  0  0  0  0  0
  -27.8704  -17.6337   22.5893 C   0  0  0  0  0  0
  -29.6039  -22.8996   21.4234 C   0  0  0  0  0  0
  -26.6152  -18.3877   23.0140 C   0  0  0  0  0  0
  -30.7074  -27.0146   19.6423 C   0  0  0  0  0  0
  -30.8586  -16.5732   21.9626 C   0  0  0  0  0  0
  -30.0363  -24.1966   20.7041 C   0  0  0  0  0  0
  -29.8876  -25.5101   21.5372 C   0  0  0  0  0  0
  -29.6159  -26.7940   20.7017 C   0  0  2  0  0  0
  -30.3548  -21.7955   21.2172 N   0  0  0  0  0  0
  -30.1673  -15.3986   21.4021 N   0  0  0  0  0  0
  -27.8695  -16.4060   22.7056 O   0  0  0  0  0  0
  -28.6123  -22.9124   22.1575 O   0  0  0  0  0  0
  -31.2753  -19.2516   21.2349 S   0  0  0  0  0  0
  -31.4648  -12.3910   19.1406 H   0  0  0  0  0  0
  -30.3161  -11.2948   19.8437 H   0  0  0  0  0  0
  -29.7330  -11.7595   17.4492 H   0  0  0  0  0  0
  -29.6544  -13.4774   17.7767 H   0  0  0  0  0  0
  -27.8358  -11.2947   18.8384 H   0  0  0  0  0  0
  -27.3610  -12.6124   17.7997 H   0  0  0  0  0  0
  -27.7094  -14.2472   19.5786 H   0  0  0  0  0  0
  -28.6766  -11.9714   21.3706 H   0  0  0  0  0  0
  -28.4530  -13.6163   21.8713 H   0  0  0  0  0  0
  -25.2747   -9.5734   22.4761 H   0  0  0  0  0  0
  -23.9997   -7.4682   22.7504 H   0  0  0  0  0  0
  -21.0841   -8.8749   19.8974 H   0  0  0  0  0  0
  -22.3640  -10.9682   19.6178 H   0  0  0  0  0  0
  -21.1992   -7.6143   23.9714 H   0  0  0  0  0  0
  -21.1484   -6.0525   25.9069 H   0  0  0  0  0  0
  -22.0604   -2.7615   23.2850 H   0  0  0  0  0  0
  -22.4080  -11.9895   22.4688 H   0  0  0  0  0  0
  -21.1122  -13.1341   22.2578 H   0  0  0  0  0  0
  -24.6972  -15.8533   20.6031 H   0  0  0  0  0  0
  -26.3245  -15.6246   20.2027 H   0  0  0  0  0  0
  -26.6987  -32.5641   23.1349 H   0  0  0  0  0  0
  -24.9796  -33.9817   25.0520 H   0  0  0  0  0  0
  -22.6858  -31.3035   21.3684 H   0  0  0  0  0  0
  -23.3778  -35.9581   23.3201 H   0  0  0  0  0  0
  -24.3686  -36.8995   22.2144 H   0  0  0  0  0  0
  -23.7167  -37.6438   23.6717 H   0  0  0  0  0  0
  -26.0415  -31.6317   20.6248 H   0  0  0  0  0  0
  -26.8106  -30.9042   22.0051 H   0  0  0  0  0  0
  -28.1311  -29.1744   21.1628 H   0  0  0  0  0  0
  -26.1565  -26.0136   19.0027 H   0  0  0  0  0  0
  -24.0271  -27.2744   19.0693 H   0  0  0  0  0  0
  -23.7339  -30.5775   19.3929 H   0  0  0  0  0  0
  -22.7628  -29.2195   19.8718 H   0  0  0  0  0  0
  -25.1204  -36.1992   25.0899 H   0  0  0  0  0  0
  -21.0003  -28.3330   24.1316 H   0  0  0  0  0  0
  -20.5608  -26.2353   23.3557 H   0  0  0  0  0  0
  -21.6653  -26.7396   22.1217 H   0  0  0  0  0  0
  -19.6978  -25.6297   21.1214 H   0  0  0  0  0  0
  -19.6776  -27.3177   20.6662 H   0  0  0  0  0  0
  -17.4203  -26.6654   21.4012 H   0  0  0  0  0  0
  -18.0422  -26.0022   22.8937 H   0  0  0  0  0  0
  -19.7993  -30.7255   24.2234 H   0  0  0  0  0  0
  -17.5098  -31.6273   24.5175 H   0  0  0  0  0  0
  -15.5427  -30.3039   23.7660 H   0  0  0  0  0  0
  -15.8662  -28.0883   22.7011 H   0  0  0  0  0  0
  -24.5411  -30.7561   25.7881 H   0  0  0  0  0  0
  -24.9087  -32.3097   26.5303 H   0  0  0  0  0  0
  -25.7737  -30.8660   27.0272 H   0  0  0  0  0  0
  -26.2857  -29.6831   24.1112 H   0  0  0  0  0  0
  -27.3856  -29.7304   25.4697 H   0  0  0  0  0  0
  -27.8662  -30.4477   23.9515 H   0  0  0  0  0  0
  -27.2871  -33.3648   26.1933 H   0  0  0  0  0  0
  -28.3752  -32.6591   25.0063 H   0  0  0  0  0  0
  -28.0724  -31.8338   26.5284 H   0  0  0  0  0  0
  -28.2432  -38.0183   24.7620 H   0  0  0  0  0  0
  -28.1248  -36.2731   24.6004 H   0  0  0  0  0  0
  -27.2404  -37.1060   25.8854 H   0  0  0  0  0  0
  -20.9200  -29.8736   21.6812 H   0  0  0  0  0  0
  -26.0151  -38.2834   24.1535 H   0  0  0  0  0  0
  -27.9970  -20.4335   22.1123 H   0  0  0  0  0  0
  -26.8717  -19.2228   23.6648 H   0  0  0  0  0  0
  -25.9466  -17.7214   23.5591 H   0  0  0  0  0  0
  -26.0907  -18.7710   22.1398 H   0  0  0  0  0  0
  -31.6730  -26.6419   19.9882 H   0  0  0  0  0  0
  -30.8185  -28.0720   19.3979 H   0  0  0  0  0  0
  -30.4617  -26.4912   18.7156 H   0  0  0  0  0  0
  -30.9516  -16.3831   23.0336 H   0  0  0  0  0  0
  -31.8873  -16.6088   21.5938 H   0  0  0  0  0  0
  -29.4145  -24.2666   19.8131 H   0  0  0  0  0  0
  -31.0563  -24.0992   20.3297 H   0  0  0  0  0  0
  -30.8086  -25.6563   22.1073 H   0  0  0  0  0  0
  -29.1125  -25.4177   22.2979 H   0  0  0  0  0  0
  -29.6150  -27.6472   21.3786 H   0  0  0  0  0  0
  -31.2368  -21.9605   20.7504 H   0  0  0  0  0  0
  -29.2675  -15.1767   21.8141 H   0  0  0  0  0  0
  1 25  1  0  0  0
  1 30  2  0  0  0
  1 84  1  0  0  0
  2  3  1  0  0  0
  2 25  1  0  0  0
  2 88  1  0  0  0
  2 89  1  0  0  0
  3  4  1  0  0  0
  3 90  1  0  0  0
  3 91  1  0  0  0
  4  5  1  0  0  0
  4 92  1  0  0  0
  4 93  1  0  0  0
  5  6  1  0  0  0
  5 26  1  0  0  0
  5 94  1  0  0  0
  6 25  1  0  0  0
  6 95  1  0  0  0
  6 96  1  0  0  0
  7  8  2  0  0  0
  7 26  1  0  0  0
  7 29  1  0  0  0
  8  9  1  0  0  0
  8 22  1  0  0  0
  9 10  1  0  0  0
  9 27  2  0  0  0
 10 11  2  0  0  0
 10 15  1  0  0  0
 11 12  1  0  0  0
 11 97  1  0  0  0
 12 13  2  0  0  0
 12 98  1  0  0  0
 13 14  1  0  0  0
 13 31  1  0  0  0
 14 15  2  0  0  0
 14 99  1  0  0  0
 15100  1  0  0  0
 16 17  2  0  0  0
 16 21  1  0  0  0
 16 31  1  0  0  0
 17 18  1  0  0  0
 17101  1  0  0  0
 18 19  2  0  0  0
 18102  1  0  0  0
 19 20  1  0  0  0
 19 24  1  0  0  0
 20 21  2  0  0  0
 20103  1  0  0  0
 21 23  1  0  0  0
 22 28  1  0  0  0
 22 32  2  0  0  0
 26 27  1  0  0  0
 28104  1  0  0  0
 28105  1  0  0  0
 29106  1  0  0  0
 29107  1  0  0  0
 33 34  1  0  0  0
 33 66  1  0  0  0
 33 70  2  0  0  0
 34 36  1  0  0  0
 34 59  1  0  0  0
 34108  1  0  0  0
 35 44  2  0  0  0
 35 45  1  0  0  0
 35 68  1  0  0  0
 36 56  1  0  0  0
 36109  1  0  0  0
 37 39  1  0  0  0
 37 47  1  0  0  0
 37 66  1  0  0  0
 37110  1  0  0  0
 38 43  2  0  0  0
 38 46  1  0  0  0
 38 47  1  0  0  0
 39 64  1  0  0  0
 39 67  2  0  0  0
 40 52  1  0  0  0
 40 53  2  0  0  0
 40 58  1  0  0  0
 41111  1  0  0  0
 41112  1  0  0  0
 41113  1  0  0  0
 41 48  1  0  0  0
 42 43  1  0  0  0
 42 66  1  0  0  0
 42114  1  0  0  0
 42115  1  0  0  0
 43 44  1  0  0  0
 44116  1  0  0  0
 45 46  2  0  0  0
 45117  1  0  0  0
 46118  1  0  0  0
 47119  1  0  0  0
 47120  1  0  0  0
 48 56  1  0  0  0
 48 65  1  0  0  0
 48121  1  0  0  0
 49 50  1  0  0  0
 49 53  1  0  0  0
 49 64  1  0  0  0
 49122  1  0  0  0
 50 51  1  0  0  0
 50123  1  0  0  0
 50124  1  0  0  0
 51 52  1  0  0  0
 51125  1  0  0  0
 51126  1  0  0  0
 52127  1  0  0  0
 52128  1  0  0  0
 53 54  1  0  0  0
 54 55  2  0  0  0
 54129  1  0  0  0
 55 57  1  0  0  0
 55130  1  0  0  0
 56 69  2  0  0  0
 57 58  2  0  0  0
 57131  1  0  0  0
 58132  1  0  0  0
 59 60  1  0  0  0
 59 61  1  0  0  0
 59 62  1  0  0  0
 60133  1  0  0  0
 60134  1  0  0  0
 60135  1  0  0  0
 61136  1  0  0  0
 61137  1  0  0  0
 61138  1  0  0  0
 62139  1  0  0  0
 62140  1  0  0  0
 62141  1  0  0  0
 63 65  1  0  0  0
 63142  1  0  0  0
 63143  1  0  0  0
 63144  1  0  0  0
 64145  1  0  0  0
 65146  1  0  0  0
 68 82  1  0  0  0
 71 72  1  0  0  0
 71 74  2  0  0  0
 71147  1  0  0  0
 72 73  2  0  0  0
 72 75  1  0  0  0
 73 79  1  0  0  0
 73 87  1  0  0  0
 74 83  1  0  0  0
 74 87  1  0  0  0
 75 77  1  0  0  0
 75 85  2  0  0  0
 76 80  1  0  0  0
 76 83  1  0  0  0
 76 86  2  0  0  0
 77148  1  0  0  0
 77149  1  0  0  0
 77150  1  0  0  0
 78151  1  0  0  0
 78152  1  0  0  0
 78153  1  0  0  0
 78 82  1  0  0  0
 79 84  1  0  0  0
 79154  1  0  0  0
 79155  1  0  0  0
 80 81  1  0  0  0
 80156  1  0  0  0
 80157  1  0  0  0
 81 82  1  0  0  0
 81158  1  0  0  0
 81159  1  0  0  0
 82160  1  0  0  0
 83161  1  0  0  0
 84162  1  0  0  0
M  ISO  4   1 100  68 101  82 101  84 100
M  END
> <chiral flag>
0

> <version>
0

> <s_m_source_file>
/data/baiqing/PycharmProjects/Reinvent-master-3.2/result/LINK_invent/BTK/process_docking_weight1_custom_product_contain_oxygen_bond_distance_aromatic_linkinvent_7_9_3/rearranged_h_0144.sdf

> <i_m_source_file_index>
79

> <r_mmod_Potential_Energy-OPLS-2005>
-199.02702331543

> <r_mmod_Stretch_Energy-OPLS-2005>
39.2745399475098

> <r_mmod_Bend_Energy-OPLS-2005>
138.173736572266

> <r_mmod_Torsional_Energy-OPLS-2005>
235.541809082031

> <r_mmod_Improper_Torsional_Energy-OPLS-2005>
2.75843191146851

> <r_mmod_Van_der_Waal_Energy-OPLS-2005>
133.014343261719

> <r_mmod_Electrostatic_Energy-OPLS-2005>
-535.321411132812

> <r_mmod_Solvation_Energy-OPLS-2005>
-224.360229492188

> <b_mmod_Minimization_Converged-OPLS-2005>
0

> <r_mmod_RMS_Derivative-OPLS-2005>
7.07125616073608

$$$$
79
                    3D
 Structure written by MMmdl.
162171  0  0  1  0            999 V2000
  -30.5718  -14.7296   20.5111 C   0  0  0  0  0  0
  -30.4492  -12.4530   19.4703 C   0  0  0  0  0  0
  -29.5149  -12.5223   18.2393 C   0  0  0  0  0  0
  -28.0397  -12.3389   18.6495 C   0  0  0  0  0  0
  -27.6510  -13.2180   19.8662 C   0  0  2  0  0  0
  -28.6945  -13.0931   20.9989 C   0  0  0  0  0  0
  -25.2555  -13.8164   20.5691 C   0  0  0  0  0  0
  -24.1824  -13.0430   20.9194 C   0  0  0  0  0  0
  -24.6393  -11.6903   20.8746 C   0  0  0  0  0  0
  -23.9056  -10.4291   21.0412 C   0  0  0  0  0  0
  -24.3619   -9.4207   21.9182 C   0  0  0  0  0  0
  -23.6300   -8.2235   22.0738 C   0  0  0  0  0  0
  -22.4280   -8.0271   21.3534 C   0  0  0  0  0  0
  -21.9916   -9.0248   20.4633 C   0  0  0  0  0  0
  -22.7240  -10.2132   20.3051 C   0  0  0  0  0  0
  -21.6850   -6.0737   22.5277 C   0  0  0  0  0  0
  -21.4010   -6.5637   23.8209 C   0  0  0  0  0  0
  -21.3660   -5.6797   24.9176 C   0  0  0  0  0  0
  -21.6044   -4.3055   24.7230 C   0  0  0  0  0  0
  -21.8821   -3.8149   23.4347 C   0  0  0  0  0  0
  -21.9197   -4.6962   22.3399 C   0  0  0  0  0  0
  -22.7850  -13.5219   21.1864 C   0  0  0  0  0  0
  -22.1669   -4.2154   21.0975 F   0  0  0  0  0  0
  -21.5631   -3.4539   25.7741 F   0  0  0  0  0  0
  -30.0012  -13.4764   20.4407 N   0  0  0  0  0  0
  -26.2976  -12.9341   20.3331 N   0  0  0  0  0  0
  -25.9317  -11.6492   20.5759 N   0  0  0  0  0  0
  -22.0510  -12.8205   22.0427 N   0  0  0  0  0  0
  -25.4272  -15.1881   20.4080 N   0  0  0  0  0  0
  -31.7275  -14.9140   20.1138 O   0  0  0  0  0  0
  -21.6631   -6.8878   21.4237 O   0  0  0  0  0  0
  -22.3536  -14.5535   20.6720 O   0  0  0  0  0  0
  -24.6301  -31.8582   23.1981 C   0  0  0  0  0  0
  -25.9130  -32.4782   23.8339 C   0  0  1  0  0  0
  -27.2348  -27.2827   20.1384 C   0  0  0  0  0  0
  -25.5920  -33.8578   24.2269 N   0  0  0  0  0  0
  -23.4295  -30.4780   21.5400 C   0  0  2  0  0  0
  -24.8846  -28.9218   20.1163 C   0  0  0  0  0  0
  -22.7507  -29.4625   22.4905 C   0  0  0  0  0  0
  -18.0294  -28.1433   22.8490 C   0  0  0  0  0  0
  -24.1474  -36.7266   23.2630 C   0  0  0  0  0  0
  -25.9746  -30.7757   21.3793 C   0  0  0  0  0  0
  -26.0524  -29.3964   20.7294 C   0  0  0  0  0  0
  -27.2340  -28.5868   20.7332 C   0  0  0  0  0  0
  -26.0469  -26.8662   19.5059 C   0  0  0  0  0  0
  -24.8833  -27.6628   19.4958 C   0  0  0  0  0  0
  -23.6534  -29.8070   20.1585 C   0  0  0  0  0  0
  -25.4105  -36.3083   24.0320 C   0  0  1  0  0  0
  -20.5907  -28.3739   23.1269 C   0  0  2  0  0  0
  -20.6775  -26.9449   22.5420 C   0  0  0  0  0  0
  -19.5747  -26.6417   21.5223 C   0  0  0  0  0  0
  -18.1927  -26.7974   22.1628 C   0  0  0  0  0  0
  -19.1556  -28.8898   23.2874 C   0  0  0  0  0  0
  -18.9478  -30.1493   23.8907 C   0  0  0  0  0  0
  -17.6478  -30.6615   24.0583 C   0  0  0  0  0  0
  -25.9047  -34.9456   23.5103 C   0  0  0  0  0  0
  -16.5369  -29.9119   23.6347 C   0  0  0  0  0  0
  -16.7278  -28.6541   23.0361 C   0  0  0  0  0  0
  -26.4504  -31.6598   25.0714 C   0  0  0  0  0  0
  -25.3744  -31.3782   26.1456 C   0  0  0  0  0  0
  -27.0318  -30.3000   24.6196 C   0  0  0  0  0  0
  -27.6067  -32.4333   25.7495 C   0  0  0  0  0  0
  -27.5580  -37.1786   24.8455 C   0  0  0  0  0  0
  -21.4212  -29.3073   22.3652 N   0  0  0  0  0  0
  -26.4282  -37.3781   23.9419 N   0  0  0  0  0  0
  -24.6962  -31.0552   22.0954 N   0  0  0  0  0  0
  -23.4204  -28.8166   23.3006 O   0  0  0  0  0  0
  -28.3084  -26.3707   20.1111 O   0  0  0  0  0  0
  -26.5610  -34.8939   22.4670 O   0  0  0  0  0  0
  -23.5445  -32.1396   23.7270 O   0  0  0  0  0  0
  -30.6869  -18.1075   20.2742 C   0  0  0  0  0  0
  -28.5969  -17.9225   21.4130 C   0  0  0  0  0  0
  -30.5565  -19.5479   20.2849 C   0  0  0  0  0  0
  -29.4382  -20.2253   20.8766 C   0  0  0  0  0  0
  -29.7148  -17.2399   20.8540 C   0  0  0  0  0  0
  -28.4541  -19.3517   21.4342 C   0  0  0  0  0  0
  -28.7015  -24.0693   21.2489 C   0  0  0  0  0  0
  -28.4185  -25.4317   21.1561 C   0  0  0  0  0  0
  -28.8334  -23.4479   22.6272 C   0  0  0  0  0  0
  -28.9653  -22.8597   20.2767 C   0  0  0  0  0  0
  -29.6161  -22.1329   22.4694 C   0  0  0  0  0  0
  -31.6808  -20.3743   19.6900 C   0  0  0  0  0  0
  -26.8407  -19.3525   23.2689 C   0  0  0  0  0  0
  -29.3790  -21.6676   21.1094 N   0  0  0  0  0  0
  -29.7322  -15.7532   20.9155 N   0  0  0  0  0  0
  -27.3370  -19.9514   22.0347 N   0  0  0  0  0  0
  -31.4854  -12.6081   19.1653 H   0  0  0  0  0  0
  -30.4165  -11.4615   19.9252 H   0  0  0  0  0  0
  -29.7969  -11.7641   17.5077 H   0  0  0  0  0  0
  -29.6367  -13.4859   17.7425 H   0  0  0  0  0  0
  -27.8940  -11.2862   18.8942 H   0  0  0  0  0  0
  -27.3820  -12.5488   17.8044 H   0  0  0  0  0  0
  -27.6631  -14.2494   19.5131 H   0  0  0  0  0  0
  -28.7308  -12.0687   21.3745 H   0  0  0  0  0  0
  -28.4200  -13.7105   21.8555 H   0  0  0  0  0  0
  -25.2769   -9.5685   22.4748 H   0  0  0  0  0  0
  -24.0023   -7.4623   22.7445 H   0  0  0  0  0  0
  -21.0852   -8.8766   19.8935 H   0  0  0  0  0  0
  -22.3702  -10.9670   19.6154 H   0  0  0  0  0  0
  -21.1991   -7.6146   23.9719 H   0  0  0  0  0  0
  -21.1481   -6.0518   25.9081 H   0  0  0  0  0  0
  -22.0599   -2.7611   23.2843 H   0  0  0  0  0  0
  -22.4142  -11.9852   22.4777 H   0  0  0  0  0  0
  -21.1127  -13.1203   22.2658 H   0  0  0  0  0  0
  -24.6544  -15.8389   20.4979 H   0  0  0  0  0  0
  -26.2661  -15.6213   20.0442 H   0  0  0  0  0  0
  -26.7195  -32.5482   23.1083 H   0  0  0  0  0  0
  -25.0093  -33.9726   25.0428 H   0  0  0  0  0  0
  -22.7236  -31.2978   21.3888 H   0  0  0  0  0  0
  -23.3750  -35.9585   23.3299 H   0  0  0  0  0  0
  -24.3539  -36.8879   22.2039 H   0  0  0  0  0  0
  -23.7228  -37.6460   23.6657 H   0  0  0  0  0  0
  -26.1058  -31.5322   20.6050 H   0  0  0  0  0  0
  -26.8534  -30.8330   22.0104 H   0  0  0  0  0  0
  -28.1329  -28.9464   21.2146 H   0  0  0  0  0  0
  -26.0169  -25.8946   19.0349 H   0  0  0  0  0  0
  -23.9919  -27.2900   19.0114 H   0  0  0  0  0  0
  -23.7812  -30.5814   19.4014 H   0  0  0  0  0  0
  -22.7754  -29.2360   19.8517 H   0  0  0  0  0  0
  -25.1287  -36.1908   25.0805 H   0  0  0  0  0  0
  -21.0013  -28.3338   24.1382 H   0  0  0  0  0  0
  -20.5685  -26.2338   23.3628 H   0  0  0  0  0  0
  -21.6641  -26.7488   22.1213 H   0  0  0  0  0  0
  -19.6885  -25.6320   21.1266 H   0  0  0  0  0  0
  -19.6689  -27.3225   20.6751 H   0  0  0  0  0  0
  -17.4203  -26.6747   21.4017 H   0  0  0  0  0  0
  -18.0299  -26.0133   22.9036 H   0  0  0  0  0  0
  -19.7958  -30.7314   24.2278 H   0  0  0  0  0  0
  -17.5035  -31.6301   24.5187 H   0  0  0  0  0  0
  -15.5373  -30.3027   23.7671 H   0  0  0  0  0  0
  -15.8670  -28.0860   22.7085 H   0  0  0  0  0  0
  -24.5909  -30.7110   25.7825 H   0  0  0  0  0  0
  -24.8947  -32.2972   26.4840 H   0  0  0  0  0  0
  -25.8076  -30.9014   27.0259 H   0  0  0  0  0  0
  -26.2878  -29.6775   24.1211 H   0  0  0  0  0  0
  -27.3946  -29.7237   25.4715 H   0  0  0  0  0  0
  -27.8790  -30.4205   23.9447 H   0  0  0  0  0  0
  -27.2665  -33.3638   26.2055 H   0  0  0  0  0  0
  -28.3910  -32.6891   25.0354 H   0  0  0  0  0  0
  -28.0706  -31.8471   26.5439 H   0  0  0  0  0  0
  -28.2611  -38.0077   24.7543 H   0  0  0  0  0  0
  -28.1081  -36.2620   24.6254 H   0  0  0  0  0  0
  -27.2300  -37.1419   25.8858 H   0  0  0  0  0  0
  -20.9378  -29.8773   21.6852 H   0  0  0  0  0  0
  -26.0154  -38.2839   24.1467 H   0  0  0  0  0  0
  -31.5646  -17.6672   19.8221 H   0  0  0  0  0  0
  -27.8157  -17.3225   21.8550 H   0  0  0  0  0  0
  -28.2891  -25.9636   22.0899 H   0  0  0  0  0  0
  -27.8283  -23.2367   22.9954 H   0  0  0  0  0  0
  -29.3097  -24.1207   23.3423 H   0  0  0  0  0  0
  -29.7518  -23.1213   19.5673 H   0  0  0  0  0  0
  -28.0606  -22.6323   19.7108 H   0  0  0  0  0  0
  -29.3252  -21.4058   23.2294 H   0  0  0  0  0  0
  -30.6846  -22.3151   22.5917 H   0  0  0  0  0  0
  -32.4200  -19.7485   19.1897 H   0  0  0  0  0  0
  -32.1860  -20.9381   20.4742 H   0  0  0  0  0  0
  -31.2880  -21.0815   18.9589 H   0  0  0  0  0  0
  -26.2559  -20.0791   23.8353 H   0  0  0  0  0  0
  -27.6598  -19.0172   23.9082 H   0  0  0  0  0  0
  -26.1957  -18.4982   23.0582 H   0  0  0  0  0  0
  -28.8717  -15.3675   21.2735 H   0  0  0  0  0  0
  -27.4632  -20.9639   22.0451 H   0  0  0  0  0  0
  1 25  1  0  0  0
  1 30  2  0  0  0
  1 85  1  0  0  0
  2  3  1  0  0  0
  2 25  1  0  0  0
  2 87  1  0  0  0
  2 88  1  0  0  0
  3  4  1  0  0  0
  3 89  1  0  0  0
  3 90  1  0  0  0
  4  5  1  0  0  0
  4 91  1  0  0  0
  4 92  1  0  0  0
  5  6  1  0  0  0
  5 26  1  0  0  0
  5 93  1  0  0  0
  6 25  1  0  0  0
  6 94  1  0  0  0
  6 95  1  0  0  0
  7  8  2  0  0  0
  7 26  1  0  0  0
  7 29  1  0  0  0
  8  9  1  0  0  0
  8 22  1  0  0  0
  9 10  1  0  0  0
  9 27  2  0  0  0
 10 11  2  0  0  0
 10 15  1  0  0  0
 11 12  1  0  0  0
 11 96  1  0  0  0
 12 13  2  0  0  0
 12 97  1  0  0  0
 13 14  1  0  0  0
 13 31  1  0  0  0
 14 15  2  0  0  0
 14 98  1  0  0  0
 15 99  1  0  0  0
 16 17  2  0  0  0
 16 21  1  0  0  0
 16 31  1  0  0  0
 17 18  1  0  0  0
 17100  1  0  0  0
 18 19  2  0  0  0
 18101  1  0  0  0
 19 20  1  0  0  0
 19 24  1  0  0  0
 20 21  2  0  0  0
 20102  1  0  0  0
 21 23  1  0  0  0
 22 28  1  0  0  0
 22 32  2  0  0  0
 26 27  1  0  0  0
 28103  1  0  0  0
 28104  1  0  0  0
 29105  1  0  0  0
 29106  1  0  0  0
 33 34  1  0  0  0
 33 66  1  0  0  0
 33 70  2  0  0  0
 34 36  1  0  0  0
 34 59  1  0  0  0
 34107  1  0  0  0
 35 44  2  0  0  0
 35 45  1  0  0  0
 35 68  1  0  0  0
 36 56  1  0  0  0
 36108  1  0  0  0
 37 39  1  0  0  0
 37 47  1  0  0  0
 37 66  1  0  0  0
 37109  1  0  0  0
 38 43  2  0  0  0
 38 46  1  0  0  0
 38 47  1  0  0  0
 39 64  1  0  0  0
 39 67  2  0  0  0
 40 52  1  0  0  0
 40 53  2  0  0  0
 40 58  1  0  0  0
 41110  1  0  0  0
 41111  1  0  0  0
 41112  1  0  0  0
 41 48  1  0  0  0
 42 43  1  0  0  0
 42 66  1  0  0  0
 42113  1  0  0  0
 42114  1  0  0  0
 43 44  1  0  0  0
 44115  1  0  0  0
 45 46  2  0  0  0
 45116  1  0  0  0
 46117  1  0  0  0
 47118  1  0  0  0
 47119  1  0  0  0
 48 56  1  0  0  0
 48 65  1  0  0  0
 48120  1  0  0  0
 49 50  1  0  0  0
 49 53  1  0  0  0
 49 64  1  0  0  0
 49121  1  0  0  0
 50 51  1  0  0  0
 50122  1  0  0  0
 50123  1  0  0  0
 51 52  1  0  0  0
 51124  1  0  0  0
 51125  1  0  0  0
 52126  1  0  0  0
 52127  1  0  0  0
 53 54  1  0  0  0
 54 55  2  0  0  0
 54128  1  0  0  0
 55 57  1  0  0  0
 55129  1  0  0  0
 56 69  2  0  0  0
 57 58  2  0  0  0
 57130  1  0  0  0
 58131  1  0  0  0
 59 60  1  0  0  0
 59 61  1  0  0  0
 59 62  1  0  0  0
 60132  1  0  0  0
 60133  1  0  0  0
 60134  1  0  0  0
 61135  1  0  0  0
 61136  1  0  0  0
 61137  1  0  0  0
 62138  1  0  0  0
 62139  1  0  0  0
 62140  1  0  0  0
 63 65  1  0  0  0
 63141  1  0  0  0
 63142  1  0  0  0
 63143  1  0  0  0
 64144  1  0  0  0
 65145  1  0  0  0
 68 78  1  0  0  0
 71 73  2  0  0  0
 71 75  1  0  0  0
 71146  1  0  0  0
 72 75  2  0  0  0
 72 76  1  0  0  0
 72147  1  0  0  0
 73 74  1  0  0  0
 73 82  1  0  0  0
 74 76  2  0  0  0
 74 84  1  0  0  0
 75 85  1  0  0  0
 76 86  1  0  0  0
 77 78  2  0  0  0
 77 79  1  0  0  0
 77 80  1  0  0  0
 78148  1  0  0  0
 79 81  1  0  0  0
 79149  1  0  0  0
 79150  1  0  0  0
 80 84  1  0  0  0
 80151  1  0  0  0
 80152  1  0  0  0
 81 84  1  0  0  0
 81153  1  0  0  0
 81154  1  0  0  0
 82155  1  0  0  0
 82156  1  0  0  0
 82157  1  0  0  0
 83 86  1  0  0  0
 83158  1  0  0  0
 83159  1  0  0  0
 83160  1  0  0  0
 85161  1  0  0  0
 86162  1  0  0  0
M  ISO  4   1 100  68 101  78 101  85 100
M  END
> <chiral flag>
0

> <version>
0

> <s_m_source_file>
/data/baiqing/PycharmProjects/Reinvent-master-3.2/result/LINK_invent/BTK/process_docking_weight1_custom_product_contain_oxygen_bond_distance_aromatic_linkinvent_7_9_3/rearranged_h_0144.sdf

> <i_m_source_file_index>
80

> <r_mmod_Potential_Energy-OPLS-2005>
260.388153076172

> <r_mmod_Stretch_Energy-OPLS-2005>
104.273651123047

> <r_mmod_Bend_Energy-OPLS-2005>
253.002212524414

> <r_mmod_Torsional_Energy-OPLS-2005>
273.807250976562

> <r_mmod_Improper_Torsional_Energy-OPLS-2005>
9.01570796966553

> <r_mmod_Van_der_Waal_Energy-OPLS-2005>
132.69612121582

> <r_mmod_Electrostatic_Energy-OPLS-2005>
-374.288940429688

> <r_mmod_Solvation_Energy-OPLS-2005>
-214.850601196289

> <b_mmod_Minimization_Converged-OPLS-2005>
0

> <r_mmod_RMS_Derivative-OPLS-2005>
2.17834639549255

$$$$
80
                    3D
 Structure written by MMmdl.
164172  0  0  1  0            999 V2000
  -30.7316  -14.3953   20.6532 C   0  0  0  0  0  0
  -30.4227  -12.2943   19.3930 C   0  0  0  0  0  0
  -29.4853  -12.5207   18.1910 C   0  0  0  0  0  0
  -28.0085  -12.3767   18.6082 C   0  0  0  0  0  0
  -27.6649  -13.1981   19.8787 C   0  0  2  0  0  0
  -28.7048  -12.9315   20.9895 C   0  0  0  0  0  0
  -25.2605  -13.8147   20.5663 C   0  0  0  0  0  0
  -24.1847  -13.0434   20.9170 C   0  0  0  0  0  0
  -24.6387  -11.6896   20.8733 C   0  0  0  0  0  0
  -23.9051  -10.4289   21.0406 C   0  0  0  0  0  0
  -24.3607   -9.4207   21.9185 C   0  0  0  0  0  0
  -23.6286   -8.2241   22.0754 C   0  0  0  0  0  0
  -22.4267   -8.0280   21.3544 C   0  0  0  0  0  0
  -21.9904   -9.0251   20.4643 C   0  0  0  0  0  0
  -22.7225  -10.2134   20.3052 C   0  0  0  0  0  0
  -21.6852   -6.0736   22.5279 C   0  0  0  0  0  0
  -21.4012   -6.5642   23.8212 C   0  0  0  0  0  0
  -21.3658   -5.6794   24.9176 C   0  0  0  0  0  0
  -21.6046   -4.3057   24.7224 C   0  0  0  0  0  0
  -21.8821   -3.8147   23.4344 C   0  0  0  0  0  0
  -21.9189   -4.6963   22.3401 C   0  0  0  0  0  0
  -22.7870  -13.5243   21.1835 C   0  0  0  0  0  0
  -22.1658   -4.2149   21.0980 F   0  0  0  0  0  0
  -21.5632   -3.4539   25.7738 F   0  0  0  0  0  0
  -30.0416  -13.2434   20.4480 N   0  0  0  0  0  0
  -26.3035  -12.9298   20.3367 N   0  0  0  0  0  0
  -25.9308  -11.6465   20.5751 N   0  0  0  0  0  0
  -22.0503  -12.8234   22.0389 N   0  0  0  0  0  0
  -25.4345  -15.1861   20.4056 N   0  0  0  0  0  0
  -31.8099  -14.6444   20.1033 O   0  0  0  0  0  0
  -21.6633   -6.8876   21.4239 O   0  0  0  0  0  0
  -22.3561  -14.5553   20.6687 O   0  0  0  0  0  0
  -24.6093  -31.8701   23.2105 C   0  0  0  0  0  0
  -25.9005  -32.4834   23.8391 C   0  0  1  0  0  0
  -27.2496  -27.4705   20.1145 C   0  0  0  0  0  0
  -25.5882  -33.8631   24.2337 N   0  0  0  0  0  0
  -23.3954  -30.4905   21.5498 C   0  0  2  0  0  0
  -24.8453  -28.9505   20.1254 C   0  0  0  0  0  0
  -22.7376  -29.4669   22.5013 C   0  0  0  0  0  0
  -18.0268  -28.1370   22.8502 C   0  0  0  0  0  0
  -24.1483  -36.7316   23.2636 C   0  0  0  0  0  0
  -25.9164  -30.8511   21.3533 C   0  0  0  0  0  0
  -25.9988  -29.4830   20.7133 C   0  0  0  0  0  0
  -27.2044  -28.7560   20.6952 C   0  0  0  0  0  0
  -26.0851  -26.9426   19.5210 C   0  0  0  0  0  0
  -24.8806  -27.6765   19.5270 C   0  0  0  0  0  0
  -23.6032  -29.8119   20.1682 C   0  0  0  0  0  0
  -25.4105  -36.3121   24.0342 C   0  0  1  0  0  0
  -20.5849  -28.3653   23.1336 C   0  0  2  0  0  0
  -20.6754  -26.9394   22.5426 C   0  0  0  0  0  0
  -19.5737  -26.6388   21.5213 C   0  0  0  0  0  0
  -18.1914  -26.7922   22.1623 C   0  0  0  0  0  0
  -19.1514  -28.8826   23.2920 C   0  0  0  0  0  0
  -18.9448  -30.1433   23.8929 C   0  0  0  0  0  0
  -17.6453  -30.6582   24.0573 C   0  0  0  0  0  0
  -25.9027  -34.9485   23.5137 C   0  0  0  0  0  0
  -16.5343  -29.9091   23.6320 C   0  0  0  0  0  0
  -16.7258  -28.6501   23.0349 C   0  0  0  0  0  0
  -26.4459  -31.6592   25.0695 C   0  0  0  0  0  0
  -25.3745  -31.3676   26.1454 C   0  0  0  0  0  0
  -27.0294  -30.3049   24.6018 C   0  0  0  0  0  0
  -27.6039  -32.4298   25.7463 C   0  0  0  0  0  0
  -27.5586  -37.1809   24.8459 C   0  0  0  0  0  0
  -21.4108  -29.3026   22.3745 N   0  0  0  0  0  0
  -26.4291  -37.3806   23.9414 N   0  0  0  0  0  0
  -24.6584  -31.0840   22.0980 N   0  0  0  0  0  0
  -23.4167  -28.8223   23.3048 O   0  0  0  0  0  0
  -28.4367  -26.7871   19.9953 O   0  0  0  0  0  0
  -26.5588  -34.8930   22.4698 O   0  0  0  0  0  0
  -23.5299  -32.1429   23.7534 O   0  0  0  0  0  0
  -32.2488  -18.1309   22.6222 C   0  0  0  0  0  0
  -31.2734  -19.1386   22.7646 C   0  0  0  0  0  0
  -31.8856  -16.8501   22.1644 C   0  0  0  0  0  0
  -29.5631  -17.5829   21.9854 C   0  0  0  0  0  0
  -29.9230  -18.8735   22.4375 C   0  0  0  0  0  0
  -30.5365  -16.5696   21.8439 C   0  0  0  0  0  0
  -28.8998  -19.9207   22.5717 C   0  0  0  0  0  0
  -28.3797  -22.3614   22.3112 C   0  0  0  0  0  0
  -28.9052  -26.8608   22.4543 C   0  0  0  0  0  0
  -30.4850  -25.9868   20.7119 C   0  0  0  0  0  0
  -29.1187  -23.6791   22.0730 C   0  0  0  0  0  0
  -28.3378  -24.6960   21.2070 C   0  0  0  0  0  0
  -29.0036  -26.0928   21.1163 C   0  0  0  0  0  0
  -30.1033  -15.2797   21.4433 N   0  0  0  0  0  0
  -29.2104  -21.1930   22.2443 N   0  0  0  0  0  0
  -27.6888  -19.5828   23.0296 N   0  3  0  0  0  0
  -27.1748  -22.3137   22.5850 O   0  0  0  0  0  0
  -31.4641  -12.4057   19.0863 H   0  0  0  0  0  0
  -30.3313  -11.2715   19.7615 H   0  0  0  0  0  0
  -29.7187  -11.8142   17.3935 H   0  0  0  0  0  0
  -29.6539  -13.5158   17.7760 H   0  0  0  0  0  0
  -27.8146  -11.3189   18.7879 H   0  0  0  0  0  0
  -27.3552  -12.6690   17.7851 H   0  0  0  0  0  0
  -27.7234  -14.2524   19.6067 H   0  0  0  0  0  0
  -28.6748  -11.8820   21.2867 H   0  0  0  0  0  0
  -28.4556  -13.4849   21.8955 H   0  0  0  0  0  0
  -25.2752   -9.5689   22.4759 H   0  0  0  0  0  0
  -23.9998   -7.4636   22.7475 H   0  0  0  0  0  0
  -21.0838   -8.8768   19.8945 H   0  0  0  0  0  0
  -22.3683  -10.9675   19.6162 H   0  0  0  0  0  0
  -21.2005   -7.6151   23.9717 H   0  0  0  0  0  0
  -21.1480   -6.0522   25.9079 H   0  0  0  0  0  0
  -22.0603   -2.7607   23.2845 H   0  0  0  0  0  0
  -22.4103  -11.9879   22.4760 H   0  0  0  0  0  0
  -21.1122  -13.1262   22.2592 H   0  0  0  0  0  0
  -24.6652  -15.8407   20.4986 H   0  0  0  0  0  0
  -26.2824  -15.6189   20.0620 H   0  0  0  0  0  0
  -26.7090  -32.5575   23.1176 H   0  0  0  0  0  0
  -25.0049  -33.9801   25.0492 H   0  0  0  0  0  0
  -22.6822  -31.3051   21.4072 H   0  0  0  0  0  0
  -23.3759  -35.9633   23.3296 H   0  0  0  0  0  0
  -24.3581  -36.8933   22.2053 H   0  0  0  0  0  0
  -23.7216  -37.6511   23.6653 H   0  0  0  0  0  0
  -26.0131  -31.6132   20.5788 H   0  0  0  0  0  0
  -26.8099  -30.9158   21.9623 H   0  0  0  0  0  0
  -28.1015  -29.1936   21.1076 H   0  0  0  0  0  0
  -26.1190  -25.9733   19.0435 H   0  0  0  0  0  0
  -23.9961  -27.2600   19.0660 H   0  0  0  0  0  0
  -23.7063  -30.5809   19.4019 H   0  0  0  0  0  0
  -22.7302  -29.2243   19.8784 H   0  0  0  0  0  0
  -25.1273  -36.1995   25.0836 H   0  0  0  0  0  0
  -20.9949  -28.3219   24.1455 H   0  0  0  0  0  0
  -20.5654  -26.2255   23.3605 H   0  0  0  0  0  0
  -21.6625  -26.7442   22.1221 H   0  0  0  0  0  0
  -19.6898  -25.6312   21.1212 H   0  0  0  0  0  0
  -19.6674  -27.3224   20.6764 H   0  0  0  0  0  0
  -17.4188  -26.6689   21.4021 H   0  0  0  0  0  0
  -18.0309  -26.0050   22.9004 H   0  0  0  0  0  0
  -19.7927  -30.7236   24.2312 H   0  0  0  0  0  0
  -17.5015  -31.6262   24.5175 H   0  0  0  0  0  0
  -15.5345  -30.3008   23.7616 H   0  0  0  0  0  0
  -15.8658  -28.0827   22.7052 H   0  0  0  0  0  0
  -24.5916  -30.7024   25.7791 H   0  0  0  0  0  0
  -24.8935  -32.2823   26.4925 H   0  0  0  0  0  0
  -25.8113  -30.8831   27.0192 H   0  0  0  0  0  0
  -26.2823  -29.6813   24.1090 H   0  0  0  0  0  0
  -27.4125  -29.7268   25.4433 H   0  0  0  0  0  0
  -27.8620  -30.4398   23.9110 H   0  0  0  0  0  0
  -27.2667  -33.3583   26.2085 H   0  0  0  0  0  0
  -28.3832  -32.6882   25.0281 H   0  0  0  0  0  0
  -28.0726  -31.8390   26.5343 H   0  0  0  0  0  0
  -28.2590  -38.0123   24.7554 H   0  0  0  0  0  0
  -28.1100  -36.2661   24.6233 H   0  0  0  0  0  0
  -27.2311  -37.1399   25.8862 H   0  0  0  0  0  0
  -20.9256  -29.8752   21.6979 H   0  0  0  0  0  0
  -26.0185  -38.2879   24.1447 H   0  0  0  0  0  0
  -33.2795  -18.3367   22.8761 H   0  0  0  0  0  0
  -31.5778  -20.1062   23.1396 H   0  0  0  0  0  0
  -32.6475  -16.0881   22.0837 H   0  0  0  0  0  0
  -28.5329  -17.3700   21.7338 H   0  0  0  0  0  0
  -29.4284  -26.3416   23.2566 H   0  0  0  0  0  0
  -27.8714  -26.9832   22.7786 H   0  0  0  0  0  0
  -29.3593  -27.8485   22.3849 H   0  0  0  0  0  0
  -31.0956  -25.5430   21.4986 H   0  0  0  0  0  0
  -30.9065  -26.9718   20.5068 H   0  0  0  0  0  0
  -30.6101  -25.3840   19.8118 H   0  0  0  0  0  0
  -30.0843  -23.4671   21.6142 H   0  0  0  0  0  0
  -29.3277  -24.0982   23.0562 H   0  0  0  0  0  0
  -27.3182  -24.8072   21.5793 H   0  0  0  0  0  0
  -28.2413  -24.2817   20.2022 H   0  0  0  0  0  0
  -29.1727  -15.0097   21.7217 H   0  0  0  0  0  0
  -30.1717  -21.2623   21.9504 H   0  0  0  0  0  0
  -27.5006  -18.6480   23.3554 H   0  0  0  0  0  0
  -26.9796  -20.3005   23.1107 H   0  0  0  0  0  0
  1 25  1  0  0  0
  1 30  2  0  0  0
  1 84  1  0  0  0
  2  3  1  0  0  0
  2 25  1  0  0  0
  2 88  1  0  0  0
  2 89  1  0  0  0
  3  4  1  0  0  0
  3 90  1  0  0  0
  3 91  1  0  0  0
  4  5  1  0  0  0
  4 92  1  0  0  0
  4 93  1  0  0  0
  5  6  1  0  0  0
  5 26  1  0  0  0
  5 94  1  0  0  0
  6 25  1  0  0  0
  6 95  1  0  0  0
  6 96  1  0  0  0
  7  8  2  0  0  0
  7 26  1  0  0  0
  7 29  1  0  0  0
  8  9  1  0  0  0
  8 22  1  0  0  0
  9 10  1  0  0  0
  9 27  2  0  0  0
 10 11  2  0  0  0
 10 15  1  0  0  0
 11 12  1  0  0  0
 11 97  1  0  0  0
 12 13  2  0  0  0
 12 98  1  0  0  0
 13 14  1  0  0  0
 13 31  1  0  0  0
 14 15  2  0  0  0
 14 99  1  0  0  0
 15100  1  0  0  0
 16 17  2  0  0  0
 16 21  1  0  0  0
 16 31  1  0  0  0
 17 18  1  0  0  0
 17101  1  0  0  0
 18 19  2  0  0  0
 18102  1  0  0  0
 19 20  1  0  0  0
 19 24  1  0  0  0
 20 21  2  0  0  0
 20103  1  0  0  0
 21 23  1  0  0  0
 22 28  1  0  0  0
 22 32  2  0  0  0
 26 27  1  0  0  0
 28104  1  0  0  0
 28105  1  0  0  0
 29106  1  0  0  0
 29107  1  0  0  0
 33 34  1  0  0  0
 33 66  1  0  0  0
 33 70  2  0  0  0
 34 36  1  0  0  0
 34 59  1  0  0  0
 34108  1  0  0  0
 35 44  2  0  0  0
 35 45  1  0  0  0
 35 68  1  0  0  0
 36 56  1  0  0  0
 36109  1  0  0  0
 37 39  1  0  0  0
 37 47  1  0  0  0
 37 66  1  0  0  0
 37110  1  0  0  0
 38 43  2  0  0  0
 38 46  1  0  0  0
 38 47  1  0  0  0
 39 64  1  0  0  0
 39 67  2  0  0  0
 40 52  1  0  0  0
 40 53  2  0  0  0
 40 58  1  0  0  0
 41111  1  0  0  0
 41112  1  0  0  0
 41113  1  0  0  0
 41 48  1  0  0  0
 42 43  1  0  0  0
 42 66  1  0  0  0
 42114  1  0  0  0
 42115  1  0  0  0
 43 44  1  0  0  0
 44116  1  0  0  0
 45 46  2  0  0  0
 45117  1  0  0  0
 46118  1  0  0  0
 47119  1  0  0  0
 47120  1  0  0  0
 48 56  1  0  0  0
 48 65  1  0  0  0
 48121  1  0  0  0
 49 50  1  0  0  0
 49 53  1  0  0  0
 49 64  1  0  0  0
 49122  1  0  0  0
 50 51  1  0  0  0
 50123  1  0  0  0
 50124  1  0  0  0
 51 52  1  0  0  0
 51125  1  0  0  0
 51126  1  0  0  0
 52127  1  0  0  0
 52128  1  0  0  0
 53 54  1  0  0  0
 54 55  2  0  0  0
 54129  1  0  0  0
 55 57  1  0  0  0
 55130  1  0  0  0
 56 69  2  0  0  0
 57 58  2  0  0  0
 57131  1  0  0  0
 58132  1  0  0  0
 59 60  1  0  0  0
 59 61  1  0  0  0
 59 62  1  0  0  0
 60133  1  0  0  0
 60134  1  0  0  0
 60135  1  0  0  0
 61136  1  0  0  0
 61137  1  0  0  0
 61138  1  0  0  0
 62139  1  0  0  0
 62140  1  0  0  0
 62141  1  0  0  0
 63 65  1  0  0  0
 63142  1  0  0  0
 63143  1  0  0  0
 63144  1  0  0  0
 64145  1  0  0  0
 65146  1  0  0  0
 68 83  1  0  0  0
 71 72  2  0  0  0
 71 73  1  0  0  0
 71147  1  0  0  0
 72 75  1  0  0  0
 72148  1  0  0  0
 73 76  2  0  0  0
 73149  1  0  0  0
 74 75  2  0  0  0
 74 76  1  0  0  0
 74150  1  0  0  0
 75 77  1  0  0  0
 76 84  1  0  0  0
 77 85  1  0  0  0
 77 86  2  0  0  0
 78 81  1  0  0  0
 78 85  1  0  0  0
 78 87  2  0  0  0
 79151  1  0  0  0
 79152  1  0  0  0
 79153  1  0  0  0
 79 83  1  0  0  0
 80 83  1  0  0  0
 80154  1  0  0  0
 80155  1  0  0  0
 80156  1  0  0  0
 81 82  1  0  0  0
 81157  1  0  0  0
 81158  1  0  0  0
 82 83  1  0  0  0
 82159  1  0  0  0
 82160  1  0  0  0
 84161  1  0  0  0
 85162  1  0  0  0
 86163  1  0  0  0
 86164  1  0  0  0
M  CHG  1  86   1
M  ISO  4   1 100  68 101  83 101  84 100
M  END
> <chiral flag>
0

> <version>
0

> <s_m_source_file>
/data/baiqing/PycharmProjects/Reinvent-master-3.2/result/LINK_invent/BTK/process_docking_weight1_custom_product_contain_oxygen_bond_distance_aromatic_linkinvent_7_9_3/rearranged_h_0144.sdf

> <i_m_source_file_index>
81

> <r_mmod_Potential_Energy-OPLS-2005>
-391.764892578125

> <r_mmod_Stretch_Energy-OPLS-2005>
34.075611114502

> <r_mmod_Bend_Energy-OPLS-2005>
116.463226318359

> <r_mmod_Torsional_Energy-OPLS-2005>
235.911117553711

> <r_mmod_Improper_Torsional_Energy-OPLS-2005>
3.1367883682251

> <r_mmod_Van_der_Waal_Energy-OPLS-2005>
168.985702514648

> <r_mmod_Electrostatic_Energy-OPLS-2005>
-509.43505859375

> <r_mmod_Solvation_Energy-OPLS-2005>
-447.787628173828

> <b_mmod_Minimization_Converged-OPLS-2005>
0

> <r_mmod_RMS_Derivative-OPLS-2005>
0.763381481170654

$$$$
81
                    3D
 Structure written by MMmdl.
172180  0  0  1  0            999 V2000
  -30.7226  -14.4333   20.6019 C   0  0  0  0  0  0
  -30.4252  -12.2960   19.4093 C   0  0  0  0  0  0
  -29.4916  -12.5016   18.1993 C   0  0  0  0  0  0
  -28.0127  -12.3736   18.6140 C   0  0  0  0  0  0
  -27.6655  -13.2054   19.8775 C   0  0  2  0  0  0
  -28.7076  -12.9668   20.9927 C   0  0  0  0  0  0
  -25.2607  -13.8164   20.5692 C   0  0  0  0  0  0
  -24.1854  -13.0446   20.9189 C   0  0  0  0  0  0
  -24.6405  -11.6904   20.8731 C   0  0  0  0  0  0
  -23.9066  -10.4291   21.0386 C   0  0  0  0  0  0
  -24.3607   -9.4210   21.9181 C   0  0  0  0  0  0
  -23.6282   -8.2249   22.0762 C   0  0  0  0  0  0
  -22.4269   -8.0281   21.3547 C   0  0  0  0  0  0
  -21.9911   -9.0250   20.4645 C   0  0  0  0  0  0
  -22.7234  -10.2125   20.3048 C   0  0  0  0  0  0
  -21.6854   -6.0734   22.5276 C   0  0  0  0  0  0
  -21.4010   -6.5637   23.8197 C   0  0  0  0  0  0
  -21.3659   -5.6786   24.9161 C   0  0  0  0  0  0
  -21.6046   -4.3055   24.7216 C   0  0  0  0  0  0
  -21.8818   -3.8149   23.4339 C   0  0  0  0  0  0
  -21.9193   -4.6967   22.3392 C   0  0  0  0  0  0
  -22.7869  -13.5244   21.1832 C   0  0  0  0  0  0
  -22.1663   -4.2147   21.0971 F   0  0  0  0  0  0
  -21.5631   -3.4542   25.7733 F   0  0  0  0  0  0
  -30.0415  -13.2677   20.4434 N   0  0  0  0  0  0
  -26.3052  -12.9333   20.3387 N   0  0  0  0  0  0
  -25.9334  -11.6492   20.5770 N   0  0  0  0  0  0
  -22.0489  -12.8234   22.0368 N   0  0  0  0  0  0
  -25.4337  -15.1879   20.4073 N   0  0  0  0  0  0
  -31.8306  -14.6310   20.0946 O   0  0  0  0  0  0
  -21.6637   -6.8876   21.4236 O   0  0  0  0  0  0
  -22.3558  -14.5553   20.6689 O   0  0  0  0  0  0
  -24.6054  -31.8696   23.2095 C   0  0  0  0  0  0
  -25.8969  -32.4847   23.8390 C   0  0  1  0  0  0
  -27.2801  -27.5030   20.1289 C   0  0  0  0  0  0
  -25.5852  -33.8639   24.2325 N   0  0  0  0  0  0
  -23.3916  -30.4876   21.5440 C   0  0  2  0  0  0
  -24.8463  -28.9583   20.1119 C   0  0  0  0  0  0
  -22.7358  -29.4649   22.4981 C   0  0  0  0  0  0
  -18.0259  -28.1364   22.8467 C   0  0  0  0  0  0
  -24.1497  -36.7328   23.2644 C   0  0  0  0  0  0
  -25.9031  -30.8710   21.3373 C   0  0  0  0  0  0
  -25.9912  -29.5061   20.6953 C   0  0  0  0  0  0
  -27.2039  -28.7984   20.6835 C   0  0  0  0  0  0
  -26.1175  -26.9673   19.5297 C   0  0  0  0  0  0
  -24.9028  -27.6855   19.5158 C   0  0  0  0  0  0
  -23.5989  -29.8085   20.1596 C   0  0  0  0  0  0
  -25.4107  -36.3113   24.0346 C   0  0  1  0  0  0
  -20.5840  -28.3633   23.1328 C   0  0  2  0  0  0
  -20.6745  -26.9380   22.5405 C   0  0  0  0  0  0
  -19.5744  -26.6372   21.5186 C   0  0  0  0  0  0
  -18.1910  -26.7908   22.1587 C   0  0  0  0  0  0
  -19.1512  -28.8812   23.2899 C   0  0  0  0  0  0
  -18.9460  -30.1415   23.8923 C   0  0  0  0  0  0
  -17.6475  -30.6572   24.0559 C   0  0  0  0  0  0
  -25.9017  -34.9485   23.5130 C   0  0  0  0  0  0
  -16.5351  -29.9089   23.6319 C   0  0  0  0  0  0
  -16.7252  -28.6510   23.0331 C   0  0  0  0  0  0
  -26.4433  -31.6617   25.0690 C   0  0  0  0  0  0
  -25.3738  -31.3692   26.1468 C   0  0  0  0  0  0
  -27.0277  -30.3110   24.5937 C   0  0  0  0  0  0
  -27.5979  -32.4336   25.7476 C   0  0  0  0  0  0
  -27.5575  -37.1822   24.8454 C   0  0  0  0  0  0
  -21.4089  -29.3031   22.3755 N   0  0  0  0  0  0
  -26.4293  -37.3792   23.9405 N   0  0  0  0  0  0
  -24.6517  -31.0887   22.0932 N   0  0  0  0  0  0
  -23.4162  -28.8191   23.2987 O   0  0  0  0  0  0
  -28.4140  -26.7116   20.1234 O   0  0  0  0  0  0
  -26.5575  -34.8930   22.4692 O   0  0  0  0  0  0
  -23.5266  -32.1375   23.7556 O   0  0  0  0  0  0
  -31.6090  -17.3322   21.2132 C   0  0  0  0  0  0
  -30.3811  -16.7166   21.3512 C   0  0  0  0  0  0
  -30.3576  -19.1877   21.6378 C   0  0  0  0  0  0
  -29.7634  -24.3997   21.5555 C   0  0  0  0  0  0
  -31.1579  -24.6587   23.7155 C   0  0  0  0  0  0
  -29.2799  -20.2935   24.2712 C   0  0  0  0  0  0
  -31.6278  -21.0248   23.8447 C   0  0  0  0  0  0
  -29.2726  -27.2738   22.4549 C   0  0  0  0  0  0
  -30.4396  -28.0562   20.3148 C   0  0  0  0  0  0
  -30.0522  -20.6421   21.8702 C   0  0  0  0  0  0
  -30.3936  -25.6366   20.8845 C   0  0  0  0  0  0
  -29.6861  -22.6114   23.4516 C   0  0  0  0  0  0
  -30.5330  -23.6857   22.6952 C   0  0  1  0  0  0
  -30.1732  -21.1415   23.3404 C   0  0  0  0  0  0
  -29.5714  -26.9545   20.9606 C   0  0  0  0  0  0
  -31.5800  -18.7218   21.3696 N   0  0  0  0  0  0
  -30.0512  -15.3999   21.2531 N   0  0  0  0  0  0
  -28.6951  -23.9528   21.1325 O   0  0  0  0  0  0
  -29.1499  -17.9066   21.7138 S   0  0  0  0  0  0
  -31.4683  -12.3976   19.1033 H   0  0  0  0  0  0
  -30.3304  -11.2818   19.7996 H   0  0  0  0  0  0
  -29.7208  -11.7713   17.4217 H   0  0  0  0  0  0
  -29.6670  -13.4847   17.7591 H   0  0  0  0  0  0
  -27.8127  -11.3176   18.7992 H   0  0  0  0  0  0
  -27.3651  -12.6632   17.7856 H   0  0  0  0  0  0
  -27.7154  -14.2567   19.5907 H   0  0  0  0  0  0
  -28.6822  -11.9256   21.3170 H   0  0  0  0  0  0
  -28.4701  -13.5490   21.8841 H   0  0  0  0  0  0
  -25.2734   -9.5699   22.4769 H   0  0  0  0  0  0
  -23.9986   -7.4646   22.7483 H   0  0  0  0  0  0
  -21.0846   -8.8754   19.8934 H   0  0  0  0  0  0
  -22.3686  -10.9665   19.6161 H   0  0  0  0  0  0
  -21.1995   -7.6138   23.9711 H   0  0  0  0  0  0
  -21.1486   -6.0516   25.9065 H   0  0  0  0  0  0
  -22.0604   -2.7614   23.2837 H   0  0  0  0  0  0
  -22.4087  -11.9887   22.4748 H   0  0  0  0  0  0
  -21.1095  -13.1262   22.2529 H   0  0  0  0  0  0
  -24.6675  -15.8449   20.5109 H   0  0  0  0  0  0
  -26.2827  -15.6251   20.0720 H   0  0  0  0  0  0
  -26.7069  -32.5616   23.1197 H   0  0  0  0  0  0
  -25.0047  -33.9800   25.0495 H   0  0  0  0  0  0
  -22.6774  -31.3000   21.3958 H   0  0  0  0  0  0
  -23.3755  -35.9662   23.3305 H   0  0  0  0  0  0
  -24.3579  -36.8940   22.2056 H   0  0  0  0  0  0
  -23.7274  -37.6544   23.6663 H   0  0  0  0  0  0
  -25.9767  -31.6331   20.5617 H   0  0  0  0  0  0
  -26.8039  -30.9512   21.9328 H   0  0  0  0  0  0
  -28.0604  -29.2946   21.1004 H   0  0  0  0  0  0
  -26.1571  -25.9842   19.0825 H   0  0  0  0  0  0
  -24.0240  -27.2493   19.0590 H   0  0  0  0  0  0
  -23.6937  -30.5763   19.3917 H   0  0  0  0  0  0
  -22.7309  -29.2124   19.8702 H   0  0  0  0  0  0
  -25.1292  -36.1968   25.0843 H   0  0  0  0  0  0
  -20.9919  -28.3189   24.1447 H   0  0  0  0  0  0
  -20.5615  -26.2249   23.3585 H   0  0  0  0  0  0
  -21.6635  -26.7393   22.1229 H   0  0  0  0  0  0
  -19.6928  -25.6282   21.1209 H   0  0  0  0  0  0
  -19.6724  -27.3179   20.6721 H   0  0  0  0  0  0
  -17.4188  -26.6659   21.3987 H   0  0  0  0  0  0
  -18.0312  -26.0021   22.8958 H   0  0  0  0  0  0
  -19.7944  -30.7196   24.2320 H   0  0  0  0  0  0
  -17.5042  -31.6263   24.5145 H   0  0  0  0  0  0
  -15.5371  -30.3024   23.7635 H   0  0  0  0  0  0
  -15.8633  -28.0858   22.7043 H   0  0  0  0  0  0
  -24.5896  -30.7036   25.7841 H   0  0  0  0  0  0
  -24.8950  -32.2856   26.4943 H   0  0  0  0  0  0
  -25.8125  -30.8871   27.0216 H   0  0  0  0  0  0
  -26.2796  -29.6912   24.0976 H   0  0  0  0  0  0
  -27.4149  -29.7269   25.4290 H   0  0  0  0  0  0
  -27.8554  -30.4536   23.8981 H   0  0  0  0  0  0
  -27.2550  -33.3604   26.2098 H   0  0  0  0  0  0
  -28.3800  -32.6970   25.0345 H   0  0  0  0  0  0
  -28.0643  -31.8452   26.5393 H   0  0  0  0  0  0
  -28.2573  -38.0130   24.7496 H   0  0  0  0  0  0
  -28.1101  -36.2662   24.6292 H   0  0  0  0  0  0
  -27.2293  -37.1484   25.8854 H   0  0  0  0  0  0
  -20.9219  -29.8809   21.7053 H   0  0  0  0  0  0
  -26.0189  -38.2872   24.1398 H   0  0  0  0  0  0
  -32.5615  -16.8673   21.0022 H   0  0  0  0  0  0
  -31.9190  -25.3031   23.2772 H   0  0  0  0  0  0
  -31.6520  -24.1078   24.5155 H   0  0  0  0  0  0
  -30.3969  -25.2841   24.1821 H   0  0  0  0  0  0
  -29.6002  -19.2511   24.3066 H   0  0  0  0  0  0
  -28.2379  -20.3049   23.9459 H   0  0  0  0  0  0
  -29.3047  -20.6608   25.2978 H   0  0  0  0  0  0
  -31.9432  -19.9836   23.9023 H   0  0  0  0  0  0
  -31.7424  -21.4531   24.8408 H   0  0  0  0  0  0
  -32.3331  -21.5309   23.1865 H   0  0  0  0  0  0
  -30.2030  -27.2986   23.0227 H   0  0  0  0  0  0
  -28.6200  -26.5279   22.9072 H   0  0  0  0  0  0
  -28.8160  -28.2377   22.6531 H   0  0  0  0  0  0
  -31.3892  -28.1682   20.8405 H   0  0  0  0  0  0
  -29.9730  -29.0378   20.3068 H   0  0  0  0  0  0
  -30.6721  -27.8102   19.2774 H   0  0  0  0  0  0
  -29.0414  -20.8287   21.5035 H   0  0  0  0  0  0
  -30.7032  -21.2303   21.2229 H   0  0  0  0  0  0
  -30.5718  -25.3869   19.8401 H   0  0  0  0  0  0
  -31.3831  -25.8020   21.3084 H   0  0  0  0  0  0
  -28.6370  -22.6497   23.1612 H   0  0  0  0  0  0
  -29.6480  -22.8810   24.5094 H   0  0  0  0  0  0
  -31.3617  -23.1890   22.1932 H   0  0  0  0  0  0
  -29.1294  -15.1430   21.5714 H   0  0  0  0  0  0
  1 25  1  0  0  0
  1 30  2  0  0  0
  1 87  1  0  0  0
  2  3  1  0  0  0
  2 25  1  0  0  0
  2 90  1  0  0  0
  2 91  1  0  0  0
  3  4  1  0  0  0
  3 92  1  0  0  0
  3 93  1  0  0  0
  4  5  1  0  0  0
  4 94  1  0  0  0
  4 95  1  0  0  0
  5  6  1  0  0  0
  5 26  1  0  0  0
  5 96  1  0  0  0
  6 25  1  0  0  0
  6 97  1  0  0  0
  6 98  1  0  0  0
  7  8  2  0  0  0
  7 26  1  0  0  0
  7 29  1  0  0  0
  8  9  1  0  0  0
  8 22  1  0  0  0
  9 10  1  0  0  0
  9 27  2  0  0  0
 10 11  2  0  0  0
 10 15  1  0  0  0
 11 12  1  0  0  0
 11 99  1  0  0  0
 12 13  2  0  0  0
 12100  1  0  0  0
 13 14  1  0  0  0
 13 31  1  0  0  0
 14 15  2  0  0  0
 14101  1  0  0  0
 15102  1  0  0  0
 16 17  2  0  0  0
 16 21  1  0  0  0
 16 31  1  0  0  0
 17 18  1  0  0  0
 17103  1  0  0  0
 18 19  2  0  0  0
 18104  1  0  0  0
 19 20  1  0  0  0
 19 24  1  0  0  0
 20 21  2  0  0  0
 20105  1  0  0  0
 21 23  1  0  0  0
 22 28  1  0  0  0
 22 32  2  0  0  0
 26 27  1  0  0  0
 28106  1  0  0  0
 28107  1  0  0  0
 29108  1  0  0  0
 29109  1  0  0  0
 33 34  1  0  0  0
 33 66  1  0  0  0
 33 70  2  0  0  0
 34 36  1  0  0  0
 34 59  1  0  0  0
 34110  1  0  0  0
 35 44  2  0  0  0
 35 45  1  0  0  0
 35 68  1  0  0  0
 36 56  1  0  0  0
 36111  1  0  0  0
 37 39  1  0  0  0
 37 47  1  0  0  0
 37 66  1  0  0  0
 37112  1  0  0  0
 38 43  2  0  0  0
 38 46  1  0  0  0
 38 47  1  0  0  0
 39 64  1  0  0  0
 39 67  2  0  0  0
 40 52  1  0  0  0
 40 53  2  0  0  0
 40 58  1  0  0  0
 41113  1  0  0  0
 41114  1  0  0  0
 41115  1  0  0  0
 41 48  1  0  0  0
 42 43  1  0  0  0
 42 66  1  0  0  0
 42116  1  0  0  0
 42117  1  0  0  0
 43 44  1  0  0  0
 44118  1  0  0  0
 45 46  2  0  0  0
 45119  1  0  0  0
 46120  1  0  0  0
 47121  1  0  0  0
 47122  1  0  0  0
 48 56  1  0  0  0
 48 65  1  0  0  0
 48123  1  0  0  0
 49 50  1  0  0  0
 49 53  1  0  0  0
 49 64  1  0  0  0
 49124  1  0  0  0
 50 51  1  0  0  0
 50125  1  0  0  0
 50126  1  0  0  0
 51 52  1  0  0  0
 51127  1  0  0  0
 51128  1  0  0  0
 52129  1  0  0  0
 52130  1  0  0  0
 53 54  1  0  0  0
 54 55  2  0  0  0
 54131  1  0  0  0
 55 57  1  0  0  0
 55132  1  0  0  0
 56 69  2  0  0  0
 57 58  2  0  0  0
 57133  1  0  0  0
 58134  1  0  0  0
 59 60  1  0  0  0
 59 61  1  0  0  0
 59 62  1  0  0  0
 60135  1  0  0  0
 60136  1  0  0  0
 60137  1  0  0  0
 61138  1  0  0  0
 61139  1  0  0  0
 61140  1  0  0  0
 62141  1  0  0  0
 62142  1  0  0  0
 62143  1  0  0  0
 63 65  1  0  0  0
 63144  1  0  0  0
 63145  1  0  0  0
 63146  1  0  0  0
 64147  1  0  0  0
 65148  1  0  0  0
 68 85  1  0  0  0
 71 72  2  0  0  0
 71 86  1  0  0  0
 71149  1  0  0  0
 72 87  1  0  0  0
 72 89  1  0  0  0
 73 80  1  0  0  0
 73 86  2  0  0  0
 73 89  1  0  0  0
 74 81  1  0  0  0
 74 83  1  0  0  0
 74 88  2  0  0  0
 75150  1  0  0  0
 75151  1  0  0  0
 75152  1  0  0  0
 75 83  1  0  0  0
 76153  1  0  0  0
 76154  1  0  0  0
 76155  1  0  0  0
 76 84  1  0  0  0
 77 84  1  0  0  0
 77156  1  0  0  0
 77157  1  0  0  0
 77158  1  0  0  0
 78159  1  0  0  0
 78160  1  0  0  0
 78161  1  0  0  0
 78 85  1  0  0  0
 79 85  1  0  0  0
 79162  1  0  0  0
 79163  1  0  0  0
 79164  1  0  0  0
 80 84  1  0  0  0
 80165  1  0  0  0
 80166  1  0  0  0
 81 85  1  0  0  0
 81167  1  0  0  0
 81168  1  0  0  0
 82 83  1  0  0  0
 82 84  1  0  0  0
 82169  1  0  0  0
 82170  1  0  0  0
 83171  1  0  0  0
 87172  1  0  0  0
M  ISO  4   1 100  68 101  85 101  87 100
M  END
> <chiral flag>
0

> <version>
0

> <s_m_source_file>
/data/baiqing/PycharmProjects/Reinvent-master-3.2/result/LINK_invent/BTK/process_docking_weight1_custom_product_contain_oxygen_bond_distance_aromatic_linkinvent_7_9_3/rearranged_h_0144.sdf

> <i_m_source_file_index>
82

> <r_mmod_Potential_Energy-OPLS-2005>
-48.4722099304199

> <r_mmod_Stretch_Energy-OPLS-2005>
39.4739990234375

> <r_mmod_Bend_Energy-OPLS-2005>
135.081512451172

> <r_mmod_Torsional_Energy-OPLS-2005>
188.152816772461

> <r_mmod_Improper_Torsional_Energy-OPLS-2005>
3.4580225944519

> <r_mmod_Van_der_Waal_Energy-OPLS-2005>
147.20295715332

> <r_mmod_Electrostatic_Energy-OPLS-2005>
-357.155426025391

> <r_mmod_Solvation_Energy-OPLS-2005>
-213.747970581055

> <b_mmod_Minimization_Converged-OPLS-2005>
0

> <r_mmod_RMS_Derivative-OPLS-2005>
2.83769083023071

$$$$
82
                    3D
 Structure written by MMmdl.
170179  0  0  1  0            999 V2000
  -30.7042  -14.4193   20.6288 C   0  0  0  0  0  0
  -30.4278  -12.2928   19.4100 C   0  0  0  0  0  0
  -29.4936  -12.5195   18.2028 C   0  0  0  0  0  0
  -28.0147  -12.3777   18.6125 C   0  0  0  0  0  0
  -27.6675  -13.1990   19.8821 C   0  0  2  0  0  0
  -28.7036  -12.9305   20.9973 C   0  0  0  0  0  0
  -25.2609  -13.8148   20.5662 C   0  0  0  0  0  0
  -24.1854  -13.0441   20.9182 C   0  0  0  0  0  0
  -24.6391  -11.6901   20.8734 C   0  0  0  0  0  0
  -23.9051  -10.4292   21.0404 C   0  0  0  0  0  0
  -24.3608   -9.4208   21.9181 C   0  0  0  0  0  0
  -23.6288   -8.2238   22.0751 C   0  0  0  0  0  0
  -22.4270   -8.0278   21.3538 C   0  0  0  0  0  0
  -21.9902   -9.0251   20.4641 C   0  0  0  0  0  0
  -22.7225  -10.2132   20.3053 C   0  0  0  0  0  0
  -21.6853   -6.0735   22.5278 C   0  0  0  0  0  0
  -21.4013   -6.5640   23.8211 C   0  0  0  0  0  0
  -21.3659   -5.6791   24.9174 C   0  0  0  0  0  0
  -21.6045   -4.3054   24.7225 C   0  0  0  0  0  0
  -21.8820   -3.8147   23.4344 C   0  0  0  0  0  0
  -21.9192   -4.6965   22.3401 C   0  0  0  0  0  0
  -22.7874  -13.5246   21.1848 C   0  0  0  0  0  0
  -22.1662   -4.2149   21.0979 F   0  0  0  0  0  0
  -21.5628   -3.4540   25.7738 F   0  0  0  0  0  0
  -30.0472  -13.2397   20.4683 N   0  0  0  0  0  0
  -26.3043  -12.9304   20.3365 N   0  0  0  0  0  0
  -25.9310  -11.6472   20.5747 N   0  0  0  0  0  0
  -22.0511  -12.8237   22.0400 N   0  0  0  0  0  0
  -25.4336  -15.1861   20.4032 N   0  0  0  0  0  0
  -31.7720  -14.6835   20.0651 O   0  0  0  0  0  0
  -21.6636   -6.8875   21.4238 O   0  0  0  0  0  0
  -22.3563  -14.5553   20.6697 O   0  0  0  0  0  0
  -24.6121  -31.8693   23.2112 C   0  0  0  0  0  0
  -25.9030  -32.4823   23.8410 C   0  0  1  0  0  0
  -27.2289  -27.4552   20.0935 C   0  0  0  0  0  0
  -25.5908  -33.8625   24.2345 N   0  0  0  0  0  0
  -23.3988  -30.4947   21.5511 C   0  0  2  0  0  0
  -24.8454  -28.9673   20.1095 C   0  0  0  0  0  0
  -22.7405  -29.4657   22.4983 C   0  0  0  0  0  0
  -18.0283  -28.1350   22.8473 C   0  0  0  0  0  0
  -24.1500  -36.7305   23.2637 C   0  0  0  0  0  0
  -25.9259  -30.8437   21.3595 C   0  0  0  0  0  0
  -26.0056  -29.4822   20.7030 C   0  0  0  0  0  0
  -27.2040  -28.7344   20.6881 C   0  0  0  0  0  0
  -26.0548  -26.9549   19.4864 C   0  0  0  0  0  0
  -24.8637  -27.7030   19.4969 C   0  0  0  0  0  0
  -23.6061  -29.8298   20.1644 C   0  0  0  0  0  0
  -25.4117  -36.3107   24.0341 C   0  0  1  0  0  0
  -20.5873  -28.3638   23.1307 C   0  0  2  0  0  0
  -20.6784  -26.9381   22.5399 C   0  0  0  0  0  0
  -19.5770  -26.6367   21.5187 C   0  0  0  0  0  0
  -18.1947  -26.7897   22.1598 C   0  0  0  0  0  0
  -19.1531  -28.8811   23.2887 C   0  0  0  0  0  0
  -18.9466  -30.1427   23.8889 C   0  0  0  0  0  0
  -17.6466  -30.6566   24.0551 C   0  0  0  0  0  0
  -25.9034  -34.9472   23.5132 C   0  0  0  0  0  0
  -16.5360  -29.9067   23.6313 C   0  0  0  0  0  0
  -16.7275  -28.6488   23.0323 C   0  0  0  0  0  0
  -26.4471  -31.6599   25.0716 C   0  0  0  0  0  0
  -25.3733  -31.3703   26.1468 C   0  0  0  0  0  0
  -27.0302  -30.3054   24.6048 C   0  0  0  0  0  0
  -27.6052  -32.4312   25.7473 C   0  0  0  0  0  0
  -27.5591  -37.1806   24.8471 C   0  0  0  0  0  0
  -21.4139  -29.3013   22.3719 N   0  0  0  0  0  0
  -26.4308  -37.3779   23.9404 N   0  0  0  0  0  0
  -24.6635  -31.0827   22.0993 N   0  0  0  0  0  0
  -23.4180  -28.8190   23.3009 O   0  0  0  0  0  0
  -28.3768  -26.6961   20.1418 O   0  0  0  0  0  0
  -26.5588  -34.8918   22.4684 O   0  0  0  0  0  0
  -23.5321  -32.1440   23.7529 O   0  0  0  0  0  0
  -27.9097  -18.2843   20.9999 C   0  0  0  0  0  0
  -28.7124  -19.1269   20.2061 C   0  0  0  0  0  0
  -28.3988  -17.0362   21.4274 C   0  0  0  0  0  0
  -30.5220  -17.4946   20.3213 C   0  0  0  0  0  0
  -30.0357  -18.7529   19.8808 C   0  0  0  0  0  0
  -29.6929  -16.6129   21.0584 C   0  0  0  0  0  0
  -30.9065  -23.2131   19.8321 C   0  0  0  0  0  0
  -30.4491  -24.3974   20.3004 C   0  0  0  0  0  0
  -30.8884  -19.5885   19.0139 C   0  0  0  0  0  0
  -31.9823  -23.1412   18.7803 C   0  0  0  0  0  0
  -30.4199  -21.8067   20.1448 C   0  0  0  0  0  0
  -31.9806  -21.7036   18.2689 C   0  0  0  0  0  0
  -29.9451  -25.7634   22.3290 C   0  0  0  0  0  0
  -28.8767  -23.5277   22.1533 C   0  0  0  0  0  0
  -28.1505  -25.3546   20.5975 C   0  0  0  0  0  0
  -29.3670  -24.7396   21.3302 C   0  0  0  0  0  0
  -31.0659  -20.9328   19.1377 N   0  0  0  0  0  0
  -30.0819  -15.2960   21.4327 N   0  0  0  0  0  0
  -31.5352  -18.9632   18.0310 N   0  3  0  0  0  0
  -31.4711  -12.4059   19.1081 H   0  0  0  0  0  0
  -30.3358  -11.2699   19.7779 H   0  0  0  0  0  0
  -29.7291  -11.8105   17.4079 H   0  0  0  0  0  0
  -29.6649  -13.5133   17.7863 H   0  0  0  0  0  0
  -27.8192  -11.3196   18.7913 H   0  0  0  0  0  0
  -27.3658  -12.6695   17.7858 H   0  0  0  0  0  0
  -27.7276  -14.2534   19.6116 H   0  0  0  0  0  0
  -28.6689  -11.8808   21.2940 H   0  0  0  0  0  0
  -28.4477  -13.4859   21.9004 H   0  0  0  0  0  0
  -25.2753   -9.5688   22.4749 H   0  0  0  0  0  0
  -24.0006   -7.4632   22.7466 H   0  0  0  0  0  0
  -21.0836   -8.8764   19.8943 H   0  0  0  0  0  0
  -22.3684  -10.9670   19.6163 H   0  0  0  0  0  0
  -21.2003   -7.6149   23.9717 H   0  0  0  0  0  0
  -21.1481   -6.0521   25.9077 H   0  0  0  0  0  0
  -22.0599   -2.7611   23.2845 H   0  0  0  0  0  0
  -22.4124  -11.9902   22.4793 H   0  0  0  0  0  0
  -21.1121  -13.1253   22.2592 H   0  0  0  0  0  0
  -24.6552  -15.8318   20.4778 H   0  0  0  0  0  0
  -26.2633  -15.6104   20.0098 H   0  0  0  0  0  0
  -26.7091  -32.5546   23.1169 H   0  0  0  0  0  0
  -25.0096  -33.9782   25.0515 H   0  0  0  0  0  0
  -22.6853  -31.3103   21.4139 H   0  0  0  0  0  0
  -23.3758  -35.9643   23.3319 H   0  0  0  0  0  0
  -24.3611  -36.8896   22.2049 H   0  0  0  0  0  0
  -23.7262  -37.6518   23.6638 H   0  0  0  0  0  0
  -26.0327  -31.6132   20.5945 H   0  0  0  0  0  0
  -26.8147  -30.8963   21.9767 H   0  0  0  0  0  0
  -28.0991  -29.1208   21.1555 H   0  0  0  0  0  0
  -26.0507  -25.9854   19.0087 H   0  0  0  0  0  0
  -23.9724  -27.3029   19.0330 H   0  0  0  0  0  0
  -23.7070  -30.6056   19.4048 H   0  0  0  0  0  0
  -22.7315  -29.2473   19.8705 H   0  0  0  0  0  0
  -25.1293  -36.1966   25.0837 H   0  0  0  0  0  0
  -20.9970  -28.3206   24.1426 H   0  0  0  0  0  0
  -20.5689  -26.2245   23.3576 H   0  0  0  0  0  0
  -21.6650  -26.7434   22.1191 H   0  0  0  0  0  0
  -19.6943  -25.6284   21.1208 H   0  0  0  0  0  0
  -19.6718  -27.3184   20.6717 H   0  0  0  0  0  0
  -17.4212  -26.6629   21.4003 H   0  0  0  0  0  0
  -18.0372  -26.0027   22.8988 H   0  0  0  0  0  0
  -19.7950  -30.7233   24.2259 H   0  0  0  0  0  0
  -17.5030  -31.6244   24.5154 H   0  0  0  0  0  0
  -15.5362  -30.2961   23.7648 H   0  0  0  0  0  0
  -15.8675  -28.0818   22.7012 H   0  0  0  0  0  0
  -24.5901  -30.7049   25.7818 H   0  0  0  0  0  0
  -24.8916  -32.2865   26.4901 H   0  0  0  0  0  0
  -25.8077  -30.8886   27.0234 H   0  0  0  0  0  0
  -26.2832  -29.6814   24.1117 H   0  0  0  0  0  0
  -27.4137  -29.7284   25.4470 H   0  0  0  0  0  0
  -27.8641  -30.4420   23.9150 H   0  0  0  0  0  0
  -27.2690  -33.3614   26.2073 H   0  0  0  0  0  0
  -28.3852  -32.6873   25.0288 H   0  0  0  0  0  0
  -28.0728  -31.8411   26.5368 H   0  0  0  0  0  0
  -28.2604  -38.0102   24.7511 H   0  0  0  0  0  0
  -28.1091  -36.2629   24.6313 H   0  0  0  0  0  0
  -27.2307  -37.1476   25.8876 H   0  0  0  0  0  0
  -20.9292  -29.8735   21.6948 H   0  0  0  0  0  0
  -26.0197  -38.2861   24.1396 H   0  0  0  0  0  0
  -26.9014  -18.5781   21.2555 H   0  0  0  0  0  0
  -28.2822  -20.0416   19.8300 H   0  0  0  0  0  0
  -27.7515  -16.3920   22.0064 H   0  0  0  0  0  0
  -31.5288  -17.1983   20.0625 H   0  0  0  0  0  0
  -30.9262  -25.2791   19.8938 H   0  0  0  0  0  0
  -32.9461  -23.3962   19.2212 H   0  0  0  0  0  0
  -31.7831  -23.8483   17.9741 H   0  0  0  0  0  0
  -29.3394  -21.7901   20.0337 H   0  0  0  0  0  0
  -30.6957  -21.5116   21.1580 H   0  0  0  0  0  0
  -32.9905  -21.2908   18.2971 H   0  0  0  0  0  0
  -31.6295  -21.6703   17.2359 H   0  0  0  0  0  0
  -30.7556  -25.3328   22.9183 H   0  0  0  0  0  0
  -29.1840  -26.1156   23.0268 H   0  0  0  0  0  0
  -30.3416  -26.6456   21.8245 H   0  0  0  0  0  0
  -29.7008  -22.9898   22.6225 H   0  0  0  0  0  0
  -28.2883  -22.8286   21.5593 H   0  0  0  0  0  0
  -28.2181  -23.8487   22.9629 H   0  0  0  0  0  0
  -27.3006  -25.3423   21.2857 H   0  0  0  0  0  0
  -27.8707  -24.7244   19.7510 H   0  0  0  0  0  0
  -29.4100  -14.8332   22.0259 H   0  0  0  0  0  0
  -31.3626  -17.9806   17.8847 H   0  0  0  0  0  0
  -32.1201  -19.4499   17.3749 H   0  0  0  0  0  0
  1 25  1  0  0  0
  1 30  2  0  0  0
  1 88  1  0  0  0
  2  3  1  0  0  0
  2 25  1  0  0  0
  2 90  1  0  0  0
  2 91  1  0  0  0
  3  4  1  0  0  0
  3 92  1  0  0  0
  3 93  1  0  0  0
  4  5  1  0  0  0
  4 94  1  0  0  0
  4 95  1  0  0  0
  5  6  1  0  0  0
  5 26  1  0  0  0
  5 96  1  0  0  0
  6 25  1  0  0  0
  6 97  1  0  0  0
  6 98  1  0  0  0
  7  8  2  0  0  0
  7 26  1  0  0  0
  7 29  1  0  0  0
  8  9  1  0  0  0
  8 22  1  0  0  0
  9 10  1  0  0  0
  9 27  2  0  0  0
 10 11  2  0  0  0
 10 15  1  0  0  0
 11 12  1  0  0  0
 11 99  1  0  0  0
 12 13  2  0  0  0
 12100  1  0  0  0
 13 14  1  0  0  0
 13 31  1  0  0  0
 14 15  2  0  0  0
 14101  1  0  0  0
 15102  1  0  0  0
 16 17  2  0  0  0
 16 21  1  0  0  0
 16 31  1  0  0  0
 17 18  1  0  0  0
 17103  1  0  0  0
 18 19  2  0  0  0
 18104  1  0  0  0
 19 20  1  0  0  0
 19 24  1  0  0  0
 20 21  2  0  0  0
 20105  1  0  0  0
 21 23  1  0  0  0
 22 28  1  0  0  0
 22 32  2  0  0  0
 26 27  1  0  0  0
 28106  1  0  0  0
 28107  1  0  0  0
 29108  1  0  0  0
 29109  1  0  0  0
 33 34  1  0  0  0
 33 66  1  0  0  0
 33 70  2  0  0  0
 34 36  1  0  0  0
 34 59  1  0  0  0
 34110  1  0  0  0
 35 44  2  0  0  0
 35 45  1  0  0  0
 35 68  1  0  0  0
 36 56  1  0  0  0
 36111  1  0  0  0
 37 39  1  0  0  0
 37 47  1  0  0  0
 37 66  1  0  0  0
 37112  1  0  0  0
 38 43  2  0  0  0
 38 46  1  0  0  0
 38 47  1  0  0  0
 39 64  1  0  0  0
 39 67  2  0  0  0
 40 52  1  0  0  0
 40 53  2  0  0  0
 40 58  1  0  0  0
 41113  1  0  0  0
 41114  1  0  0  0
 41115  1  0  0  0
 41 48  1  0  0  0
 42 43  1  0  0  0
 42 66  1  0  0  0
 42116  1  0  0  0
 42117  1  0  0  0
 43 44  1  0  0  0
 44118  1  0  0  0
 45 46  2  0  0  0
 45119  1  0  0  0
 46120  1  0  0  0
 47121  1  0  0  0
 47122  1  0  0  0
 48 56  1  0  0  0
 48 65  1  0  0  0
 48123  1  0  0  0
 49 50  1  0  0  0
 49 53  1  0  0  0
 49 64  1  0  0  0
 49124  1  0  0  0
 50 51  1  0  0  0
 50125  1  0  0  0
 50126  1  0  0  0
 51 52  1  0  0  0
 51127  1  0  0  0
 51128  1  0  0  0
 52129  1  0  0  0
 52130  1  0  0  0
 53 54  1  0  0  0
 54 55  2  0  0  0
 54131  1  0  0  0
 55 57  1  0  0  0
 55132  1  0  0  0
 56 69  2  0  0  0
 57 58  2  0  0  0
 57133  1  0  0  0
 58134  1  0  0  0
 59 60  1  0  0  0
 59 61  1  0  0  0
 59 62  1  0  0  0
 60135  1  0  0  0
 60136  1  0  0  0
 60137  1  0  0  0
 61138  1  0  0  0
 61139  1  0  0  0
 61140  1  0  0  0
 62141  1  0  0  0
 62142  1  0  0  0
 62143  1  0  0  0
 63 65  1  0  0  0
 63144  1  0  0  0
 63145  1  0  0  0
 63146  1  0  0  0
 64147  1  0  0  0
 65148  1  0  0  0
 68 85  1  0  0  0
 71 72  2  0  0  0
 71 73  1  0  0  0
 71149  1  0  0  0
 72 75  1  0  0  0
 72150  1  0  0  0
 73 76  2  0  0  0
 73151  1  0  0  0
 74 75  2  0  0  0
 74 76  1  0  0  0
 74152  1  0  0  0
 75 79  1  0  0  0
 76 88  1  0  0  0
 77 78  2  0  0  0
 77 80  1  0  0  0
 77 81  1  0  0  0
 78 86  1  0  0  0
 78153  1  0  0  0
 79 87  1  0  0  0
 79 89  2  0  0  0
 80 82  1  0  0  0
 80154  1  0  0  0
 80155  1  0  0  0
 81 87  1  0  0  0
 81156  1  0  0  0
 81157  1  0  0  0
 82 87  1  0  0  0
 82158  1  0  0  0
 82159  1  0  0  0
 83160  1  0  0  0
 83161  1  0  0  0
 83162  1  0  0  0
 83 86  1  0  0  0
 84 86  1  0  0  0
 84163  1  0  0  0
 84164  1  0  0  0
 84165  1  0  0  0
 85 86  1  0  0  0
 85166  1  0  0  0
 85167  1  0  0  0
 88168  1  0  0  0
 89169  1  0  0  0
 89170  1  0  0  0
M  CHG  1  89   1
M  ISO  4   1 100  68 101  85 101  88 100
M  END
> <chiral flag>
0

> <version>
0

> <s_m_source_file>
/data/baiqing/PycharmProjects/Reinvent-master-3.2/result/LINK_invent/BTK/process_docking_weight1_custom_product_contain_oxygen_bond_distance_aromatic_linkinvent_7_9_3/rearranged_h_0144.sdf

> <i_m_source_file_index>
83

> <r_mmod_Potential_Energy-OPLS-2005>
-191.093002319336

> <r_mmod_Stretch_Energy-OPLS-2005>
37.7394828796387

> <r_mmod_Bend_Energy-OPLS-2005>
127.964340209961

> <r_mmod_Torsional_Energy-OPLS-2005>
263.838226318359

> <r_mmod_Improper_Torsional_Energy-OPLS-2005>
6.1274995803833

> <r_mmod_Van_der_Waal_Energy-OPLS-2005>
163.354293823242

> <r_mmod_Electrostatic_Energy-OPLS-2005>
-408.773712158203

> <r_mmod_Solvation_Energy-OPLS-2005>
-391.153198242188

> <b_mmod_Minimization_Converged-OPLS-2005>
0

> <r_mmod_RMS_Derivative-OPLS-2005>
1.66643261909485

$$$$
83
                    3D
 Structure written by MMmdl.
169178  0  0  1  0            999 V2000
  -30.7169  -14.4306   20.5604 C   0  0  0  0  0  0
  -30.4174  -12.2770   19.4189 C   0  0  0  0  0  0
  -29.4925  -12.5005   18.2048 C   0  0  0  0  0  0
  -28.0127  -12.3688   18.6158 C   0  0  0  0  0  0
  -27.6636  -13.2040   19.8766 C   0  0  2  0  0  0
  -28.7046  -12.9748   20.9969 C   0  0  0  0  0  0
  -25.2592  -13.8151   20.5676 C   0  0  0  0  0  0
  -24.1843  -13.0436   20.9177 C   0  0  0  0  0  0
  -24.6392  -11.6902   20.8734 C   0  0  0  0  0  0
  -23.9057  -10.4289   21.0400 C   0  0  0  0  0  0
  -24.3611   -9.4207   21.9180 C   0  0  0  0  0  0
  -23.6288   -8.2242   22.0751 C   0  0  0  0  0  0
  -22.4271   -8.0277   21.3542 C   0  0  0  0  0  0
  -21.9904   -9.0250   20.4645 C   0  0  0  0  0  0
  -22.7229  -10.2129   20.3050 C   0  0  0  0  0  0
  -21.6850   -6.0732   22.5279 C   0  0  0  0  0  0
  -21.4009   -6.5638   23.8212 C   0  0  0  0  0  0
  -21.3659   -5.6791   24.9173 C   0  0  0  0  0  0
  -21.6046   -4.3053   24.7224 C   0  0  0  0  0  0
  -21.8821   -3.8144   23.4347 C   0  0  0  0  0  0
  -21.9194   -4.6961   22.3404 C   0  0  0  0  0  0
  -22.7867  -13.5238   21.1841 C   0  0  0  0  0  0
  -22.1665   -4.2146   21.0981 F   0  0  0  0  0  0
  -21.5631   -3.4537   25.7738 F   0  0  0  0  0  0
  -30.0411  -13.2582   20.4464 N   0  0  0  0  0  0
  -26.3033  -12.9322   20.3370 N   0  0  0  0  0  0
  -25.9319  -11.6485   20.5767 N   0  0  0  0  0  0
  -22.0502  -12.8232   22.0395 N   0  0  0  0  0  0
  -25.4312  -15.1865   20.4075 N   0  0  0  0  0  0
  -31.8570  -14.5936   20.1151 O   0  0  0  0  0  0
  -21.6638   -6.8873   21.4238 O   0  0  0  0  0  0
  -22.3558  -14.5550   20.6694 O   0  0  0  0  0  0
  -24.6114  -31.8697   23.2118 C   0  0  0  0  0  0
  -25.9023  -32.4828   23.8403 C   0  0  1  0  0  0
  -27.2355  -27.4690   20.0977 C   0  0  0  0  0  0
  -25.5899  -33.8626   24.2343 N   0  0  0  0  0  0
  -23.3978  -30.4926   21.5511 C   0  0  2  0  0  0
  -24.8457  -28.9624   20.1135 C   0  0  0  0  0  0
  -22.7394  -29.4665   22.5005 C   0  0  0  0  0  0
  -18.0266  -28.1375   22.8488 C   0  0  0  0  0  0
  -24.1484  -36.7315   23.2639 C   0  0  0  0  0  0
  -25.9223  -30.8479   21.3582 C   0  0  0  0  0  0
  -26.0026  -29.4851   20.7061 C   0  0  0  0  0  0
  -27.2043  -28.7467   20.6921 C   0  0  0  0  0  0
  -26.0683  -26.9521   19.4975 C   0  0  0  0  0  0
  -24.8719  -27.6940   19.5052 C   0  0  0  0  0  0
  -23.6044  -29.8233   20.1653 C   0  0  0  0  0  0
  -25.4104  -36.3116   24.0342 C   0  0  1  0  0  0
  -20.5853  -28.3654   23.1329 C   0  0  2  0  0  0
  -20.6757  -26.9395   22.5424 C   0  0  0  0  0  0
  -19.5745  -26.6384   21.5210 C   0  0  0  0  0  0
  -18.1917  -26.7924   22.1610 C   0  0  0  0  0  0
  -19.1514  -28.8830   23.2905 C   0  0  0  0  0  0
  -18.9444  -30.1437   23.8916 C   0  0  0  0  0  0
  -17.6450  -30.6583   24.0562 C   0  0  0  0  0  0
  -25.9031  -34.9479   23.5137 C   0  0  0  0  0  0
  -16.5339  -29.9085   23.6328 C   0  0  0  0  0  0
  -16.7255  -28.6502   23.0348 C   0  0  0  0  0  0
  -26.4470  -31.6589   25.0713 C   0  0  0  0  0  0
  -25.3752  -31.3677   26.1472 C   0  0  0  0  0  0
  -27.0293  -30.3038   24.6053 C   0  0  0  0  0  0
  -27.6058  -32.4296   25.7473 C   0  0  0  0  0  0
  -27.5580  -37.1811   24.8464 C   0  0  0  0  0  0
  -21.4125  -29.3024   22.3742 N   0  0  0  0  0  0
  -26.4291  -37.3798   23.9412 N   0  0  0  0  0  0
  -24.6618  -31.0833   22.0995 N   0  0  0  0  0  0
  -23.4181  -28.8215   23.3039 O   0  0  0  0  0  0
  -28.3933  -26.7319   20.1028 O   0  0  0  0  0  0
  -26.5586  -34.8926   22.4694 O   0  0  0  0  0  0
  -23.5318  -32.1433   23.7538 O   0  0  0  0  0  0
  -31.4971  -18.7695   20.1142 C   0  0  0  0  0  0
  -29.1852  -18.6776   19.3556 C   0  0  0  0  0  0
  -31.3555  -17.4965   20.7019 C   0  0  0  0  0  0
  -29.0402  -17.4079   19.9502 C   0  0  0  0  0  0
  -30.4244  -19.3559   19.4069 C   0  0  0  0  0  0
  -30.1380  -16.7885   20.5826 C   0  0  0  0  0  0
  -29.2547  -23.1951   21.2256 C   0  0  0  0  0  0
  -28.9044  -24.1269   18.9485 C   0  0  0  0  0  0
  -30.1515  -22.0957   20.6237 C   0  0  0  0  0  0
  -29.8106  -23.0227   18.3737 C   0  0  0  0  0  0
  -29.2853  -24.4939   20.3933 C   0  0  1  0  0  0
  -30.4270  -20.4168   17.1381 C   0  0  0  0  0  0
  -28.7639  -26.0602   22.3713 C   0  0  0  0  0  0
  -30.6326  -20.6706   18.6486 C   0  0  1  0  0  0
  -28.3538  -25.5901   20.9641 C   0  0  1  0  0  0
  -29.9986  -15.4551   21.0498 N   0  0  0  0  0  0
  -29.8022  -21.7853   19.2077 N   0  3  1  0  0  0
  -31.4632  -12.3610   19.1186 H   0  0  0  0  0  0
  -30.3023  -11.2642   19.8085 H   0  0  0  0  0  0
  -29.7250  -11.7834   17.4165 H   0  0  0  0  0  0
  -29.6700  -13.4897   17.7797 H   0  0  0  0  0  0
  -27.8149  -11.3131   18.8046 H   0  0  0  0  0  0
  -27.3646  -12.6533   17.7863 H   0  0  0  0  0  0
  -27.7106  -14.2527   19.5829 H   0  0  0  0  0  0
  -28.6683  -11.9402   21.3417 H   0  0  0  0  0  0
  -28.4757  -13.5803   21.8749 H   0  0  0  0  0  0
  -25.2755   -9.5687   22.4756 H   0  0  0  0  0  0
  -24.0000   -7.4633   22.7469 H   0  0  0  0  0  0
  -21.0837   -8.8766   19.8952 H   0  0  0  0  0  0
  -22.3686  -10.9668   19.6160 H   0  0  0  0  0  0
  -21.1994   -7.6147   23.9714 H   0  0  0  0  0  0
  -21.1481   -6.0520   25.9077 H   0  0  0  0  0  0
  -22.0600   -2.7606   23.2845 H   0  0  0  0  0  0
  -22.4105  -11.9885   22.4777 H   0  0  0  0  0  0
  -21.1123  -13.1266   22.2605 H   0  0  0  0  0  0
  -24.6618  -15.8398   20.5071 H   0  0  0  0  0  0
  -26.2791  -15.6218   20.0707 H   0  0  0  0  0  0
  -26.7098  -32.5558   23.1178 H   0  0  0  0  0  0
  -25.0072  -33.9790   25.0504 H   0  0  0  0  0  0
  -22.6846  -31.3080   21.4132 H   0  0  0  0  0  0
  -23.3744  -35.9650   23.3310 H   0  0  0  0  0  0
  -24.3581  -36.8917   22.2051 H   0  0  0  0  0  0
  -23.7235  -37.6524   23.6642 H   0  0  0  0  0  0
  -26.0281  -31.6158   20.5905 H   0  0  0  0  0  0
  -26.8122  -30.9021   21.9734 H   0  0  0  0  0  0
  -28.0996  -29.1442   21.1495 H   0  0  0  0  0  0
  -26.0876  -25.9781   19.0287 H   0  0  0  0  0  0
  -23.9831  -27.2864   19.0433 H   0  0  0  0  0  0
  -23.7068  -30.5973   19.4038 H   0  0  0  0  0  0
  -22.7302  -29.2385   19.8732 H   0  0  0  0  0  0
  -25.1280  -36.1985   25.0835 H   0  0  0  0  0  0
  -20.9938  -28.3213   24.1450 H   0  0  0  0  0  0
  -20.5653  -26.2261   23.3602 H   0  0  0  0  0  0
  -21.6630  -26.7443   22.1219 H   0  0  0  0  0  0
  -19.6907  -25.6298   21.1232 H   0  0  0  0  0  0
  -19.6697  -27.3200   20.6745 H   0  0  0  0  0  0
  -17.4196  -26.6680   21.4001 H   0  0  0  0  0  0
  -18.0309  -26.0058   22.8994 H   0  0  0  0  0  0
  -19.7924  -30.7241   24.2296 H   0  0  0  0  0  0
  -17.5010  -31.6266   24.5154 H   0  0  0  0  0  0
  -15.5343  -30.2993   23.7648 H   0  0  0  0  0  0
  -15.8651  -28.0831   22.7056 H   0  0  0  0  0  0
  -24.5936  -30.7007   25.7814 H   0  0  0  0  0  0
  -24.8929  -32.2822   26.4934 H   0  0  0  0  0  0
  -25.8127  -30.8847   27.0219 H   0  0  0  0  0  0
  -26.2819  -29.6800   24.1134 H   0  0  0  0  0  0
  -27.4110  -29.7266   25.4485 H   0  0  0  0  0  0
  -27.8633  -30.4366   23.9157 H   0  0  0  0  0  0
  -27.2686  -33.3578   26.2098 H   0  0  0  0  0  0
  -28.3846  -32.6879   25.0286 H   0  0  0  0  0  0
  -28.0749  -31.8387   26.5349 H   0  0  0  0  0  0
  -28.2607  -38.0101   24.7510 H   0  0  0  0  0  0
  -28.1068  -36.2635   24.6288 H   0  0  0  0  0  0
  -27.2303  -37.1457   25.8868 H   0  0  0  0  0  0
  -20.9281  -29.8741   21.6964 H   0  0  0  0  0  0
  -26.0185  -38.2879   24.1410 H   0  0  0  0  0  0
  -32.4534  -19.2710   20.1741 H   0  0  0  0  0  0
  -28.3464  -19.1036   18.8233 H   0  0  0  0  0  0
  -32.2028  -17.0482   21.2022 H   0  0  0  0  0  0
  -28.0950  -16.8923   19.8618 H   0  0  0  0  0  0
  -29.5903  -23.3861   22.2445 H   0  0  0  0  0  0
  -28.2304  -22.8286   21.3087 H   0  0  0  0  0  0
  -27.8621  -23.8072   18.9066 H   0  0  0  0  0  0
  -28.9738  -25.0065   18.3074 H   0  0  0  0  0  0
  -30.0615  -21.2032   21.2435 H   0  0  0  0  0  0
  -31.1966  -22.4052   20.6806 H   0  0  0  0  0  0
  -30.8332  -23.3911   18.2762 H   0  0  0  0  0  0
  -29.4525  -22.8127   17.3666 H   0  0  0  0  0  0
  -30.3053  -24.8828   20.3907 H   0  0  0  0  0  0
  -31.0110  -19.5540   16.8167 H   0  0  0  0  0  0
  -30.7643  -21.2518   16.5251 H   0  0  0  0  0  0
  -29.3847  -20.2123   16.8943 H   0  0  0  0  0  0
  -28.6974  -25.2574   23.1042 H   0  0  0  0  0  0
  -28.1130  -26.8586   22.7276 H   0  0  0  0  0  0
  -29.7858  -26.4394   22.3794 H   0  0  0  0  0  0
  -31.6776  -20.9630   18.7708 H   0  0  0  0  0  0
  -27.3440  -25.1786   21.0212 H   0  0  0  0  0  0
  -29.0782  -15.1883   21.3644 H   0  0  0  0  0  0
  -28.8518  -21.4486   19.2123 H   0  0  0  0  0  0
  1 25  1  0  0  0
  1 30  2  0  0  0
  1 86  1  0  0  0
  2  3  1  0  0  0
  2 25  1  0  0  0
  2 88  1  0  0  0
  2 89  1  0  0  0
  3  4  1  0  0  0
  3 90  1  0  0  0
  3 91  1  0  0  0
  4  5  1  0  0  0
  4 92  1  0  0  0
  4 93  1  0  0  0
  5  6  1  0  0  0
  5 26  1  0  0  0
  5 94  1  0  0  0
  6 25  1  0  0  0
  6 95  1  0  0  0
  6 96  1  0  0  0
  7  8  2  0  0  0
  7 26  1  0  0  0
  7 29  1  0  0  0
  8  9  1  0  0  0
  8 22  1  0  0  0
  9 10  1  0  0  0
  9 27  2  0  0  0
 10 11  2  0  0  0
 10 15  1  0  0  0
 11 12  1  0  0  0
 11 97  1  0  0  0
 12 13  2  0  0  0
 12 98  1  0  0  0
 13 14  1  0  0  0
 13 31  1  0  0  0
 14 15  2  0  0  0
 14 99  1  0  0  0
 15100  1  0  0  0
 16 17  2  0  0  0
 16 21  1  0  0  0
 16 31  1  0  0  0
 17 18  1  0  0  0
 17101  1  0  0  0
 18 19  2  0  0  0
 18102  1  0  0  0
 19 20  1  0  0  0
 19 24  1  0  0  0
 20 21  2  0  0  0
 20103  1  0  0  0
 21 23  1  0  0  0
 22 28  1  0  0  0
 22 32  2  0  0  0
 26 27  1  0  0  0
 28104  1  0  0  0
 28105  1  0  0  0
 29106  1  0  0  0
 29107  1  0  0  0
 33 34  1  0  0  0
 33 66  1  0  0  0
 33 70  2  0  0  0
 34 36  1  0  0  0
 34 59  1  0  0  0
 34108  1  0  0  0
 35 44  2  0  0  0
 35 45  1  0  0  0
 35 68  1  0  0  0
 36 56  1  0  0  0
 36109  1  0  0  0
 37 39  1  0  0  0
 37 47  1  0  0  0
 37 66  1  0  0  0
 37110  1  0  0  0
 38 43  2  0  0  0
 38 46  1  0  0  0
 38 47  1  0  0  0
 39 64  1  0  0  0
 39 67  2  0  0  0
 40 52  1  0  0  0
 40 53  2  0  0  0
 40 58  1  0  0  0
 41111  1  0  0  0
 41112  1  0  0  0
 41113  1  0  0  0
 41 48  1  0  0  0
 42 43  1  0  0  0
 42 66  1  0  0  0
 42114  1  0  0  0
 42115  1  0  0  0
 43 44  1  0  0  0
 44116  1  0  0  0
 45 46  2  0  0  0
 45117  1  0  0  0
 46118  1  0  0  0
 47119  1  0  0  0
 47120  1  0  0  0
 48 56  1  0  0  0
 48 65  1  0  0  0
 48121  1  0  0  0
 49 50  1  0  0  0
 49 53  1  0  0  0
 49 64  1  0  0  0
 49122  1  0  0  0
 50 51  1  0  0  0
 50123  1  0  0  0
 50124  1  0  0  0
 51 52  1  0  0  0
 51125  1  0  0  0
 51126  1  0  0  0
 52127  1  0  0  0
 52128  1  0  0  0
 53 54  1  0  0  0
 54 55  2  0  0  0
 54129  1  0  0  0
 55 57  1  0  0  0
 55130  1  0  0  0
 56 69  2  0  0  0
 57 58  2  0  0  0
 57131  1  0  0  0
 58132  1  0  0  0
 59 60  1  0  0  0
 59 61  1  0  0  0
 59 62  1  0  0  0
 60133  1  0  0  0
 60134  1  0  0  0
 60135  1  0  0  0
 61136  1  0  0  0
 61137  1  0  0  0
 61138  1  0  0  0
 62139  1  0  0  0
 62140  1  0  0  0
 62141  1  0  0  0
 63 65  1  0  0  0
 63142  1  0  0  0
 63143  1  0  0  0
 63144  1  0  0  0
 64145  1  0  0  0
 65146  1  0  0  0
 68 85  1  0  0  0
 71 73  2  0  0  0
 71 75  1  0  0  0
 71147  1  0  0  0
 72 74  1  0  0  0
 72 75  2  0  0  0
 72148  1  0  0  0
 73 76  1  0  0  0
 73149  1  0  0  0
 74 76  2  0  0  0
 74150  1  0  0  0
 75 84  1  0  0  0
 76 86  1  0  0  0
 77 79  1  0  0  0
 77151  1  0  0  0
 77152  1  0  0  0
 77 81  1  0  0  0
 78 80  1  0  0  0
 78 81  1  0  0  0
 78153  1  0  0  0
 78154  1  0  0  0
 79155  1  0  0  0
 79156  1  0  0  0
 79 87  1  0  0  0
 80 87  1  0  0  0
 80157  1  0  0  0
 80158  1  0  0  0
 81 85  1  0  0  0
 81159  1  0  0  0
 82160  1  0  0  0
 82161  1  0  0  0
 82162  1  0  0  0
 82 84  1  0  0  0
 83163  1  0  0  0
 83164  1  0  0  0
 83165  1  0  0  0
 83 85  1  0  0  0
 84 87  1  0  0  0
 84166  1  0  0  0
 85167  1  0  0  0
 86168  1  0  0  0
 87169  1  0  0  0
M  CHG  1  87   1
M  ISO  4   1 100  68 101  85 101  86 100
M  END
> <chiral flag>
0

> <version>
0

> <s_m_source_file>
/data/baiqing/PycharmProjects/Reinvent-master-3.2/result/LINK_invent/BTK/process_docking_weight1_custom_product_contain_oxygen_bond_distance_aromatic_linkinvent_7_9_3/rearranged_h_0144.sdf

> <i_m_source_file_index>
84

> <r_mmod_Potential_Energy-OPLS-2005>
-132.402069091797

> <r_mmod_Stretch_Energy-OPLS-2005>
35.5302085876465

> <r_mmod_Bend_Energy-OPLS-2005>
91.9560775756836

> <r_mmod_Torsional_Energy-OPLS-2005>
281.086212158203

> <r_mmod_Improper_Torsional_Energy-OPLS-2005>
6.09620809555054

> <r_mmod_Van_der_Waal_Energy-OPLS-2005>
159.48112487793

> <r_mmod_Electrostatic_Energy-OPLS-2005>
-287.795532226562

> <r_mmod_Solvation_Energy-OPLS-2005>
-429.367095947266

> <b_mmod_Minimization_Converged-OPLS-2005>
0

> <r_mmod_RMS_Derivative-OPLS-2005>
0.575101494789124

$$$$
84
                    3D
 Structure written by MMmdl.
162171  0  0  1  0            999 V2000
  -30.6724  -14.5486   20.5755 C   0  0  0  0  0  0
  -30.4303  -12.3463   19.4521 C   0  0  0  0  0  0
  -29.5030  -12.5009   18.2262 C   0  0  0  0  0  0
  -28.0229  -12.3515   18.6343 C   0  0  0  0  0  0
  -27.6549  -13.2110   19.8712 C   0  0  2  0  0  0
  -28.6951  -13.0302   21.0007 C   0  0  0  0  0  0
  -25.2520  -13.8157   20.5694 C   0  0  0  0  0  0
  -24.1801  -13.0443   20.9219 C   0  0  0  0  0  0
  -24.6338  -11.6884   20.8751 C   0  0  0  0  0  0
  -23.9014  -10.4282   21.0435 C   0  0  0  0  0  0
  -24.3580   -9.4184   21.9186 C   0  0  0  0  0  0
  -23.6250   -8.2220   22.0739 C   0  0  0  0  0  0
  -22.4224   -8.0265   21.3535 C   0  0  0  0  0  0
  -21.9877   -9.0248   20.4634 C   0  0  0  0  0  0
  -22.7199  -10.2129   20.3057 C   0  0  0  0  0  0
  -21.6840   -6.0718   22.5290 C   0  0  0  0  0  0
  -21.3992   -6.5624   23.8230 C   0  0  0  0  0  0
  -21.3649   -5.6784   24.9188 C   0  0  0  0  0  0
  -21.6055   -4.3052   24.7249 C   0  0  0  0  0  0
  -21.8790   -3.8130   23.4360 C   0  0  0  0  0  0
  -21.9169   -4.6942   22.3412 C   0  0  0  0  0  0
  -22.7810  -13.5216   21.1870 C   0  0  0  0  0  0
  -22.1640   -4.2126   21.0993 F   0  0  0  0  0  0
  -21.5635   -3.4531   25.7763 F   0  0  0  0  0  0
  -30.0194  -13.3544   20.4493 N   0  0  0  0  0  0
  -26.2966  -12.9323   20.3337 N   0  0  0  0  0  0
  -25.9269  -11.6483   20.5787 N   0  0  0  0  0  0
  -22.0420  -12.8265   22.0444 N   0  0  0  0  0  0
  -25.4203  -15.1873   20.4024 N   0  0  0  0  0  0
  -31.8280  -14.7001   20.1706 O   0  0  0  0  0  0
  -21.6594   -6.8842   21.4242 O   0  0  0  0  0  0
  -22.3521  -14.5508   20.6661 O   0  0  0  0  0  0
  -24.6269  -31.8565   23.2065 C   0  0  0  0  0  0
  -25.9130  -32.4723   23.8382 C   0  0  1  0  0  0
  -27.2232  -27.3483   20.0794 C   0  0  0  0  0  0
  -25.5927  -33.8536   24.2267 N   0  0  0  0  0  0
  -23.4198  -30.4817   21.5492 C   0  0  2  0  0  0
  -24.8650  -28.9485   20.1078 C   0  0  0  0  0  0
  -22.7512  -29.4568   22.4955 C   0  0  0  0  0  0
  -18.0284  -28.1344   22.8529 C   0  0  0  0  0  0
  -24.1490  -36.7293   23.2652 C   0  0  0  0  0  0
  -25.9683  -30.7951   21.3792 C   0  0  0  0  0  0
  -26.0383  -29.4322   20.7026 C   0  0  0  0  0  0
  -27.2280  -28.6449   20.6673 C   0  0  0  0  0  0
  -26.0239  -26.9047   19.4874 C   0  0  0  0  0  0
  -24.8580  -27.6898   19.4892 C   0  0  0  0  0  0
  -23.6301  -29.8232   20.1591 C   0  0  0  0  0  0
  -25.4122  -36.3082   24.0353 C   0  0  1  0  0  0
  -20.5892  -28.3593   23.1328 C   0  0  2  0  0  0
  -20.6745  -26.9299   22.5449 C   0  0  0  0  0  0
  -19.5699  -26.6333   21.5256 C   0  0  0  0  0  0
  -18.1890  -26.7897   22.1666 C   0  0  0  0  0  0
  -19.1544  -28.8788   23.2929 C   0  0  0  0  0  0
  -18.9438  -30.1415   23.8885 C   0  0  0  0  0  0
  -17.6433  -30.6550   24.0517 C   0  0  0  0  0  0
  -25.9045  -34.9424   23.5113 C   0  0  0  0  0  0
  -16.5335  -29.9033   23.6305 C   0  0  0  0  0  0
  -16.7279  -28.6453   23.0363 C   0  0  0  0  0  0
  -26.4483  -31.6607   25.0817 C   0  0  0  0  0  0
  -25.3707  -31.3822   26.1553 C   0  0  0  0  0  0
  -27.0310  -30.2990   24.6391 C   0  0  0  0  0  0
  -27.6015  -32.4377   25.7607 C   0  0  0  0  0  0
  -27.5559  -37.1873   24.8489 C   0  0  0  0  0  0
  -21.4219  -29.2993   22.3773 N   0  0  0  0  0  0
  -26.4305  -37.3764   23.9364 N   0  0  0  0  0  0
  -24.6895  -31.0569   22.1019 N   0  0  0  0  0  0
  -23.4289  -28.8110   23.2987 O   0  0  0  0  0  0
  -28.3428  -26.5134   20.0845 O   0  0  0  0  0  0
  -26.5606  -34.8865   22.4679 O   0  0  0  0  0  0
  -23.5422  -32.1418   23.7360 O   0  0  0  0  0  0
  -30.8701  -19.8155   21.0361 C   0  0  0  0  0  0
  -29.2629  -18.0194   20.6774 C   0  0  0  0  0  0
  -31.5152  -17.4801   21.4055 C   0  0  0  0  0  0
  -29.5675  -19.4216   20.6645 C   0  0  0  0  0  0
  -31.8331  -18.8537   21.4141 C   0  0  0  0  0  0
  -30.2371  -17.0223   21.0135 C   0  0  0  0  0  0
  -28.4541  -22.6886   19.3859 C   0  0  0  0  0  0
  -28.2429  -24.0431   19.2540 C   0  0  0  0  0  0
  -28.4472  -21.7217   18.2126 C   0  0  0  0  0  0
  -28.6278  -21.8259   20.6392 C   0  0  0  0  0  0
  -28.3236  -20.3044   18.7978 C   0  0  0  0  0  0
  -27.9562  -24.5920   17.8634 C   0  0  0  0  0  0
  -28.1358  -25.0867   20.4092 C   0  0  0  0  0  0
  -28.6200  -20.3944   20.2256 N   0  0  0  0  0  0
  -33.1123  -19.2671   21.7828 N   0  0  0  0  0  0
  -29.9095  -15.6033   20.9934 N   0  0  0  0  0  0
  -31.4746  -12.4547   19.1523 H   0  0  0  0  0  0
  -30.3453  -11.3426   19.8718 H   0  0  0  0  0  0
  -29.7567  -11.7680   17.4591 H   0  0  0  0  0  0
  -29.6644  -13.4788   17.7706 H   0  0  0  0  0  0
  -27.8467  -11.2989   18.8571 H   0  0  0  0  0  0
  -27.3735  -12.5931   17.7934 H   0  0  0  0  0  0
  -27.6862  -14.2485   19.5422 H   0  0  0  0  0  0
  -28.6852  -11.9968   21.3595 H   0  0  0  0  0  0
  -28.4454  -13.6426   21.8677 H   0  0  0  0  0  0
  -25.2719   -9.5653   22.4776 H   0  0  0  0  0  0
  -23.9946   -7.4593   22.7443 H   0  0  0  0  0  0
  -21.0801   -8.8723   19.8971 H   0  0  0  0  0  0
  -22.3608  -10.9641   19.6169 H   0  0  0  0  0  0
  -21.1972   -7.6131   23.9726 H   0  0  0  0  0  0
  -21.1518   -6.0519   25.9095 H   0  0  0  0  0  0
  -22.0575   -2.7585   23.2872 H   0  0  0  0  0  0
  -22.3976  -11.9955   22.4947 H   0  0  0  0  0  0
  -21.1037  -13.1313   22.2594 H   0  0  0  0  0  0
  -24.6399  -15.8286   20.4760 H   0  0  0  0  0  0
  -26.2499  -15.6194   20.0203 H   0  0  0  0  0  0
  -26.7244  -32.5329   23.1174 H   0  0  0  0  0  0
  -25.0121  -33.9652   25.0440 H   0  0  0  0  0  0
  -22.7125  -31.3012   21.4091 H   0  0  0  0  0  0
  -23.3703  -35.9678   23.3430 H   0  0  0  0  0  0
  -24.3535  -36.8798   22.2032 H   0  0  0  0  0  0
  -23.7314  -37.6572   23.6579 H   0  0  0  0  0  0
  -26.1335  -31.5682   20.6270 H   0  0  0  0  0  0
  -26.8353  -30.8111   22.0342 H   0  0  0  0  0  0
  -28.1397  -29.0010   21.1233 H   0  0  0  0  0  0
  -25.9809  -25.9342   19.0186 H   0  0  0  0  0  0
  -23.9543  -27.3114   19.0304 H   0  0  0  0  0  0
  -23.7480  -30.6042   19.4074 H   0  0  0  0  0  0
  -22.7459  -29.2588   19.8456 H   0  0  0  0  0  0
  -25.1335  -36.2002   25.0863 H   0  0  0  0  0  0
  -20.9986  -28.3077   24.1439 H   0  0  0  0  0  0
  -20.5570  -26.2162   23.3649 H   0  0  0  0  0  0
  -21.6605  -26.7283   22.1237 H   0  0  0  0  0  0
  -19.6790  -25.6253   21.1246 H   0  0  0  0  0  0
  -19.6595  -27.3155   20.6795 H   0  0  0  0  0  0
  -17.4162  -26.6673   21.4069 H   0  0  0  0  0  0
  -18.0200  -26.0057   22.9042 H   0  0  0  0  0  0
  -19.7897  -30.7251   24.2243 H   0  0  0  0  0  0
  -17.4959  -31.6210   24.5128 H   0  0  0  0  0  0
  -15.5320  -30.2894   23.7633 H   0  0  0  0  0  0
  -15.8701  -28.0736   22.7113 H   0  0  0  0  0  0
  -24.5864  -30.7168   25.7970 H   0  0  0  0  0  0
  -24.8882  -32.2981   26.4946 H   0  0  0  0  0  0
  -25.7996  -30.9082   27.0386 H   0  0  0  0  0  0
  -26.2925  -29.6811   24.1263 H   0  0  0  0  0  0
  -27.3761  -29.7225   25.4994 H   0  0  0  0  0  0
  -27.8907  -30.4212   23.9806 H   0  0  0  0  0  0
  -27.2596  -33.3671   26.2167 H   0  0  0  0  0  0
  -28.3828  -32.6974   25.0466 H   0  0  0  0  0  0
  -28.0692  -31.8554   26.5566 H   0  0  0  0  0  0
  -28.2749  -37.9993   24.7299 H   0  0  0  0  0  0
  -28.0884  -36.2529   24.6647 H   0  0  0  0  0  0
  -27.2215  -37.1941   25.8876 H   0  0  0  0  0  0
  -20.9378  -29.8795   21.7076 H   0  0  0  0  0  0
  -26.0226  -38.2898   24.1169 H   0  0  0  0  0  0
  -31.1507  -20.8599   21.0162 H   0  0  0  0  0  0
  -28.2645  -17.7022   20.4183 H   0  0  0  0  0  0
  -32.2757  -16.7691   21.7003 H   0  0  0  0  0  0
  -29.3857  -21.8241   17.6668 H   0  0  0  0  0  0
  -27.6465  -21.9325   17.5016 H   0  0  0  0  0  0
  -27.7489  -21.9914   21.2665 H   0  0  0  0  0  0
  -29.5031  -22.1458   21.2092 H   0  0  0  0  0  0
  -27.3036  -19.9278   18.6870 H   0  0  0  0  0  0
  -28.9921  -19.6225   18.2602 H   0  0  0  0  0  0
  -28.0002  -25.6771   17.7923 H   0  0  0  0  0  0
  -26.9356  -24.2887   17.6183 H   0  0  0  0  0  0
  -28.6379  -24.1933   17.1061 H   0  0  0  0  0  0
  -28.8812  -24.8172   21.1557 H   0  0  0  0  0  0
  -27.1685  -24.9518   20.8971 H   0  0  0  0  0  0
  -33.2854  -20.2480   21.9829 H   0  0  0  0  0  0
  -33.7355  -18.6353   22.2821 H   0  0  0  0  0  0
  -28.9497  -15.3672   21.1904 H   0  0  0  0  0  0
  1 25  1  0  0  0
  1 30  2  0  0  0
  1 86  1  0  0  0
  2  3  1  0  0  0
  2 25  1  0  0  0
  2 87  1  0  0  0
  2 88  1  0  0  0
  3  4  1  0  0  0
  3 89  1  0  0  0
  3 90  1  0  0  0
  4  5  1  0  0  0
  4 91  1  0  0  0
  4 92  1  0  0  0
  5  6  1  0  0  0
  5 26  1  0  0  0
  5 93  1  0  0  0
  6 25  1  0  0  0
  6 94  1  0  0  0
  6 95  1  0  0  0
  7  8  2  0  0  0
  7 26  1  0  0  0
  7 29  1  0  0  0
  8  9  1  0  0  0
  8 22  1  0  0  0
  9 10  1  0  0  0
  9 27  2  0  0  0
 10 11  2  0  0  0
 10 15  1  0  0  0
 11 12  1  0  0  0
 11 96  1  0  0  0
 12 13  2  0  0  0
 12 97  1  0  0  0
 13 14  1  0  0  0
 13 31  1  0  0  0
 14 15  2  0  0  0
 14 98  1  0  0  0
 15 99  1  0  0  0
 16 17  2  0  0  0
 16 21  1  0  0  0
 16 31  1  0  0  0
 17 18  1  0  0  0
 17100  1  0  0  0
 18 19  2  0  0  0
 18101  1  0  0  0
 19 20  1  0  0  0
 19 24  1  0  0  0
 20 21  2  0  0  0
 20102  1  0  0  0
 21 23  1  0  0  0
 22 28  1  0  0  0
 22 32  2  0  0  0
 26 27  1  0  0  0
 28103  1  0  0  0
 28104  1  0  0  0
 29105  1  0  0  0
 29106  1  0  0  0
 33 34  1  0  0  0
 33 66  1  0  0  0
 33 70  2  0  0  0
 34 36  1  0  0  0
 34 59  1  0  0  0
 34107  1  0  0  0
 35 44  2  0  0  0
 35 45  1  0  0  0
 35 68  1  0  0  0
 36 56  1  0  0  0
 36108  1  0  0  0
 37 39  1  0  0  0
 37 47  1  0  0  0
 37 66  1  0  0  0
 37109  1  0  0  0
 38 43  2  0  0  0
 38 46  1  0  0  0
 38 47  1  0  0  0
 39 64  1  0  0  0
 39 67  2  0  0  0
 40 52  1  0  0  0
 40 53  2  0  0  0
 40 58  1  0  0  0
 41110  1  0  0  0
 41111  1  0  0  0
 41112  1  0  0  0
 41 48  1  0  0  0
 42 43  1  0  0  0
 42 66  1  0  0  0
 42113  1  0  0  0
 42114  1  0  0  0
 43 44  1  0  0  0
 44115  1  0  0  0
 45 46  2  0  0  0
 45116  1  0  0  0
 46117  1  0  0  0
 47118  1  0  0  0
 47119  1  0  0  0
 48 56  1  0  0  0
 48 65  1  0  0  0
 48120  1  0  0  0
 49 50  1  0  0  0
 49 53  1  0  0  0
 49 64  1  0  0  0
 49121  1  0  0  0
 50 51  1  0  0  0
 50122  1  0  0  0
 50123  1  0  0  0
 51 52  1  0  0  0
 51124  1  0  0  0
 51125  1  0  0  0
 52126  1  0  0  0
 52127  1  0  0  0
 53 54  1  0  0  0
 54 55  2  0  0  0
 54128  1  0  0  0
 55 57  1  0  0  0
 55129  1  0  0  0
 56 69  2  0  0  0
 57 58  2  0  0  0
 57130  1  0  0  0
 58131  1  0  0  0
 59 60  1  0  0  0
 59 61  1  0  0  0
 59 62  1  0  0  0
 60132  1  0  0  0
 60133  1  0  0  0
 60134  1  0  0  0
 61135  1  0  0  0
 61136  1  0  0  0
 61137  1  0  0  0
 62138  1  0  0  0
 62139  1  0  0  0
 62140  1  0  0  0
 63 65  1  0  0  0
 63141  1  0  0  0
 63142  1  0  0  0
 63143  1  0  0  0
 64144  1  0  0  0
 65145  1  0  0  0
 68 83  1  0  0  0
 71 74  2  0  0  0
 71 75  1  0  0  0
 71146  1  0  0  0
 72 74  1  0  0  0
 72 76  2  0  0  0
 72147  1  0  0  0
 73 75  2  0  0  0
 73 76  1  0  0  0
 73148  1  0  0  0
 74 84  1  0  0  0
 75 85  1  0  0  0
 76 86  1  0  0  0
 77 78  2  0  0  0
 77 79  1  0  0  0
 77 80  1  0  0  0
 78 82  1  0  0  0
 78 83  1  0  0  0
 79 81  1  0  0  0
 79149  1  0  0  0
 79150  1  0  0  0
 80 84  1  0  0  0
 80151  1  0  0  0
 80152  1  0  0  0
 81 84  1  0  0  0
 81153  1  0  0  0
 81154  1  0  0  0
 82155  1  0  0  0
 82156  1  0  0  0
 82157  1  0  0  0
 83158  1  0  0  0
 83159  1  0  0  0
 85160  1  0  0  0
 85161  1  0  0  0
 86162  1  0  0  0
M  ISO  4   1 100  68 101  83 101  86 100
M  END
> <chiral flag>
0

> <version>
0

> <s_m_source_file>
/data/baiqing/PycharmProjects/Reinvent-master-3.2/result/LINK_invent/BTK/process_docking_weight1_custom_product_contain_oxygen_bond_distance_aromatic_linkinvent_7_9_3/rearranged_h_0144.sdf

> <i_m_source_file_index>
85

> <r_mmod_Potential_Energy-OPLS-2005>
156.665649414062

> <r_mmod_Stretch_Energy-OPLS-2005>
67.358268737793

> <r_mmod_Bend_Energy-OPLS-2005>
150.971893310547

> <r_mmod_Torsional_Energy-OPLS-2005>
273.591156005859

> <r_mmod_Improper_Torsional_Energy-OPLS-2005>
10.9239921569824

> <r_mmod_Van_der_Waal_Energy-OPLS-2005>
148.348129272461

> <r_mmod_Electrostatic_Energy-OPLS-2005>
-291.343841552734

> <r_mmod_Solvation_Energy-OPLS-2005>
-234.8837890625

> <b_mmod_Minimization_Converged-OPLS-2005>
0

> <r_mmod_RMS_Derivative-OPLS-2005>
7.67206621170044

$$$$
85
                    3D
 Structure written by MMmdl.
169177  0  0  1  0            999 V2000
  -30.7457  -14.3954   20.6493 C   0  0  0  0  0  0
  -30.4177  -12.2880   19.4051 C   0  0  0  0  0  0
  -29.4897  -12.5257   18.1982 C   0  0  0  0  0  0
  -28.0112  -12.3848   18.6099 C   0  0  0  0  0  0
  -27.6660  -13.2040   19.8820 C   0  0  2  0  0  0
  -28.7046  -12.9456   20.9963 C   0  0  0  0  0  0
  -25.2572  -13.8112   20.5618 C   0  0  0  0  0  0
  -24.1834  -13.0405   20.9156 C   0  0  0  0  0  0
  -24.6397  -11.6878   20.8730 C   0  0  0  0  0  0
  -23.9058  -10.4273   21.0404 C   0  0  0  0  0  0
  -24.3610   -9.4193   21.9184 C   0  0  0  0  0  0
  -23.6284   -8.2231   22.0757 C   0  0  0  0  0  0
  -22.4266   -8.0272   21.3545 C   0  0  0  0  0  0
  -21.9901   -9.0243   20.4647 C   0  0  0  0  0  0
  -22.7233  -10.2119   20.3053 C   0  0  0  0  0  0
  -21.6849   -6.0728   22.5281 C   0  0  0  0  0  0
  -21.4011   -6.5634   23.8213 C   0  0  0  0  0  0
  -21.3659   -5.6788   24.9176 C   0  0  0  0  0  0
  -21.6045   -4.3051   24.7228 C   0  0  0  0  0  0
  -21.8820   -3.8141   23.4349 C   0  0  0  0  0  0
  -21.9190   -4.6955   22.3405 C   0  0  0  0  0  0
  -22.7861  -13.5215   21.1828 C   0  0  0  0  0  0
  -22.1658   -4.2141   21.0982 F   0  0  0  0  0  0
  -21.5629   -3.4536   25.7740 F   0  0  0  0  0  0
  -30.0462  -13.2450   20.4588 N   0  0  0  0  0  0
  -26.3040  -12.9304   20.3379 N   0  0  0  0  0  0
  -25.9328  -11.6463   20.5774 N   0  0  0  0  0  0
  -22.0503  -12.8220   22.0394 N   0  0  0  0  0  0
  -25.4241  -15.1796   20.3927 N   0  0  0  0  0  0
  -31.8002  -14.6386   20.0551 O   0  0  0  0  0  0
  -21.6632   -6.8867   21.4241 O   0  0  0  0  0  0
  -22.3546  -14.5526   20.6682 O   0  0  0  0  0  0
  -24.6090  -31.8705   23.2130 C   0  0  0  0  0  0
  -25.8999  -32.4840   23.8413 C   0  0  1  0  0  0
  -27.2406  -27.4739   20.0987 C   0  0  0  0  0  0
  -25.5882  -33.8642   24.2354 N   0  0  0  0  0  0
  -23.3967  -30.4925   21.5517 C   0  0  2  0  0  0
  -24.8476  -28.9622   20.1144 C   0  0  0  0  0  0
  -22.7385  -29.4660   22.5009 C   0  0  0  0  0  0
  -18.0268  -28.1361   22.8506 C   0  0  0  0  0  0
  -24.1483  -36.7316   23.2639 C   0  0  0  0  0  0
  -25.9191  -30.8490   21.3590 C   0  0  0  0  0  0
  -26.0010  -29.4828   20.7159 C   0  0  0  0  0  0
  -27.2008  -28.7417   20.7163 C   0  0  0  0  0  0
  -26.0810  -26.9619   19.4845 C   0  0  0  0  0  0
  -24.8794  -27.6977   19.4983 C   0  0  0  0  0  0
  -23.6046  -29.8226   20.1660 C   0  0  0  0  0  0
  -25.4101  -36.3124   24.0352 C   0  0  1  0  0  0
  -20.5857  -28.3637   23.1341 C   0  0  2  0  0  0
  -20.6756  -26.9379   22.5427 C   0  0  0  0  0  0
  -19.5741  -26.6378   21.5214 C   0  0  0  0  0  0
  -18.1914  -26.7920   22.1616 C   0  0  0  0  0  0
  -19.1518  -28.8810   23.2917 C   0  0  0  0  0  0
  -18.9453  -30.1426   23.8913 C   0  0  0  0  0  0
  -17.6458  -30.6576   24.0569 C   0  0  0  0  0  0
  -25.9022  -34.9490   23.5150 C   0  0  0  0  0  0
  -16.5343  -29.9089   23.6327 C   0  0  0  0  0  0
  -16.7257  -28.6501   23.0349 C   0  0  0  0  0  0
  -26.4460  -31.6598   25.0708 C   0  0  0  0  0  0
  -25.3751  -31.3686   26.1470 C   0  0  0  0  0  0
  -27.0285  -30.3061   24.6006 C   0  0  0  0  0  0
  -27.6048  -32.4305   25.7464 C   0  0  0  0  0  0
  -27.5583  -37.1807   24.8469 C   0  0  0  0  0  0
  -21.4118  -29.3021   22.3750 N   0  0  0  0  0  0
  -26.4295  -37.3802   23.9417 N   0  0  0  0  0  0
  -24.6599  -31.0842   22.1010 N   0  0  0  0  0  0
  -23.4177  -28.8196   23.3027 O   0  0  0  0  0  0
  -28.3827  -26.7157   20.0834 O   0  0  0  0  0  0
  -26.5575  -34.8940   22.4700 O   0  0  0  0  0  0
  -23.5296  -32.1439   23.7560 O   0  0  0  0  0  0
  -29.8674  -18.8546   22.5343 C   0  0  0  0  0  0
  -31.8794  -17.0658   21.7559 C   0  0  0  0  0  0
  -29.5250  -17.5242   22.2086 C   0  0  0  0  0  0
  -31.1999  -19.3085   22.4539 C   0  0  0  0  0  0
  -30.5372  -16.6105   21.8074 C   0  0  0  0  0  0
  -32.2046  -18.4010   22.0631 C   0  0  0  0  0  0
  -29.8804  -24.2685   22.5476 C   0  0  0  0  0  0
  -27.2154  -17.8955   21.2316 C   0  0  0  0  0  0
  -32.8566  -22.6492   24.5310 C   0  0  0  0  0  0
  -28.0490  -17.1485   22.2827 C   0  0  0  0  0  0
  -29.6800  -25.0323   21.2356 C   0  0  0  0  0  0
  -31.2920  -23.7402   22.8363 C   0  0  0  0  0  0
  -30.7918  -21.3743   23.7358 C   0  0  0  0  0  0
  -28.7934  -26.2823   21.3788 C   0  0  0  0  0  0
  -31.4042  -22.7605   24.0319 C   0  0  1  0  0  0
  -30.1809  -15.2594   21.5117 N   0  0  0  0  0  0
  -31.5614  -20.6345   22.7398 N   0  0  0  0  0  0
  -28.9448  -24.0860   23.3325 O   0  0  0  0  0  0
  -33.4946  -18.8150   21.9918 F   0  0  0  0  0  0
  -31.4634  -12.3787   19.1054 H   0  0  0  0  0  0
  -30.3069  -11.2673   19.7751 H   0  0  0  0  0  0
  -29.7242  -11.8227   17.3981 H   0  0  0  0  0  0
  -29.6642  -13.5230   17.7919 H   0  0  0  0  0  0
  -27.8140  -11.3267   18.7844 H   0  0  0  0  0  0
  -27.3619  -12.6818   17.7851 H   0  0  0  0  0  0
  -27.7219  -14.2590   19.6119 H   0  0  0  0  0  0
  -28.6690  -11.8997   21.3050 H   0  0  0  0  0  0
  -28.4544  -13.5121   21.8932 H   0  0  0  0  0  0
  -25.2759   -9.5663   22.4752 H   0  0  0  0  0  0
  -23.9990   -7.4622   22.7481 H   0  0  0  0  0  0
  -21.0831   -8.8763   19.8956 H   0  0  0  0  0  0
  -22.3700  -10.9654   19.6154 H   0  0  0  0  0  0
  -21.2004   -7.6142   23.9712 H   0  0  0  0  0  0
  -21.1482   -6.0521   25.9079 H   0  0  0  0  0  0
  -22.0599   -2.7603   23.2852 H   0  0  0  0  0  0
  -22.4107  -11.9872   22.4775 H   0  0  0  0  0  0
  -21.1129  -13.1260   22.2612 H   0  0  0  0  0  0
  -24.6532  -15.8303   20.4925 H   0  0  0  0  0  0
  -26.2751  -15.6190   20.0678 H   0  0  0  0  0  0
  -26.7066  -32.5572   23.1186 H   0  0  0  0  0  0
  -25.0064  -33.9808   25.0522 H   0  0  0  0  0  0
  -22.6834  -31.3073   21.4124 H   0  0  0  0  0  0
  -23.3745  -35.9648   23.3313 H   0  0  0  0  0  0
  -24.3585  -36.8902   22.2048 H   0  0  0  0  0  0
  -23.7237  -37.6530   23.6635 H   0  0  0  0  0  0
  -26.0171  -31.6104   20.5841 H   0  0  0  0  0  0
  -26.8131  -30.9141   21.9667 H   0  0  0  0  0  0
  -28.0904  -29.1432   21.1820 H   0  0  0  0  0  0
  -26.1078  -25.9912   19.0098 H   0  0  0  0  0  0
  -23.9941  -27.2903   19.0298 H   0  0  0  0  0  0
  -23.7063  -30.5962   19.4039 H   0  0  0  0  0  0
  -22.7310  -29.2359   19.8745 H   0  0  0  0  0  0
  -25.1280  -36.1998   25.0849 H   0  0  0  0  0  0
  -20.9948  -28.3184   24.1461 H   0  0  0  0  0  0
  -20.5651  -26.2237   23.3602 H   0  0  0  0  0  0
  -21.6625  -26.7422   22.1214 H   0  0  0  0  0  0
  -19.6905  -25.6299   21.1216 H   0  0  0  0  0  0
  -19.6693  -27.3208   20.6764 H   0  0  0  0  0  0
  -17.4195  -26.6681   21.4004 H   0  0  0  0  0  0
  -18.0301  -26.0053   22.9002 H   0  0  0  0  0  0
  -19.7925  -30.7240   24.2281 H   0  0  0  0  0  0
  -17.5017  -31.6265   24.5161 H   0  0  0  0  0  0
  -15.5346  -30.3000   23.7648 H   0  0  0  0  0  0
  -15.8653  -28.0835   22.7051 H   0  0  0  0  0  0
  -24.5936  -30.7015   25.7822 H   0  0  0  0  0  0
  -24.8927  -32.2830   26.4928 H   0  0  0  0  0  0
  -25.8130  -30.8866   27.0215 H   0  0  0  0  0  0
  -26.2798  -29.6819   24.1106 H   0  0  0  0  0  0
  -27.4158  -29.7291   25.4411 H   0  0  0  0  0  0
  -27.8586  -30.4427   23.9069 H   0  0  0  0  0  0
  -27.2674  -33.3594   26.2078 H   0  0  0  0  0  0
  -28.3835  -32.6870   25.0269 H   0  0  0  0  0  0
  -28.0729  -31.8397   26.5346 H   0  0  0  0  0  0
  -28.2608  -38.0097   24.7506 H   0  0  0  0  0  0
  -28.1070  -36.2629   24.6303 H   0  0  0  0  0  0
  -27.2303  -37.1455   25.8874 H   0  0  0  0  0  0
  -20.9263  -29.8759   21.6995 H   0  0  0  0  0  0
  -26.0190  -38.2887   24.1418 H   0  0  0  0  0  0
  -29.0782  -19.5292   22.8274 H   0  0  0  0  0  0
  -32.6879  -16.4048   21.4846 H   0  0  0  0  0  0
  -26.1580  -17.6520   21.3299 H   0  0  0  0  0  0
  -27.5286  -17.6351   20.2200 H   0  0  0  0  0  0
  -27.3040  -18.9766   21.3403 H   0  0  0  0  0  0
  -33.2323  -23.6186   24.8604 H   0  0  0  0  0  0
  -33.5292  -22.2864   23.7530 H   0  0  0  0  0  0
  -32.9298  -21.9680   25.3797 H   0  0  0  0  0  0
  -27.6839  -17.4004   23.2793 H   0  0  0  0  0  0
  -27.8887  -16.0766   22.1765 H   0  0  0  0  0  0
  -29.2182  -24.3413   20.5314 H   0  0  0  0  0  0
  -30.6487  -25.3066   20.8187 H   0  0  0  0  0  0
  -31.9166  -24.6133   23.0233 H   0  0  0  0  0  0
  -31.6821  -23.2729   21.9319 H   0  0  0  0  0  0
  -29.7608  -21.4976   23.4010 H   0  0  0  0  0  0
  -30.7490  -20.7895   24.6570 H   0  0  0  0  0  0
  -29.3422  -27.0797   21.8829 H   0  0  0  0  0  0
  -27.9159  -26.0589   21.9919 H   0  0  0  0  0  0
  -30.8338  -23.1830   24.8619 H   0  0  0  0  0  0
  -29.3002  -14.9429   21.8850 H   0  0  0  0  0  0
  -32.5653  -20.7918   22.7461 H   0  0  0  0  0  0
  1 25  1  0  0  0
  1 30  2  0  0  0
  1 86  1  0  0  0
  2  3  1  0  0  0
  2 25  1  0  0  0
  2 90  1  0  0  0
  2 91  1  0  0  0
  3  4  1  0  0  0
  3 92  1  0  0  0
  3 93  1  0  0  0
  4  5  1  0  0  0
  4 94  1  0  0  0
  4 95  1  0  0  0
  5  6  1  0  0  0
  5 26  1  0  0  0
  5 96  1  0  0  0
  6 25  1  0  0  0
  6 97  1  0  0  0
  6 98  1  0  0  0
  7  8  2  0  0  0
  7 26  1  0  0  0
  7 29  1  0  0  0
  8  9  1  0  0  0
  8 22  1  0  0  0
  9 10  1  0  0  0
  9 27  2  0  0  0
 10 11  2  0  0  0
 10 15  1  0  0  0
 11 12  1  0  0  0
 11 99  1  0  0  0
 12 13  2  0  0  0
 12100  1  0  0  0
 13 14  1  0  0  0
 13 31  1  0  0  0
 14 15  2  0  0  0
 14101  1  0  0  0
 15102  1  0  0  0
 16 17  2  0  0  0
 16 21  1  0  0  0
 16 31  1  0  0  0
 17 18  1  0  0  0
 17103  1  0  0  0
 18 19  2  0  0  0
 18104  1  0  0  0
 19 20  1  0  0  0
 19 24  1  0  0  0
 20 21  2  0  0  0
 20105  1  0  0  0
 21 23  1  0  0  0
 22 28  1  0  0  0
 22 32  2  0  0  0
 26 27  1  0  0  0
 28106  1  0  0  0
 28107  1  0  0  0
 29108  1  0  0  0
 29109  1  0  0  0
 33 34  1  0  0  0
 33 66  1  0  0  0
 33 70  2  0  0  0
 34 36  1  0  0  0
 34 59  1  0  0  0
 34110  1  0  0  0
 35 44  2  0  0  0
 35 45  1  0  0  0
 35 68  1  0  0  0
 36 56  1  0  0  0
 36111  1  0  0  0
 37 39  1  0  0  0
 37 47  1  0  0  0
 37 66  1  0  0  0
 37112  1  0  0  0
 38 43  2  0  0  0
 38 46  1  0  0  0
 38 47  1  0  0  0
 39 64  1  0  0  0
 39 67  2  0  0  0
 40 52  1  0  0  0
 40 53  2  0  0  0
 40 58  1  0  0  0
 41113  1  0  0  0
 41114  1  0  0  0
 41115  1  0  0  0
 41 48  1  0  0  0
 42 43  1  0  0  0
 42 66  1  0  0  0
 42116  1  0  0  0
 42117  1  0  0  0
 43 44  1  0  0  0
 44118  1  0  0  0
 45 46  2  0  0  0
 45119  1  0  0  0
 46120  1  0  0  0
 47121  1  0  0  0
 47122  1  0  0  0
 48 56  1  0  0  0
 48 65  1  0  0  0
 48123  1  0  0  0
 49 50  1  0  0  0
 49 53  1  0  0  0
 49 64  1  0  0  0
 49124  1  0  0  0
 50 51  1  0  0  0
 50125  1  0  0  0
 50126  1  0  0  0
 51 52  1  0  0  0
 51127  1  0  0  0
 51128  1  0  0  0
 52129  1  0  0  0
 52130  1  0  0  0
 53 54  1  0  0  0
 54 55  2  0  0  0
 54131  1  0  0  0
 55 57  1  0  0  0
 55132  1  0  0  0
 56 69  2  0  0  0
 57 58  2  0  0  0
 57133  1  0  0  0
 58134  1  0  0  0
 59 60  1  0  0  0
 59 61  1  0  0  0
 59 62  1  0  0  0
 60135  1  0  0  0
 60136  1  0  0  0
 60137  1  0  0  0
 61138  1  0  0  0
 61139  1  0  0  0
 61140  1  0  0  0
 62141  1  0  0  0
 62142  1  0  0  0
 62143  1  0  0  0
 63 65  1  0  0  0
 63144  1  0  0  0
 63145  1  0  0  0
 63146  1  0  0  0
 64147  1  0  0  0
 65148  1  0  0  0
 68 84  1  0  0  0
 71 73  2  0  0  0
 71 74  1  0  0  0
 71149  1  0  0  0
 72 75  2  0  0  0
 72 76  1  0  0  0
 72150  1  0  0  0
 73 75  1  0  0  0
 73 80  1  0  0  0
 74 76  2  0  0  0
 74 87  1  0  0  0
 75 86  1  0  0  0
 76 89  1  0  0  0
 77 81  1  0  0  0
 77 82  1  0  0  0
 77 88  2  0  0  0
 78 80  1  0  0  0
 78151  1  0  0  0
 78152  1  0  0  0
 78153  1  0  0  0
 79154  1  0  0  0
 79155  1  0  0  0
 79156  1  0  0  0
 79 85  1  0  0  0
 80157  1  0  0  0
 80158  1  0  0  0
 81 84  1  0  0  0
 81159  1  0  0  0
 81160  1  0  0  0
 82 85  1  0  0  0
 82161  1  0  0  0
 82162  1  0  0  0
 83 85  1  0  0  0
 83 87  1  0  0  0
 83163  1  0  0  0
 83164  1  0  0  0
 84165  1  0  0  0
 84166  1  0  0  0
 85167  1  0  0  0
 86168  1  0  0  0
 87169  1  0  0  0
M  ISO  4   1 100  68 101  84 101  86 100
M  END
> <chiral flag>
0

> <version>
0

> <s_m_source_file>
/data/baiqing/PycharmProjects/Reinvent-master-3.2/result/LINK_invent/BTK/process_docking_weight1_custom_product_contain_oxygen_bond_distance_aromatic_linkinvent_7_9_3/rearranged_h_0144.sdf

> <i_m_source_file_index>
86

> <r_mmod_Potential_Energy-OPLS-2005>
-89.4738464355469

> <r_mmod_Stretch_Energy-OPLS-2005>
34.5927810668945

> <r_mmod_Bend_Energy-OPLS-2005>
99.5495300292969

> <r_mmod_Torsional_Energy-OPLS-2005>
237.076705932617

> <r_mmod_Improper_Torsional_Energy-OPLS-2005>
5.42885398864746

> <r_mmod_Van_der_Waal_Energy-OPLS-2005>
159.079772949219

> <r_mmod_Electrostatic_Energy-OPLS-2005>
-424.525390625

> <r_mmod_Solvation_Energy-OPLS-2005>
-207.437683105469

> <b_mmod_Minimization_Converged-OPLS-2005>
0

> <r_mmod_RMS_Derivative-OPLS-2005>
1.29167211055756

$$$$
86
                    3D
 Structure written by MMmdl.
162171  0  0  1  0            999 V2000
  -30.5551  -14.7454   20.4397 C   0  0  0  0  0  0
  -30.4239  -12.4481   19.4632 C   0  0  0  0  0  0
  -29.4988  -12.5318   18.2276 C   0  0  0  0  0  0
  -28.0138  -12.3820   18.6226 C   0  0  0  0  0  0
  -27.6350  -13.2330   19.8642 C   0  0  2  0  0  0
  -28.6843  -13.1064   20.9872 C   0  0  0  0  0  0
  -25.2445  -13.8134   20.5697 C   0  0  0  0  0  0
  -24.1788  -13.0388   20.9205 C   0  0  0  0  0  0
  -24.6367  -11.6885   20.8822 C   0  0  0  0  0  0
  -23.9034  -10.4324   21.0498 C   0  0  0  0  0  0
  -24.3645   -9.4207   21.9210 C   0  0  0  0  0  0
  -23.6364   -8.2211   22.0767 C   0  0  0  0  0  0
  -22.4298   -8.0264   21.3561 C   0  0  0  0  0  0
  -21.9942   -9.0209   20.4591 C   0  0  0  0  0  0
  -22.7266  -10.2113   20.3060 C   0  0  0  0  0  0
  -21.6855   -6.0738   22.5322 C   0  0  0  0  0  0
  -21.3993   -6.5669   23.8253 C   0  0  0  0  0  0
  -21.3676   -5.6842   24.9225 C   0  0  0  0  0  0
  -21.6061   -4.3101   24.7257 C   0  0  0  0  0  0
  -21.8823   -3.8148   23.4388 C   0  0  0  0  0  0
  -21.9182   -4.6955   22.3428 C   0  0  0  0  0  0
  -22.7818  -13.5103   21.1933 C   0  0  0  0  0  0
  -22.1660   -4.2153   21.1005 F   0  0  0  0  0  0
  -21.5644   -3.4552   25.7748 F   0  0  0  0  0  0
  -29.9798  -13.4936   20.4127 N   0  0  0  0  0  0
  -26.2884  -12.9377   20.3360 N   0  0  0  0  0  0
  -25.9287  -11.6503   20.5813 N   0  0  0  0  0  0
  -22.0474  -12.8064   22.0403 N   0  0  0  0  0  0
  -25.4109  -15.1897   20.4091 N   0  0  0  0  0  0
  -31.7450  -14.8730   20.1248 O   0  0  0  0  0  0
  -21.6649   -6.8876   21.4281 O   0  0  0  0  0  0
  -22.3454  -14.5431   20.6853 O   0  0  0  0  0  0
  -24.6366  -31.8503   23.1938 C   0  0  0  0  0  0
  -25.9192  -32.4689   23.8287 C   0  0  1  0  0  0
  -27.2015  -27.2108   20.0584 C   0  0  0  0  0  0
  -25.5972  -33.8493   24.2183 N   0  0  0  0  0  0
  -23.4325  -30.4766   21.5364 C   0  0  2  0  0  0
  -24.8760  -28.9257   20.0849 C   0  0  0  0  0  0
  -22.7489  -29.4635   22.4844 C   0  0  0  0  0  0
  -18.0328  -28.1389   22.8490 C   0  0  0  0  0  0
  -24.1497  -36.7180   23.2644 C   0  0  0  0  0  0
  -25.9906  -30.7227   21.4059 C   0  0  0  0  0  0
  -26.0467  -29.3566   20.7178 C   0  0  0  0  0  0
  -27.2072  -28.5096   20.6978 C   0  0  0  0  0  0
  -25.9972  -26.8560   19.4243 C   0  0  0  0  0  0
  -24.8657  -27.6929   19.4165 C   0  0  0  0  0  0
  -23.6482  -29.8175   20.1475 C   0  0  0  0  0  0
  -25.4154  -36.3010   24.0303 C   0  0  1  0  0  0
  -20.5918  -28.3750   23.1220 C   0  0  2  0  0  0
  -20.6803  -26.9449   22.5391 C   0  0  0  0  0  0
  -19.5766  -26.6379   21.5221 C   0  0  0  0  0  0
  -18.1956  -26.7948   22.1625 C   0  0  0  0  0  0
  -19.1573  -28.8869   23.2863 C   0  0  0  0  0  0
  -18.9486  -30.1477   23.8873 C   0  0  0  0  0  0
  -17.6486  -30.6623   24.0547 C   0  0  0  0  0  0
  -25.9126  -34.9406   23.5065 C   0  0  0  0  0  0
  -16.5384  -29.9106   23.6345 C   0  0  0  0  0  0
  -16.7315  -28.6509   23.0389 C   0  0  0  0  0  0
  -26.4501  -31.6578   25.0751 C   0  0  0  0  0  0
  -25.3670  -31.3747   26.1402 C   0  0  0  0  0  0
  -27.0407  -30.2959   24.6458 C   0  0  0  0  0  0
  -27.5987  -32.4394   25.7556 C   0  0  0  0  0  0
  -27.5594  -37.1769   24.8441 C   0  0  0  0  0  0
  -21.4197  -29.3074   22.3537 N   0  0  0  0  0  0
  -26.4285  -37.3745   23.9421 N   0  0  0  0  0  0
  -24.7042  -31.0396   22.0963 N   0  0  0  0  0  0
  -23.4147  -28.8184   23.2989 O   0  0  0  0  0  0
  -28.3111  -26.3208   20.0765 O   0  0  0  0  0  0
  -26.5709  -34.8889   22.4630 O   0  0  0  0  0  0
  -23.5528  -32.1391   23.7168 O   0  0  0  0  0  0
  -29.0865  -18.3599   20.6627 C   0  0  0  0  0  0
  -29.4794  -19.6717   20.0877 C   0  0  0  0  0  0
  -30.5230  -19.4658   19.2001 C   0  0  0  0  0  0
  -29.8528  -17.2140   20.3092 C   0  0  0  0  0  0
  -27.0425  -22.6152   19.8589 C   0  0  0  0  0  0
  -27.3794  -21.1461   20.2838 C   0  0  0  0  0  0
  -29.3597  -22.3588   20.0599 C   0  0  0  0  0  0
  -28.2627  -23.5155   20.2191 C   0  0  1  0  0  0
  -31.1812  -20.4338   18.2483 C   0  0  0  0  0  0
  -30.0391  -25.0638   19.2266 C   0  0  0  0  0  0
  -27.9949  -24.8392   17.9377 C   0  0  0  0  0  0
  -28.5012  -24.9473   19.4141 C   0  0  0  0  0  0
  -28.8328  -20.9814   20.3616 N   0  0  0  0  0  0
  -29.7205  -15.8474   20.6566 N   0  0  0  0  0  0
  -31.0641  -17.7879   19.1832 S   0  0  0  0  0  0
  -31.4671  -12.5775   19.1687 H   0  0  0  0  0  0
  -30.3559  -11.4603   19.9248 H   0  0  0  0  0  0
  -29.7561  -11.7721   17.4890 H   0  0  0  0  0  0
  -29.6411  -13.4947   17.7301 H   0  0  0  0  0  0
  -27.8087  -11.3245   18.7936 H   0  0  0  0  0  0
  -27.3846  -12.6646   17.7792 H   0  0  0  0  0  0
  -27.6332  -14.2689   19.5313 H   0  0  0  0  0  0
  -28.7228  -12.0790   21.3523 H   0  0  0  0  0  0
  -28.4294  -13.7099   21.8605 H   0  0  0  0  0  0
  -25.2801   -9.5632   22.4726 H   0  0  0  0  0  0
  -24.0078   -7.4545   22.7505 H   0  0  0  0  0  0
  -21.0872   -8.8648   19.8876 H   0  0  0  0  0  0
  -22.3715  -10.9613   19.6114 H   0  0  0  0  0  0
  -21.2006   -7.6188   23.9739 H   0  0  0  0  0  0
  -21.1517   -6.0583   25.9122 H   0  0  0  0  0  0
  -22.0589   -2.7600   23.2894 H   0  0  0  0  0  0
  -22.4224  -11.9723   22.4685 H   0  0  0  0  0  0
  -21.1078  -13.0987   22.2672 H   0  0  0  0  0  0
  -24.6273  -15.8265   20.4821 H   0  0  0  0  0  0
  -26.2449  -15.6343   20.0528 H   0  0  0  0  0  0
  -26.7246  -32.5221   23.0976 H   0  0  0  0  0  0
  -25.0111  -33.9664   25.0323 H   0  0  0  0  0  0
  -22.7365  -31.3039   21.3920 H   0  0  0  0  0  0
  -23.3844  -35.9411   23.3248 H   0  0  0  0  0  0
  -24.3549  -36.8893   22.2061 H   0  0  0  0  0  0
  -23.7165  -37.6303   23.6749 H   0  0  0  0  0  0
  -26.1969  -31.5082   20.6756 H   0  0  0  0  0  0
  -26.8356  -30.7147   22.0841 H   0  0  0  0  0  0
  -28.0993  -28.8289   21.2170 H   0  0  0  0  0  0
  -25.8867  -25.9145   18.9264 H   0  0  0  0  0  0
  -23.9871  -27.3821   18.8734 H   0  0  0  0  0  0
  -23.7444  -30.5971   19.3901 H   0  0  0  0  0  0
  -22.7654  -29.2468   19.8557 H   0  0  0  0  0  0
  -25.1353  -36.1817   25.0798 H   0  0  0  0  0  0
  -21.0049  -28.3381   24.1330 H   0  0  0  0  0  0
  -20.5747  -26.2366   23.3621 H   0  0  0  0  0  0
  -21.6667  -26.7472   22.1201 H   0  0  0  0  0  0
  -19.6953  -25.6277   21.1301 H   0  0  0  0  0  0
  -19.6718  -27.3135   20.6698 H   0  0  0  0  0  0
  -17.4228  -26.6717   21.4036 H   0  0  0  0  0  0
  -18.0346  -26.0076   22.9013 H   0  0  0  0  0  0
  -19.7935  -30.7304   24.2249 H   0  0  0  0  0  0
  -17.5035  -31.6306   24.5140 H   0  0  0  0  0  0
  -15.5390  -30.3029   23.7617 H   0  0  0  0  0  0
  -15.8712  -28.0810   22.7154 H   0  0  0  0  0  0
  -24.5823  -30.7163   25.7649 H   0  0  0  0  0  0
  -24.8887  -32.2937   26.4811 H   0  0  0  0  0  0
  -25.7921  -30.8866   27.0186 H   0  0  0  0  0  0
  -26.3106  -29.6654   24.1381 H   0  0  0  0  0  0
  -27.3832  -29.7280   25.5118 H   0  0  0  0  0  0
  -27.9069  -30.4107   23.9925 H   0  0  0  0  0  0
  -27.2505  -33.3673   26.2068 H   0  0  0  0  0  0
  -28.3802  -32.7017   25.0433 H   0  0  0  0  0  0
  -28.0629  -31.8590   26.5519 H   0  0  0  0  0  0
  -28.2520  -38.0162   24.7643 H   0  0  0  0  0  0
  -28.1206  -36.2706   24.6133 H   0  0  0  0  0  0
  -27.2304  -37.1204   25.8828 H   0  0  0  0  0  0
  -20.9374  -29.8713   21.6672 H   0  0  0  0  0  0
  -26.0141  -38.2776   24.1523 H   0  0  0  0  0  0
  -28.2371  -18.2980   21.3316 H   0  0  0  0  0  0
  -26.0973  -22.9490   20.2978 H   0  0  0  0  0  0
  -26.8854  -22.5952   18.7751 H   0  0  0  0  0  0
  -26.9835  -20.4621   19.5317 H   0  0  0  0  0  0
  -26.9086  -20.8894   21.2384 H   0  0  0  0  0  0
  -30.2445  -22.6080   20.6492 H   0  0  0  0  0  0
  -29.6473  -22.3638   19.0143 H   0  0  0  0  0  0
  -28.1783  -23.7575   21.2843 H   0  0  0  0  0  0
  -30.4413  -20.8717   17.5734 H   0  0  0  0  0  0
  -31.9322  -19.9609   17.6083 H   0  0  0  0  0  0
  -31.7051  -21.2254   18.7814 H   0  0  0  0  0  0
  -30.4138  -24.4167   18.4248 H   0  0  0  0  0  0
  -30.5841  -24.7932   20.1306 H   0  0  0  0  0  0
  -30.3579  -26.0734   18.9575 H   0  0  0  0  0  0
  -28.4731  -23.9950   17.4326 H   0  0  0  0  0  0
  -28.2450  -25.7282   17.3587 H   0  0  0  0  0  0
  -26.9346  -24.6447   17.8020 H   0  0  0  0  0  0
  -28.8115  -15.5767   21.0090 H   0  0  0  0  0  0
  1 25  1  0  0  0
  1 30  2  0  0  0
  1 84  1  0  0  0
  2  3  1  0  0  0
  2 25  1  0  0  0
  2 86  1  0  0  0
  2 87  1  0  0  0
  3  4  1  0  0  0
  3 88  1  0  0  0
  3 89  1  0  0  0
  4  5  1  0  0  0
  4 90  1  0  0  0
  4 91  1  0  0  0
  5  6  1  0  0  0
  5 26  1  0  0  0
  5 92  1  0  0  0
  6 25  1  0  0  0
  6 93  1  0  0  0
  6 94  1  0  0  0
  7  8  2  0  0  0
  7 26  1  0  0  0
  7 29  1  0  0  0
  8  9  1  0  0  0
  8 22  1  0  0  0
  9 10  1  0  0  0
  9 27  2  0  0  0
 10 11  2  0  0  0
 10 15  1  0  0  0
 11 12  1  0  0  0
 11 95  1  0  0  0
 12 13  2  0  0  0
 12 96  1  0  0  0
 13 14  1  0  0  0
 13 31  1  0  0  0
 14 15  2  0  0  0
 14 97  1  0  0  0
 15 98  1  0  0  0
 16 17  2  0  0  0
 16 21  1  0  0  0
 16 31  1  0  0  0
 17 18  1  0  0  0
 17 99  1  0  0  0
 18 19  2  0  0  0
 18100  1  0  0  0
 19 20  1  0  0  0
 19 24  1  0  0  0
 20 21  2  0  0  0
 20101  1  0  0  0
 21 23  1  0  0  0
 22 28  1  0  0  0
 22 32  2  0  0  0
 26 27  1  0  0  0
 28102  1  0  0  0
 28103  1  0  0  0
 29104  1  0  0  0
 29105  1  0  0  0
 33 34  1  0  0  0
 33 66  1  0  0  0
 33 70  2  0  0  0
 34 36  1  0  0  0
 34 59  1  0  0  0
 34106  1  0  0  0
 35 44  2  0  0  0
 35 45  1  0  0  0
 35 68  1  0  0  0
 36 56  1  0  0  0
 36107  1  0  0  0
 37 39  1  0  0  0
 37 47  1  0  0  0
 37 66  1  0  0  0
 37108  1  0  0  0
 38 43  2  0  0  0
 38 46  1  0  0  0
 38 47  1  0  0  0
 39 64  1  0  0  0
 39 67  2  0  0  0
 40 52  1  0  0  0
 40 53  2  0  0  0
 40 58  1  0  0  0
 41109  1  0  0  0
 41110  1  0  0  0
 41111  1  0  0  0
 41 48  1  0  0  0
 42 43  1  0  0  0
 42 66  1  0  0  0
 42112  1  0  0  0
 42113  1  0  0  0
 43 44  1  0  0  0
 44114  1  0  0  0
 45 46  2  0  0  0
 45115  1  0  0  0
 46116  1  0  0  0
 47117  1  0  0  0
 47118  1  0  0  0
 48 56  1  0  0  0
 48 65  1  0  0  0
 48119  1  0  0  0
 49 50  1  0  0  0
 49 53  1  0  0  0
 49 64  1  0  0  0
 49120  1  0  0  0
 50 51  1  0  0  0
 50121  1  0  0  0
 50122  1  0  0  0
 51 52  1  0  0  0
 51123  1  0  0  0
 51124  1  0  0  0
 52125  1  0  0  0
 52126  1  0  0  0
 53 54  1  0  0  0
 54 55  2  0  0  0
 54127  1  0  0  0
 55 57  1  0  0  0
 55128  1  0  0  0
 56 69  2  0  0  0
 57 58  2  0  0  0
 57129  1  0  0  0
 58130  1  0  0  0
 59 60  1  0  0  0
 59 61  1  0  0  0
 59 62  1  0  0  0
 60131  1  0  0  0
 60132  1  0  0  0
 60133  1  0  0  0
 61134  1  0  0  0
 61135  1  0  0  0
 61136  1  0  0  0
 62137  1  0  0  0
 62138  1  0  0  0
 62139  1  0  0  0
 63 65  1  0  0  0
 63140  1  0  0  0
 63141  1  0  0  0
 63142  1  0  0  0
 64143  1  0  0  0
 65144  1  0  0  0
 68 82  1  0  0  0
 71 72  1  0  0  0
 71 74  2  0  0  0
 71145  1  0  0  0
 72 73  2  0  0  0
 72 83  1  0  0  0
 73 79  1  0  0  0
 73 85  1  0  0  0
 74 84  1  0  0  0
 74 85  1  0  0  0
 75 76  1  0  0  0
 75146  1  0  0  0
 75147  1  0  0  0
 75 78  1  0  0  0
 76 83  1  0  0  0
 76148  1  0  0  0
 76149  1  0  0  0
 77 78  1  0  0  0
 77 83  1  0  0  0
 77150  1  0  0  0
 77151  1  0  0  0
 78 82  1  0  0  0
 78152  1  0  0  0
 79153  1  0  0  0
 79154  1  0  0  0
 79155  1  0  0  0
 80156  1  0  0  0
 80157  1  0  0  0
 80158  1  0  0  0
 80 82  1  0  0  0
 81 82  1  0  0  0
 81159  1  0  0  0
 81160  1  0  0  0
 81161  1  0  0  0
 84162  1  0  0  0
M  ISO  4   1 100  68 101  82 101  84 100
M  END
> <chiral flag>
0

> <version>
0

> <s_m_source_file>
/data/baiqing/PycharmProjects/Reinvent-master-3.2/result/LINK_invent/BTK/process_docking_weight1_custom_product_contain_oxygen_bond_distance_aromatic_linkinvent_7_9_3/rearranged_h_0144.sdf

> <i_m_source_file_index>
87

> <r_mmod_Potential_Energy-OPLS-2005>
340.296661376953

> <r_mmod_Stretch_Energy-OPLS-2005>
149.475173950195

> <r_mmod_Bend_Energy-OPLS-2005>
255.651748657227

> <r_mmod_Torsional_Energy-OPLS-2005>
300.437622070312

> <r_mmod_Improper_Torsional_Energy-OPLS-2005>
7.19122934341431

> <r_mmod_Van_der_Waal_Energy-OPLS-2005>
127.751022338867

> <r_mmod_Electrostatic_Energy-OPLS-2005>
-371.967376708984

> <r_mmod_Solvation_Energy-OPLS-2005>
-226.186141967773

> <b_mmod_Minimization_Converged-OPLS-2005>
0

> <r_mmod_RMS_Derivative-OPLS-2005>
10.9031963348389

$$$$
87
                    3D
 Structure written by MMmdl.
157166  0  0  1  0            999 V2000
  -30.6719  -14.6213   20.5012 C   0  0  0  0  0  0
  -30.4214  -12.3870   19.4478 C   0  0  0  0  0  0
  -29.4975  -12.5031   18.2178 C   0  0  0  0  0  0
  -28.0222  -12.3442   18.6336 C   0  0  0  0  0  0
  -27.6462  -13.2238   19.8558 C   0  0  2  0  0  0
  -28.6936  -13.1109   20.9864 C   0  0  0  0  0  0
  -25.2532  -13.8184   20.5705 C   0  0  0  0  0  0
  -24.1815  -13.0443   20.9213 C   0  0  0  0  0  0
  -24.6392  -11.6916   20.8755 C   0  0  0  0  0  0
  -23.9069  -10.4295   21.0415 C   0  0  0  0  0  0
  -24.3618   -9.4211   21.9193 C   0  0  0  0  0  0
  -23.6301   -8.2245   22.0760 C   0  0  0  0  0  0
  -22.4284   -8.0281   21.3549 C   0  0  0  0  0  0
  -21.9922   -9.0252   20.4649 C   0  0  0  0  0  0
  -22.7244  -10.2138   20.3059 C   0  0  0  0  0  0
  -21.6854   -6.0743   22.5280 C   0  0  0  0  0  0
  -21.4011   -6.5649   23.8213 C   0  0  0  0  0  0
  -21.3662   -5.6803   24.9178 C   0  0  0  0  0  0
  -21.6044   -4.3063   24.7230 C   0  0  0  0  0  0
  -21.8815   -3.8155   23.4352 C   0  0  0  0  0  0
  -21.9192   -4.6971   22.3405 C   0  0  0  0  0  0
  -22.7839  -13.5227   21.1875 C   0  0  0  0  0  0
  -22.1661   -4.2158   21.0983 F   0  0  0  0  0  0
  -21.5630   -3.4546   25.7743 F   0  0  0  0  0  0
  -30.0059  -13.4286   20.4078 N   0  0  0  0  0  0
  -26.2961  -12.9379   20.3313 N   0  0  0  0  0  0
  -25.9318  -11.6531   20.5759 N   0  0  0  0  0  0
  -22.0474  -12.8217   22.0417 N   0  0  0  0  0  0
  -25.4237  -15.1913   20.4133 N   0  0  0  0  0  0
  -31.8548  -14.7085   20.1607 O   0  0  0  0  0  0
  -21.6639   -6.8888   21.4242 O   0  0  0  0  0  0
  -22.3534  -14.5544   20.6733 O   0  0  0  0  0  0
  -24.6207  -31.8608   23.2039 C   0  0  0  0  0  0
  -25.9059  -32.4794   23.8365 C   0  0  1  0  0  0
  -27.2380  -27.3461   20.1120 C   0  0  0  0  0  0
  -25.5879  -33.8596   24.2281 N   0  0  0  0  0  0
  -23.4127  -30.4830   21.5463 C   0  0  2  0  0  0
  -24.8617  -28.9379   20.1140 C   0  0  0  0  0  0
  -22.7426  -29.4627   22.4957 C   0  0  0  0  0  0
  -18.0270  -28.1378   22.8506 C   0  0  0  0  0  0
  -24.1478  -36.7286   23.2643 C   0  0  0  0  0  0
  -25.9503  -30.8011   21.3704 C   0  0  0  0  0  0
  -26.0266  -29.4297   20.7141 C   0  0  0  0  0  0
  -27.2122  -28.6428   20.7064 C   0  0  0  0  0  0
  -26.0386  -26.8857   19.5182 C   0  0  0  0  0  0
  -24.8681  -27.6697   19.5124 C   0  0  0  0  0  0
  -23.6239  -29.8104   20.1638 C   0  0  0  0  0  0
  -25.4107  -36.3094   24.0334 C   0  0  1  0  0  0
  -20.5860  -28.3670   23.1301 C   0  0  2  0  0  0
  -20.6740  -26.9390   22.5425 C   0  0  0  0  0  0
  -19.5724  -26.6382   21.5215 C   0  0  0  0  0  0
  -18.1903  -26.7931   22.1626 C   0  0  0  0  0  0
  -19.1522  -28.8841   23.2903 C   0  0  0  0  0  0
  -18.9451  -30.1448   23.8916 C   0  0  0  0  0  0
  -17.6456  -30.6591   24.0564 C   0  0  0  0  0  0
  -25.9045  -34.9466   23.5114 C   0  0  0  0  0  0
  -16.5345  -29.9087   23.6341 C   0  0  0  0  0  0
  -16.7263  -28.6497   23.0376 C   0  0  0  0  0  0
  -26.4469  -31.6621   25.0741 C   0  0  0  0  0  0
  -25.3711  -31.3727   26.1470 C   0  0  0  0  0  0
  -27.0335  -30.3060   24.6197 C   0  0  0  0  0  0
  -27.6034  -32.4370   25.7490 C   0  0  0  0  0  0
  -27.5593  -37.1774   24.8454 C   0  0  0  0  0  0
  -21.4139  -29.3033   22.3699 N   0  0  0  0  0  0
  -26.4277  -37.3801   23.9443 N   0  0  0  0  0  0
  -24.6796  -31.0640   22.0979 N   0  0  0  0  0  0
  -23.4168  -28.8166   23.3022 O   0  0  0  0  0  0
  -28.4011  -26.5678   20.1702 O   0  0  0  0  0  0
  -26.5631  -34.8924   22.4692 O   0  0  0  0  0  0
  -23.5381  -32.1397   23.7391 O   0  0  0  0  0  0
  -29.5544  -18.3046   20.4850 C   0  0  0  0  0  0
  -31.6004  -17.5013   21.2968 C   0  0  0  0  0  0
  -30.3606  -17.1389   20.8359 C   0  0  0  0  0  0
  -30.2132  -19.5291   20.6288 C   0  0  0  0  0  0
  -30.1641  -22.0937   21.3028 C   0  0  0  0  0  0
  -28.4012  -21.2847   19.7838 C   0  0  0  0  0  0
  -30.0190  -23.5550   20.7545 C   0  0  0  0  0  0
  -28.2387  -22.7336   19.2073 C   0  0  0  0  0  0
  -29.8473  -20.9915   20.2460 C   0  0  2  0  0  0
  -28.6201  -23.9071   20.1654 C   0  0  2  0  0  0
  -28.5582  -25.3154   19.4210 C   0  0  0  0  0  0
  -29.9249  -15.7458   20.7528 N   0  0  0  0  0  0
  -31.8236  -19.2317   21.2593 S   0  0  0  0  0  0
  -31.4646  -12.4868   19.1442 H   0  0  0  0  0  0
  -30.3340  -11.3991   19.9013 H   0  0  0  0  0  0
  -29.7577  -11.7488   17.4738 H   0  0  0  0  0  0
  -29.6415  -13.4718   17.7354 H   0  0  0  0  0  0
  -27.8598  -11.2924   18.8706 H   0  0  0  0  0  0
  -27.3664  -12.5693   17.7916 H   0  0  0  0  0  0
  -27.6548  -14.2545   19.5013 H   0  0  0  0  0  0
  -28.7019  -12.1036   21.4053 H   0  0  0  0  0  0
  -28.4484  -13.7806   21.8132 H   0  0  0  0  0  0
  -25.2755   -9.5690   22.4779 H   0  0  0  0  0  0
  -24.0013   -7.4635   22.7476 H   0  0  0  0  0  0
  -21.0859   -8.8769   19.8948 H   0  0  0  0  0  0
  -22.3699  -10.9683   19.6174 H   0  0  0  0  0  0
  -21.1998   -7.6152   23.9723 H   0  0  0  0  0  0
  -21.1487   -6.0532   25.9085 H   0  0  0  0  0  0
  -22.0589   -2.7617   23.2851 H   0  0  0  0  0  0
  -22.4082  -11.9861   22.4784 H   0  0  0  0  0  0
  -21.1091  -13.1237   22.2616 H   0  0  0  0  0  0
  -24.6556  -15.8446   20.5240 H   0  0  0  0  0  0
  -26.2695  -15.6317   20.0757 H   0  0  0  0  0  0
  -26.7123  -32.5479   23.1112 H   0  0  0  0  0  0
  -24.9977  -33.9740   25.0394 H   0  0  0  0  0  0
  -22.7067  -31.3036   21.4018 H   0  0  0  0  0  0
  -23.3778  -35.9573   23.3253 H   0  0  0  0  0  0
  -24.3583  -36.8978   22.2071 H   0  0  0  0  0  0
  -23.7178  -37.6443   23.6708 H   0  0  0  0  0  0
  -26.0758  -31.5655   20.6026 H   0  0  0  0  0  0
  -26.8311  -30.8520   21.9982 H   0  0  0  0  0  0
  -28.1072  -29.0193   21.1813 H   0  0  0  0  0  0
  -25.9607  -25.9007   19.0855 H   0  0  0  0  0  0
  -23.9674  -27.2773   19.0605 H   0  0  0  0  0  0
  -23.7242  -30.5804   19.3979 H   0  0  0  0  0  0
  -22.7484  -29.2250   19.8757 H   0  0  0  0  0  0
  -25.1282  -36.1941   25.0821 H   0  0  0  0  0  0
  -20.9965  -28.3244   24.1418 H   0  0  0  0  0  0
  -20.5609  -26.2274   23.3618 H   0  0  0  0  0  0
  -21.6612  -26.7392   22.1248 H   0  0  0  0  0  0
  -19.6868  -25.6294   21.1238 H   0  0  0  0  0  0
  -19.6666  -27.3191   20.6744 H   0  0  0  0  0  0
  -17.4164  -26.6700   21.4027 H   0  0  0  0  0  0
  -18.0292  -26.0060   22.9006 H   0  0  0  0  0  0
  -19.7926  -30.7259   24.2296 H   0  0  0  0  0  0
  -17.5009  -31.6280   24.5149 H   0  0  0  0  0  0
  -15.5344  -30.2993   23.7665 H   0  0  0  0  0  0
  -15.8658  -28.0816   22.7110 H   0  0  0  0  0  0
  -24.5878  -30.7092   25.7783 H   0  0  0  0  0  0
  -24.8893  -32.2874   26.4937 H   0  0  0  0  0  0
  -25.8038  -30.8868   27.0225 H   0  0  0  0  0  0
  -26.2918  -29.6792   24.1231 H   0  0  0  0  0  0
  -27.4055  -29.7346   25.4714 H   0  0  0  0  0  0
  -27.8768  -30.4379   23.9414 H   0  0  0  0  0  0
  -27.2669  -33.3693   26.2040 H   0  0  0  0  0  0
  -28.3836  -32.6911   25.0301 H   0  0  0  0  0  0
  -28.0706  -31.8517   26.5419 H   0  0  0  0  0  0
  -28.2546  -38.0136   24.7632 H   0  0  0  0  0  0
  -28.1158  -36.2682   24.6127 H   0  0  0  0  0  0
  -27.2328  -37.1249   25.8855 H   0  0  0  0  0  0
  -20.9292  -29.8773   21.6941 H   0  0  0  0  0  0
  -26.0157  -38.2851   24.1550 H   0  0  0  0  0  0
  -28.5497  -18.2055   20.0984 H   0  0  0  0  0  0
  -32.4110  -16.8710   21.6453 H   0  0  0  0  0  0
  -29.5238  -21.9602   22.1750 H   0  0  0  0  0  0
  -31.1862  -21.9781   21.6638 H   0  0  0  0  0  0
  -28.1183  -20.5680   19.0126 H   0  0  0  0  0  0
  -27.7103  -21.1323   20.6141 H   0  0  0  0  0  0
  -30.7760  -23.6997   19.9820 H   0  0  0  0  0  0
  -30.2657  -24.2675   21.5430 H   0  0  0  0  0  0
  -27.2094  -22.8700   18.8746 H   0  0  0  0  0  0
  -28.8498  -22.8119   18.3062 H   0  0  0  0  0  0
  -30.4843  -21.2161   19.3888 H   0  0  0  0  0  0
  -27.8919  -23.9185   20.9775 H   0  0  0  0  0  0
  -27.8478  -25.2562   18.6004 H   0  0  0  0  0  0
  -29.5041  -25.4310   18.8917 H   0  0  0  0  0  0
  -28.9322  -15.5866   20.8315 H   0  0  0  0  0  0
  1 25  1  0  0  0
  1 30  2  0  0  0
  1 82  1  0  0  0
  2  3  1  0  0  0
  2 25  1  0  0  0
  2 84  1  0  0  0
  2 85  1  0  0  0
  3  4  1  0  0  0
  3 86  1  0  0  0
  3 87  1  0  0  0
  4  5  1  0  0  0
  4 88  1  0  0  0
  4 89  1  0  0  0
  5  6  1  0  0  0
  5 26  1  0  0  0
  5 90  1  0  0  0
  6 25  1  0  0  0
  6 91  1  0  0  0
  6 92  1  0  0  0
  7  8  2  0  0  0
  7 26  1  0  0  0
  7 29  1  0  0  0
  8  9  1  0  0  0
  8 22  1  0  0  0
  9 10  1  0  0  0
  9 27  2  0  0  0
 10 11  2  0  0  0
 10 15  1  0  0  0
 11 12  1  0  0  0
 11 93  1  0  0  0
 12 13  2  0  0  0
 12 94  1  0  0  0
 13 14  1  0  0  0
 13 31  1  0  0  0
 14 15  2  0  0  0
 14 95  1  0  0  0
 15 96  1  0  0  0
 16 17  2  0  0  0
 16 21  1  0  0  0
 16 31  1  0  0  0
 17 18  1  0  0  0
 17 97  1  0  0  0
 18 19  2  0  0  0
 18 98  1  0  0  0
 19 20  1  0  0  0
 19 24  1  0  0  0
 20 21  2  0  0  0
 20 99  1  0  0  0
 21 23  1  0  0  0
 22 28  1  0  0  0
 22 32  2  0  0  0
 26 27  1  0  0  0
 28100  1  0  0  0
 28101  1  0  0  0
 29102  1  0  0  0
 29103  1  0  0  0
 33 34  1  0  0  0
 33 66  1  0  0  0
 33 70  2  0  0  0
 34 36  1  0  0  0
 34 59  1  0  0  0
 34104  1  0  0  0
 35 44  2  0  0  0
 35 45  1  0  0  0
 35 68  1  0  0  0
 36 56  1  0  0  0
 36105  1  0  0  0
 37 39  1  0  0  0
 37 47  1  0  0  0
 37 66  1  0  0  0
 37106  1  0  0  0
 38 43  2  0  0  0
 38 46  1  0  0  0
 38 47  1  0  0  0
 39 64  1  0  0  0
 39 67  2  0  0  0
 40 52  1  0  0  0
 40 53  2  0  0  0
 40 58  1  0  0  0
 41107  1  0  0  0
 41108  1  0  0  0
 41109  1  0  0  0
 41 48  1  0  0  0
 42 43  1  0  0  0
 42 66  1  0  0  0
 42110  1  0  0  0
 42111  1  0  0  0
 43 44  1  0  0  0
 44112  1  0  0  0
 45 46  2  0  0  0
 45113  1  0  0  0
 46114  1  0  0  0
 47115  1  0  0  0
 47116  1  0  0  0
 48 56  1  0  0  0
 48 65  1  0  0  0
 48117  1  0  0  0
 49 50  1  0  0  0
 49 53  1  0  0  0
 49 64  1  0  0  0
 49118  1  0  0  0
 50 51  1  0  0  0
 50119  1  0  0  0
 50120  1  0  0  0
 51 52  1  0  0  0
 51121  1  0  0  0
 51122  1  0  0  0
 52123  1  0  0  0
 52124  1  0  0  0
 53 54  1  0  0  0
 54 55  2  0  0  0
 54125  1  0  0  0
 55 57  1  0  0  0
 55126  1  0  0  0
 56 69  2  0  0  0
 57 58  2  0  0  0
 57127  1  0  0  0
 58128  1  0  0  0
 59 60  1  0  0  0
 59 61  1  0  0  0
 59 62  1  0  0  0
 60129  1  0  0  0
 60130  1  0  0  0
 60131  1  0  0  0
 61132  1  0  0  0
 61133  1  0  0  0
 61134  1  0  0  0
 62135  1  0  0  0
 62136  1  0  0  0
 62137  1  0  0  0
 63 65  1  0  0  0
 63138  1  0  0  0
 63139  1  0  0  0
 63140  1  0  0  0
 64141  1  0  0  0
 65142  1  0  0  0
 68 81  1  0  0  0
 71 73  1  0  0  0
 71 74  2  0  0  0
 71143  1  0  0  0
 72 73  2  0  0  0
 72 83  1  0  0  0
 72144  1  0  0  0
 73 82  1  0  0  0
 74 83  1  0  0  0
 74 79  1  0  0  0
 75 77  1  0  0  0
 75 79  1  0  0  0
 75145  1  0  0  0
 75146  1  0  0  0
 76 78  1  0  0  0
 76 79  1  0  0  0
 76147  1  0  0  0
 76148  1  0  0  0
 77 80  1  0  0  0
 77149  1  0  0  0
 77150  1  0  0  0
 78 80  1  0  0  0
 78151  1  0  0  0
 78152  1  0  0  0
 79153  1  0  0  0
 80 81  1  0  0  0
 80154  1  0  0  0
 81155  1  0  0  0
 81156  1  0  0  0
 82157  1  0  0  0
M  ISO  4   1 100  68 101  81 101  82 100
M  END
> <chiral flag>
0

> <version>
0

> <s_m_source_file>
/data/baiqing/PycharmProjects/Reinvent-master-3.2/result/LINK_invent/BTK/process_docking_weight1_custom_product_contain_oxygen_bond_distance_aromatic_linkinvent_7_9_3/rearranged_h_0144.sdf

> <i_m_source_file_index>
88

> <r_mmod_Potential_Energy-OPLS-2005>
66.9737396240234

> <r_mmod_Stretch_Energy-OPLS-2005>
69.0702285766602

> <r_mmod_Bend_Energy-OPLS-2005>
147.313461303711

> <r_mmod_Torsional_Energy-OPLS-2005>
225.092590332031

> <r_mmod_Improper_Torsional_Energy-OPLS-2005>
5.71179056167603

> <r_mmod_Van_der_Waal_Energy-OPLS-2005>
128.613876342773

> <r_mmod_Electrostatic_Energy-OPLS-2005>
-345.445037841797

> <r_mmod_Solvation_Energy-OPLS-2005>
-204.188323974609

> <b_mmod_Minimization_Converged-OPLS-2005>
0

> <r_mmod_RMS_Derivative-OPLS-2005>
1.58339405059814

$$$$
88
                    3D
 Structure written by MMmdl.
189197  0  0  1  0            999 V2000
  -30.7866  -14.4217   20.4067 C   0  0  0  0  0  0
  -30.3920  -12.2440   19.4159 C   0  0  0  0  0  0
  -29.4834  -12.4542   18.1924 C   0  0  0  0  0  0
  -28.0038  -12.3517   18.6097 C   0  0  0  0  0  0
  -27.6495  -13.2192   19.8501 C   0  0  2  0  0  0
  -28.7090  -13.0836   20.9686 C   0  0  0  0  0  0
  -25.2572  -13.8167   20.5696 C   0  0  0  0  0  0
  -24.1842  -13.0448   20.9214 C   0  0  0  0  0  0
  -24.6402  -11.6910   20.8765 C   0  0  0  0  0  0
  -23.9064  -10.4304   21.0413 C   0  0  0  0  0  0
  -24.3614   -9.4243   21.9202 C   0  0  0  0  0  0
  -23.6307   -8.2277   22.0767 C   0  0  0  0  0  0
  -22.4303   -8.0294   21.3560 C   0  0  0  0  0  0
  -21.9920   -9.0262   20.4662 C   0  0  0  0  0  0
  -22.7228  -10.2164   20.3076 C   0  0  0  0  0  0
  -21.6870   -6.0740   22.5301 C   0  0  0  0  0  0
  -21.3998   -6.5640   23.8227 C   0  0  0  0  0  0
  -21.3674   -5.6795   24.9202 C   0  0  0  0  0  0
  -21.6067   -4.3052   24.7255 C   0  0  0  0  0  0
  -21.8818   -3.8148   23.4365 C   0  0  0  0  0  0
  -21.9203   -4.6967   22.3422 C   0  0  0  0  0  0
  -22.7872  -13.5257   21.1879 C   0  0  0  0  0  0
  -22.1668   -4.2142   21.0998 F   0  0  0  0  0  0
  -21.5651   -3.4534   25.7763 F   0  0  0  0  0  0
  -30.0393  -13.2901   20.3788 N   0  0  0  0  0  0
  -26.3008  -12.9364   20.3341 N   0  0  0  0  0  0
  -25.9334  -11.6510   20.5771 N   0  0  0  0  0  0
  -22.0484  -12.8244   22.0398 N   0  0  0  0  0  0
  -25.4287  -15.1897   20.4103 N   0  0  0  0  0  0
  -32.0133  -14.4057   20.3634 O   0  0  0  0  0  0
  -21.6680   -6.8892   21.4263 O   0  0  0  0  0  0
  -22.3587  -14.5580   20.6743 O   0  0  0  0  0  0
  -24.6097  -31.8714   23.2122 C   0  0  0  0  0  0
  -25.8998  -32.4864   23.8397 C   0  0  1  0  0  0
  -27.2398  -27.5011   20.1007 C   0  0  0  0  0  0
  -25.5874  -33.8665   24.2349 N   0  0  0  0  0  0
  -23.3950  -30.4887   21.5561 C   0  0  2  0  0  0
  -24.8376  -28.9620   20.1093 C   0  0  0  0  0  0
  -22.7399  -29.4678   22.5111 C   0  0  0  0  0  0
  -18.0261  -28.1395   22.8514 C   0  0  0  0  0  0
  -24.1485  -36.7330   23.2636 C   0  0  0  0  0  0
  -25.9057  -30.8684   21.3395 C   0  0  0  0  0  0
  -25.9892  -29.5046   20.6945 C   0  0  0  0  0  0
  -27.1955  -28.7854   20.6759 C   0  0  0  0  0  0
  -26.0860  -26.9621   19.4961 C   0  0  0  0  0  0
  -24.8823  -27.6946   19.4981 C   0  0  0  0  0  0
  -23.5887  -29.8070   20.1712 C   0  0  0  0  0  0
  -25.4108  -36.3142   24.0341 C   0  0  1  0  0  0
  -20.5837  -28.3660   23.1372 C   0  0  2  0  0  0
  -20.6768  -26.9409   22.5437 C   0  0  0  0  0  0
  -19.5727  -26.6388   21.5258 C   0  0  0  0  0  0
  -18.1891  -26.7943   22.1640 C   0  0  0  0  0  0
  -19.1508  -28.8848   23.2938 C   0  0  0  0  0  0
  -18.9438  -30.1456   23.8938 C   0  0  0  0  0  0
  -17.6435  -30.6602   24.0573 C   0  0  0  0  0  0
  -25.9021  -34.9509   23.5159 C   0  0  0  0  0  0
  -16.5322  -29.9102   23.6340 C   0  0  0  0  0  0
  -16.7251  -28.6525   23.0361 C   0  0  0  0  0  0
  -26.4412  -31.6629   25.0722 C   0  0  0  0  0  0
  -25.3667  -31.3718   26.1478 C   0  0  0  0  0  0
  -27.0254  -30.3113   24.5998 C   0  0  0  0  0  0
  -27.6042  -32.4333   25.7449 C   0  0  0  0  0  0
  -27.5592  -37.1806   24.8457 C   0  0  0  0  0  0
  -21.4137  -29.3036   22.3839 N   0  0  0  0  0  0
  -26.4299  -37.3827   23.9426 N   0  0  0  0  0  0
  -24.6575  -31.0851   22.0990 N   0  0  0  0  0  0
  -23.4205  -28.8257   23.3153 O   0  0  0  0  0  0
  -28.4091  -26.7944   20.1390 O   0  0  0  0  0  0
  -26.5568  -34.8942   22.4714 O   0  0  0  0  0  0
  -23.5312  -32.1430   23.7544 O   0  0  0  0  0  0
  -32.2436  -18.7148   18.2829 C   0  0  0  0  0  0
  -31.6016  -16.4020   18.2956 C   0  0  0  0  0  0
  -32.3730  -17.4380   17.7317 C   0  0  0  0  0  0
  -31.3601  -18.9179   19.3515 C   0  0  0  0  0  0
  -30.7798  -16.6524   19.4279 C   0  0  0  0  0  0
  -33.1638  -26.1012   18.0848 C   0  0  0  0  0  0
  -28.9156  -23.4989   21.7737 C   0  0  0  0  0  0
  -31.9859  -26.8888   17.5187 C   0  0  0  0  0  0
  -34.8156  -17.3496   17.0912 C   0  0  0  0  0  0
  -28.1256  -26.6023   22.6610 C   0  0  0  0  0  0
  -33.2737  -26.8870   20.4764 C   0  0  0  0  0  0
  -34.3603  -24.7435   19.8652 C   0  0  0  0  0  0
  -33.3672  -17.1941   16.6097 C   0  0  0  0  0  0
  -31.2603  -20.3139   19.9462 C   0  0  0  0  0  0
  -28.0966  -24.5793   21.0417 C   0  0  0  0  0  0
  -31.6726  -23.4231   19.4882 C   0  0  0  0  0  0
  -31.8053  -24.8963   19.9458 C   0  0  0  0  0  0
  -30.2905  -22.7404   19.7467 C   0  0  1  0  0  0
  -28.6227  -26.0021   21.3191 C   0  0  1  0  0  0
  -30.2294  -21.2590   19.2613 C   0  0  1  0  0  0
  -33.1323  -25.6415   19.5719 C   0  0  0  0  0  0
  -30.6350  -17.9146   19.9095 N   0  0  0  0  0  0
  -30.1384  -15.5525   20.0755 N   0  0  0  0  0  0
  -29.8894  -22.7995   21.1578 N   0  0  0  0  0  0
  -34.1434  -25.8944   17.3642 O   0  0  0  0  0  0
  -28.6781  -23.2843   22.9608 O   0  0  0  0  0  0
  -30.3624  -21.2751   17.8497 O   0  0  0  0  0  0
  -31.4382  -12.2777   19.1099 H   0  0  0  0  0  0
  -30.2289  -11.2583   19.8555 H   0  0  0  0  0  0
  -29.7036  -11.7078   17.4255 H   0  0  0  0  0  0
  -29.6823  -13.4272   17.7406 H   0  0  0  0  0  0
  -27.7990  -11.3016   18.8167 H   0  0  0  0  0  0
  -27.3661  -12.6138   17.7649 H   0  0  0  0  0  0
  -27.6616  -14.2555   19.5129 H   0  0  0  0  0  0
  -28.6589  -12.0937   21.4239 H   0  0  0  0  0  0
  -28.5190  -13.8020   21.7710 H   0  0  0  0  0  0
  -25.2751   -9.5744   22.4787 H   0  0  0  0  0  0
  -24.0048   -7.4664   22.7446 H   0  0  0  0  0  0
  -21.0875   -8.8753   19.8927 H   0  0  0  0  0  0
  -22.3660  -10.9712   19.6188 H   0  0  0  0  0  0
  -21.1936   -7.6139   23.9724 H   0  0  0  0  0  0
  -21.1509   -6.0531   25.9104 H   0  0  0  0  0  0
  -22.0570   -2.7604   23.2889 H   0  0  0  0  0  0
  -22.4041  -11.9915   22.4837 H   0  0  0  0  0  0
  -21.1102  -13.1300   22.2519 H   0  0  0  0  0  0
  -24.6639  -15.8478   20.5208 H   0  0  0  0  0  0
  -26.2857  -15.6342   20.1056 H   0  0  0  0  0  0
  -26.7093  -32.5588   23.1193 H   0  0  0  0  0  0
  -25.0079  -33.9836   25.0526 H   0  0  0  0  0  0
  -22.6835  -31.3051   21.4174 H   0  0  0  0  0  0
  -23.3766  -35.9646   23.3299 H   0  0  0  0  0  0
  -24.3598  -36.8952   22.2049 H   0  0  0  0  0  0
  -23.7185  -37.6524   23.6647 H   0  0  0  0  0  0
  -25.9761  -31.6257   20.5561 H   0  0  0  0  0  0
  -26.8135  -30.9465   21.9320 H   0  0  0  0  0  0
  -28.0883  -29.2017   21.1245 H   0  0  0  0  0  0
  -26.1219  -25.9846   19.0343 H   0  0  0  0  0  0
  -24.0003  -27.2819   19.0286 H   0  0  0  0  0  0
  -23.6610  -30.5715   19.3969 H   0  0  0  0  0  0
  -22.7218  -29.1981   19.9034 H   0  0  0  0  0  0
  -25.1259  -36.2032   25.0824 H   0  0  0  0  0  0
  -20.9886  -28.3173   24.1515 H   0  0  0  0  0  0
  -20.5755  -26.2229   23.3612 H   0  0  0  0  0  0
  -21.6621  -26.7518   22.1157 H   0  0  0  0  0  0
  -19.6906  -25.6316   21.1262 H   0  0  0  0  0  0
  -19.6676  -27.3234   20.6820 H   0  0  0  0  0  0
  -17.4189  -26.6756   21.4008 H   0  0  0  0  0  0
  -18.0240  -26.0075   22.9001 H   0  0  0  0  0  0
  -19.7911  -30.7272   24.2317 H   0  0  0  0  0  0
  -17.4986  -31.6280   24.5172 H   0  0  0  0  0  0
  -15.5328  -30.3009   23.7666 H   0  0  0  0  0  0
  -15.8649  -28.0858   22.7064 H   0  0  0  0  0  0
  -24.5864  -30.7045   25.7784 H   0  0  0  0  0  0
  -24.8802  -32.2857   26.4896 H   0  0  0  0  0  0
  -25.7977  -30.8899   27.0253 H   0  0  0  0  0  0
  -26.2775  -29.6904   24.1060 H   0  0  0  0  0  0
  -27.4109  -29.7316   25.4379 H   0  0  0  0  0  0
  -27.8532  -30.4538   23.9070 H   0  0  0  0  0  0
  -27.2743  -33.3665   26.2024 H   0  0  0  0  0  0
  -28.3811  -32.6842   25.0221 H   0  0  0  0  0  0
  -28.0737  -31.8443   26.5336 H   0  0  0  0  0  0
  -28.2584  -38.0122   24.7578 H   0  0  0  0  0  0
  -28.1110  -36.2672   24.6198 H   0  0  0  0  0  0
  -27.2328  -37.1340   25.8856 H   0  0  0  0  0  0
  -20.9348  -29.8714   21.6997 H   0  0  0  0  0  0
  -26.0205  -38.2920   24.1441 H   0  0  0  0  0  0
  -32.8120  -19.5472   17.8901 H   0  0  0  0  0  0
  -31.7064  -15.4037   17.8946 H   0  0  0  0  0  0
  -31.4644  -27.4515   18.2917 H   0  0  0  0  0  0
  -31.2809  -26.2085   17.0444 H   0  0  0  0  0  0
  -32.3303  -27.5867   16.7547 H   0  0  0  0  0  0
  -35.5220  -17.2568   16.2667 H   0  0  0  0  0  0
  -35.0676  -16.5970   17.8411 H   0  0  0  0  0  0
  -34.9775  -18.3328   17.5347 H   0  0  0  0  0  0
  -28.4235  -25.9848   23.5068 H   0  0  0  0  0  0
  -27.0396  -26.6891   22.6949 H   0  0  0  0  0  0
  -28.5408  -27.5967   22.8387 H   0  0  0  0  0  0
  -34.1688  -27.4636   20.2294 H   0  0  0  0  0  0
  -33.3660  -26.5897   21.5231 H   0  0  0  0  0  0
  -32.4181  -27.5566   20.3997 H   0  0  0  0  0  0
  -35.2906  -25.3150   19.8329 H   0  0  0  0  0  0
  -34.4613  -23.9324   19.1441 H   0  0  0  0  0  0
  -34.2916  -24.2962   20.8573 H   0  0  0  0  0  0
  -33.1801  -17.9107   15.8103 H   0  0  0  0  0  0
  -33.2121  -16.2046   16.1771 H   0  0  0  0  0  0
  -32.2692  -20.7234   19.8980 H   0  0  0  0  0  0
  -31.0306  -20.2303   21.0092 H   0  0  0  0  0  0
  -27.0551  -24.5158   21.3567 H   0  0  0  0  0  0
  -28.0465  -24.4057   19.9725 H   0  0  0  0  0  0
  -32.4550  -22.8545   19.9895 H   0  0  0  0  0  0
  -31.8999  -23.3603   18.4238 H   0  0  0  0  0  0
  -31.7023  -24.9098   21.0322 H   0  0  0  0  0  0
  -30.9525  -25.4572   19.5675 H   0  0  0  0  0  0
  -29.5600  -23.2826   19.1505 H   0  0  0  0  0  0
  -29.7057  -25.9622   21.4240 H   0  0  0  0  0  0
  -29.2352  -20.8571   19.4650 H   0  0  0  0  0  0
  -29.1354  -15.5582   20.1334 H   0  0  0  0  0  0
  -30.3649  -22.1440   21.7622 H   0  0  0  0  0  0
  -29.5394  -21.5890   17.4848 H   0  0  0  0  0  0
  1 25  1  0  0  0
  1 30  2  0  0  0
  1 93  1  0  0  0
  2  3  1  0  0  0
  2 25  1  0  0  0
  2 98  1  0  0  0
  2 99  1  0  0  0
  3  4  1  0  0  0
  3100  1  0  0  0
  3101  1  0  0  0
  4  5  1  0  0  0
  4102  1  0  0  0
  4103  1  0  0  0
  5  6  1  0  0  0
  5 26  1  0  0  0
  5104  1  0  0  0
  6 25  1  0  0  0
  6105  1  0  0  0
  6106  1  0  0  0
  7  8  2  0  0  0
  7 26  1  0  0  0
  7 29  1  0  0  0
  8  9  1  0  0  0
  8 22  1  0  0  0
  9 10  1  0  0  0
  9 27  2  0  0  0
 10 11  2  0  0  0
 10 15  1  0  0  0
 11 12  1  0  0  0
 11107  1  0  0  0
 12 13  2  0  0  0
 12108  1  0  0  0
 13 14  1  0  0  0
 13 31  1  0  0  0
 14 15  2  0  0  0
 14109  1  0  0  0
 15110  1  0  0  0
 16 17  2  0  0  0
 16 21  1  0  0  0
 16 31  1  0  0  0
 17 18  1  0  0  0
 17111  1  0  0  0
 18 19  2  0  0  0
 18112  1  0  0  0
 19 20  1  0  0  0
 19 24  1  0  0  0
 20 21  2  0  0  0
 20113  1  0  0  0
 21 23  1  0  0  0
 22 28  1  0  0  0
 22 32  2  0  0  0
 26 27  1  0  0  0
 28114  1  0  0  0
 28115  1  0  0  0
 29116  1  0  0  0
 29117  1  0  0  0
 33 34  1  0  0  0
 33 66  1  0  0  0
 33 70  2  0  0  0
 34 36  1  0  0  0
 34 59  1  0  0  0
 34118  1  0  0  0
 35 44  2  0  0  0
 35 45  1  0  0  0
 35 68  1  0  0  0
 36 56  1  0  0  0
 36119  1  0  0  0
 37 39  1  0  0  0
 37 47  1  0  0  0
 37 66  1  0  0  0
 37120  1  0  0  0
 38 43  2  0  0  0
 38 46  1  0  0  0
 38 47  1  0  0  0
 39 64  1  0  0  0
 39 67  2  0  0  0
 40 52  1  0  0  0
 40 53  2  0  0  0
 40 58  1  0  0  0
 41121  1  0  0  0
 41122  1  0  0  0
 41123  1  0  0  0
 41 48  1  0  0  0
 42 43  1  0  0  0
 42 66  1  0  0  0
 42124  1  0  0  0
 42125  1  0  0  0
 43 44  1  0  0  0
 44126  1  0  0  0
 45 46  2  0  0  0
 45127  1  0  0  0
 46128  1  0  0  0
 47129  1  0  0  0
 47130  1  0  0  0
 48 56  1  0  0  0
 48 65  1  0  0  0
 48131  1  0  0  0
 49 50  1  0  0  0
 49 53  1  0  0  0
 49 64  1  0  0  0
 49132  1  0  0  0
 50 51  1  0  0  0
 50133  1  0  0  0
 50134  1  0  0  0
 51 52  1  0  0  0
 51135  1  0  0  0
 51136  1  0  0  0
 52137  1  0  0  0
 52138  1  0  0  0
 53 54  1  0  0  0
 54 55  2  0  0  0
 54139  1  0  0  0
 55 57  1  0  0  0
 55140  1  0  0  0
 56 69  2  0  0  0
 57 58  2  0  0  0
 57141  1  0  0  0
 58142  1  0  0  0
 59 60  1  0  0  0
 59 61  1  0  0  0
 59 62  1  0  0  0
 60143  1  0  0  0
 60144  1  0  0  0
 60145  1  0  0  0
 61146  1  0  0  0
 61147  1  0  0  0
 61148  1  0  0  0
 62149  1  0  0  0
 62150  1  0  0  0
 62151  1  0  0  0
 63 65  1  0  0  0
 63152  1  0  0  0
 63153  1  0  0  0
 63154  1  0  0  0
 64155  1  0  0  0
 65156  1  0  0  0
 68 89  1  0  0  0
 71 73  2  0  0  0
 71 74  1  0  0  0
 71157  1  0  0  0
 72 73  1  0  0  0
 72 75  2  0  0  0
 72158  1  0  0  0
 73 83  1  0  0  0
 74 84  1  0  0  0
 74 92  2  0  0  0
 75 92  1  0  0  0
 75 93  1  0  0  0
 76 78  1  0  0  0
 76 91  1  0  0  0
 76 95  2  0  0  0
 77 85  1  0  0  0
 77 94  1  0  0  0
 77 96  2  0  0  0
 78159  1  0  0  0
 78160  1  0  0  0
 78161  1  0  0  0
 79 83  1  0  0  0
 79162  1  0  0  0
 79163  1  0  0  0
 79164  1  0  0  0
 80165  1  0  0  0
 80166  1  0  0  0
 80167  1  0  0  0
 80 89  1  0  0  0
 81168  1  0  0  0
 81169  1  0  0  0
 81170  1  0  0  0
 81 91  1  0  0  0
 82 91  1  0  0  0
 82171  1  0  0  0
 82172  1  0  0  0
 82173  1  0  0  0
 83174  1  0  0  0
 83175  1  0  0  0
 84 90  1  0  0  0
 84176  1  0  0  0
 84177  1  0  0  0
 85 89  1  0  0  0
 85178  1  0  0  0
 85179  1  0  0  0
 86 87  1  0  0  0
 86180  1  0  0  0
 86181  1  0  0  0
 86 88  1  0  0  0
 87 91  1  0  0  0
 87182  1  0  0  0
 87183  1  0  0  0
 88 90  1  0  0  0
 88 94  1  0  0  0
 88184  1  0  0  0
 89185  1  0  0  0
 90 97  1  0  0  0
 90186  1  0  0  0
 93187  1  0  0  0
 94188  1  0  0  0
 97189  1  0  0  0
M  ISO  4   1 100  68 101  89 101  93 100
M  END
> <chiral flag>
0

> <version>
0

> <s_m_source_file>
/data/baiqing/PycharmProjects/Reinvent-master-3.2/result/LINK_invent/BTK/process_docking_weight1_custom_product_contain_oxygen_bond_distance_aromatic_linkinvent_7_9_3/rearranged_h_0144.sdf

> <i_m_source_file_index>
89

> <r_mmod_Potential_Energy-OPLS-2005>
-134.785369873047

> <r_mmod_Stretch_Energy-OPLS-2005>
42.1403961181641

> <r_mmod_Bend_Energy-OPLS-2005>
126.50643157959

> <r_mmod_Torsional_Energy-OPLS-2005>
317.045166015625

> <r_mmod_Improper_Torsional_Energy-OPLS-2005>
11.9657201766968

> <r_mmod_Van_der_Waal_Energy-OPLS-2005>
156.945861816406

> <r_mmod_Electrostatic_Energy-OPLS-2005>
-568.018249511719

> <r_mmod_Solvation_Energy-OPLS-2005>
-262.202697753906

> <b_mmod_Minimization_Converged-OPLS-2005>
0

> <r_mmod_RMS_Derivative-OPLS-2005>
5.75431108474731

$$$$
89
                    3D
 Structure written by MMmdl.
175183  0  0  1  0            999 V2000
  -30.7521  -14.3610   20.6798 C   0  0  0  0  0  0
  -30.4296  -12.2983   19.3678 C   0  0  0  0  0  0
  -29.4866  -12.5442   18.1774 C   0  0  0  0  0  0
  -28.0065  -12.4032   18.5927 C   0  0  0  0  0  0
  -27.6685  -13.2105   19.8729 C   0  0  2  0  0  0
  -28.7075  -12.9150   20.9760 C   0  0  0  0  0  0
  -25.2650  -13.8218   20.5616 C   0  0  0  0  0  0
  -24.1888  -13.0448   20.9145 C   0  0  0  0  0  0
  -24.6435  -11.6921   20.8703 C   0  0  0  0  0  0
  -23.9068  -10.4303   21.0369 C   0  0  0  0  0  0
  -24.3615   -9.4211   21.9131 C   0  0  0  0  0  0
  -23.6273   -8.2255   22.0720 C   0  0  0  0  0  0
  -22.4272   -8.0299   21.3503 C   0  0  0  0  0  0
  -21.9937   -9.0306   20.4617 C   0  0  0  0  0  0
  -22.7263  -10.2158   20.2988 C   0  0  0  0  0  0
  -21.6863   -6.0758   22.5249 C   0  0  0  0  0  0
  -21.4028   -6.5644   23.8196 C   0  0  0  0  0  0
  -21.3640   -5.6796   24.9157 C   0  0  0  0  0  0
  -21.6022   -4.3059   24.7224 C   0  0  0  0  0  0
  -21.8822   -3.8171   23.4343 C   0  0  0  0  0  0
  -21.9195   -4.6981   22.3396 C   0  0  0  0  0  0
  -22.7943  -13.5229   21.1884 C   0  0  0  0  0  0
  -22.1669   -4.2180   21.0990 F   0  0  0  0  0  0
  -21.5641   -3.4491   25.7721 F   0  0  0  0  0  0
  -30.0520  -13.2240   20.4442 N   0  0  0  0  0  0
  -26.3099  -12.9368   20.3341 N   0  0  0  0  0  0
  -25.9333  -11.6494   20.5685 N   0  0  0  0  0  0
  -22.0702  -12.8216   22.0540 N   0  0  0  0  0  0
  -25.4369  -15.1916   20.4023 N   0  0  0  0  0  0
  -31.8019  -14.6593   20.1015 O   0  0  0  0  0  0
  -21.6602   -6.8916   21.4215 O   0  0  0  0  0  0
  -22.3559  -14.5500   20.6742 O   0  0  0  0  0  0
  -24.6123  -31.8708   23.2178 C   0  0  0  0  0  0
  -25.9025  -32.4805   23.8432 C   0  0  1  0  0  0
  -27.2180  -27.4663   20.0564 C   0  0  0  0  0  0
  -25.5886  -33.8604   24.2325 N   0  0  0  0  0  0
  -23.3942  -30.5020   21.5634 C   0  0  2  0  0  0
  -24.8340  -28.9782   20.1145 C   0  0  0  0  0  0
  -22.7356  -29.4703   22.5078 C   0  0  0  0  0  0
  -18.0247  -28.1376   22.8466 C   0  0  0  0  0  0
  -24.1506  -36.7322   23.2638 C   0  0  0  0  0  0
  -25.9270  -30.8401   21.3707 C   0  0  0  0  0  0
  -25.9967  -29.4804   20.7109 C   0  0  0  0  0  0
  -27.1915  -28.7288   20.6899 C   0  0  0  0  0  0
  -26.0476  -27.0028   19.4163 C   0  0  0  0  0  0
  -24.8509  -27.7317   19.4726 C   0  0  0  0  0  0
  -23.5941  -29.8406   20.1755 C   0  0  0  0  0  0
  -25.4124  -36.3096   24.0338 C   0  0  1  0  0  0
  -20.5825  -28.3643   23.1323 C   0  0  2  0  0  0
  -20.6759  -26.9394   22.5422 C   0  0  0  0  0  0
  -19.5757  -26.6391   21.5192 C   0  0  0  0  0  0
  -18.1921  -26.7912   22.1601 C   0  0  0  0  0  0
  -19.1496  -28.8822   23.2882 C   0  0  0  0  0  0
  -18.9449  -30.1422   23.8912 C   0  0  0  0  0  0
  -17.6464  -30.6584   24.0555 C   0  0  0  0  0  0
  -25.9059  -34.9454   23.5136 C   0  0  0  0  0  0
  -16.5350  -29.9101   23.6318 C   0  0  0  0  0  0
  -16.7239  -28.6519   23.0325 C   0  0  0  0  0  0
  -26.4459  -31.6566   25.0730 C   0  0  0  0  0  0
  -25.3745  -31.3664   26.1493 C   0  0  0  0  0  0
  -27.0267  -30.3016   24.6065 C   0  0  0  0  0  0
  -27.6074  -32.4258   25.7442 C   0  0  0  0  0  0
  -27.5585  -37.1805   24.8457 C   0  0  0  0  0  0
  -21.4092  -29.3017   22.3736 N   0  0  0  0  0  0
  -26.4291  -37.3802   23.9413 N   0  0  0  0  0  0
  -24.6634  -31.0837   22.1074 N   0  0  0  0  0  0
  -23.4162  -28.8247   23.3089 O   0  0  0  0  0  0
  -28.3779  -26.7215   20.0247 O   0  0  0  0  0  0
  -26.5644  -34.8886   22.4707 O   0  0  0  0  0  0
  -23.5326  -32.1459   23.7586 O   0  0  0  0  0  0
  -28.6597  -17.8669   22.5883 C   0  0  0  0  0  0
  -28.2410  -17.7182   24.8665 C   0  0  0  0  0  0
  -27.8264  -18.2746   23.6812 C   0  0  0  0  0  0
  -29.6978  -17.0547   22.9616 C   0  0  0  0  0  0
  -26.2625  -21.5341   22.6216 C   0  0  0  0  0  0
  -27.5105  -24.4109   20.2434 C   0  0  0  0  0  0
  -25.5318  -19.5255   21.2892 C   0  0  0  0  0  0
  -25.4511  -24.5363   21.8599 C   0  0  0  0  0  0
  -25.5383  -22.8866   19.9999 C   0  0  0  0  0  0
  -28.2724  -25.9179   22.3143 C   0  0  0  0  0  0
  -29.8879  -25.0288   20.6557 C   0  0  0  0  0  0
  -26.6301  -19.1965   23.5945 C   0  0  0  0  0  0
  -30.7212  -16.4218   22.0797 C   0  0  0  0  0  0
  -27.1428  -22.5988   21.9542 C   0  0  0  0  0  0
  -26.5622  -20.0616   22.3050 C   0  0  2  0  0  0
  -26.4168  -23.6316   21.0466 C   0  0  0  0  0  0
  -28.4382  -25.5239   20.8341 C   0  0  0  0  0  0
  -30.2056  -15.1558   21.5984 N   0  0  0  0  0  0
  -25.3478  -21.8492   23.3876 O   0  0  0  0  0  0
  -27.7041  -24.1011   19.0602 O   0  0  0  0  0  0
  -29.6713  -16.7432   24.6741 S   0  0  0  0  0  0
  -31.4670  -12.4306   19.0503 H   0  0  0  0  0  0
  -30.3490  -11.2672   19.7134 H   0  0  0  0  0  0
  -29.7102  -11.8525   17.3652 H   0  0  0  0  0  0
  -29.6570  -13.5464   17.7844 H   0  0  0  0  0  0
  -27.8106  -11.3462   18.7672 H   0  0  0  0  0  0
  -27.3556  -12.7027   17.7714 H   0  0  0  0  0  0
  -27.7322  -14.2705   19.6234 H   0  0  0  0  0  0
  -28.6731  -11.8589   21.2475 H   0  0  0  0  0  0
  -28.4548  -13.4521   21.8891 H   0  0  0  0  0  0
  -25.2769   -9.5690   22.4644 H   0  0  0  0  0  0
  -23.9960   -7.4682   22.7462 H   0  0  0  0  0  0
  -21.0871   -8.8912   19.8901 H   0  0  0  0  0  0
  -22.3785  -10.9740   19.6079 H   0  0  0  0  0  0
  -21.1959   -7.6130   23.9702 H   0  0  0  0  0  0
  -21.1475   -6.0536   25.9064 H   0  0  0  0  0  0
  -22.0585   -2.7641   23.2852 H   0  0  0  0  0  0
  -22.4438  -11.9856   22.4846 H   0  0  0  0  0  0
  -21.1450  -13.1367   22.3058 H   0  0  0  0  0  0
  -24.6721  -15.8459   20.5319 H   0  0  0  0  0  0
  -26.3040  -15.6412   20.1279 H   0  0  0  0  0  0
  -26.7091  -32.5496   23.1187 H   0  0  0  0  0  0
  -24.9900  -33.9821   25.0363 H   0  0  0  0  0  0
  -22.6798  -31.3195   21.4332 H   0  0  0  0  0  0
  -23.3754  -35.9679   23.3314 H   0  0  0  0  0  0
  -24.3597  -36.8911   22.2045 H   0  0  0  0  0  0
  -23.7262  -37.6537   23.6645 H   0  0  0  0  0  0
  -26.0454  -31.6155   20.6095 H   0  0  0  0  0  0
  -26.8144  -30.8789   21.9916 H   0  0  0  0  0  0
  -28.0882  -29.1163   21.1546 H   0  0  0  0  0  0
  -26.0353  -26.0815   18.8594 H   0  0  0  0  0  0
  -23.9590  -27.3458   19.0015 H   0  0  0  0  0  0
  -23.6902  -30.6210   19.4182 H   0  0  0  0  0  0
  -22.7142  -29.2599   19.8879 H   0  0  0  0  0  0
  -25.1302  -36.1969   25.0840 H   0  0  0  0  0  0
  -20.9889  -28.3208   24.1447 H   0  0  0  0  0  0
  -20.5621  -26.2267   23.3609 H   0  0  0  0  0  0
  -21.6645  -26.7438   22.1242 H   0  0  0  0  0  0
  -19.6954  -25.6311   21.1183 H   0  0  0  0  0  0
  -19.6704  -27.3225   20.6744 H   0  0  0  0  0  0
  -17.4186  -26.6571   21.4016 H   0  0  0  0  0  0
  -18.0377  -26.0083   22.9046 H   0  0  0  0  0  0
  -19.7941  -30.7180   24.2325 H   0  0  0  0  0  0
  -17.5051  -31.6269   24.5129 H   0  0  0  0  0  0
  -15.5351  -30.3023   23.7665 H   0  0  0  0  0  0
  -15.8622  -28.0852   22.7052 H   0  0  0  0  0  0
  -24.5969  -30.6937   25.7853 H   0  0  0  0  0  0
  -24.8883  -32.2810   26.4898 H   0  0  0  0  0  0
  -25.8135  -30.8881   27.0261 H   0  0  0  0  0  0
  -26.2812  -29.6806   24.1100 H   0  0  0  0  0  0
  -27.4032  -29.7188   25.4477 H   0  0  0  0  0  0
  -27.8646  -30.4344   23.9229 H   0  0  0  0  0  0
  -27.2748  -33.3560   26.2064 H   0  0  0  0  0  0
  -28.3849  -32.6792   25.0223 H   0  0  0  0  0  0
  -28.0802  -31.8339   26.5291 H   0  0  0  0  0  0
  -28.2609  -38.0097   24.7515 H   0  0  0  0  0  0
  -28.1067  -36.2621   24.6284 H   0  0  0  0  0  0
  -27.2304  -37.1459   25.8860 H   0  0  0  0  0  0
  -20.9260  -29.8707   21.6923 H   0  0  0  0  0  0
  -26.0172  -38.2884   24.1409 H   0  0  0  0  0  0
  -28.4827  -18.1685   21.5642 H   0  0  0  0  0  0
  -27.8053  -17.8203   25.8558 H   0  0  0  0  0  0
  -25.5636  -20.0726   20.3501 H   0  0  0  0  0  0
  -24.5114  -19.5995   21.6697 H   0  0  0  0  0  0
  -25.7248  -18.4838   21.0409 H   0  0  0  0  0  0
  -25.1595  -25.4373   21.3241 H   0  0  0  0  0  0
  -25.8670  -24.8257   22.8229 H   0  0  0  0  0  0
  -24.5246  -24.0117   22.0963 H   0  0  0  0  0  0
  -25.1855  -23.5460   19.2066 H   0  0  0  0  0  0
  -24.6521  -22.4391   20.4460 H   0  0  0  0  0  0
  -26.0993  -22.0833   19.5192 H   0  0  0  0  0  0
  -28.3921  -25.0674   22.9811 H   0  0  0  0  0  0
  -27.3189  -26.3984   22.5241 H   0  0  0  0  0  0
  -29.0474  -26.6367   22.5871 H   0  0  0  0  0  0
  -30.0858  -24.1807   21.3116 H   0  0  0  0  0  0
  -30.6080  -25.8096   20.8930 H   0  0  0  0  0  0
  -30.0992  -24.6973   19.6398 H   0  0  0  0  0  0
  -26.6451  -19.8413   24.4770 H   0  0  0  0  0  0
  -25.7091  -18.6217   23.6990 H   0  0  0  0  0  0
  -31.6538  -16.2584   22.6249 H   0  0  0  0  0  0
  -30.9481  -17.0734   21.2349 H   0  0  0  0  0  0
  -27.9121  -22.0870   21.3736 H   0  0  0  0  0  0
  -27.6776  -23.1082   22.7526 H   0  0  0  0  0  0
  -27.5394  -20.0686   21.8247 H   0  0  0  0  0  0
  -29.3357  -14.8461   22.0021 H   0  0  0  0  0  0
  1 25  1  0  0  0
  1 30  2  0  0  0
  1 88  1  0  0  0
  2  3  1  0  0  0
  2 25  1  0  0  0
  2 92  1  0  0  0
  2 93  1  0  0  0
  3  4  1  0  0  0
  3 94  1  0  0  0
  3 95  1  0  0  0
  4  5  1  0  0  0
  4 96  1  0  0  0
  4 97  1  0  0  0
  5  6  1  0  0  0
  5 26  1  0  0  0
  5 98  1  0  0  0
  6 25  1  0  0  0
  6 99  1  0  0  0
  6100  1  0  0  0
  7  8  2  0  0  0
  7 26  1  0  0  0
  7 29  1  0  0  0
  8  9  1  0  0  0
  8 22  1  0  0  0
  9 10  1  0  0  0
  9 27  2  0  0  0
 10 11  2  0  0  0
 10 15  1  0  0  0
 11 12  1  0  0  0
 11101  1  0  0  0
 12 13  2  0  0  0
 12102  1  0  0  0
 13 14  1  0  0  0
 13 31  1  0  0  0
 14 15  2  0  0  0
 14103  1  0  0  0
 15104  1  0  0  0
 16 17  2  0  0  0
 16 21  1  0  0  0
 16 31  1  0  0  0
 17 18  1  0  0  0
 17105  1  0  0  0
 18 19  2  0  0  0
 18106  1  0  0  0
 19 20  1  0  0  0
 19 24  1  0  0  0
 20 21  2  0  0  0
 20107  1  0  0  0
 21 23  1  0  0  0
 22 28  1  0  0  0
 22 32  2  0  0  0
 26 27  1  0  0  0
 28108  1  0  0  0
 28109  1  0  0  0
 29110  1  0  0  0
 29111  1  0  0  0
 33 34  1  0  0  0
 33 66  1  0  0  0
 33 70  2  0  0  0
 34 36  1  0  0  0
 34 59  1  0  0  0
 34112  1  0  0  0
 35 44  2  0  0  0
 35 45  1  0  0  0
 35 68  1  0  0  0
 36 56  1  0  0  0
 36113  1  0  0  0
 37 39  1  0  0  0
 37 47  1  0  0  0
 37 66  1  0  0  0
 37114  1  0  0  0
 38 43  2  0  0  0
 38 46  1  0  0  0
 38 47  1  0  0  0
 39 64  1  0  0  0
 39 67  2  0  0  0
 40 52  1  0  0  0
 40 53  2  0  0  0
 40 58  1  0  0  0
 41115  1  0  0  0
 41116  1  0  0  0
 41117  1  0  0  0
 41 48  1  0  0  0
 42 43  1  0  0  0
 42 66  1  0  0  0
 42118  1  0  0  0
 42119  1  0  0  0
 43 44  1  0  0  0
 44120  1  0  0  0
 45 46  2  0  0  0
 45121  1  0  0  0
 46122  1  0  0  0
 47123  1  0  0  0
 47124  1  0  0  0
 48 56  1  0  0  0
 48 65  1  0  0  0
 48125  1  0  0  0
 49 50  1  0  0  0
 49 53  1  0  0  0
 49 64  1  0  0  0
 49126  1  0  0  0
 50 51  1  0  0  0
 50127  1  0  0  0
 50128  1  0  0  0
 51 52  1  0  0  0
 51129  1  0  0  0
 51130  1  0  0  0
 52131  1  0  0  0
 52132  1  0  0  0
 53 54  1  0  0  0
 54 55  2  0  0  0
 54133  1  0  0  0
 55 57  1  0  0  0
 55134  1  0  0  0
 56 69  2  0  0  0
 57 58  2  0  0  0
 57135  1  0  0  0
 58136  1  0  0  0
 59 60  1  0  0  0
 59 61  1  0  0  0
 59 62  1  0  0  0
 60137  1  0  0  0
 60138  1  0  0  0
 60139  1  0  0  0
 61140  1  0  0  0
 61141  1  0  0  0
 61142  1  0  0  0
 62143  1  0  0  0
 62144  1  0  0  0
 62145  1  0  0  0
 63 65  1  0  0  0
 63146  1  0  0  0
 63147  1  0  0  0
 63148  1  0  0  0
 64149  1  0  0  0
 65150  1  0  0  0
 68 87  1  0  0  0
 71 73  1  0  0  0
 71 74  2  0  0  0
 71151  1  0  0  0
 72 73  2  0  0  0
 72 91  1  0  0  0
 72152  1  0  0  0
 73 82  1  0  0  0
 74 83  1  0  0  0
 74 91  1  0  0  0
 75 84  1  0  0  0
 75 85  1  0  0  0
 75 89  2  0  0  0
 76 86  1  0  0  0
 76 87  1  0  0  0
 76 90  2  0  0  0
 77153  1  0  0  0
 77154  1  0  0  0
 77155  1  0  0  0
 77 85  1  0  0  0
 78156  1  0  0  0
 78157  1  0  0  0
 78158  1  0  0  0
 78 86  1  0  0  0
 79 86  1  0  0  0
 79159  1  0  0  0
 79160  1  0  0  0
 79161  1  0  0  0
 80162  1  0  0  0
 80163  1  0  0  0
 80164  1  0  0  0
 80 87  1  0  0  0
 81 87  1  0  0  0
 81165  1  0  0  0
 81166  1  0  0  0
 81167  1  0  0  0
 82 85  1  0  0  0
 82168  1  0  0  0
 82169  1  0  0  0
 83 88  1  0  0  0
 83170  1  0  0  0
 83171  1  0  0  0
 84 86  1  0  0  0
 84172  1  0  0  0
 84173  1  0  0  0
 85174  1  0  0  0
 88175  1  0  0  0
M  ISO  4   1 100  68 101  87 101  88 100
M  END
> <chiral flag>
0

> <version>
0

> <s_m_source_file>
/data/baiqing/PycharmProjects/Reinvent-master-3.2/result/LINK_invent/BTK/process_docking_weight1_custom_product_contain_oxygen_bond_distance_aromatic_linkinvent_7_9_3/rearranged_h_0144.sdf

> <i_m_source_file_index>
90

> <r_mmod_Potential_Energy-OPLS-2005>
-27.2541160583496

> <r_mmod_Stretch_Energy-OPLS-2005>
39.8840827941895

> <r_mmod_Bend_Energy-OPLS-2005>
125.931831359863

> <r_mmod_Torsional_Energy-OPLS-2005>
250.280166625977

> <r_mmod_Improper_Torsional_Energy-OPLS-2005>
2.04541373252869

> <r_mmod_Van_der_Waal_Energy-OPLS-2005>
150.342132568359

> <r_mmod_Electrostatic_Energy-OPLS-2005>
-387.978363037109

> <r_mmod_Solvation_Energy-OPLS-2005>
-217.229583740234

> <b_mmod_Minimization_Converged-OPLS-2005>
0

> <r_mmod_RMS_Derivative-OPLS-2005>
6.97791576385498

$$$$
90
                    3D
 Structure written by MMmdl.
171179  0  0  1  0            999 V2000
  -30.6391  -14.5608   20.4016 C   0  0  0  0  0  0
  -30.4368  -12.3265   19.4070 C   0  0  0  0  0  0
  -29.4890  -12.4652   18.1945 C   0  0  0  0  0  0
  -28.0151  -12.3190   18.6226 C   0  0  0  0  0  0
  -27.6578  -13.1771   19.8664 C   0  0  2  0  0  0
  -28.7210  -13.0261   20.9771 C   0  0  0  0  0  0
  -25.2647  -13.8022   20.5890 C   0  0  0  0  0  0
  -24.1848  -13.0348   20.9259 C   0  0  0  0  0  0
  -24.6392  -11.6825   20.8742 C   0  0  0  0  0  0
  -23.9042  -10.4261   21.0375 C   0  0  0  0  0  0
  -24.3610   -9.4206   21.9164 C   0  0  0  0  0  0
  -23.6303   -8.2237   22.0725 C   0  0  0  0  0  0
  -22.4277   -8.0282   21.3523 C   0  0  0  0  0  0
  -21.9908   -9.0252   20.4615 C   0  0  0  0  0  0
  -22.7224  -10.2129   20.3028 C   0  0  0  0  0  0
  -21.6866   -6.0776   22.5304 C   0  0  0  0  0  0
  -21.4016   -6.5669   23.8243 C   0  0  0  0  0  0
  -21.3641   -5.6799   24.9187 C   0  0  0  0  0  0
  -21.6051   -4.3070   24.7220 C   0  0  0  0  0  0
  -21.8826   -3.8182   23.4336 C   0  0  0  0  0  0
  -21.9205   -4.7009   22.3405 C   0  0  0  0  0  0
  -22.7903  -13.5193   21.1935 C   0  0  0  0  0  0
  -22.1681   -4.2205   21.0981 F   0  0  0  0  0  0
  -21.5609   -3.4538   25.7719 F   0  0  0  0  0  0
  -30.0333  -13.3418   20.3876 N   0  0  0  0  0  0
  -26.3044  -12.9163   20.3436 N   0  0  0  0  0  0
  -25.9310  -11.6352   20.5791 N   0  0  0  0  0  0
  -22.0522  -12.8155   22.0447 N   0  0  0  0  0  0
  -25.4362  -15.1737   20.4645 N   0  0  0  0  0  0
  -31.8357  -14.7139   20.1354 O   0  0  0  0  0  0
  -21.6633   -6.8894   21.4252 O   0  0  0  0  0  0
  -22.3613  -14.5540   20.6816 O   0  0  0  0  0  0
  -24.6182  -31.8672   23.2057 C   0  0  0  0  0  0
  -25.9054  -32.4810   23.8404 C   0  0  1  0  0  0
  -27.2399  -27.4250   20.1124 C   0  0  0  0  0  0
  -25.5905  -33.8604   24.2332 N   0  0  0  0  0  0
  -23.4136  -30.4810   21.5473 C   0  0  2  0  0  0
  -24.8729  -28.9740   20.0781 C   0  0  0  0  0  0
  -22.7464  -29.4606   22.4969 C   0  0  0  0  0  0
  -18.0285  -28.1398   22.8498 C   0  0  0  0  0  0
  -24.1487  -36.7324   23.2631 C   0  0  0  0  0  0
  -25.9419  -30.8365   21.3611 C   0  0  0  0  0  0
  -26.0276  -29.4787   20.6905 C   0  0  0  0  0  0
  -27.2174  -28.7095   20.7075 C   0  0  0  0  0  0
  -26.0995  -26.9830   19.4002 C   0  0  0  0  0  0
  -24.9093  -27.7372   19.4096 C   0  0  0  0  0  0
  -23.6220  -29.8209   20.1576 C   0  0  0  0  0  0
  -25.4105  -36.3101   24.0339 C   0  0  1  0  0  0
  -20.5882  -28.3684   23.1326 C   0  0  2  0  0  0
  -20.6766  -26.9416   22.5434 C   0  0  0  0  0  0
  -19.5747  -26.6394   21.5228 C   0  0  0  0  0  0
  -18.1923  -26.7942   22.1636 C   0  0  0  0  0  0
  -19.1537  -28.8852   23.2911 C   0  0  0  0  0  0
  -18.9457  -30.1450   23.8926 C   0  0  0  0  0  0
  -17.6459  -30.6582   24.0568 C   0  0  0  0  0  0
  -25.9044  -34.9461   23.5129 C   0  0  0  0  0  0
  -16.5351  -29.9096   23.6314 C   0  0  0  0  0  0
  -16.7276  -28.6517   23.0339 C   0  0  0  0  0  0
  -26.4490  -31.6560   25.0714 C   0  0  0  0  0  0
  -25.3763  -31.3684   26.1469 C   0  0  0  0  0  0
  -27.0274  -30.2985   24.6045 C   0  0  0  0  0  0
  -27.6085  -32.4264   25.7492 C   0  0  0  0  0  0
  -27.5579  -37.1816   24.8467 C   0  0  0  0  0  0
  -21.4177  -29.3045   22.3739 N   0  0  0  0  0  0
  -26.4290  -37.3777   23.9416 N   0  0  0  0  0  0
  -24.6770  -31.0724   22.0996 N   0  0  0  0  0  0
  -23.4219  -28.8152   23.3025 O   0  0  0  0  0  0
  -28.2369  -26.5194   20.4443 O   0  0  0  0  0  0
  -26.5592  -34.8906   22.4678 O   0  0  0  0  0  0
  -23.5350  -32.1453   23.7395 O   0  0  0  0  0  0
  -29.1887  -18.6137   18.4549 C   0  0  0  0  0  0
  -28.9612  -17.2705   18.8593 C   0  0  0  0  0  0
  -30.2700  -19.2153   19.0187 C   0  0  0  0  0  0
  -29.8421  -16.8154   19.8223 C   0  0  0  0  0  0
  -31.1800  -21.4357   19.2092 C   0  0  0  0  0  0
  -27.8544  -16.5009   18.2124 C   0  0  0  0  0  0
  -31.0601  -22.3657   22.9803 C   0  0  0  0  0  0
  -26.5995  -25.8443   22.2629 C   0  0  0  0  0  0
  -27.9009  -23.3988   22.7958 C   0  0  0  0  0  0
  -29.5773  -25.3275   22.9407 C   0  0  0  0  0  0
  -31.4894  -21.6277   20.6782 C   0  0  0  0  0  0
  -29.7463  -23.6246   21.0429 C   0  0  0  0  0  0
  -30.3992  -22.2791   21.5784 C   0  0  2  0  0  0
  -27.7090  -25.3809   21.2289 C   0  0  2  0  0  0
  -28.7530  -24.4284   21.9807 C   0  0  0  0  0  0
  -30.7274  -20.4342   18.5646 N   0  0  0  0  0  0
  -29.7764  -15.6029   20.4683 N   0  0  0  0  0  0
  -31.0246  -18.0937   20.1566 S   0  0  0  0  0  0
  -31.4761  -12.4420   19.0926 H   0  0  0  0  0  0
  -30.3660  -11.3296   19.8405 H   0  0  0  0  0  0
  -29.7284  -11.7095   17.4431 H   0  0  0  0  0  0
  -29.6327  -13.4338   17.7133 H   0  0  0  0  0  0
  -27.8421  -11.2672   18.8419 H   0  0  0  0  0  0
  -27.3494  -12.5629   17.7925 H   0  0  0  0  0  0
  -27.6745  -14.2063   19.5350 H   0  0  0  0  0  0
  -28.7290  -12.0079   21.3681 H   0  0  0  0  0  0
  -28.5012  -13.6744   21.8288 H   0  0  0  0  0  0
  -25.2772   -9.5722   22.4713 H   0  0  0  0  0  0
  -24.0069   -7.4621   22.7418 H   0  0  0  0  0  0
  -21.0858   -8.8773   19.8884 H   0  0  0  0  0  0
  -22.3711  -10.9683   19.6128 H   0  0  0  0  0  0
  -21.2014   -7.6179   23.9773 H   0  0  0  0  0  0
  -21.1435   -6.0513   25.9089 H   0  0  0  0  0  0
  -22.0610   -2.7661   23.2819 H   0  0  0  0  0  0
  -22.4111  -11.9759   22.4757 H   0  0  0  0  0  0
  -21.1136  -13.1136   22.2657 H   0  0  0  0  0  0
  -24.6799  -15.8284   20.6270 H   0  0  0  0  0  0
  -26.3133  -15.6249   20.2498 H   0  0  0  0  0  0
  -26.7139  -32.5516   23.1195 H   0  0  0  0  0  0
  -25.0026  -33.9823   25.0446 H   0  0  0  0  0  0
  -22.7070  -31.3007   21.4045 H   0  0  0  0  0  0
  -23.3730  -35.9667   23.3284 H   0  0  0  0  0  0
  -24.3585  -36.8936   22.2042 H   0  0  0  0  0  0
  -23.7266  -37.6545   23.6644 H   0  0  0  0  0  0
  -26.0429  -31.6097   20.5997 H   0  0  0  0  0  0
  -26.8335  -30.8930   21.9727 H   0  0  0  0  0  0
  -28.0768  -29.0516   21.2653 H   0  0  0  0  0  0
  -26.0920  -26.0120   18.9230 H   0  0  0  0  0  0
  -24.0318  -27.3519   18.9106 H   0  0  0  0  0  0
  -23.7156  -30.6003   19.4015 H   0  0  0  0  0  0
  -22.7524  -29.2313   19.8663 H   0  0  0  0  0  0
  -25.1274  -36.1953   25.0830 H   0  0  0  0  0  0
  -20.9972  -28.3233   24.1451 H   0  0  0  0  0  0
  -20.5656  -26.2301   23.3635 H   0  0  0  0  0  0
  -21.6639  -26.7461   22.1238 H   0  0  0  0  0  0
  -19.6916  -25.6317   21.1234 H   0  0  0  0  0  0
  -19.6657  -27.3228   20.6778 H   0  0  0  0  0  0
  -17.4199  -26.6700   21.4029 H   0  0  0  0  0  0
  -18.0305  -26.0108   22.9054 H   0  0  0  0  0  0
  -19.7930  -30.7242   24.2333 H   0  0  0  0  0  0
  -17.5017  -31.6261   24.5169 H   0  0  0  0  0  0
  -15.5356  -30.3002   23.7602 H   0  0  0  0  0  0
  -15.8690  -28.0815   22.7061 H   0  0  0  0  0  0
  -24.5958  -30.7004   25.7828 H   0  0  0  0  0  0
  -24.8935  -32.2832   26.4890 H   0  0  0  0  0  0
  -25.8124  -30.8897   27.0234 H   0  0  0  0  0  0
  -26.2807  -29.6847   24.0986 H   0  0  0  0  0  0
  -27.3944  -29.7116   25.4475 H   0  0  0  0  0  0
  -27.8691  -30.4333   23.9251 H   0  0  0  0  0  0
  -27.2711  -33.3549   26.2109 H   0  0  0  0  0  0
  -28.3873  -32.6821   25.0298 H   0  0  0  0  0  0
  -28.0765  -31.8344   26.5367 H   0  0  0  0  0  0
  -28.2591  -38.0121   24.7476 H   0  0  0  0  0  0
  -28.1081  -36.2640   24.6306 H   0  0  0  0  0  0
  -27.2312  -37.1486   25.8880 H   0  0  0  0  0  0
  -20.9352  -29.8801   21.6973 H   0  0  0  0  0  0
  -26.0170  -38.2850   24.1393 H   0  0  0  0  0  0
  -28.5759  -19.0980   17.7077 H   0  0  0  0  0  0
  -31.4312  -22.3310   18.6326 H   0  0  0  0  0  0
  -27.4257  -17.0451   17.3718 H   0  0  0  0  0  0
  -27.0381  -16.3406   18.9038 H   0  0  0  0  0  0
  -28.1919  -15.5422   17.8243 H   0  0  0  0  0  0
  -31.4406  -21.3875   23.2826 H   0  0  0  0  0  0
  -30.3955  -22.6735   23.7827 H   0  0  0  0  0  0
  -31.9006  -23.0603   22.9906 H   0  0  0  0  0  0
  -25.9975  -25.0169   22.6307 H   0  0  0  0  0  0
  -25.8241  -26.4991   21.8797 H   0  0  0  0  0  0
  -27.0125  -26.3646   23.1248 H   0  0  0  0  0  0
  -28.4085  -22.5228   23.1773 H   0  0  0  0  0  0
  -27.0710  -23.0095   22.2018 H   0  0  0  0  0  0
  -27.4825  -23.8567   23.6917 H   0  0  0  0  0  0
  -29.9531  -26.2172   22.4321 H   0  0  0  0  0  0
  -30.4432  -24.8348   23.3678 H   0  0  0  0  0  0
  -28.9896  -25.6776   23.7862 H   0  0  0  0  0  0
  -32.3791  -22.2571   20.7160 H   0  0  0  0  0  0
  -31.8044  -20.6719   21.0930 H   0  0  0  0  0  0
  -30.5250  -24.3095   20.7070 H   0  0  0  0  0  0
  -29.2013  -23.3471   20.1401 H   0  0  0  0  0  0
  -29.5983  -21.5415   21.6393 H   0  0  0  0  0  0
  -27.2030  -24.7488   20.4994 H   0  0  0  0  0  0
  -28.8377  -15.2970   20.6718 H   0  0  0  0  0  0
  1 25  1  0  0  0
  1 30  2  0  0  0
  1 87  1  0  0  0
  2  3  1  0  0  0
  2 25  1  0  0  0
  2 89  1  0  0  0
  2 90  1  0  0  0
  3  4  1  0  0  0
  3 91  1  0  0  0
  3 92  1  0  0  0
  4  5  1  0  0  0
  4 93  1  0  0  0
  4 94  1  0  0  0
  5  6  1  0  0  0
  5 26  1  0  0  0
  5 95  1  0  0  0
  6 25  1  0  0  0
  6 96  1  0  0  0
  6 97  1  0  0  0
  7  8  2  0  0  0
  7 26  1  0  0  0
  7 29  1  0  0  0
  8  9  1  0  0  0
  8 22  1  0  0  0
  9 10  1  0  0  0
  9 27  2  0  0  0
 10 11  2  0  0  0
 10 15  1  0  0  0
 11 12  1  0  0  0
 11 98  1  0  0  0
 12 13  2  0  0  0
 12 99  1  0  0  0
 13 14  1  0  0  0
 13 31  1  0  0  0
 14 15  2  0  0  0
 14100  1  0  0  0
 15101  1  0  0  0
 16 17  2  0  0  0
 16 21  1  0  0  0
 16 31  1  0  0  0
 17 18  1  0  0  0
 17102  1  0  0  0
 18 19  2  0  0  0
 18103  1  0  0  0
 19 20  1  0  0  0
 19 24  1  0  0  0
 20 21  2  0  0  0
 20104  1  0  0  0
 21 23  1  0  0  0
 22 28  1  0  0  0
 22 32  2  0  0  0
 26 27  1  0  0  0
 28105  1  0  0  0
 28106  1  0  0  0
 29107  1  0  0  0
 29108  1  0  0  0
 33 34  1  0  0  0
 33 66  1  0  0  0
 33 70  2  0  0  0
 34 36  1  0  0  0
 34 59  1  0  0  0
 34109  1  0  0  0
 35 44  2  0  0  0
 35 45  1  0  0  0
 35 68  1  0  0  0
 36 56  1  0  0  0
 36110  1  0  0  0
 37 39  1  0  0  0
 37 47  1  0  0  0
 37 66  1  0  0  0
 37111  1  0  0  0
 38 43  2  0  0  0
 38 46  1  0  0  0
 38 47  1  0  0  0
 39 64  1  0  0  0
 39 67  2  0  0  0
 40 52  1  0  0  0
 40 53  2  0  0  0
 40 58  1  0  0  0
 41112  1  0  0  0
 41113  1  0  0  0
 41114  1  0  0  0
 41 48  1  0  0  0
 42 43  1  0  0  0
 42 66  1  0  0  0
 42115  1  0  0  0
 42116  1  0  0  0
 43 44  1  0  0  0
 44117  1  0  0  0
 45 46  2  0  0  0
 45118  1  0  0  0
 46119  1  0  0  0
 47120  1  0  0  0
 47121  1  0  0  0
 48 56  1  0  0  0
 48 65  1  0  0  0
 48122  1  0  0  0
 49 50  1  0  0  0
 49 53  1  0  0  0
 49 64  1  0  0  0
 49123  1  0  0  0
 50 51  1  0  0  0
 50124  1  0  0  0
 50125  1  0  0  0
 51 52  1  0  0  0
 51126  1  0  0  0
 51127  1  0  0  0
 52128  1  0  0  0
 52129  1  0  0  0
 53 54  1  0  0  0
 54 55  2  0  0  0
 54130  1  0  0  0
 55 57  1  0  0  0
 55131  1  0  0  0
 56 69  2  0  0  0
 57 58  2  0  0  0
 57132  1  0  0  0
 58133  1  0  0  0
 59 60  1  0  0  0
 59 61  1  0  0  0
 59 62  1  0  0  0
 60134  1  0  0  0
 60135  1  0  0  0
 60136  1  0  0  0
 61137  1  0  0  0
 61138  1  0  0  0
 61139  1  0  0  0
 62140  1  0  0  0
 62141  1  0  0  0
 62142  1  0  0  0
 63 65  1  0  0  0
 63143  1  0  0  0
 63144  1  0  0  0
 63145  1  0  0  0
 64146  1  0  0  0
 65147  1  0  0  0
 68 84  1  0  0  0
 71 72  1  0  0  0
 71 73  2  0  0  0
 71148  1  0  0  0
 72 74  2  0  0  0
 72 76  1  0  0  0
 73 86  1  0  0  0
 73 88  1  0  0  0
 74 87  1  0  0  0
 74 88  1  0  0  0
 75 81  1  0  0  0
 75 86  2  0  0  0
 75149  1  0  0  0
 76150  1  0  0  0
 76151  1  0  0  0
 76152  1  0  0  0
 77153  1  0  0  0
 77154  1  0  0  0
 77155  1  0  0  0
 77 83  1  0  0  0
 78156  1  0  0  0
 78157  1  0  0  0
 78158  1  0  0  0
 78 84  1  0  0  0
 79159  1  0  0  0
 79160  1  0  0  0
 79161  1  0  0  0
 79 85  1  0  0  0
 80 85  1  0  0  0
 80162  1  0  0  0
 80163  1  0  0  0
 80164  1  0  0  0
 81 83  1  0  0  0
 81165  1  0  0  0
 81166  1  0  0  0
 82 83  1  0  0  0
 82 85  1  0  0  0
 82167  1  0  0  0
 82168  1  0  0  0
 83169  1  0  0  0
 84 85  1  0  0  0
 84170  1  0  0  0
 87171  1  0  0  0
M  ISO  4   1 100  68 101  84 101  87 100
M  END
> <chiral flag>
0

> <version>
0

> <s_m_source_file>
/data/baiqing/PycharmProjects/Reinvent-master-3.2/result/LINK_invent/BTK/process_docking_weight1_custom_product_contain_oxygen_bond_distance_aromatic_linkinvent_7_9_3/rearranged_h_0144.sdf

> <i_m_source_file_index>
91

> <r_mmod_Potential_Energy-OPLS-2005>
196.520736694336

> <r_mmod_Stretch_Energy-OPLS-2005>
63.3377532958984

> <r_mmod_Bend_Energy-OPLS-2005>
191.01091003418

> <r_mmod_Torsional_Energy-OPLS-2005>
309.679840087891

> <r_mmod_Improper_Torsional_Energy-OPLS-2005>
10.9072504043579

> <r_mmod_Van_der_Waal_Energy-OPLS-2005>
158.090454101562

> <r_mmod_Electrostatic_Energy-OPLS-2005>
-385.581298828125

> <r_mmod_Solvation_Energy-OPLS-2005>
-206.060729980469

> <b_mmod_Minimization_Converged-OPLS-2005>
0

> <r_mmod_RMS_Derivative-OPLS-2005>
4.91727685928345

$$$$
92
                    3D
 Structure written by MMmdl.
163172  0  0  1  0            999 V2000
  -30.6868  -14.4716   20.5414 C   0  0  0  0  0  0
  -30.4228  -12.2953   19.4238 C   0  0  0  0  0  0
  -29.4932  -12.4952   18.2082 C   0  0  0  0  0  0
  -28.0146  -12.3589   18.6222 C   0  0  0  0  0  0
  -27.6615  -13.2033   19.8751 C   0  0  2  0  0  0
  -28.7029  -12.9821   20.9958 C   0  0  0  0  0  0
  -25.2585  -13.8161   20.5667 C   0  0  0  0  0  0
  -24.1837  -13.0441   20.9189 C   0  0  0  0  0  0
  -24.6385  -11.6908   20.8750 C   0  0  0  0  0  0
  -23.9058  -10.4293   21.0426 C   0  0  0  0  0  0
  -24.3617   -9.4203   21.9196 C   0  0  0  0  0  0
  -23.6297   -8.2237   22.0762 C   0  0  0  0  0  0
  -22.4278   -8.0284   21.3552 C   0  0  0  0  0  0
  -21.9917   -9.0250   20.4647 C   0  0  0  0  0  0
  -22.7241  -10.2130   20.3063 C   0  0  0  0  0  0
  -21.6843   -6.0745   22.5283 C   0  0  0  0  0  0
  -21.4000   -6.5647   23.8216 C   0  0  0  0  0  0
  -21.3659   -5.6802   24.9182 C   0  0  0  0  0  0
  -21.6048   -4.3064   24.7230 C   0  0  0  0  0  0
  -21.8815   -3.8156   23.4347 C   0  0  0  0  0  0
  -21.9182   -4.6972   22.3401 C   0  0  0  0  0  0
  -22.7857  -13.5233   21.1856 C   0  0  0  0  0  0
  -22.1655   -4.2158   21.0978 F   0  0  0  0  0  0
  -21.5635   -3.4547   25.7745 F   0  0  0  0  0  0
  -30.0372  -13.2806   20.4453 N   0  0  0  0  0  0
  -26.3020  -12.9325   20.3364 N   0  0  0  0  0  0
  -25.9307  -11.6490   20.5775 N   0  0  0  0  0  0
  -22.0499  -12.8216   22.0411 N   0  0  0  0  0  0
  -25.4308  -15.1878   20.4031 N   0  0  0  0  0  0
  -31.8273  -14.6446   20.1008 O   0  0  0  0  0  0
  -21.6632   -6.8890   21.4249 O   0  0  0  0  0  0
  -22.3544  -14.5542   20.6711 O   0  0  0  0  0  0
  -24.6153  -31.8681   23.2109 C   0  0  0  0  0  0
  -25.9060  -32.4815   23.8400 C   0  0  1  0  0  0
  -27.2437  -27.4435   20.0799 C   0  0  0  0  0  0
  -25.5935  -33.8615   24.2337 N   0  0  0  0  0  0
  -23.4012  -30.4917   21.5513 C   0  0  2  0  0  0
  -24.8465  -28.9541   20.1188 C   0  0  0  0  0  0
  -22.7401  -29.4671   22.5009 C   0  0  0  0  0  0
  -18.0270  -28.1375   22.8502 C   0  0  0  0  0  0
  -24.1484  -36.7300   23.2640 C   0  0  0  0  0  0
  -25.9286  -30.8338   21.3620 C   0  0  0  0  0  0
  -26.0057  -29.4666   20.7126 C   0  0  0  0  0  0
  -27.2017  -28.7147   20.6978 C   0  0  0  0  0  0
  -26.0556  -26.9323   19.5067 C   0  0  0  0  0  0
  -24.8649  -27.6828   19.5201 C   0  0  0  0  0  0
  -23.6078  -29.8202   20.1671 C   0  0  0  0  0  0
  -25.4111  -36.3108   24.0337 C   0  0  1  0  0  0
  -20.5857  -28.3670   23.1319 C   0  0  2  0  0  0
  -20.6758  -26.9404   22.5426 C   0  0  0  0  0  0
  -19.5733  -26.6385   21.5222 C   0  0  0  0  0  0
  -18.1906  -26.7927   22.1622 C   0  0  0  0  0  0
  -19.1520  -28.8839   23.2905 C   0  0  0  0  0  0
  -18.9453  -30.1450   23.8908 C   0  0  0  0  0  0
  -17.6454  -30.6584   24.0570 C   0  0  0  0  0  0
  -25.9043  -34.9472   23.5128 C   0  0  0  0  0  0
  -16.5347  -29.9082   23.6333 C   0  0  0  0  0  0
  -16.7265  -28.6501   23.0354 C   0  0  0  0  0  0
  -26.4495  -31.6593   25.0722 C   0  0  0  0  0  0
  -25.3760  -31.3653   26.1456 C   0  0  0  0  0  0
  -27.0375  -30.3059   24.6099 C   0  0  0  0  0  0
  -27.6056  -32.4325   25.7504 C   0  0  0  0  0  0
  -27.5574  -37.1807   24.8472 C   0  0  0  0  0  0
  -21.4135  -29.3033   22.3727 N   0  0  0  0  0  0
  -26.4293  -37.3798   23.9413 N   0  0  0  0  0  0
  -24.6664  -31.0793   22.0999 N   0  0  0  0  0  0
  -23.4170  -28.8222   23.3062 O   0  0  0  0  0  0
  -28.4440  -26.7576   20.0722 O   0  0  0  0  0  0
  -26.5579  -34.8925   22.4672 O   0  0  0  0  0  0
  -23.5354  -32.1440   23.7516 O   0  0  0  0  0  0
  -28.9563  -19.1028   20.9978 C   0  0  0  0  0  0
  -29.0429  -17.7313   21.3352 C   0  0  0  0  0  0
  -30.8175  -17.4424   19.7101 C   0  0  0  0  0  0
  -29.8054  -19.6665   20.0161 C   0  0  0  0  0  0
  -29.9691  -16.8760   20.6955 C   0  0  0  0  0  0
  -30.7383  -18.8119   19.3770 C   0  0  0  0  0  0
  -29.6978  -21.0924   19.6161 C   0  0  0  0  0  0
  -30.1003  -23.3878   22.5070 C   0  0  0  0  0  0
  -30.5586  -24.2187   21.3096 C   0  0  0  0  0  0
  -29.9197  -21.9757   21.9455 C   0  0  0  0  0  0
  -29.8392  -23.5814   20.1147 C   0  0  2  0  0  0
  -28.4799  -24.2690   19.8106 C   0  0  0  0  0  0
  -28.6407  -25.6687   19.1604 C   0  0  0  0  0  0
  -29.7319  -22.1416   20.4883 N   0  0  0  0  0  0
  -29.9452  -15.4820   21.0372 N   0  0  0  0  0  0
  -29.5742  -21.3743   18.3183 N   0  3  0  0  0  0
  -31.5617  -19.2909   18.4113 F   0  0  0  0  0  0
  -31.4674  -12.3904   19.1220 H   0  0  0  0  0  0
  -30.3180  -11.2855   19.8226 H   0  0  0  0  0  0
  -29.7289  -11.7673   17.4308 H   0  0  0  0  0  0
  -29.6619  -13.4796   17.7690 H   0  0  0  0  0  0
  -27.8261  -11.3041   18.8251 H   0  0  0  0  0  0
  -27.3622  -12.6276   17.7902 H   0  0  0  0  0  0
  -27.7058  -14.2496   19.5741 H   0  0  0  0  0  0
  -28.6737  -11.9465   21.3369 H   0  0  0  0  0  0
  -28.4673  -13.5812   21.8764 H   0  0  0  0  0  0
  -25.2756   -9.5676   22.4775 H   0  0  0  0  0  0
  -24.0001   -7.4625   22.7480 H   0  0  0  0  0  0
  -21.0853   -8.8764   19.8948 H   0  0  0  0  0  0
  -22.3703  -10.9672   19.6174 H   0  0  0  0  0  0
  -21.1985   -7.6155   23.9721 H   0  0  0  0  0  0
  -21.1491   -6.0536   25.9086 H   0  0  0  0  0  0
  -22.0594   -2.7618   23.2844 H   0  0  0  0  0  0
  -22.4107  -11.9856   22.4769 H   0  0  0  0  0  0
  -21.1118  -13.1239   22.2632 H   0  0  0  0  0  0
  -24.6573  -15.8396   20.4832 H   0  0  0  0  0  0
  -26.2728  -15.6161   20.0402 H   0  0  0  0  0  0
  -26.7139  -32.5544   23.1179 H   0  0  0  0  0  0
  -25.0178  -33.9793   25.0543 H   0  0  0  0  0  0
  -22.6906  -31.3087   21.4111 H   0  0  0  0  0  0
  -23.3756  -35.9622   23.3313 H   0  0  0  0  0  0
  -24.3569  -36.8908   22.2052 H   0  0  0  0  0  0
  -23.7222  -37.6501   23.6651 H   0  0  0  0  0  0
  -26.0362  -31.5971   20.5904 H   0  0  0  0  0  0
  -26.8180  -30.8920   21.9777 H   0  0  0  0  0  0
  -28.0990  -29.1127   21.1503 H   0  0  0  0  0  0
  -26.0242  -25.9523   19.0536 H   0  0  0  0  0  0
  -23.9684  -27.2740   19.0744 H   0  0  0  0  0  0
  -23.7146  -30.5928   19.4047 H   0  0  0  0  0  0
  -22.7319  -29.2375   19.8753 H   0  0  0  0  0  0
  -25.1281  -36.1975   25.0829 H   0  0  0  0  0  0
  -20.9946  -28.3241   24.1441 H   0  0  0  0  0  0
  -20.5677  -26.2273   23.3615 H   0  0  0  0  0  0
  -21.6625  -26.7445   22.1210 H   0  0  0  0  0  0
  -19.6891  -25.6302   21.1228 H   0  0  0  0  0  0
  -19.6667  -27.3214   20.6765 H   0  0  0  0  0  0
  -17.4185  -26.6722   21.4006 H   0  0  0  0  0  0
  -18.0275  -26.0053   22.8997 H   0  0  0  0  0  0
  -19.7932  -30.7270   24.2264 H   0  0  0  0  0  0
  -17.5013  -31.6262   24.5181 H   0  0  0  0  0  0
  -15.5350  -30.2987   23.7659 H   0  0  0  0  0  0
  -15.8667  -28.0834   22.7043 H   0  0  0  0  0  0
  -24.6040  -30.6871   25.7802 H   0  0  0  0  0  0
  -24.8816  -32.2769   26.4817 H   0  0  0  0  0  0
  -25.8139  -30.8939   27.0262 H   0  0  0  0  0  0
  -26.2943  -29.6767   24.1191 H   0  0  0  0  0  0
  -27.4228  -29.7338   25.4551 H   0  0  0  0  0  0
  -27.8719  -30.4420   23.9212 H   0  0  0  0  0  0
  -27.2667  -33.3627   26.2080 H   0  0  0  0  0  0
  -28.3865  -32.6878   25.0326 H   0  0  0  0  0  0
  -28.0725  -31.8450   26.5422 H   0  0  0  0  0  0
  -28.2592  -38.0105   24.7528 H   0  0  0  0  0  0
  -28.1068  -36.2630   24.6296 H   0  0  0  0  0  0
  -27.2288  -37.1463   25.8877 H   0  0  0  0  0  0
  -20.9299  -29.8757   21.6947 H   0  0  0  0  0  0
  -26.0176  -38.2871   24.1436 H   0  0  0  0  0  0
  -28.2060  -19.7112   21.4802 H   0  0  0  0  0  0
  -28.3682  -17.3378   22.0831 H   0  0  0  0  0  0
  -31.5319  -16.8460   19.1660 H   0  0  0  0  0  0
  -29.1520  -23.7587   22.8964 H   0  0  0  0  0  0
  -30.8269  -23.4172   23.3194 H   0  0  0  0  0  0
  -31.6386  -24.1416   21.1748 H   0  0  0  0  0  0
  -30.3220  -25.2758   21.4388 H   0  0  0  0  0  0
  -29.0745  -21.4814   22.4235 H   0  0  0  0  0  0
  -30.8130  -21.3773   22.1361 H   0  0  0  0  0  0
  -30.4824  -23.6765   19.2378 H   0  0  0  0  0  0
  -27.8664  -24.3402   20.7095 H   0  0  0  0  0  0
  -27.9152  -23.6391   19.1236 H   0  0  0  0  0  0
  -28.0202  -25.7590   18.2689 H   0  0  0  0  0  0
  -29.6552  -25.7713   18.7734 H   0  0  0  0  0  0
  -29.1170  -15.1753   21.5236 H   0  0  0  0  0  0
  -29.6441  -20.6209   17.6506 H   0  0  0  0  0  0
  -29.4387  -22.3072   17.9735 H   0  0  0  0  0  0
  1 25  1  0  0  0
  1 30  2  0  0  0
  1 85  1  0  0  0
  2  3  1  0  0  0
  2 25  1  0  0  0
  2 88  1  0  0  0
  2 89  1  0  0  0
  3  4  1  0  0  0
  3 90  1  0  0  0
  3 91  1  0  0  0
  4  5  1  0  0  0
  4 92  1  0  0  0
  4 93  1  0  0  0
  5  6  1  0  0  0
  5 26  1  0  0  0
  5 94  1  0  0  0
  6 25  1  0  0  0
  6 95  1  0  0  0
  6 96  1  0  0  0
  7  8  2  0  0  0
  7 26  1  0  0  0
  7 29  1  0  0  0
  8  9  1  0  0  0
  8 22  1  0  0  0
  9 10  1  0  0  0
  9 27  2  0  0  0
 10 11  2  0  0  0
 10 15  1  0  0  0
 11 12  1  0  0  0
 11 97  1  0  0  0
 12 13  2  0  0  0
 12 98  1  0  0  0
 13 14  1  0  0  0
 13 31  1  0  0  0
 14 15  2  0  0  0
 14 99  1  0  0  0
 15100  1  0  0  0
 16 17  2  0  0  0
 16 21  1  0  0  0
 16 31  1  0  0  0
 17 18  1  0  0  0
 17101  1  0  0  0
 18 19  2  0  0  0
 18102  1  0  0  0
 19 20  1  0  0  0
 19 24  1  0  0  0
 20 21  2  0  0  0
 20103  1  0  0  0
 21 23  1  0  0  0
 22 28  1  0  0  0
 22 32  2  0  0  0
 26 27  1  0  0  0
 28104  1  0  0  0
 28105  1  0  0  0
 29106  1  0  0  0
 29107  1  0  0  0
 33 34  1  0  0  0
 33 66  1  0  0  0
 33 70  2  0  0  0
 34 36  1  0  0  0
 34 59  1  0  0  0
 34108  1  0  0  0
 35 44  2  0  0  0
 35 45  1  0  0  0
 35 68  1  0  0  0
 36 56  1  0  0  0
 36109  1  0  0  0
 37 39  1  0  0  0
 37 47  1  0  0  0
 37 66  1  0  0  0
 37110  1  0  0  0
 38 43  2  0  0  0
 38 46  1  0  0  0
 38 47  1  0  0  0
 39 64  1  0  0  0
 39 67  2  0  0  0
 40 52  1  0  0  0
 40 53  2  0  0  0
 40 58  1  0  0  0
 41111  1  0  0  0
 41112  1  0  0  0
 41113  1  0  0  0
 41 48  1  0  0  0
 42 43  1  0  0  0
 42 66  1  0  0  0
 42114  1  0  0  0
 42115  1  0  0  0
 43 44  1  0  0  0
 44116  1  0  0  0
 45 46  2  0  0  0
 45117  1  0  0  0
 46118  1  0  0  0
 47119  1  0  0  0
 47120  1  0  0  0
 48 56  1  0  0  0
 48 65  1  0  0  0
 48121  1  0  0  0
 49 50  1  0  0  0
 49 53  1  0  0  0
 49 64  1  0  0  0
 49122  1  0  0  0
 50 51  1  0  0  0
 50123  1  0  0  0
 50124  1  0  0  0
 51 52  1  0  0  0
 51125  1  0  0  0
 51126  1  0  0  0
 52127  1  0  0  0
 52128  1  0  0  0
 53 54  1  0  0  0
 54 55  2  0  0  0
 54129  1  0  0  0
 55 57  1  0  0  0
 55130  1  0  0  0
 56 69  2  0  0  0
 57 58  2  0  0  0
 57131  1  0  0  0
 58132  1  0  0  0
 59 60  1  0  0  0
 59 61  1  0  0  0
 59 62  1  0  0  0
 60133  1  0  0  0
 60134  1  0  0  0
 60135  1  0  0  0
 61136  1  0  0  0
 61137  1  0  0  0
 61138  1  0  0  0
 62139  1  0  0  0
 62140  1  0  0  0
 62141  1  0  0  0
 63 65  1  0  0  0
 63142  1  0  0  0
 63143  1  0  0  0
 63144  1  0  0  0
 64145  1  0  0  0
 65146  1  0  0  0
 68 83  1  0  0  0
 71 72  2  0  0  0
 71 74  1  0  0  0
 71147  1  0  0  0
 72 75  1  0  0  0
 72148  1  0  0  0
 73 75  2  0  0  0
 73 76  1  0  0  0
 73149  1  0  0  0
 74 76  2  0  0  0
 74 77  1  0  0  0
 75 85  1  0  0  0
 76 87  1  0  0  0
 77 84  1  0  0  0
 77 86  2  0  0  0
 78 79  1  0  0  0
 78 80  1  0  0  0
 78150  1  0  0  0
 78151  1  0  0  0
 79 81  1  0  0  0
 79152  1  0  0  0
 79153  1  0  0  0
 80 84  1  0  0  0
 80154  1  0  0  0
 80155  1  0  0  0
 81 82  1  0  0  0
 81 84  1  0  0  0
 81156  1  0  0  0
 82 83  1  0  0  0
 82157  1  0  0  0
 82158  1  0  0  0
 83159  1  0  0  0
 83160  1  0  0  0
 85161  1  0  0  0
 86162  1  0  0  0
 86163  1  0  0  0
M  CHG  1  86   1
M  ISO  4   1 100  68 101  83 101  85 100
M  END
> <chiral flag>
0

> <version>
0

> <s_m_source_file>
/data/baiqing/PycharmProjects/Reinvent-master-3.2/result/LINK_invent/BTK/process_docking_weight1_custom_product_contain_oxygen_bond_distance_aromatic_linkinvent_7_9_3/rearranged_h_0144.sdf

> <i_m_source_file_index>
92

> <r_mmod_Potential_Energy-OPLS-2005>
-41.2631797790527

> <r_mmod_Stretch_Energy-OPLS-2005>
40.7944030761719

> <r_mmod_Bend_Energy-OPLS-2005>
134.052444458008

> <r_mmod_Torsional_Energy-OPLS-2005>
304.617553710938

> <r_mmod_Improper_Torsional_Energy-OPLS-2005>
4.64448499679565

> <r_mmod_Van_der_Waal_Energy-OPLS-2005>
160.46369934082

> <r_mmod_Electrostatic_Energy-OPLS-2005>
-302.614868164062

> <r_mmod_Solvation_Energy-OPLS-2005>
-395.795196533203

> <b_mmod_Minimization_Converged-OPLS-2005>
0

> <r_mmod_RMS_Derivative-OPLS-2005>
1.23183178901672

$$$$
93
                    3D
 Structure written by MMmdl.
169177  0  0  1  0            999 V2000
  -30.7713  -14.3403   20.6915 C   0  0  0  0  0  0
  -30.4164  -12.2794   19.3996 C   0  0  0  0  0  0
  -29.4918  -12.5361   18.1963 C   0  0  0  0  0  0
  -28.0108  -12.4057   18.5992 C   0  0  0  0  0  0
  -27.6676  -13.2054   19.8834 C   0  0  2  0  0  0
  -28.6986  -12.9341   21.0006 C   0  0  0  0  0  0
  -25.2629  -13.8164   20.5700 C   0  0  0  0  0  0
  -24.1868  -13.0469   20.9171 C   0  0  0  0  0  0
  -24.6410  -11.6924   20.8712 C   0  0  0  0  0  0
  -23.9081  -10.4315   21.0387 C   0  0  0  0  0  0
  -24.3629   -9.4239   21.9179 C   0  0  0  0  0  0
  -23.6308   -8.2271   22.0755 C   0  0  0  0  0  0
  -22.4293   -8.0302   21.3543 C   0  0  0  0  0  0
  -21.9927   -9.0271   20.4652 C   0  0  0  0  0  0
  -22.7248  -10.2154   20.3054 C   0  0  0  0  0  0
  -21.6865   -6.0766   22.5272 C   0  0  0  0  0  0
  -21.4007   -6.5652   23.8211 C   0  0  0  0  0  0
  -21.3658   -5.6799   24.9162 C   0  0  0  0  0  0
  -21.6048   -4.3066   24.7215 C   0  0  0  0  0  0
  -21.8815   -3.8171   23.4326 C   0  0  0  0  0  0
  -21.9204   -4.6993   22.3391 C   0  0  0  0  0  0
  -22.7892  -13.5278   21.1848 C   0  0  0  0  0  0
  -22.1678   -4.2193   21.0967 F   0  0  0  0  0  0
  -21.5635   -3.4547   25.7718 F   0  0  0  0  0  0
  -30.0487  -13.2154   20.4703 N   0  0  0  0  0  0
  -26.3052  -12.9332   20.3379 N   0  0  0  0  0  0
  -25.9319  -11.6491   20.5715 N   0  0  0  0  0  0
  -22.0510  -12.8260   22.0370 N   0  0  0  0  0  0
  -25.4418  -15.1896   20.4145 N   0  0  0  0  0  0
  -31.8130  -14.6071   20.0769 O   0  0  0  0  0  0
  -21.6646   -6.8910   21.4242 O   0  0  0  0  0  0
  -22.3599  -14.5602   20.6719 O   0  0  0  0  0  0
  -24.6079  -31.8702   23.2116 C   0  0  0  0  0  0
  -25.9011  -32.4819   23.8374 C   0  0  1  0  0  0
  -27.2376  -27.4809   20.1043 C   0  0  0  0  0  0
  -25.5881  -33.8612   24.2310 N   0  0  0  0  0  0
  -23.3916  -30.4933   21.5474 C   0  0  2  0  0  0
  -24.8416  -28.9672   20.1049 C   0  0  0  0  0  0
  -22.7370  -29.4685   22.4995 C   0  0  0  0  0  0
  -18.0238  -28.1402   22.8509 C   0  0  0  0  0  0
  -24.1485  -36.7311   23.2631 C   0  0  0  0  0  0
  -25.9141  -30.8561   21.3581 C   0  0  0  0  0  0
  -25.9950  -29.4976   20.6973 C   0  0  0  0  0  0
  -27.1965  -28.7663   20.6886 C   0  0  0  0  0  0
  -26.0812  -26.9603   19.4937 C   0  0  0  0  0  0
  -24.8801  -27.6974   19.4963 C   0  0  0  0  0  0
  -23.5971  -29.8205   20.1612 C   0  0  0  0  0  0
  -25.4108  -36.3113   24.0333 C   0  0  1  0  0  0
  -20.5828  -28.3709   23.1324 C   0  0  2  0  0  0
  -20.6745  -26.9444   22.5442 C   0  0  0  0  0  0
  -19.5739  -26.6420   21.5233 C   0  0  0  0  0  0
  -18.1897  -26.7958   22.1612 C   0  0  0  0  0  0
  -19.1489  -28.8870   23.2907 C   0  0  0  0  0  0
  -18.9427  -30.1460   23.8941 C   0  0  0  0  0  0
  -17.6437  -30.6614   24.0587 C   0  0  0  0  0  0
  -25.9040  -34.9480   23.5125 C   0  0  0  0  0  0
  -16.5321  -29.9127   23.6345 C   0  0  0  0  0  0
  -16.7230  -28.6527   23.0404 C   0  0  0  0  0  0
  -26.4487  -31.6555   25.0678 C   0  0  0  0  0  0
  -25.3791  -31.3634   26.1444 C   0  0  0  0  0  0
  -27.0299  -30.2975   24.6060 C   0  0  0  0  0  0
  -27.6057  -32.4265   25.7467 C   0  0  0  0  0  0
  -27.5610  -37.1782   24.8448 C   0  0  0  0  0  0
  -21.4104  -29.3059   22.3729 N   0  0  0  0  0  0
  -26.4287  -37.3820   23.9456 N   0  0  0  0  0  0
  -24.6545  -31.0863   22.0986 N   0  0  0  0  0  0
  -23.4162  -28.8287   23.3079 O   0  0  0  0  0  0
  -28.3558  -26.6888   20.1846 O   0  0  0  0  0  0
  -26.5644  -34.8955   22.4709 O   0  0  0  0  0  0
  -23.5289  -32.1409   23.7544 O   0  0  0  0  0  0
  -31.8051  -18.4443   21.8355 C   0  0  0  0  0  0
  -31.7867  -17.0412   22.0654 C   0  0  0  0  0  0
  -30.6357  -18.9197   21.2895 C   0  0  0  0  0  0
  -30.6003  -16.4560   21.7019 C   0  0  0  0  0  0
  -31.1698  -21.0085   20.2434 C   0  0  0  0  0  0
  -32.7592  -23.8402   20.3342 C   0  0  0  0  0  0
  -31.6726  -22.9707   22.3973 C   0  0  0  0  0  0
  -28.1889  -24.1036   21.6188 C   0  0  0  0  0  0
  -29.6247  -25.1203   23.3847 C   0  0  0  0  0  0
  -30.6754  -22.4511   20.0717 C   0  0  0  0  0  0
  -30.6015  -24.8675   20.9990 C   0  0  0  0  0  0
  -28.8054  -26.5368   21.5378 C   0  0  0  0  0  0
  -31.3888  -23.5122   20.9733 C   0  0  0  0  0  0
  -29.3240  -25.1146   21.8680 C   0  0  0  0  0  0
  -30.3366  -20.1711   20.8798 N   0  0  0  0  0  0
  -30.2942  -15.1438   21.6485 N   0  0  0  0  0  0
  -32.2702  -20.6671   19.8009 O   0  0  0  0  0  0
  -29.4451  -17.6543   21.1952 S   0  0  0  0  0  0
  -31.4607  -12.3811   19.0997 H   0  0  0  0  0  0
  -30.3139  -11.2517   19.7506 H   0  0  0  0  0  0
  -29.7235  -11.8384   17.3919 H   0  0  0  0  0  0
  -29.6788  -13.5345   17.7977 H   0  0  0  0  0  0
  -27.7963  -11.3477   18.7474 H   0  0  0  0  0  0
  -27.3758  -12.7375   17.7779 H   0  0  0  0  0  0
  -27.7300  -14.2648   19.6327 H   0  0  0  0  0  0
  -28.6442  -11.8906   21.3177 H   0  0  0  0  0  0
  -28.4419  -13.5115   21.8899 H   0  0  0  0  0  0
  -25.2759   -9.5730   22.4766 H   0  0  0  0  0  0
  -24.0031   -7.4670   22.7458 H   0  0  0  0  0  0
  -21.0874   -8.8780   19.8939 H   0  0  0  0  0  0
  -22.3698  -10.9701   19.6176 H   0  0  0  0  0  0
  -21.1963   -7.6154   23.9726 H   0  0  0  0  0  0
  -21.1496   -6.0519   25.9069 H   0  0  0  0  0  0
  -22.0599   -2.7638   23.2800 H   0  0  0  0  0  0
  -22.4079  -11.9898   22.4743 H   0  0  0  0  0  0
  -21.1115  -13.1290   22.2523 H   0  0  0  0  0  0
  -24.6836  -15.8543   20.5283 H   0  0  0  0  0  0
  -26.3044  -15.6252   20.1117 H   0  0  0  0  0  0
  -26.7091  -32.5606   23.1150 H   0  0  0  0  0  0
  -24.9960  -33.9762   25.0408 H   0  0  0  0  0  0
  -22.6759  -31.3068   21.4071 H   0  0  0  0  0  0
  -23.3792  -35.9597   23.3209 H   0  0  0  0  0  0
  -24.3569  -36.9000   22.2058 H   0  0  0  0  0  0
  -23.7171  -37.6457   23.6703 H   0  0  0  0  0  0
  -26.0265  -31.6358   20.6020 H   0  0  0  0  0  0
  -26.7991  -30.8957   21.9819 H   0  0  0  0  0  0
  -28.0814  -29.1823   21.1510 H   0  0  0  0  0  0
  -26.1051  -25.9708   19.0576 H   0  0  0  0  0  0
  -23.9954  -27.2781   19.0388 H   0  0  0  0  0  0
  -23.6984  -30.5957   19.3990 H   0  0  0  0  0  0
  -22.7250  -29.2337   19.8666 H   0  0  0  0  0  0
  -25.1277  -36.1945   25.0822 H   0  0  0  0  0  0
  -20.9861  -28.3285   24.1473 H   0  0  0  0  0  0
  -20.5656  -26.2342   23.3643 H   0  0  0  0  0  0
  -21.6622  -26.7526   22.1242 H   0  0  0  0  0  0
  -19.6918  -25.6344   21.1260 H   0  0  0  0  0  0
  -19.6668  -27.3255   20.6787 H   0  0  0  0  0  0
  -17.4180  -26.6745   21.3982 H   0  0  0  0  0  0
  -18.0243  -26.0061   22.8971 H   0  0  0  0  0  0
  -19.7898  -30.7269   24.2334 H   0  0  0  0  0  0
  -17.4997  -31.6304   24.5179 H   0  0  0  0  0  0
  -15.5329  -30.3087   23.7616 H   0  0  0  0  0  0
  -15.8614  -28.0844   22.7182 H   0  0  0  0  0  0
  -24.6009  -30.6908   25.7811 H   0  0  0  0  0  0
  -24.8964  -32.2773   26.4900 H   0  0  0  0  0  0
  -25.8188  -30.8822   27.0183 H   0  0  0  0  0  0
  -26.2798  -29.6736   24.1183 H   0  0  0  0  0  0
  -27.4078  -29.7218   25.4521 H   0  0  0  0  0  0
  -27.8653  -30.4245   23.9171 H   0  0  0  0  0  0
  -27.2633  -33.3524   26.2114 H   0  0  0  0  0  0
  -28.3851  -32.6875   25.0289 H   0  0  0  0  0  0
  -28.0773  -31.8363   26.5335 H   0  0  0  0  0  0
  -28.2544  -38.0184   24.7636 H   0  0  0  0  0  0
  -28.1185  -36.2713   24.6048 H   0  0  0  0  0  0
  -27.2333  -37.1101   25.8846 H   0  0  0  0  0  0
  -20.9280  -29.8695   21.6875 H   0  0  0  0  0  0
  -26.0152  -38.2859   24.1597 H   0  0  0  0  0  0
  -32.6839  -19.0385   22.0430 H   0  0  0  0  0  0
  -32.6555  -16.5169   22.4389 H   0  0  0  0  0  0
  -33.4220  -22.9759   20.3103 H   0  0  0  0  0  0
  -33.2820  -24.6206   20.8908 H   0  0  0  0  0  0
  -32.6469  -24.1878   19.3061 H   0  0  0  0  0  0
  -32.4463  -22.2033   22.3959 H   0  0  0  0  0  0
  -30.7942  -22.4990   22.8375 H   0  0  0  0  0  0
  -32.0236  -23.7548   23.0684 H   0  0  0  0  0  0
  -28.4614  -23.1049   21.9606 H   0  0  0  0  0  0
  -27.9233  -24.0434   20.5630 H   0  0  0  0  0  0
  -27.2880  -24.3833   22.1692 H   0  0  0  0  0  0
  -29.7624  -24.1225   23.7945 H   0  0  0  0  0  0
  -28.7962  -25.5453   23.9525 H   0  0  0  0  0  0
  -30.5105  -25.7125   23.6172 H   0  0  0  0  0  0
  -29.6024  -22.4502   20.2253 H   0  0  0  0  0  0
  -30.7894  -22.7238   19.0223 H   0  0  0  0  0  0
  -30.3478  -25.0991   19.9639 H   0  0  0  0  0  0
  -31.3016  -25.6547   21.2811 H   0  0  0  0  0  0
  -29.5770  -27.2799   21.7416 H   0  0  0  0  0  0
  -27.9899  -26.7523   22.2356 H   0  0  0  0  0  0
  -29.3864  -20.4853   21.0324 H   0  0  0  0  0  0
  -29.4072  -14.8614   22.0379 H   0  0  0  0  0  0
  1 25  1  0  0  0
  1 30  2  0  0  0
  1 86  1  0  0  0
  2  3  1  0  0  0
  2 25  1  0  0  0
  2 89  1  0  0  0
  2 90  1  0  0  0
  3  4  1  0  0  0
  3 91  1  0  0  0
  3 92  1  0  0  0
  4  5  1  0  0  0
  4 93  1  0  0  0
  4 94  1  0  0  0
  5  6  1  0  0  0
  5 26  1  0  0  0
  5 95  1  0  0  0
  6 25  1  0  0  0
  6 96  1  0  0  0
  6 97  1  0  0  0
  7  8  2  0  0  0
  7 26  1  0  0  0
  7 29  1  0  0  0
  8  9  1  0  0  0
  8 22  1  0  0  0
  9 10  1  0  0  0
  9 27  2  0  0  0
 10 11  2  0  0  0
 10 15  1  0  0  0
 11 12  1  0  0  0
 11 98  1  0  0  0
 12 13  2  0  0  0
 12 99  1  0  0  0
 13 14  1  0  0  0
 13 31  1  0  0  0
 14 15  2  0  0  0
 14100  1  0  0  0
 15101  1  0  0  0
 16 17  2  0  0  0
 16 21  1  0  0  0
 16 31  1  0  0  0
 17 18  1  0  0  0
 17102  1  0  0  0
 18 19  2  0  0  0
 18103  1  0  0  0
 19 20  1  0  0  0
 19 24  1  0  0  0
 20 21  2  0  0  0
 20104  1  0  0  0
 21 23  1  0  0  0
 22 28  1  0  0  0
 22 32  2  0  0  0
 26 27  1  0  0  0
 28105  1  0  0  0
 28106  1  0  0  0
 29107  1  0  0  0
 29108  1  0  0  0
 33 34  1  0  0  0
 33 66  1  0  0  0
 33 70  2  0  0  0
 34 36  1  0  0  0
 34 59  1  0  0  0
 34109  1  0  0  0
 35 44  2  0  0  0
 35 45  1  0  0  0
 35 68  1  0  0  0
 36 56  1  0  0  0
 36110  1  0  0  0
 37 39  1  0  0  0
 37 47  1  0  0  0
 37 66  1  0  0  0
 37111  1  0  0  0
 38 43  2  0  0  0
 38 46  1  0  0  0
 38 47  1  0  0  0
 39 64  1  0  0  0
 39 67  2  0  0  0
 40 52  1  0  0  0
 40 53  2  0  0  0
 40 58  1  0  0  0
 41112  1  0  0  0
 41113  1  0  0  0
 41114  1  0  0  0
 41 48  1  0  0  0
 42 43  1  0  0  0
 42 66  1  0  0  0
 42115  1  0  0  0
 42116  1  0  0  0
 43 44  1  0  0  0
 44117  1  0  0  0
 45 46  2  0  0  0
 45118  1  0  0  0
 46119  1  0  0  0
 47120  1  0  0  0
 47121  1  0  0  0
 48 56  1  0  0  0
 48 65  1  0  0  0
 48122  1  0  0  0
 49 50  1  0  0  0
 49 53  1  0  0  0
 49 64  1  0  0  0
 49123  1  0  0  0
 50 51  1  0  0  0
 50124  1  0  0  0
 50125  1  0  0  0
 51 52  1  0  0  0
 51126  1  0  0  0
 51127  1  0  0  0
 52128  1  0  0  0
 52129  1  0  0  0
 53 54  1  0  0  0
 54 55  2  0  0  0
 54130  1  0  0  0
 55 57  1  0  0  0
 55131  1  0  0  0
 56 69  2  0  0  0
 57 58  2  0  0  0
 57132  1  0  0  0
 58133  1  0  0  0
 59 60  1  0  0  0
 59 61  1  0  0  0
 59 62  1  0  0  0
 60134  1  0  0  0
 60135  1  0  0  0
 60136  1  0  0  0
 61137  1  0  0  0
 61138  1  0  0  0
 61139  1  0  0  0
 62140  1  0  0  0
 62141  1  0  0  0
 62142  1  0  0  0
 63 65  1  0  0  0
 63143  1  0  0  0
 63144  1  0  0  0
 63145  1  0  0  0
 64146  1  0  0  0
 65147  1  0  0  0
 68 82  1  0  0  0
 71 72  1  0  0  0
 71 73  2  0  0  0
 71148  1  0  0  0
 72 74  2  0  0  0
 72149  1  0  0  0
 73 85  1  0  0  0
 73 88  1  0  0  0
 74 86  1  0  0  0
 74 88  1  0  0  0
 75 80  1  0  0  0
 75 85  1  0  0  0
 75 87  2  0  0  0
 76150  1  0  0  0
 76151  1  0  0  0
 76152  1  0  0  0
 76 83  1  0  0  0
 77 83  1  0  0  0
 77153  1  0  0  0
 77154  1  0  0  0
 77155  1  0  0  0
 78156  1  0  0  0
 78157  1  0  0  0
 78158  1  0  0  0
 78 84  1  0  0  0
 79 84  1  0  0  0
 79159  1  0  0  0
 79160  1  0  0  0
 79161  1  0  0  0
 80 83  1  0  0  0
 80162  1  0  0  0
 80163  1  0  0  0
 81 83  1  0  0  0
 81 84  1  0  0  0
 81164  1  0  0  0
 81165  1  0  0  0
 82 84  1  0  0  0
 82166  1  0  0  0
 82167  1  0  0  0
 85168  1  0  0  0
 86169  1  0  0  0
M  ISO  4   1 100  68 101  82 101  86 100
M  END
> <chiral flag>
0

> <version>
0

> <s_m_source_file>
/data/baiqing/PycharmProjects/Reinvent-master-3.2/result/LINK_invent/BTK/process_docking_weight1_custom_product_contain_oxygen_bond_distance_aromatic_linkinvent_7_9_3/rearranged_h_0144.sdf

> <i_m_source_file_index>
93

> <r_mmod_Potential_Energy-OPLS-2005>
13.5261631011963

> <r_mmod_Stretch_Energy-OPLS-2005>
36.1608734130859

> <r_mmod_Bend_Energy-OPLS-2005>
121.671119689941

> <r_mmod_Torsional_Energy-OPLS-2005>
275.739929199219

> <r_mmod_Improper_Torsional_Energy-OPLS-2005>
3.86897134780884

> <r_mmod_Van_der_Waal_Energy-OPLS-2005>
151.771087646484

> <r_mmod_Electrostatic_Energy-OPLS-2005>
-365.702758789062

> <r_mmod_Solvation_Energy-OPLS-2005>
-219.590835571289

> <b_mmod_Minimization_Converged-OPLS-2005>
0

> <r_mmod_RMS_Derivative-OPLS-2005>
4.00179624557495

$$$$
94
                    3D
 Structure written by MMmdl.
168177  0  0  1  0            999 V2000
  -30.6872  -14.4278   20.6701 C   0  0  0  0  0  0
  -30.4394  -12.3158   19.3984 C   0  0  0  0  0  0
  -29.4943  -12.5322   18.1966 C   0  0  0  0  0  0
  -28.0160  -12.3805   18.6095 C   0  0  0  0  0  0
  -27.6691  -13.1960   19.8823 C   0  0  2  0  0  0
  -28.7042  -12.9055   20.9900 C   0  0  0  0  0  0
  -25.2613  -13.8148   20.5663 C   0  0  0  0  0  0
  -24.1848  -13.0443   20.9156 C   0  0  0  0  0  0
  -24.6387  -11.6902   20.8715 C   0  0  0  0  0  0
  -23.9050  -10.4293   21.0403 C   0  0  0  0  0  0
  -24.3610   -9.4205   21.9180 C   0  0  0  0  0  0
  -23.6283   -8.2245   22.0755 C   0  0  0  0  0  0
  -22.4267   -8.0283   21.3546 C   0  0  0  0  0  0
  -21.9899   -9.0252   20.4648 C   0  0  0  0  0  0
  -22.7230  -10.2130   20.3049 C   0  0  0  0  0  0
  -21.6842   -6.0728   22.5275 C   0  0  0  0  0  0
  -21.4011   -6.5629   23.8207 C   0  0  0  0  0  0
  -21.3661   -5.6786   24.9174 C   0  0  0  0  0  0
  -21.6051   -4.3051   24.7230 C   0  0  0  0  0  0
  -21.8817   -3.8138   23.4347 C   0  0  0  0  0  0
  -21.9191   -4.6952   22.3406 C   0  0  0  0  0  0
  -22.7869  -13.5240   21.1837 C   0  0  0  0  0  0
  -22.1653   -4.2138   21.0979 F   0  0  0  0  0  0
  -21.5642   -3.4535   25.7741 F   0  0  0  0  0  0
  -30.0473  -13.2425   20.4710 N   0  0  0  0  0  0
  -26.3052  -12.9295   20.3370 N   0  0  0  0  0  0
  -25.9305  -11.6464   20.5735 N   0  0  0  0  0  0
  -22.0511  -12.8229   22.0399 N   0  0  0  0  0  0
  -25.4370  -15.1861   20.4087 N   0  0  0  0  0  0
  -31.7182  -14.7536   20.0690 O   0  0  0  0  0  0
  -21.6632   -6.8877   21.4242 O   0  0  0  0  0  0
  -22.3557  -14.5560   20.6700 O   0  0  0  0  0  0
  -24.6144  -31.8675   23.2094 C   0  0  0  0  0  0
  -25.9051  -32.4817   23.8372 C   0  0  1  0  0  0
  -27.2345  -27.4178   20.0927 C   0  0  0  0  0  0
  -25.5919  -33.8620   24.2315 N   0  0  0  0  0  0
  -23.4023  -30.4906   21.5496 C   0  0  2  0  0  0
  -24.8497  -28.9575   20.1113 C   0  0  0  0  0  0
  -22.7414  -29.4630   22.4968 C   0  0  0  0  0  0
  -18.0288  -28.1336   22.8489 C   0  0  0  0  0  0
  -24.1501  -36.7307   23.2636 C   0  0  0  0  0  0
  -25.9329  -30.8269   21.3644 C   0  0  0  0  0  0
  -26.0084  -29.4598   20.7123 C   0  0  0  0  0  0
  -27.2002  -28.6955   20.7034 C   0  0  0  0  0  0
  -26.0568  -26.9459   19.4645 C   0  0  0  0  0  0
  -24.8691  -27.7001   19.4845 C   0  0  0  0  0  0
  -23.6113  -29.8237   20.1641 C   0  0  0  0  0  0
  -25.4125  -36.3113   24.0337 C   0  0  1  0  0  0
  -20.5880  -28.3635   23.1305 C   0  0  2  0  0  0
  -20.6787  -26.9369   22.5406 C   0  0  0  0  0  0
  -19.5776  -26.6366   21.5189 C   0  0  0  0  0  0
  -18.1945  -26.7889   22.1595 C   0  0  0  0  0  0
  -19.1536  -28.8801   23.2890 C   0  0  0  0  0  0
  -18.9463  -30.1419   23.8893 C   0  0  0  0  0  0
  -17.6472  -30.6560   24.0550 C   0  0  0  0  0  0
  -25.9045  -34.9480   23.5117 C   0  0  0  0  0  0
  -16.5361  -29.9067   23.6307 C   0  0  0  0  0  0
  -16.7282  -28.6478   23.0337 C   0  0  0  0  0  0
  -26.4493  -31.6593   25.0692 C   0  0  0  0  0  0
  -25.3762  -31.3700   26.1435 C   0  0  0  0  0  0
  -27.0305  -30.3037   24.6030 C   0  0  0  0  0  0
  -27.6044  -32.4323   25.7472 C   0  0  0  0  0  0
  -27.5597  -37.1816   24.8475 C   0  0  0  0  0  0
  -21.4141  -29.3000   22.3705 N   0  0  0  0  0  0
  -26.4316  -37.3792   23.9411 N   0  0  0  0  0  0
  -24.6680  -31.0766   22.0992 N   0  0  0  0  0  0
  -23.4187  -28.8155   23.2999 O   0  0  0  0  0  0
  -28.4175  -26.6979   20.1387 O   0  0  0  0  0  0
  -26.5598  -34.8929   22.4675 O   0  0  0  0  0  0
  -23.5341  -32.1435   23.7487 O   0  0  0  0  0  0
  -28.9433  -18.4490   22.1929 C   0  0  0  0  0  0
  -28.9454  -17.0568   22.4943 C   0  0  0  0  0  0
  -29.8496  -18.6412   21.1805 C   0  0  0  0  0  0
  -29.8742  -16.5159   21.6450 C   0  0  0  0  0  0
  -30.3081  -22.0286   19.9326 C   0  0  0  0  0  0
  -29.5233  -21.0232   20.6598 C   0  0  0  0  0  0
  -30.2306  -23.4053   19.9207 C   0  0  0  0  0  0
  -31.3641  -21.2805   19.1448 C   0  0  0  0  0  0
  -31.3424  -19.8697   19.7075 C   0  0  0  0  0  0
  -28.0939  -16.3556   23.5220 C   0  0  0  0  0  0
  -31.2473  -24.1284   19.0259 C   0  0  0  0  0  0
  -28.4772  -23.8805   21.8644 C   0  0  0  0  0  0
  -30.3697  -25.3643   21.5075 C   0  0  0  0  0  0
  -28.4534  -25.2941   19.7939 C   0  0  0  0  0  0
  -29.3791  -24.4443   20.7443 C   0  0  0  0  0  0
  -30.1791  -19.8301   20.5800 N   0  0  0  0  0  0
  -30.1215  -15.1798   21.6282 N   0  0  0  0  0  0
  -28.4023  -21.1471   21.1517 O   0  0  0  0  0  0
  -30.4499  -17.4535   20.8307 O   0  0  0  0  0  0
  -31.4784  -12.4570   19.0924 H   0  0  0  0  0  0
  -30.3728  -11.2875   19.7560 H   0  0  0  0  0  0
  -29.7338  -11.8261   17.3997 H   0  0  0  0  0  0
  -29.6544  -13.5265   17.7789 H   0  0  0  0  0  0
  -27.8275  -11.3220   18.7880 H   0  0  0  0  0  0
  -27.3618  -12.6692   17.7860 H   0  0  0  0  0  0
  -27.7340  -14.2536   19.6254 H   0  0  0  0  0  0
  -28.6765  -11.8452   21.2473 H   0  0  0  0  0  0
  -28.4323  -13.4193   21.9124 H   0  0  0  0  0  0
  -25.2760   -9.5670   22.4751 H   0  0  0  0  0  0
  -23.9981   -7.4638   22.7471 H   0  0  0  0  0  0
  -21.0835   -8.8782   19.8949 H   0  0  0  0  0  0
  -22.3704  -10.9669   19.6155 H   0  0  0  0  0  0
  -21.1992   -7.6143   23.9710 H   0  0  0  0  0  0
  -21.1490   -6.0518   25.9079 H   0  0  0  0  0  0
  -22.0597   -2.7600   23.2854 H   0  0  0  0  0  0
  -22.4112  -11.9866   22.4758 H   0  0  0  0  0  0
  -21.1142  -13.1271   22.2638 H   0  0  0  0  0  0
  -24.6752  -15.8469   20.5172 H   0  0  0  0  0  0
  -26.3001  -15.6217   20.1086 H   0  0  0  0  0  0
  -26.7103  -32.5551   23.1122 H   0  0  0  0  0  0
  -25.0145  -33.9781   25.0511 H   0  0  0  0  0  0
  -22.6890  -31.3056   21.4104 H   0  0  0  0  0  0
  -23.3764  -35.9637   23.3313 H   0  0  0  0  0  0
  -24.3601  -36.8912   22.2044 H   0  0  0  0  0  0
  -23.7235  -37.6511   23.6638 H   0  0  0  0  0  0
  -26.0468  -31.5894   20.5933 H   0  0  0  0  0  0
  -26.8197  -30.8851   21.9806 H   0  0  0  0  0  0
  -28.0949  -29.0775   21.1748 H   0  0  0  0  0  0
  -26.0253  -26.0061   18.9352 H   0  0  0  0  0  0
  -23.9811  -27.3145   19.0019 H   0  0  0  0  0  0
  -23.7180  -30.5978   19.4034 H   0  0  0  0  0  0
  -22.7364  -29.2411   19.8707 H   0  0  0  0  0  0
  -25.1286  -36.1980   25.0823 H   0  0  0  0  0  0
  -20.9985  -28.3215   24.1423 H   0  0  0  0  0  0
  -20.5684  -26.2232   23.3589 H   0  0  0  0  0  0
  -21.6653  -26.7423   22.1182 H   0  0  0  0  0  0
  -19.6933  -25.6278   21.1213 H   0  0  0  0  0  0
  -19.6716  -27.3178   20.6718 H   0  0  0  0  0  0
  -17.4205  -26.6634   21.4002 H   0  0  0  0  0  0
  -18.0356  -26.0013   22.8979 H   0  0  0  0  0  0
  -19.7944  -30.7217   24.2257 H   0  0  0  0  0  0
  -17.5035  -31.6236   24.5152 H   0  0  0  0  0  0
  -15.5359  -30.2962   23.7634 H   0  0  0  0  0  0
  -15.8684  -28.0809   22.7031 H   0  0  0  0  0  0
  -24.5945  -30.7025   25.7794 H   0  0  0  0  0  0
  -24.8941  -32.2859   26.4857 H   0  0  0  0  0  0
  -25.8127  -30.8897   27.0203 H   0  0  0  0  0  0
  -26.2822  -29.6801   24.1122 H   0  0  0  0  0  0
  -27.4149  -29.7249   25.4441 H   0  0  0  0  0  0
  -27.8621  -30.4356   23.9105 H   0  0  0  0  0  0
  -27.2638  -33.3622   26.2031 H   0  0  0  0  0  0
  -28.3866  -32.6911   25.0325 H   0  0  0  0  0  0
  -28.0689  -31.8468   26.5410 H   0  0  0  0  0  0
  -28.2604  -38.0125   24.7532 H   0  0  0  0  0  0
  -28.1101  -36.2658   24.6289 H   0  0  0  0  0  0
  -27.2314  -37.1440   25.8877 H   0  0  0  0  0  0
  -20.9289  -29.8749   21.6959 H   0  0  0  0  0  0
  -26.0204  -38.2865   24.1425 H   0  0  0  0  0  0
  -28.3382  -19.2050   22.6726 H   0  0  0  0  0  0
  -32.3565  -21.7207   19.2551 H   0  0  0  0  0  0
  -31.0983  -21.2739   18.0857 H   0  0  0  0  0  0
  -32.2447  -19.6666   20.2861 H   0  0  0  0  0  0
  -31.2694  -19.1254   18.9139 H   0  0  0  0  0  0
  -27.4635  -17.0735   24.0481 H   0  0  0  0  0  0
  -28.7199  -15.8505   24.2570 H   0  0  0  0  0  0
  -27.4446  -15.6179   23.0498 H   0  0  0  0  0  0
  -31.4183  -23.6062   18.0851 H   0  0  0  0  0  0
  -32.2031  -24.2058   19.5471 H   0  0  0  0  0  0
  -30.9465  -25.1359   18.7422 H   0  0  0  0  0  0
  -29.0180  -23.2226   22.5450 H   0  0  0  0  0  0
  -27.6035  -23.3615   21.4715 H   0  0  0  0  0  0
  -28.0646  -24.6840   22.4766 H   0  0  0  0  0  0
  -31.0574  -24.7794   22.1189 H   0  0  0  0  0  0
  -29.8484  -26.0490   22.1790 H   0  0  0  0  0  0
  -30.9690  -25.9905   20.8475 H   0  0  0  0  0  0
  -28.7650  -25.2341   18.7514 H   0  0  0  0  0  0
  -27.4711  -24.8289   19.7987 H   0  0  0  0  0  0
  -29.4904  -14.6480   22.2040 H   0  0  0  0  0  0
  1 25  1  0  0  0
  1 30  2  0  0  0
  1 87  1  0  0  0
  2  3  1  0  0  0
  2 25  1  0  0  0
  2 90  1  0  0  0
  2 91  1  0  0  0
  3  4  1  0  0  0
  3 92  1  0  0  0
  3 93  1  0  0  0
  4  5  1  0  0  0
  4 94  1  0  0  0
  4 95  1  0  0  0
  5  6  1  0  0  0
  5 26  1  0  0  0
  5 96  1  0  0  0
  6 25  1  0  0  0
  6 97  1  0  0  0
  6 98  1  0  0  0
  7  8  2  0  0  0
  7 26  1  0  0  0
  7 29  1  0  0  0
  8  9  1  0  0  0
  8 22  1  0  0  0
  9 10  1  0  0  0
  9 27  2  0  0  0
 10 11  2  0  0  0
 10 15  1  0  0  0
 11 12  1  0  0  0
 11 99  1  0  0  0
 12 13  2  0  0  0
 12100  1  0  0  0
 13 14  1  0  0  0
 13 31  1  0  0  0
 14 15  2  0  0  0
 14101  1  0  0  0
 15102  1  0  0  0
 16 17  2  0  0  0
 16 21  1  0  0  0
 16 31  1  0  0  0
 17 18  1  0  0  0
 17103  1  0  0  0
 18 19  2  0  0  0
 18104  1  0  0  0
 19 20  1  0  0  0
 19 24  1  0  0  0
 20 21  2  0  0  0
 20105  1  0  0  0
 21 23  1  0  0  0
 22 28  1  0  0  0
 22 32  2  0  0  0
 26 27  1  0  0  0
 28106  1  0  0  0
 28107  1  0  0  0
 29108  1  0  0  0
 29109  1  0  0  0
 33 34  1  0  0  0
 33 66  1  0  0  0
 33 70  2  0  0  0
 34 36  1  0  0  0
 34 59  1  0  0  0
 34110  1  0  0  0
 35 44  2  0  0  0
 35 45  1  0  0  0
 35 68  1  0  0  0
 36 56  1  0  0  0
 36111  1  0  0  0
 37 39  1  0  0  0
 37 47  1  0  0  0
 37 66  1  0  0  0
 37112  1  0  0  0
 38 43  2  0  0  0
 38 46  1  0  0  0
 38 47  1  0  0  0
 39 64  1  0  0  0
 39 67  2  0  0  0
 40 52  1  0  0  0
 40 53  2  0  0  0
 40 58  1  0  0  0
 41113  1  0  0  0
 41114  1  0  0  0
 41115  1  0  0  0
 41 48  1  0  0  0
 42 43  1  0  0  0
 42 66  1  0  0  0
 42116  1  0  0  0
 42117  1  0  0  0
 43 44  1  0  0  0
 44118  1  0  0  0
 45 46  2  0  0  0
 45119  1  0  0  0
 46120  1  0  0  0
 47121  1  0  0  0
 47122  1  0  0  0
 48 56  1  0  0  0
 48 65  1  0  0  0
 48123  1  0  0  0
 49 50  1  0  0  0
 49 53  1  0  0  0
 49 64  1  0  0  0
 49124  1  0  0  0
 50 51  1  0  0  0
 50125  1  0  0  0
 50126  1  0  0  0
 51 52  1  0  0  0
 51127  1  0  0  0
 51128  1  0  0  0
 52129  1  0  0  0
 52130  1  0  0  0
 53 54  1  0  0  0
 54 55  2  0  0  0
 54131  1  0  0  0
 55 57  1  0  0  0
 55132  1  0  0  0
 56 69  2  0  0  0
 57 58  2  0  0  0
 57133  1  0  0  0
 58134  1  0  0  0
 59 60  1  0  0  0
 59 61  1  0  0  0
 59 62  1  0  0  0
 60135  1  0  0  0
 60136  1  0  0  0
 60137  1  0  0  0
 61138  1  0  0  0
 61139  1  0  0  0
 61140  1  0  0  0
 62141  1  0  0  0
 62142  1  0  0  0
 62143  1  0  0  0
 63 65  1  0  0  0
 63144  1  0  0  0
 63145  1  0  0  0
 63146  1  0  0  0
 64147  1  0  0  0
 65148  1  0  0  0
 68 84  1  0  0  0
 71 72  1  0  0  0
 71 73  2  0  0  0
 71149  1  0  0  0
 72 74  2  0  0  0
 72 80  1  0  0  0
 73 86  1  0  0  0
 73 89  1  0  0  0
 74 87  1  0  0  0
 74 89  1  0  0  0
 75 76  1  0  0  0
 75 77  2  0  0  0
 75 78  1  0  0  0
 76 86  1  0  0  0
 76 88  2  0  0  0
 77 81  1  0  0  0
 77 85  1  0  0  0
 78 79  1  0  0  0
 78150  1  0  0  0
 78151  1  0  0  0
 79 86  1  0  0  0
 79152  1  0  0  0
 79153  1  0  0  0
 80154  1  0  0  0
 80155  1  0  0  0
 80156  1  0  0  0
 81157  1  0  0  0
 81158  1  0  0  0
 81159  1  0  0  0
 82160  1  0  0  0
 82161  1  0  0  0
 82162  1  0  0  0
 82 85  1  0  0  0
 83 85  1  0  0  0
 83163  1  0  0  0
 83164  1  0  0  0
 83165  1  0  0  0
 84 85  1  0  0  0
 84166  1  0  0  0
 84167  1  0  0  0
 87168  1  0  0  0
M  ISO  4   1 100  68 101  84 101  87 100
M  END
> <chiral flag>
0

> <version>
0

> <s_m_source_file>
/data/baiqing/PycharmProjects/Reinvent-master-3.2/result/LINK_invent/BTK/process_docking_weight1_custom_product_contain_oxygen_bond_distance_aromatic_linkinvent_7_9_3/rearranged_h_0144.sdf

> <i_m_source_file_index>
94

> <r_mmod_Potential_Energy-OPLS-2005>
103.862678527832

> <r_mmod_Stretch_Energy-OPLS-2005>
51.8762245178223

> <r_mmod_Bend_Energy-OPLS-2005>
196.815063476562

> <r_mmod_Torsional_Energy-OPLS-2005>
257.672943115234

> <r_mmod_Improper_Torsional_Energy-OPLS-2005>
5.2576470375061

> <r_mmod_Van_der_Waal_Energy-OPLS-2005>
161.434356689453

> <r_mmod_Electrostatic_Energy-OPLS-2005>
-378.366119384766

> <r_mmod_Solvation_Energy-OPLS-2005>
-203.681167602539

> <b_mmod_Minimization_Converged-OPLS-2005>
0

> <r_mmod_RMS_Derivative-OPLS-2005>
2.26109170913696

$$$$
95
                    3D
 Structure written by MMmdl.
166175  0  0  1  0            999 V2000
  -30.7205  -14.4066   20.6122 C   0  0  0  0  0  0
  -30.4192  -12.2813   19.4070 C   0  0  0  0  0  0
  -29.4913  -12.5210   18.1987 C   0  0  0  0  0  0
  -28.0109  -12.3866   18.6073 C   0  0  0  0  0  0
  -27.6667  -13.2017   19.8823 C   0  0  2  0  0  0
  -28.7043  -12.9371   20.9966 C   0  0  0  0  0  0
  -25.2608  -13.8153   20.5678 C   0  0  0  0  0  0
  -24.1843  -13.0442   20.9156 C   0  0  0  0  0  0
  -24.6382  -11.6903   20.8711 C   0  0  0  0  0  0
  -23.9037  -10.4293   21.0387 C   0  0  0  0  0  0
  -24.3597   -9.4215   21.9171 C   0  0  0  0  0  0
  -23.6283   -8.2249   22.0751 C   0  0  0  0  0  0
  -22.4270   -8.0278   21.3538 C   0  0  0  0  0  0
  -21.9889   -9.0245   20.4643 C   0  0  0  0  0  0
  -22.7205  -10.2128   20.3042 C   0  0  0  0  0  0
  -21.6854   -6.0730   22.5279 C   0  0  0  0  0  0
  -21.4017   -6.5634   23.8209 C   0  0  0  0  0  0
  -21.3658   -5.6787   24.9172 C   0  0  0  0  0  0
  -21.6048   -4.3055   24.7229 C   0  0  0  0  0  0
  -21.8817   -3.8141   23.4349 C   0  0  0  0  0  0
  -21.9194   -4.6956   22.3403 C   0  0  0  0  0  0
  -22.7870  -13.5252   21.1833 C   0  0  0  0  0  0
  -22.1663   -4.2142   21.0984 F   0  0  0  0  0  0
  -21.5626   -3.4538   25.7737 F   0  0  0  0  0  0
  -30.0452  -13.2382   20.4583 N   0  0  0  0  0  0
  -26.3041  -12.9314   20.3383 N   0  0  0  0  0  0
  -25.9309  -11.6470   20.5740 N   0  0  0  0  0  0
  -22.0504  -12.8245   22.0388 N   0  0  0  0  0  0
  -25.4350  -15.1872   20.4107 N   0  0  0  0  0  0
  -31.8148  -14.6170   20.0815 O   0  0  0  0  0  0
  -21.6639   -6.8871   21.4239 O   0  0  0  0  0  0
  -22.3561  -14.5556   20.6683 O   0  0  0  0  0  0
  -24.6075  -31.8726   23.2132 C   0  0  0  0  0  0
  -25.8986  -32.4841   23.8427 C   0  0  1  0  0  0
  -27.2623  -27.4895   20.1079 C   0  0  0  0  0  0
  -25.5858  -33.8640   24.2366 N   0  0  0  0  0  0
  -23.3950  -30.4935   21.5496 C   0  0  2  0  0  0
  -24.8500  -28.9614   20.1231 C   0  0  0  0  0  0
  -22.7379  -29.4676   22.5017 C   0  0  0  0  0  0
  -18.0272  -28.1395   22.8509 C   0  0  0  0  0  0
  -24.1481  -36.7321   23.2642 C   0  0  0  0  0  0
  -25.9163  -30.8572   21.3582 C   0  0  0  0  0  0
  -26.0011  -29.4900   20.7195 C   0  0  0  0  0  0
  -27.2061  -28.7626   20.7148 C   0  0  0  0  0  0
  -26.0964  -26.9686   19.5075 C   0  0  0  0  0  0
  -24.8877  -27.6933   19.5188 C   0  0  0  0  0  0
  -23.6045  -29.8175   20.1675 C   0  0  0  0  0  0
  -25.4092  -36.3122   24.0361 C   0  0  1  0  0  0
  -20.5853  -28.3671   23.1346 C   0  0  2  0  0  0
  -20.6749  -26.9402   22.5444 C   0  0  0  0  0  0
  -19.5732  -26.6402   21.5235 C   0  0  0  0  0  0
  -18.1911  -26.7950   22.1641 C   0  0  0  0  0  0
  -19.1518  -28.8852   23.2928 C   0  0  0  0  0  0
  -18.9453  -30.1466   23.8931 C   0  0  0  0  0  0
  -17.6457  -30.6603   24.0587 C   0  0  0  0  0  0
  -25.9018  -34.9480   23.5162 C   0  0  0  0  0  0
  -16.5346  -29.9114   23.6331 C   0  0  0  0  0  0
  -16.7265  -28.6528   23.0358 C   0  0  0  0  0  0
  -26.4443  -31.6595   25.0723 C   0  0  0  0  0  0
  -25.3729  -31.3684   26.1486 C   0  0  0  0  0  0
  -27.0286  -30.3060   24.6036 C   0  0  0  0  0  0
  -27.6021  -32.4306   25.7461 C   0  0  0  0  0  0
  -27.5591  -37.1797   24.8465 C   0  0  0  0  0  0
  -21.4119  -29.3042   22.3755 N   0  0  0  0  0  0
  -26.4281  -37.3802   23.9431 N   0  0  0  0  0  0
  -24.6570  -31.0882   22.0995 N   0  0  0  0  0  0
  -23.4169  -28.8233   23.3058 O   0  0  0  0  0  0
  -28.4019  -26.7247   19.9972 O   0  0  0  0  0  0
  -26.5590  -34.8918   22.4732 O   0  0  0  0  0  0
  -23.5279  -32.1443   23.7568 O   0  0  0  0  0  0
  -31.0688  -18.8760   20.4907 C   0  0  0  0  0  0
  -29.1603  -18.8780   21.9895 C   0  0  0  0  0  0
  -31.1043  -17.4692   20.5326 C   0  0  0  0  0  0
  -29.1973  -17.4704   22.0409 C   0  0  0  0  0  0
  -30.0930  -19.5943   21.2091 C   0  0  0  0  0  0
  -30.1581  -16.7479   21.3022 C   0  0  0  0  0  0
  -29.5317  -21.9481   22.2228 C   0  0  0  0  0  0
  -30.0333  -21.0887   21.0815 C   0  0  1  0  0  0
  -30.9921  -22.0099   21.8129 C   0  0  1  0  0  0
  -28.6373  -26.4127   22.4428 C   0  0  0  0  0  0
  -30.4206  -27.6317   21.0629 C   0  0  0  0  0  0
  -29.9348  -25.1712   20.6294 C   0  0  0  0  0  0
  -31.0190  -24.5245   21.5231 C   0  0  0  0  0  0
  -29.3374  -26.5331   21.0701 C   0  0  0  0  0  0
  -30.0791  -15.3261   21.3534 N   0  0  0  0  0  0
  -31.3946  -23.1894   21.0058 N   0  3  0  0  0  0
  -31.4646  -12.3725   19.1071 H   0  0  0  0  0  0
  -30.3077  -11.2615   19.7773 H   0  0  0  0  0  0
  -29.7246  -11.8188   17.3981 H   0  0  0  0  0  0
  -29.6689  -13.5180   17.7909 H   0  0  0  0  0  0
  -27.8048  -11.3287   18.7752 H   0  0  0  0  0  0
  -27.3654  -12.6916   17.7835 H   0  0  0  0  0  0
  -27.7251  -14.2570   19.6153 H   0  0  0  0  0  0
  -28.6687  -11.8896   21.3000 H   0  0  0  0  0  0
  -28.4602  -13.4991   21.8987 H   0  0  0  0  0  0
  -25.2746   -9.5707   22.4737 H   0  0  0  0  0  0
  -23.9998   -7.4648   22.7472 H   0  0  0  0  0  0
  -21.0820   -8.8754   19.8957 H   0  0  0  0  0  0
  -22.3655  -10.9661   19.6149 H   0  0  0  0  0  0
  -21.2011   -7.6140   23.9710 H   0  0  0  0  0  0
  -21.1482   -6.0520   25.9074 H   0  0  0  0  0  0
  -22.0597   -2.7606   23.2851 H   0  0  0  0  0  0
  -22.4112  -11.9905   22.4772 H   0  0  0  0  0  0
  -21.1122  -13.1279   22.2587 H   0  0  0  0  0  0
  -24.6724  -15.8459   20.5219 H   0  0  0  0  0  0
  -26.2966  -15.6249   20.1105 H   0  0  0  0  0  0
  -26.7063  -32.5617   23.1217 H   0  0  0  0  0  0
  -24.9981  -33.9800   25.0488 H   0  0  0  0  0  0
  -22.6806  -31.3082   21.4095 H   0  0  0  0  0  0
  -23.3731  -35.9666   23.3316 H   0  0  0  0  0  0
  -24.3592  -36.8914   22.2054 H   0  0  0  0  0  0
  -23.7222  -37.6536   23.6631 H   0  0  0  0  0  0
  -26.0160  -31.6174   20.5826 H   0  0  0  0  0  0
  -26.8075  -30.9237   21.9680 H   0  0  0  0  0  0
  -28.0773  -29.2062   21.1637 H   0  0  0  0  0  0
  -26.1311  -25.9978   19.0340 H   0  0  0  0  0  0
  -24.0037  -27.2766   19.0571 H   0  0  0  0  0  0
  -23.7030  -30.5861   19.3998 H   0  0  0  0  0  0
  -22.7356  -29.2247   19.8811 H   0  0  0  0  0  0
  -25.1254  -36.1998   25.0850 H   0  0  0  0  0  0
  -20.9966  -28.3237   24.1457 H   0  0  0  0  0  0
  -20.5654  -26.2276   23.3636 H   0  0  0  0  0  0
  -21.6624  -26.7453   22.1237 H   0  0  0  0  0  0
  -19.6880  -25.6320   21.1246 H   0  0  0  0  0  0
  -19.6669  -27.3228   20.6776 H   0  0  0  0  0  0
  -17.4186  -26.6731   21.4031 H   0  0  0  0  0  0
  -18.0290  -26.0087   22.9028 H   0  0  0  0  0  0
  -19.7931  -30.7277   24.2301 H   0  0  0  0  0  0
  -17.5014  -31.6279   24.5211 H   0  0  0  0  0  0
  -15.5352  -30.3035   23.7631 H   0  0  0  0  0  0
  -15.8663  -28.0862   22.7056 H   0  0  0  0  0  0
  -24.5866  -30.7073   25.7829 H   0  0  0  0  0  0
  -24.8949  -32.2840   26.4989 H   0  0  0  0  0  0
  -25.8103  -30.8805   27.0204 H   0  0  0  0  0  0
  -26.2835  -29.6807   24.1104 H   0  0  0  0  0  0
  -27.4135  -29.7299   25.4463 H   0  0  0  0  0  0
  -27.8623  -30.4442   23.9139 H   0  0  0  0  0  0
  -27.2653  -33.3592   26.2087 H   0  0  0  0  0  0
  -28.3790  -32.6901   25.0250 H   0  0  0  0  0  0
  -28.0730  -31.8394   26.5327 H   0  0  0  0  0  0
  -28.2598  -38.0107   24.7557 H   0  0  0  0  0  0
  -28.1096  -36.2650   24.6223 H   0  0  0  0  0  0
  -27.2336  -37.1376   25.8873 H   0  0  0  0  0  0
  -20.9279  -29.8770   21.6990 H   0  0  0  0  0  0
  -26.0186  -38.2887   24.1426 H   0  0  0  0  0  0
  -31.7875  -19.4016   19.8771 H   0  0  0  0  0  0
  -28.3927  -19.4022   22.5419 H   0  0  0  0  0  0
  -31.8614  -16.9776   19.9420 H   0  0  0  0  0  0
  -28.4603  -16.9514   22.6394 H   0  0  0  0  0  0
  -29.3193  -21.4689   23.1765 H   0  0  0  0  0  0
  -28.8672  -22.7711   21.9744 H   0  0  0  0  0  0
  -29.7054  -21.3627   20.0792 H   0  0  0  0  0  0
  -31.7531  -21.6124   22.4816 H   0  0  0  0  0  0
  -29.3351  -26.1307   23.2293 H   0  0  0  0  0  0
  -27.8447  -25.6648   22.4191 H   0  0  0  0  0  0
  -28.1911  -27.3540   22.7642 H   0  0  0  0  0  0
  -30.0467  -28.6037   21.3717 H   0  0  0  0  0  0
  -30.8603  -27.7504   20.0722 H   0  0  0  0  0  0
  -31.2305  -27.3907   21.7511 H   0  0  0  0  0  0
  -29.1101  -24.4680   20.5088 H   0  0  0  0  0  0
  -30.3539  -25.2917   19.6280 H   0  0  0  0  0  0
  -30.7075  -24.4521   22.5638 H   0  0  0  0  0  0
  -31.9138  -25.1458   21.5191 H   0  0  0  0  0  0
  -29.2694  -14.9591   21.8311 H   0  0  0  0  0  0
  -31.0519  -23.0937   20.0648 H   0  0  0  0  0  0
  -32.3996  -23.1642   20.9362 H   0  0  0  0  0  0
  1 25  1  0  0  0
  1 30  2  0  0  0
  1 85  1  0  0  0
  2  3  1  0  0  0
  2 25  1  0  0  0
  2 87  1  0  0  0
  2 88  1  0  0  0
  3  4  1  0  0  0
  3 89  1  0  0  0
  3 90  1  0  0  0
  4  5  1  0  0  0
  4 91  1  0  0  0
  4 92  1  0  0  0
  5  6  1  0  0  0
  5 26  1  0  0  0
  5 93  1  0  0  0
  6 25  1  0  0  0
  6 94  1  0  0  0
  6 95  1  0  0  0
  7  8  2  0  0  0
  7 26  1  0  0  0
  7 29  1  0  0  0
  8  9  1  0  0  0
  8 22  1  0  0  0
  9 10  1  0  0  0
  9 27  2  0  0  0
 10 11  2  0  0  0
 10 15  1  0  0  0
 11 12  1  0  0  0
 11 96  1  0  0  0
 12 13  2  0  0  0
 12 97  1  0  0  0
 13 14  1  0  0  0
 13 31  1  0  0  0
 14 15  2  0  0  0
 14 98  1  0  0  0
 15 99  1  0  0  0
 16 17  2  0  0  0
 16 21  1  0  0  0
 16 31  1  0  0  0
 17 18  1  0  0  0
 17100  1  0  0  0
 18 19  2  0  0  0
 18101  1  0  0  0
 19 20  1  0  0  0
 19 24  1  0  0  0
 20 21  2  0  0  0
 20102  1  0  0  0
 21 23  1  0  0  0
 22 28  1  0  0  0
 22 32  2  0  0  0
 26 27  1  0  0  0
 28103  1  0  0  0
 28104  1  0  0  0
 29105  1  0  0  0
 29106  1  0  0  0
 33 34  1  0  0  0
 33 66  1  0  0  0
 33 70  2  0  0  0
 34 36  1  0  0  0
 34 59  1  0  0  0
 34107  1  0  0  0
 35 44  2  0  0  0
 35 45  1  0  0  0
 35 68  1  0  0  0
 36 56  1  0  0  0
 36108  1  0  0  0
 37 39  1  0  0  0
 37 47  1  0  0  0
 37 66  1  0  0  0
 37109  1  0  0  0
 38 43  2  0  0  0
 38 46  1  0  0  0
 38 47  1  0  0  0
 39 64  1  0  0  0
 39 67  2  0  0  0
 40 52  1  0  0  0
 40 53  2  0  0  0
 40 58  1  0  0  0
 41110  1  0  0  0
 41111  1  0  0  0
 41112  1  0  0  0
 41 48  1  0  0  0
 42 43  1  0  0  0
 42 66  1  0  0  0
 42113  1  0  0  0
 42114  1  0  0  0
 43 44  1  0  0  0
 44115  1  0  0  0
 45 46  2  0  0  0
 45116  1  0  0  0
 46117  1  0  0  0
 47118  1  0  0  0
 47119  1  0  0  0
 48 56  1  0  0  0
 48 65  1  0  0  0
 48120  1  0  0  0
 49 50  1  0  0  0
 49 53  1  0  0  0
 49 64  1  0  0  0
 49121  1  0  0  0
 50 51  1  0  0  0
 50122  1  0  0  0
 50123  1  0  0  0
 51 52  1  0  0  0
 51124  1  0  0  0
 51125  1  0  0  0
 52126  1  0  0  0
 52127  1  0  0  0
 53 54  1  0  0  0
 54 55  2  0  0  0
 54128  1  0  0  0
 55 57  1  0  0  0
 55129  1  0  0  0
 56 69  2  0  0  0
 57 58  2  0  0  0
 57130  1  0  0  0
 58131  1  0  0  0
 59 60  1  0  0  0
 59 61  1  0  0  0
 59 62  1  0  0  0
 60132  1  0  0  0
 60133  1  0  0  0
 60134  1  0  0  0
 61135  1  0  0  0
 61136  1  0  0  0
 61137  1  0  0  0
 62138  1  0  0  0
 62139  1  0  0  0
 62140  1  0  0  0
 63 65  1  0  0  0
 63141  1  0  0  0
 63142  1  0  0  0
 63143  1  0  0  0
 64144  1  0  0  0
 65145  1  0  0  0
 68 84  1  0  0  0
 71 73  2  0  0  0
 71 75  1  0  0  0
 71146  1  0  0  0
 72 74  1  0  0  0
 72 75  2  0  0  0
 72147  1  0  0  0
 73 76  1  0  0  0
 73148  1  0  0  0
 74 76  2  0  0  0
 74149  1  0  0  0
 75 78  1  0  0  0
 76 85  1  0  0  0
 77 78  1  0  0  0
 77 79  1  0  0  0
 77150  1  0  0  0
 77151  1  0  0  0
 78 79  1  0  0  0
 78152  1  0  0  0
 79 86  1  0  0  0
 79153  1  0  0  0
 80154  1  0  0  0
 80155  1  0  0  0
 80156  1  0  0  0
 80 84  1  0  0  0
 81 84  1  0  0  0
 81157  1  0  0  0
 81158  1  0  0  0
 81159  1  0  0  0
 82 83  1  0  0  0
 82 84  1  0  0  0
 82160  1  0  0  0
 82161  1  0  0  0
 83 86  1  0  0  0
 83162  1  0  0  0
 83163  1  0  0  0
 85164  1  0  0  0
 86165  1  0  0  0
 86166  1  0  0  0
M  CHG  1  86   1
M  ISO  4   1 100  68 101  84 101  85 100
M  END
> <chiral flag>
0

> <version>
0

> <s_m_source_file>
/data/baiqing/PycharmProjects/Reinvent-master-3.2/result/LINK_invent/BTK/process_docking_weight1_custom_product_contain_oxygen_bond_distance_aromatic_linkinvent_7_9_3/rearranged_h_0144.sdf

> <i_m_source_file_index>
95

> <r_mmod_Potential_Energy-OPLS-2005>
-182.815979003906

> <r_mmod_Stretch_Energy-OPLS-2005>
34.1592559814453

> <r_mmod_Bend_Energy-OPLS-2005>
128.367050170898

> <r_mmod_Torsional_Energy-OPLS-2005>
279.90234375

> <r_mmod_Improper_Torsional_Energy-OPLS-2005>
3.01459860801697

> <r_mmod_Van_der_Waal_Energy-OPLS-2005>
156.777603149414

> <r_mmod_Electrostatic_Energy-OPLS-2005>
-320.373504638672

> <r_mmod_Solvation_Energy-OPLS-2005>
-471.148864746094

> <b_mmod_Minimization_Converged-OPLS-2005>
0

> <r_mmod_RMS_Derivative-OPLS-2005>
2.32224059104919

$$$$
96
                    3D
 Structure written by MMmdl.
166175  0  0  1  0            999 V2000
  -30.6829  -14.5310   20.4674 C   0  0  0  0  0  0
  -30.4369  -12.3214   19.4278 C   0  0  0  0  0  0
  -29.5042  -12.4775   18.2089 C   0  0  0  0  0  0
  -28.0249  -12.3423   18.6249 C   0  0  0  0  0  0
  -27.6613  -13.2074   19.8579 C   0  0  2  0  0  0
  -28.7096  -13.0421   20.9838 C   0  0  0  0  0  0
  -25.2636  -13.8174   20.5655 C   0  0  0  0  0  0
  -24.1856  -13.0475   20.9178 C   0  0  0  0  0  0
  -24.6384  -11.6919   20.8710 C   0  0  0  0  0  0
  -23.9022  -10.4292   21.0380 C   0  0  0  0  0  0
  -24.3554   -9.4212   21.9179 C   0  0  0  0  0  0
  -23.6237   -8.2232   22.0755 C   0  0  0  0  0  0
  -22.4232   -8.0246   21.3528 C   0  0  0  0  0  0
  -21.9863   -9.0240   20.4665 C   0  0  0  0  0  0
  -22.7173  -10.2123   20.3071 C   0  0  0  0  0  0
  -21.6832   -6.0701   22.5259 C   0  0  0  0  0  0
  -21.4000   -6.5625   23.8178 C   0  0  0  0  0  0
  -21.3661   -5.6784   24.9146 C   0  0  0  0  0  0
  -21.6045   -4.3042   24.7207 C   0  0  0  0  0  0
  -21.8820   -3.8119   23.4331 C   0  0  0  0  0  0
  -21.9200   -4.6939   22.3380 C   0  0  0  0  0  0
  -22.7879  -13.5305   21.1767 C   0  0  0  0  0  0
  -22.1677   -4.2132   21.0957 F   0  0  0  0  0  0
  -21.5630   -3.4547   25.7733 F   0  0  0  0  0  0
  -30.0350  -13.3362   20.4182 N   0  0  0  0  0  0
  -26.3013  -12.9337   20.3261 N   0  0  0  0  0  0
  -25.9305  -11.6488   20.5695 N   0  0  0  0  0  0
  -22.0410  -12.8398   22.0296 N   0  0  0  0  0  0
  -25.4438  -15.1874   20.3999 N   0  0  0  0  0  0
  -31.8600  -14.6607   20.1169 O   0  0  0  0  0  0
  -21.6595   -6.8854   21.4217 O   0  0  0  0  0  0
  -22.3619  -14.5600   20.6540 O   0  0  0  0  0  0
  -24.6163  -31.8672   23.2079 C   0  0  0  0  0  0
  -25.9041  -32.4815   23.8372 C   0  0  1  0  0  0
  -27.2205  -27.4002   20.1218 C   0  0  0  0  0  0
  -25.5900  -33.8613   24.2317 N   0  0  0  0  0  0
  -23.4026  -30.4925   21.5498 C   0  0  2  0  0  0
  -24.8439  -28.9579   20.1092 C   0  0  0  0  0  0
  -22.7411  -29.4661   22.4991 C   0  0  0  0  0  0
  -18.0269  -28.1397   22.8490 C   0  0  0  0  0  0
  -24.1486  -36.7304   23.2645 C   0  0  0  0  0  0
  -25.9320  -30.8281   21.3602 C   0  0  0  0  0  0
  -26.0032  -29.4566   20.7148 C   0  0  0  0  0  0
  -27.1870  -28.6845   20.7188 C   0  0  0  0  0  0
  -26.0394  -26.9166   19.5123 C   0  0  0  0  0  0
  -24.8600  -27.6898   19.4991 C   0  0  0  0  0  0
  -23.6057  -29.8260   20.1608 C   0  0  0  0  0  0
  -25.4107  -36.3122   24.0352 C   0  0  1  0  0  0
  -20.5859  -28.3680   23.1348 C   0  0  2  0  0  0
  -20.6754  -26.9416   22.5455 C   0  0  0  0  0  0
  -19.5734  -26.6404   21.5239 C   0  0  0  0  0  0
  -18.1904  -26.7939   22.1627 C   0  0  0  0  0  0
  -19.1525  -28.8852   23.2904 C   0  0  0  0  0  0
  -18.9447  -30.1455   23.8901 C   0  0  0  0  0  0
  -17.6455  -30.6589   24.0581 C   0  0  0  0  0  0
  -25.9023  -34.9474   23.5129 C   0  0  0  0  0  0
  -16.5339  -29.9083   23.6360 C   0  0  0  0  0  0
  -16.7263  -28.6518   23.0351 C   0  0  0  0  0  0
  -26.4455  -31.6595   25.0707 C   0  0  0  0  0  0
  -25.3712  -31.3719   26.1473 C   0  0  0  0  0  0
  -27.0271  -30.3039   24.6063 C   0  0  0  0  0  0
  -27.6083  -32.4286   25.7416 C   0  0  0  0  0  0
  -27.5591  -37.1802   24.8461 C   0  0  0  0  0  0
  -21.4155  -29.3039   22.3742 N   0  0  0  0  0  0
  -26.4293  -37.3819   23.9425 N   0  0  0  0  0  0
  -24.6684  -31.0766   22.0969 N   0  0  0  0  0  0
  -23.4188  -28.8215   23.3039 O   0  0  0  0  0  0
  -28.3936  -26.6630   20.1879 O   0  0  0  0  0  0
  -26.5603  -34.8917   22.4695 O   0  0  0  0  0  0
  -23.5353  -32.1447   23.7482 O   0  0  0  0  0  0
  -30.2898  -18.0736   17.8578 C   0  0  0  0  0  0
  -30.1425  -19.3067   18.5136 C   0  0  0  0  0  0
  -30.2332  -16.8704   18.5859 C   0  0  0  0  0  0
  -29.8538  -18.1354   20.6429 C   0  0  0  0  0  0
  -29.9435  -19.3586   19.9099 C   0  0  0  0  0  0
  -30.0157  -16.8772   19.9892 C   0  0  0  0  0  0
  -30.0211  -20.6930   20.5503 C   0  0  0  0  0  0
  -27.4467  -23.0913   19.3542 C   0  0  0  0  0  0
  -28.1383  -21.7080   19.2441 C   0  0  0  0  0  0
  -29.7199  -23.2331   20.0855 C   0  0  1  0  0  0
  -28.3943  -24.0471   20.1406 C   0  0  2  0  0  0
  -30.8536  -23.6877   21.0272 C   0  0  0  0  0  0
  -27.8734  -24.1534   21.5943 C   0  0  0  0  0  0
  -28.5541  -25.4515   19.4262 C   0  0  0  0  0  0
  -29.3377  -21.7919   20.0949 N   0  0  0  0  0  0
  -29.9141  -15.6243   20.6982 N   0  0  0  0  0  0
  -30.8712  -20.8236   21.5642 N   0  3  0  0  0  0
  -31.4782  -12.4345   19.1134 H   0  0  0  0  0  0
  -30.3601  -11.3204   19.8523 H   0  0  0  0  0  0
  -29.7439  -11.7307   17.4496 H   0  0  0  0  0  0
  -29.6725  -13.4474   17.7414 H   0  0  0  0  0  0
  -27.8315  -11.2904   18.8402 H   0  0  0  0  0  0
  -27.3816  -12.6067   17.7844 H   0  0  0  0  0  0
  -27.6913  -14.2413   19.5129 H   0  0  0  0  0  0
  -28.7001  -12.0233   21.3751 H   0  0  0  0  0  0
  -28.4854  -13.6999   21.8242 H   0  0  0  0  0  0
  -25.2676   -9.5761   22.4767 H   0  0  0  0  0  0
  -23.9968   -7.4678   22.7496 H   0  0  0  0  0  0
  -21.0790   -8.8780   19.8989 H   0  0  0  0  0  0
  -22.3611  -10.9680   19.6202 H   0  0  0  0  0  0
  -21.1976   -7.6133   23.9689 H   0  0  0  0  0  0
  -21.1481   -6.0489   25.9060 H   0  0  0  0  0  0
  -22.0604   -2.7585   23.2781 H   0  0  0  0  0  0
  -22.3917  -12.0126   22.4888 H   0  0  0  0  0  0
  -21.1006  -13.1524   22.2314 H   0  0  0  0  0  0
  -24.6749  -15.8440   20.4881 H   0  0  0  0  0  0
  -26.2818  -15.6086   20.0194 H   0  0  0  0  0  0
  -26.7105  -32.5534   23.1133 H   0  0  0  0  0  0
  -25.0071  -33.9733   25.0473 H   0  0  0  0  0  0
  -22.6909  -31.3092   21.4197 H   0  0  0  0  0  0
  -23.3755  -35.9624   23.3300 H   0  0  0  0  0  0
  -24.3618  -36.8914   22.2060 H   0  0  0  0  0  0
  -23.7165  -37.6482   23.6651 H   0  0  0  0  0  0
  -26.0395  -31.5908   20.5867 H   0  0  0  0  0  0
  -26.8223  -30.8874   21.9746 H   0  0  0  0  0  0
  -28.0755  -29.0668   21.2003 H   0  0  0  0  0  0
  -25.9900  -25.9363   19.0631 H   0  0  0  0  0  0
  -23.9726  -27.3014   19.0229 H   0  0  0  0  0  0
  -23.6993  -30.6003   19.3970 H   0  0  0  0  0  0
  -22.7274  -29.2395   19.8832 H   0  0  0  0  0  0
  -25.1260  -36.2019   25.0845 H   0  0  0  0  0  0
  -20.9953  -28.3239   24.1469 H   0  0  0  0  0  0
  -20.5701  -26.2253   23.3626 H   0  0  0  0  0  0
  -21.6615  -26.7496   22.1236 H   0  0  0  0  0  0
  -19.6892  -25.6318   21.1253 H   0  0  0  0  0  0
  -19.6673  -27.3209   20.6757 H   0  0  0  0  0  0
  -17.4204  -26.6746   21.3987 H   0  0  0  0  0  0
  -18.0258  -26.0079   22.9019 H   0  0  0  0  0  0
  -19.7917  -30.7295   24.2243 H   0  0  0  0  0  0
  -17.5006  -31.6265   24.5173 H   0  0  0  0  0  0
  -15.5338  -30.2997   23.7666 H   0  0  0  0  0  0
  -15.8666  -28.0854   22.7046 H   0  0  0  0  0  0
  -24.5858  -30.7093   25.7810 H   0  0  0  0  0  0
  -24.8917  -32.2877   26.4946 H   0  0  0  0  0  0
  -25.8056  -30.8862   27.0222 H   0  0  0  0  0  0
  -26.2801  -29.6786   24.1175 H   0  0  0  0  0  0
  -27.4107  -29.7290   25.4495 H   0  0  0  0  0  0
  -27.8600  -30.4353   23.9159 H   0  0  0  0  0  0
  -27.2791  -33.3625   26.1985 H   0  0  0  0  0  0
  -28.3872  -32.6778   25.0192 H   0  0  0  0  0  0
  -28.0780  -31.8402   26.5309 H   0  0  0  0  0  0
  -28.2633  -38.0093   24.7577 H   0  0  0  0  0  0
  -28.1075  -36.2635   24.6213 H   0  0  0  0  0  0
  -27.2352  -37.1382   25.8881 H   0  0  0  0  0  0
  -20.9306  -29.8699   21.6929 H   0  0  0  0  0  0
  -26.0191  -38.2908   24.1435 H   0  0  0  0  0  0
  -30.4690  -18.0555   16.7912 H   0  0  0  0  0  0
  -30.2386  -20.2189   17.9401 H   0  0  0  0  0  0
  -30.3565  -15.9473   18.0388 H   0  0  0  0  0  0
  -29.7040  -18.1638   21.7136 H   0  0  0  0  0  0
  -26.4838  -22.9836   19.8576 H   0  0  0  0  0  0
  -27.2159  -23.4641   18.3554 H   0  0  0  0  0  0
  -28.4148  -21.5134   18.2060 H   0  0  0  0  0  0
  -27.4697  -20.9087   19.5656 H   0  0  0  0  0  0
  -30.1290  -23.3726   19.0845 H   0  0  0  0  0  0
  -30.6168  -23.5583   22.0821 H   0  0  0  0  0  0
  -31.0860  -24.7403   20.8661 H   0  0  0  0  0  0
  -31.7748  -23.1465   20.8084 H   0  0  0  0  0  0
  -27.7916  -23.1605   22.0453 H   0  0  0  0  0  0
  -26.8821  -24.6094   21.6334 H   0  0  0  0  0  0
  -28.5377  -24.7456   22.2254 H   0  0  0  0  0  0
  -27.9937  -25.5014   18.4946 H   0  0  0  0  0  0
  -29.5793  -25.5240   19.0664 H   0  0  0  0  0  0
  -29.0251  -15.4436   21.1371 H   0  0  0  0  0  0
  -31.4387  -20.0379   21.8424 H   0  0  0  0  0  0
  -30.9622  -21.6914   22.0645 H   0  0  0  0  0  0
  1 25  1  0  0  0
  1 30  2  0  0  0
  1 86  1  0  0  0
  2  3  1  0  0  0
  2 25  1  0  0  0
  2 88  1  0  0  0
  2 89  1  0  0  0
  3  4  1  0  0  0
  3 90  1  0  0  0
  3 91  1  0  0  0
  4  5  1  0  0  0
  4 92  1  0  0  0
  4 93  1  0  0  0
  5  6  1  0  0  0
  5 26  1  0  0  0
  5 94  1  0  0  0
  6 25  1  0  0  0
  6 95  1  0  0  0
  6 96  1  0  0  0
  7  8  2  0  0  0
  7 26  1  0  0  0
  7 29  1  0  0  0
  8  9  1  0  0  0
  8 22  1  0  0  0
  9 10  1  0  0  0
  9 27  2  0  0  0
 10 11  2  0  0  0
 10 15  1  0  0  0
 11 12  1  0  0  0
 11 97  1  0  0  0
 12 13  2  0  0  0
 12 98  1  0  0  0
 13 14  1  0  0  0
 13 31  1  0  0  0
 14 15  2  0  0  0
 14 99  1  0  0  0
 15100  1  0  0  0
 16 17  2  0  0  0
 16 21  1  0  0  0
 16 31  1  0  0  0
 17 18  1  0  0  0
 17101  1  0  0  0
 18 19  2  0  0  0
 18102  1  0  0  0
 19 20  1  0  0  0
 19 24  1  0  0  0
 20 21  2  0  0  0
 20103  1  0  0  0
 21 23  1  0  0  0
 22 28  1  0  0  0
 22 32  2  0  0  0
 26 27  1  0  0  0
 28104  1  0  0  0
 28105  1  0  0  0
 29106  1  0  0  0
 29107  1  0  0  0
 33 34  1  0  0  0
 33 66  1  0  0  0
 33 70  2  0  0  0
 34 36  1  0  0  0
 34 59  1  0  0  0
 34108  1  0  0  0
 35 44  2  0  0  0
 35 45  1  0  0  0
 35 68  1  0  0  0
 36 56  1  0  0  0
 36109  1  0  0  0
 37 39  1  0  0  0
 37 47  1  0  0  0
 37 66  1  0  0  0
 37110  1  0  0  0
 38 43  2  0  0  0
 38 46  1  0  0  0
 38 47  1  0  0  0
 39 64  1  0  0  0
 39 67  2  0  0  0
 40 52  1  0  0  0
 40 53  2  0  0  0
 40 58  1  0  0  0
 41111  1  0  0  0
 41112  1  0  0  0
 41113  1  0  0  0
 41 48  1  0  0  0
 42 43  1  0  0  0
 42 66  1  0  0  0
 42114  1  0  0  0
 42115  1  0  0  0
 43 44  1  0  0  0
 44116  1  0  0  0
 45 46  2  0  0  0
 45117  1  0  0  0
 46118  1  0  0  0
 47119  1  0  0  0
 47120  1  0  0  0
 48 56  1  0  0  0
 48 65  1  0  0  0
 48121  1  0  0  0
 49 50  1  0  0  0
 49 53  1  0  0  0
 49 64  1  0  0  0
 49122  1  0  0  0
 50 51  1  0  0  0
 50123  1  0  0  0
 50124  1  0  0  0
 51 52  1  0  0  0
 51125  1  0  0  0
 51126  1  0  0  0
 52127  1  0  0  0
 52128  1  0  0  0
 53 54  1  0  0  0
 54 55  2  0  0  0
 54129  1  0  0  0
 55 57  1  0  0  0
 55130  1  0  0  0
 56 69  2  0  0  0
 57 58  2  0  0  0
 57131  1  0  0  0
 58132  1  0  0  0
 59 60  1  0  0  0
 59 61  1  0  0  0
 59 62  1  0  0  0
 60133  1  0  0  0
 60134  1  0  0  0
 60135  1  0  0  0
 61136  1  0  0  0
 61137  1  0  0  0
 61138  1  0  0  0
 62139  1  0  0  0
 62140  1  0  0  0
 62141  1  0  0  0
 63 65  1  0  0  0
 63142  1  0  0  0
 63143  1  0  0  0
 63144  1  0  0  0
 64145  1  0  0  0
 65146  1  0  0  0
 68 84  1  0  0  0
 71 72  2  0  0  0
 71 73  1  0  0  0
 71147  1  0  0  0
 72 75  1  0  0  0
 72148  1  0  0  0
 73 76  2  0  0  0
 73149  1  0  0  0
 74 75  2  0  0  0
 74 76  1  0  0  0
 74150  1  0  0  0
 75 77  1  0  0  0
 76 86  1  0  0  0
 77 85  1  0  0  0
 77 87  2  0  0  0
 78 79  1  0  0  0
 78 81  1  0  0  0
 78151  1  0  0  0
 78152  1  0  0  0
 79 85  1  0  0  0
 79153  1  0  0  0
 79154  1  0  0  0
 80 81  1  0  0  0
 80 82  1  0  0  0
 80 85  1  0  0  0
 80155  1  0  0  0
 81 83  1  0  0  0
 81 84  1  0  0  0
 82156  1  0  0  0
 82157  1  0  0  0
 82158  1  0  0  0
 83159  1  0  0  0
 83160  1  0  0  0
 83161  1  0  0  0
 84162  1  0  0  0
 84163  1  0  0  0
 86164  1  0  0  0
 87165  1  0  0  0
 87166  1  0  0  0
M  CHG  1  87   1
M  ISO  4   1 100  68 101  84 101  86 100
M  END
> <chiral flag>
0

> <version>
0

> <s_m_source_file>
/data/baiqing/PycharmProjects/Reinvent-master-3.2/result/LINK_invent/BTK/process_docking_weight1_custom_product_contain_oxygen_bond_distance_aromatic_linkinvent_7_9_3/rearranged_h_0144.sdf

> <i_m_source_file_index>
96

> <r_mmod_Potential_Energy-OPLS-2005>
-14.4464530944824

> <r_mmod_Stretch_Energy-OPLS-2005>
51.0855178833008

> <r_mmod_Bend_Energy-OPLS-2005>
164.772048950195

> <r_mmod_Torsional_Energy-OPLS-2005>
366.466033935547

> <r_mmod_Improper_Torsional_Energy-OPLS-2005>
8.59550762176514

> <r_mmod_Van_der_Waal_Energy-OPLS-2005>
158.925170898438

> <r_mmod_Electrostatic_Energy-OPLS-2005>
-398.101959228516

> <r_mmod_Solvation_Energy-OPLS-2005>
-391.316802978516

> <b_mmod_Minimization_Converged-OPLS-2005>
0

> <r_mmod_RMS_Derivative-OPLS-2005>
5.58084440231323

$$$$
97
                    3D
 Structure written by MMmdl.
151159  0  0  1  0            999 V2000
  -30.6365  -14.6985   20.4618 C   0  0  0  0  0  0
  -30.4261  -12.4169   19.4892 C   0  0  0  0  0  0
  -29.5129  -12.4945   18.2462 C   0  0  0  0  0  0
  -28.0370  -12.3252   18.6544 C   0  0  0  0  0  0
  -27.6471  -13.2300   19.8540 C   0  0  2  0  0  0
  -28.6847  -13.1463   20.9967 C   0  0  0  0  0  0
  -25.2564  -13.8209   20.5663 C   0  0  0  0  0  0
  -24.1846  -13.0463   20.9184 C   0  0  0  0  0  0
  -24.6425  -11.6939   20.8764 C   0  0  0  0  0  0
  -23.9108  -10.4315   21.0445 C   0  0  0  0  0  0
  -24.3660   -9.4208   21.9192 C   0  0  0  0  0  0
  -23.6327   -8.2251   22.0738 C   0  0  0  0  0  0
  -22.4296   -8.0295   21.3546 C   0  0  0  0  0  0
  -21.9945   -9.0260   20.4636 C   0  0  0  0  0  0
  -22.7295  -10.2144   20.3069 C   0  0  0  0  0  0
  -21.6844   -6.0765   22.5293 C   0  0  0  0  0  0
  -21.3995   -6.5661   23.8231 C   0  0  0  0  0  0
  -21.3660   -5.6815   24.9194 C   0  0  0  0  0  0
  -21.6056   -4.3082   24.7231 C   0  0  0  0  0  0
  -21.8828   -3.8167   23.4357 C   0  0  0  0  0  0
  -21.9177   -4.6990   22.3418 C   0  0  0  0  0  0
  -22.7889  -13.5245   21.1886 C   0  0  0  0  0  0
  -22.1661   -4.2180   21.0991 F   0  0  0  0  0  0
  -21.5617   -3.4555   25.7743 F   0  0  0  0  0  0
  -29.9988  -13.4786   20.4331 N   0  0  0  0  0  0
  -26.2977  -12.9410   20.3290 N   0  0  0  0  0  0
  -25.9354  -11.6563   20.5776 N   0  0  0  0  0  0
  -22.0548  -12.8186   22.0431 N   0  0  0  0  0  0
  -25.4358  -15.1942   20.4125 N   0  0  0  0  0  0
  -31.8011  -14.7702   20.0561 O   0  0  0  0  0  0
  -21.6646   -6.8902   21.4247 O   0  0  0  0  0  0
  -22.3574  -14.5559   20.6755 O   0  0  0  0  0  0
  -24.6341  -31.8581   23.2026 C   0  0  0  0  0  0
  -25.9142  -32.4779   23.8416 C   0  0  1  0  0  0
  -27.2008  -27.2638   20.1199 C   0  0  0  0  0  0
  -25.5923  -33.8581   24.2301 N   0  0  0  0  0  0
  -23.4303  -30.4893   21.5440 C   0  0  2  0  0  0
  -24.8738  -28.9457   20.1067 C   0  0  0  0  0  0
  -22.7518  -29.4662   22.4900 C   0  0  0  0  0  0
  -18.0344  -28.1327   22.8480 C   0  0  0  0  0  0
  -24.1493  -36.7282   23.2637 C   0  0  0  0  0  0
  -25.9811  -30.7740   21.3846 C   0  0  0  0  0  0
  -26.0487  -29.3992   20.7208 C   0  0  0  0  0  0
  -27.2179  -28.5697   20.7141 C   0  0  0  0  0  0
  -26.0063  -26.8984   19.4554 C   0  0  0  0  0  0
  -24.8582  -27.7076   19.4604 C   0  0  0  0  0  0
  -23.6463  -29.8309   20.1569 C   0  0  0  0  0  0
  -25.4112  -36.3075   24.0339 C   0  0  1  0  0  0
  -20.5943  -28.3743   23.1278 C   0  0  2  0  0  0
  -20.6883  -26.9447   22.5410 C   0  0  0  0  0  0
  -19.5891  -26.6409   21.5161 C   0  0  0  0  0  0
  -18.2051  -26.7908   22.1569 C   0  0  0  0  0  0
  -19.1561  -28.8846   23.2863 C   0  0  0  0  0  0
  -18.9445  -30.1467   23.8869 C   0  0  0  0  0  0
  -17.6410  -30.6568   24.0494 C   0  0  0  0  0  0
  -25.9059  -34.9452   23.5094 C   0  0  0  0  0  0
  -16.5341  -29.8989   23.6242 C   0  0  0  0  0  0
  -16.7314  -28.6397   23.0327 C   0  0  0  0  0  0
  -26.4494  -31.6604   25.0804 C   0  0  0  0  0  0
  -25.3714  -31.3761   26.1523 C   0  0  0  0  0  0
  -27.0336  -30.3025   24.6295 C   0  0  0  0  0  0
  -27.6062  -32.4325   25.7542 C   0  0  0  0  0  0
  -27.5567  -37.1796   24.8457 C   0  0  0  0  0  0
  -21.4221  -29.3095   22.3627 N   0  0  0  0  0  0
  -26.4285  -37.3773   23.9400 N   0  0  0  0  0  0
  -24.7010  -31.0594   22.0977 N   0  0  0  0  0  0
  -23.4236  -28.8198   23.2967 O   0  0  0  0  0  0
  -28.2546  -26.3201   20.2026 O   0  0  0  0  0  0
  -26.5620  -34.8902   22.4661 O   0  0  0  0  0  0
  -23.5474  -32.1370   23.7327 O   0  0  0  0  0  0
  -29.2768  -19.6180   19.5703 C   0  0  0  0  0  0
  -29.1434  -20.4044   21.6001 C   0  0  0  0  0  0
  -28.9748  -20.8413   20.3064 C   0  0  0  0  0  0
  -29.5946  -18.5643   20.4158 C   0  0  0  0  0  0
  -30.0354  -17.1550   20.2140 C   0  0  0  0  0  0
  -29.8925  -15.9415   20.8685 C   0  0  0  0  0  0
  -28.8394  -23.6757   20.3558 C   0  0  0  0  0  0
  -28.5986  -22.3097   18.2082 C   0  0  0  0  0  0
  -27.8179  -24.8813   20.1401 C   0  0  0  0  0  0
  -28.4460  -22.2452   19.7472 C   0  0  1  0  0  0
  -29.8989  -23.8354   20.9686 O   0  0  0  0  0  0
  -29.4802  -19.0584   21.6854 O   0  0  0  0  0  0
  -31.4705  -12.5088   19.1914 H   0  0  0  0  0  0
  -30.3389  -11.4394   19.9642 H   0  0  0  0  0  0
  -29.7947  -11.7192   17.5307 H   0  0  0  0  0  0
  -29.6554  -13.4536   17.7476 H   0  0  0  0  0  0
  -27.9021  -11.2772   18.9259 H   0  0  0  0  0  0
  -27.3763  -12.5041   17.8062 H   0  0  0  0  0  0
  -27.6492  -14.2532   19.4776 H   0  0  0  0  0  0
  -28.7020  -12.1495   21.4380 H   0  0  0  0  0  0
  -28.4155  -13.8252   21.8041 H   0  0  0  0  0  0
  -25.2814   -9.5687   22.4769 H   0  0  0  0  0  0
  -24.0046   -7.4643   22.7475 H   0  0  0  0  0  0
  -21.0864   -8.8826   19.8953 H   0  0  0  0  0  0
  -22.3775  -10.9692   19.6205 H   0  0  0  0  0  0
  -21.1982   -7.6169   23.9734 H   0  0  0  0  0  0
  -21.1475   -6.0550   25.9103 H   0  0  0  0  0  0
  -22.0590   -2.7621   23.2855 H   0  0  0  0  0  0
  -22.4159  -11.9807   22.4781 H   0  0  0  0  0  0
  -21.1181  -13.1218   22.2681 H   0  0  0  0  0  0
  -24.6862  -15.8651   20.5472 H   0  0  0  0  0  0
  -26.3118  -15.6223   20.1360 H   0  0  0  0  0  0
  -26.7223  -32.5422   23.1183 H   0  0  0  0  0  0
  -25.0101  -33.9761   25.0469 H   0  0  0  0  0  0
  -22.7252  -31.3113   21.4006 H   0  0  0  0  0  0
  -23.3741  -35.9618   23.3291 H   0  0  0  0  0  0
  -24.3608  -36.8908   22.2051 H   0  0  0  0  0  0
  -23.7265  -37.6497   23.6648 H   0  0  0  0  0  0
  -26.1286  -31.5376   20.6195 H   0  0  0  0  0  0
  -26.8562  -30.8141   22.0244 H   0  0  0  0  0  0
  -28.1133  -28.9080   21.2207 H   0  0  0  0  0  0
  -25.8982  -25.9669   18.9228 H   0  0  0  0  0  0
  -23.9639  -27.3667   18.9585 H   0  0  0  0  0  0
  -23.7682  -30.6100   19.4049 H   0  0  0  0  0  0
  -22.7632  -29.2634   19.8550 H   0  0  0  0  0  0
  -25.1295  -36.1924   25.0841 H   0  0  0  0  0  0
  -21.0054  -28.3365   24.1403 H   0  0  0  0  0  0
  -20.5796  -26.2341   23.3603 H   0  0  0  0  0  0
  -21.6799  -26.7529   22.1277 H   0  0  0  0  0  0
  -19.7102  -25.6338   21.1139 H   0  0  0  0  0  0
  -19.6786  -27.3276   20.6718 H   0  0  0  0  0  0
  -17.4342  -26.6634   21.3953 H   0  0  0  0  0  0
  -18.0470  -26.0014   22.8943 H   0  0  0  0  0  0
  -19.7849  -30.7300   24.2302 H   0  0  0  0  0  0
  -17.4898  -31.6241   24.5057 H   0  0  0  0  0  0
  -15.5311  -30.2862   23.7532 H   0  0  0  0  0  0
  -15.8749  -28.0663   22.7039 H   0  0  0  0  0  0
  -24.5895  -30.7102   25.7857 H   0  0  0  0  0  0
  -24.8905  -32.2938   26.4902 H   0  0  0  0  0  0
  -25.8047  -30.8984   27.0331 H   0  0  0  0  0  0
  -26.2968  -29.6762   24.1269 H   0  0  0  0  0  0
  -27.3954  -29.7284   25.4827 H   0  0  0  0  0  0
  -27.8858  -30.4281   23.9625 H   0  0  0  0  0  0
  -27.2713  -33.3627   26.2139 H   0  0  0  0  0  0
  -28.3866  -32.6888   25.0364 H   0  0  0  0  0  0
  -28.0749  -31.8451   26.5446 H   0  0  0  0  0  0
  -28.2593  -38.0079   24.7487 H   0  0  0  0  0  0
  -28.1079  -36.2622   24.6312 H   0  0  0  0  0  0
  -27.2310  -37.1475   25.8871 H   0  0  0  0  0  0
  -20.9399  -29.8778   21.6809 H   0  0  0  0  0  0
  -26.0151  -38.2854   24.1368 H   0  0  0  0  0  0
  -29.2406  -19.5147   18.4948 H   0  0  0  0  0  0
  -29.0215  -20.8845   22.5638 H   0  0  0  0  0  0
  -30.6809  -17.0915   19.3477 H   0  0  0  0  0  0
  -29.2510  -15.9056   21.7331 H   0  0  0  0  0  0
  -28.0750  -21.4912   17.7129 H   0  0  0  0  0  0
  -29.6482  -22.2654   17.9119 H   0  0  0  0  0  0
  -28.1835  -23.2230   17.7797 H   0  0  0  0  0  0
  -27.3744  -24.6838   19.1671 H   0  0  0  0  0  0
  -27.0243  -24.7465   20.8827 H   0  0  0  0  0  0
  -27.3717  -22.2070   19.9374 H   0  0  0  0  0  0
  1 25  1  0  0  0
  1 30  2  0  0  0
  1 76  1  0  0  0
  2  3  1  0  0  0
  2 25  1  0  0  0
  2 83  1  0  0  0
  2 84  1  0  0  0
  3  4  1  0  0  0
  3 85  1  0  0  0
  3 86  1  0  0  0
  4  5  1  0  0  0
  4 87  1  0  0  0
  4 88  1  0  0  0
  5  6  1  0  0  0
  5 26  1  0  0  0
  5 89  1  0  0  0
  6 25  1  0  0  0
  6 90  1  0  0  0
  6 91  1  0  0  0
  7  8  2  0  0  0
  7 26  1  0  0  0
  7 29  1  0  0  0
  8  9  1  0  0  0
  8 22  1  0  0  0
  9 10  1  0  0  0
  9 27  2  0  0  0
 10 11  2  0  0  0
 10 15  1  0  0  0
 11 12  1  0  0  0
 11 92  1  0  0  0
 12 13  2  0  0  0
 12 93  1  0  0  0
 13 14  1  0  0  0
 13 31  1  0  0  0
 14 15  2  0  0  0
 14 94  1  0  0  0
 15 95  1  0  0  0
 16 17  2  0  0  0
 16 21  1  0  0  0
 16 31  1  0  0  0
 17 18  1  0  0  0
 17 96  1  0  0  0
 18 19  2  0  0  0
 18 97  1  0  0  0
 19 20  1  0  0  0
 19 24  1  0  0  0
 20 21  2  0  0  0
 20 98  1  0  0  0
 21 23  1  0  0  0
 22 28  1  0  0  0
 22 32  2  0  0  0
 26 27  1  0  0  0
 28 99  1  0  0  0
 28100  1  0  0  0
 29101  1  0  0  0
 29102  1  0  0  0
 33 34  1  0  0  0
 33 66  1  0  0  0
 33 70  2  0  0  0
 34 36  1  0  0  0
 34 59  1  0  0  0
 34103  1  0  0  0
 35 44  2  0  0  0
 35 45  1  0  0  0
 35 68  1  0  0  0
 36 56  1  0  0  0
 36104  1  0  0  0
 37 39  1  0  0  0
 37 47  1  0  0  0
 37 66  1  0  0  0
 37105  1  0  0  0
 38 43  2  0  0  0
 38 46  1  0  0  0
 38 47  1  0  0  0
 39 64  1  0  0  0
 39 67  2  0  0  0
 40 52  1  0  0  0
 40 53  2  0  0  0
 40 58  1  0  0  0
 41106  1  0  0  0
 41107  1  0  0  0
 41108  1  0  0  0
 41 48  1  0  0  0
 42 43  1  0  0  0
 42 66  1  0  0  0
 42109  1  0  0  0
 42110  1  0  0  0
 43 44  1  0  0  0
 44111  1  0  0  0
 45 46  2  0  0  0
 45112  1  0  0  0
 46113  1  0  0  0
 47114  1  0  0  0
 47115  1  0  0  0
 48 56  1  0  0  0
 48 65  1  0  0  0
 48116  1  0  0  0
 49 50  1  0  0  0
 49 53  1  0  0  0
 49 64  1  0  0  0
 49117  1  0  0  0
 50 51  1  0  0  0
 50118  1  0  0  0
 50119  1  0  0  0
 51 52  1  0  0  0
 51120  1  0  0  0
 51121  1  0  0  0
 52122  1  0  0  0
 52123  1  0  0  0
 53 54  1  0  0  0
 54 55  2  0  0  0
 54124  1  0  0  0
 55 57  1  0  0  0
 55125  1  0  0  0
 56 69  2  0  0  0
 57 58  2  0  0  0
 57126  1  0  0  0
 58127  1  0  0  0
 59 60  1  0  0  0
 59 61  1  0  0  0
 59 62  1  0  0  0
 60128  1  0  0  0
 60129  1  0  0  0
 60130  1  0  0  0
 61131  1  0  0  0
 61132  1  0  0  0
 61133  1  0  0  0
 62134  1  0  0  0
 62135  1  0  0  0
 62136  1  0  0  0
 63 65  1  0  0  0
 63137  1  0  0  0
 63138  1  0  0  0
 63139  1  0  0  0
 64140  1  0  0  0
 65141  1  0  0  0
 68 79  1  0  0  0
 71 73  1  0  0  0
 71 74  2  0  0  0
 71142  1  0  0  0
 72 73  2  0  0  0
 72 82  1  0  0  0
 72143  1  0  0  0
 73 80  1  0  0  0
 74 75  1  0  0  0
 74 82  1  0  0  0
 75 76  2  0  0  0
 75144  1  0  0  0
 76145  1  0  0  0
 77 79  1  0  0  0
 77 80  1  0  0  0
 77 81  2  0  0  0
 78146  1  0  0  0
 78147  1  0  0  0
 78148  1  0  0  0
 78 80  1  0  0  0
 79149  1  0  0  0
 79150  1  0  0  0
 80151  1  0  0  0
M  ISO  4   1 100  68 101  76 100  79 101
M  END
> <chiral flag>
0

> <version>
0

> <s_m_source_file>
/data/baiqing/PycharmProjects/Reinvent-master-3.2/result/LINK_invent/BTK/process_docking_weight1_custom_product_contain_oxygen_bond_distance_aromatic_linkinvent_7_9_3/rearranged_h_0144.sdf

> <i_m_source_file_index>
97

> <r_mmod_Potential_Energy-OPLS-2005>
176.964050292969

> <r_mmod_Stretch_Energy-OPLS-2005>
106.878623962402

> <r_mmod_Bend_Energy-OPLS-2005>
165.995254516602

> <r_mmod_Torsional_Energy-OPLS-2005>
207.234680175781

> <r_mmod_Improper_Torsional_Energy-OPLS-2005>
3.77903985977173

> <r_mmod_Van_der_Waal_Energy-OPLS-2005>
128.456481933594

> <r_mmod_Electrostatic_Energy-OPLS-2005>
-293.646911621094

> <r_mmod_Solvation_Energy-OPLS-2005>
-222.050384521484

> <b_mmod_Minimization_Converged-OPLS-2005>
0

> <r_mmod_RMS_Derivative-OPLS-2005>
6.21176862716675

$$$$
